
     RDKit          3D

 54 57  0  0  0  0  0  0  0  0999 V2000
  138.4490   71.0750  221.3720 O   0  0  0  0  0  0  0  0  0  0  0  0
  138.9550   71.6470  222.3720 C   0  0  0  0  0  0  0  0  0  0  0  0
  139.1210   73.0640  222.2800 N   0  0  0  0  0  0  0  0  0  0  0  0
  138.6780   73.6730  221.0270 C   0  0  0  0  0  0  0  0  0  0  0  0
  139.7040   73.5060  219.9930 C   0  0  0  0  0  0  0  0  0  0  0  0
  139.3670   73.0270  218.8650 O   0  0  0  0  0  0  0  0  0  0  0  0
  141.0470   73.8860  220.2840 N   0  0  0  0  0  0  0  0  0  0  0  0
  141.8200   73.0400  221.1690 C   0  0  0  0  0  0  0  0  0  0  0  0
  143.0920   72.5230  220.5600 C   0  0  0  0  0  0  0  0  0  0  0  0
  144.2750   73.4250  220.7020 C   0  0  0  0  0  0  0  0  0  0  0  0
  143.9560   74.8320  220.2850 C   0  0  0  0  0  0  0  0  0  0  0  0
  142.9490   74.9390  219.1940 C   0  0  0  0  0  0  0  0  0  0  0  0
  141.5250   75.1030  219.6600 C   0  0  2  0  0  0  0  0  0  0  0  0
  141.5120   76.2710  220.5780 C   0  0  0  0  0  0  0  0  0  0  0  0
  141.9390   77.5300  220.2010 C   0  0  0  0  0  0  0  0  0  0  0  0
  141.9270   78.6150  221.0550 C   0  0  0  0  0  0  0  0  0  0  0  0
  141.4700   78.4580  222.3600 C   0  0  0  0  0  0  0  0  0  0  0  0
  141.0370   77.2080  222.7670 C   0  0  0  0  0  0  0  0  0  0  0  0
  141.0590   76.1410  221.8940 C   0  0  0  0  0  0  0  0  0  0  0  0
  139.3560   70.9140  223.5690 C   0  0  0  0  0  0  0  0  0  0  0  0
  139.1590   69.5480  223.5820 C   0  0  0  0  0  0  0  0  0  0  0  0
  139.5060   68.7620  224.6690 C   0  0  0  0  0  0  0  0  0  0  0  0
  140.0630   69.4120  225.7530 C   0  0  0  0  0  0  0  0  0  0  0  0
  140.4070   68.6290  226.8360 C   0  0  0  0  0  0  0  0  0  0  0  0
  140.9690   69.2600  227.9360 C   0  0  0  0  0  0  0  0  0  0  0  0
  141.3260   68.5330  229.0260 F   0  0  0  0  0  0  0  0  0  0  0  0
  141.1710   70.6400  227.9300 C   0  0  0  0  0  0  0  0  0  0  0  0
  140.8200   71.4190  226.8320 C   0  0  0  0  0  0  0  0  0  0  0  0
  140.2620   70.7800  225.7430 C   0  0  0  0  0  0  0  0  0  0  0  0
  139.9030   71.5120  224.6460 N   0  0  0  0  0  0  0  0  0  0  0  0
  139.5290   73.6080  223.0600 H   0  0  0  0  0  0  0  0  0  0  0  0
  137.7471   73.1889  220.6968 H   0  0  0  0  0  0  0  0  0  0  0  0
  138.5048   74.7468  221.1911 H   0  0  0  0  0  0  0  0  0  0  0  0
  142.0772   73.6214  222.0667 H   0  0  0  0  0  0  0  0  0  0  0  0
  141.1963   72.1633  221.3978 H   0  0  0  0  0  0  0  0  0  0  0  0
  143.3349   71.5640  221.0410 H   0  0  0  0  0  0  0  0  0  0  0  0
  142.9013   72.4355  219.4802 H   0  0  0  0  0  0  0  0  0  0  0  0
  144.5953   73.4293  221.7543 H   0  0  0  0  0  0  0  0  0  0  0  0
  145.0741   73.0469  220.0474 H   0  0  0  0  0  0  0  0  0  0  0  0
  143.5703   75.3714  221.1627 H   0  0  0  0  0  0  0  0  0  0  0  0
  144.8896   75.2613  219.8924 H   0  0  0  0  0  0  0  0  0  0  0  0
  143.2082   75.8097  218.5737 H   0  0  0  0  0  0  0  0  0  0  0  0
  142.9865   73.9869  218.6444 H   0  0  0  0  0  0  0  0  0  0  0  0
  140.8376   75.2875  218.8213 H   0  0  0  0  0  0  0  0  0  0  0  0
  142.3051   77.6744  219.1738 H   0  0  0  0  0  0  0  0  0  0  0  0
  142.2767   79.5977  220.7058 H   0  0  0  0  0  0  0  0  0  0  0  0
  141.4532   79.3108  223.0546 H   0  0  0  0  0  0  0  0  0  0  0  0
  140.6725   77.0647  223.7949 H   0  0  0  0  0  0  0  0  0  0  0  0
  140.7097   75.1582  222.2435 H   0  0  0  0  0  0  0  0  0  0  0  0
  138.7114   69.0671  222.6997 H   0  0  0  0  0  0  0  0  0  0  0  0
  139.3457   67.6737  224.6687 H   0  0  0  0  0  0  0  0  0  0  0  0
  140.2412   67.5416  226.8272 H   0  0  0  0  0  0  0  0  0  0  0  0
  141.6173   71.1227  228.8120 H   0  0  0  0  0  0  0  0  0  0  0  0
  140.9816   72.5071  226.8317 H   0  0  0  0  0  0  0  0  0  0  0  0
  1  2  2  0
  2  3  1  0
  3  4  1  0
  4  5  1  0
  5  6  2  0
  5  7  1  0
  7  8  1  0
  8  9  1  0
  9 10  1  0
 10 11  1  0
 11 12  1  0
 12 13  1  0
 13 14  1  0
 14 15  2  0
 15 16  1  0
 16 17  2  0
 17 18  1  0
 18 19  2  0
  2 20  1  0
 20 21  2  0
 21 22  1  0
 22 23  2  0
 23 24  1  0
 24 25  2  0
 25 26  1  0
 25 27  1  0
 27 28  2  0
 28 29  1  0
 29 30  2  0
 13  7  1  0
 19 14  1  0
 30 20  1  0
 29 23  1  0
  3 31  1  0
  4 32  1  0
  4 33  1  0
  8 34  1  0
  8 35  1  0
  9 36  1  0
  9 37  1  0
 10 38  1  0
 10 39  1  0
 11 40  1  0
 11 41  1  0
 12 42  1  0
 12 43  1  0
 13 44  1  6
 15 45  1  0
 16 46  1  0
 17 47  1  0
 18 48  1  0
 19 49  1  0
 21 50  1  0
 22 51  1  0
 24 52  1  0
 27 53  1  0
 28 54  1  0
M  END
>  <smiles>  (1) 
O=C(NCC(=O)N1CCCCCC1c1ccccc1)c1ccc2cc(F)ccc2n1

>  <score_type>  (1) 
oracle

>  <origin>  (1) 
autodockgpu

>  <m_score__min__energy>  (1) 
-6.9000000000000004

>  <m_primary>  (1) 
energy

>  <rmsd>  (1) 
2.522682281723499

>  <m_score__min__rmsd>  (1) 
2.522682281723499

>  <meeko>  (1) 
{"free_energy": -5.99, "intermolecular_energy": -9.27, "internal_energy": -2.02, "cluster_size": 12, "cluster_id": 2, "rank_in_cluster": 6}

>  <energy>  (1) 
-6.9

>  <cluster_rmsd>  (1) 
0.0

>  <cluster>  (1) 
1

$$$$

     RDKit          3D

 54 57  0  0  0  0  0  0  0  0999 V2000
  135.6590   77.7320  223.1330 O   0  0  0  0  0  0  0  0  0  0  0  0
  135.9070   76.5480  223.4800 C   0  0  0  0  0  0  0  0  0  0  0  0
  137.0930   75.9610  222.9410 N   0  0  0  0  0  0  0  0  0  0  0  0
  137.8740   76.8160  222.0500 C   0  0  0  0  0  0  0  0  0  0  0  0
  139.3030   76.6870  222.3500 C   0  0  0  0  0  0  0  0  0  0  0  0
  139.8310   75.5310  222.3450 O   0  0  0  0  0  0  0  0  0  0  0  0
  140.0580   77.8630  222.6360 N   0  0  0  0  0  0  0  0  0  0  0  0
  139.3920   78.9540  223.3150 C   0  0  0  0  0  0  0  0  0  0  0  0
  139.4830   80.2670  222.5920 C   0  0  0  0  0  0  0  0  0  0  0  0
  140.7400   81.0390  222.8340 C   0  0  0  0  0  0  0  0  0  0  0  0
  141.9430   80.3340  222.2740 C   0  0  0  0  0  0  0  0  0  0  0  0
  142.2010   78.9920  222.8630 C   0  0  0  0  0  0  0  0  0  0  0  0
  141.4440   77.8600  222.2150 C   0  0  2  0  0  0  0  0  0  0  0  0
  141.6070   78.0290  220.7490 C   0  0  0  0  0  0  0  0  0  0  0  0
  142.5750   77.3680  220.0160 C   0  0  0  0  0  0  0  0  0  0  0  0
  142.7250   77.5260  218.6530 C   0  0  0  0  0  0  0  0  0  0  0  0
  141.8760   78.3850  217.9620 C   0  0  0  0  0  0  0  0  0  0  0  0
  140.8960   79.0620  218.6690 C   0  0  0  0  0  0  0  0  0  0  0  0
  140.7680   78.8860  220.0300 C   0  0  0  0  0  0  0  0  0  0  0  0
  135.0370   75.8020  224.3840 C   0  0  0  0  0  0  0  0  0  0  0  0
  134.1190   76.5170  225.1280 C   0  0  0  0  0  0  0  0  0  0  0  0
  133.2480   75.9030  226.0140 C   0  0  0  0  0  0  0  0  0  0  0  0
  133.3380   74.5290  226.1220 C   0  0  0  0  0  0  0  0  0  0  0  0
  132.4710   73.9190  227.0050 C   0  0  0  0  0  0  0  0  0  0  0  0
  132.5430   72.5390  227.1300 C   0  0  0  0  0  0  0  0  0  0  0  0
  131.7100   71.8910  227.9850 F   0  0  0  0  0  0  0  0  0  0  0  0
  133.4660   71.8100  226.3810 C   0  0  0  0  0  0  0  0  0  0  0  0
  134.3350   72.4380  225.4940 C   0  0  0  0  0  0  0  0  0  0  0  0
  134.2550   73.8100  225.3780 C   0  0  0  0  0  0  0  0  0  0  0  0
  135.0930   74.4620  224.5170 N   0  0  0  0  0  0  0  0  0  0  0  0
  137.3670   74.9910  223.1780 H   0  0  0  0  0  0  0  0  0  0  0  0
  137.6929   76.5160  221.0073 H   0  0  0  0  0  0  0  0  0  0  0  0
  137.5689   77.8625  222.1976 H   0  0  0  0  0  0  0  0  0  0  0  0
  138.3292   78.6941  223.4284 H   0  0  0  0  0  0  0  0  0  0  0  0
  139.9001   79.0860  224.2817 H   0  0  0  0  0  0  0  0  0  0  0  0
  139.4082   80.0675  221.5128 H   0  0  0  0  0  0  0  0  0  0  0  0
  138.6627   80.8881  222.9810 H   0  0  0  0  0  0  0  0  0  0  0  0
  140.6501   82.0253  222.3553 H   0  0  0  0  0  0  0  0  0  0  0  0
  140.8767   81.1388  223.9209 H   0  0  0  0  0  0  0  0  0  0  0  0
  141.7961   80.2114  221.1908 H   0  0  0  0  0  0  0  0  0  0  0  0
  142.8147   80.9575  222.5218 H   0  0  0  0  0  0  0  0  0  0  0  0
  143.2766   78.7800  222.7730 H   0  0  0  0  0  0  0  0  0  0  0  0
  141.8534   79.0397  223.9056 H   0  0  0  0  0  0  0  0  0  0  0  0
  141.8353   76.8776  222.5178 H   0  0  0  0  0  0  0  0  0  0  0  0
  143.2570   76.6847  220.5432 H   0  0  0  0  0  0  0  0  0  0  0  0
  143.5116   76.9757  218.1159 H   0  0  0  0  0  0  0  0  0  0  0  0
  141.9810   78.5237  216.8758 H   0  0  0  0  0  0  0  0  0  0  0  0
  140.2149   79.7451  218.1404 H   0  0  0  0  0  0  0  0  0  0  0  0
  139.9817   79.4366  220.5671 H   0  0  0  0  0  0  0  0  0  0  0  0
  134.0778   77.6102  225.0135 H   0  0  0  0  0  0  0  0  0  0  0  0
  132.5206   76.4816  226.6024 H   0  0  0  0  0  0  0  0  0  0  0  0
  131.7477   74.5064  227.5897 H   0  0  0  0  0  0  0  0  0  0  0  0
  133.5080   70.7166  226.4936 H   0  0  0  0  0  0  0  0  0  0  0  0
  135.0617   71.8594  224.9049 H   0  0  0  0  0  0  0  0  0  0  0  0
  1  2  2  0
  2  3  1  0
  3  4  1  0
  4  5  1  0
  5  6  2  0
  5  7  1  0
  7  8  1  0
  8  9  1  0
  9 10  1  0
 10 11  1  0
 11 12  1  0
 12 13  1  0
 13 14  1  0
 14 15  2  0
 15 16  1  0
 16 17  2  0
 17 18  1  0
 18 19  2  0
  2 20  1  0
 20 21  2  0
 21 22  1  0
 22 23  2  0
 23 24  1  0
 24 25  2  0
 25 26  1  0
 25 27  1  0
 27 28  2  0
 28 29  1  0
 29 30  2  0
 13  7  1  0
 19 14  1  0
 30 20  1  0
 29 23  1  0
  3 31  1  0
  4 32  1  0
  4 33  1  0
  8 34  1  0
  8 35  1  0
  9 36  1  0
  9 37  1  0
 10 38  1  0
 10 39  1  0
 11 40  1  0
 11 41  1  0
 12 42  1  0
 12 43  1  0
 13 44  1  1
 15 45  1  0
 16 46  1  0
 17 47  1  0
 18 48  1  0
 19 49  1  0
 21 50  1  0
 22 51  1  0
 24 52  1  0
 27 53  1  0
 28 54  1  0
M  END
>  <smiles>  (2) 
O=C(NCC(=O)N1CCCCCC1c1ccccc1)c1ccc2cc(F)ccc2n1

>  <score_type>  (2) 
oracle

>  <origin>  (2) 
autodockgpu

>  <m_score__min__energy>  (2) 
-6.9000000000000004

>  <m_primary>  (2) 
energy

>  <rmsd>  (2) 
6.786675926877432

>  <m_score__min__rmsd>  (2) 
6.786675926877432

>  <meeko>  (2) 
{"free_energy": -5.32, "intermolecular_energy": -8.6, "internal_energy": -1.7, "cluster_size": 1, "cluster_id": 7, "rank_in_cluster": 1}

>  <energy>  (2) 
-6.82

>  <cluster_rmsd>  (2) 
0.21

>  <cluster>  (2) 
1

$$$$

     RDKit          3D

 54 57  0  0  0  0  0  0  0  0999 V2000
  138.9160   71.2400  221.1710 O   0  0  0  0  0  0  0  0  0  0  0  0
  139.2090   71.8200  222.2480 C   0  0  0  0  0  0  0  0  0  0  0  0
  139.3150   73.2450  222.1960 N   0  0  0  0  0  0  0  0  0  0  0  0
  139.0650   73.8510  220.8900 C   0  0  0  0  0  0  0  0  0  0  0  0
  140.1640   73.5410  219.9700 C   0  0  0  0  0  0  0  0  0  0  0  0
  139.8890   73.2140  218.7730 O   0  0  0  0  0  0  0  0  0  0  0  0
  141.5060   73.6160  220.4460 N   0  0  0  0  0  0  0  0  0  0  0  0
  142.0250   72.4990  221.2050 C   0  0  0  0  0  0  0  0  0  0  0  0
  143.0840   71.7130  220.4860 C   0  0  0  0  0  0  0  0  0  0  0  0
  144.4500   72.3190  220.5110 C   0  0  0  0  0  0  0  0  0  0  0  0
  144.4720   73.6740  219.8630 C   0  0  0  0  0  0  0  0  0  0  0  0
  143.6750   74.7100  220.5730 C   0  0  0  0  0  0  0  0  0  0  0  0
  142.2400   74.8230  220.1240 C   0  0  2  0  0  0  0  0  0  0  0  0
  141.6860   76.0340  220.7820 C   0  0  0  0  0  0  0  0  0  0  0  0
  141.7090   77.2870  220.1990 C   0  0  0  0  0  0  0  0  0  0  0  0
  141.1940   78.4110  220.8120 C   0  0  0  0  0  0  0  0  0  0  0  0
  140.6210   78.3050  222.0760 C   0  0  0  0  0  0  0  0  0  0  0  0
  140.5840   77.0630  222.6860 C   0  0  0  0  0  0  0  0  0  0  0  0
  141.1050   75.9550  222.0520 C   0  0  0  0  0  0  0  0  0  0  0  0
  139.4340   71.0890  223.4910 C   0  0  0  0  0  0  0  0  0  0  0  0
  139.0020   69.7800  223.5540 C   0  0  0  0  0  0  0  0  0  0  0  0
  139.1680   69.0010  224.6870 C   0  0  0  0  0  0  0  0  0  0  0  0
  139.7920   69.5980  225.7660 C   0  0  0  0  0  0  0  0  0  0  0  0
  139.9560   68.8210  226.8950 C   0  0  0  0  0  0  0  0  0  0  0  0
  140.5810   69.4000  227.9900 C   0  0  0  0  0  0  0  0  0  0  0  0
  140.7660   68.6770  229.1250 F   0  0  0  0  0  0  0  0  0  0  0  0
  141.0200   70.7220  227.9340 C   0  0  0  0  0  0  0  0  0  0  0  0
  140.8490   71.4940  226.7900 C   0  0  0  0  0  0  0  0  0  0  0  0
  140.2260   70.9080  225.7060 C   0  0  0  0  0  0  0  0  0  0  0  0
  140.0390   71.6360  224.5640 N   0  0  0  0  0  0  0  0  0  0  0  0
  139.5520   73.7960  223.0390 H   0  0  0  0  0  0  0  0  0  0  0  0
  138.1246   73.4548  220.4795 H   0  0  0  0  0  0  0  0  0  0  0  0
  138.9924   74.9422  221.0082 H   0  0  0  0  0  0  0  0  0  0  0  0
  142.4562   72.8863  222.1399 H   0  0  0  0  0  0  0  0  0  0  0  0
  141.1827   71.8135  221.3800 H   0  0  0  0  0  0  0  0  0  0  0  0
  143.1442   70.7178  220.9507 H   0  0  0  0  0  0  0  0  0  0  0  0
  142.7804   71.6854  219.4291 H   0  0  0  0  0  0  0  0  0  0  0  0
  144.7757   72.4193  221.5569 H   0  0  0  0  0  0  0  0  0  0  0  0
  145.1265   71.6598  219.9472 H   0  0  0  0  0  0  0  0  0  0  0  0
  145.5165   74.0159  219.8168 H   0  0  0  0  0  0  0  0  0  0  0  0
  144.0147   73.5534  218.8699 H   0  0  0  0  0  0  0  0  0  0  0  0
  143.6796   74.4690  221.6463 H   0  0  0  0  0  0  0  0  0  0  0  0
  144.1481   75.6759  220.3425 H   0  0  0  0  0  0  0  0  0  0  0  0
  142.1582   74.9281  219.0321 H   0  0  0  0  0  0  0  0  0  0  0  0
  142.1584   77.3931  219.2006 H   0  0  0  0  0  0  0  0  0  0  0  0
  141.2361   79.3859  220.3042 H   0  0  0  0  0  0  0  0  0  0  0  0
  140.2060   79.1903  222.5800 H   0  0  0  0  0  0  0  0  0  0  0  0
  140.1352   76.9591  223.6849 H   0  0  0  0  0  0  0  0  0  0  0  0
  141.0625   74.9802  222.5599 H   0  0  0  0  0  0  0  0  0  0  0  0
  138.5090   69.3403  222.6744 H   0  0  0  0  0  0  0  0  0  0  0  0
  138.8202   67.9582  224.7262 H   0  0  0  0  0  0  0  0  0  0  0  0
  139.6036   67.7794  226.9255 H   0  0  0  0  0  0  0  0  0  0  0  0
  141.5120   71.1637  228.8131 H   0  0  0  0  0  0  0  0  0  0  0  0
  141.1983   72.5363  226.7500 H   0  0  0  0  0  0  0  0  0  0  0  0
  1  2  2  0
  2  3  1  0
  3  4  1  0
  4  5  1  0
  5  6  2  0
  5  7  1  0
  7  8  1  0
  8  9  1  0
  9 10  1  0
 10 11  1  0
 11 12  1  0
 12 13  1  0
 13 14  1  0
 14 15  2  0
 15 16  1  0
 16 17  2  0
 17 18  1  0
 18 19  2  0
  2 20  1  0
 20 21  2  0
 21 22  1  0
 22 23  2  0
 23 24  1  0
 24 25  2  0
 25 26  1  0
 25 27  1  0
 27 28  2  0
 28 29  1  0
 29 30  2  0
 13  7  1  0
 19 14  1  0
 30 20  1  0
 29 23  1  0
  3 31  1  0
  4 32  1  0
  4 33  1  0
  8 34  1  0
  8 35  1  0
  9 36  1  0
  9 37  1  0
 10 38  1  0
 10 39  1  0
 11 40  1  0
 11 41  1  0
 12 42  1  0
 12 43  1  0
 13 44  1  6
 15 45  1  0
 16 46  1  0
 17 47  1  0
 18 48  1  0
 19 49  1  0
 21 50  1  0
 22 51  1  0
 24 52  1  0
 27 53  1  0
 28 54  1  0
M  END
>  <smiles>  (3) 
O=C(NCC(=O)N1CCCCCC1c1ccccc1)c1ccc2cc(F)ccc2n1

>  <score_type>  (3) 
oracle

>  <origin>  (3) 
autodockgpu

>  <m_score__min__energy>  (3) 
-6.9000000000000004

>  <m_primary>  (3) 
energy

>  <rmsd>  (3) 
2.8306893033741543

>  <m_score__min__rmsd>  (3) 
2.8306893033741543

>  <meeko>  (3) 
{"free_energy": -5.91, "intermolecular_energy": -9.19, "internal_energy": -1.94, "cluster_size": 3, "cluster_id": 5, "rank_in_cluster": 2}

>  <energy>  (3) 
-6.47

>  <cluster_rmsd>  (3) 
0.93

>  <cluster>  (3) 
1

$$$$

     RDKit          3D

 54 57  0  0  0  0  0  0  0  0999 V2000
  141.7690   73.7970  220.5570 O   0  0  0  0  0  0  0  0  0  0  0  0
  141.0480   74.5120  221.3010 C   0  0  0  0  0  0  0  0  0  0  0  0
  140.0330   73.8350  222.0440 N   0  0  0  0  0  0  0  0  0  0  0  0
  139.9600   72.3890  221.8460 C   0  0  0  0  0  0  0  0  0  0  0  0
  138.6210   71.8990  222.1860 C   0  0  0  0  0  0  0  0  0  0  0  0
  137.6610   72.1230  221.3820 O   0  0  0  0  0  0  0  0  0  0  0  0
  138.4350   71.1850  223.4060 N   0  0  0  0  0  0  0  0  0  0  0  0
  137.2000   71.3870  224.1340 C   0  0  0  0  0  0  0  0  0  0  0  0
  136.1840   70.3000  223.9240 C   0  0  0  0  0  0  0  0  0  0  0  0
  136.7150   68.9070  224.0320 C   0  0  0  0  0  0  0  0  0  0  0  0
  137.7940   68.6420  223.0210 C   0  0  0  0  0  0  0  0  0  0  0  0
  139.1770   68.8710  223.5190 C   0  0  0  0  0  0  0  0  0  0  0  0
  139.5150   70.3100  223.8150 C   0  0  2  0  0  0  0  0  0  0  0  0
  139.8040   70.3840  225.2700 C   0  0  0  0  0  0  0  0  0  0  0  0
  139.3650   69.4370  226.1760 C   0  0  0  0  0  0  0  0  0  0  0  0
  139.6350   69.5070  227.5280 C   0  0  0  0  0  0  0  0  0  0  0  0
  140.3800   70.5710  228.0270 C   0  0  0  0  0  0  0  0  0  0  0  0
  140.8330   71.5370  227.1440 C   0  0  0  0  0  0  0  0  0  0  0  0
  140.5500   71.4430  225.7980 C   0  0  0  0  0  0  0  0  0  0  0  0
  141.2290   75.9560  221.4080 C   0  0  0  0  0  0  0  0  0  0  0  0
  141.5900   76.6450  220.2670 C   0  0  0  0  0  0  0  0  0  0  0  0
  141.7860   78.0160  220.2620 C   0  0  0  0  0  0  0  0  0  0  0  0
  141.6030   78.6730  221.4640 C   0  0  0  0  0  0  0  0  0  0  0  0
  141.7990   80.0390  221.4590 C   0  0  0  0  0  0  0  0  0  0  0  0
  141.6210   80.7210  222.6550 C   0  0  0  0  0  0  0  0  0  0  0  0
  141.8020   82.0660  222.7020 F   0  0  0  0  0  0  0  0  0  0  0  0
  141.2570   80.0320  223.8110 C   0  0  0  0  0  0  0  0  0  0  0  0
  141.0620   78.6550  223.8030 C   0  0  0  0  0  0  0  0  0  0  0  0
  141.2420   77.9870  222.6080 C   0  0  0  0  0  0  0  0  0  0  0  0
  141.0610   76.6330  222.5610 N   0  0  0  0  0  0  0  0  0  0  0  0
  139.3990   74.3510  222.6790 H   0  0  0  0  0  0  0  0  0  0  0  0
  140.1762   72.1550  220.7931 H   0  0  0  0  0  0  0  0  0  0  0  0
  140.6980   71.8994  222.4984 H   0  0  0  0  0  0  0  0  0  0  0  0
  137.4352   71.4384  225.2073 H   0  0  0  0  0  0  0  0  0  0  0  0
  136.7543   72.3181  223.7540 H   0  0  0  0  0  0  0  0  0  0  0  0
  135.3928   70.4226  224.6783 H   0  0  0  0  0  0  0  0  0  0  0  0
  135.8247   70.4118  222.8904 H   0  0  0  0  0  0  0  0  0  0  0  0
  137.1284   68.7606  225.0408 H   0  0  0  0  0  0  0  0  0  0  0  0
  135.8868   68.2092  223.8394 H   0  0  0  0  0  0  0  0  0  0  0  0
  137.7139   67.5929  222.7002 H   0  0  0  0  0  0  0  0  0  0  0  0
  137.6352   69.3567  222.2000 H   0  0  0  0  0  0  0  0  0  0  0  0
  139.3069   68.2920  224.4452 H   0  0  0  0  0  0  0  0  0  0  0  0
  139.8523   68.5557  222.7100 H   0  0  0  0  0  0  0  0  0  0  0  0
  140.3933   70.6509  223.2473 H   0  0  0  0  0  0  0  0  0  0  0  0
  138.7732   68.5883  225.8025 H   0  0  0  0  0  0  0  0  0  0  0  0
  139.2631   68.7258  228.2073 H   0  0  0  0  0  0  0  0  0  0  0  0
  140.6047   70.6434  229.1014 H   0  0  0  0  0  0  0  0  0  0  0  0
  141.4232   72.3859  227.5196 H   0  0  0  0  0  0  0  0  0  0  0  0
  140.9220   72.2242  225.1188 H   0  0  0  0  0  0  0  0  0  0  0  0
  141.7266   76.0856  219.3297 H   0  0  0  0  0  0  0  0  0  0  0  0
  142.0730   78.5550  219.3471 H   0  0  0  0  0  0  0  0  0  0  0  0
  142.0864   80.5692  220.5390 H   0  0  0  0  0  0  0  0  0  0  0  0
  141.1211   80.5894  224.7495 H   0  0  0  0  0  0  0  0  0  0  0  0
  140.7741   78.1162  224.7178 H   0  0  0  0  0  0  0  0  0  0  0  0
  1  2  2  0
  2  3  1  0
  3  4  1  0
  4  5  1  0
  5  6  2  0
  5  7  1  0
  7  8  1  0
  8  9  1  0
  9 10  1  0
 10 11  1  0
 11 12  1  0
 12 13  1  0
 13 14  1  0
 14 15  2  0
 15 16  1  0
 16 17  2  0
 17 18  1  0
 18 19  2  0
  2 20  1  0
 20 21  2  0
 21 22  1  0
 22 23  2  0
 23 24  1  0
 24 25  2  0
 25 26  1  0
 25 27  1  0
 27 28  2  0
 28 29  1  0
 29 30  2  0
 13  7  1  0
 19 14  1  0
 30 20  1  0
 29 23  1  0
  3 31  1  0
  4 32  1  0
  4 33  1  0
  8 34  1  0
  8 35  1  0
  9 36  1  0
  9 37  1  0
 10 38  1  0
 10 39  1  0
 11 40  1  0
 11 41  1  0
 12 42  1  0
 12 43  1  0
 13 44  1  6
 15 45  1  0
 16 46  1  0
 17 47  1  0
 18 48  1  0
 19 49  1  0
 21 50  1  0
 22 51  1  0
 24 52  1  0
 27 53  1  0
 28 54  1  0
M  END
>  <smiles>  (4) 
O=C(NCC(=O)N1CCCCCC1c1ccccc1)c1ccc2cc(F)ccc2n1

>  <score_type>  (4) 
oracle

>  <origin>  (4) 
autodockgpu

>  <m_score__min__energy>  (4) 
-6.9000000000000004

>  <m_primary>  (4) 
energy

>  <rmsd>  (4) 
8.606682936696425

>  <m_score__min__rmsd>  (4) 
8.606682936696425

>  <meeko>  (4) 
{"free_energy": -6.24, "intermolecular_energy": -9.52, "internal_energy": -1.69, "cluster_size": 10, "cluster_id": 1, "rank_in_cluster": 4}

>  <energy>  (4) 
-6.24

>  <cluster_rmsd>  (4) 
0.94

>  <cluster>  (4) 
1

$$$$

     RDKit          3D

 54 57  0  0  0  0  0  0  0  0999 V2000
  139.8490   73.6970  222.6110 O   0  0  0  0  0  0  0  0  0  0  0  0
  139.8480   72.4440  222.5010 C   0  0  0  0  0  0  0  0  0  0  0  0
  139.7520   71.9210  221.1740 N   0  0  0  0  0  0  0  0  0  0  0  0
  139.6670   72.9150  220.1070 C   0  0  0  0  0  0  0  0  0  0  0  0
  140.9370   72.9840  219.3780 C   0  0  0  0  0  0  0  0  0  0  0  0
  140.9730   72.6000  218.1670 O   0  0  0  0  0  0  0  0  0  0  0  0
  142.0940   73.4800  220.0500 N   0  0  0  0  0  0  0  0  0  0  0  0
  142.6690   72.6740  221.1060 C   0  0  0  0  0  0  0  0  0  0  0  0
  143.8450   71.8480  220.6700 C   0  0  0  0  0  0  0  0  0  0  0  0
  145.0910   72.6210  220.3810 C   0  0  0  0  0  0  0  0  0  0  0  0
  144.8600   73.6820  219.3430 C   0  0  0  0  0  0  0  0  0  0  0  0
  144.0850   74.8580  219.8240 C   0  0  0  0  0  0  0  0  0  0  0  0
  142.5960   74.7660  219.6100 C   0  0  2  0  0  0  0  0  0  0  0  0
  141.9920   75.9080  220.3430 C   0  0  0  0  0  0  0  0  0  0  0  0
  141.1970   75.7500  221.4620 C   0  0  0  0  0  0  0  0  0  0  0  0
  140.6370   76.8130  222.1420 C   0  0  0  0  0  0  0  0  0  0  0  0
  140.8670   78.1110  221.7000 C   0  0  0  0  0  0  0  0  0  0  0  0
  141.6600   78.3020  220.5810 C   0  0  0  0  0  0  0  0  0  0  0  0
  142.2080   77.2230  219.9200 C   0  0  0  0  0  0  0  0  0  0  0  0
  139.9390   71.5590  223.6590 C   0  0  0  0  0  0  0  0  0  0  0  0
  139.5020   70.2580  223.5090 C   0  0  0  0  0  0  0  0  0  0  0  0
  139.5460   69.3400  224.5460 C   0  0  0  0  0  0  0  0  0  0  0  0
  140.0520   69.7880  225.7510 C   0  0  0  0  0  0  0  0  0  0  0  0
  140.0950   68.8730  226.7830 C   0  0  0  0  0  0  0  0  0  0  0  0
  140.5990   69.3010  228.0030 C   0  0  0  0  0  0  0  0  0  0  0  0
  140.6630   68.4380  229.0500 F   0  0  0  0  0  0  0  0  0  0  0  0
  141.0430   70.6130  228.1610 C   0  0  0  0  0  0  0  0  0  0  0  0
  140.9940   71.5260  227.1120 C   0  0  0  0  0  0  0  0  0  0  0  0
  140.4910   71.0900  225.9040 C   0  0  0  0  0  0  0  0  0  0  0  0
  140.4260   71.9580  224.8500 N   0  0  0  0  0  0  0  0  0  0  0  0
  139.7450   70.9010  220.9990 H   0  0  0  0  0  0  0  0  0  0  0  0
  138.8632   72.6333  219.4109 H   0  0  0  0  0  0  0  0  0  0  0  0
  139.4526   73.8992  220.5491 H   0  0  0  0  0  0  0  0  0  0  0  0
  142.9974   73.3447  221.9137 H   0  0  0  0  0  0  0  0  0  0  0  0
  141.8884   71.9708  221.4317 H   0  0  0  0  0  0  0  0  0  0  0  0
  144.0695   71.1263  221.4692 H   0  0  0  0  0  0  0  0  0  0  0  0
  143.5516   71.3744  219.7215 H   0  0  0  0  0  0  0  0  0  0  0  0
  145.4365   73.0998  221.3091 H   0  0  0  0  0  0  0  0  0  0  0  0
  145.8458   71.9212  219.9931 H   0  0  0  0  0  0  0  0  0  0  0  0
  145.8397   74.0370  218.9907 H   0  0  0  0  0  0  0  0  0  0  0  0
  144.2598   73.2160  218.5477 H   0  0  0  0  0  0  0  0  0  0  0  0
  144.2691   74.9708  220.9026 H   0  0  0  0  0  0  0  0  0  0  0  0
  144.4297   75.7184  219.2317 H   0  0  0  0  0  0  0  0  0  0  0  0
  142.3296   74.8314  218.5448 H   0  0  0  0  0  0  0  0  0  0  0  0
  141.0015   74.7311  221.8276 H   0  0  0  0  0  0  0  0  0  0  0  0
  140.0118   76.6339  223.0292 H   0  0  0  0  0  0  0  0  0  0  0  0
  140.4276   78.9696  222.2289 H   0  0  0  0  0  0  0  0  0  0  0  0
  141.8542   79.3216  220.2168 H   0  0  0  0  0  0  0  0  0  0  0  0
  142.8338   77.4022  219.0333 H   0  0  0  0  0  0  0  0  0  0  0  0
  139.1056   69.9395  222.5336 H   0  0  0  0  0  0  0  0  0  0  0  0
  139.1953   68.3055  224.4162 H   0  0  0  0  0  0  0  0  0  0  0  0
  139.7421   67.8405  226.6435 H   0  0  0  0  0  0  0  0  0  0  0  0
  141.4404   70.9333  229.1354 H   0  0  0  0  0  0  0  0  0  0  0  0
  141.3446   72.5605  227.2418 H   0  0  0  0  0  0  0  0  0  0  0  0
  1  2  2  0
  2  3  1  0
  3  4  1  0
  4  5  1  0
  5  6  2  0
  5  7  1  0
  7  8  1  0
  8  9  1  0
  9 10  1  0
 10 11  1  0
 11 12  1  0
 12 13  1  0
 13 14  1  0
 14 15  2  0
 15 16  1  0
 16 17  2  0
 17 18  1  0
 18 19  2  0
  2 20  1  0
 20 21  2  0
 21 22  1  0
 22 23  2  0
 23 24  1  0
 24 25  2  0
 25 26  1  0
 25 27  1  0
 27 28  2  0
 28 29  1  0
 29 30  2  0
 13  7  1  0
 19 14  1  0
 30 20  1  0
 29 23  1  0
  3 31  1  0
  4 32  1  0
  4 33  1  0
  8 34  1  0
  8 35  1  0
  9 36  1  0
  9 37  1  0
 10 38  1  0
 10 39  1  0
 11 40  1  0
 11 41  1  0
 12 42  1  0
 12 43  1  0
 13 44  1  6
 15 45  1  0
 16 46  1  0
 17 47  1  0
 18 48  1  0
 19 49  1  0
 21 50  1  0
 22 51  1  0
 24 52  1  0
 27 53  1  0
 28 54  1  0
M  END
>  <smiles>  (5) 
O=C(NCC(=O)N1CCCCCC1c1ccccc1)c1ccc2cc(F)ccc2n1

>  <score_type>  (5) 
oracle

>  <origin>  (5) 
autodockgpu

>  <m_score__min__energy>  (5) 
-6.9000000000000004

>  <m_primary>  (5) 
energy

>  <rmsd>  (5) 
3.140730381991578

>  <m_score__min__rmsd>  (5) 
3.140730381991578

>  <meeko>  (5) 
{"free_energy": -6.18, "intermolecular_energy": -9.46, "internal_energy": -1.8, "cluster_size": 3, "cluster_id": 5, "rank_in_cluster": 1}

>  <energy>  (5) 
-6.18

>  <cluster_rmsd>  (5) 
1.31

>  <cluster>  (5) 
1

$$$$

     RDKit          3D

 54 57  0  0  0  0  0  0  0  0999 V2000
  140.1730   71.0500  221.6960 O   0  0  0  0  0  0  0  0  0  0  0  0
  140.0070   71.7030  222.7590 C   0  0  0  0  0  0  0  0  0  0  0  0
  139.6480   73.0790  222.6100 N   0  0  0  0  0  0  0  0  0  0  0  0
  139.5170   73.5540  221.2350 C   0  0  0  0  0  0  0  0  0  0  0  0
  138.7040   74.7730  221.1970 C   0  0  0  0  0  0  0  0  0  0  0  0
  137.5780   74.7430  220.6060 O   0  0  0  0  0  0  0  0  0  0  0  0
  139.1990   75.9550  221.8230 N   0  0  0  0  0  0  0  0  0  0  0  0
  138.2400   76.9310  222.2940 C   0  0  0  0  0  0  0  0  0  0  0  0
  138.3380   78.2630  221.6060 C   0  0  0  0  0  0  0  0  0  0  0  0
  139.3990   79.1730  222.1370 C   0  0  0  0  0  0  0  0  0  0  0  0
  140.7730   78.5970  221.9490 C   0  0  0  0  0  0  0  0  0  0  0  0
  141.0130   77.3260  222.6850 C   0  0  0  0  0  0  0  0  0  0  0  0
  140.6380   76.0750  221.9310 C   0  0  2  0  0  0  0  0  0  0  0  0
  141.3160   76.1590  220.6120 C   0  0  0  0  0  0  0  0  0  0  0  0
  140.7730   76.8160  219.5250 C   0  0  0  0  0  0  0  0  0  0  0  0
  141.4040   76.8930  218.3000 C   0  0  0  0  0  0  0  0  0  0  0  0
  142.6440   76.2870  218.1260 C   0  0  0  0  0  0  0  0  0  0  0  0
  143.2140   75.6200  219.1970 C   0  0  0  0  0  0  0  0  0  0  0  0
  142.5630   75.5590  220.4100 C   0  0  0  0  0  0  0  0  0  0  0  0
  140.1690   71.1010  224.0780 C   0  0  0  0  0  0  0  0  0  0  0  0
  140.7210   71.8800  225.0760 C   0  0  0  0  0  0  0  0  0  0  0  0
  140.9170   71.4030  226.3620 C   0  0  0  0  0  0  0  0  0  0  0  0
  140.5330   70.0980  226.6060 C   0  0  0  0  0  0  0  0  0  0  0  0
  140.7300   69.6230  227.8860 C   0  0  0  0  0  0  0  0  0  0  0  0
  140.3510   68.3160  228.1550 C   0  0  0  0  0  0  0  0  0  0  0  0
  140.5230   67.8010  229.4000 F   0  0  0  0  0  0  0  0  0  0  0  0
  139.7930   67.5230  227.1520 C   0  0  0  0  0  0  0  0  0  0  0  0
  139.6000   68.0140  225.8640 C   0  0  0  0  0  0  0  0  0  0  0  0
  139.9800   69.3160  225.6090 C   0  0  0  0  0  0  0  0  0  0  0  0
  139.8070   69.8330  224.3560 N   0  0  0  0  0  0  0  0  0  0  0  0
  139.4930   73.6840  223.4350 H   0  0  0  0  0  0  0  0  0  0  0  0
  140.5159   73.7704  220.8284 H   0  0  0  0  0  0  0  0  0  0  0  0
  139.0268   72.7761  220.6312 H   0  0  0  0  0  0  0  0  0  0  0  0
  137.2289   76.5301  222.1298 H   0  0  0  0  0  0  0  0  0  0  0  0
  138.4582   77.1048  223.3581 H   0  0  0  0  0  0  0  0  0  0  0  0
  138.5454   78.0823  220.5409 H   0  0  0  0  0  0  0  0  0  0  0  0
  137.3794   78.7720  221.7846 H   0  0  0  0  0  0  0  0  0  0  0  0
  139.3407   80.1352  221.6071 H   0  0  0  0  0  0  0  0  0  0  0  0
  139.2281   79.3047  223.2156 H   0  0  0  0  0  0  0  0  0  0  0  0
  140.9223   78.4066  220.8759 H   0  0  0  0  0  0  0  0  0  0  0  0
  141.4807   79.3340  222.3564 H   0  0  0  0  0  0  0  0  0  0  0  0
  142.0841   77.2696  222.9292 H   0  0  0  0  0  0  0  0  0  0  0  0
  140.3648   77.3568  223.5732 H   0  0  0  0  0  0  0  0  0  0  0  0
  140.9651   75.1649  222.4551 H   0  0  0  0  0  0  0  0  0  0  0  0
  139.7922   77.3003  219.6411 H   0  0  0  0  0  0  0  0  0  0  0  0
  140.9291   77.4305  217.4660 H   0  0  0  0  0  0  0  0  0  0  0  0
  143.1615   76.3368  217.1566 H   0  0  0  0  0  0  0  0  0  0  0  0
  144.1942   75.1350  219.0787 H   0  0  0  0  0  0  0  0  0  0  0  0
  143.0384   75.0224  221.2443 H   0  0  0  0  0  0  0  0  0  0  0  0
  141.0149   72.9139  224.8420 H   0  0  0  0  0  0  0  0  0  0  0  0
  141.3567   72.0321  227.1500 H   0  0  0  0  0  0  0  0  0  0  0  0
  141.1725   70.2590  228.6668 H   0  0  0  0  0  0  0  0  0  0  0  0
  139.4995   66.4885  227.3838 H   0  0  0  0  0  0  0  0  0  0  0  0
  139.1595   67.3855  225.0760 H   0  0  0  0  0  0  0  0  0  0  0  0
  1  2  2  0
  2  3  1  0
  3  4  1  0
  4  5  1  0
  5  6  2  0
  5  7  1  0
  7  8  1  0
  8  9  1  0
  9 10  1  0
 10 11  1  0
 11 12  1  0
 12 13  1  0
 13 14  1  0
 14 15  2  0
 15 16  1  0
 16 17  2  0
 17 18  1  0
 18 19  2  0
  2 20  1  0
 20 21  2  0
 21 22  1  0
 22 23  2  0
 23 24  1  0
 24 25  2  0
 25 26  1  0
 25 27  1  0
 27 28  2  0
 28 29  1  0
 29 30  2  0
 13  7  1  0
 19 14  1  0
 30 20  1  0
 29 23  1  0
  3 31  1  0
  4 32  1  0
  4 33  1  0
  8 34  1  0
  8 35  1  0
  9 36  1  0
  9 37  1  0
 10 38  1  0
 10 39  1  0
 11 40  1  0
 11 41  1  0
 12 42  1  0
 12 43  1  0
 13 44  1  1
 15 45  1  0
 16 46  1  0
 17 47  1  0
 18 48  1  0
 19 49  1  0
 21 50  1  0
 22 51  1  0
 24 52  1  0
 27 53  1  0
 28 54  1  0
M  END
>  <smiles>  (6) 
O=C(NCC(=O)N1CCCCCC1c1ccccc1)c1ccc2cc(F)ccc2n1

>  <score_type>  (6) 
oracle

>  <origin>  (6) 
autodockgpu

>  <m_score__min__energy>  (6) 
-6.9000000000000004

>  <m_primary>  (6) 
energy

>  <rmsd>  (6) 
3.5688375850556566

>  <m_score__min__rmsd>  (6) 
3.5688375850556566

>  <meeko>  (6) 
{"free_energy": -5.84, "intermolecular_energy": -9.12, "internal_energy": -1.56, "cluster_size": 7, "cluster_id": 4, "rank_in_cluster": 3}

>  <energy>  (6) 
-6.11

>  <cluster_rmsd>  (6) 
1.3

>  <cluster>  (6) 
1

$$$$

     RDKit          3D

 54 57  0  0  0  0  0  0  0  0999 V2000
  138.0800   74.5510  222.3710 O   0  0  0  0  0  0  0  0  0  0  0  0
  139.2060   74.7670  221.8540 C   0  0  0  0  0  0  0  0  0  0  0  0
  139.9060   73.6270  221.3520 N   0  0  0  0  0  0  0  0  0  0  0  0
  139.2200   72.3460  221.5010 C   0  0  0  0  0  0  0  0  0  0  0  0
  139.9220   71.5070  222.4770 C   0  0  0  0  0  0  0  0  0  0  0  0
  141.1540   71.2510  222.2940 O   0  0  0  0  0  0  0  0  0  0  0  0
  139.2030   71.0050  223.6020 N   0  0  0  0  0  0  0  0  0  0  0  0
  137.8520   71.4770  223.8150 C   0  0  0  0  0  0  0  0  0  0  0  0
  136.8900   70.4030  224.2370 C   0  0  0  0  0  0  0  0  0  0  0  0
  136.9150   69.1660  223.3990 C   0  0  0  0  0  0  0  0  0  0  0  0
  138.2010   68.4070  223.5630 C   0  0  0  0  0  0  0  0  0  0  0  0
  139.0370   68.8470  224.7120 C   0  0  0  0  0  0  0  0  0  0  0  0
  139.9000   70.0540  224.4430 C   0  0  2  0  0  0  0  0  0  0  0  0
  140.2700   70.6120  225.7690 C   0  0  0  0  0  0  0  0  0  0  0  0
  141.0230   71.7610  225.9200 C   0  0  0  0  0  0  0  0  0  0  0  0
  141.3660   72.2790  227.1530 C   0  0  0  0  0  0  0  0  0  0  0  0
  140.9480   71.6310  228.3120 C   0  0  0  0  0  0  0  0  0  0  0  0
  140.1920   70.4770  228.1920 C   0  0  0  0  0  0  0  0  0  0  0  0
  139.8630   69.9820  226.9490 C   0  0  0  0  0  0  0  0  0  0  0  0
  139.7800   76.1070  221.7670 C   0  0  0  0  0  0  0  0  0  0  0  0
  139.5800   76.8160  220.6000 C   0  0  0  0  0  0  0  0  0  0  0  0
  140.0830   78.0950  220.4170 C   0  0  0  0  0  0  0  0  0  0  0  0
  140.8010   78.6360  221.4670 C   0  0  0  0  0  0  0  0  0  0  0  0
  141.3010   79.9080  221.2840 C   0  0  0  0  0  0  0  0  0  0  0  0
  142.0250   80.4720  222.3250 C   0  0  0  0  0  0  0  0  0  0  0  0
  142.5390   81.7230  222.1950 F   0  0  0  0  0  0  0  0  0  0  0  0
  142.2300   79.7620  223.5070 C   0  0  0  0  0  0  0  0  0  0  0  0
  141.7200   78.4790  223.6790 C   0  0  0  0  0  0  0  0  0  0  0  0
  141.0010   77.9280  222.6370 C   0  0  0  0  0  0  0  0  0  0  0  0
  140.4850   76.6690  222.7680 N   0  0  0  0  0  0  0  0  0  0  0  0
  140.8380   73.7220  220.9120 H   0  0  0  0  0  0  0  0  0  0  0  0
  138.1910   72.5229  221.8472 H   0  0  0  0  0  0  0  0  0  0  0  0
  139.2056   71.8310  220.5291 H   0  0  0  0  0  0  0  0  0  0  0  0
  137.8745   72.2488  224.5985 H   0  0  0  0  0  0  0  0  0  0  0  0
  137.4938   71.8644  222.8498 H   0  0  0  0  0  0  0  0  0  0  0  0
  137.1294   70.1184  225.2722 H   0  0  0  0  0  0  0  0  0  0  0  0
  135.8831   70.8308  224.1225 H   0  0  0  0  0  0  0  0  0  0  0  0
  136.0781   68.5172  223.6968 H   0  0  0  0  0  0  0  0  0  0  0  0
  136.8269   69.4657  222.3443 H   0  0  0  0  0  0  0  0  0  0  0  0
  137.9565   67.3438  223.7038 H   0  0  0  0  0  0  0  0  0  0  0  0
  138.7932   68.5968  222.6556 H   0  0  0  0  0  0  0  0  0  0  0  0
  138.3666   69.0862  225.5507 H   0  0  0  0  0  0  0  0  0  0  0  0
  139.7257   68.0170  224.9285 H   0  0  0  0  0  0  0  0  0  0  0  0
  140.8120   69.7911  223.8870 H   0  0  0  0  0  0  0  0  0  0  0  0
  141.3647   72.2870  225.0164 H   0  0  0  0  0  0  0  0  0  0  0  0
  141.9661   73.1985  227.2192 H   0  0  0  0  0  0  0  0  0  0  0  0
  141.2129   72.0277  229.3032 H   0  0  0  0  0  0  0  0  0  0  0  0
  139.8514   69.9513  229.0963 H   0  0  0  0  0  0  0  0  0  0  0  0
  139.2618   69.0632  226.8830 H   0  0  0  0  0  0  0  0  0  0  0  0
  139.0022   76.3508  219.7878 H   0  0  0  0  0  0  0  0  0  0  0  0
  139.9188   78.6516  219.4825 H   0  0  0  0  0  0  0  0  0  0  0  0
  141.1319   80.4565  220.3456 H   0  0  0  0  0  0  0  0  0  0  0  0
  142.8070   80.2258  224.3207 H   0  0  0  0  0  0  0  0  0  0  0  0
  141.8841   77.9224  224.6135 H   0  0  0  0  0  0  0  0  0  0  0  0
  1  2  2  0
  2  3  1  0
  3  4  1  0
  4  5  1  0
  5  6  2  0
  5  7  1  0
  7  8  1  0
  8  9  1  0
  9 10  1  0
 10 11  1  0
 11 12  1  0
 12 13  1  0
 13 14  1  0
 14 15  2  0
 15 16  1  0
 16 17  2  0
 17 18  1  0
 18 19  2  0
  2 20  1  0
 20 21  2  0
 21 22  1  0
 22 23  2  0
 23 24  1  0
 24 25  2  0
 25 26  1  0
 25 27  1  0
 27 28  2  0
 28 29  1  0
 29 30  2  0
 13  7  1  0
 19 14  1  0
 30 20  1  0
 29 23  1  0
  3 31  1  0
  4 32  1  0
  4 33  1  0
  8 34  1  0
  8 35  1  0
  9 36  1  0
  9 37  1  0
 10 38  1  0
 10 39  1  0
 11 40  1  0
 11 41  1  0
 12 42  1  0
 12 43  1  0
 13 44  1  6
 15 45  1  0
 16 46  1  0
 17 47  1  0
 18 48  1  0
 19 49  1  0
 21 50  1  0
 22 51  1  0
 24 52  1  0
 27 53  1  0
 28 54  1  0
M  END
>  <smiles>  (7) 
O=C(NCC(=O)N1CCCCCC1c1ccccc1)c1ccc2cc(F)ccc2n1

>  <score_type>  (7) 
oracle

>  <origin>  (7) 
autodockgpu

>  <m_score__min__energy>  (7) 
-6.9000000000000004

>  <m_primary>  (7) 
energy

>  <rmsd>  (7) 
8.575905151425282

>  <m_score__min__rmsd>  (7) 
8.575905151425282

>  <meeko>  (7) 
{"free_energy": -5.97, "intermolecular_energy": -9.26, "internal_energy": -1.74, "cluster_size": 10, "cluster_id": 1, "rank_in_cluster": 7}

>  <energy>  (7) 
-5.97

>  <cluster_rmsd>  (7) 
1.07

>  <cluster>  (7) 
1

$$$$

     RDKit          3D

 54 57  0  0  0  0  0  0  0  0999 V2000
  139.6490   71.5480  221.0240 O   0  0  0  0  0  0  0  0  0  0  0  0
  139.5820   72.0980  222.1530 C   0  0  0  0  0  0  0  0  0  0  0  0
  139.3560   73.5090  222.1620 N   0  0  0  0  0  0  0  0  0  0  0  0
  139.2290   74.1390  220.8500 C   0  0  0  0  0  0  0  0  0  0  0  0
  139.9030   75.4410  220.8460 C   0  0  0  0  0  0  0  0  0  0  0  0
  139.5390   76.3240  221.6850 O   0  0  0  0  0  0  0  0  0  0  0  0
  140.9480   75.6760  219.9040 N   0  0  0  0  0  0  0  0  0  0  0  0
  140.5800   75.9450  218.5300 C   0  0  0  0  0  0  0  0  0  0  0  0
  141.3940   75.1840  217.5220 C   0  0  0  0  0  0  0  0  0  0  0  0
  142.7040   75.8090  217.1630 C   0  0  0  0  0  0  0  0  0  0  0  0
  143.6820   75.7470  218.3020 C   0  0  0  0  0  0  0  0  0  0  0  0
  143.2320   76.4310  219.5420 C   0  0  0  0  0  0  0  0  0  0  0  0
  142.3030   75.6240  220.4130 C   0  0  2  0  0  0  0  0  0  0  0  0
  142.8550   74.2450  220.4560 C   0  0  0  0  0  0  0  0  0  0  0  0
  144.1710   73.9700  220.7740 C   0  0  0  0  0  0  0  0  0  0  0  0
  144.6830   72.6880  220.8130 C   0  0  0  0  0  0  0  0  0  0  0  0
  143.8570   71.6080  220.5220 C   0  0  0  0  0  0  0  0  0  0  0  0
  142.5330   71.8520  220.1980 C   0  0  0  0  0  0  0  0  0  0  0  0
  142.0470   73.1420  220.1670 C   0  0  0  0  0  0  0  0  0  0  0  0
  139.7260   71.3460  223.3960 C   0  0  0  0  0  0  0  0  0  0  0  0
  139.2500   70.0500  223.4220 C   0  0  0  0  0  0  0  0  0  0  0  0
  139.3400   69.2530  224.5520 C   0  0  0  0  0  0  0  0  0  0  0  0
  139.9310   69.8180  225.6650 C   0  0  0  0  0  0  0  0  0  0  0  0
  140.0180   69.0240  226.7900 C   0  0  0  0  0  0  0  0  0  0  0  0
  140.6090   69.5700  227.9210 C   0  0  0  0  0  0  0  0  0  0  0  0
  140.7190   68.8290  229.0540 F   0  0  0  0  0  0  0  0  0  0  0  0
  141.0910   70.8780  227.9020 C   0  0  0  0  0  0  0  0  0  0  0  0
  140.9970   71.6690  226.7610 C   0  0  0  0  0  0  0  0  0  0  0  0
  140.4080   71.1150  225.6430 C   0  0  0  0  0  0  0  0  0  0  0  0
  140.2960   71.8610  224.5030 N   0  0  0  0  0  0  0  0  0  0  0  0
  139.2870   74.0350  223.0510 H   0  0  0  0  0  0  0  0  0  0  0  0
  139.6877   73.4901  220.0894 H   0  0  0  0  0  0  0  0  0  0  0  0
  138.1625   74.2863  220.6244 H   0  0  0  0  0  0  0  0  0  0  0  0
  139.5220   75.6754  218.3956 H   0  0  0  0  0  0  0  0  0  0  0  0
  140.7691   77.0139  218.3520 H   0  0  0  0  0  0  0  0  0  0  0  0
  141.5948   74.1831  217.9317 H   0  0  0  0  0  0  0  0  0  0  0  0
  140.7987   75.1672  216.5971 H   0  0  0  0  0  0  0  0  0  0  0  0
  143.1284   75.2755  216.2997 H   0  0  0  0  0  0  0  0  0  0  0  0
  142.5240   76.8675  216.9238 H   0  0  0  0  0  0  0  0  0  0  0  0
  143.8640   74.6887  218.5407 H   0  0  0  0  0  0  0  0  0  0  0  0
  144.5863   76.2752  217.9654 H   0  0  0  0  0  0  0  0  0  0  0  0
  144.1232   76.6831  220.1354 H   0  0  0  0  0  0  0  0  0  0  0  0
  142.6604   77.3127  219.2168 H   0  0  0  0  0  0  0  0  0  0  0  0
  142.2438   76.0287  221.4341 H   0  0  0  0  0  0  0  0  0  0  0  0
  144.8415   74.8104  221.0067 H   0  0  0  0  0  0  0  0  0  0  0  0
  145.7389   72.5221  221.0730 H   0  0  0  0  0  0  0  0  0  0  0  0
  144.2476   70.5800  220.5486 H   0  0  0  0  0  0  0  0  0  0  0  0
  141.8642   71.0107  219.9637 H   0  0  0  0  0  0  0  0  0  0  0  0
  140.9912   73.3080  219.9069 H   0  0  0  0  0  0  0  0  0  0  0  0
  138.7839   69.6365  222.5155 H   0  0  0  0  0  0  0  0  0  0  0  0
  138.9594   68.2210  224.5620 H   0  0  0  0  0  0  0  0  0  0  0  0
  139.6323   67.9938  226.7906 H   0  0  0  0  0  0  0  0  0  0  0  0
  141.5556   71.2937  228.8083 H   0  0  0  0  0  0  0  0  0  0  0  0
  141.3791   72.7005  226.7507 H   0  0  0  0  0  0  0  0  0  0  0  0
  1  2  2  0
  2  3  1  0
  3  4  1  0
  4  5  1  0
  5  6  2  0
  5  7  1  0
  7  8  1  0
  8  9  1  0
  9 10  1  0
 10 11  1  0
 11 12  1  0
 12 13  1  0
 13 14  1  0
 14 15  2  0
 15 16  1  0
 16 17  2  0
 17 18  1  0
 18 19  2  0
  2 20  1  0
 20 21  2  0
 21 22  1  0
 22 23  2  0
 23 24  1  0
 24 25  2  0
 25 26  1  0
 25 27  1  0
 27 28  2  0
 28 29  1  0
 29 30  2  0
 13  7  1  0
 19 14  1  0
 30 20  1  0
 29 23  1  0
  3 31  1  0
  4 32  1  0
  4 33  1  0
  8 34  1  0
  8 35  1  0
  9 36  1  0
  9 37  1  0
 10 38  1  0
 10 39  1  0
 11 40  1  0
 11 41  1  0
 12 42  1  0
 12 43  1  0
 13 44  1  1
 15 45  1  0
 16 46  1  0
 17 47  1  0
 18 48  1  0
 19 49  1  0
 21 50  1  0
 22 51  1  0
 24 52  1  0
 27 53  1  0
 28 54  1  0
M  END
>  <smiles>  (8) 
O=C(NCC(=O)N1CCCCCC1c1ccccc1)c1ccc2cc(F)ccc2n1

>  <score_type>  (8) 
oracle

>  <origin>  (8) 
autodockgpu

>  <m_score__min__energy>  (8) 
-6.9000000000000004

>  <m_primary>  (8) 
energy

>  <rmsd>  (8) 
1.6346819184755312

>  <m_score__min__rmsd>  (8) 
1.6346819184755312

>  <meeko>  (8) 
{"free_energy": -5.37, "intermolecular_energy": -8.65, "internal_energy": -2.1, "cluster_size": 7, "cluster_id": 6, "rank_in_cluster": 2}

>  <energy>  (8) 
-5.95

>  <cluster_rmsd>  (8) 
1.33

>  <cluster>  (8) 
1

$$$$

     RDKit          3D

 54 57  0  0  0  0  0  0  0  0999 V2000
  137.2630   75.5180  221.9490 O   0  0  0  0  0  0  0  0  0  0  0  0
  138.4860   75.6940  222.1870 C   0  0  0  0  0  0  0  0  0  0  0  0
  139.3120   74.5290  222.1740 N   0  0  0  0  0  0  0  0  0  0  0  0
  138.6290   73.2710  221.8810 C   0  0  0  0  0  0  0  0  0  0  0  0
  139.4350   72.1370  222.3440 C   0  0  0  0  0  0  0  0  0  0  0  0
  140.5550   71.9120  221.7880 O   0  0  0  0  0  0  0  0  0  0  0  0
  138.9380   71.3230  223.4040 N   0  0  0  0  0  0  0  0  0  0  0  0
  137.5600   71.4970  223.8120 C   0  0  0  0  0  0  0  0  0  0  0  0
  136.6010   70.5620  223.1310 C   0  0  0  0  0  0  0  0  0  0  0  0
  136.8500   69.1090  223.3770 C   0  0  0  0  0  0  0  0  0  0  0  0
  138.2510   68.7130  223.0060 C   0  0  0  0  0  0  0  0  0  0  0  0
  139.2650   69.0030  224.0570 C   0  0  0  0  0  0  0  0  0  0  0  0
  139.8710   70.3820  223.9890 C   0  0  2  0  0  0  0  0  0  0  0  0
  140.2650   70.7380  225.3760 C   0  0  0  0  0  0  0  0  0  0  0  0
  139.9100   69.9840  226.4780 C   0  0  0  0  0  0  0  0  0  0  0  0
  140.2770   70.3170  227.7670 C   0  0  0  0  0  0  0  0  0  0  0  0
  141.0390   71.4590  227.9920 C   0  0  0  0  0  0  0  0  0  0  0  0
  141.4100   72.2350  226.9070 C   0  0  0  0  0  0  0  0  0  0  0  0
  141.0310   71.8800  225.6310 C   0  0  0  0  0  0  0  0  0  0  0  0
  139.0430   77.0140  222.4660 C   0  0  0  0  0  0  0  0  0  0  0  0
  138.1590   78.0590  222.6480 C   0  0  0  0  0  0  0  0  0  0  0  0
  138.5860   79.3500  222.9170 C   0  0  0  0  0  0  0  0  0  0  0  0
  139.9510   79.5480  222.9960 C   0  0  0  0  0  0  0  0  0  0  0  0
  140.3760   80.8340  223.2640 C   0  0  0  0  0  0  0  0  0  0  0  0
  141.7420   81.0570  223.3480 C   0  0  0  0  0  0  0  0  0  0  0  0
  142.2110   82.3040  223.6100 F   0  0  0  0  0  0  0  0  0  0  0  0
  142.6410   80.0060  223.1660 C   0  0  0  0  0  0  0  0  0  0  0  0
  142.2000   78.7150  222.8970 C   0  0  0  0  0  0  0  0  0  0  0  0
  140.8380   78.5040  222.8150 C   0  0  0  0  0  0  0  0  0  0  0  0
  140.3670   77.2490  222.5510 N   0  0  0  0  0  0  0  0  0  0  0  0
  140.3280   74.5900  222.3610 H   0  0  0  0  0  0  0  0  0  0  0  0
  137.6557   73.2582  222.3934 H   0  0  0  0  0  0  0  0  0  0  0  0
  138.4825   73.1870  220.7940 H   0  0  0  0  0  0  0  0  0  0  0  0
  137.4962   71.3288  224.8972 H   0  0  0  0  0  0  0  0  0  0  0  0
  137.2685   72.5182  223.5252 H   0  0  0  0  0  0  0  0  0  0  0  0
  135.5862   70.7983  223.4836 H   0  0  0  0  0  0  0  0  0  0  0  0
  136.7365   70.7175  222.0505 H   0  0  0  0  0  0  0  0  0  0  0  0
  136.6905   68.8960  224.4443 H   0  0  0  0  0  0  0  0  0  0  0  0
  136.1540   68.5317  222.7506 H   0  0  0  0  0  0  0  0  0  0  0  0
  138.2621   67.6316  222.8047 H   0  0  0  0  0  0  0  0  0  0  0  0
  138.5269   69.3127  222.1261 H   0  0  0  0  0  0  0  0  0  0  0  0
  138.7820   68.8897  225.0388 H   0  0  0  0  0  0  0  0  0  0  0  0
  140.0903   68.2942  223.8944 H   0  0  0  0  0  0  0  0  0  0  0  0
  140.7563   70.4106  223.3368 H   0  0  0  0  0  0  0  0  0  0  0  0
  139.3076   69.0771  226.3215 H   0  0  0  0  0  0  0  0  0  0  0  0
  139.9685   69.6828  228.6112 H   0  0  0  0  0  0  0  0  0  0  0  0
  141.3408   71.7399  229.0118 H   0  0  0  0  0  0  0  0  0  0  0  0
  142.0120   73.1420  227.0651 H   0  0  0  0  0  0  0  0  0  0  0  0
  141.3403   72.5141  224.7870 H   0  0  0  0  0  0  0  0  0  0  0  0
  137.0794   77.8603  222.5771 H   0  0  0  0  0  0  0  0  0  0  0  0
  137.8735   80.1757  223.0604 H   0  0  0  0  0  0  0  0  0  0  0  0
  139.6559   81.6533  223.4060 H   0  0  0  0  0  0  0  0  0  0  0  0
  143.7210   80.2025  223.2367 H   0  0  0  0  0  0  0  0  0  0  0  0
  142.9126   77.8892  222.7543 H   0  0  0  0  0  0  0  0  0  0  0  0
  1  2  2  0
  2  3  1  0
  3  4  1  0
  4  5  1  0
  5  6  2  0
  5  7  1  0
  7  8  1  0
  8  9  1  0
  9 10  1  0
 10 11  1  0
 11 12  1  0
 12 13  1  0
 13 14  1  0
 14 15  2  0
 15 16  1  0
 16 17  2  0
 17 18  1  0
 18 19  2  0
  2 20  1  0
 20 21  2  0
 21 22  1  0
 22 23  2  0
 23 24  1  0
 24 25  2  0
 25 26  1  0
 25 27  1  0
 27 28  2  0
 28 29  1  0
 29 30  2  0
 13  7  1  0
 19 14  1  0
 30 20  1  0
 29 23  1  0
  3 31  1  0
  4 32  1  0
  4 33  1  0
  8 34  1  0
  8 35  1  0
  9 36  1  0
  9 37  1  0
 10 38  1  0
 10 39  1  0
 11 40  1  0
 11 41  1  0
 12 42  1  0
 12 43  1  0
 13 44  1  6
 15 45  1  0
 16 46  1  0
 17 47  1  0
 18 48  1  0
 19 49  1  0
 21 50  1  0
 22 51  1  0
 24 52  1  0
 27 53  1  0
 28 54  1  0
M  END
>  <smiles>  (9) 
O=C(NCC(=O)N1CCCCCC1c1ccccc1)c1ccc2cc(F)ccc2n1

>  <score_type>  (9) 
oracle

>  <origin>  (9) 
autodockgpu

>  <m_score__min__energy>  (9) 
-6.9000000000000004

>  <m_primary>  (9) 
energy

>  <rmsd>  (9) 
8.650513413886397

>  <m_score__min__rmsd>  (9) 
8.650513413886397

>  <meeko>  (9) 
{"free_energy": -5.95, "intermolecular_energy": -9.23, "internal_energy": -1.82, "cluster_size": 10, "cluster_id": 1, "rank_in_cluster": 8}

>  <energy>  (9) 
-5.86

>  <cluster_rmsd>  (9) 
1.01

>  <cluster>  (9) 
1

$$$$

     RDKit          3D

 54 57  0  0  0  0  0  0  0  0999 V2000
  141.6260   74.2210  220.3210 O   0  0  0  0  0  0  0  0  0  0  0  0
  141.0030   74.8950  221.1820 C   0  0  0  0  0  0  0  0  0  0  0  0
  140.0850   74.1790  222.0110 N   0  0  0  0  0  0  0  0  0  0  0  0
  139.9860   72.7440  221.7530 C   0  0  0  0  0  0  0  0  0  0  0  0
  139.9020   72.0080  223.0180 C   0  0  0  0  0  0  0  0  0  0  0  0
  140.7760   72.2250  223.9150 O   0  0  0  0  0  0  0  0  0  0  0  0
  138.8420   71.0710  223.2030 N   0  0  0  0  0  0  0  0  0  0  0  0
  137.4840   71.5700  223.2140 C   0  0  0  0  0  0  0  0  0  0  0  0
  136.6100   70.9360  224.2590 C   0  0  0  0  0  0  0  0  0  0  0  0
  136.0030   69.6280  223.8680 C   0  0  0  0  0  0  0  0  0  0  0  0
  137.0270   68.5300  223.8200 C   0  0  0  0  0  0  0  0  0  0  0  0
  138.1410   68.7670  222.8640 C   0  0  0  0  0  0  0  0  0  0  0  0
  139.2260   69.6840  223.3680 C   0  0  2  0  0  0  0  0  0  0  0  0
  139.4680   69.3120  224.7850 C   0  0  0  0  0  0  0  0  0  0  0  0
  139.5990   68.0030  225.2100 C   0  0  0  0  0  0  0  0  0  0  0  0
  139.8250   67.6590  226.5270 C   0  0  0  0  0  0  0  0  0  0  0  0
  139.9270   68.6570  227.4920 C   0  0  0  0  0  0  0  0  0  0  0  0
  139.7990   69.9780  227.0970 C   0  0  0  0  0  0  0  0  0  0  0  0
  139.5750   70.2950  225.7750 C   0  0  0  0  0  0  0  0  0  0  0  0
  141.1980   76.3340  221.3350 C   0  0  0  0  0  0  0  0  0  0  0  0
  141.5750   77.0530  220.2190 C   0  0  0  0  0  0  0  0  0  0  0  0
  141.7840   78.4220  220.2590 C   0  0  0  0  0  0  0  0  0  0  0  0
  141.5980   79.0440  221.4790 C   0  0  0  0  0  0  0  0  0  0  0  0
  141.8080   80.4070  221.5180 C   0  0  0  0  0  0  0  0  0  0  0  0
  141.6270   81.0530  222.7330 C   0  0  0  0  0  0  0  0  0  0  0  0
  141.8210   82.3940  222.8240 F   0  0  0  0  0  0  0  0  0  0  0  0
  141.2460   80.3330  223.8640 C   0  0  0  0  0  0  0  0  0  0  0  0
  141.0370   78.9580  223.8110 C   0  0  0  0  0  0  0  0  0  0  0  0
  141.2210   78.3260  222.5980 C   0  0  0  0  0  0  0  0  0  0  0  0
  141.0260   76.9760  222.5070 N   0  0  0  0  0  0  0  0  0  0  0  0
  139.5350   74.6610  222.7420 H   0  0  0  0  0  0  0  0  0  0  0  0
  139.0847   72.5434  221.1551 H   0  0  0  0  0  0  0  0  0  0  0  0
  140.8808   72.4149  221.2044 H   0  0  0  0  0  0  0  0  0  0  0  0
  137.5149   72.6538  223.3996 H   0  0  0  0  0  0  0  0  0  0  0  0
  137.0447   71.3208  222.2368 H   0  0  0  0  0  0  0  0  0  0  0  0
  137.2194   70.7732  225.1602 H   0  0  0  0  0  0  0  0  0  0  0  0
  135.7702   71.6285  224.4178 H   0  0  0  0  0  0  0  0  0  0  0  0
  135.2288   69.3610  224.6024 H   0  0  0  0  0  0  0  0  0  0  0  0
  135.5723   69.7381  222.8618 H   0  0  0  0  0  0  0  0  0  0  0  0
  137.4562   68.4163  224.8264 H   0  0  0  0  0  0  0  0  0  0  0  0
  136.5024   67.6281  223.4717 H   0  0  0  0  0  0  0  0  0  0  0  0
  138.5984   67.7956  222.6248 H   0  0  0  0  0  0  0  0  0  0  0  0
  137.6966   69.2661  221.9903 H   0  0  0  0  0  0  0  0  0  0  0  0
  140.1578   69.5722  222.7943 H   0  0  0  0  0  0  0  0  0  0  0  0
  139.5194   67.1987  224.4639 H   0  0  0  0  0  0  0  0  0  0  0  0
  139.9241   66.6014  226.8129 H   0  0  0  0  0  0  0  0  0  0  0  0
  140.1057   68.4015  228.5469 H   0  0  0  0  0  0  0  0  0  0  0  0
  139.8768   70.7809  227.8448 H   0  0  0  0  0  0  0  0  0  0  0  0
  139.4773   71.3527  225.4892 H   0  0  0  0  0  0  0  0  0  0  0  0
  141.7142   76.5215  219.2660 H   0  0  0  0  0  0  0  0  0  0  0  0
  142.0833   78.9863  219.3635 H   0  0  0  0  0  0  0  0  0  0  0  0
  142.1085   80.9625  220.6174 H   0  0  0  0  0  0  0  0  0  0  0  0
  141.1076   80.8625  224.8182 H   0  0  0  0  0  0  0  0  0  0  0  0
  140.7353   78.3940  224.7059 H   0  0  0  0  0  0  0  0  0  0  0  0
  1  2  2  0
  2  3  1  0
  3  4  1  0
  4  5  1  0
  5  6  2  0
  5  7  1  0
  7  8  1  0
  8  9  1  0
  9 10  1  0
 10 11  1  0
 11 12  1  0
 12 13  1  0
 13 14  1  0
 14 15  2  0
 15 16  1  0
 16 17  2  0
 17 18  1  0
 18 19  2  0
  2 20  1  0
 20 21  2  0
 21 22  1  0
 22 23  2  0
 23 24  1  0
 24 25  2  0
 25 26  1  0
 25 27  1  0
 27 28  2  0
 28 29  1  0
 29 30  2  0
 13  7  1  0
 19 14  1  0
 30 20  1  0
 29 23  1  0
  3 31  1  0
  4 32  1  0
  4 33  1  0
  8 34  1  0
  8 35  1  0
  9 36  1  0
  9 37  1  0
 10 38  1  0
 10 39  1  0
 11 40  1  0
 11 41  1  0
 12 42  1  0
 12 43  1  0
 13 44  1  6
 15 45  1  0
 16 46  1  0
 17 47  1  0
 18 48  1  0
 19 49  1  0
 21 50  1  0
 22 51  1  0
 24 52  1  0
 27 53  1  0
 28 54  1  0
M  END
>  <smiles>  (10) 
O=C(NCC(=O)N1CCCCCC1c1ccccc1)c1ccc2cc(F)ccc2n1

>  <score_type>  (10) 
oracle

>  <origin>  (10) 
autodockgpu

>  <m_score__min__energy>  (10) 
-6.9000000000000004

>  <m_primary>  (10) 
energy

>  <rmsd>  (10) 
8.684841006606947

>  <m_score__min__rmsd>  (10) 
8.684841006606947

>  <meeko>  (10) 
{"free_energy": -5.86, "intermolecular_energy": -9.14, "internal_energy": -1.48, "cluster_size": 10, "cluster_id": 1, "rank_in_cluster": 9}

>  <energy>  (10) 
-5.53

>  <cluster_rmsd>  (10) 
1.39

>  <cluster>  (10) 
1

$$$$

     RDKit          3D

 54 57  0  0  0  0  0  0  0  0999 V2000
  139.4350   73.6860  222.4910 O   0  0  0  0  0  0  0  0  0  0  0  0
  140.1460   72.6480  222.4700 C   0  0  0  0  0  0  0  0  0  0  0  0
  140.9630   72.4590  221.3130 N   0  0  0  0  0  0  0  0  0  0  0  0
  140.8700   73.5020  220.2950 C   0  0  0  0  0  0  0  0  0  0  0  0
  141.4420   74.7540  220.8000 C   0  0  0  0  0  0  0  0  0  0  0  0
  142.6290   74.7480  221.2560 O   0  0  0  0  0  0  0  0  0  0  0  0
  140.6510   75.9400  220.7640 N   0  0  0  0  0  0  0  0  0  0  0  0
  140.2120   76.4300  219.4740 C   0  0  0  0  0  0  0  0  0  0  0  0
  138.7870   76.9040  219.4550 C   0  0  0  0  0  0  0  0  0  0  0  0
  137.7990   75.9660  220.0710 C   0  0  0  0  0  0  0  0  0  0  0  0
  137.9710   75.8750  221.5600 C   0  0  0  0  0  0  0  0  0  0  0  0
  138.8870   76.8960  222.1390 C   0  0  0  0  0  0  0  0  0  0  0  0
  140.3530   76.5580  222.0400 C   0  0  2  0  0  0  0  0  0  0  0  0
  141.0940   77.8260  222.2580 C   0  0  0  0  0  0  0  0  0  0  0  0
  141.4510   78.6780  221.2300 C   0  0  0  0  0  0  0  0  0  0  0  0
  142.1400   79.8570  221.4350 C   0  0  0  0  0  0  0  0  0  0  0  0
  142.5040   80.2260  222.7260 C   0  0  0  0  0  0  0  0  0  0  0  0
  142.1610   79.3930  223.7780 C   0  0  0  0  0  0  0  0  0  0  0  0
  141.4720   78.2210  223.5460 C   0  0  0  0  0  0  0  0  0  0  0  0
  140.1440   71.6800  223.5630 C   0  0  0  0  0  0  0  0  0  0  0  0
  139.6220   70.4270  223.3100 C   0  0  0  0  0  0  0  0  0  0  0  0
  139.5750   69.4380  224.2790 C   0  0  0  0  0  0  0  0  0  0  0  0
  140.0780   69.7630  225.5240 C   0  0  0  0  0  0  0  0  0  0  0  0
  140.0290   68.7770  226.4880 C   0  0  0  0  0  0  0  0  0  0  0  0
  140.5290   69.0800  227.7460 C   0  0  0  0  0  0  0  0  0  0  0  0
  140.5050   68.1440  228.7300 F   0  0  0  0  0  0  0  0  0  0  0  0
  141.0580   70.3430  228.0090 C   0  0  0  0  0  0  0  0  0  0  0  0
  141.1010   71.3290  227.0270 C   0  0  0  0  0  0  0  0  0  0  0  0
  140.6010   71.0160  225.7800 C   0  0  0  0  0  0  0  0  0  0  0  0
  140.6250   71.9580  224.7900 N   0  0  0  0  0  0  0  0  0  0  0  0
  141.5760   71.6300  221.2200 H   0  0  0  0  0  0  0  0  0  0  0  0
  141.4231   73.1852  219.3985 H   0  0  0  0  0  0  0  0  0  0  0  0
  139.8115   73.6660  220.0444 H   0  0  0  0  0  0  0  0  0  0  0  0
  140.8602   77.2701  219.1839 H   0  0  0  0  0  0  0  0  0  0  0  0
  140.2764   75.5847  218.7730 H   0  0  0  0  0  0  0  0  0  0  0  0
  138.7377   77.8578  220.0008 H   0  0  0  0  0  0  0  0  0  0  0  0
  138.5070   76.9914  218.3948 H   0  0  0  0  0  0  0  0  0  0  0  0
  136.7826   76.3244  219.8511 H   0  0  0  0  0  0  0  0  0  0  0  0
  137.9657   74.9654  219.6454 H   0  0  0  0  0  0  0  0  0  0  0  0
  136.9828   75.9951  222.0280 H   0  0  0  0  0  0  0  0  0  0  0  0
  138.4267   74.8946  221.7631 H   0  0  0  0  0  0  0  0  0  0  0  0
  138.7183   77.8461  221.6108 H   0  0  0  0  0  0  0  0  0  0  0  0
  138.6530   76.9491  223.2125 H   0  0  0  0  0  0  0  0  0  0  0  0
  140.6561   75.8198  222.7970 H   0  0  0  0  0  0  0  0  0  0  0  0
  141.1736   78.4044  220.2013 H   0  0  0  0  0  0  0  0  0  0  0  0
  142.3997   80.5011  220.5819 H   0  0  0  0  0  0  0  0  0  0  0  0
  143.0536   81.1613  222.9078 H   0  0  0  0  0  0  0  0  0  0  0  0
  142.4401   79.6681  224.8058 H   0  0  0  0  0  0  0  0  0  0  0  0
  141.2118   77.5774  224.3992 H   0  0  0  0  0  0  0  0  0  0  0  0
  139.2305   70.2068  222.3059 H   0  0  0  0  0  0  0  0  0  0  0  0
  139.1575   68.4425  224.0674 H   0  0  0  0  0  0  0  0  0  0  0  0
  139.6081   67.7851  226.2667 H   0  0  0  0  0  0  0  0  0  0  0  0
  141.4493   70.5649  229.0128 H   0  0  0  0  0  0  0  0  0  0  0  0
  141.5196   72.3241  227.2384 H   0  0  0  0  0  0  0  0  0  0  0  0
  1  2  2  0
  2  3  1  0
  3  4  1  0
  4  5  1  0
  5  6  2  0
  5  7  1  0
  7  8  1  0
  8  9  1  0
  9 10  1  0
 10 11  1  0
 11 12  1  0
 12 13  1  0
 13 14  1  0
 14 15  2  0
 15 16  1  0
 16 17  2  0
 17 18  1  0
 18 19  2  0
  2 20  1  0
 20 21  2  0
 21 22  1  0
 22 23  2  0
 23 24  1  0
 24 25  2  0
 25 26  1  0
 25 27  1  0
 27 28  2  0
 28 29  1  0
 29 30  2  0
 13  7  1  0
 19 14  1  0
 30 20  1  0
 29 23  1  0
  3 31  1  0
  4 32  1  0
  4 33  1  0
  8 34  1  0
  8 35  1  0
  9 36  1  0
  9 37  1  0
 10 38  1  0
 10 39  1  0
 11 40  1  0
 11 41  1  0
 12 42  1  0
 12 43  1  0
 13 44  1  1
 15 45  1  0
 16 46  1  0
 17 47  1  0
 18 48  1  0
 19 49  1  0
 21 50  1  0
 22 51  1  0
 24 52  1  0
 27 53  1  0
 28 54  1  0
M  END
>  <smiles>  (11) 
O=C(NCC(=O)N1CCCCCC1c1ccccc1)c1ccc2cc(F)ccc2n1

>  <score_type>  (11) 
oracle

>  <origin>  (11) 
autodockgpu

>  <m_score__min__energy>  (11) 
-6.9000000000000004

>  <m_primary>  (11) 
energy

>  <rmsd>  (11) 
2.46887939869964

>  <m_score__min__rmsd>  (11) 
2.46887939869964

>  <meeko>  (11) 
{"free_energy": -6.23, "intermolecular_energy": -9.51, "internal_energy": -1.72, "cluster_size": 6, "cluster_id": 3, "rank_in_cluster": 2}

>  <energy>  (11) 
-6.78

>  <cluster_rmsd>  (11) 
0.0

>  <cluster>  (11) 
2

$$$$

     RDKit          3D

 54 57  0  0  0  0  0  0  0  0999 V2000
  140.9700   72.2490  221.5560 O   0  0  0  0  0  0  0  0  0  0  0  0
  140.1150   72.3700  222.4710 C   0  0  0  0  0  0  0  0  0  0  0  0
  139.1500   73.4120  222.3070 N   0  0  0  0  0  0  0  0  0  0  0  0
  139.2780   74.2080  221.0880 C   0  0  0  0  0  0  0  0  0  0  0  0
  139.8210   75.5320  221.4040 C   0  0  0  0  0  0  0  0  0  0  0  0
  139.1360   76.3210  222.1270 O   0  0  0  0  0  0  0  0  0  0  0  0
  141.1020   75.8940  220.8910 N   0  0  0  0  0  0  0  0  0  0  0  0
  142.1420   74.8880  220.8770 C   0  0  0  0  0  0  0  0  0  0  0  0
  142.6100   74.5140  219.4990 C   0  0  0  0  0  0  0  0  0  0  0  0
  142.1790   75.4430  218.4100 C   0  0  0  0  0  0  0  0  0  0  0  0
  142.8430   76.7850  218.5260 C   0  0  0  0  0  0  0  0  0  0  0  0
  142.6180   77.4720  219.8280 C   0  0  0  0  0  0  0  0  0  0  0  0
  141.2500   77.2580  220.4250 C   0  0  2  0  0  0  0  0  0  0  0  0
  141.1000   78.2630  221.5080 C   0  0  0  0  0  0  0  0  0  0  0  0
  141.4600   78.0170  222.8190 C   0  0  0  0  0  0  0  0  0  0  0  0
  141.3200   78.9520  223.8250 C   0  0  0  0  0  0  0  0  0  0  0  0
  140.7930   80.2060  223.5310 C   0  0  0  0  0  0  0  0  0  0  0  0
  140.4220   80.4820  222.2260 C   0  0  0  0  0  0  0  0  0  0  0  0
  140.5730   79.5300  221.2400 C   0  0  0  0  0  0  0  0  0  0  0  0
  140.0990   71.5020  223.6440 C   0  0  0  0  0  0  0  0  0  0  0  0
  139.5650   70.2370  223.4990 C   0  0  0  0  0  0  0  0  0  0  0  0
  139.5030   69.3360  224.5500 C   0  0  0  0  0  0  0  0  0  0  0  0
  140.0050   69.7640  225.7650 C   0  0  0  0  0  0  0  0  0  0  0  0
  139.9420   68.8670  226.8110 C   0  0  0  0  0  0  0  0  0  0  0  0
  140.4410   69.2740  228.0400 C   0  0  0  0  0  0  0  0  0  0  0  0
  140.4030   68.4280  229.1020 F   0  0  0  0  0  0  0  0  0  0  0  0
  140.9820   70.5500  228.1940 C   0  0  0  0  0  0  0  0  0  0  0  0
  141.0390   71.4450  227.1300 C   0  0  0  0  0  0  0  0  0  0  0  0
  140.5400   71.0290  225.9130 C   0  0  0  0  0  0  0  0  0  0  0  0
  140.5780   71.8810  224.8440 N   0  0  0  0  0  0  0  0  0  0  0  0
  138.4130   73.5770  223.0150 H   0  0  0  0  0  0  0  0  0  0  0  0
  139.9544   73.6952  220.3883 H   0  0  0  0  0  0  0  0  0  0  0  0
  138.2848   74.3268  220.6304 H   0  0  0  0  0  0  0  0  0  0  0  0
  143.0034   75.2727  221.4426 H   0  0  0  0  0  0  0  0  0  0  0  0
  141.7132   73.9798  221.3256 H   0  0  0  0  0  0  0  0  0  0  0  0
  143.7096   74.4863  219.5082 H   0  0  0  0  0  0  0  0  0  0  0  0
  142.1497   73.5410  219.2722 H   0  0  0  0  0  0  0  0  0  0  0  0
  142.4414   74.9988  217.4385 H   0  0  0  0  0  0  0  0  0  0  0  0
  141.0924   75.5907  218.4969 H   0  0  0  0  0  0  0  0  0  0  0  0
  143.9260   76.6457  218.3931 H   0  0  0  0  0  0  0  0  0  0  0  0
  142.3949   77.4250  217.7517 H   0  0  0  0  0  0  0  0  0  0  0  0
  143.3662   77.1021  220.5444 H   0  0  0  0  0  0  0  0  0  0  0  0
  142.7052   78.5504  219.6295 H   0  0  0  0  0  0  0  0  0  0  0  0
  140.4510   77.3972  219.6818 H   0  0  0  0  0  0  0  0  0  0  0  0
  141.8772   77.0313  223.0728 H   0  0  0  0  0  0  0  0  0  0  0  0
  141.6234   78.7071  224.8536 H   0  0  0  0  0  0  0  0  0  0  0  0
  140.6735   80.9631  224.3200 H   0  0  0  0  0  0  0  0  0  0  0  0
  140.0038   81.4677  221.9740 H   0  0  0  0  0  0  0  0  0  0  0  0
  140.2696   79.7748  220.2114 H   0  0  0  0  0  0  0  0  0  0  0  0
  139.1756   69.9341  222.5158 H   0  0  0  0  0  0  0  0  0  0  0  0
  139.0756   68.3303  224.4239 H   0  0  0  0  0  0  0  0  0  0  0  0
  139.5112   67.8640  226.6755 H   0  0  0  0  0  0  0  0  0  0  0  0
  141.3715   70.8552  229.1764 H   0  0  0  0  0  0  0  0  0  0  0  0
  141.4675   72.4503  227.2551 H   0  0  0  0  0  0  0  0  0  0  0  0
  1  2  2  0
  2  3  1  0
  3  4  1  0
  4  5  1  0
  5  6  2  0
  5  7  1  0
  7  8  1  0
  8  9  1  0
  9 10  1  0
 10 11  1  0
 11 12  1  0
 12 13  1  0
 13 14  1  0
 14 15  2  0
 15 16  1  0
 16 17  2  0
 17 18  1  0
 18 19  2  0
  2 20  1  0
 20 21  2  0
 21 22  1  0
 22 23  2  0
 23 24  1  0
 24 25  2  0
 25 26  1  0
 25 27  1  0
 27 28  2  0
 28 29  1  0
 29 30  2  0
 13  7  1  0
 19 14  1  0
 30 20  1  0
 29 23  1  0
  3 31  1  0
  4 32  1  0
  4 33  1  0
  8 34  1  0
  8 35  1  0
  9 36  1  0
  9 37  1  0
 10 38  1  0
 10 39  1  0
 11 40  1  0
 11 41  1  0
 12 42  1  0
 12 43  1  0
 13 44  1  6
 15 45  1  0
 16 46  1  0
 17 47  1  0
 18 48  1  0
 19 49  1  0
 21 50  1  0
 22 51  1  0
 24 52  1  0
 27 53  1  0
 28 54  1  0
M  END
>  <smiles>  (12) 
O=C(NCC(=O)N1CCCCCC1c1ccccc1)c1ccc2cc(F)ccc2n1

>  <score_type>  (12) 
oracle

>  <origin>  (12) 
autodockgpu

>  <m_score__min__energy>  (12) 
-6.9000000000000004

>  <m_primary>  (12) 
energy

>  <rmsd>  (12) 
2.067735711127519

>  <m_score__min__rmsd>  (12) 
2.067735711127519

>  <meeko>  (12) 
{"free_energy": -6.4, "intermolecular_energy": -9.68, "internal_energy": -1.64, "cluster_size": 12, "cluster_id": 2, "rank_in_cluster": 5}

>  <energy>  (12) 
-6.58

>  <cluster_rmsd>  (12) 
1.06

>  <cluster>  (12) 
2

$$$$

     RDKit          3D

 54 57  0  0  0  0  0  0  0  0999 V2000
  139.6660   71.6350  221.1190 O   0  0  0  0  0  0  0  0  0  0  0  0
  139.6650   72.1600  222.2630 C   0  0  0  0  0  0  0  0  0  0  0  0
  139.4920   73.5780  222.3120 N   0  0  0  0  0  0  0  0  0  0  0  0
  139.3360   74.2420  221.0200 C   0  0  0  0  0  0  0  0  0  0  0  0
  140.0700   75.5110  221.0120 C   0  0  0  0  0  0  0  0  0  0  0  0
  139.8250   76.3700  221.9170 O   0  0  0  0  0  0  0  0  0  0  0  0
  141.0380   75.7440  219.9900 N   0  0  0  0  0  0  0  0  0  0  0  0
  140.5640   76.0750  218.6630 C   0  0  0  0  0  0  0  0  0  0  0  0
  141.2450   75.3100  217.5640 C   0  0  0  0  0  0  0  0  0  0  0  0
  142.5490   75.8820  217.1080 C   0  0  0  0  0  0  0  0  0  0  0  0
  143.6170   75.7370  218.1530 C   0  0  0  0  0  0  0  0  0  0  0  0
  143.3110   76.4140  219.4440 C   0  0  0  0  0  0  0  0  0  0  0  0
  142.4290   75.6240  220.3770 C   0  0  2  0  0  0  0  0  0  0  0  0
  142.9240   74.2240  220.3420 C   0  0  0  0  0  0  0  0  0  0  0  0
  144.1730   73.8540  220.8030 C   0  0  0  0  0  0  0  0  0  0  0  0
  144.6320   72.5530  220.7700 C   0  0  0  0  0  0  0  0  0  0  0  0
  143.8190   71.5490  220.2520 C   0  0  0  0  0  0  0  0  0  0  0  0
  142.5620   71.8890  219.7820 C   0  0  0  0  0  0  0  0  0  0  0  0
  142.1280   73.1970  219.8270 C   0  0  0  0  0  0  0  0  0  0  0  0
  139.8310   71.3750  223.4820 C   0  0  0  0  0  0  0  0  0  0  0  0
  139.4500   70.0480  223.4480 C   0  0  0  0  0  0  0  0  0  0  0  0
  139.5680   69.2180  224.5510 C   0  0  0  0  0  0  0  0  0  0  0  0
  140.0880   69.7810  225.7000 C   0  0  0  0  0  0  0  0  0  0  0  0
  140.2040   68.9540  226.7980 C   0  0  0  0  0  0  0  0  0  0  0  0
  140.7240   69.4980  227.9630 C   0  0  0  0  0  0  0  0  0  0  0  0
  140.8590   68.7250  229.0720 F   0  0  0  0  0  0  0  0  0  0  0  0
  141.1110   70.8370  228.0050 C   0  0  0  0  0  0  0  0  0  0  0  0
  140.9890   71.6610  226.8900 C   0  0  0  0  0  0  0  0  0  0  0  0
  140.4700   71.1090  225.7370 C   0  0  0  0  0  0  0  0  0  0  0  0
  140.3340   71.8870  224.6210 N   0  0  0  0  0  0  0  0  0  0  0  0
  139.4790   74.0850  223.2140 H   0  0  0  0  0  0  0  0  0  0  0  0
  139.7290   73.5897  220.2263 H   0  0  0  0  0  0  0  0  0  0  0  0
  138.2686   74.4432  220.8460 H   0  0  0  0  0  0  0  0  0  0  0  0
  139.4860   75.8611  218.6171 H   0  0  0  0  0  0  0  0  0  0  0  0
  140.7913   77.1387  218.4993 H   0  0  0  0  0  0  0  0  0  0  0  0
  141.4287   74.2869  217.9240 H   0  0  0  0  0  0  0  0  0  0  0  0
  140.5705   75.3540  216.6962 H   0  0  0  0  0  0  0  0  0  0  0  0
  142.8691   75.3563  216.1963 H   0  0  0  0  0  0  0  0  0  0  0  0
  142.4029   76.9550  216.9149 H   0  0  0  0  0  0  0  0  0  0  0  0
  143.7599   74.6647  218.3523 H   0  0  0  0  0  0  0  0  0  0  0  0
  144.5182   76.2223  217.7501 H   0  0  0  0  0  0  0  0  0  0  0  0
  144.2619   76.6145  219.9594 H   0  0  0  0  0  0  0  0  0  0  0  0
  142.7544   77.3283  219.1906 H   0  0  0  0  0  0  0  0  0  0  0  0
  142.4763   76.0045  221.4080 H   0  0  0  0  0  0  0  0  0  0  0  0
  144.8318   74.6324  221.2153 H   0  0  0  0  0  0  0  0  0  0  0  0
  145.6350   72.3107  221.1511 H   0  0  0  0  0  0  0  0  0  0  0  0
  144.1682   70.5065  220.2168 H   0  0  0  0  0  0  0  0  0  0  0  0
  141.9044   71.1097  219.3695 H   0  0  0  0  0  0  0  0  0  0  0  0
  141.1250   73.4396  219.4461 H   0  0  0  0  0  0  0  0  0  0  0  0
  139.0392   69.6364  222.5143 H   0  0  0  0  0  0  0  0  0  0  0  0
  139.2624   68.1620  224.5135 H   0  0  0  0  0  0  0  0  0  0  0  0
  139.8947   67.8994  226.7512 H   0  0  0  0  0  0  0  0  0  0  0  0
  141.5210   71.2504  228.9383 H   0  0  0  0  0  0  0  0  0  0  0  0
  141.2960   72.7167  226.9268 H   0  0  0  0  0  0  0  0  0  0  0  0
  1  2  2  0
  2  3  1  0
  3  4  1  0
  4  5  1  0
  5  6  2  0
  5  7  1  0
  7  8  1  0
  8  9  1  0
  9 10  1  0
 10 11  1  0
 11 12  1  0
 12 13  1  0
 13 14  1  0
 14 15  2  0
 15 16  1  0
 16 17  2  0
 17 18  1  0
 18 19  2  0
  2 20  1  0
 20 21  2  0
 21 22  1  0
 22 23  2  0
 23 24  1  0
 24 25  2  0
 25 26  1  0
 25 27  1  0
 27 28  2  0
 28 29  1  0
 29 30  2  0
 13  7  1  0
 19 14  1  0
 30 20  1  0
 29 23  1  0
  3 31  1  0
  4 32  1  0
  4 33  1  0
  8 34  1  0
  8 35  1  0
  9 36  1  0
  9 37  1  0
 10 38  1  0
 10 39  1  0
 11 40  1  0
 11 41  1  0
 12 42  1  0
 12 43  1  0
 13 44  1  1
 15 45  1  0
 16 46  1  0
 17 47  1  0
 18 48  1  0
 19 49  1  0
 21 50  1  0
 22 51  1  0
 24 52  1  0
 27 53  1  0
 28 54  1  0
M  END
>  <smiles>  (13) 
O=C(NCC(=O)N1CCCCCC1c1ccccc1)c1ccc2cc(F)ccc2n1

>  <score_type>  (13) 
oracle

>  <origin>  (13) 
autodockgpu

>  <m_score__min__energy>  (13) 
-6.9000000000000004

>  <m_primary>  (13) 
energy

>  <rmsd>  (13) 
1.6729869041783736

>  <m_score__min__rmsd>  (13) 
1.6729869041783736

>  <meeko>  (13) 
{"free_energy": -5.22, "intermolecular_energy": -8.5, "internal_energy": -2.26, "cluster_size": 7, "cluster_id": 6, "rank_in_cluster": 4}

>  <energy>  (13) 
-6.57

>  <cluster_rmsd>  (13) 
1.1

>  <cluster>  (13) 
2

$$$$

     RDKit          3D

 54 57  0  0  0  0  0  0  0  0999 V2000
  138.5270   72.0370  221.6450 O   0  0  0  0  0  0  0  0  0  0  0  0
  139.4700   72.1250  222.4730 C   0  0  0  0  0  0  0  0  0  0  0  0
  140.4650   73.1150  222.2020 N   0  0  0  0  0  0  0  0  0  0  0  0
  140.2580   73.9050  220.9910 C   0  0  0  0  0  0  0  0  0  0  0  0
  140.9400   75.1980  221.1080 C   0  0  0  0  0  0  0  0  0  0  0  0
  142.2100   75.2210  221.1570 O   0  0  0  0  0  0  0  0  0  0  0  0
  140.1580   76.3890  221.1620 N   0  0  0  0  0  0  0  0  0  0  0  0
  139.7410   76.9900  219.9130 C   0  0  0  0  0  0  0  0  0  0  0  0
  138.3820   76.5500  219.4490 C   0  0  0  0  0  0  0  0  0  0  0  0
  137.2700   76.8010  220.4160 C   0  0  0  0  0  0  0  0  0  0  0  0
  137.5410   76.1720  221.7530 C   0  0  0  0  0  0  0  0  0  0  0  0
  138.3560   77.0090  222.6740 C   0  0  0  0  0  0  0  0  0  0  0  0
  139.8470   76.9000  222.4820 C   0  0  2  0  0  0  0  0  0  0  0  0
  140.4050   78.2550  222.7270 C   0  0  0  0  0  0  0  0  0  0  0  0
  139.6540   79.2990  223.2330 C   0  0  0  0  0  0  0  0  0  0  0  0
  140.1730   80.5580  223.4600 C   0  0  0  0  0  0  0  0  0  0  0  0
  141.5110   80.8120  223.1740 C   0  0  0  0  0  0  0  0  0  0  0  0
  142.2880   79.7860  222.6650 C   0  0  0  0  0  0  0  0  0  0  0  0
  141.7450   78.5380  222.4470 C   0  0  0  0  0  0  0  0  0  0  0  0
  139.5570   71.2670  223.6510 C   0  0  0  0  0  0  0  0  0  0  0  0
  138.9610   70.0240  223.5850 C   0  0  0  0  0  0  0  0  0  0  0  0
  138.9870   69.1350  224.6480 C   0  0  0  0  0  0  0  0  0  0  0  0
  139.6430   69.5530  225.7910 C   0  0  0  0  0  0  0  0  0  0  0  0
  139.6670   68.6680  226.8490 C   0  0  0  0  0  0  0  0  0  0  0  0
  140.3200   69.0650  228.0070 C   0  0  0  0  0  0  0  0  0  0  0  0
  140.3730   68.2300  229.0770 F   0  0  0  0  0  0  0  0  0  0  0  0
  140.9240   70.3190  228.0810 C   0  0  0  0  0  0  0  0  0  0  0  0
  140.8920   71.2030  227.0060 C   0  0  0  0  0  0  0  0  0  0  0  0
  140.2400   70.7970  225.8600 C   0  0  0  0  0  0  0  0  0  0  0  0
  140.1870   71.6380  224.7830 N   0  0  0  0  0  0  0  0  0  0  0  0
  141.2730   73.2500  222.8350 H   0  0  0  0  0  0  0  0  0  0  0  0
  140.6621   73.3578  220.1265 H   0  0  0  0  0  0  0  0  0  0  0  0
  139.1803   74.0783  220.8549 H   0  0  0  0  0  0  0  0  0  0  0  0
  139.7258   78.0823  220.0424 H   0  0  0  0  0  0  0  0  0  0  0  0
  140.4603   76.6651  219.1468 H   0  0  0  0  0  0  0  0  0  0  0  0
  138.1503   77.0857  218.5166 H   0  0  0  0  0  0  0  0  0  0  0  0
  138.4392   75.4586  219.3244 H   0  0  0  0  0  0  0  0  0  0  0  0
  137.1531   77.8865  220.5503 H   0  0  0  0  0  0  0  0  0  0  0  0
  136.3529   76.3523  220.0065 H   0  0  0  0  0  0  0  0  0  0  0  0
  136.5754   75.9671  222.2385 H   0  0  0  0  0  0  0  0  0  0  0  0
  138.1257   75.2610  221.5577 H   0  0  0  0  0  0  0  0  0  0  0  0
  138.0686   78.0602  222.5243 H   0  0  0  0  0  0  0  0  0  0  0  0
  138.1489   76.6401  223.6894 H   0  0  0  0  0  0  0  0  0  0  0  0
  140.2995   76.1836  223.1834 H   0  0  0  0  0  0  0  0  0  0  0  0
  138.5941   79.1186  223.4655 H   0  0  0  0  0  0  0  0  0  0  0  0
  139.5327   81.3557  223.8646 H   0  0  0  0  0  0  0  0  0  0  0  0
  141.9426   81.8086  223.3490 H   0  0  0  0  0  0  0  0  0  0  0  0
  143.3476   79.9680  222.4325 H   0  0  0  0  0  0  0  0  0  0  0  0
  142.3851   77.7411  222.0406 H   0  0  0  0  0  0  0  0  0  0  0  0
  138.4481   69.7289  222.6577 H   0  0  0  0  0  0  0  0  0  0  0  0
  138.5095   68.1460  224.5854 H   0  0  0  0  0  0  0  0  0  0  0  0
  139.1851   67.6818  226.7770 H   0  0  0  0  0  0  0  0  0  0  0  0
  141.4365   70.6163  229.0078 H   0  0  0  0  0  0  0  0  0  0  0  0
  141.3703   72.1916  227.0682 H   0  0  0  0  0  0  0  0  0  0  0  0
  1  2  2  0
  2  3  1  0
  3  4  1  0
  4  5  1  0
  5  6  2  0
  5  7  1  0
  7  8  1  0
  8  9  1  0
  9 10  1  0
 10 11  1  0
 11 12  1  0
 12 13  1  0
 13 14  1  0
 14 15  2  0
 15 16  1  0
 16 17  2  0
 17 18  1  0
 18 19  2  0
  2 20  1  0
 20 21  2  0
 21 22  1  0
 22 23  2  0
 23 24  1  0
 24 25  2  0
 25 26  1  0
 25 27  1  0
 27 28  2  0
 28 29  1  0
 29 30  2  0
 13  7  1  0
 19 14  1  0
 30 20  1  0
 29 23  1  0
  3 31  1  0
  4 32  1  0
  4 33  1  0
  8 34  1  0
  8 35  1  0
  9 36  1  0
  9 37  1  0
 10 38  1  0
 10 39  1  0
 11 40  1  0
 11 41  1  0
 12 42  1  0
 12 43  1  0
 13 44  1  1
 15 45  1  0
 16 46  1  0
 17 47  1  0
 18 48  1  0
 19 49  1  0
 21 50  1  0
 22 51  1  0
 24 52  1  0
 27 53  1  0
 28 54  1  0
M  END
>  <smiles>  (14) 
O=C(NCC(=O)N1CCCCCC1c1ccccc1)c1ccc2cc(F)ccc2n1

>  <score_type>  (14) 
oracle

>  <origin>  (14) 
autodockgpu

>  <m_score__min__energy>  (14) 
-6.9000000000000004

>  <m_primary>  (14) 
energy

>  <rmsd>  (14) 
2.4926091824604044

>  <m_score__min__rmsd>  (14) 
2.4926091824604044

>  <meeko>  (14) 
{"free_energy": -5.87, "intermolecular_energy": -9.16, "internal_energy": -1.89, "cluster_size": 6, "cluster_id": 3, "rank_in_cluster": 6}

>  <energy>  (14) 
-6.46

>  <cluster_rmsd>  (14) 
0.81

>  <cluster>  (14) 
2

$$$$

     RDKit          3D

 54 57  0  0  0  0  0  0  0  0999 V2000
  141.4220   73.2650  221.3940 O   0  0  0  0  0  0  0  0  0  0  0  0
  140.4370   73.1750  222.1710 C   0  0  0  0  0  0  0  0  0  0  0  0
  139.6000   74.3290  222.2750 N   0  0  0  0  0  0  0  0  0  0  0  0
  139.9960   75.4740  221.4580 C   0  0  0  0  0  0  0  0  0  0  0  0
  139.1890   76.6470  221.8070 C   0  0  0  0  0  0  0  0  0  0  0  0
  138.2110   76.5050  222.6070 O   0  0  0  0  0  0  0  0  0  0  0  0
  139.5270   77.9120  221.2400 N   0  0  0  0  0  0  0  0  0  0  0  0
  139.9980   77.9430  219.8720 C   0  0  0  0  0  0  0  0  0  0  0  0
  139.0120   78.5290  218.9020 C   0  0  0  0  0  0  0  0  0  0  0  0
  138.9900   80.0230  218.8460 C   0  0  0  0  0  0  0  0  0  0  0  0
  139.4790   80.6360  220.1270 C   0  0  0  0  0  0  0  0  0  0  0  0
  138.7370   80.2100  221.3410 C   0  0  0  0  0  0  0  0  0  0  0  0
  139.3670   79.0680  222.0980 C   0  0  2  0  0  0  0  0  0  0  0  0
  140.6550   79.5770  222.6340 C   0  0  0  0  0  0  0  0  0  0  0  0
  141.8620   78.9330  222.4370 C   0  0  0  0  0  0  0  0  0  0  0  0
  143.0580   79.4070  222.9360 C   0  0  0  0  0  0  0  0  0  0  0  0
  143.0770   80.5850  223.6760 C   0  0  0  0  0  0  0  0  0  0  0  0
  141.8830   81.2530  223.8910 C   0  0  0  0  0  0  0  0  0  0  0  0
  140.7020   80.7580  223.3810 C   0  0  0  0  0  0  0  0  0  0  0  0
  140.1530   71.9630  222.9340 C   0  0  0  0  0  0  0  0  0  0  0  0
  139.4520   70.9560  222.3020 C   0  0  0  0  0  0  0  0  0  0  0  0
  139.1330   69.7670  222.9370 C   0  0  0  0  0  0  0  0  0  0  0  0
  139.5510   69.6310  224.2470 C   0  0  0  0  0  0  0  0  0  0  0  0
  139.2320   68.4470  224.8800 C   0  0  0  0  0  0  0  0  0  0  0  0
  139.6430   68.2880  226.1950 C   0  0  0  0  0  0  0  0  0  0  0  0
  139.3540   67.1400  226.8620 F   0  0  0  0  0  0  0  0  0  0  0  0
  140.3520   69.3000  226.8400 C   0  0  0  0  0  0  0  0  0  0  0  0
  140.6670   70.4900  226.1910 C   0  0  0  0  0  0  0  0  0  0  0  0
  140.2540   70.6370  224.8830 C   0  0  0  0  0  0  0  0  0  0  0  0
  140.5440   71.7920  224.2120 N   0  0  0  0  0  0  0  0  0  0  0  0
  138.7690   74.3350  222.8920 H   0  0  0  0  0  0  0  0  0  0  0  0
  141.0582   75.6975  221.6359 H   0  0  0  0  0  0  0  0  0  0  0  0
  139.8365   75.2308  220.3971 H   0  0  0  0  0  0  0  0  0  0  0  0
  140.9184   78.5444  219.8361 H   0  0  0  0  0  0  0  0  0  0  0  0
  140.1636   76.8990  219.5675 H   0  0  0  0  0  0  0  0  0  0  0  0
  139.2577   78.1538  217.8976 H   0  0  0  0  0  0  0  0  0  0  0  0
  138.0162   78.2205  219.2529 H   0  0  0  0  0  0  0  0  0  0  0  0
  139.6364   80.3580  218.0214 H   0  0  0  0  0  0  0  0  0  0  0  0
  137.9498   80.3442  218.6883 H   0  0  0  0  0  0  0  0  0  0  0  0
  140.5360   80.3607  220.2571 H   0  0  0  0  0  0  0  0  0  0  0  0
  139.3232   81.7208  220.0320 H   0  0  0  0  0  0  0  0  0  0  0  0
  138.6664   81.0729  222.0195 H   0  0  0  0  0  0  0  0  0  0  0  0
  137.7571   79.8494  220.9948 H   0  0  0  0  0  0  0  0  0  0  0  0
  138.7325   78.7259  222.9289 H   0  0  0  0  0  0  0  0  0  0  0  0
  141.8695   77.9993  221.8555 H   0  0  0  0  0  0  0  0  0  0  0  0
  143.9918   78.8562  222.7497 H   0  0  0  0  0  0  0  0  0  0  0  0
  144.0209   80.9777  224.0819 H   0  0  0  0  0  0  0  0  0  0  0  0
  141.8771   82.1861  224.4735 H   0  0  0  0  0  0  0  0  0  0  0  0
  139.7682   81.3088  223.5673 H   0  0  0  0  0  0  0  0  0  0  0  0
  139.1359   71.1026  221.2586 H   0  0  0  0  0  0  0  0  0  0  0  0
  138.5745   68.9704  222.4237 H   0  0  0  0  0  0  0  0  0  0  0  0
  138.6711   67.6567  224.3596 H   0  0  0  0  0  0  0  0  0  0  0  0
  140.6690   69.1550  227.8833 H   0  0  0  0  0  0  0  0  0  0  0  0
  141.2264   71.2864  226.7036 H   0  0  0  0  0  0  0  0  0  0  0  0
  1  2  2  0
  2  3  1  0
  3  4  1  0
  4  5  1  0
  5  6  2  0
  5  7  1  0
  7  8  1  0
  8  9  1  0
  9 10  1  0
 10 11  1  0
 11 12  1  0
 12 13  1  0
 13 14  1  0
 14 15  2  0
 15 16  1  0
 16 17  2  0
 17 18  1  0
 18 19  2  0
  2 20  1  0
 20 21  2  0
 21 22  1  0
 22 23  2  0
 23 24  1  0
 24 25  2  0
 25 26  1  0
 25 27  1  0
 27 28  2  0
 28 29  1  0
 29 30  2  0
 13  7  1  0
 19 14  1  0
 30 20  1  0
 29 23  1  0
  3 31  1  0
  4 32  1  0
  4 33  1  0
  8 34  1  0
  8 35  1  0
  9 36  1  0
  9 37  1  0
 10 38  1  0
 10 39  1  0
 11 40  1  0
 11 41  1  0
 12 42  1  0
 12 43  1  0
 13 44  1  1
 15 45  1  0
 16 46  1  0
 17 47  1  0
 18 48  1  0
 19 49  1  0
 21 50  1  0
 22 51  1  0
 24 52  1  0
 27 53  1  0
 28 54  1  0
M  END
>  <smiles>  (15) 
O=C(NCC(=O)N1CCCCCC1c1ccccc1)c1ccc2cc(F)ccc2n1

>  <score_type>  (15) 
oracle

>  <origin>  (15) 
autodockgpu

>  <m_score__min__energy>  (15) 
-6.9000000000000004

>  <m_primary>  (15) 
energy

>  <rmsd>  (15) 
3.02370578905474

>  <m_score__min__rmsd>  (15) 
3.02370578905474

>  <meeko>  (15) 
{"free_energy": -5.57, "intermolecular_energy": -8.85, "internal_energy": -1.99, "cluster_size": 12, "cluster_id": 2, "rank_in_cluster": 11}

>  <energy>  (15) 
-6.4

>  <cluster_rmsd>  (15) 
0.77

>  <cluster>  (15) 
2

$$$$

     RDKit          3D

 54 57  0  0  0  0  0  0  0  0999 V2000
  141.0250   73.8040  221.7530 O   0  0  0  0  0  0  0  0  0  0  0  0
  139.9640   73.4850  222.3490 C   0  0  0  0  0  0  0  0  0  0  0  0
  138.9050   74.4450  222.3220 N   0  0  0  0  0  0  0  0  0  0  0  0
  139.1900   75.6820  221.5990 C   0  0  0  0  0  0  0  0  0  0  0  0
  138.6920   76.8350  222.3540 C   0  0  0  0  0  0  0  0  0  0  0  0
  137.4560   76.8920  222.6470 O   0  0  0  0  0  0  0  0  0  0  0  0
  139.6090   77.8580  222.7390 N   0  0  0  0  0  0  0  0  0  0  0  0
  139.0800   79.0440  223.3780 C   0  0  0  0  0  0  0  0  0  0  0  0
  139.4190   80.3220  222.6660 C   0  0  0  0  0  0  0  0  0  0  0  0
  140.7660   80.8870  222.9830 C   0  0  0  0  0  0  0  0  0  0  0  0
  141.8730   79.9880  222.5110 C   0  0  0  0  0  0  0  0  0  0  0  0
  141.8790   78.6360  223.1370 C   0  0  0  0  0  0  0  0  0  0  0  0
  141.0070   77.6150  222.4500 C   0  0  2  0  0  0  0  0  0  0  0  0
  141.3250   77.6960  221.0010 C   0  0  0  0  0  0  0  0  0  0  0  0
  140.6800   78.5590  220.1350 C   0  0  0  0  0  0  0  0  0  0  0  0
  140.9760   78.6320  218.7890 C   0  0  0  0  0  0  0  0  0  0  0  0
  141.9630   77.8100  218.2550 C   0  0  0  0  0  0  0  0  0  0  0  0
  142.6260   76.9340  219.0980 C   0  0  0  0  0  0  0  0  0  0  0  0
  142.3120   76.8810  220.4390 C   0  0  0  0  0  0  0  0  0  0  0  0
  139.8100   72.2070  223.0370 C   0  0  0  0  0  0  0  0  0  0  0  0
  139.0130   71.2490  222.4420 C   0  0  0  0  0  0  0  0  0  0  0  0
  138.8030   70.0040  223.0140 C   0  0  0  0  0  0  0  0  0  0  0  0
  139.4330   69.7600  224.2190 C   0  0  0  0  0  0  0  0  0  0  0  0
  139.2220   68.5210  224.7880 C   0  0  0  0  0  0  0  0  0  0  0  0
  139.8450   68.2530  225.9990 C   0  0  0  0  0  0  0  0  0  0  0  0
  139.6700   67.0470  226.5990 F   0  0  0  0  0  0  0  0  0  0  0  0
  140.6510   69.2150  226.6050 C   0  0  0  0  0  0  0  0  0  0  0  0
  140.8550   70.4610  226.0210 C   0  0  0  0  0  0  0  0  0  0  0  0
  140.2310   70.7170  224.8170 C   0  0  0  0  0  0  0  0  0  0  0  0
  140.4070   71.9300  224.2130 N   0  0  0  0  0  0  0  0  0  0  0  0
  138.0000   74.2580  222.7890 H   0  0  0  0  0  0  0  0  0  0  0  0
  140.2769   75.7800  221.4608 H   0  0  0  0  0  0  0  0  0  0  0  0
  138.6886   75.6497  220.6204 H   0  0  0  0  0  0  0  0  0  0  0  0
  137.9847   78.9533  223.4239 H   0  0  0  0  0  0  0  0  0  0  0  0
  139.5414   79.1021  224.3749 H   0  0  0  0  0  0  0  0  0  0  0  0
  139.3760   80.1307  221.5836 H   0  0  0  0  0  0  0  0  0  0  0  0
  138.6861   81.0671  223.0090 H   0  0  0  0  0  0  0  0  0  0  0  0
  140.8669   81.8651  222.4899 H   0  0  0  0  0  0  0  0  0  0  0  0
  140.8473   80.9849  224.0756 H   0  0  0  0  0  0  0  0  0  0  0  0
  141.7735   79.8625  221.4227 H   0  0  0  0  0  0  0  0  0  0  0  0
  142.8163   80.4727  222.8031 H   0  0  0  0  0  0  0  0  0  0  0  0
  142.9132   78.2614  223.1315 H   0  0  0  0  0  0  0  0  0  0  0  0
  141.4675   78.7625  224.1492 H   0  0  0  0  0  0  0  0  0  0  0  0
  141.2034   76.5954  222.8131 H   0  0  0  0  0  0  0  0  0  0  0  0
  139.8955   79.2172  220.5367 H   0  0  0  0  0  0  0  0  0  0  0  0
  140.4340   79.3369  218.1415 H   0  0  0  0  0  0  0  0  0  0  0  0
  142.2119   77.8549  217.1845 H   0  0  0  0  0  0  0  0  0  0  0  0
  143.4092   76.2755  218.6944 H   0  0  0  0  0  0  0  0  0  0  0  0
  142.8543   76.1762  221.0864 H   0  0  0  0  0  0  0  0  0  0  0  0
  138.5287   71.4817  221.4822 H   0  0  0  0  0  0  0  0  0  0  0  0
  138.1661   69.2476  222.5322 H   0  0  0  0  0  0  0  0  0  0  0  0
  138.5823   67.7716  224.2989 H   0  0  0  0  0  0  0  0  0  0  0  0
  141.1359   68.9842  227.5650 H   0  0  0  0  0  0  0  0  0  0  0  0
  141.4924   71.2170  226.5028 H   0  0  0  0  0  0  0  0  0  0  0  0
  1  2  2  0
  2  3  1  0
  3  4  1  0
  4  5  1  0
  5  6  2  0
  5  7  1  0
  7  8  1  0
  8  9  1  0
  9 10  1  0
 10 11  1  0
 11 12  1  0
 12 13  1  0
 13 14  1  0
 14 15  2  0
 15 16  1  0
 16 17  2  0
 17 18  1  0
 18 19  2  0
  2 20  1  0
 20 21  2  0
 21 22  1  0
 22 23  2  0
 23 24  1  0
 24 25  2  0
 25 26  1  0
 25 27  1  0
 27 28  2  0
 28 29  1  0
 29 30  2  0
 13  7  1  0
 19 14  1  0
 30 20  1  0
 29 23  1  0
  3 31  1  0
  4 32  1  0
  4 33  1  0
  8 34  1  0
  8 35  1  0
  9 36  1  0
  9 37  1  0
 10 38  1  0
 10 39  1  0
 11 40  1  0
 11 41  1  0
 12 42  1  0
 12 43  1  0
 13 44  1  1
 15 45  1  0
 16 46  1  0
 17 47  1  0
 18 48  1  0
 19 49  1  0
 21 50  1  0
 22 51  1  0
 24 52  1  0
 27 53  1  0
 28 54  1  0
M  END
>  <smiles>  (16) 
O=C(NCC(=O)N1CCCCCC1c1ccccc1)c1ccc2cc(F)ccc2n1

>  <score_type>  (16) 
oracle

>  <origin>  (16) 
autodockgpu

>  <m_score__min__energy>  (16) 
-6.9000000000000004

>  <m_primary>  (16) 
energy

>  <rmsd>  (16) 
3.830150651629495

>  <m_score__min__rmsd>  (16) 
3.830150651629495

>  <meeko>  (16) 
{"free_energy": -6.12, "intermolecular_energy": -9.4, "internal_energy": -1.67, "cluster_size": 7, "cluster_id": 4, "rank_in_cluster": 2}

>  <energy>  (16) 
-5.99

>  <cluster_rmsd>  (16) 
1.98

>  <cluster>  (16) 
2

$$$$

     RDKit          3D

 54 57  0  0  0  0  0  0  0  0999 V2000
  138.5790   72.4810  222.4090 O   0  0  0  0  0  0  0  0  0  0  0  0
  139.6900   71.9850  222.7270 C   0  0  0  0  0  0  0  0  0  0  0  0
  140.8080   72.3510  221.9140 N   0  0  0  0  0  0  0  0  0  0  0  0
  140.5160   73.2630  220.8100 C   0  0  0  0  0  0  0  0  0  0  0  0
  140.4750   74.6460  221.2940 C   0  0  0  0  0  0  0  0  0  0  0  0
  139.7860   74.9150  222.3280 O   0  0  0  0  0  0  0  0  0  0  0  0
  141.2080   75.6460  220.5910 N   0  0  0  0  0  0  0  0  0  0  0  0
  142.6020   75.3910  220.2970 C   0  0  0  0  0  0  0  0  0  0  0  0
  143.3070   76.5440  219.6410 C   0  0  0  0  0  0  0  0  0  0  0  0
  142.8580   76.8530  218.2490 C   0  0  0  0  0  0  0  0  0  0  0  0
  141.4820   76.3150  217.9750 C   0  0  0  0  0  0  0  0  0  0  0  0
  140.3940   76.9870  218.7320 C   0  0  0  0  0  0  0  0  0  0  0  0
  140.4830   76.8470  220.2310 C   0  0  2  0  0  0  0  0  0  0  0  0
  141.1260   78.0880  220.7330 C   0  0  0  0  0  0  0  0  0  0  0  0
  141.5610   78.2380  222.0360 C   0  0  0  0  0  0  0  0  0  0  0  0
  142.1590   79.3930  222.5010 C   0  0  0  0  0  0  0  0  0  0  0  0
  142.3410   80.4690  221.6380 C   0  0  0  0  0  0  0  0  0  0  0  0
  141.9150   80.3490  220.3260 C   0  0  0  0  0  0  0  0  0  0  0  0
  141.3220   79.1850  219.8870 C   0  0  0  0  0  0  0  0  0  0  0  0
  139.8440   71.0810  223.8630 C   0  0  0  0  0  0  0  0  0  0  0  0
  139.4270   69.7740  223.7040 C   0  0  0  0  0  0  0  0  0  0  0  0
  139.5300   68.8380  224.7210 C   0  0  0  0  0  0  0  0  0  0  0  0
  140.0740   69.2740  225.9140 C   0  0  0  0  0  0  0  0  0  0  0  0
  140.1750   68.3410  226.9260 C   0  0  0  0  0  0  0  0  0  0  0  0
  140.7180   68.7560  228.1330 C   0  0  0  0  0  0  0  0  0  0  0  0
  140.8400   67.8760  229.1600 F   0  0  0  0  0  0  0  0  0  0  0  0
  141.1420   70.0740  228.3000 C   0  0  0  0  0  0  0  0  0  0  0  0
  141.0340   71.0050  227.2720 C   0  0  0  0  0  0  0  0  0  0  0  0
  140.4920   70.5810  226.0750 C   0  0  0  0  0  0  0  0  0  0  0  0
  140.3690   71.4670  225.0420 N   0  0  0  0  0  0  0  0  0  0  0  0
  141.7560   71.9850  222.1100 H   0  0  0  0  0  0  0  0  0  0  0  0
  141.2998   73.1691  220.0440 H   0  0  0  0  0  0  0  0  0  0  0  0
  139.5375   73.0040  220.3794 H   0  0  0  0  0  0  0  0  0  0  0  0
  143.1184   75.1609  221.2406 H   0  0  0  0  0  0  0  0  0  0  0  0
  142.6298   74.5531  219.5849 H   0  0  0  0  0  0  0  0  0  0  0  0
  143.1432   77.4394  220.2585 H   0  0  0  0  0  0  0  0  0  0  0  0
  144.3648   76.2524  219.5640 H   0  0  0  0  0  0  0  0  0  0  0  0
  142.8475   77.9444  218.1121 H   0  0  0  0  0  0  0  0  0  0  0  0
  143.5585   76.3739  217.5491 H   0  0  0  0  0  0  0  0  0  0  0  0
  141.2755   76.4315  216.9009 H   0  0  0  0  0  0  0  0  0  0  0  0
  141.4868   75.2646  218.3015 H   0  0  0  0  0  0  0  0  0  0  0  0
  140.4189   78.0591  218.4869 H   0  0  0  0  0  0  0  0  0  0  0  0
  139.4583   76.4931  218.4311 H   0  0  0  0  0  0  0  0  0  0  0  0
  139.4911   76.7345  220.6930 H   0  0  0  0  0  0  0  0  0  0  0  0
  141.4248   77.3994  222.7347 H   0  0  0  0  0  0  0  0  0  0  0  0
  142.4895   79.4617  223.5479 H   0  0  0  0  0  0  0  0  0  0  0  0
  142.8142   81.3971  221.9911 H   0  0  0  0  0  0  0  0  0  0  0  0
  142.0509   81.1890  219.6289 H   0  0  0  0  0  0  0  0  0  0  0  0
  140.9928   79.1163  218.8397 H   0  0  0  0  0  0  0  0  0  0  0  0
  138.9991   69.4658  222.7386 H   0  0  0  0  0  0  0  0  0  0  0  0
  139.1951   67.7991  224.5851 H   0  0  0  0  0  0  0  0  0  0  0  0
  139.8367   67.3045  226.7804 H   0  0  0  0  0  0  0  0  0  0  0  0
  141.5707   70.3838  229.2645 H   0  0  0  0  0  0  0  0  0  0  0  0
  141.3691   72.0438  227.4082 H   0  0  0  0  0  0  0  0  0  0  0  0
  1  2  2  0
  2  3  1  0
  3  4  1  0
  4  5  1  0
  5  6  2  0
  5  7  1  0
  7  8  1  0
  8  9  1  0
  9 10  1  0
 10 11  1  0
 11 12  1  0
 12 13  1  0
 13 14  1  0
 14 15  2  0
 15 16  1  0
 16 17  2  0
 17 18  1  0
 18 19  2  0
  2 20  1  0
 20 21  2  0
 21 22  1  0
 22 23  2  0
 23 24  1  0
 24 25  2  0
 25 26  1  0
 25 27  1  0
 27 28  2  0
 28 29  1  0
 29 30  2  0
 13  7  1  0
 19 14  1  0
 30 20  1  0
 29 23  1  0
  3 31  1  0
  4 32  1  0
  4 33  1  0
  8 34  1  0
  8 35  1  0
  9 36  1  0
  9 37  1  0
 10 38  1  0
 10 39  1  0
 11 40  1  0
 11 41  1  0
 12 42  1  0
 12 43  1  0
 13 44  1  1
 15 45  1  0
 16 46  1  0
 17 47  1  0
 18 48  1  0
 19 49  1  0
 21 50  1  0
 22 51  1  0
 24 52  1  0
 27 53  1  0
 28 54  1  0
M  END
>  <smiles>  (17) 
O=C(NCC(=O)N1CCCCCC1c1ccccc1)c1ccc2cc(F)ccc2n1

>  <score_type>  (17) 
oracle

>  <origin>  (17) 
autodockgpu

>  <m_score__min__energy>  (17) 
-6.9000000000000004

>  <m_primary>  (17) 
energy

>  <rmsd>  (17) 
2.124389899647042

>  <m_score__min__rmsd>  (17) 
2.124389899647042

>  <meeko>  (17) 
{"free_energy": -5.98, "intermolecular_energy": -9.26, "internal_energy": -1.23, "cluster_size": 12, "cluster_id": 2, "rank_in_cluster": 7}

>  <energy>  (17) 
-5.98

>  <cluster_rmsd>  (17) 
1.32

>  <cluster>  (17) 
2

$$$$

     RDKit          3D

 54 57  0  0  0  0  0  0  0  0999 V2000
  140.9340   73.9040  220.1890 O   0  0  0  0  0  0  0  0  0  0  0  0
  140.4460   74.6280  221.0940 C   0  0  0  0  0  0  0  0  0  0  0  0
  139.5000   74.0070  221.9670 N   0  0  0  0  0  0  0  0  0  0  0  0
  139.2200   72.5980  221.6980 C   0  0  0  0  0  0  0  0  0  0  0  0
  139.9470   71.7480  222.6440 C   0  0  0  0  0  0  0  0  0  0  0  0
  141.2080   71.6360  222.5280 O   0  0  0  0  0  0  0  0  0  0  0  0
  139.2180   71.0720  223.6670 N   0  0  0  0  0  0  0  0  0  0  0  0
  137.8340   71.4390  223.8760 C   0  0  0  0  0  0  0  0  0  0  0  0
  136.9080   70.2650  224.0220 C   0  0  0  0  0  0  0  0  0  0  0  0
  137.1380   69.1520  223.0520 C   0  0  0  0  0  0  0  0  0  0  0  0
  138.3770   68.3700  223.3840 C   0  0  0  0  0  0  0  0  0  0  0  0
  139.0940   68.8310  224.6050 C   0  0  0  0  0  0  0  0  0  0  0  0
  139.9400   70.0650  224.4180 C   0  0  2  0  0  0  0  0  0  0  0  0
  140.3280   70.5200  225.7780 C   0  0  0  0  0  0  0  0  0  0  0  0
  140.0490   69.7990  226.9230 C   0  0  0  0  0  0  0  0  0  0  0  0
  140.4110   70.2230  228.1860 C   0  0  0  0  0  0  0  0  0  0  0  0
  141.0880   71.4290  228.3390 C   0  0  0  0  0  0  0  0  0  0  0  0
  141.3810   72.1740  227.2100 C   0  0  0  0  0  0  0  0  0  0  0  0
  141.0090   71.7280  225.9600 C   0  0  0  0  0  0  0  0  0  0  0  0
  140.8160   76.0310  221.2540 C   0  0  0  0  0  0  0  0  0  0  0  0
  141.5360   76.6260  220.2370 C   0  0  0  0  0  0  0  0  0  0  0  0
  141.9360   77.9510  220.2920 C   0  0  0  0  0  0  0  0  0  0  0  0
  141.5770   78.6620  221.4220 C   0  0  0  0  0  0  0  0  0  0  0  0
  141.9760   79.9820  221.4760 C   0  0  0  0  0  0  0  0  0  0  0  0
  141.6270   80.7150  222.6010 C   0  0  0  0  0  0  0  0  0  0  0  0
  141.9960   82.0180  222.7020 F   0  0  0  0  0  0  0  0  0  0  0  0
  140.8990   80.1220  223.6320 C   0  0  0  0  0  0  0  0  0  0  0  0
  140.5040   78.7890  223.5650 C   0  0  0  0  0  0  0  0  0  0  0  0
  140.8560   78.0700  222.4410 C   0  0  0  0  0  0  0  0  0  0  0  0
  140.4850   76.7580  222.3400 N   0  0  0  0  0  0  0  0  0  0  0  0
  139.0540   74.5350  222.7370 H   0  0  0  0  0  0  0  0  0  0  0  0
  138.1401   72.4159  221.8017 H   0  0  0  0  0  0  0  0  0  0  0  0
  139.5452   72.3564  220.6753 H   0  0  0  0  0  0  0  0  0  0  0  0
  137.7710   72.0456  224.7914 H   0  0  0  0  0  0  0  0  0  0  0  0
  137.5114   71.9906  222.9807 H   0  0  0  0  0  0  0  0  0  0  0  0
  137.0271   69.8614  225.0383 H   0  0  0  0  0  0  0  0  0  0  0  0
  135.8963   70.6454  223.8175 H   0  0  0  0  0  0  0  0  0  0  0  0
  136.2720   68.4742  223.0759 H   0  0  0  0  0  0  0  0  0  0  0  0
  137.2686   69.5913  222.0520 H   0  0  0  0  0  0  0  0  0  0  0  0
  138.0895   67.3186  223.5317 H   0  0  0  0  0  0  0  0  0  0  0  0
  139.0708   68.5143  222.5427 H   0  0  0  0  0  0  0  0  0  0  0  0
  138.3442   69.0454  225.3808 H   0  0  0  0  0  0  0  0  0  0  0  0
  139.7864   68.0216  224.8795 H   0  0  0  0  0  0  0  0  0  0  0  0
  140.8446   69.8578  223.8274 H   0  0  0  0  0  0  0  0  0  0  0  0
  139.5138   68.8431  226.8238 H   0  0  0  0  0  0  0  0  0  0  0  0
  140.1656   69.6109  229.0664 H   0  0  0  0  0  0  0  0  0  0  0  0
  141.3844   71.7832  229.3373 H   0  0  0  0  0  0  0  0  0  0  0  0
  141.9153   73.1302  227.3111 H   0  0  0  0  0  0  0  0  0  0  0  0
  141.2549   72.3401  225.0797 H   0  0  0  0  0  0  0  0  0  0  0  0
  141.8009   76.0273  219.3530 H   0  0  0  0  0  0  0  0  0  0  0  0
  142.5109   78.4146  219.4768 H   0  0  0  0  0  0  0  0  0  0  0  0
  142.5506   80.4370  220.6558 H   0  0  0  0  0  0  0  0  0  0  0  0
  140.6316   80.7196  224.5159 H   0  0  0  0  0  0  0  0  0  0  0  0
  139.9305   78.3243  224.3806 H   0  0  0  0  0  0  0  0  0  0  0  0
  1  2  2  0
  2  3  1  0
  3  4  1  0
  4  5  1  0
  5  6  2  0
  5  7  1  0
  7  8  1  0
  8  9  1  0
  9 10  1  0
 10 11  1  0
 11 12  1  0
 12 13  1  0
 13 14  1  0
 14 15  2  0
 15 16  1  0
 16 17  2  0
 17 18  1  0
 18 19  2  0
  2 20  1  0
 20 21  2  0
 21 22  1  0
 22 23  2  0
 23 24  1  0
 24 25  2  0
 25 26  1  0
 25 27  1  0
 27 28  2  0
 28 29  1  0
 29 30  2  0
 13  7  1  0
 19 14  1  0
 30 20  1  0
 29 23  1  0
  3 31  1  0
  4 32  1  0
  4 33  1  0
  8 34  1  0
  8 35  1  0
  9 36  1  0
  9 37  1  0
 10 38  1  0
 10 39  1  0
 11 40  1  0
 11 41  1  0
 12 42  1  0
 12 43  1  0
 13 44  1  6
 15 45  1  0
 16 46  1  0
 17 47  1  0
 18 48  1  0
 19 49  1  0
 21 50  1  0
 22 51  1  0
 24 52  1  0
 27 53  1  0
 28 54  1  0
M  END
>  <smiles>  (18) 
O=C(NCC(=O)N1CCCCCC1c1ccccc1)c1ccc2cc(F)ccc2n1

>  <score_type>  (18) 
oracle

>  <origin>  (18) 
autodockgpu

>  <m_score__min__energy>  (18) 
-6.9000000000000004

>  <m_primary>  (18) 
energy

>  <rmsd>  (18) 
8.636118900622812

>  <m_score__min__rmsd>  (18) 
8.636118900622812

>  <meeko>  (18) 
{"free_energy": -6.9, "intermolecular_energy": -10.18, "internal_energy": -1.71, "cluster_size": 10, "cluster_id": 1, "rank_in_cluster": 1}

>  <energy>  (18) 
-5.88

>  <cluster_rmsd>  (18) 
1.27

>  <cluster>  (18) 
2

$$$$

     RDKit          3D

 54 57  0  0  0  0  0  0  0  0999 V2000
  141.4090   72.5110  221.9000 O   0  0  0  0  0  0  0  0  0  0  0  0
  140.3980   72.5280  222.6490 C   0  0  0  0  0  0  0  0  0  0  0  0
  139.4040   73.5120  222.3550 N   0  0  0  0  0  0  0  0  0  0  0  0
  139.6890   74.3790  221.2140 C   0  0  0  0  0  0  0  0  0  0  0  0
  140.2530   75.6510  221.6730 C   0  0  0  0  0  0  0  0  0  0  0  0
  141.4180   75.6600  222.1820 O   0  0  0  0  0  0  0  0  0  0  0  0
  139.4780   76.8410  221.5350 N   0  0  0  0  0  0  0  0  0  0  0  0
  138.9370   77.1560  220.2300 C   0  0  0  0  0  0  0  0  0  0  0  0
  137.4440   77.3200  220.2120 C   0  0  0  0  0  0  0  0  0  0  0  0
  136.7190   76.6440  221.3310 C   0  0  0  0  0  0  0  0  0  0  0  0
  136.7860   77.4410  222.6020 C   0  0  0  0  0  0  0  0  0  0  0  0
  137.9660   78.3420  222.7080 C   0  0  0  0  0  0  0  0  0  0  0  0
  139.3000   77.6400  222.7300 C   0  0  2  0  0  0  0  0  0  0  0  0
  140.3310   78.6980  222.8800 C   0  0  0  0  0  0  0  0  0  0  0  0
  140.1830   79.7810  223.7270 C   0  0  0  0  0  0  0  0  0  0  0  0
  141.1430   80.7640  223.8660 C   0  0  0  0  0  0  0  0  0  0  0  0
  142.3210   80.6840  223.1300 C   0  0  0  0  0  0  0  0  0  0  0  0
  142.4980   79.6120  222.2730 C   0  0  0  0  0  0  0  0  0  0  0  0
  141.5240   78.6430  222.1530 C   0  0  0  0  0  0  0  0  0  0  0  0
  140.2370   71.5990  223.7630 C   0  0  0  0  0  0  0  0  0  0  0  0
  139.5790   70.4100  223.5180 C   0  0  0  0  0  0  0  0  0  0  0  0
  139.3750   69.4610  224.5070 C   0  0  0  0  0  0  0  0  0  0  0  0
  139.8640   69.7590  225.7640 C   0  0  0  0  0  0  0  0  0  0  0  0
  139.6590   68.8140  226.7490 C   0  0  0  0  0  0  0  0  0  0  0  0
  140.1420   69.0920  228.0190 C   0  0  0  0  0  0  0  0  0  0  0  0
  139.9670   68.1940  229.0230 F   0  0  0  0  0  0  0  0  0  0  0  0
  140.8080   70.2900  228.2740 C   0  0  0  0  0  0  0  0  0  0  0  0
  141.0070   71.2350  227.2730 C   0  0  0  0  0  0  0  0  0  0  0  0
  140.5230   70.9480  226.0130 C   0  0  0  0  0  0  0  0  0  0  0  0
  140.6990   71.8530  225.0030 N   0  0  0  0  0  0  0  0  0  0  0  0
  138.5430   73.5910  222.9240 H   0  0  0  0  0  0  0  0  0  0  0  0
  140.4104   73.8803  220.5500 H   0  0  0  0  0  0  0  0  0  0  0  0
  138.7530   74.5767  220.6710 H   0  0  0  0  0  0  0  0  0  0  0  0
  139.3926   78.0956  219.8841 H   0  0  0  0  0  0  0  0  0  0  0  0
  139.1721   76.3051  219.5737 H   0  0  0  0  0  0  0  0  0  0  0  0
  137.2186   78.3956  220.2603 H   0  0  0  0  0  0  0  0  0  0  0  0
  137.0940   76.8406  219.2859 H   0  0  0  0  0  0  0  0  0  0  0  0
  135.6642   76.5165  221.0460 H   0  0  0  0  0  0  0  0  0  0  0  0
  137.2004   75.6716  221.5118 H   0  0  0  0  0  0  0  0  0  0  0  0
  135.8771   78.0570  222.6688 H   0  0  0  0  0  0  0  0  0  0  0  0
  136.8756   76.7129  223.4217 H   0  0  0  0  0  0  0  0  0  0  0  0
  137.9533   79.0248  221.8457 H   0  0  0  0  0  0  0  0  0  0  0  0
  137.8735   78.8596  223.6742 H   0  0  0  0  0  0  0  0  0  0  0  0
  139.3766   76.9301  223.5668 H   0  0  0  0  0  0  0  0  0  0  0  0
  139.2583   79.8633  224.3171 H   0  0  0  0  0  0  0  0  0  0  0  0
  140.9772   81.6055  224.5547 H   0  0  0  0  0  0  0  0  0  0  0  0
  143.0966   81.4579  223.2275 H   0  0  0  0  0  0  0  0  0  0  0  0
  143.4228   79.5321  221.6828 H   0  0  0  0  0  0  0  0  0  0  0  0
  141.6908   77.8014  221.4645 H   0  0  0  0  0  0  0  0  0  0  0  0
  139.2041   70.2094  222.5035 H   0  0  0  0  0  0  0  0  0  0  0  0
  138.8495   68.5168  224.3012 H   0  0  0  0  0  0  0  0  0  0  0  0
  139.1310   67.8732  226.5342 H   0  0  0  0  0  0  0  0  0  0  0  0
  141.1839   70.4920  229.2879 H   0  0  0  0  0  0  0  0  0  0  0  0
  141.5325   72.1792  227.4788 H   0  0  0  0  0  0  0  0  0  0  0  0
  1  2  2  0
  2  3  1  0
  3  4  1  0
  4  5  1  0
  5  6  2  0
  5  7  1  0
  7  8  1  0
  8  9  1  0
  9 10  1  0
 10 11  1  0
 11 12  1  0
 12 13  1  0
 13 14  1  0
 14 15  2  0
 15 16  1  0
 16 17  2  0
 17 18  1  0
 18 19  2  0
  2 20  1  0
 20 21  2  0
 21 22  1  0
 22 23  2  0
 23 24  1  0
 24 25  2  0
 25 26  1  0
 25 27  1  0
 27 28  2  0
 28 29  1  0
 29 30  2  0
 13  7  1  0
 19 14  1  0
 30 20  1  0
 29 23  1  0
  3 31  1  0
  4 32  1  0
  4 33  1  0
  8 34  1  0
  8 35  1  0
  9 36  1  0
  9 37  1  0
 10 38  1  0
 10 39  1  0
 11 40  1  0
 11 41  1  0
 12 42  1  0
 12 43  1  0
 13 44  1  1
 15 45  1  0
 16 46  1  0
 17 47  1  0
 18 48  1  0
 19 49  1  0
 21 50  1  0
 22 51  1  0
 24 52  1  0
 27 53  1  0
 28 54  1  0
M  END
>  <smiles>  (19) 
O=C(NCC(=O)N1CCCCCC1c1ccccc1)c1ccc2cc(F)ccc2n1

>  <score_type>  (19) 
oracle

>  <origin>  (19) 
autodockgpu

>  <m_score__min__energy>  (19) 
-6.9000000000000004

>  <m_primary>  (19) 
energy

>  <rmsd>  (19) 
2.783058020457211

>  <m_score__min__rmsd>  (19) 
2.783058020457211

>  <meeko>  (19) 
{"free_energy": -6.73, "intermolecular_energy": -10.01, "internal_energy": -1.52, "cluster_size": 6, "cluster_id": 3, "rank_in_cluster": 1}

>  <energy>  (19) 
-5.87

>  <cluster_rmsd>  (19) 
1.66

>  <cluster>  (19) 
2

$$$$

     RDKit          3D

 54 57  0  0  0  0  0  0  0  0999 V2000
  141.3490   71.6120  222.1030 O   0  0  0  0  0  0  0  0  0  0  0  0
  140.4740   71.8210  222.9830 C   0  0  0  0  0  0  0  0  0  0  0  0
  139.4300   72.7340  222.6400 N   0  0  0  0  0  0  0  0  0  0  0  0
  139.5100   73.3130  221.3000 C   0  0  0  0  0  0  0  0  0  0  0  0
  140.5120   74.3830  221.2710 C   0  0  0  0  0  0  0  0  0  0  0  0
  140.8100   74.9760  222.3550 O   0  0  0  0  0  0  0  0  0  0  0  0
  141.1230   74.7240  220.0270 N   0  0  0  0  0  0  0  0  0  0  0  0
  141.5830   73.6500  219.1740 C   0  0  0  0  0  0  0  0  0  0  0  0
  143.0350   73.3090  219.3530 C   0  0  0  0  0  0  0  0  0  0  0  0
  143.8760   74.4020  219.9300 C   0  0  0  0  0  0  0  0  0  0  0  0
  143.6640   75.7050  219.2140 C   0  0  0  0  0  0  0  0  0  0  0  0
  142.6590   76.6010  219.8460 C   0  0  0  0  0  0  0  0  0  0  0  0
  141.2300   76.1370  219.7260 C   0  0  2  0  0  0  0  0  0  0  0  0
  140.4310   76.9900  220.6440 C   0  0  0  0  0  0  0  0  0  0  0  0
  139.0550   77.0880  220.5750 C   0  0  0  0  0  0  0  0  0  0  0  0
  138.3140   77.8810  221.4280 C   0  0  0  0  0  0  0  0  0  0  0  0
  138.9590   78.6250  222.4100 C   0  0  0  0  0  0  0  0  0  0  0  0
  140.3380   78.5480  222.5040 C   0  0  0  0  0  0  0  0  0  0  0  0
  141.0540   77.7480  221.6390 C   0  0  0  0  0  0  0  0  0  0  0  0
  140.5130   71.1720  224.2900 C   0  0  0  0  0  0  0  0  0  0  0  0
  141.0140   71.8970  225.3530 C   0  0  0  0  0  0  0  0  0  0  0  0
  141.0920   71.3730  226.6330 C   0  0  0  0  0  0  0  0  0  0  0  0
  140.6430   70.0770  226.8020 C   0  0  0  0  0  0  0  0  0  0  0  0
  140.7230   69.5550  228.0770 C   0  0  0  0  0  0  0  0  0  0  0  0
  140.2770   68.2560  228.2710 C   0  0  0  0  0  0  0  0  0  0  0  0
  140.3350   67.6970  229.5080 F   0  0  0  0  0  0  0  0  0  0  0  0
  139.7700   67.5180  227.2030 C   0  0  0  0  0  0  0  0  0  0  0  0
  139.6950   68.0560  225.9220 C   0  0  0  0  0  0  0  0  0  0  0  0
  140.1410   69.3490  225.7400 C   0  0  0  0  0  0  0  0  0  0  0  0
  140.0840   69.9110  224.4960 N   0  0  0  0  0  0  0  0  0  0  0  0
  138.6730   72.9590  223.3080 H   0  0  0  0  0  0  0  0  0  0  0  0
  139.7937   72.5296  220.5818 H   0  0  0  0  0  0  0  0  0  0  0  0
  138.5292   73.7316  221.0302 H   0  0  0  0  0  0  0  0  0  0  0  0
  140.9867   72.7525  219.3953 H   0  0  0  0  0  0  0  0  0  0  0  0
  141.4614   73.9928  218.1359 H   0  0  0  0  0  0  0  0  0  0  0  0
  143.1008   72.4387  220.0225 H   0  0  0  0  0  0  0  0  0  0  0  0
  143.4313   73.1168  218.3450 H   0  0  0  0  0  0  0  0  0  0  0  0
  143.6135   74.5314  220.9903 H   0  0  0  0  0  0  0  0  0  0  0  0
  144.9324   74.1171  219.8165 H   0  0  0  0  0  0  0  0  0  0  0  0
  144.6256   76.2381  219.1793 H   0  0  0  0  0  0  0  0  0  0  0  0
  143.2746   75.4535  218.2165 H   0  0  0  0  0  0  0  0  0  0  0  0
  142.9019   76.6861  220.9155 H   0  0  0  0  0  0  0  0  0  0  0  0
  142.7184   77.5587  219.3082 H   0  0  0  0  0  0  0  0  0  0  0  0
  140.8483   76.2431  218.6998 H   0  0  0  0  0  0  0  0  0  0  0  0
  138.5254   76.5076  219.8051 H   0  0  0  0  0  0  0  0  0  0  0  0
  137.2191   77.9242  221.3315 H   0  0  0  0  0  0  0  0  0  0  0  0
  138.3847   79.2622  223.0986 H   0  0  0  0  0  0  0  0  0  0  0  0
  140.8662   79.1292  223.2742 H   0  0  0  0  0  0  0  0  0  0  0  0
  142.1490   77.7051  221.7350 H   0  0  0  0  0  0  0  0  0  0  0  0
  141.3630   72.9253  225.1775 H   0  0  0  0  0  0  0  0  0  0  0  0
  141.4916   71.9596  227.4734 H   0  0  0  0  0  0  0  0  0  0  0  0
  141.1265   70.1485  228.9106 H   0  0  0  0  0  0  0  0  0  0  0  0
  139.4220   66.4890  227.3763 H   0  0  0  0  0  0  0  0  0  0  0  0
  139.2935   67.4699  225.0822 H   0  0  0  0  0  0  0  0  0  0  0  0
  1  2  2  0
  2  3  1  0
  3  4  1  0
  4  5  1  0
  5  6  2  0
  5  7  1  0
  7  8  1  0
  8  9  1  0
  9 10  1  0
 10 11  1  0
 11 12  1  0
 12 13  1  0
 13 14  1  0
 14 15  2  0
 15 16  1  0
 16 17  2  0
 17 18  1  0
 18 19  2  0
  2 20  1  0
 20 21  2  0
 21 22  1  0
 22 23  2  0
 23 24  1  0
 24 25  2  0
 25 26  1  0
 25 27  1  0
 27 28  2  0
 28 29  1  0
 29 30  2  0
 13  7  1  0
 19 14  1  0
 30 20  1  0
 29 23  1  0
  3 31  1  0
  4 32  1  0
  4 33  1  0
  8 34  1  0
  8 35  1  0
  9 36  1  0
  9 37  1  0
 10 38  1  0
 10 39  1  0
 11 40  1  0
 11 41  1  0
 12 42  1  0
 12 43  1  0
 13 44  1  6
 15 45  1  0
 16 46  1  0
 17 47  1  0
 18 48  1  0
 19 49  1  0
 21 50  1  0
 22 51  1  0
 24 52  1  0
 27 53  1  0
 28 54  1  0
M  END
>  <smiles>  (20) 
O=C(NCC(=O)N1CCCCCC1c1ccccc1)c1ccc2cc(F)ccc2n1

>  <score_type>  (20) 
oracle

>  <origin>  (20) 
autodockgpu

>  <m_score__min__energy>  (20) 
-6.9000000000000004

>  <m_primary>  (20) 
energy

>  <rmsd>  (20) 
3.010736759922224

>  <m_score__min__rmsd>  (20) 
3.010736759922224

>  <meeko>  (20) 
{"free_energy": -5.87, "intermolecular_energy": -9.15, "internal_energy": -1.61, "cluster_size": 12, "cluster_id": 2, "rank_in_cluster": 9}

>  <energy>  (20) 
-5.65

>  <cluster_rmsd>  (20) 
2.0

>  <cluster>  (20) 
2

$$$$

     RDKit          3D

 54 57  0  0  0  0  0  0  0  0999 V2000
  141.9300   74.0140  220.7890 O   0  0  0  0  0  0  0  0  0  0  0  0
  141.1450   74.7400  221.4520 C   0  0  0  0  0  0  0  0  0  0  0  0
  140.0890   74.0710  222.1430 N   0  0  0  0  0  0  0  0  0  0  0  0
  140.0550   72.6180  221.9940 C   0  0  0  0  0  0  0  0  0  0  0  0
  138.7160   72.1080  222.3050 C   0  0  0  0  0  0  0  0  0  0  0  0
  137.7610   72.3600  221.5040 O   0  0  0  0  0  0  0  0  0  0  0  0
  138.5260   71.3460  223.4950 N   0  0  0  0  0  0  0  0  0  0  0  0
  137.2770   71.4990  224.2110 C   0  0  0  0  0  0  0  0  0  0  0  0
  136.2160   70.5180  223.8010 C   0  0  0  0  0  0  0  0  0  0  0  0
  136.7160   69.1570  223.4380 C   0  0  0  0  0  0  0  0  0  0  0  0
  137.8490   68.7250  224.3250 C   0  0  0  0  0  0  0  0  0  0  0  0
  139.2030   69.0290  223.7880 C   0  0  0  0  0  0  0  0  0  0  0  0
  139.6150   70.4760  223.8870 C   0  0  2  0  0  0  0  0  0  0  0  0
  140.0580   70.6930  225.2880 C   0  0  0  0  0  0  0  0  0  0  0  0
  140.7080   71.8390  225.7040 C   0  0  0  0  0  0  0  0  0  0  0  0
  141.1190   72.0400  227.0070 C   0  0  0  0  0  0  0  0  0  0  0  0
  140.8800   71.0590  227.9630 C   0  0  0  0  0  0  0  0  0  0  0  0
  140.2300   69.8990  227.5770 C   0  0  0  0  0  0  0  0  0  0  0  0
  139.8300   69.7230  226.2690 C   0  0  0  0  0  0  0  0  0  0  0  0
  141.2940   76.1910  221.5180 C   0  0  0  0  0  0  0  0  0  0  0  0
  141.6510   76.8540  220.3610 C   0  0  0  0  0  0  0  0  0  0  0  0
  141.8170   78.2280  220.3180 C   0  0  0  0  0  0  0  0  0  0  0  0
  141.6080   78.9160  221.4990 C   0  0  0  0  0  0  0  0  0  0  0  0
  141.7740   80.2850  221.4550 C   0  0  0  0  0  0  0  0  0  0  0  0
  141.5690   80.9970  222.6290 C   0  0  0  0  0  0  0  0  0  0  0  0
  141.7200   82.3470  222.6390 F   0  0  0  0  0  0  0  0  0  0  0  0
  141.2080   80.3350  223.8010 C   0  0  0  0  0  0  0  0  0  0  0  0
  141.0430   78.9530  223.8310 C   0  0  0  0  0  0  0  0  0  0  0  0
  141.2500   78.2560  222.6580 C   0  0  0  0  0  0  0  0  0  0  0  0
  141.0990   76.8970  222.6490 N   0  0  0  0  0  0  0  0  0  0  0  0
  139.4020   74.5970  222.7110 H   0  0  0  0  0  0  0  0  0  0  0  0
  140.3132   72.3529  220.9581 H   0  0  0  0  0  0  0  0  0  0  0  0
  140.7802   72.1690  222.6886 H   0  0  0  0  0  0  0  0  0  0  0  0
  137.4749   71.3663  225.2849 H   0  0  0  0  0  0  0  0  0  0  0  0
  136.8934   72.5021  223.9729 H   0  0  0  0  0  0  0  0  0  0  0  0
  135.5105   70.4097  224.6380 H   0  0  0  0  0  0  0  0  0  0  0  0
  135.7558   70.9280  222.8899 H   0  0  0  0  0  0  0  0  0  0  0  0
  135.8910   68.4362  223.5373 H   0  0  0  0  0  0  0  0  0  0  0  0
  137.0863   69.1932  222.4028 H   0  0  0  0  0  0  0  0  0  0  0  0
  137.7409   69.2351  225.2935 H   0  0  0  0  0  0  0  0  0  0  0  0
  137.7830   67.6300  224.4061 H   0  0  0  0  0  0  0  0  0  0  0  0
  139.9350   68.4264  224.3457 H   0  0  0  0  0  0  0  0  0  0  0  0
  139.1699   68.7904  222.7147 H   0  0  0  0  0  0  0  0  0  0  0  0
  140.4390   70.7171  223.1993 H   0  0  0  0  0  0  0  0  0  0  0  0
  140.9073   72.6275  224.9633 H   0  0  0  0  0  0  0  0  0  0  0  0
  141.6328   72.9714  227.2872 H   0  0  0  0  0  0  0  0  0  0  0  0
  141.2010   71.2017  229.0054 H   0  0  0  0  0  0  0  0  0  0  0  0
  140.0311   69.1119  228.3192 H   0  0  0  0  0  0  0  0  0  0  0  0
  139.3162   68.7916  225.9890 H   0  0  0  0  0  0  0  0  0  0  0  0
  141.8090   76.2708  219.4418 H   0  0  0  0  0  0  0  0  0  0  0  0
  142.1010   78.7464  219.3903 H   0  0  0  0  0  0  0  0  0  0  0  0
  142.0588   80.7943  220.5225 H   0  0  0  0  0  0  0  0  0  0  0  0
  141.0502   80.9164  224.7213 H   0  0  0  0  0  0  0  0  0  0  0  0
  140.7574   78.4343  224.7580 H   0  0  0  0  0  0  0  0  0  0  0  0
  1  2  2  0
  2  3  1  0
  3  4  1  0
  4  5  1  0
  5  6  2  0
  5  7  1  0
  7  8  1  0
  8  9  1  0
  9 10  1  0
 10 11  1  0
 11 12  1  0
 12 13  1  0
 13 14  1  0
 14 15  2  0
 15 16  1  0
 16 17  2  0
 17 18  1  0
 18 19  2  0
  2 20  1  0
 20 21  2  0
 21 22  1  0
 22 23  2  0
 23 24  1  0
 24 25  2  0
 25 26  1  0
 25 27  1  0
 27 28  2  0
 28 29  1  0
 29 30  2  0
 13  7  1  0
 19 14  1  0
 30 20  1  0
 29 23  1  0
  3 31  1  0
  4 32  1  0
  4 33  1  0
  8 34  1  0
  8 35  1  0
  9 36  1  0
  9 37  1  0
 10 38  1  0
 10 39  1  0
 11 40  1  0
 11 41  1  0
 12 42  1  0
 12 43  1  0
 13 44  1  6
 15 45  1  0
 16 46  1  0
 17 47  1  0
 18 48  1  0
 19 49  1  0
 21 50  1  0
 22 51  1  0
 24 52  1  0
 27 53  1  0
 28 54  1  0
M  END
>  <smiles>  (21) 
O=C(NCC(=O)N1CCCCCC1c1ccccc1)c1ccc2cc(F)ccc2n1

>  <score_type>  (21) 
oracle

>  <origin>  (21) 
autodockgpu

>  <m_score__min__energy>  (21) 
-6.9000000000000004

>  <m_primary>  (21) 
energy

>  <rmsd>  (21) 
8.680602995082333

>  <m_score__min__rmsd>  (21) 
8.680602995082333

>  <meeko>  (21) 
{"free_energy": -6.47, "intermolecular_energy": -9.76, "internal_energy": -1.5, "cluster_size": 10, "cluster_id": 1, "rank_in_cluster": 3}

>  <energy>  (21) 
-5.57

>  <cluster_rmsd>  (21) 
1.98

>  <cluster>  (21) 
2

$$$$

     RDKit          3D

 54 57  0  0  0  0  0  0  0  0999 V2000
  140.7150   71.8380  221.1110 O   0  0  0  0  0  0  0  0  0  0  0  0
  140.1070   72.3020  222.1110 C   0  0  0  0  0  0  0  0  0  0  0  0
  139.5770   73.6220  221.9770 N   0  0  0  0  0  0  0  0  0  0  0  0
  139.8080   74.2700  220.6880 C   0  0  0  0  0  0  0  0  0  0  0  0
  139.2210   75.6130  220.6840 C   0  0  0  0  0  0  0  0  0  0  0  0
  138.3590   75.9050  219.7970 O   0  0  0  0  0  0  0  0  0  0  0  0
  139.6350   76.5510  221.6760 N   0  0  0  0  0  0  0  0  0  0  0  0
  138.6260   77.1090  222.5510 C   0  0  0  0  0  0  0  0  0  0  0  0
  138.7150   78.6000  222.7100 C   0  0  0  0  0  0  0  0  0  0  0  0
  139.6850   79.0710  223.7450 C   0  0  0  0  0  0  0  0  0  0  0  0
  141.1060   78.7930  223.3440 C   0  0  0  0  0  0  0  0  0  0  0  0
  141.2580   78.3430  221.9380 C   0  0  0  0  0  0  0  0  0  0  0  0
  141.0480   76.8660  221.7190 C   0  0  2  0  0  0  0  0  0  0  0  0
  141.7590   76.5210  220.4620 C   0  0  0  0  0  0  0  0  0  0  0  0
  141.6570   77.2720  219.3060 C   0  0  0  0  0  0  0  0  0  0  0  0
  142.3190   76.9490  218.1380 C   0  0  0  0  0  0  0  0  0  0  0  0
  143.1310   75.8210  218.0970 C   0  0  0  0  0  0  0  0  0  0  0  0
  143.2530   75.0470  219.2390 C   0  0  0  0  0  0  0  0  0  0  0  0
  142.5820   75.3920  220.3920 C   0  0  0  0  0  0  0  0  0  0  0  0
  139.9460   71.5430  223.3470 C   0  0  0  0  0  0  0  0  0  0  0  0
  139.1470   70.4180  223.3110 C   0  0  0  0  0  0  0  0  0  0  0  0
  138.9310   69.6290  224.4290 C   0  0  0  0  0  0  0  0  0  0  0  0
  139.5560   70.0220  225.5970 C   0  0  0  0  0  0  0  0  0  0  0  0
  139.3390   69.2370  226.7110 C   0  0  0  0  0  0  0  0  0  0  0  0
  139.9580   69.6120  227.8940 C   0  0  0  0  0  0  0  0  0  0  0  0
  139.7770   68.8710  229.0190 F   0  0  0  0  0  0  0  0  0  0  0  0
  140.7670   70.7460  227.9390 C   0  0  0  0  0  0  0  0  0  0  0  0
  140.9780   71.5300  226.8080 C   0  0  0  0  0  0  0  0  0  0  0  0
  140.3570   71.1470  225.6360 C   0  0  0  0  0  0  0  0  0  0  0  0
  140.5400   71.8930  224.5050 N   0  0  0  0  0  0  0  0  0  0  0  0
  139.0640   74.0750  222.7540 H   0  0  0  0  0  0  0  0  0  0  0  0
  140.8906   74.3461  220.5085 H   0  0  0  0  0  0  0  0  0  0  0  0
  139.3370   73.6702  219.8953 H   0  0  0  0  0  0  0  0  0  0  0  0
  137.6361   76.8631  222.1391 H   0  0  0  0  0  0  0  0  0  0  0  0
  138.7898   76.6715  223.5469 H   0  0  0  0  0  0  0  0  0  0  0  0
  139.0146   79.0285  221.7422 H   0  0  0  0  0  0  0  0  0  0  0  0
  137.7220   78.9316  223.0477 H   0  0  0  0  0  0  0  0  0  0  0  0
  139.5595   80.1550  223.8837 H   0  0  0  0  0  0  0  0  0  0  0  0
  139.4802   78.5271  224.6789 H   0  0  0  0  0  0  0  0  0  0  0  0
  141.6901   79.7155  223.4772 H   0  0  0  0  0  0  0  0  0  0  0  0
  141.4624   77.9710  223.9822 H   0  0  0  0  0  0  0  0  0  0  0  0
  140.5255   78.8873  221.3238 H   0  0  0  0  0  0  0  0  0  0  0  0
  142.3011   78.5517  221.6579 H   0  0  0  0  0  0  0  0  0  0  0  0
  141.4530   76.2659  222.5472 H   0  0  0  0  0  0  0  0  0  0  0  0
  141.0192   78.1681  219.3170 H   0  0  0  0  0  0  0  0  0  0  0  0
  142.2046   77.5807  217.2448 H   0  0  0  0  0  0  0  0  0  0  0  0
  143.6661   75.5486  217.1753 H   0  0  0  0  0  0  0  0  0  0  0  0
  143.8901   74.1504  219.2255 H   0  0  0  0  0  0  0  0  0  0  0  0
  142.6971   74.7601  221.2850 H   0  0  0  0  0  0  0  0  0  0  0  0
  138.6654   70.1385  222.3623 H   0  0  0  0  0  0  0  0  0  0  0  0
  138.2933   68.7336  224.3889 H   0  0  0  0  0  0  0  0  0  0  0  0
  138.6974   68.3448  226.6623 H   0  0  0  0  0  0  0  0  0  0  0  0
  141.2485   71.0272  228.8872 H   0  0  0  0  0  0  0  0  0  0  0  0
  141.6177   72.4240  226.8469 H   0  0  0  0  0  0  0  0  0  0  0  0
  1  2  2  0
  2  3  1  0
  3  4  1  0
  4  5  1  0
  5  6  2  0
  5  7  1  0
  7  8  1  0
  8  9  1  0
  9 10  1  0
 10 11  1  0
 11 12  1  0
 12 13  1  0
 13 14  1  0
 14 15  2  0
 15 16  1  0
 16 17  2  0
 17 18  1  0
 18 19  2  0
  2 20  1  0
 20 21  2  0
 21 22  1  0
 22 23  2  0
 23 24  1  0
 24 25  2  0
 25 26  1  0
 25 27  1  0
 27 28  2  0
 28 29  1  0
 29 30  2  0
 13  7  1  0
 19 14  1  0
 30 20  1  0
 29 23  1  0
  3 31  1  0
  4 32  1  0
  4 33  1  0
  8 34  1  0
  8 35  1  0
  9 36  1  0
  9 37  1  0
 10 38  1  0
 10 39  1  0
 11 40  1  0
 11 41  1  0
 12 42  1  0
 12 43  1  0
 13 44  1  1
 15 45  1  0
 16 46  1  0
 17 47  1  0
 18 48  1  0
 19 49  1  0
 21 50  1  0
 22 51  1  0
 24 52  1  0
 27 53  1  0
 28 54  1  0
M  END
>  <smiles>  (22) 
O=C(NCC(=O)N1CCCCCC1c1ccccc1)c1ccc2cc(F)ccc2n1

>  <score_type>  (22) 
oracle

>  <origin>  (22) 
autodockgpu

>  <m_score__min__energy>  (22) 
-6.9000000000000004

>  <m_primary>  (22) 
energy

>  <rmsd>  (22) 
2.8967666857951344

>  <m_score__min__rmsd>  (22) 
2.8967666857951344

>  <meeko>  (22) 
{"free_energy": -5.42, "intermolecular_energy": -8.7, "internal_energy": -1.46, "cluster_size": 7, "cluster_id": 4, "rank_in_cluster": 7}

>  <energy>  (22) 
-5.3

>  <cluster_rmsd>  (22) 
1.35

>  <cluster>  (22) 
2

$$$$

     RDKit          3D

 54 57  0  0  0  0  0  0  0  0999 V2000
  140.2100   71.3960  221.2310 O   0  0  0  0  0  0  0  0  0  0  0  0
  139.9820   71.8970  222.3630 C   0  0  0  0  0  0  0  0  0  0  0  0
  139.7330   73.3040  222.3970 N   0  0  0  0  0  0  0  0  0  0  0  0
  139.7740   73.9860  221.1060 C   0  0  0  0  0  0  0  0  0  0  0  0
  140.1510   75.3910  221.2880 C   0  0  0  0  0  0  0  0  0  0  0  0
  140.1770   75.8740  222.4640 O   0  0  0  0  0  0  0  0  0  0  0  0
  140.4770   76.1740  220.1410 N   0  0  0  0  0  0  0  0  0  0  0  0
  141.2470   75.5500  219.0850 C   0  0  0  0  0  0  0  0  0  0  0  0
  142.6840   75.9840  219.0410 C   0  0  0  0  0  0  0  0  0  0  0  0
  142.9200   77.3350  218.4460 C   0  0  0  0  0  0  0  0  0  0  0  0
  142.1810   78.4100  219.1910 C   0  0  0  0  0  0  0  0  0  0  0  0
  140.6980   78.3420  219.0620 C   0  0  0  0  0  0  0  0  0  0  0  0
  140.0040   77.5430  220.1350 C   0  0  2  0  0  0  0  0  0  0  0  0
  140.2550   78.2500  221.4170 C   0  0  0  0  0  0  0  0  0  0  0  0
  139.2670   78.9180  222.1160 C   0  0  0  0  0  0  0  0  0  0  0  0
  139.5020   79.5750  223.3070 C   0  0  0  0  0  0  0  0  0  0  0  0
  140.7830   79.5790  223.8500 C   0  0  0  0  0  0  0  0  0  0  0  0
  141.7940   78.9190  223.1730 C   0  0  0  0  0  0  0  0  0  0  0  0
  141.5330   78.2700  221.9850 C   0  0  0  0  0  0  0  0  0  0  0  0
  139.9710   71.0960  223.5830 C   0  0  0  0  0  0  0  0  0  0  0  0
  139.3870   69.8460  223.5250 C   0  0  0  0  0  0  0  0  0  0  0  0
  139.3250   69.0080  224.6270 C   0  0  0  0  0  0  0  0  0  0  0  0
  139.8790   69.4830  225.8000 C   0  0  0  0  0  0  0  0  0  0  0  0
  139.8160   68.6480  226.8970 C   0  0  0  0  0  0  0  0  0  0  0  0
  140.3670   69.1040  228.0860 C   0  0  0  0  0  0  0  0  0  0  0  0
  140.3310   68.3200  229.1950 F   0  0  0  0  0  0  0  0  0  0  0  0
  140.9580   70.3650  228.1520 C   0  0  0  0  0  0  0  0  0  0  0  0
  141.0140   71.1970  227.0390 C   0  0  0  0  0  0  0  0  0  0  0  0
  140.4640   70.7340  225.8610 C   0  0  0  0  0  0  0  0  0  0  0  0
  140.5000   71.5230  224.7460 N   0  0  0  0  0  0  0  0  0  0  0  0
  139.5370   73.7920  223.2890 H   0  0  0  0  0  0  0  0  0  0  0  0
  140.5129   73.4925  220.4575 H   0  0  0  0  0  0  0  0  0  0  0  0
  138.7773   73.9386  220.6430 H   0  0  0  0  0  0  0  0  0  0  0  0
  141.2188   74.4604  219.2334 H   0  0  0  0  0  0  0  0  0  0  0  0
  140.7912   75.8588  218.1327 H   0  0  0  0  0  0  0  0  0  0  0  0
  143.0689   75.9934  220.0714 H   0  0  0  0  0  0  0  0  0  0  0  0
  143.2011   75.2664  218.3870 H   0  0  0  0  0  0  0  0  0  0  0  0
  143.9972   77.5552  218.4789 H   0  0  0  0  0  0  0  0  0  0  0  0
  142.5505   77.3214  217.4100 H   0  0  0  0  0  0  0  0  0  0  0  0
  142.4374   78.3276  220.2575 H   0  0  0  0  0  0  0  0  0  0  0  0
  142.4905   79.3679  218.7476 H   0  0  0  0  0  0  0  0  0  0  0  0
  140.3049   79.3689  219.0924 H   0  0  0  0  0  0  0  0  0  0  0  0
  140.4942   77.8258  218.1123 H   0  0  0  0  0  0  0  0  0  0  0  0
  138.9204   77.4739  219.9590 H   0  0  0  0  0  0  0  0  0  0  0  0
  138.2470   78.9264  221.7043 H   0  0  0  0  0  0  0  0  0  0  0  0
  138.6807   80.0927  223.8242 H   0  0  0  0  0  0  0  0  0  0  0  0
  140.9883   80.0965  224.7987 H   0  0  0  0  0  0  0  0  0  0  0  0
  142.8135   78.9123  223.5861 H   0  0  0  0  0  0  0  0  0  0  0  0
  142.3546   77.7523  221.4683 H   0  0  0  0  0  0  0  0  0  0  0  0
  138.9566   69.5040  222.5722 H   0  0  0  0  0  0  0  0  0  0  0  0
  138.8578   68.0138  224.5705 H   0  0  0  0  0  0  0  0  0  0  0  0
  139.3455   67.6559  226.8311 H   0  0  0  0  0  0  0  0  0  0  0  0
  141.3888   70.7089  229.1039 H   0  0  0  0  0  0  0  0  0  0  0  0
  141.4812   72.1912  227.0957 H   0  0  0  0  0  0  0  0  0  0  0  0
  1  2  2  0
  2  3  1  0
  3  4  1  0
  4  5  1  0
  5  6  2  0
  5  7  1  0
  7  8  1  0
  8  9  1  0
  9 10  1  0
 10 11  1  0
 11 12  1  0
 12 13  1  0
 13 14  1  0
 14 15  2  0
 15 16  1  0
 16 17  2  0
 17 18  1  0
 18 19  2  0
  2 20  1  0
 20 21  2  0
 21 22  1  0
 22 23  2  0
 23 24  1  0
 24 25  2  0
 25 26  1  0
 25 27  1  0
 27 28  2  0
 28 29  1  0
 29 30  2  0
 13  7  1  0
 19 14  1  0
 30 20  1  0
 29 23  1  0
  3 31  1  0
  4 32  1  0
  4 33  1  0
  8 34  1  0
  8 35  1  0
  9 36  1  0
  9 37  1  0
 10 38  1  0
 10 39  1  0
 11 40  1  0
 11 41  1  0
 12 42  1  0
 12 43  1  0
 13 44  1  6
 15 45  1  0
 16 46  1  0
 17 47  1  0
 18 48  1  0
 19 49  1  0
 21 50  1  0
 22 51  1  0
 24 52  1  0
 27 53  1  0
 28 54  1  0
M  END
>  <smiles>  (23) 
O=C(NCC(=O)N1CCCCCC1c1ccccc1)c1ccc2cc(F)ccc2n1

>  <score_type>  (23) 
oracle

>  <origin>  (23) 
autodockgpu

>  <m_score__min__energy>  (23) 
-6.9000000000000004

>  <m_primary>  (23) 
energy

>  <rmsd>  (23) 
1.612788795658227

>  <m_score__min__rmsd>  (23) 
1.612788795658227

>  <meeko>  (23) 
{"free_energy": -6.58, "intermolecular_energy": -9.86, "internal_energy": -1.48, "cluster_size": 12, "cluster_id": 2, "rank_in_cluster": 2}

>  <energy>  (23) 
-6.73

>  <cluster_rmsd>  (23) 
0.0

>  <cluster>  (23) 
3

$$$$

     RDKit          3D

 54 57  0  0  0  0  0  0  0  0999 V2000
  137.4020   75.2220  222.4410 O   0  0  0  0  0  0  0  0  0  0  0  0
  138.6180   75.5230  222.3200 C   0  0  0  0  0  0  0  0  0  0  0  0
  139.5150   74.4470  222.0340 N   0  0  0  0  0  0  0  0  0  0  0  0
  138.9020   73.1260  221.9160 C   0  0  0  0  0  0  0  0  0  0  0  0
  139.6990   72.1330  222.6420 C   0  0  0  0  0  0  0  0  0  0  0  0
  140.9450   72.0520  222.4060 O   0  0  0  0  0  0  0  0  0  0  0  0
  139.0520   71.2880  223.5920 N   0  0  0  0  0  0  0  0  0  0  0  0
  137.6320   71.4680  223.8110 C   0  0  0  0  0  0  0  0  0  0  0  0
  136.8670   70.1810  223.9360 C   0  0  0  0  0  0  0  0  0  0  0  0
  137.1440   69.1730  222.8670 C   0  0  0  0  0  0  0  0  0  0  0  0
  138.5360   68.6180  222.9720 C   0  0  0  0  0  0  0  0  0  0  0  0
  139.2360   68.9510  224.2400 C   0  0  0  0  0  0  0  0  0  0  0  0
  139.8850   70.3110  224.2630 C   0  0  2  0  0  0  0  0  0  0  0  0
  140.1300   70.6390  225.6910 C   0  0  0  0  0  0  0  0  0  0  0  0
  139.7020   69.8380  226.7320 C   0  0  0  0  0  0  0  0  0  0  0  0
  139.9310   70.1430  228.0590 C   0  0  0  0  0  0  0  0  0  0  0  0
  140.6200   71.3060  228.3890 C   0  0  0  0  0  0  0  0  0  0  0  0
  141.0610   72.1290  227.3670 C   0  0  0  0  0  0  0  0  0  0  0  0
  140.8200   71.8010  226.0500 C   0  0  0  0  0  0  0  0  0  0  0  0
  139.1000   76.8930  222.4640 C   0  0  0  0  0  0  0  0  0  0  0  0
  138.1850   77.9150  222.3080 C   0  0  0  0  0  0  0  0  0  0  0  0
  138.5410   79.2490  222.4250 C   0  0  0  0  0  0  0  0  0  0  0  0
  139.8680   79.5160  222.7060 C   0  0  0  0  0  0  0  0  0  0  0  0
  140.2220   80.8440  222.8210 C   0  0  0  0  0  0  0  0  0  0  0  0
  141.5480   81.1360  223.1030 C   0  0  0  0  0  0  0  0  0  0  0  0
  141.9480   82.4290  223.2270 F   0  0  0  0  0  0  0  0  0  0  0  0
  142.4780   80.1090  223.2620 C   0  0  0  0  0  0  0  0  0  0  0  0
  142.1080   78.7730  223.1430 C   0  0  0  0  0  0  0  0  0  0  0  0
  140.7860   78.4950  222.8620 C   0  0  0  0  0  0  0  0  0  0  0  0
  140.3850   77.1940  222.7370 N   0  0  0  0  0  0  0  0  0  0  0  0
  140.5300   74.6120  221.9200 H   0  0  0  0  0  0  0  0  0  0  0  0
  137.8869   73.1571  222.3388 H   0  0  0  0  0  0  0  0  0  0  0  0
  138.8571   72.8440  220.8537 H   0  0  0  0  0  0  0  0  0  0  0  0
  137.4949   72.0438  224.7382 H   0  0  0  0  0  0  0  0  0  0  0  0
  137.2364   71.9899  222.9272 H   0  0  0  0  0  0  0  0  0  0  0  0
  137.1191   69.7274  224.9059 H   0  0  0  0  0  0  0  0  0  0  0  0
  135.8037   70.4457  223.8398 H   0  0  0  0  0  0  0  0  0  0  0  0
  136.4233   68.3473  222.9606 H   0  0  0  0  0  0  0  0  0  0  0  0
  137.0474   69.6728  221.8919 H   0  0  0  0  0  0  0  0  0  0  0  0
  138.4768   67.5227  222.8892 H   0  0  0  0  0  0  0  0  0  0  0  0
  139.1194   69.0786  222.1612 H   0  0  0  0  0  0  0  0  0  0  0  0
  138.5019   68.9078  225.0581 H   0  0  0  0  0  0  0  0  0  0  0  0
  140.0484   68.2173  224.3482 H   0  0  0  0  0  0  0  0  0  0  0  0
  140.8388   70.3192  223.7152 H   0  0  0  0  0  0  0  0  0  0  0  0
  139.1536   68.9149  226.4927 H   0  0  0  0  0  0  0  0  0  0  0  0
  139.5707   69.4702  228.8511 H   0  0  0  0  0  0  0  0  0  0  0  0
  140.8104   71.5662  229.4407 H   0  0  0  0  0  0  0  0  0  0  0  0
  141.6083   73.0523  227.6078 H   0  0  0  0  0  0  0  0  0  0  0  0
  141.1812   72.4734  225.2579 H   0  0  0  0  0  0  0  0  0  0  0  0
  137.1384   77.6618  222.0833 H   0  0  0  0  0  0  0  0  0  0  0  0
  137.8039   80.0560  222.3004 H   0  0  0  0  0  0  0  0  0  0  0  0
  139.4780   81.6441  222.6934 H   0  0  0  0  0  0  0  0  0  0  0  0
  143.5252   80.3602  223.4860 H   0  0  0  0  0  0  0  0  0  0  0  0
  142.8445   77.9657  223.2687 H   0  0  0  0  0  0  0  0  0  0  0  0
  1  2  2  0
  2  3  1  0
  3  4  1  0
  4  5  1  0
  5  6  2  0
  5  7  1  0
  7  8  1  0
  8  9  1  0
  9 10  1  0
 10 11  1  0
 11 12  1  0
 12 13  1  0
 13 14  1  0
 14 15  2  0
 15 16  1  0
 16 17  2  0
 17 18  1  0
 18 19  2  0
  2 20  1  0
 20 21  2  0
 21 22  1  0
 22 23  2  0
 23 24  1  0
 24 25  2  0
 25 26  1  0
 25 27  1  0
 27 28  2  0
 28 29  1  0
 29 30  2  0
 13  7  1  0
 19 14  1  0
 30 20  1  0
 29 23  1  0
  3 31  1  0
  4 32  1  0
  4 33  1  0
  8 34  1  0
  8 35  1  0
  9 36  1  0
  9 37  1  0
 10 38  1  0
 10 39  1  0
 11 40  1  0
 11 41  1  0
 12 42  1  0
 12 43  1  0
 13 44  1  6
 15 45  1  0
 16 46  1  0
 17 47  1  0
 18 48  1  0
 19 49  1  0
 21 50  1  0
 22 51  1  0
 24 52  1  0
 27 53  1  0
 28 54  1  0
M  END
>  <smiles>  (24) 
O=C(NCC(=O)N1CCCCCC1c1ccccc1)c1ccc2cc(F)ccc2n1

>  <score_type>  (24) 
oracle

>  <origin>  (24) 
autodockgpu

>  <m_score__min__energy>  (24) 
-6.9000000000000004

>  <m_primary>  (24) 
energy

>  <rmsd>  (24) 
8.723444411413206

>  <m_score__min__rmsd>  (24) 
8.723444411413206

>  <meeko>  (24) 
{"free_energy": -6.18, "intermolecular_energy": -9.46, "internal_energy": -1.89, "cluster_size": 10, "cluster_id": 1, "rank_in_cluster": 5}

>  <energy>  (24) 
-6.23

>  <cluster_rmsd>  (24) 
1.45

>  <cluster>  (24) 
3

$$$$

     RDKit          3D

 54 57  0  0  0  0  0  0  0  0999 V2000
  138.1900   74.7540  222.2450 O   0  0  0  0  0  0  0  0  0  0  0  0
  138.9590   75.6680  221.8480 C   0  0  0  0  0  0  0  0  0  0  0  0
  138.4750   77.0070  221.9740 N   0  0  0  0  0  0  0  0  0  0  0  0
  137.1400   77.1460  222.5540 C   0  0  0  0  0  0  0  0  0  0  0  0
  136.7070   78.5450  222.4960 C   0  0  0  0  0  0  0  0  0  0  0  0
  135.4630   78.8050  222.5120 O   0  0  0  0  0  0  0  0  0  0  0  0
  137.6940   79.5720  222.4250 N   0  0  0  0  0  0  0  0  0  0  0  0
  137.9030   80.2320  221.1540 C   0  0  0  0  0  0  0  0  0  0  0  0
  138.4600   81.6220  221.2740 C   0  0  0  0  0  0  0  0  0  0  0  0
  137.6020   82.5860  222.0290 C   0  0  0  0  0  0  0  0  0  0  0  0
  137.0960   81.9940  223.3130 C   0  0  0  0  0  0  0  0  0  0  0  0
  138.1270   81.2740  224.1080 C   0  0  0  0  0  0  0  0  0  0  0  0
  138.4110   79.8660  223.6490 C   0  0  2  0  0  0  0  0  0  0  0  0
  139.8850   79.7610  223.5000 C   0  0  0  0  0  0  0  0  0  0  0  0
  140.5440   78.5550  223.3550 C   0  0  0  0  0  0  0  0  0  0  0  0
  141.9150   78.4590  223.2160 C   0  0  0  0  0  0  0  0  0  0  0  0
  142.6900   79.6140  223.2200 C   0  0  0  0  0  0  0  0  0  0  0  0
  142.0580   80.8380  223.3640 C   0  0  0  0  0  0  0  0  0  0  0  0
  140.6880   80.9060  223.5000 C   0  0  0  0  0  0  0  0  0  0  0  0
  140.2760   75.3900  221.2850 C   0  0  0  0  0  0  0  0  0  0  0  0
  140.9480   76.4310  220.6750 C   0  0  0  0  0  0  0  0  0  0  0  0
  142.2030   76.2700  220.1110 C   0  0  0  0  0  0  0  0  0  0  0  0
  142.7600   75.0080  220.1850 C   0  0  0  0  0  0  0  0  0  0  0  0
  144.0100   74.8490  219.6220 C   0  0  0  0  0  0  0  0  0  0  0  0
  144.5900   73.5900  219.6840 C   0  0  0  0  0  0  0  0  0  0  0  0
  145.8190   73.3820  219.1450 F   0  0  0  0  0  0  0  0  0  0  0  0
  143.9180   72.5340  220.2980 C   0  0  0  0  0  0  0  0  0  0  0  0
  142.6580   72.7080  220.8620 C   0  0  0  0  0  0  0  0  0  0  0  0
  142.0910   73.9640  220.7940 C   0  0  0  0  0  0  0  0  0  0  0  0
  140.8540   74.1730  221.3360 N   0  0  0  0  0  0  0  0  0  0  0  0
  139.0460   77.8150  221.6710 H   0  0  0  0  0  0  0  0  0  0  0  0
  136.4315   76.5225  221.9890 H   0  0  0  0  0  0  0  0  0  0  0  0
  137.1693   76.8223  223.6049 H   0  0  0  0  0  0  0  0  0  0  0  0
  138.6053   79.6275  220.5612 H   0  0  0  0  0  0  0  0  0  0  0  0
  136.9166   80.3236  220.6759 H   0  0  0  0  0  0  0  0  0  0  0  0
  139.4313   81.5569  221.7861 H   0  0  0  0  0  0  0  0  0  0  0  0
  138.5310   82.0132  220.2484 H   0  0  0  0  0  0  0  0  0  0  0  0
  138.1936   83.4842  222.2597 H   0  0  0  0  0  0  0  0  0  0  0  0
  136.7336   82.8353  221.4015 H   0  0  0  0  0  0  0  0  0  0  0  0
  136.6921   82.8090  223.9316 H   0  0  0  0  0  0  0  0  0  0  0  0
  136.3366   81.2479  223.0361 H   0  0  0  0  0  0  0  0  0  0  0  0
  139.0640   81.8475  224.0524 H   0  0  0  0  0  0  0  0  0  0  0  0
  137.7281   81.1918  225.1298 H   0  0  0  0  0  0  0  0  0  0  0  0
  138.0606   79.1179  224.3753 H   0  0  0  0  0  0  0  0  0  0  0  0
  139.9498   77.6293  223.3500 H   0  0  0  0  0  0  0  0  0  0  0  0
  142.3915   77.4740  223.1027 H   0  0  0  0  0  0  0  0  0  0  0  0
  143.7831   79.5565  223.1110 H   0  0  0  0  0  0  0  0  0  0  0  0
  142.6538   81.7627  223.3699 H   0  0  0  0  0  0  0  0  0  0  0  0
  140.2117   81.8912  223.6120 H   0  0  0  0  0  0  0  0  0  0  0  0
  140.4707   77.4213  220.6357 H   0  0  0  0  0  0  0  0  0  0  0  0
  142.7301   77.1060  219.6280 H   0  0  0  0  0  0  0  0  0  0  0  0
  144.5286   75.6913  219.1407 H   0  0  0  0  0  0  0  0  0  0  0  0
  144.3937   71.5429  220.3374 H   0  0  0  0  0  0  0  0  0  0  0  0
  142.1315   71.8721  221.3459 H   0  0  0  0  0  0  0  0  0  0  0  0
  1  2  2  0
  2  3  1  0
  3  4  1  0
  4  5  1  0
  5  6  2  0
  5  7  1  0
  7  8  1  0
  8  9  1  0
  9 10  1  0
 10 11  1  0
 11 12  1  0
 12 13  1  0
 13 14  1  0
 14 15  2  0
 15 16  1  0
 16 17  2  0
 17 18  1  0
 18 19  2  0
  2 20  1  0
 20 21  2  0
 21 22  1  0
 22 23  2  0
 23 24  1  0
 24 25  2  0
 25 26  1  0
 25 27  1  0
 27 28  2  0
 28 29  1  0
 29 30  2  0
 13  7  1  0
 19 14  1  0
 30 20  1  0
 29 23  1  0
  3 31  1  0
  4 32  1  0
  4 33  1  0
  8 34  1  0
  8 35  1  0
  9 36  1  0
  9 37  1  0
 10 38  1  0
 10 39  1  0
 11 40  1  0
 11 41  1  0
 12 42  1  0
 12 43  1  0
 13 44  1  1
 15 45  1  0
 16 46  1  0
 17 47  1  0
 18 48  1  0
 19 49  1  0
 21 50  1  0
 22 51  1  0
 24 52  1  0
 27 53  1  0
 28 54  1  0
M  END
>  <smiles>  (25) 
O=C(NCC(=O)N1CCCCCC1c1ccccc1)c1ccc2cc(F)ccc2n1

>  <score_type>  (25) 
oracle

>  <origin>  (25) 
autodockgpu

>  <m_score__min__energy>  (25) 
-6.9000000000000004

>  <m_primary>  (25) 
energy

>  <rmsd>  (25) 
7.3156198673058395

>  <m_score__min__rmsd>  (25) 
7.3156198673058395

>  <meeko>  (25) 
{"free_energy": -4.56, "intermolecular_energy": -7.84, "internal_energy": -2.14, "cluster_size": 1, "cluster_id": 9, "rank_in_cluster": 1}

>  <energy>  (25) 
-6.19

>  <cluster_rmsd>  (25) 
1.45

>  <cluster>  (25) 
3

$$$$

     RDKit          3D

 54 57  0  0  0  0  0  0  0  0999 V2000
  139.9230   73.6390  222.6630 O   0  0  0  0  0  0  0  0  0  0  0  0
  140.2010   72.4150  222.5680 C   0  0  0  0  0  0  0  0  0  0  0  0
  140.5550   71.9420  221.2670 N   0  0  0  0  0  0  0  0  0  0  0  0
  140.5520   72.9460  220.2050 C   0  0  0  0  0  0  0  0  0  0  0  0
  141.6850   72.7290  219.3010 C   0  0  0  0  0  0  0  0  0  0  0  0
  142.3670   71.6620  219.4150 O   0  0  0  0  0  0  0  0  0  0  0  0
  141.9880   73.7210  218.3220 N   0  0  0  0  0  0  0  0  0  0  0  0
  141.1970   73.7470  217.1090 C   0  0  0  0  0  0  0  0  0  0  0  0
  141.8680   73.1020  215.9300 C   0  0  0  0  0  0  0  0  0  0  0  0
  142.9960   73.8850  215.3370 C   0  0  0  0  0  0  0  0  0  0  0  0
  144.0630   74.1820  216.3510 C   0  0  0  0  0  0  0  0  0  0  0  0
  143.6720   75.1940  217.3690 C   0  0  0  0  0  0  0  0  0  0  0  0
  143.0760   74.6250  218.6310 C   0  0  2  0  0  0  0  0  0  0  0  0
  144.1880   73.9680  219.3640 C   0  0  0  0  0  0  0  0  0  0  0  0
  144.6930   74.4490  220.5570 C   0  0  0  0  0  0  0  0  0  0  0  0
  145.7270   73.8370  221.2380 C   0  0  0  0  0  0  0  0  0  0  0  0
  146.3040   72.6820  220.7190 C   0  0  0  0  0  0  0  0  0  0  0  0
  145.8200   72.1760  219.5240 C   0  0  0  0  0  0  0  0  0  0  0  0
  144.7860   72.8070  218.8650 C   0  0  0  0  0  0  0  0  0  0  0  0
  140.1650   71.5160  223.7170 C   0  0  0  0  0  0  0  0  0  0  0  0
  139.6230   70.2590  223.5330 C   0  0  0  0  0  0  0  0  0  0  0  0
  139.5430   69.3320  224.5590 C   0  0  0  0  0  0  0  0  0  0  0  0
  140.0340   69.7230  225.7900 C   0  0  0  0  0  0  0  0  0  0  0  0
  139.9530   68.7990  226.8120 C   0  0  0  0  0  0  0  0  0  0  0  0
  140.4410   69.1700  228.0560 C   0  0  0  0  0  0  0  0  0  0  0  0
  140.3850   68.2960  229.0950 F   0  0  0  0  0  0  0  0  0  0  0  0
  140.9900   70.4370  228.2500 C   0  0  0  0  0  0  0  0  0  0  0  0
  141.0660   71.3590  227.2110 C   0  0  0  0  0  0  0  0  0  0  0  0
  140.5780   70.9800  225.9770 C   0  0  0  0  0  0  0  0  0  0  0  0
  140.6340   71.8590  224.9320 N   0  0  0  0  0  0  0  0  0  0  0  0
  140.7970   70.9480  221.1050 H   0  0  0  0  0  0  0  0  0  0  0  0
  139.6135   72.8706  219.6362 H   0  0  0  0  0  0  0  0  0  0  0  0
  140.6384   73.9457  220.6556 H   0  0  0  0  0  0  0  0  0  0  0  0
  140.2514   73.2188  217.3009 H   0  0  0  0  0  0  0  0  0  0  0  0
  141.0450   74.8052  216.8499 H   0  0  0  0  0  0  0  0  0  0  0  0
  142.2623   72.1273  216.2531 H   0  0  0  0  0  0  0  0  0  0  0  0
  141.1015   73.0251  215.1447 H   0  0  0  0  0  0  0  0  0  0  0  0
  143.4386   73.3043  214.5143 H   0  0  0  0  0  0  0  0  0  0  0  0
  142.5937   74.8423  214.9739 H   0  0  0  0  0  0  0  0  0  0  0  0
  144.3130   73.2465  216.8728 H   0  0  0  0  0  0  0  0  0  0  0  0
  144.9160   74.6027  215.7984 H   0  0  0  0  0  0  0  0  0  0  0  0
  144.5696   75.7678  217.6432 H   0  0  0  0  0  0  0  0  0  0  0  0
  142.8867   75.8101  216.9067 H   0  0  0  0  0  0  0  0  0  0  0  0
  142.6303   75.4071  219.2632 H   0  0  0  0  0  0  0  0  0  0  0  0
  144.2510   75.3614  220.9839 H   0  0  0  0  0  0  0  0  0  0  0  0
  146.0924   74.2602  222.1853 H   0  0  0  0  0  0  0  0  0  0  0  0
  147.1283   72.1807  221.2474 H   0  0  0  0  0  0  0  0  0  0  0  0
  146.2636   71.2642  219.0975 H   0  0  0  0  0  0  0  0  0  0  0  0
  144.4205   72.3839  217.9177 H   0  0  0  0  0  0  0  0  0  0  0  0
  139.2421   69.9849  222.5381 H   0  0  0  0  0  0  0  0  0  0  0  0
  139.1097   68.3333  224.4016 H   0  0  0  0  0  0  0  0  0  0  0  0
  139.5166   67.8031  226.6456 H   0  0  0  0  0  0  0  0  0  0  0  0
  141.3706   70.7130  229.2445 H   0  0  0  0  0  0  0  0  0  0  0  0
  141.5007   72.3572  227.3679 H   0  0  0  0  0  0  0  0  0  0  0  0
  1  2  2  0
  2  3  1  0
  3  4  1  0
  4  5  1  0
  5  6  2  0
  5  7  1  0
  7  8  1  0
  8  9  1  0
  9 10  1  0
 10 11  1  0
 11 12  1  0
 12 13  1  0
 13 14  1  0
 14 15  2  0
 15 16  1  0
 16 17  2  0
 17 18  1  0
 18 19  2  0
  2 20  1  0
 20 21  2  0
 21 22  1  0
 22 23  2  0
 23 24  1  0
 24 25  2  0
 25 26  1  0
 25 27  1  0
 27 28  2  0
 28 29  1  0
 29 30  2  0
 13  7  1  0
 19 14  1  0
 30 20  1  0
 29 23  1  0
  3 31  1  0
  4 32  1  0
  4 33  1  0
  8 34  1  0
  8 35  1  0
  9 36  1  0
  9 37  1  0
 10 38  1  0
 10 39  1  0
 11 40  1  0
 11 41  1  0
 12 42  1  0
 12 43  1  0
 13 44  1  1
 15 45  1  0
 16 46  1  0
 17 47  1  0
 18 48  1  0
 19 49  1  0
 21 50  1  0
 22 51  1  0
 24 52  1  0
 27 53  1  0
 28 54  1  0
M  END
>  <smiles>  (26) 
O=C(NCC(=O)N1CCCCCC1c1ccccc1)c1ccc2cc(F)ccc2n1

>  <score_type>  (26) 
oracle

>  <origin>  (26) 
autodockgpu

>  <m_score__min__energy>  (26) 
-6.9000000000000004

>  <m_primary>  (26) 
energy

>  <rmsd>  (26) 
2.5822544897541033

>  <m_score__min__rmsd>  (26) 
2.5822544897541033

>  <meeko>  (26) 
{"free_energy": -5.15, "intermolecular_energy": -8.43, "internal_energy": -1.64, "cluster_size": 7, "cluster_id": 6, "rank_in_cluster": 6}

>  <energy>  (26) 
-5.99

>  <cluster_rmsd>  (26) 
1.11

>  <cluster>  (26) 
3

$$$$

     RDKit          3D

 54 57  0  0  0  0  0  0  0  0999 V2000
  139.3690   73.6260  222.3770 O   0  0  0  0  0  0  0  0  0  0  0  0
  140.0900   72.5950  222.3630 C   0  0  0  0  0  0  0  0  0  0  0  0
  140.9270   72.4190  221.2180 N   0  0  0  0  0  0  0  0  0  0  0  0
  140.8390   73.4660  220.2020 C   0  0  0  0  0  0  0  0  0  0  0  0
  141.3260   74.7380  220.7440 C   0  0  0  0  0  0  0  0  0  0  0  0
  142.5160   74.8030  221.1860 O   0  0  0  0  0  0  0  0  0  0  0  0
  140.4500   75.8630  220.7580 N   0  0  0  0  0  0  0  0  0  0  0  0
  139.8540   76.2810  219.5080 C   0  0  0  0  0  0  0  0  0  0  0  0
  138.3740   76.5270  219.5900 C   0  0  0  0  0  0  0  0  0  0  0  0
  137.6150   75.5500  220.4290 C   0  0  0  0  0  0  0  0  0  0  0  0
  137.8110   75.8050  221.8960 C   0  0  0  0  0  0  0  0  0  0  0  0
  138.7860   76.8830  222.2100 C   0  0  0  0  0  0  0  0  0  0  0  0
  140.2340   76.4980  222.0430 C   0  0  2  0  0  0  0  0  0  0  0  0
  141.0240   77.7440  222.2160 C   0  0  0  0  0  0  0  0  0  0  0  0
  141.3940   78.5550  221.1610 C   0  0  0  0  0  0  0  0  0  0  0  0
  142.1280   79.7130  221.3240 C   0  0  0  0  0  0  0  0  0  0  0  0
  142.5270   80.1010  222.5990 C   0  0  0  0  0  0  0  0  0  0  0  0
  142.1720   79.3080  223.6770 C   0  0  0  0  0  0  0  0  0  0  0  0
  141.4380   78.1570  223.4860 C   0  0  0  0  0  0  0  0  0  0  0  0
  140.0810   71.6230  223.4510 C   0  0  0  0  0  0  0  0  0  0  0  0
  139.5630   70.3700  223.1890 C   0  0  0  0  0  0  0  0  0  0  0  0
  139.5090   69.3760  224.1530 C   0  0  0  0  0  0  0  0  0  0  0  0
  140.0020   69.6970  225.4040 C   0  0  0  0  0  0  0  0  0  0  0  0
  139.9470   68.7080  226.3640 C   0  0  0  0  0  0  0  0  0  0  0  0
  140.4370   69.0070  227.6270 C   0  0  0  0  0  0  0  0  0  0  0  0
  140.4060   68.0670  228.6070 F   0  0  0  0  0  0  0  0  0  0  0  0
  140.9610   70.2700  227.8990 C   0  0  0  0  0  0  0  0  0  0  0  0
  141.0100   71.2590  226.9220 C   0  0  0  0  0  0  0  0  0  0  0  0
  140.5210   70.9500  225.6690 C   0  0  0  0  0  0  0  0  0  0  0  0
  140.5520   71.8970  224.6830 N   0  0  0  0  0  0  0  0  0  0  0  0
  141.5490   71.5970  221.1310 H   0  0  0  0  0  0  0  0  0  0  0  0
  141.4518   73.1824  219.3336 H   0  0  0  0  0  0  0  0  0  0  0  0
  139.7886   73.5838  219.8973 H   0  0  0  0  0  0  0  0  0  0  0  0
  140.3424   77.2126  219.1861 H   0  0  0  0  0  0  0  0  0  0  0  0
  140.0012   75.4576  218.7936 H   0  0  0  0  0  0  0  0  0  0  0  0
  138.2181   77.5312  220.0110 H   0  0  0  0  0  0  0  0  0  0  0  0
  137.9876   76.4169  218.5660 H   0  0  0  0  0  0  0  0  0  0  0  0
  136.5440   75.6343  220.1928 H   0  0  0  0  0  0  0  0  0  0  0  0
  137.9910   74.5411  220.2039 H   0  0  0  0  0  0  0  0  0  0  0  0
  136.8391   76.0841  222.3290 H   0  0  0  0  0  0  0  0  0  0  0  0
  138.2218   74.8779  222.3224 H   0  0  0  0  0  0  0  0  0  0  0  0
  138.5799   77.7344  221.5447 H   0  0  0  0  0  0  0  0  0  0  0  0
  138.6509   77.1202  223.2756 H   0  0  0  0  0  0  0  0  0  0  0  0
  140.5507   75.7549  222.7897 H   0  0  0  0  0  0  0  0  0  0  0  0
  141.0900   78.2650  220.1444 H   0  0  0  0  0  0  0  0  0  0  0  0
  142.3959   80.3255  220.4504 H   0  0  0  0  0  0  0  0  0  0  0  0
  143.1131   81.0199  222.7478 H   0  0  0  0  0  0  0  0  0  0  0  0
  142.4778   79.5985  224.6929 H   0  0  0  0  0  0  0  0  0  0  0  0
  141.1698   77.5446  224.3595 H   0  0  0  0  0  0  0  0  0  0  0  0
  139.1802   70.1536  222.1807 H   0  0  0  0  0  0  0  0  0  0  0  0
  139.0945   68.3810  223.9337 H   0  0  0  0  0  0  0  0  0  0  0  0
  139.5290   67.7164  226.1360 H   0  0  0  0  0  0  0  0  0  0  0  0
  141.3435   70.4889  228.9068 H   0  0  0  0  0  0  0  0  0  0  0  0
  141.4246   72.2541  227.1408 H   0  0  0  0  0  0  0  0  0  0  0  0
  1  2  2  0
  2  3  1  0
  3  4  1  0
  4  5  1  0
  5  6  2  0
  5  7  1  0
  7  8  1  0
  8  9  1  0
  9 10  1  0
 10 11  1  0
 11 12  1  0
 12 13  1  0
 13 14  1  0
 14 15  2  0
 15 16  1  0
 16 17  2  0
 17 18  1  0
 18 19  2  0
  2 20  1  0
 20 21  2  0
 21 22  1  0
 22 23  2  0
 23 24  1  0
 24 25  2  0
 25 26  1  0
 25 27  1  0
 27 28  2  0
 28 29  1  0
 29 30  2  0
 13  7  1  0
 19 14  1  0
 30 20  1  0
 29 23  1  0
  3 31  1  0
  4 32  1  0
  4 33  1  0
  8 34  1  0
  8 35  1  0
  9 36  1  0
  9 37  1  0
 10 38  1  0
 10 39  1  0
 11 40  1  0
 11 41  1  0
 12 42  1  0
 12 43  1  0
 13 44  1  1
 15 45  1  0
 16 46  1  0
 17 47  1  0
 18 48  1  0
 19 49  1  0
 21 50  1  0
 22 51  1  0
 24 52  1  0
 27 53  1  0
 28 54  1  0
M  END
>  <smiles>  (27) 
O=C(NCC(=O)N1CCCCCC1c1ccccc1)c1ccc2cc(F)ccc2n1

>  <score_type>  (27) 
oracle

>  <origin>  (27) 
autodockgpu

>  <m_score__min__energy>  (27) 
-6.9000000000000004

>  <m_primary>  (27) 
energy

>  <rmsd>  (27) 
2.469279976015417

>  <m_score__min__rmsd>  (27) 
2.469279976015417

>  <meeko>  (27) 
{"free_energy": -6.19, "intermolecular_energy": -9.47, "internal_energy": -1.72, "cluster_size": 6, "cluster_id": 3, "rank_in_cluster": 3}

>  <energy>  (27) 
-5.9

>  <cluster_rmsd>  (27) 
1.41

>  <cluster>  (27) 
3

$$$$

     RDKit          3D

 54 57  0  0  0  0  0  0  0  0999 V2000
  139.1310   75.6630  220.2350 O   0  0  0  0  0  0  0  0  0  0  0  0
  139.9070   75.3300  221.1680 C   0  0  0  0  0  0  0  0  0  0  0  0
  139.6020   75.8480  222.4650 N   0  0  0  0  0  0  0  0  0  0  0  0
  138.4190   76.7020  222.5440 C   0  0  0  0  0  0  0  0  0  0  0  0
  138.7580   78.0720  222.1460 C   0  0  0  0  0  0  0  0  0  0  0  0
  138.0440   78.6510  221.2670 O   0  0  0  0  0  0  0  0  0  0  0  0
  139.8760   78.7130  222.7570 N   0  0  0  0  0  0  0  0  0  0  0  0
  139.6190   79.7550  223.7280 C   0  0  0  0  0  0  0  0  0  0  0  0
  140.1350   81.1070  223.3230 C   0  0  0  0  0  0  0  0  0  0  0  0
  141.5890   81.3340  223.5840 C   0  0  0  0  0  0  0  0  0  0  0  0
  142.4520   80.3910  222.7950 C   0  0  0  0  0  0  0  0  0  0  0  0
  142.2660   78.9530  223.1350 C   0  0  0  0  0  0  0  0  0  0  0  0
  141.1880   78.2590  222.3430 C   0  0  2  0  0  0  0  0  0  0  0  0
  141.4730   78.5330  220.9110 C   0  0  0  0  0  0  0  0  0  0  0  0
  140.9680   79.6290  220.2380 C   0  0  0  0  0  0  0  0  0  0  0  0
  141.2350   79.8820  218.9070 C   0  0  0  0  0  0  0  0  0  0  0  0
  142.0450   79.0090  218.1890 C   0  0  0  0  0  0  0  0  0  0  0  0
  142.5660   77.9010  218.8360 C   0  0  0  0  0  0  0  0  0  0  0  0
  142.2840   77.6710  220.1660 C   0  0  0  0  0  0  0  0  0  0  0  0
  141.0610   74.4630  220.9500 C   0  0  0  0  0  0  0  0  0  0  0  0
  140.8370   73.1030  220.8720 C   0  0  0  0  0  0  0  0  0  0  0  0
  141.8640   72.1960  220.6680 C   0  0  0  0  0  0  0  0  0  0  0  0
  143.1380   72.7170  220.5440 C   0  0  0  0  0  0  0  0  0  0  0  0
  144.1600   71.8130  220.3420 C   0  0  0  0  0  0  0  0  0  0  0  0
  145.4480   72.3140  220.2140 C   0  0  0  0  0  0  0  0  0  0  0  0
  146.4890   71.4650  220.0130 F   0  0  0  0  0  0  0  0  0  0  0  0
  145.6820   73.6860  220.2920 C   0  0  0  0  0  0  0  0  0  0  0  0
  144.6410   74.5870  220.4970 C   0  0  0  0  0  0  0  0  0  0  0  0
  143.3650   74.0780  220.6220 C   0  0  0  0  0  0  0  0  0  0  0  0
  142.3170   74.9320  220.8250 N   0  0  0  0  0  0  0  0  0  0  0  0
  140.1920   75.6210  223.2840 H   0  0  0  0  0  0  0  0  0  0  0  0
  137.6418   76.3098  221.8717 H   0  0  0  0  0  0  0  0  0  0  0  0
  138.0494   76.7095  223.5800 H   0  0  0  0  0  0  0  0  0  0  0  0
  138.5316   79.8296  223.8760 H   0  0  0  0  0  0  0  0  0  0  0  0
  140.1526   79.4725  224.6475 H   0  0  0  0  0  0  0  0  0  0  0  0
  139.9590   81.2299  222.2441 H   0  0  0  0  0  0  0  0  0  0  0  0
  139.5945   81.8393  223.9408 H   0  0  0  0  0  0  0  0  0  0  0  0
  141.8436   82.3672  223.3053 H   0  0  0  0  0  0  0  0  0  0  0  0
  141.7762   81.1550  224.6531 H   0  0  0  0  0  0  0  0  0  0  0  0
  142.2205   80.5245  221.7280 H   0  0  0  0  0  0  0  0  0  0  0  0
  143.4946   80.6390  223.0431 H   0  0  0  0  0  0  0  0  0  0  0  0
  143.2168   78.4308  222.9525 H   0  0  0  0  0  0  0  0  0  0  0  0
  141.9522   78.9183  224.1887 H   0  0  0  0  0  0  0  0  0  0  0  0
  141.1862   77.1727  222.5160 H   0  0  0  0  0  0  0  0  0  0  0  0
  140.3242   80.3317  220.7873 H   0  0  0  0  0  0  0  0  0  0  0  0
  140.8090   80.7699  218.4170 H   0  0  0  0  0  0  0  0  0  0  0  0
  142.2675   79.1949  217.1279 H   0  0  0  0  0  0  0  0  0  0  0  0
  143.2094   77.1993  218.2850 H   0  0  0  0  0  0  0  0  0  0  0  0
  142.7097   76.7828  220.6557 H   0  0  0  0  0  0  0  0  0  0  0  0
  139.8085   72.7269  220.9753 H   0  0  0  0  0  0  0  0  0  0  0  0
  141.6747   71.1141  220.6077 H   0  0  0  0  0  0  0  0  0  0  0  0
  143.9612   70.7327  220.2843 H   0  0  0  0  0  0  0  0  0  0  0  0
  146.7099   74.0642  220.1895 H   0  0  0  0  0  0  0  0  0  0  0  0
  144.8296   75.6690  220.5573 H   0  0  0  0  0  0  0  0  0  0  0  0
  1  2  2  0
  2  3  1  0
  3  4  1  0
  4  5  1  0
  5  6  2  0
  5  7  1  0
  7  8  1  0
  8  9  1  0
  9 10  1  0
 10 11  1  0
 11 12  1  0
 12 13  1  0
 13 14  1  0
 14 15  2  0
 15 16  1  0
 16 17  2  0
 17 18  1  0
 18 19  2  0
  2 20  1  0
 20 21  2  0
 21 22  1  0
 22 23  2  0
 23 24  1  0
 24 25  2  0
 25 26  1  0
 25 27  1  0
 27 28  2  0
 28 29  1  0
 29 30  2  0
 13  7  1  0
 19 14  1  0
 30 20  1  0
 29 23  1  0
  3 31  1  0
  4 32  1  0
  4 33  1  0
  8 34  1  0
  8 35  1  0
  9 36  1  0
  9 37  1  0
 10 38  1  0
 10 39  1  0
 11 40  1  0
 11 41  1  0
 12 42  1  0
 12 43  1  0
 13 44  1  6
 15 45  1  0
 16 46  1  0
 17 47  1  0
 18 48  1  0
 19 49  1  0
 21 50  1  0
 22 51  1  0
 24 52  1  0
 27 53  1  0
 28 54  1  0
M  END
>  <smiles>  (28) 
O=C(NCC(=O)N1CCCCCC1c1ccccc1)c1ccc2cc(F)ccc2n1

>  <score_type>  (28) 
oracle

>  <origin>  (28) 
autodockgpu

>  <m_score__min__energy>  (28) 
-6.9000000000000004

>  <m_primary>  (28) 
energy

>  <rmsd>  (28) 
6.450631856992726

>  <m_score__min__rmsd>  (28) 
6.450631856992726

>  <meeko>  (28) 
{"free_energy": -4.4, "intermolecular_energy": -7.68, "internal_energy": -2.34, "cluster_size": 1, "cluster_id": 11, "rank_in_cluster": 1}

>  <energy>  (28) 
-5.87

>  <cluster_rmsd>  (28) 
1.11

>  <cluster>  (28) 
3

$$$$

     RDKit          3D

 54 57  0  0  0  0  0  0  0  0999 V2000
  139.7560   71.4950  220.8150 O   0  0  0  0  0  0  0  0  0  0  0  0
  139.3920   71.9700  221.9210 C   0  0  0  0  0  0  0  0  0  0  0  0
  138.7300   73.2360  221.8830 N   0  0  0  0  0  0  0  0  0  0  0  0
  138.5570   73.8210  220.5550 C   0  0  0  0  0  0  0  0  0  0  0  0
  138.9250   75.2400  220.5760 C   0  0  0  0  0  0  0  0  0  0  0  0
  139.1050   75.8440  219.4720 O   0  0  0  0  0  0  0  0  0  0  0  0
  139.0680   75.8990  221.8330 N   0  0  0  0  0  0  0  0  0  0  0  0
  137.8810   76.1100  222.6330 C   0  0  0  0  0  0  0  0  0  0  0  0
  137.1980   77.4230  222.3740 C   0  0  0  0  0  0  0  0  0  0  0  0
  138.1160   78.5810  222.1480 C   0  0  0  0  0  0  0  0  0  0  0  0
  139.3650   78.4720  222.9750 C   0  0  0  0  0  0  0  0  0  0  0  0
  140.5060   77.8070  222.2880 C   0  0  0  0  0  0  0  0  0  0  0  0
  140.4090   76.3050  222.2010 C   0  0  2  0  0  0  0  0  0  0  0  0
  141.4380   75.8720  221.2200 C   0  0  0  0  0  0  0  0  0  0  0  0
  142.0230   76.7330  220.3110 C   0  0  0  0  0  0  0  0  0  0  0  0
  142.9790   76.3290  219.4010 C   0  0  0  0  0  0  0  0  0  0  0  0
  143.3880   74.9990  219.3770 C   0  0  0  0  0  0  0  0  0  0  0  0
  142.8190   74.1120  220.2750 C   0  0  0  0  0  0  0  0  0  0  0  0
  141.8670   74.5420  221.1740 C   0  0  0  0  0  0  0  0  0  0  0  0
  139.6280   71.2770  223.1840 C   0  0  0  0  0  0  0  0  0  0  0  0
  139.2230   69.9610  223.2790 C   0  0  0  0  0  0  0  0  0  0  0  0
  139.4020   69.2150  224.4330 C   0  0  0  0  0  0  0  0  0  0  0  0
  140.0100   69.8530  225.4970 C   0  0  0  0  0  0  0  0  0  0  0  0
  140.1870   69.1090  226.6460 C   0  0  0  0  0  0  0  0  0  0  0  0
  140.7970   69.7290  227.7270 C   0  0  0  0  0  0  0  0  0  0  0  0
  140.9940   69.0400  228.8810 F   0  0  0  0  0  0  0  0  0  0  0  0
  141.2090   71.0580  227.6380 C   0  0  0  0  0  0  0  0  0  0  0  0
  141.0250   71.7960  226.4730 C   0  0  0  0  0  0  0  0  0  0  0  0
  140.4180   71.1700  225.4040 C   0  0  0  0  0  0  0  0  0  0  0  0
  140.2190   71.8630  224.2430 N   0  0  0  0  0  0  0  0  0  0  0  0
  138.3990   73.6940  222.7510 H   0  0  0  0  0  0  0  0  0  0  0  0
  139.1991   73.2895  219.8372 H   0  0  0  0  0  0  0  0  0  0  0  0
  137.5026   73.7276  220.2558 H   0  0  0  0  0  0  0  0  0  0  0  0
  137.1687   75.3003  222.4161 H   0  0  0  0  0  0  0  0  0  0  0  0
  138.2023   76.1192  223.6850 H   0  0  0  0  0  0  0  0  0  0  0  0
  136.5672   77.3086  221.4801 H   0  0  0  0  0  0  0  0  0  0  0  0
  136.6279   77.6570  223.2852 H   0  0  0  0  0  0  0  0  0  0  0  0
  138.3948   78.6121  221.0844 H   0  0  0  0  0  0  0  0  0  0  0  0
  137.5880   79.4991  222.4452 H   0  0  0  0  0  0  0  0  0  0  0  0
  139.6792   79.4875  223.2577 H   0  0  0  0  0  0  0  0  0  0  0  0
  139.1121   77.8424  223.8408 H   0  0  0  0  0  0  0  0  0  0  0  0
  140.5669   78.2049  221.2643 H   0  0  0  0  0  0  0  0  0  0  0  0
  141.3982   78.0230  222.8941 H   0  0  0  0  0  0  0  0  0  0  0  0
  140.6005   75.8238  223.1715 H   0  0  0  0  0  0  0  0  0  0  0  0
  141.7126   77.7883  220.3127 H   0  0  0  0  0  0  0  0  0  0  0  0
  143.4153   77.0544  218.6985 H   0  0  0  0  0  0  0  0  0  0  0  0
  144.1485   74.6591  218.6586 H   0  0  0  0  0  0  0  0  0  0  0  0
  143.1290   73.0566  220.2709 H   0  0  0  0  0  0  0  0  0  0  0  0
  141.4313   73.8167  221.8769 H   0  0  0  0  0  0  0  0  0  0  0  0
  138.7421   69.4886  222.4097 H   0  0  0  0  0  0  0  0  0  0  0  0
  139.0760   68.1665  224.4987 H   0  0  0  0  0  0  0  0  0  0  0  0
  139.8561   68.0615  226.7027 H   0  0  0  0  0  0  0  0  0  0  0  0
  141.6892   71.5326  228.5064 H   0  0  0  0  0  0  0  0  0  0  0  0
  141.3527   72.8440  226.4065 H   0  0  0  0  0  0  0  0  0  0  0  0
  1  2  2  0
  2  3  1  0
  3  4  1  0
  4  5  1  0
  5  6  2  0
  5  7  1  0
  7  8  1  0
  8  9  1  0
  9 10  1  0
 10 11  1  0
 11 12  1  0
 12 13  1  0
 13 14  1  0
 14 15  2  0
 15 16  1  0
 16 17  2  0
 17 18  1  0
 18 19  2  0
  2 20  1  0
 20 21  2  0
 21 22  1  0
 22 23  2  0
 23 24  1  0
 24 25  2  0
 25 26  1  0
 25 27  1  0
 27 28  2  0
 28 29  1  0
 29 30  2  0
 13  7  1  0
 19 14  1  0
 30 20  1  0
 29 23  1  0
  3 31  1  0
  4 32  1  0
  4 33  1  0
  8 34  1  0
  8 35  1  0
  9 36  1  0
  9 37  1  0
 10 38  1  0
 10 39  1  0
 11 40  1  0
 11 41  1  0
 12 42  1  0
 12 43  1  0
 13 44  1  1
 15 45  1  0
 16 46  1  0
 17 47  1  0
 18 48  1  0
 19 49  1  0
 21 50  1  0
 22 51  1  0
 24 52  1  0
 27 53  1  0
 28 54  1  0
M  END
>  <smiles>  (29) 
O=C(NCC(=O)N1CCCCCC1c1ccccc1)c1ccc2cc(F)ccc2n1

>  <score_type>  (29) 
oracle

>  <origin>  (29) 
autodockgpu

>  <m_score__min__energy>  (29) 
-6.9000000000000004

>  <m_primary>  (29) 
energy

>  <rmsd>  (29) 
2.748683548032232

>  <m_score__min__rmsd>  (29) 
2.748683548032232

>  <meeko>  (29) 
{"free_energy": -5.53, "intermolecular_energy": -8.81, "internal_energy": -2.01, "cluster_size": 7, "cluster_id": 4, "rank_in_cluster": 6}

>  <energy>  (29) 
-6.54

>  <cluster_rmsd>  (29) 
0.0

>  <cluster>  (29) 
4

$$$$

     RDKit          3D

 54 57  0  0  0  0  0  0  0  0999 V2000
  141.1660   72.0980  221.6460 O   0  0  0  0  0  0  0  0  0  0  0  0
  140.2200   72.2450  222.4620 C   0  0  0  0  0  0  0  0  0  0  0  0
  139.2600   73.2560  222.1480 N   0  0  0  0  0  0  0  0  0  0  0  0
  139.4990   73.9950  220.9100 C   0  0  0  0  0  0  0  0  0  0  0  0
  139.7150   75.4150  221.2020 C   0  0  0  0  0  0  0  0  0  0  0  0
  138.8100   76.0610  221.8180 O   0  0  0  0  0  0  0  0  0  0  0  0
  140.9340   76.0280  220.7870 N   0  0  0  0  0  0  0  0  0  0  0  0
  142.1340   75.2180  220.7640 C   0  0  0  0  0  0  0  0  0  0  0  0
  142.7130   75.0260  219.3910 C   0  0  0  0  0  0  0  0  0  0  0  0
  142.0220   75.7790  218.3010 C   0  0  0  0  0  0  0  0  0  0  0  0
  142.3140   77.2510  218.3670 C   0  0  0  0  0  0  0  0  0  0  0  0
  142.1210   77.8590  219.7120 C   0  0  0  0  0  0  0  0  0  0  0  0
  140.8620   77.4280  220.4220 C   0  0  2  0  0  0  0  0  0  0  0  0
  140.7100   78.3280  221.5930 C   0  0  0  0  0  0  0  0  0  0  0  0
  141.7760   78.7510  222.3630 C   0  0  0  0  0  0  0  0  0  0  0  0
  141.6330   79.5880  223.4520 C   0  0  0  0  0  0  0  0  0  0  0  0
  140.3670   80.0380  223.8120 C   0  0  0  0  0  0  0  0  0  0  0  0
  139.2780   79.6300  223.0600 C   0  0  0  0  0  0  0  0  0  0  0  0
  139.4490   78.7950  221.9770 C   0  0  0  0  0  0  0  0  0  0  0  0
  140.0980   71.4340  223.6690 C   0  0  0  0  0  0  0  0  0  0  0  0
  139.4250   70.2320  223.5710 C   0  0  0  0  0  0  0  0  0  0  0  0
  139.2560   69.3900  224.6570 C   0  0  0  0  0  0  0  0  0  0  0  0
  139.7950   69.8090  225.8590 C   0  0  0  0  0  0  0  0  0  0  0  0
  139.6240   68.9700  226.9410 C   0  0  0  0  0  0  0  0  0  0  0  0
  140.1580   69.3700  228.1570 C   0  0  0  0  0  0  0  0  0  0  0  0
  140.0170   68.5790  229.2520 F   0  0  0  0  0  0  0  0  0  0  0  0
  140.8390   70.5820  228.2640 C   0  0  0  0  0  0  0  0  0  0  0  0
  141.0030   71.4190  227.1650 C   0  0  0  0  0  0  0  0  0  0  0  0
  140.4690   71.0110  225.9600 C   0  0  0  0  0  0  0  0  0  0  0  0
  140.6100   71.8080  224.8580 N   0  0  0  0  0  0  0  0  0  0  0  0
  138.4520   73.4390  222.7680 H   0  0  0  0  0  0  0  0  0  0  0  0
  140.3897   73.5873  220.4096 H   0  0  0  0  0  0  0  0  0  0  0  0
  138.6208   73.8926  220.2556 H   0  0  0  0  0  0  0  0  0  0  0  0
  142.8925   75.7047  221.3947 H   0  0  0  0  0  0  0  0  0  0  0  0
  141.8532   74.2210  221.1343 H   0  0  0  0  0  0  0  0  0  0  0  0
  143.7639   75.3501  219.4159 H   0  0  0  0  0  0  0  0  0  0  0  0
  142.5892   73.9593  219.1527 H   0  0  0  0  0  0  0  0  0  0  0  0
  142.3629   75.3918  217.3295 H   0  0  0  0  0  0  0  0  0  0  0  0
  140.9378   75.6400  218.4241 H   0  0  0  0  0  0  0  0  0  0  0  0
  143.3604   77.4075  218.0662 H   0  0  0  0  0  0  0  0  0  0  0  0
  141.5951   77.7429  217.6953 H   0  0  0  0  0  0  0  0  0  0  0  0
  142.9807   77.5823  220.3400 H   0  0  0  0  0  0  0  0  0  0  0  0
  142.0333   78.9440  219.5536 H   0  0  0  0  0  0  0  0  0  0  0  0
  139.9757   77.5125  219.7760 H   0  0  0  0  0  0  0  0  0  0  0  0
  142.7856   78.4051  222.0963 H   0  0  0  0  0  0  0  0  0  0  0  0
  142.5153   79.8971  224.0316 H   0  0  0  0  0  0  0  0  0  0  0  0
  140.2335   80.7046  224.6767 H   0  0  0  0  0  0  0  0  0  0  0  0
  138.2688   79.9750  223.3292 H   0  0  0  0  0  0  0  0  0  0  0  0
  138.5667   78.4865  221.3970 H   0  0  0  0  0  0  0  0  0  0  0  0
  139.0092   69.9335  222.5973 H   0  0  0  0  0  0  0  0  0  0  0  0
  138.7190   68.4342  224.5677 H   0  0  0  0  0  0  0  0  0  0  0  0
  139.0831   68.0172  226.8426 H   0  0  0  0  0  0  0  0  0  0  0  0
  141.2549   70.8824  229.2370 H   0  0  0  0  0  0  0  0  0  0  0  0
  141.5407   72.3745  227.2537 H   0  0  0  0  0  0  0  0  0  0  0  0
  1  2  2  0
  2  3  1  0
  3  4  1  0
  4  5  1  0
  5  6  2  0
  5  7  1  0
  7  8  1  0
  8  9  1  0
  9 10  1  0
 10 11  1  0
 11 12  1  0
 12 13  1  0
 13 14  1  0
 14 15  2  0
 15 16  1  0
 16 17  2  0
 17 18  1  0
 18 19  2  0
  2 20  1  0
 20 21  2  0
 21 22  1  0
 22 23  2  0
 23 24  1  0
 24 25  2  0
 25 26  1  0
 25 27  1  0
 27 28  2  0
 28 29  1  0
 29 30  2  0
 13  7  1  0
 19 14  1  0
 30 20  1  0
 29 23  1  0
  3 31  1  0
  4 32  1  0
  4 33  1  0
  8 34  1  0
  8 35  1  0
  9 36  1  0
  9 37  1  0
 10 38  1  0
 10 39  1  0
 11 40  1  0
 11 41  1  0
 12 42  1  0
 12 43  1  0
 13 44  1  6
 15 45  1  0
 16 46  1  0
 17 47  1  0
 18 48  1  0
 19 49  1  0
 21 50  1  0
 22 51  1  0
 24 52  1  0
 27 53  1  0
 28 54  1  0
M  END
>  <smiles>  (30) 
O=C(NCC(=O)N1CCCCCC1c1ccccc1)c1ccc2cc(F)ccc2n1

>  <score_type>  (30) 
oracle

>  <origin>  (30) 
autodockgpu

>  <m_score__min__energy>  (30) 
-6.9000000000000004

>  <m_primary>  (30) 
energy

>  <rmsd>  (30) 
2.048214480684925

>  <m_score__min__rmsd>  (30) 
2.048214480684925

>  <meeko>  (30) 
{"free_energy": -6.46, "intermolecular_energy": -9.75, "internal_energy": -1.61, "cluster_size": 12, "cluster_id": 2, "rank_in_cluster": 4}

>  <energy>  (30) 
-6.12

>  <cluster_rmsd>  (30) 
0.69

>  <cluster>  (30) 
4

$$$$

     RDKit          3D

 54 57  0  0  0  0  0  0  0  0999 V2000
  136.6160   76.9990  221.9220 O   0  0  0  0  0  0  0  0  0  0  0  0
  136.6910   75.9250  222.5740 C   0  0  0  0  0  0  0  0  0  0  0  0
  137.7780   75.0570  222.2490 N   0  0  0  0  0  0  0  0  0  0  0  0
  138.6720   75.5290  221.1940 C   0  0  0  0  0  0  0  0  0  0  0  0
  140.0470   75.1000  221.4670 C   0  0  0  0  0  0  0  0  0  0  0  0
  140.2420   74.1360  222.2730 O   0  0  0  0  0  0  0  0  0  0  0  0
  141.1230   75.7760  220.8210 N   0  0  0  0  0  0  0  0  0  0  0  0
  142.3070   75.0130  220.4880 C   0  0  0  0  0  0  0  0  0  0  0  0
  142.5690   74.9060  219.0120 C   0  0  0  0  0  0  0  0  0  0  0  0
  143.2550   76.0860  218.4030 C   0  0  0  0  0  0  0  0  0  0  0  0
  142.4250   77.3330  218.5150 C   0  0  0  0  0  0  0  0  0  0  0  0
  142.1660   77.7790  219.9170 C   0  0  0  0  0  0  0  0  0  0  0  0
  140.9340   77.1870  220.5520 C   0  0  2  0  0  0  0  0  0  0  0  0
  140.6670   77.9810  221.7790 C   0  0  0  0  0  0  0  0  0  0  0  0
  141.6430   78.2810  222.7100 C   0  0  0  0  0  0  0  0  0  0  0  0
  141.3940   79.0200  223.8490 C   0  0  0  0  0  0  0  0  0  0  0  0
  140.1090   79.4950  224.0940 C   0  0  0  0  0  0  0  0  0  0  0  0
  139.1100   79.2100  223.1790 C   0  0  0  0  0  0  0  0  0  0  0  0
  139.3850   78.4710  222.0490 C   0  0  0  0  0  0  0  0  0  0  0  0
  135.7240   75.5740  223.6100 C   0  0  0  0  0  0  0  0  0  0  0  0
  135.0300   76.6020  224.2170 C   0  0  0  0  0  0  0  0  0  0  0  0
  134.0910   76.3740  225.2100 C   0  0  0  0  0  0  0  0  0  0  0  0
  133.8770   75.0580  225.5720 C   0  0  0  0  0  0  0  0  0  0  0  0
  132.9430   74.8320  226.5620 C   0  0  0  0  0  0  0  0  0  0  0  0
  132.7100   73.5180  226.9410 C   0  0  0  0  0  0  0  0  0  0  0  0
  131.8000   73.2430  227.9110 F   0  0  0  0  0  0  0  0  0  0  0  0
  133.4070   72.4740  226.3330 C   0  0  0  0  0  0  0  0  0  0  0  0
  134.3470   72.7160  225.3360 C   0  0  0  0  0  0  0  0  0  0  0  0
  134.5700   74.0270  224.9660 C   0  0  0  0  0  0  0  0  0  0  0  0
  135.4860   74.3040  223.9910 N   0  0  0  0  0  0  0  0  0  0  0  0
  137.9090   74.1560  222.7410 H   0  0  0  0  0  0  0  0  0  0  0  0
  138.3465   75.1136  220.2289 H   0  0  0  0  0  0  0  0  0  0  0  0
  138.6386   76.6280  221.1599 H   0  0  0  0  0  0  0  0  0  0  0  0
  143.1748   75.4975  220.9593 H   0  0  0  0  0  0  0  0  0  0  0  0
  142.1413   73.9902  220.8572 H   0  0  0  0  0  0  0  0  0  0  0  0
  143.1983   74.0201  218.8409 H   0  0  0  0  0  0  0  0  0  0  0  0
  141.5825   74.8422  218.5294 H   0  0  0  0  0  0  0  0  0  0  0  0
  144.2121   76.2477  218.9205 H   0  0  0  0  0  0  0  0  0  0  0  0
  143.4136   75.8756  217.3350 H   0  0  0  0  0  0  0  0  0  0  0  0
  142.9493   78.1436  217.9876 H   0  0  0  0  0  0  0  0  0  0  0  0
  141.4448   77.0979  218.0746 H   0  0  0  0  0  0  0  0  0  0  0  0
  143.0350   77.4997  220.5308 H   0  0  0  0  0  0  0  0  0  0  0  0
  141.9983   78.8651  219.8701 H   0  0  0  0  0  0  0  0  0  0  0  0
  140.0628   77.2399  219.8826 H   0  0  0  0  0  0  0  0  0  0  0  0
  142.6652   77.9141  222.5355 H   0  0  0  0  0  0  0  0  0  0  0  0
  142.2068   79.2323  224.5591 H   0  0  0  0  0  0  0  0  0  0  0  0
  139.8915   80.0850  224.9965 H   0  0  0  0  0  0  0  0  0  0  0  0
  138.0880   79.5766  223.3555 H   0  0  0  0  0  0  0  0  0  0  0  0
  138.5724   78.2602  221.3382 H   0  0  0  0  0  0  0  0  0  0  0  0
  135.2294   77.6368  223.9015 H   0  0  0  0  0  0  0  0  0  0  0  0
  133.5429   77.2001  225.6867 H   0  0  0  0  0  0  0  0  0  0  0  0
  132.4018   75.6650  227.0345 H   0  0  0  0  0  0  0  0  0  0  0  0
  133.2096   71.4387  226.6479 H   0  0  0  0  0  0  0  0  0  0  0  0
  134.8943   71.8899  224.8585 H   0  0  0  0  0  0  0  0  0  0  0  0
  1  2  2  0
  2  3  1  0
  3  4  1  0
  4  5  1  0
  5  6  2  0
  5  7  1  0
  7  8  1  0
  8  9  1  0
  9 10  1  0
 10 11  1  0
 11 12  1  0
 12 13  1  0
 13 14  1  0
 14 15  2  0
 15 16  1  0
 16 17  2  0
 17 18  1  0
 18 19  2  0
  2 20  1  0
 20 21  2  0
 21 22  1  0
 22 23  2  0
 23 24  1  0
 24 25  2  0
 25 26  1  0
 25 27  1  0
 27 28  2  0
 28 29  1  0
 29 30  2  0
 13  7  1  0
 19 14  1  0
 30 20  1  0
 29 23  1  0
  3 31  1  0
  4 32  1  0
  4 33  1  0
  8 34  1  0
  8 35  1  0
  9 36  1  0
  9 37  1  0
 10 38  1  0
 10 39  1  0
 11 40  1  0
 11 41  1  0
 12 42  1  0
 12 43  1  0
 13 44  1  6
 15 45  1  0
 16 46  1  0
 17 47  1  0
 18 48  1  0
 19 49  1  0
 21 50  1  0
 22 51  1  0
 24 52  1  0
 27 53  1  0
 28 54  1  0
M  END
>  <smiles>  (31) 
O=C(NCC(=O)N1CCCCCC1c1ccccc1)c1ccc2cc(F)ccc2n1

>  <score_type>  (31) 
oracle

>  <origin>  (31) 
autodockgpu

>  <m_score__min__energy>  (31) 
-6.9000000000000004

>  <m_primary>  (31) 
energy

>  <rmsd>  (31) 
6.0247453959874875

>  <m_score__min__rmsd>  (31) 
6.0247453959874875

>  <meeko>  (31) 
{"free_energy": -5.03, "intermolecular_energy": -8.31, "internal_energy": -2.23, "cluster_size": 1, "cluster_id": 8, "rank_in_cluster": 1}

>  <energy>  (31) 
-5.84

>  <cluster_rmsd>  (31) 
1.54

>  <cluster>  (31) 
4

$$$$

     RDKit          3D

 54 57  0  0  0  0  0  0  0  0999 V2000
  139.4220   71.1570  221.1700 O   0  0  0  0  0  0  0  0  0  0  0  0
  139.9100   71.6290  222.2300 C   0  0  0  0  0  0  0  0  0  0  0  0
  140.4710   72.9410  222.1440 N   0  0  0  0  0  0  0  0  0  0  0  0
  140.4050   73.5730  220.8280 C   0  0  0  0  0  0  0  0  0  0  0  0
  141.0530   74.8870  220.8650 C   0  0  0  0  0  0  0  0  0  0  0  0
  141.4460   75.3470  221.9830 O   0  0  0  0  0  0  0  0  0  0  0  0
  141.2230   75.6090  219.6470 N   0  0  0  0  0  0  0  0  0  0  0  0
  140.0480   76.1700  219.0150 C   0  0  0  0  0  0  0  0  0  0  0  0
  139.4520   75.2950  217.9500 C   0  0  0  0  0  0  0  0  0  0  0  0
  140.3020   75.1090  216.7340 C   0  0  0  0  0  0  0  0  0  0  0  0
  141.6650   74.5800  217.0820 C   0  0  0  0  0  0  0  0  0  0  0  0
  142.5970   75.5980  217.6400 C   0  0  0  0  0  0  0  0  0  0  0  0
  142.5770   75.7170  219.1420 C   0  0  2  0  0  0  0  0  0  0  0  0
  143.4770   74.6550  219.6620 C   0  0  0  0  0  0  0  0  0  0  0  0
  144.5990   74.9240  220.4230 C   0  0  0  0  0  0  0  0  0  0  0  0
  145.4350   73.9360  220.9050 C   0  0  0  0  0  0  0  0  0  0  0  0
  145.1570   72.6020  220.6240 C   0  0  0  0  0  0  0  0  0  0  0  0
  144.0400   72.3020  219.8630 C   0  0  0  0  0  0  0  0  0  0  0  0
  143.2220   73.3070  219.3940 C   0  0  0  0  0  0  0  0  0  0  0  0
  139.9100   70.8860  223.4860 C   0  0  0  0  0  0  0  0  0  0  0  0
  139.2990   69.6480  223.5010 C   0  0  0  0  0  0  0  0  0  0  0  0
  139.2460   68.8640  224.6420 C   0  0  0  0  0  0  0  0  0  0  0  0
  139.8370   69.3810  225.7790 C   0  0  0  0  0  0  0  0  0  0  0  0
  139.7830   68.6000  226.9150 C   0  0  0  0  0  0  0  0  0  0  0  0
  140.3700   69.0990  228.0690 C   0  0  0  0  0  0  0  0  0  0  0  0
  140.3440   68.3680  229.2140 F   0  0  0  0  0  0  0  0  0  0  0  0
  140.9900   70.3480  228.0620 C   0  0  0  0  0  0  0  0  0  0  0  0
  141.0380   71.1260  226.9090 C   0  0  0  0  0  0  0  0  0  0  0  0
  140.4500   70.6200  225.7670 C   0  0  0  0  0  0  0  0  0  0  0  0
  140.4760   71.3550  224.6150 N   0  0  0  0  0  0  0  0  0  0  0  0
  140.8920   73.3990  222.9710 H   0  0  0  0  0  0  0  0  0  0  0  0
  140.9176   72.9355  220.0926 H   0  0  0  0  0  0  0  0  0  0  0  0
  139.3501   73.7007  220.5434 H   0  0  0  0  0  0  0  0  0  0  0  0
  139.2860   76.3398  219.7899 H   0  0  0  0  0  0  0  0  0  0  0  0
  140.3650   77.1009  218.5222 H   0  0  0  0  0  0  0  0  0  0  0  0
  139.2633   74.3042  218.3889 H   0  0  0  0  0  0  0  0  0  0  0  0
  138.5381   75.8044  217.6104 H   0  0  0  0  0  0  0  0  0  0  0  0
  139.8056   74.3972  216.0580 H   0  0  0  0  0  0  0  0  0  0  0  0
  140.4284   76.0895  216.2517 H   0  0  0  0  0  0  0  0  0  0  0  0
  141.5434   73.7801  217.8272 H   0  0  0  0  0  0  0  0  0  0  0  0
  142.1134   74.2265  216.1418 H   0  0  0  0  0  0  0  0  0  0  0  0
  143.6188   75.3321  217.3314 H   0  0  0  0  0  0  0  0  0  0  0  0
  142.2643   76.5704  217.2478 H   0  0  0  0  0  0  0  0  0  0  0  0
  142.9344   76.7008  219.4801 H   0  0  0  0  0  0  0  0  0  0  0  0
  144.8369   75.9726  220.6553 H   0  0  0  0  0  0  0  0  0  0  0  0
  146.3158   74.2023  221.5077 H   0  0  0  0  0  0  0  0  0  0  0  0
  145.8117   71.8015  220.9990 H   0  0  0  0  0  0  0  0  0  0  0  0
  143.8036   71.2531  219.6309 H   0  0  0  0  0  0  0  0  0  0  0  0
  142.3418   73.0404  218.7905 H   0  0  0  0  0  0  0  0  0  0  0  0
  138.8387   69.2714  222.5757 H   0  0  0  0  0  0  0  0  0  0  0  0
  138.7575   67.8784  224.6428 H   0  0  0  0  0  0  0  0  0  0  0  0
  139.2917   67.6159  226.9062 H   0  0  0  0  0  0  0  0  0  0  0  0
  141.4506   70.7261  228.9866 H   0  0  0  0  0  0  0  0  0  0  0  0
  141.5279   72.1109  226.9077 H   0  0  0  0  0  0  0  0  0  0  0  0
  1  2  2  0
  2  3  1  0
  3  4  1  0
  4  5  1  0
  5  6  2  0
  5  7  1  0
  7  8  1  0
  8  9  1  0
  9 10  1  0
 10 11  1  0
 11 12  1  0
 12 13  1  0
 13 14  1  0
 14 15  2  0
 15 16  1  0
 16 17  2  0
 17 18  1  0
 18 19  2  0
  2 20  1  0
 20 21  2  0
 21 22  1  0
 22 23  2  0
 23 24  1  0
 24 25  2  0
 25 26  1  0
 25 27  1  0
 27 28  2  0
 28 29  1  0
 29 30  2  0
 13  7  1  0
 19 14  1  0
 30 20  1  0
 29 23  1  0
  3 31  1  0
  4 32  1  0
  4 33  1  0
  8 34  1  0
  8 35  1  0
  9 36  1  0
  9 37  1  0
 10 38  1  0
 10 39  1  0
 11 40  1  0
 11 41  1  0
 12 42  1  0
 12 43  1  0
 13 44  1  6
 15 45  1  0
 16 46  1  0
 17 47  1  0
 18 48  1  0
 19 49  1  0
 21 50  1  0
 22 51  1  0
 24 52  1  0
 27 53  1  0
 28 54  1  0
M  END
>  <smiles>  (32) 
O=C(NCC(=O)N1CCCCCC1c1ccccc1)c1ccc2cc(F)ccc2n1

>  <score_type>  (32) 
oracle

>  <origin>  (32) 
autodockgpu

>  <m_score__min__energy>  (32) 
-6.9000000000000004

>  <m_primary>  (32) 
energy

>  <rmsd>  (32) 
1.7440021074111602

>  <m_score__min__rmsd>  (32) 
1.7440021074111602

>  <meeko>  (32) 
{"free_energy": -4.99, "intermolecular_energy": -8.27, "internal_energy": -2.27, "cluster_size": 7, "cluster_id": 6, "rank_in_cluster": 7}

>  <energy>  (32) 
-5.73

>  <cluster_rmsd>  (32) 
1.84

>  <cluster>  (32) 
4

$$$$

     RDKit          3D

 54 57  0  0  0  0  0  0  0  0999 V2000
  138.1140   70.9720  221.7730 O   0  0  0  0  0  0  0  0  0  0  0  0
  138.8180   71.6160  222.5920 C   0  0  0  0  0  0  0  0  0  0  0  0
  139.0290   72.9990  222.3010 N   0  0  0  0  0  0  0  0  0  0  0  0
  138.3950   73.4930  221.0810 C   0  0  0  0  0  0  0  0  0  0  0  0
  139.3870   74.1540  220.2280 C   0  0  0  0  0  0  0  0  0  0  0  0
  139.0900   75.2670  219.6890 O   0  0  0  0  0  0  0  0  0  0  0  0
  140.6540   73.5310  220.0290 N   0  0  0  0  0  0  0  0  0  0  0  0
  140.6820   72.1050  219.7800 C   0  0  0  0  0  0  0  0  0  0  0  0
  141.7040   71.3640  220.5940 C   0  0  0  0  0  0  0  0  0  0  0  0
  143.0880   71.3700  220.0300 C   0  0  0  0  0  0  0  0  0  0  0  0
  143.7190   72.7300  220.1140 C   0  0  0  0  0  0  0  0  0  0  0  0
  142.9250   73.7310  220.8770 C   0  0  0  0  0  0  0  0  0  0  0  0
  141.8170   74.3920  220.0970 C   0  0  2  0  0  0  0  0  0  0  0  0
  141.5420   75.6880  220.7680 C   0  0  0  0  0  0  0  0  0  0  0  0
  141.0770   75.7810  222.0660 C   0  0  0  0  0  0  0  0  0  0  0  0
  140.8230   76.9870  222.6890 C   0  0  0  0  0  0  0  0  0  0  0  0
  141.0350   78.1760  221.9990 C   0  0  0  0  0  0  0  0  0  0  0  0
  141.5010   78.1150  220.6960 C   0  0  0  0  0  0  0  0  0  0  0  0
  141.7470   76.8980  220.0980 C   0  0  0  0  0  0  0  0  0  0  0  0
  139.3960   70.9950  223.7810 C   0  0  0  0  0  0  0  0  0  0  0  0
  140.3340   71.7180  224.4910 C   0  0  0  0  0  0  0  0  0  0  0  0
  140.9410   71.2190  225.6330 C   0  0  0  0  0  0  0  0  0  0  0  0
  140.5630   69.9520  226.0340 C   0  0  0  0  0  0  0  0  0  0  0  0
  141.1690   69.4560  227.1700 C   0  0  0  0  0  0  0  0  0  0  0  0
  140.8050   68.1850  227.5920 C   0  0  0  0  0  0  0  0  0  0  0  0
  141.3720   67.6520  228.7050 F   0  0  0  0  0  0  0  0  0  0  0  0
  139.8590   67.4500  226.8790 C   0  0  0  0  0  0  0  0  0  0  0  0
  139.2550   67.9620  225.7350 C   0  0  0  0  0  0  0  0  0  0  0  0
  139.6250   69.2260  225.3250 C   0  0  0  0  0  0  0  0  0  0  0  0
  139.0540   69.7630  224.2040 N   0  0  0  0  0  0  0  0  0  0  0  0
  139.5970   73.5980  222.9260 H   0  0  0  0  0  0  0  0  0  0  0  0
  137.9508   72.6481  220.5344 H   0  0  0  0  0  0  0  0  0  0  0  0
  137.6129   74.2180  221.3507 H   0  0  0  0  0  0  0  0  0  0  0  0
  139.6890   71.6933  220.0132 H   0  0  0  0  0  0  0  0  0  0  0  0
  140.9578   71.9712  218.7236 H   0  0  0  0  0  0  0  0  0  0  0  0
  141.7411   71.8220  221.5934 H   0  0  0  0  0  0  0  0  0  0  0  0
  141.3823   70.3121  220.6063 H   0  0  0  0  0  0  0  0  0  0  0  0
  143.7054   70.6556  220.5943 H   0  0  0  0  0  0  0  0  0  0  0  0
  143.0258   71.0871  218.9688 H   0  0  0  0  0  0  0  0  0  0  0  0
  144.6993   72.6247  220.6017 H   0  0  0  0  0  0  0  0  0  0  0  0
  143.7906   73.1066  219.0830 H   0  0  0  0  0  0  0  0  0  0  0  0
  142.4765   73.2226  221.7433 H   0  0  0  0  0  0  0  0  0  0  0  0
  143.6255   74.5319  221.1560 H   0  0  0  0  0  0  0  0  0  0  0  0
  142.1041   74.5736  219.0508 H   0  0  0  0  0  0  0  0  0  0  0  0
  140.9012   74.8522  222.6285 H   0  0  0  0  0  0  0  0  0  0  0  0
  140.4550   77.0072  223.7254 H   0  0  0  0  0  0  0  0  0  0  0  0
  140.8365   79.1458  222.4787 H   0  0  0  0  0  0  0  0  0  0  0  0
  141.6760   79.0446  220.1346 H   0  0  0  0  0  0  0  0  0  0  0  0
  142.1159   76.8779  219.0619 H   0  0  0  0  0  0  0  0  0  0  0  0
  140.6087   72.7232  224.1387 H   0  0  0  0  0  0  0  0  0  0  0  0
  141.6868   71.8029  226.1923 H   0  0  0  0  0  0  0  0  0  0  0  0
  141.9146   70.0473  227.7219 H   0  0  0  0  0  0  0  0  0  0  0  0
  139.5842   66.4438  227.2283 H   0  0  0  0  0  0  0  0  0  0  0  0
  138.5080   67.3788  225.1766 H   0  0  0  0  0  0  0  0  0  0  0  0
  1  2  2  0
  2  3  1  0
  3  4  1  0
  4  5  1  0
  5  6  2  0
  5  7  1  0
  7  8  1  0
  8  9  1  0
  9 10  1  0
 10 11  1  0
 11 12  1  0
 12 13  1  0
 13 14  1  0
 14 15  2  0
 15 16  1  0
 16 17  2  0
 17 18  1  0
 18 19  2  0
  2 20  1  0
 20 21  2  0
 21 22  1  0
 22 23  2  0
 23 24  1  0
 24 25  2  0
 25 26  1  0
 25 27  1  0
 27 28  2  0
 28 29  1  0
 29 30  2  0
 13  7  1  0
 19 14  1  0
 30 20  1  0
 29 23  1  0
  3 31  1  0
  4 32  1  0
  4 33  1  0
  8 34  1  0
  8 35  1  0
  9 36  1  0
  9 37  1  0
 10 38  1  0
 10 39  1  0
 11 40  1  0
 11 41  1  0
 12 42  1  0
 12 43  1  0
 13 44  1  6
 15 45  1  0
 16 46  1  0
 17 47  1  0
 18 48  1  0
 19 49  1  0
 21 50  1  0
 22 51  1  0
 24 52  1  0
 27 53  1  0
 28 54  1  0
M  END
>  <smiles>  (33) 
O=C(NCC(=O)N1CCCCCC1c1ccccc1)c1ccc2cc(F)ccc2n1

>  <score_type>  (33) 
oracle

>  <origin>  (33) 
autodockgpu

>  <m_score__min__energy>  (33) 
-6.9000000000000004

>  <m_primary>  (33) 
energy

>  <rmsd>  (33) 
3.3651999490149116

>  <m_score__min__rmsd>  (33) 
3.3651999490149116

>  <meeko>  (33) 
{"free_energy": -5.15, "intermolecular_energy": -8.43, "internal_energy": -1.87, "cluster_size": 3, "cluster_id": 5, "rank_in_cluster": 3}

>  <energy>  (33) 
-5.66

>  <cluster_rmsd>  (33) 
1.4

>  <cluster>  (33) 
4

$$$$

     RDKit          3D

 54 57  0  0  0  0  0  0  0  0999 V2000
  138.8320   73.1950  222.2210 O   0  0  0  0  0  0  0  0  0  0  0  0
  139.9210   72.6890  222.5990 C   0  0  0  0  0  0  0  0  0  0  0  0
  141.1040   73.1750  221.9630 N   0  0  0  0  0  0  0  0  0  0  0  0
  140.8990   74.2060  220.9470 C   0  0  0  0  0  0  0  0  0  0  0  0
  142.1810   74.8110  220.5750 C   0  0  0  0  0  0  0  0  0  0  0  0
  143.2560   74.1800  220.8280 O   0  0  0  0  0  0  0  0  0  0  0  0
  142.1850   76.0890  219.9410 N   0  0  0  0  0  0  0  0  0  0  0  0
  143.3060   76.4250  219.0890 C   0  0  0  0  0  0  0  0  0  0  0  0
  143.0680   76.1470  217.6320 C   0  0  0  0  0  0  0  0  0  0  0  0
  142.0190   76.9950  216.9880 C   0  0  0  0  0  0  0  0  0  0  0  0
  140.7070   76.9080  217.7140 C   0  0  0  0  0  0  0  0  0  0  0  0
  140.6410   77.6970  218.9690 C   0  0  0  0  0  0  0  0  0  0  0  0
  141.0510   76.9490  220.2120 C   0  0  2  0  0  0  0  0  0  0  0  0
  141.3340   77.9750  221.2480 C   0  0  0  0  0  0  0  0  0  0  0  0
  141.8010   79.2410  220.9480 C   0  0  0  0  0  0  0  0  0  0  0  0
  142.0630   80.1930  221.9120 C   0  0  0  0  0  0  0  0  0  0  0  0
  141.8560   79.8900  223.2540 C   0  0  0  0  0  0  0  0  0  0  0  0
  141.3890   78.6290  223.5860 C   0  0  0  0  0  0  0  0  0  0  0  0
  141.1350   77.6960  222.6040 C   0  0  0  0  0  0  0  0  0  0  0  0
  139.9850   71.6590  223.6320 C   0  0  0  0  0  0  0  0  0  0  0  0
  139.5120   70.4010  223.3140 C   0  0  0  0  0  0  0  0  0  0  0  0
  139.5280   69.3550  224.2230 C   0  0  0  0  0  0  0  0  0  0  0  0
  140.0440   69.6280  225.4750 C   0  0  0  0  0  0  0  0  0  0  0  0
  140.0600   68.5860  226.3790 C   0  0  0  0  0  0  0  0  0  0  0  0
  140.5740   68.8370  227.6430 C   0  0  0  0  0  0  0  0  0  0  0  0
  140.6120   67.8440  228.5690 F   0  0  0  0  0  0  0  0  0  0  0  0
  141.0540   70.1040  227.9710 C   0  0  0  0  0  0  0  0  0  0  0  0
  141.0330   71.1470  227.0490 C   0  0  0  0  0  0  0  0  0  0  0  0
  140.5190   70.8860  225.7950 C   0  0  0  0  0  0  0  0  0  0  0  0
  140.4810   71.8850  224.8630 N   0  0  0  0  0  0  0  0  0  0  0  0
  142.0390   72.8110  222.2180 H   0  0  0  0  0  0  0  0  0  0  0  0
  140.4391   73.7525  220.0566 H   0  0  0  0  0  0  0  0  0  0  0  0
  140.2386   74.9857  221.3545 H   0  0  0  0  0  0  0  0  0  0  0  0
  143.5210   77.4974  219.2064 H   0  0  0  0  0  0  0  0  0  0  0  0
  144.1470   75.7889  219.4022 H   0  0  0  0  0  0  0  0  0  0  0  0
  144.0143   76.3091  217.0951 H   0  0  0  0  0  0  0  0  0  0  0  0
  142.7031   75.1109  217.5734 H   0  0  0  0  0  0  0  0  0  0  0  0
  142.3575   78.0416  216.9888 H   0  0  0  0  0  0  0  0  0  0  0  0
  141.8665   76.6291  215.9619 H   0  0  0  0  0  0  0  0  0  0  0  0
  139.9171   77.2700  217.0394 H   0  0  0  0  0  0  0  0  0  0  0  0
  140.5797   75.8540  218.0018 H   0  0  0  0  0  0  0  0  0  0  0  0
  141.3040   78.5680  218.8602 H   0  0  0  0  0  0  0  0  0  0  0  0
  139.5840   77.9685  219.1072 H   0  0  0  0  0  0  0  0  0  0  0  0
  140.2564   76.2767  220.5679 H   0  0  0  0  0  0  0  0  0  0  0  0
  141.9715   79.5014  219.8929 H   0  0  0  0  0  0  0  0  0  0  0  0
  142.4338   81.1868  221.6207 H   0  0  0  0  0  0  0  0  0  0  0  0
  142.0591   80.6369  224.0356 H   0  0  0  0  0  0  0  0  0  0  0  0
  141.2196   78.3702  224.6416 H   0  0  0  0  0  0  0  0  0  0  0  0
  140.7646   76.7021  222.8954 H   0  0  0  0  0  0  0  0  0  0  0  0
  139.1092   70.2234  222.3059 H   0  0  0  0  0  0  0  0  0  0  0  0
  139.1485   68.3565  223.9605 H   0  0  0  0  0  0  0  0  0  0  0  0
  139.6785   67.5908  226.1071 H   0  0  0  0  0  0  0  0  0  0  0  0
  141.4575   70.2833  228.9785 H   0  0  0  0  0  0  0  0  0  0  0  0
  141.4132   72.1454  227.3111 H   0  0  0  0  0  0  0  0  0  0  0  0
  1  2  2  0
  2  3  1  0
  3  4  1  0
  4  5  1  0
  5  6  2  0
  5  7  1  0
  7  8  1  0
  8  9  1  0
  9 10  1  0
 10 11  1  0
 11 12  1  0
 12 13  1  0
 13 14  1  0
 14 15  2  0
 15 16  1  0
 16 17  2  0
 17 18  1  0
 18 19  2  0
  2 20  1  0
 20 21  2  0
 21 22  1  0
 22 23  2  0
 23 24  1  0
 24 25  2  0
 25 26  1  0
 25 27  1  0
 27 28  2  0
 28 29  1  0
 29 30  2  0
 13  7  1  0
 19 14  1  0
 30 20  1  0
 29 23  1  0
  3 31  1  0
  4 32  1  0
  4 33  1  0
  8 34  1  0
  8 35  1  0
  9 36  1  0
  9 37  1  0
 10 38  1  0
 10 39  1  0
 11 40  1  0
 11 41  1  0
 12 42  1  0
 12 43  1  0
 13 44  1  1
 15 45  1  0
 16 46  1  0
 17 47  1  0
 18 48  1  0
 19 49  1  0
 21 50  1  0
 22 51  1  0
 24 52  1  0
 27 53  1  0
 28 54  1  0
M  END
>  <smiles>  (34) 
O=C(NCC(=O)N1CCCCCC1c1ccccc1)c1ccc2cc(F)ccc2n1

>  <score_type>  (34) 
oracle

>  <origin>  (34) 
autodockgpu

>  <m_score__min__energy>  (34) 
-6.9000000000000004

>  <m_primary>  (34) 
energy

>  <rmsd>  (34) 
2.3587108213179584

>  <m_score__min__rmsd>  (34) 
2.3587108213179584

>  <meeko>  (34) 
{"free_energy": -5.3, "intermolecular_energy": -8.58, "internal_energy": -2.01, "cluster_size": 12, "cluster_id": 2, "rank_in_cluster": 12}

>  <energy>  (34) 
-5.53

>  <cluster_rmsd>  (34) 
1.76

>  <cluster>  (34) 
4

$$$$

     RDKit          3D

 54 57  0  0  0  0  0  0  0  0999 V2000
  140.5100   71.4400  221.2090 O   0  0  0  0  0  0  0  0  0  0  0  0
  140.1650   71.9380  222.3120 C   0  0  0  0  0  0  0  0  0  0  0  0
  139.8240   73.3250  222.3050 N   0  0  0  0  0  0  0  0  0  0  0  0
  139.9170   73.9940  221.0090 C   0  0  0  0  0  0  0  0  0  0  0  0
  140.6570   75.2520  221.1420 C   0  0  0  0  0  0  0  0  0  0  0  0
  140.7670   75.7830  222.2910 O   0  0  0  0  0  0  0  0  0  0  0  0
  141.2330   75.8420  219.9770 N   0  0  0  0  0  0  0  0  0  0  0  0
  140.3570   76.1660  218.8720 C   0  0  0  0  0  0  0  0  0  0  0  0
  140.6270   75.3710  217.6260 C   0  0  0  0  0  0  0  0  0  0  0  0
  141.9740   74.7260  217.5660 C   0  0  0  0  0  0  0  0  0  0  0  0
  143.0780   75.7430  217.5200 C   0  0  0  0  0  0  0  0  0  0  0  0
  143.1360   76.6570  218.7010 C   0  0  0  0  0  0  0  0  0  0  0  0
  142.6640   76.0650  220.0050 C   0  0  2  0  0  0  0  0  0  0  0  0
  143.4430   74.8170  220.2090 C   0  0  0  0  0  0  0  0  0  0  0  0
  142.8720   73.5590  220.1840 C   0  0  0  0  0  0  0  0  0  0  0  0
  143.5980   72.4000  220.3740 C   0  0  0  0  0  0  0  0  0  0  0  0
  144.9680   72.4750  220.6030 C   0  0  0  0  0  0  0  0  0  0  0  0
  145.5690   73.7220  220.6340 C   0  0  0  0  0  0  0  0  0  0  0  0
  144.8210   74.8640  220.4410 C   0  0  0  0  0  0  0  0  0  0  0  0
  140.1140   71.1510  223.5410 C   0  0  0  0  0  0  0  0  0  0  0  0
  139.5300   69.9020  223.4800 C   0  0  0  0  0  0  0  0  0  0  0  0
  139.4320   69.0780  224.5900 C   0  0  0  0  0  0  0  0  0  0  0  0
  139.9500   69.5660  225.7740 C   0  0  0  0  0  0  0  0  0  0  0  0
  139.8520   68.7450  226.8780 C   0  0  0  0  0  0  0  0  0  0  0  0
  140.3660   69.2140  228.0790 C   0  0  0  0  0  0  0  0  0  0  0  0
  140.2930   68.4440  229.1950 F   0  0  0  0  0  0  0  0  0  0  0  0
  140.9570   70.4750  228.1480 C   0  0  0  0  0  0  0  0  0  0  0  0
  141.0500   71.2930  227.0260 C   0  0  0  0  0  0  0  0  0  0  0  0
  140.5360   70.8160  225.8380 C   0  0  0  0  0  0  0  0  0  0  0  0
  140.6080   71.5920  224.7150 N   0  0  0  0  0  0  0  0  0  0  0  0
  139.5300   73.8090  223.1720 H   0  0  0  0  0  0  0  0  0  0  0  0
  140.4402   73.3379  220.2979 H   0  0  0  0  0  0  0  0  0  0  0  0
  138.9026   74.2107  220.6428 H   0  0  0  0  0  0  0  0  0  0  0  0
  139.3198   75.9764  219.1855 H   0  0  0  0  0  0  0  0  0  0  0  0
  140.5370   77.2219  218.6216 H   0  0  0  0  0  0  0  0  0  0  0  0
  139.8665   74.5794  217.5551 H   0  0  0  0  0  0  0  0  0  0  0  0
  140.5923   76.0871  216.7917 H   0  0  0  0  0  0  0  0  0  0  0  0
  142.1071   74.0961  218.4579 H   0  0  0  0  0  0  0  0  0  0  0  0
  142.0245   74.1249  216.6462 H   0  0  0  0  0  0  0  0  0  0  0  0
  144.0358   75.2060  217.4552 H   0  0  0  0  0  0  0  0  0  0  0  0
  142.8777   76.3789  216.6451 H   0  0  0  0  0  0  0  0  0  0  0  0
  144.1808   76.9753  218.8320 H   0  0  0  0  0  0  0  0  0  0  0  0
  142.4450   77.4831  218.4772 H   0  0  0  0  0  0  0  0  0  0  0  0
  142.8344   76.7468  220.8513 H   0  0  0  0  0  0  0  0  0  0  0  0
  141.7898   73.4771  220.0046 H   0  0  0  0  0  0  0  0  0  0  0  0
  143.0954   71.4220  220.3444 H   0  0  0  0  0  0  0  0  0  0  0  0
  145.5620   71.5620  220.7564 H   0  0  0  0  0  0  0  0  0  0  0  0
  146.6512   73.8021  220.8140 H   0  0  0  0  0  0  0  0  0  0  0  0
  145.3237   75.8420  220.4704 H   0  0  0  0  0  0  0  0  0  0  0  0
  139.1290   69.5488  222.5185 H   0  0  0  0  0  0  0  0  0  0  0  0
  138.9646   68.0840  224.5311 H   0  0  0  0  0  0  0  0  0  0  0  0
  139.3826   67.7526  226.8090 H   0  0  0  0  0  0  0  0  0  0  0  0
  141.3578   70.8304  229.1087 H   0  0  0  0  0  0  0  0  0  0  0  0
  141.5178   72.2869  227.0845 H   0  0  0  0  0  0  0  0  0  0  0  0
  1  2  2  0
  2  3  1  0
  3  4  1  0
  4  5  1  0
  5  6  2  0
  5  7  1  0
  7  8  1  0
  8  9  1  0
  9 10  1  0
 10 11  1  0
 11 12  1  0
 12 13  1  0
 13 14  1  0
 14 15  2  0
 15 16  1  0
 16 17  2  0
 17 18  1  0
 18 19  2  0
  2 20  1  0
 20 21  2  0
 21 22  1  0
 22 23  2  0
 23 24  1  0
 24 25  2  0
 25 26  1  0
 25 27  1  0
 27 28  2  0
 28 29  1  0
 29 30  2  0
 13  7  1  0
 19 14  1  0
 30 20  1  0
 29 23  1  0
  3 31  1  0
  4 32  1  0
  4 33  1  0
  8 34  1  0
  8 35  1  0
  9 36  1  0
  9 37  1  0
 10 38  1  0
 10 39  1  0
 11 40  1  0
 11 41  1  0
 12 42  1  0
 12 43  1  0
 13 44  1  1
 15 45  1  0
 16 46  1  0
 17 47  1  0
 18 48  1  0
 19 49  1  0
 21 50  1  0
 22 51  1  0
 24 52  1  0
 27 53  1  0
 28 54  1  0
M  END
>  <smiles>  (35) 
O=C(NCC(=O)N1CCCCCC1c1ccccc1)c1ccc2cc(F)ccc2n1

>  <score_type>  (35) 
oracle

>  <origin>  (35) 
autodockgpu

>  <m_score__min__energy>  (35) 
-6.9000000000000004

>  <m_primary>  (35) 
energy

>  <rmsd>  (35) 
1.6012985582108716

>  <m_score__min__rmsd>  (35) 
1.6012985582108716

>  <meeko>  (35) 
{"free_energy": -5.2, "intermolecular_energy": -8.48, "internal_energy": -1.8, "cluster_size": 7, "cluster_id": 6, "rank_in_cluster": 5}

>  <energy>  (35) 
-5.42

>  <cluster_rmsd>  (35) 
1.29

>  <cluster>  (35) 
4

$$$$

     RDKit          3D

 54 57  0  0  0  0  0  0  0  0999 V2000
  140.9180   72.1320  220.9460 O   0  0  0  0  0  0  0  0  0  0  0  0
  140.4050   72.5070  222.0320 C   0  0  0  0  0  0  0  0  0  0  0  0
  140.0570   73.8900  222.1280 N   0  0  0  0  0  0  0  0  0  0  0  0
  140.3410   74.6980  220.9440 C   0  0  0  0  0  0  0  0  0  0  0  0
  141.0060   75.9460  221.3320 C   0  0  0  0  0  0  0  0  0  0  0  0
  141.0670   76.2530  222.5640 O   0  0  0  0  0  0  0  0  0  0  0  0
  141.5640   76.7760  220.3150 N   0  0  0  0  0  0  0  0  0  0  0  0
  142.7190   76.2880  219.5920 C   0  0  0  0  0  0  0  0  0  0  0  0
  142.5070   76.1760  218.1100 C   0  0  0  0  0  0  0  0  0  0  0  0
  141.4950   77.1170  217.5410 C   0  0  0  0  0  0  0  0  0  0  0  0
  141.8550   78.5510  217.8100 C   0  0  0  0  0  0  0  0  0  0  0  0
  141.7780   78.9480  219.2410 C   0  0  0  0  0  0  0  0  0  0  0  0
  140.9160   78.0530  220.0950 C   0  0  2  0  0  0  0  0  0  0  0  0
  140.6530   78.7960  221.3540 C   0  0  0  0  0  0  0  0  0  0  0  0
  141.6520   79.3850  222.1050 C   0  0  0  0  0  0  0  0  0  0  0  0
  141.4050   80.0760  223.2750 C   0  0  0  0  0  0  0  0  0  0  0  0
  140.1000   80.1980  223.7400 C   0  0  0  0  0  0  0  0  0  0  0  0
  139.0770   79.6180  223.0090 C   0  0  0  0  0  0  0  0  0  0  0  0
  139.3500   78.9340  221.8440 C   0  0  0  0  0  0  0  0  0  0  0  0
  140.1740   71.5890  223.1430 C   0  0  0  0  0  0  0  0  0  0  0  0
  139.5200   70.4040  222.8710 C   0  0  0  0  0  0  0  0  0  0  0  0
  139.2520   69.4650  223.8560 C   0  0  0  0  0  0  0  0  0  0  0  0
  139.6730   69.7710  225.1360 C   0  0  0  0  0  0  0  0  0  0  0  0
  139.4060   68.8370  226.1150 C   0  0  0  0  0  0  0  0  0  0  0  0
  139.8200   69.1220  227.4080 C   0  0  0  0  0  0  0  0  0  0  0  0
  139.5800   68.2340  228.4080 F   0  0  0  0  0  0  0  0  0  0  0  0
  140.4810   70.3160  227.6900 C   0  0  0  0  0  0  0  0  0  0  0  0
  140.7440   71.2500  226.6930 C   0  0  0  0  0  0  0  0  0  0  0  0
  140.3290   70.9560  225.4100 C   0  0  0  0  0  0  0  0  0  0  0  0
  140.5690   71.8500  224.4040 N   0  0  0  0  0  0  0  0  0  0  0  0
  139.6310   74.2760  222.9880 H   0  0  0  0  0  0  0  0  0  0  0  0
  140.9969   74.1319  220.2662 H   0  0  0  0  0  0  0  0  0  0  0  0
  139.3948   74.9374  220.4366 H   0  0  0  0  0  0  0  0  0  0  0  0
  143.5565   76.9784  219.7708 H   0  0  0  0  0  0  0  0  0  0  0  0
  142.9219   75.2725  219.9629 H   0  0  0  0  0  0  0  0  0  0  0  0
  143.4690   76.3689  217.6127 H   0  0  0  0  0  0  0  0  0  0  0  0
  142.1170   75.1629  217.9322 H   0  0  0  0  0  0  0  0  0  0  0  0
  141.4364   76.9623  216.4535 H   0  0  0  0  0  0  0  0  0  0  0  0
  140.5273   76.9108  218.0217 H   0  0  0  0  0  0  0  0  0  0  0  0
  142.8851   78.7177  217.4621 H   0  0  0  0  0  0  0  0  0  0  0  0
  141.1157   79.1649  217.2747 H   0  0  0  0  0  0  0  0  0  0  0  0
  142.7972   78.9393  219.6548 H   0  0  0  0  0  0  0  0  0  0  0  0
  141.3117   79.9440  219.2636 H   0  0  0  0  0  0  0  0  0  0  0  0
  139.9615   77.8122  219.6040 H   0  0  0  0  0  0  0  0  0  0  0  0
  142.6914   79.2997  221.7551 H   0  0  0  0  0  0  0  0  0  0  0  0
  142.2363   80.5276  223.8363 H   0  0  0  0  0  0  0  0  0  0  0  0
  139.8848   80.7444  224.6701 H   0  0  0  0  0  0  0  0  0  0  0  0
  138.0383   79.7038  223.3608 H   0  0  0  0  0  0  0  0  0  0  0  0
  138.5184   78.4831  221.2827 H   0  0  0  0  0  0  0  0  0  0  0  0
  139.2008   70.1976  221.8387 H   0  0  0  0  0  0  0  0  0  0  0  0
  138.7302   68.5235  223.6295 H   0  0  0  0  0  0  0  0  0  0  0  0
  138.8829   67.8986  225.8788 H   0  0  0  0  0  0  0  0  0  0  0  0
  140.8012   70.5242  228.7216 H   0  0  0  0  0  0  0  0  0  0  0  0
  141.2655   72.1916  226.9198 H   0  0  0  0  0  0  0  0  0  0  0  0
  1  2  2  0
  2  3  1  0
  3  4  1  0
  4  5  1  0
  5  6  2  0
  5  7  1  0
  7  8  1  0
  8  9  1  0
  9 10  1  0
 10 11  1  0
 11 12  1  0
 12 13  1  0
 13 14  1  0
 14 15  2  0
 15 16  1  0
 16 17  2  0
 17 18  1  0
 18 19  2  0
  2 20  1  0
 20 21  2  0
 21 22  1  0
 22 23  2  0
 23 24  1  0
 24 25  2  0
 25 26  1  0
 25 27  1  0
 27 28  2  0
 28 29  1  0
 29 30  2  0
 13  7  1  0
 19 14  1  0
 30 20  1  0
 29 23  1  0
  3 31  1  0
  4 32  1  0
  4 33  1  0
  8 34  1  0
  8 35  1  0
  9 36  1  0
  9 37  1  0
 10 38  1  0
 10 39  1  0
 11 40  1  0
 11 41  1  0
 12 42  1  0
 12 43  1  0
 13 44  1  6
 15 45  1  0
 16 46  1  0
 17 47  1  0
 18 48  1  0
 19 49  1  0
 21 50  1  0
 22 51  1  0
 24 52  1  0
 27 53  1  0
 28 54  1  0
M  END
>  <smiles>  (36) 
O=C(NCC(=O)N1CCCCCC1c1ccccc1)c1ccc2cc(F)ccc2n1

>  <score_type>  (36) 
oracle

>  <origin>  (36) 
autodockgpu

>  <m_score__min__energy>  (36) 
-6.9000000000000004

>  <m_primary>  (36) 
energy

>  <rmsd>  (36) 
2.1979373110325575

>  <m_score__min__rmsd>  (36) 
2.1979373110325575

>  <meeko>  (36) 
{"free_energy": -5.88, "intermolecular_energy": -9.16, "internal_energy": -1.82, "cluster_size": 12, "cluster_id": 2, "rank_in_cluster": 8}

>  <energy>  (36) 
-6.18

>  <cluster_rmsd>  (36) 
0.0

>  <cluster>  (36) 
5

$$$$

     RDKit          3D

 54 57  0  0  0  0  0  0  0  0999 V2000
  141.1880   77.1760  217.4840 O   0  0  0  0  0  0  0  0  0  0  0  0
  142.1690   77.0950  218.2680 C   0  0  0  0  0  0  0  0  0  0  0  0
  142.4750   78.2660  219.0280 N   0  0  0  0  0  0  0  0  0  0  0  0
  141.6020   79.4150  218.7990 C   0  0  0  0  0  0  0  0  0  0  0  0
  140.6140   79.5220  219.8760 C   0  0  0  0  0  0  0  0  0  0  0  0
  140.1340   80.6650  220.1600 O   0  0  0  0  0  0  0  0  0  0  0  0
  140.2190   78.3420  220.5720 N   0  0  0  0  0  0  0  0  0  0  0  0
  139.1050   77.5800  220.0490 C   0  0  0  0  0  0  0  0  0  0  0  0
  139.4080   76.1250  219.8350 C   0  0  0  0  0  0  0  0  0  0  0  0
  140.2580   75.4930  220.8900 C   0  0  0  0  0  0  0  0  0  0  0  0
  139.7830   75.8420  222.2710 C   0  0  0  0  0  0  0  0  0  0  0  0
  140.1340   77.2150  222.7260 C   0  0  0  0  0  0  0  0  0  0  0  0
  140.9780   78.0060  221.7590 C   0  0  2  0  0  0  0  0  0  0  0  0
  141.4600   79.2000  222.4990 C   0  0  0  0  0  0  0  0  0  0  0  0
  140.6090   80.1360  223.0570 C   0  0  0  0  0  0  0  0  0  0  0  0
  141.0590   81.2460  223.7440 C   0  0  0  0  0  0  0  0  0  0  0  0
  142.4260   81.4550  223.8940 C   0  0  0  0  0  0  0  0  0  0  0  0
  143.3040   80.5350  223.3460 C   0  0  0  0  0  0  0  0  0  0  0  0
  142.8290   79.4350  222.6650 C   0  0  0  0  0  0  0  0  0  0  0  0
  142.9620   75.8770  218.4010 C   0  0  0  0  0  0  0  0  0  0  0  0
  142.9620   74.9910  217.3430 C   0  0  0  0  0  0  0  0  0  0  0  0
  143.6810   73.8070  217.3700 C   0  0  0  0  0  0  0  0  0  0  0  0
  144.4080   73.5480  218.5160 C   0  0  0  0  0  0  0  0  0  0  0  0
  145.1240   72.3690  218.5430 C   0  0  0  0  0  0  0  0  0  0  0  0
  145.8610   72.0880  219.6840 C   0  0  0  0  0  0  0  0  0  0  0  0
  146.5830   70.9400  219.7600 F   0  0  0  0  0  0  0  0  0  0  0  0
  145.8670   72.9780  220.7570 C   0  0  0  0  0  0  0  0  0  0  0  0
  145.1410   74.1640  220.7180 C   0  0  0  0  0  0  0  0  0  0  0  0
  144.4110   74.4330  219.5780 C   0  0  0  0  0  0  0  0  0  0  0  0
  143.6840   75.5880  219.5020 N   0  0  0  0  0  0  0  0  0  0  0  0
  143.2660   78.2800  219.6950 H   0  0  0  0  0  0  0  0  0  0  0  0
  142.2086   80.3322  218.7698 H   0  0  0  0  0  0  0  0  0  0  0  0
  141.0767   79.2818  217.8417 H   0  0  0  0  0  0  0  0  0  0  0  0
  138.2684   77.6585  220.7589 H   0  0  0  0  0  0  0  0  0  0  0  0
  138.8643   78.0037  219.0628 H   0  0  0  0  0  0  0  0  0  0  0  0
  138.4532   75.5803  219.7949 H   0  0  0  0  0  0  0  0  0  0  0  0
  139.9851   76.0662  218.9004 H   0  0  0  0  0  0  0  0  0  0  0  0
  140.2243   74.4004  220.7673 H   0  0  0  0  0  0  0  0  0  0  0  0
  141.2842   75.8720  220.7751 H   0  0  0  0  0  0  0  0  0  0  0  0
  138.6874   75.7453  222.2902 H   0  0  0  0  0  0  0  0  0  0  0  0
  140.2932   75.1498  222.9569 H   0  0  0  0  0  0  0  0  0  0  0  0
  139.1988   77.7686  222.8958 H   0  0  0  0  0  0  0  0  0  0  0  0
  140.7387   77.0938  223.6369 H   0  0  0  0  0  0  0  0  0  0  0  0
  141.8392   77.4260  221.3959 H   0  0  0  0  0  0  0  0  0  0  0  0
  139.5242   79.9897  222.9487 H   0  0  0  0  0  0  0  0  0  0  0  0
  140.3403   81.9612  224.1704 H   0  0  0  0  0  0  0  0  0  0  0  0
  142.8023   82.3342  224.4375 H   0  0  0  0  0  0  0  0  0  0  0  0
  144.3885   80.6833  223.4550 H   0  0  0  0  0  0  0  0  0  0  0  0
  143.5483   78.7200  222.2390 H   0  0  0  0  0  0  0  0  0  0  0  0
  142.3709   75.2331  216.4475 H   0  0  0  0  0  0  0  0  0  0  0  0
  143.6734   73.1077  216.5209 H   0  0  0  0  0  0  0  0  0  0  0  0
  145.1109   71.6757  217.6891 H   0  0  0  0  0  0  0  0  0  0  0  0
  146.4580   72.7375  221.6530 H   0  0  0  0  0  0  0  0  0  0  0  0
  145.1485   74.8636  221.5668 H   0  0  0  0  0  0  0  0  0  0  0  0
  1  2  2  0
  2  3  1  0
  3  4  1  0
  4  5  1  0
  5  6  2  0
  5  7  1  0
  7  8  1  0
  8  9  1  0
  9 10  1  0
 10 11  1  0
 11 12  1  0
 12 13  1  0
 13 14  1  0
 14 15  2  0
 15 16  1  0
 16 17  2  0
 17 18  1  0
 18 19  2  0
  2 20  1  0
 20 21  2  0
 21 22  1  0
 22 23  2  0
 23 24  1  0
 24 25  2  0
 25 26  1  0
 25 27  1  0
 27 28  2  0
 28 29  1  0
 29 30  2  0
 13  7  1  0
 19 14  1  0
 30 20  1  0
 29 23  1  0
  3 31  1  0
  4 32  1  0
  4 33  1  0
  8 34  1  0
  8 35  1  0
  9 36  1  0
  9 37  1  0
 10 38  1  0
 10 39  1  0
 11 40  1  0
 11 41  1  0
 12 42  1  0
 12 43  1  0
 13 44  1  6
 15 45  1  0
 16 46  1  0
 17 47  1  0
 18 48  1  0
 19 49  1  0
 21 50  1  0
 22 51  1  0
 24 52  1  0
 27 53  1  0
 28 54  1  0
M  END
>  <smiles>  (37) 
O=C(NCC(=O)N1CCCCCC1c1ccccc1)c1ccc2cc(F)ccc2n1

>  <score_type>  (37) 
oracle

>  <origin>  (37) 
autodockgpu

>  <m_score__min__energy>  (37) 
-6.9000000000000004

>  <m_primary>  (37) 
energy

>  <rmsd>  (37) 
7.307355164546367

>  <m_score__min__rmsd>  (37) 
7.307355164546367

>  <meeko>  (37) 
{"free_energy": -4.41, "intermolecular_energy": -7.69, "internal_energy": -2.56, "cluster_size": 1, "cluster_id": 10, "rank_in_cluster": 1}

>  <energy>  (37) 
-5.91

>  <cluster_rmsd>  (37) 
1.08

>  <cluster>  (37) 
5

$$$$

     RDKit          3D

 54 57  0  0  0  0  0  0  0  0999 V2000
  137.2340   75.2800  222.4820 O   0  0  0  0  0  0  0  0  0  0  0  0
  138.4540   75.5630  222.3610 C   0  0  0  0  0  0  0  0  0  0  0  0
  139.3280   74.4840  222.0260 N   0  0  0  0  0  0  0  0  0  0  0  0
  138.6900   73.1790  221.8620 C   0  0  0  0  0  0  0  0  0  0  0  0
  139.5390   72.1270  222.4290 C   0  0  0  0  0  0  0  0  0  0  0  0
  140.7060   71.9550  221.9540 O   0  0  0  0  0  0  0  0  0  0  0  0
  139.0310   71.3290  223.4970 N   0  0  0  0  0  0  0  0  0  0  0  0
  137.6400   71.4860  223.8650 C   0  0  0  0  0  0  0  0  0  0  0  0
  136.7160   70.5180  223.1830 C   0  0  0  0  0  0  0  0  0  0  0  0
  137.0500   69.0750  223.3850 C   0  0  0  0  0  0  0  0  0  0  0  0
  138.4540   68.7610  222.9560 C   0  0  0  0  0  0  0  0  0  0  0  0
  139.4920   68.9950  224.0030 C   0  0  0  0  0  0  0  0  0  0  0  0
  139.9670   70.4210  224.1270 C   0  0  2  0  0  0  0  0  0  0  0  0
  140.1420   70.6820  225.5790 C   0  0  0  0  0  0  0  0  0  0  0  0
  140.8140   71.7850  226.0710 C   0  0  0  0  0  0  0  0  0  0  0  0
  140.9760   72.0260  227.4210 C   0  0  0  0  0  0  0  0  0  0  0  0
  140.4500   71.1330  228.3480 C   0  0  0  0  0  0  0  0  0  0  0  0
  139.7720   70.0170  227.8850 C   0  0  0  0  0  0  0  0  0  0  0  0
  139.6230   69.8000  226.5320 C   0  0  0  0  0  0  0  0  0  0  0  0
  138.9620   76.9180  222.5530 C   0  0  0  0  0  0  0  0  0  0  0  0
  138.0540   77.9570  222.5070 C   0  0  0  0  0  0  0  0  0  0  0  0
  138.4340   79.2790  222.6770 C   0  0  0  0  0  0  0  0  0  0  0  0
  139.7780   79.5150  222.8960 C   0  0  0  0  0  0  0  0  0  0  0  0
  140.1560   80.8310  223.0650 C   0  0  0  0  0  0  0  0  0  0  0  0
  141.5000   81.0920  223.2870 C   0  0  0  0  0  0  0  0  0  0  0  0
  141.9240   82.3710  223.4590 F   0  0  0  0  0  0  0  0  0  0  0  0
  142.4230   80.0480  223.3350 C   0  0  0  0  0  0  0  0  0  0  0  0
  142.0290   78.7250  223.1640 C   0  0  0  0  0  0  0  0  0  0  0  0
  140.6890   78.4770  222.9430 C   0  0  0  0  0  0  0  0  0  0  0  0
  140.2630   77.1890  222.7690 N   0  0  0  0  0  0  0  0  0  0  0  0
  140.3450   74.6350  221.9080 H   0  0  0  0  0  0  0  0  0  0  0  0
  137.7193   73.1812  222.3795 H   0  0  0  0  0  0  0  0  0  0  0  0
  138.5427   72.9831  220.7897 H   0  0  0  0  0  0  0  0  0  0  0  0
  137.5511   71.3421  224.9519 H   0  0  0  0  0  0  0  0  0  0  0  0
  137.3376   72.4943  223.5458 H   0  0  0  0  0  0  0  0  0  0  0  0
  135.6992   70.6896  223.5660 H   0  0  0  0  0  0  0  0  0  0  0  0
  136.8147   70.7078  222.1040 H   0  0  0  0  0  0  0  0  0  0  0  0
  136.9409   68.8305  224.4519 H   0  0  0  0  0  0  0  0  0  0  0  0
  136.3629   68.4761  222.7691 H   0  0  0  0  0  0  0  0  0  0  0  0
  138.4944   67.7012  222.6640 H   0  0  0  0  0  0  0  0  0  0  0  0
  138.6871   69.4466  222.1280 H   0  0  0  0  0  0  0  0  0  0  0  0
  139.0721   68.6904  224.9730 H   0  0  0  0  0  0  0  0  0  0  0  0
  140.3700   68.4054  223.7005 H   0  0  0  0  0  0  0  0  0  0  0  0
  140.9221   70.5828  223.6059 H   0  0  0  0  0  0  0  0  0  0  0  0
  141.2391   72.5035  225.3547 H   0  0  0  0  0  0  0  0  0  0  0  0
  141.5186   72.9202  227.7615 H   0  0  0  0  0  0  0  0  0  0  0  0
  140.5698   71.3091  229.4272 H   0  0  0  0  0  0  0  0  0  0  0  0
  139.3493   69.2985  228.6027 H   0  0  0  0  0  0  0  0  0  0  0  0
  139.0795   68.9062  226.1917 H   0  0  0  0  0  0  0  0  0  0  0  0
  136.9929   77.7278  222.3294 H   0  0  0  0  0  0  0  0  0  0  0  0
  137.7023   80.0995  222.6395 H   0  0  0  0  0  0  0  0  0  0  0  0
  139.4172   81.6450  223.0251 H   0  0  0  0  0  0  0  0  0  0  0  0
  143.4846   80.2753  223.5118 H   0  0  0  0  0  0  0  0  0  0  0  0
  142.7603   77.9042  223.2035 H   0  0  0  0  0  0  0  0  0  0  0  0
  1  2  2  0
  2  3  1  0
  3  4  1  0
  4  5  1  0
  5  6  2  0
  5  7  1  0
  7  8  1  0
  8  9  1  0
  9 10  1  0
 10 11  1  0
 11 12  1  0
 12 13  1  0
 13 14  1  0
 14 15  2  0
 15 16  1  0
 16 17  2  0
 17 18  1  0
 18 19  2  0
  2 20  1  0
 20 21  2  0
 21 22  1  0
 22 23  2  0
 23 24  1  0
 24 25  2  0
 25 26  1  0
 25 27  1  0
 27 28  2  0
 28 29  1  0
 29 30  2  0
 13  7  1  0
 19 14  1  0
 30 20  1  0
 29 23  1  0
  3 31  1  0
  4 32  1  0
  4 33  1  0
  8 34  1  0
  8 35  1  0
  9 36  1  0
  9 37  1  0
 10 38  1  0
 10 39  1  0
 11 40  1  0
 11 41  1  0
 12 42  1  0
 12 43  1  0
 13 44  1  6
 15 45  1  0
 16 46  1  0
 17 47  1  0
 18 48  1  0
 19 49  1  0
 21 50  1  0
 22 51  1  0
 24 52  1  0
 27 53  1  0
 28 54  1  0
M  END
>  <smiles>  (38) 
O=C(NCC(=O)N1CCCCCC1c1ccccc1)c1ccc2cc(F)ccc2n1

>  <score_type>  (38) 
oracle

>  <origin>  (38) 
autodockgpu

>  <m_score__min__energy>  (38) 
-6.9000000000000004

>  <m_primary>  (38) 
energy

>  <rmsd>  (38) 
8.633994418290255

>  <m_score__min__rmsd>  (38) 
8.633994418290255

>  <meeko>  (38) 
{"free_energy": -5.53, "intermolecular_energy": -8.81, "internal_energy": -1.86, "cluster_size": 10, "cluster_id": 1, "rank_in_cluster": 10}

>  <energy>  (38) 
-5.15

>  <cluster_rmsd>  (38) 
1.6

>  <cluster>  (38) 
5

$$$$

     RDKit          3D

 54 57  0  0  0  0  0  0  0  0999 V2000
  138.5600   70.8600  221.3810 O   0  0  0  0  0  0  0  0  0  0  0  0
  138.8600   71.5840  222.3650 C   0  0  0  0  0  0  0  0  0  0  0  0
  138.6570   72.9900  222.2070 N   0  0  0  0  0  0  0  0  0  0  0  0
  138.1220   73.4110  220.9140 C   0  0  0  0  0  0  0  0  0  0  0  0
  139.1540   73.3020  219.8800 C   0  0  0  0  0  0  0  0  0  0  0  0
  139.0350   72.4080  218.9830 O   0  0  0  0  0  0  0  0  0  0  0  0
  140.2600   74.2020  219.9090 N   0  0  0  0  0  0  0  0  0  0  0  0
  140.4510   75.0870  218.7800 C   0  0  0  0  0  0  0  0  0  0  0  0
  140.8870   76.4740  219.1590 C   0  0  0  0  0  0  0  0  0  0  0  0
  140.0450   77.1410  220.1970 C   0  0  0  0  0  0  0  0  0  0  0  0
  140.1220   76.4310  221.5190 C   0  0  0  0  0  0  0  0  0  0  0  0
  141.2910   75.5240  221.6710 C   0  0  0  0  0  0  0  0  0  0  0  0
  141.1070   74.1480  221.0830 C   0  0  2  0  0  0  0  0  0  0  0  0
  142.4680   73.6280  220.7940 C   0  0  0  0  0  0  0  0  0  0  0  0
  142.7790   72.2810  220.8060 C   0  0  0  0  0  0  0  0  0  0  0  0
  144.0440   71.7980  220.5380 C   0  0  0  0  0  0  0  0  0  0  0  0
  145.0710   72.6880  220.2410 C   0  0  0  0  0  0  0  0  0  0  0  0
  144.7910   74.0440  220.2220 C   0  0  0  0  0  0  0  0  0  0  0  0
  143.5190   74.5000  220.4930 C   0  0  0  0  0  0  0  0  0  0  0  0
  139.3900   71.0300  223.6070 C   0  0  0  0  0  0  0  0  0  0  0  0
  140.2930   71.7950  224.3180 C   0  0  0  0  0  0  0  0  0  0  0  0
  140.8530   71.3610  225.5090 C   0  0  0  0  0  0  0  0  0  0  0  0
  140.4650   70.1130  225.9590 C   0  0  0  0  0  0  0  0  0  0  0  0
  141.0240   69.6810  227.1440 C   0  0  0  0  0  0  0  0  0  0  0  0
  140.6480   68.4320  227.6160 C   0  0  0  0  0  0  0  0  0  0  0  0
  141.1700   67.9610  228.7790 F   0  0  0  0  0  0  0  0  0  0  0  0
  139.7370   67.6540  226.9040 C   0  0  0  0  0  0  0  0  0  0  0  0
  139.1800   68.1010  225.7100 C   0  0  0  0  0  0  0  0  0  0  0  0
  139.5610   69.3460  225.2500 C   0  0  0  0  0  0  0  0  0  0  0  0
  139.0360   69.8190  224.0800 N   0  0  0  0  0  0  0  0  0  0  0  0
  138.8800   73.6520  222.9700 H   0  0  0  0  0  0  0  0  0  0  0  0
  137.2703   72.7684  220.6465 H   0  0  0  0  0  0  0  0  0  0  0  0
  137.7941   74.4586  220.9850 H   0  0  0  0  0  0  0  0  0  0  0  0
  141.2182   74.6502  218.1238 H   0  0  0  0  0  0  0  0  0  0  0  0
  139.4747   75.1845  218.2827 H   0  0  0  0  0  0  0  0  0  0  0  0
  141.9166   76.4150  219.5416 H   0  0  0  0  0  0  0  0  0  0  0  0
  140.7924   77.0845  218.2489 H   0  0  0  0  0  0  0  0  0  0  0  0
  140.3944   78.1758  220.3278 H   0  0  0  0  0  0  0  0  0  0  0  0
  138.9994   77.1167  219.8563 H   0  0  0  0  0  0  0  0  0  0  0  0
  140.1722   77.1904  222.3132 H   0  0  0  0  0  0  0  0  0  0  0  0
  139.2261   75.7959  221.5829 H   0  0  0  0  0  0  0  0  0  0  0  0
  142.1546   75.9939  221.1776 H   0  0  0  0  0  0  0  0  0  0  0  0
  141.4323   75.3812  222.7525 H   0  0  0  0  0  0  0  0  0  0  0  0
  140.5933   73.4688  221.7793 H   0  0  0  0  0  0  0  0  0  0  0  0
  141.9813   71.5607  221.0400 H   0  0  0  0  0  0  0  0  0  0  0  0
  144.2388   70.7156  220.5592 H   0  0  0  0  0  0  0  0  0  0  0  0
  146.0856   72.3218  220.0255 H   0  0  0  0  0  0  0  0  0  0  0  0
  145.5902   74.7629  219.9888 H   0  0  0  0  0  0  0  0  0  0  0  0
  143.3246   75.5825  220.4719 H   0  0  0  0  0  0  0  0  0  0  0  0
  140.5776   72.7825  223.9258 H   0  0  0  0  0  0  0  0  0  0  0  0
  141.5707   71.9790  226.0685 H   0  0  0  0  0  0  0  0  0  0  0  0
  141.7427   70.3052  227.6952 H   0  0  0  0  0  0  0  0  0  0  0  0
  139.4523   66.6657  227.2942 H   0  0  0  0  0  0  0  0  0  0  0  0
  138.4608   67.4838  225.1516 H   0  0  0  0  0  0  0  0  0  0  0  0
  1  2  2  0
  2  3  1  0
  3  4  1  0
  4  5  1  0
  5  6  2  0
  5  7  1  0
  7  8  1  0
  8  9  1  0
  9 10  1  0
 10 11  1  0
 11 12  1  0
 12 13  1  0
 13 14  1  0
 14 15  2  0
 15 16  1  0
 16 17  2  0
 17 18  1  0
 18 19  2  0
  2 20  1  0
 20 21  2  0
 21 22  1  0
 22 23  2  0
 23 24  1  0
 24 25  2  0
 25 26  1  0
 25 27  1  0
 27 28  2  0
 28 29  1  0
 29 30  2  0
 13  7  1  0
 19 14  1  0
 30 20  1  0
 29 23  1  0
  3 31  1  0
  4 32  1  0
  4 33  1  0
  8 34  1  0
  8 35  1  0
  9 36  1  0
  9 37  1  0
 10 38  1  0
 10 39  1  0
 11 40  1  0
 11 41  1  0
 12 42  1  0
 12 43  1  0
 13 44  1  1
 15 45  1  0
 16 46  1  0
 17 47  1  0
 18 48  1  0
 19 49  1  0
 21 50  1  0
 22 51  1  0
 24 52  1  0
 27 53  1  0
 28 54  1  0
M  END
>  <smiles>  (39) 
O=C(NCC(=O)N1CCCCCC1c1ccccc1)c1ccc2cc(F)ccc2n1

>  <score_type>  (39) 
oracle

>  <origin>  (39) 
autodockgpu

>  <m_score__min__energy>  (39) 
-6.9000000000000004

>  <m_primary>  (39) 
energy

>  <rmsd>  (39) 
2.9578348612199825

>  <m_score__min__rmsd>  (39) 
2.9578348612199825

>  <meeko>  (39) 
{"free_energy": -5.26, "intermolecular_energy": -8.54, "internal_energy": -2.03, "cluster_size": 7, "cluster_id": 6, "rank_in_cluster": 3}

>  <energy>  (39) 
-6.11

>  <cluster_rmsd>  (39) 
0.0

>  <cluster>  (39) 
6

$$$$

     RDKit          3D

 54 57  0  0  0  0  0  0  0  0999 V2000
  138.7950   72.0570  221.4410 O   0  0  0  0  0  0  0  0  0  0  0  0
  139.7160   72.2090  222.2840 C   0  0  0  0  0  0  0  0  0  0  0  0
  140.6790   73.2250  221.9990 N   0  0  0  0  0  0  0  0  0  0  0  0
  140.4700   73.9650  220.7570 C   0  0  0  0  0  0  0  0  0  0  0  0
  141.0950   75.2880  220.8440 C   0  0  0  0  0  0  0  0  0  0  0  0
  142.3600   75.3780  220.7520 O   0  0  0  0  0  0  0  0  0  0  0  0
  140.2660   76.4340  221.0300 N   0  0  0  0  0  0  0  0  0  0  0  0
  139.7030   77.0670  219.8560 C   0  0  0  0  0  0  0  0  0  0  0  0
  138.3320   76.5720  219.4960 C   0  0  0  0  0  0  0  0  0  0  0  0
  137.2970   76.7410  220.5610 C   0  0  0  0  0  0  0  0  0  0  0  0
  137.7720   77.6450  221.6620 C   0  0  0  0  0  0  0  0  0  0  0  0
  138.5870   76.9670  222.7070 C   0  0  0  0  0  0  0  0  0  0  0  0
  140.0590   76.8680  222.3960 C   0  0  2  0  0  0  0  0  0  0  0  0
  140.6400   78.2060  222.6750 C   0  0  0  0  0  0  0  0  0  0  0  0
  140.0210   79.1450  223.4790 C   0  0  0  0  0  0  0  0  0  0  0  0
  140.5630   80.3880  223.7370 C   0  0  0  0  0  0  0  0  0  0  0  0
  141.7860   80.7370  223.1740 C   0  0  0  0  0  0  0  0  0  0  0  0
  142.4310   79.8170  222.3640 C   0  0  0  0  0  0  0  0  0  0  0  0
  141.8680   78.5820  222.1220 C   0  0  0  0  0  0  0  0  0  0  0  0
  139.8090   71.3960  223.4940 C   0  0  0  0  0  0  0  0  0  0  0  0
  139.2530   70.1320  223.4620 C   0  0  0  0  0  0  0  0  0  0  0  0
  139.2880   69.2830  224.5560 C   0  0  0  0  0  0  0  0  0  0  0  0
  139.9090   69.7610  225.6940 C   0  0  0  0  0  0  0  0  0  0  0  0
  139.9430   68.9150  226.7830 C   0  0  0  0  0  0  0  0  0  0  0  0
  140.5620   69.3730  227.9370 C   0  0  0  0  0  0  0  0  0  0  0  0
  140.6220   68.5780  229.0370 F   0  0  0  0  0  0  0  0  0  0  0  0
  141.1250   70.6480  227.9760 C   0  0  0  0  0  0  0  0  0  0  0  0
  141.0850   71.4920  226.8710 C   0  0  0  0  0  0  0  0  0  0  0  0
  140.4660   71.0250  225.7280 C   0  0  0  0  0  0  0  0  0  0  0  0
  140.4060   71.8260  224.6220 N   0  0  0  0  0  0  0  0  0  0  0  0
  141.4680   73.4130  222.6430 H   0  0  0  0  0  0  0  0  0  0  0  0
  140.9172   73.4062  219.9216 H   0  0  0  0  0  0  0  0  0  0  0  0
  139.3897   74.0889  220.5908 H   0  0  0  0  0  0  0  0  0  0  0  0
  139.6426   78.1495  220.0416 H   0  0  0  0  0  0  0  0  0  0  0  0
  140.3636   76.8192  219.0121 H   0  0  0  0  0  0  0  0  0  0  0  0
  137.9953   77.1199  218.6036 H   0  0  0  0  0  0  0  0  0  0  0  0
  138.4304   75.4885  219.3336 H   0  0  0  0  0  0  0  0  0  0  0  0
  136.3908   77.1732  220.1115 H   0  0  0  0  0  0  0  0  0  0  0  0
  137.0896   75.7522  220.9961 H   0  0  0  0  0  0  0  0  0  0  0  0
  138.3828   78.4421  221.2130 H   0  0  0  0  0  0  0  0  0  0  0  0
  136.8712   78.0262  222.1653 H   0  0  0  0  0  0  0  0  0  0  0  0
  138.4728   77.5271  223.6468 H   0  0  0  0  0  0  0  0  0  0  0  0
  138.2136   75.9342  222.7689 H   0  0  0  0  0  0  0  0  0  0  0  0
  140.5602   76.1121  223.0184 H   0  0  0  0  0  0  0  0  0  0  0  0
  139.0524   78.8900  223.9338 H   0  0  0  0  0  0  0  0  0  0  0  0
  140.0300   81.0994  224.3850 H   0  0  0  0  0  0  0  0  0  0  0  0
  142.2320   81.7236  223.3681 H   0  0  0  0  0  0  0  0  0  0  0  0
  143.3997   80.0737  221.9104 H   0  0  0  0  0  0  0  0  0  0  0  0
  142.4011   77.8707  221.4741 H   0  0  0  0  0  0  0  0  0  0  0  0
  138.7664   69.7882  222.5373 H   0  0  0  0  0  0  0  0  0  0  0  0
  138.8432   68.2776  224.5205 H   0  0  0  0  0  0  0  0  0  0  0  0
  139.4946   67.9115  226.7380 H   0  0  0  0  0  0  0  0  0  0  0  0
  141.6111   70.9938  228.9002 H   0  0  0  0  0  0  0  0  0  0  0  0
  141.5311   72.4969  226.9063 H   0  0  0  0  0  0  0  0  0  0  0  0
  1  2  2  0
  2  3  1  0
  3  4  1  0
  4  5  1  0
  5  6  2  0
  5  7  1  0
  7  8  1  0
  8  9  1  0
  9 10  1  0
 10 11  1  0
 11 12  1  0
 12 13  1  0
 13 14  1  0
 14 15  2  0
 15 16  1  0
 16 17  2  0
 17 18  1  0
 18 19  2  0
  2 20  1  0
 20 21  2  0
 21 22  1  0
 22 23  2  0
 23 24  1  0
 24 25  2  0
 25 26  1  0
 25 27  1  0
 27 28  2  0
 28 29  1  0
 29 30  2  0
 13  7  1  0
 19 14  1  0
 30 20  1  0
 29 23  1  0
  3 31  1  0
  4 32  1  0
  4 33  1  0
  8 34  1  0
  8 35  1  0
  9 36  1  0
  9 37  1  0
 10 38  1  0
 10 39  1  0
 11 40  1  0
 11 41  1  0
 12 42  1  0
 12 43  1  0
 13 44  1  1
 15 45  1  0
 16 46  1  0
 17 47  1  0
 18 48  1  0
 19 49  1  0
 21 50  1  0
 22 51  1  0
 24 52  1  0
 27 53  1  0
 28 54  1  0
M  END
>  <smiles>  (40) 
O=C(NCC(=O)N1CCCCCC1c1ccccc1)c1ccc2cc(F)ccc2n1

>  <score_type>  (40) 
oracle

>  <origin>  (40) 
autodockgpu

>  <m_score__min__energy>  (40) 
-6.9000000000000004

>  <m_primary>  (40) 
energy

>  <rmsd>  (40) 
2.537317170739282

>  <m_score__min__rmsd>  (40) 
2.537317170739282

>  <meeko>  (40) 
{"free_energy": -5.99, "intermolecular_energy": -9.27, "internal_energy": -1.81, "cluster_size": 6, "cluster_id": 3, "rank_in_cluster": 4}

>  <energy>  (40) 
-5.37

>  <cluster_rmsd>  (40) 
0.8

>  <cluster>  (40) 
6

$$$$

     RDKit          3D

 54 57  0  0  0  0  0  0  0  0999 V2000
  140.2250   71.7560  221.0890 O   0  0  0  0  0  0  0  0  0  0  0  0
  139.9250   72.2540  222.2050 C   0  0  0  0  0  0  0  0  0  0  0  0
  139.6080   73.6470  222.2160 N   0  0  0  0  0  0  0  0  0  0  0  0
  139.6730   74.3220  220.9220 C   0  0  0  0  0  0  0  0  0  0  0  0
  140.3990   75.5890  221.0480 C   0  0  0  0  0  0  0  0  0  0  0  0
  140.8560   75.9250  222.1860 O   0  0  0  0  0  0  0  0  0  0  0  0
  140.5700   76.4070  219.8920 N   0  0  0  0  0  0  0  0  0  0  0  0
  141.1400   75.8030  218.7070 C   0  0  0  0  0  0  0  0  0  0  0  0
  142.5940   76.1190  218.5010 C   0  0  0  0  0  0  0  0  0  0  0  0
  142.8800   77.5090  218.0290 C   0  0  0  0  0  0  0  0  0  0  0  0
  142.3300   78.5410  218.9720 C   0  0  0  0  0  0  0  0  0  0  0  0
  140.8440   78.6440  218.9780 C   0  0  0  0  0  0  0  0  0  0  0  0
  140.1520   77.7890  220.0090 C   0  0  2  0  0  0  0  0  0  0  0  0
  140.4710   78.3830  221.3320 C   0  0  0  0  0  0  0  0  0  0  0  0
  141.7640   78.5870  221.7750 C   0  0  0  0  0  0  0  0  0  0  0  0
  142.0590   79.1390  223.0060 C   0  0  0  0  0  0  0  0  0  0  0  0
  141.0250   79.5140  223.8570 C   0  0  0  0  0  0  0  0  0  0  0  0
  139.7180   79.3220  223.4420 C   0  0  0  0  0  0  0  0  0  0  0  0
  139.4510   78.7690  222.2080 C   0  0  0  0  0  0  0  0  0  0  0  0
  139.8970   71.4610  223.4300 C   0  0  0  0  0  0  0  0  0  0  0  0
  139.2240   70.2560  223.4010 C   0  0  0  0  0  0  0  0  0  0  0  0
  139.1410   69.4300  224.5100 C   0  0  0  0  0  0  0  0  0  0  0  0
  139.7660   69.8690  225.6610 C   0  0  0  0  0  0  0  0  0  0  0  0
  139.6810   69.0460  226.7650 C   0  0  0  0  0  0  0  0  0  0  0  0
  140.3030   69.4670  227.9320 C   0  0  0  0  0  0  0  0  0  0  0  0
  140.2490   68.6930  229.0470 F   0  0  0  0  0  0  0  0  0  0  0  0
  140.9840   70.6830  227.9690 C   0  0  0  0  0  0  0  0  0  0  0  0
  141.0630   71.5030  226.8480 C   0  0  0  0  0  0  0  0  0  0  0  0
  140.4410   71.0750  225.6930 C   0  0  0  0  0  0  0  0  0  0  0  0
  140.4950   71.8540  224.5720 N   0  0  0  0  0  0  0  0  0  0  0  0
  139.3510   74.1310  223.0940 H   0  0  0  0  0  0  0  0  0  0  0  0
  140.1936   73.6751  220.2005 H   0  0  0  0  0  0  0  0  0  0  0  0
  138.6504   74.5274  220.5725 H   0  0  0  0  0  0  0  0  0  0  0  0
  141.0311   74.7114  218.7883 H   0  0  0  0  0  0  0  0  0  0  0  0
  140.5980   76.2189  217.8449 H   0  0  0  0  0  0  0  0  0  0  0  0
  143.1141   75.9705  219.4588 H   0  0  0  0  0  0  0  0  0  0  0  0
  142.9439   75.4465  217.7039 H   0  0  0  0  0  0  0  0  0  0  0  0
  143.9692   77.6419  217.9512 H   0  0  0  0  0  0  0  0  0  0  0  0
  142.3950   77.6453  217.0512 H   0  0  0  0  0  0  0  0  0  0  0  0
  142.6607   78.2870  219.9899 H   0  0  0  0  0  0  0  0  0  0  0  0
  142.7092   79.5139  218.6262 H   0  0  0  0  0  0  0  0  0  0  0  0
  140.5751   79.6935  219.1684 H   0  0  0  0  0  0  0  0  0  0  0  0
  140.5057   78.2785  217.9972 H   0  0  0  0  0  0  0  0  0  0  0  0
  139.0614   77.7741  219.8659 H   0  0  0  0  0  0  0  0  0  0  0  0
  142.5963   78.2964  221.1170 H   0  0  0  0  0  0  0  0  0  0  0  0
  143.1060   79.2813  223.3117 H   0  0  0  0  0  0  0  0  0  0  0  0
  141.2413   79.9549  224.8413 H   0  0  0  0  0  0  0  0  0  0  0  0
  138.8871   79.6128  224.1016 H   0  0  0  0  0  0  0  0  0  0  0  0
  138.4038   78.6269  221.9027 H   0  0  0  0  0  0  0  0  0  0  0  0
  138.7374   69.9412  222.4661 H   0  0  0  0  0  0  0  0  0  0  0  0
  138.6034   68.4709  224.4757 H   0  0  0  0  0  0  0  0  0  0  0  0
  139.1392   68.0896  226.7218 H   0  0  0  0  0  0  0  0  0  0  0  0
  141.4688   71.0006  228.9039 H   0  0  0  0  0  0  0  0  0  0  0  0
  141.6033   72.4606  226.8812 H   0  0  0  0  0  0  0  0  0  0  0  0
  1  2  2  0
  2  3  1  0
  3  4  1  0
  4  5  1  0
  5  6  2  0
  5  7  1  0
  7  8  1  0
  8  9  1  0
  9 10  1  0
 10 11  1  0
 11 12  1  0
 12 13  1  0
 13 14  1  0
 14 15  2  0
 15 16  1  0
 16 17  2  0
 17 18  1  0
 18 19  2  0
  2 20  1  0
 20 21  2  0
 21 22  1  0
 22 23  2  0
 23 24  1  0
 24 25  2  0
 25 26  1  0
 25 27  1  0
 27 28  2  0
 28 29  1  0
 29 30  2  0
 13  7  1  0
 19 14  1  0
 30 20  1  0
 29 23  1  0
  3 31  1  0
  4 32  1  0
  4 33  1  0
  8 34  1  0
  8 35  1  0
  9 36  1  0
  9 37  1  0
 10 38  1  0
 10 39  1  0
 11 40  1  0
 11 41  1  0
 12 42  1  0
 12 43  1  0
 13 44  1  6
 15 45  1  0
 16 46  1  0
 17 47  1  0
 18 48  1  0
 19 49  1  0
 21 50  1  0
 22 51  1  0
 24 52  1  0
 27 53  1  0
 28 54  1  0
M  END
>  <smiles>  (41) 
O=C(NCC(=O)N1CCCCCC1c1ccccc1)c1ccc2cc(F)ccc2n1

>  <score_type>  (41) 
oracle

>  <origin>  (41) 
autodockgpu

>  <m_score__min__energy>  (41) 
-6.9000000000000004

>  <m_primary>  (41) 
energy

>  <rmsd>  (41) 
1.6297829291316248

>  <m_score__min__rmsd>  (41) 
1.6297829291316248

>  <meeko>  (41) 
{"free_energy": -6.57, "intermolecular_energy": -9.85, "internal_energy": -1.35, "cluster_size": 12, "cluster_id": 2, "rank_in_cluster": 3}

>  <energy>  (41) 
-5.26

>  <cluster_rmsd>  (41) 
1.95

>  <cluster>  (41) 
6

$$$$

     RDKit          3D

 54 57  0  0  0  0  0  0  0  0999 V2000
  140.7090   71.6930  221.2020 O   0  0  0  0  0  0  0  0  0  0  0  0
  140.2790   72.1670  222.2850 C   0  0  0  0  0  0  0  0  0  0  0  0
  139.8630   73.5340  222.2620 N   0  0  0  0  0  0  0  0  0  0  0  0
  139.9890   74.2130  220.9740 C   0  0  0  0  0  0  0  0  0  0  0  0
  140.8440   75.3960  221.1070 C   0  0  0  0  0  0  0  0  0  0  0  0
  141.0580   75.8730  222.2660 O   0  0  0  0  0  0  0  0  0  0  0  0
  141.4110   75.9750  219.9330 N   0  0  0  0  0  0  0  0  0  0  0  0
  140.5150   76.3870  218.8740 C   0  0  0  0  0  0  0  0  0  0  0  0
  140.6530   75.5820  217.6130 C   0  0  0  0  0  0  0  0  0  0  0  0
  141.7890   75.9820  216.7270 C   0  0  0  0  0  0  0  0  0  0  0  0
  143.1150   75.8130  217.4110 C   0  0  0  0  0  0  0  0  0  0  0  0
  143.3130   76.6930  218.5980 C   0  0  0  0  0  0  0  0  0  0  0  0
  142.8540   76.1000  219.9060 C   0  0  2  0  0  0  0  0  0  0  0  0
  143.5540   74.7970  220.0470 C   0  0  0  0  0  0  0  0  0  0  0  0
  144.8660   74.6880  220.4640 C   0  0  0  0  0  0  0  0  0  0  0  0
  145.5150   73.4760  220.5950 C   0  0  0  0  0  0  0  0  0  0  0  0
  144.8390   72.2980  220.2980 C   0  0  0  0  0  0  0  0  0  0  0  0
  143.5220   72.3750  219.8770 C   0  0  0  0  0  0  0  0  0  0  0  0
  142.8970   73.5980  219.7550 C   0  0  0  0  0  0  0  0  0  0  0  0
  140.2060   71.3740  223.5080 C   0  0  0  0  0  0  0  0  0  0  0  0
  139.6120   70.1300  223.4320 C   0  0  0  0  0  0  0  0  0  0  0  0
  139.4930   69.2990  224.5350 C   0  0  0  0  0  0  0  0  0  0  0  0
  139.9990   69.7760  225.7290 C   0  0  0  0  0  0  0  0  0  0  0  0
  139.8790   68.9490  226.8270 C   0  0  0  0  0  0  0  0  0  0  0  0
  140.3810   69.4070  228.0370 C   0  0  0  0  0  0  0  0  0  0  0  0
  140.2880   68.6300  229.1470 F   0  0  0  0  0  0  0  0  0  0  0  0
  140.9820   70.6620  228.1210 C   0  0  0  0  0  0  0  0  0  0  0  0
  141.0970   71.4860  227.0060 C   0  0  0  0  0  0  0  0  0  0  0  0
  140.5940   71.0210  225.8080 C   0  0  0  0  0  0  0  0  0  0  0  0
  140.6870   71.8030  224.6910 N   0  0  0  0  0  0  0  0  0  0  0  0
  139.4980   73.9980  223.1120 H   0  0  0  0  0  0  0  0  0  0  0  0
  140.4342   73.5234  220.2417 H   0  0  0  0  0  0  0  0  0  0  0  0
  138.9910   74.5277  220.6350 H   0  0  0  0  0  0  0  0  0  0  0  0
  139.4813   76.2881  219.2367 H   0  0  0  0  0  0  0  0  0  0  0  0
  140.7758   77.4251  218.6205 H   0  0  0  0  0  0  0  0  0  0  0  0
  140.7954   74.5284  217.8951 H   0  0  0  0  0  0  0  0  0  0  0  0
  139.7350   75.7599  217.0337 H   0  0  0  0  0  0  0  0  0  0  0  0
  141.7726   75.3564  215.8224 H   0  0  0  0  0  0  0  0  0  0  0  0
  141.6676   77.0456  216.4740 H   0  0  0  0  0  0  0  0  0  0  0  0
  143.2013   74.7670  217.7402 H   0  0  0  0  0  0  0  0  0  0  0  0
  143.8844   76.0972  216.6781 H   0  0  0  0  0  0  0  0  0  0  0  0
  144.3864   76.9185  218.6820 H   0  0  0  0  0  0  0  0  0  0  0  0
  142.6947   77.5869  218.4284 H   0  0  0  0  0  0  0  0  0  0  0  0
  143.1040   76.7459  220.7606 H   0  0  0  0  0  0  0  0  0  0  0  0
  145.4192   75.6083  220.7027 H   0  0  0  0  0  0  0  0  0  0  0  0
  146.5614   73.4429  220.9326 H   0  0  0  0  0  0  0  0  0  0  0  0
  145.3405   71.3238  220.3955 H   0  0  0  0  0  0  0  0  0  0  0  0
  142.9704   71.4537  219.6381 H   0  0  0  0  0  0  0  0  0  0  0  0
  141.8504   73.6313  219.4179 H   0  0  0  0  0  0  0  0  0  0  0  0
  139.2199   69.7867  222.4633 H   0  0  0  0  0  0  0  0  0  0  0  0
  139.0192   68.3089  224.4633 H   0  0  0  0  0  0  0  0  0  0  0  0
  139.4020   67.9611  226.7460 H   0  0  0  0  0  0  0  0  0  0  0  0
  141.3734   71.0080  229.0890 H   0  0  0  0  0  0  0  0  0  0  0  0
  141.5730   72.4751  227.0769 H   0  0  0  0  0  0  0  0  0  0  0  0
  1  2  2  0
  2  3  1  0
  3  4  1  0
  4  5  1  0
  5  6  2  0
  5  7  1  0
  7  8  1  0
  8  9  1  0
  9 10  1  0
 10 11  1  0
 11 12  1  0
 12 13  1  0
 13 14  1  0
 14 15  2  0
 15 16  1  0
 16 17  2  0
 17 18  1  0
 18 19  2  0
  2 20  1  0
 20 21  2  0
 21 22  1  0
 22 23  2  0
 23 24  1  0
 24 25  2  0
 25 26  1  0
 25 27  1  0
 27 28  2  0
 28 29  1  0
 29 30  2  0
 13  7  1  0
 19 14  1  0
 30 20  1  0
 29 23  1  0
  3 31  1  0
  4 32  1  0
  4 33  1  0
  8 34  1  0
  8 35  1  0
  9 36  1  0
  9 37  1  0
 10 38  1  0
 10 39  1  0
 11 40  1  0
 11 41  1  0
 12 42  1  0
 12 43  1  0
 13 44  1  1
 15 45  1  0
 16 46  1  0
 17 47  1  0
 18 48  1  0
 19 49  1  0
 21 50  1  0
 22 51  1  0
 24 52  1  0
 27 53  1  0
 28 54  1  0
M  END
>  <smiles>  (42) 
O=C(NCC(=O)N1CCCCCC1c1ccccc1)c1ccc2cc(F)ccc2n1

>  <score_type>  (42) 
oracle

>  <origin>  (42) 
autodockgpu

>  <m_score__min__energy>  (42) 
-6.9000000000000004

>  <m_primary>  (42) 
energy

>  <rmsd>  (42) 
1.756682894484723

>  <m_score__min__rmsd>  (42) 
1.756682894484723

>  <meeko>  (42) 
{"free_energy": -6.11, "intermolecular_energy": -9.39, "internal_energy": -2.04, "cluster_size": 7, "cluster_id": 6, "rank_in_cluster": 1}

>  <energy>  (42) 
-5.22

>  <cluster_rmsd>  (42) 
0.7

>  <cluster>  (42) 
6

$$$$

     RDKit          3D

 54 57  0  0  0  0  0  0  0  0999 V2000
  138.8190   72.4350  221.5280 O   0  0  0  0  0  0  0  0  0  0  0  0
  139.8370   72.3410  222.2610 C   0  0  0  0  0  0  0  0  0  0  0  0
  140.9990   73.0550  221.8320 N   0  0  0  0  0  0  0  0  0  0  0  0
  140.8550   73.8090  220.5880 C   0  0  0  0  0  0  0  0  0  0  0  0
  141.5230   75.1080  220.7050 C   0  0  0  0  0  0  0  0  0  0  0  0
  142.7890   75.1620  220.5920 O   0  0  0  0  0  0  0  0  0  0  0  0
  140.7340   76.2730  220.9420 N   0  0  0  0  0  0  0  0  0  0  0  0
  140.2270   76.9980  219.7970 C   0  0  0  0  0  0  0  0  0  0  0  0
  138.8560   76.5670  219.3610 C   0  0  0  0  0  0  0  0  0  0  0  0
  137.9590   76.1000  220.4610 C   0  0  0  0  0  0  0  0  0  0  0  0
  138.0880   76.9560  221.6880 C   0  0  0  0  0  0  0  0  0  0  0  0
  139.0590   76.4490  222.6960 C   0  0  0  0  0  0  0  0  0  0  0  0
  140.5090   76.6310  222.3270 C   0  0  2  0  0  0  0  0  0  0  0  0
  140.8460   78.0470  222.6240 C   0  0  0  0  0  0  0  0  0  0  0  0
  140.1700   79.1160  222.0660 C   0  0  0  0  0  0  0  0  0  0  0  0
  140.4830   80.4310  222.3430 C   0  0  0  0  0  0  0  0  0  0  0  0
  141.5250   80.7210  223.2190 C   0  0  0  0  0  0  0  0  0  0  0  0
  142.2210   79.6710  223.7940 C   0  0  0  0  0  0  0  0  0  0  0  0
  141.8870   78.3660  223.5010 C   0  0  0  0  0  0  0  0  0  0  0  0
  139.8460   71.5490  223.4870 C   0  0  0  0  0  0  0  0  0  0  0  0
  139.1350   70.3650  223.4910 C   0  0  0  0  0  0  0  0  0  0  0  0
  139.0800   69.5410  224.6030 C   0  0  0  0  0  0  0  0  0  0  0  0
  139.7740   69.9590  225.7220 C   0  0  0  0  0  0  0  0  0  0  0  0
  139.7180   69.1380  226.8290 C   0  0  0  0  0  0  0  0  0  0  0  0
  140.4090   69.5380  227.9640 C   0  0  0  0  0  0  0  0  0  0  0  0
  140.3850   68.7640  229.0800 F   0  0  0  0  0  0  0  0  0  0  0  0
  141.1290   70.7320  227.9670 C   0  0  0  0  0  0  0  0  0  0  0  0
  141.1780   71.5510  226.8440 C   0  0  0  0  0  0  0  0  0  0  0  0
  140.4870   71.1430  225.7200 C   0  0  0  0  0  0  0  0  0  0  0  0
  140.5100   71.9220  224.5970 N   0  0  0  0  0  0  0  0  0  0  0  0
  141.8770   73.0290  222.3790 H   0  0  0  0  0  0  0  0  0  0  0  0
  141.3086   73.2398  219.7632 H   0  0  0  0  0  0  0  0  0  0  0  0
  139.7856   73.9714  220.3877 H   0  0  0  0  0  0  0  0  0  0  0  0
  140.1886   78.0670  220.0534 H   0  0  0  0  0  0  0  0  0  0  0  0
  140.9086   76.7883  218.9595 H   0  0  0  0  0  0  0  0  0  0  0  0
  138.3716   77.4214  218.8657 H   0  0  0  0  0  0  0  0  0  0  0  0
  139.0032   75.7021  218.6975 H   0  0  0  0  0  0  0  0  0  0  0  0
  136.9171   76.1357  220.1100 H   0  0  0  0  0  0  0  0  0  0  0  0
  138.2517   75.0738  220.7280 H   0  0  0  0  0  0  0  0  0  0  0  0
  138.4112   77.9595  221.3742 H   0  0  0  0  0  0  0  0  0  0  0  0
  137.1019   76.9541  222.1755 H   0  0  0  0  0  0  0  0  0  0  0  0
  138.8779   76.9798  223.6423 H   0  0  0  0  0  0  0  0  0  0  0  0
  138.8923   75.3640  222.7669 H   0  0  0  0  0  0  0  0  0  0  0  0
  141.1667   75.9672  222.9074 H   0  0  0  0  0  0  0  0  0  0  0  0
  139.3446   78.9087  221.3691 H   0  0  0  0  0  0  0  0  0  0  0  0
  139.9120   81.2459  221.8740 H   0  0  0  0  0  0  0  0  0  0  0  0
  141.7903   81.7633  223.4499 H   0  0  0  0  0  0  0  0  0  0  0  0
  143.0468   79.8798  224.4900 H   0  0  0  0  0  0  0  0  0  0  0  0
  142.4567   77.5511  223.9714 H   0  0  0  0  0  0  0  0  0  0  0  0
  138.5944   70.0664  222.5807 H   0  0  0  0  0  0  0  0  0  0  0  0
  138.5113   68.5994  224.5955 H   0  0  0  0  0  0  0  0  0  0  0  0
  139.1455   68.1989  226.8127 H   0  0  0  0  0  0  0  0  0  0  0  0
  141.6696   71.0325  228.8766 H   0  0  0  0  0  0  0  0  0  0  0  0
  141.7478   72.4919  226.8508 H   0  0  0  0  0  0  0  0  0  0  0  0
  1  2  2  0
  2  3  1  0
  3  4  1  0
  4  5  1  0
  5  6  2  0
  5  7  1  0
  7  8  1  0
  8  9  1  0
  9 10  1  0
 10 11  1  0
 11 12  1  0
 12 13  1  0
 13 14  1  0
 14 15  2  0
 15 16  1  0
 16 17  2  0
 17 18  1  0
 18 19  2  0
  2 20  1  0
 20 21  2  0
 21 22  1  0
 22 23  2  0
 23 24  1  0
 24 25  2  0
 25 26  1  0
 25 27  1  0
 27 28  2  0
 28 29  1  0
 29 30  2  0
 13  7  1  0
 19 14  1  0
 30 20  1  0
 29 23  1  0
  3 31  1  0
  4 32  1  0
  4 33  1  0
  8 34  1  0
  8 35  1  0
  9 36  1  0
  9 37  1  0
 10 38  1  0
 10 39  1  0
 11 40  1  0
 11 41  1  0
 12 42  1  0
 12 43  1  0
 13 44  1  1
 15 45  1  0
 16 46  1  0
 17 47  1  0
 18 48  1  0
 19 49  1  0
 21 50  1  0
 22 51  1  0
 24 52  1  0
 27 53  1  0
 28 54  1  0
M  END
>  <smiles>  (43) 
O=C(NCC(=O)N1CCCCCC1c1ccccc1)c1ccc2cc(F)ccc2n1

>  <score_type>  (43) 
oracle

>  <origin>  (43) 
autodockgpu

>  <m_score__min__energy>  (43) 
-6.9000000000000004

>  <m_primary>  (43) 
energy

>  <rmsd>  (43) 
2.5665675648875257

>  <m_score__min__rmsd>  (43) 
2.5665675648875257

>  <meeko>  (43) 
{"free_energy": -5.9, "intermolecular_energy": -9.18, "internal_energy": -1.77, "cluster_size": 6, "cluster_id": 3, "rank_in_cluster": 5}

>  <energy>  (43) 
-5.2

>  <cluster_rmsd>  (43) 
0.36

>  <cluster>  (43) 
6

$$$$

     RDKit          3D

 54 57  0  0  0  0  0  0  0  0999 V2000
  141.2210   72.7560  222.0490 O   0  0  0  0  0  0  0  0  0  0  0  0
  140.1650   72.5930  222.7130 C   0  0  0  0  0  0  0  0  0  0  0  0
  139.0450   73.3980  222.3370 N   0  0  0  0  0  0  0  0  0  0  0  0
  139.2700   74.3130  221.2210 C   0  0  0  0  0  0  0  0  0  0  0  0
  139.8140   75.5830  221.7110 C   0  0  0  0  0  0  0  0  0  0  0  0
  139.2510   76.1540  222.6970 O   0  0  0  0  0  0  0  0  0  0  0  0
  140.9590   76.1400  221.0670 N   0  0  0  0  0  0  0  0  0  0  0  0
  142.0970   75.2770  220.8310 C   0  0  0  0  0  0  0  0  0  0  0  0
  142.4820   75.1570  219.3840 C   0  0  0  0  0  0  0  0  0  0  0  0
  141.4180   75.5520  218.4100 C   0  0  0  0  0  0  0  0  0  0  0  0
  141.3240   77.0440  218.2620 C   0  0  0  0  0  0  0  0  0  0  0  0
  141.7150   77.8190  219.4780 C   0  0  0  0  0  0  0  0  0  0  0  0
  140.8800   77.5390  220.7020 C   0  0  2  0  0  0  0  0  0  0  0  0
  141.3750   78.4470  221.7680 C   0  0  0  0  0  0  0  0  0  0  0  0
  141.9750   79.6630  221.5040 C   0  0  0  0  0  0  0  0  0  0  0  0
  142.4350   80.5060  222.4960 C   0  0  0  0  0  0  0  0  0  0  0  0
  142.3010   80.1360  223.8310 C   0  0  0  0  0  0  0  0  0  0  0  0
  141.7040   78.9220  224.1270 C   0  0  0  0  0  0  0  0  0  0  0  0
  141.2530   78.0990  223.1170 C   0  0  0  0  0  0  0  0  0  0  0  0
  140.0740   71.6360  223.8120 C   0  0  0  0  0  0  0  0  0  0  0  0
  139.4520   70.4290  223.5640 C   0  0  0  0  0  0  0  0  0  0  0  0
  139.3150   69.4540  224.5390 C   0  0  0  0  0  0  0  0  0  0  0  0
  139.8340   69.7460  225.7860 C   0  0  0  0  0  0  0  0  0  0  0  0
  139.6970   68.7740  226.7560 C   0  0  0  0  0  0  0  0  0  0  0  0
  140.2110   69.0440  228.0160 C   0  0  0  0  0  0  0  0  0  0  0  0
  140.1020   68.1210  229.0060 F   0  0  0  0  0  0  0  0  0  0  0  0
  140.8420   70.2610  228.2740 C   0  0  0  0  0  0  0  0  0  0  0  0
  140.9740   71.2320  227.2870 C   0  0  0  0  0  0  0  0  0  0  0  0
  140.4580   70.9530  226.0370 C   0  0  0  0  0  0  0  0  0  0  0  0
  140.5680   71.8820  225.0410 N   0  0  0  0  0  0  0  0  0  0  0  0
  138.1400   73.3230  222.8340 H   0  0  0  0  0  0  0  0  0  0  0  0
  139.9833   73.8594  220.5171 H   0  0  0  0  0  0  0  0  0  0  0  0
  138.3127   74.5038  220.7139 H   0  0  0  0  0  0  0  0  0  0  0  0
  142.9574   75.6794  221.3858 H   0  0  0  0  0  0  0  0  0  0  0  0
  141.8090   74.2705  221.1686 H   0  0  0  0  0  0  0  0  0  0  0  0
  143.3584   75.7986  219.2101 H   0  0  0  0  0  0  0  0  0  0  0  0
  142.6788   74.0894  219.2067 H   0  0  0  0  0  0  0  0  0  0  0  0
  141.6510   75.1108  217.4297 H   0  0  0  0  0  0  0  0  0  0  0  0
  140.4532   75.1843  218.7895 H   0  0  0  0  0  0  0  0  0  0  0  0
  141.9830   77.3483  217.4355 H   0  0  0  0  0  0  0  0  0  0  0  0
  140.2637   77.2711  218.0771 H   0  0  0  0  0  0  0  0  0  0  0  0
  142.7617   77.5781  219.7154 H   0  0  0  0  0  0  0  0  0  0  0  0
  141.5586   78.8798  219.2326 H   0  0  0  0  0  0  0  0  0  0  0  0
  139.8118   77.7309  220.5226 H   0  0  0  0  0  0  0  0  0  0  0  0
  142.0916   79.9739  220.4553 H   0  0  0  0  0  0  0  0  0  0  0  0
  142.9049   81.4650  222.2326 H   0  0  0  0  0  0  0  0  0  0  0  0
  142.6620   80.7945  224.6347 H   0  0  0  0  0  0  0  0  0  0  0  0
  141.5887   78.6119  225.1761 H   0  0  0  0  0  0  0  0  0  0  0  0
  140.7831   77.1399  223.3801 H   0  0  0  0  0  0  0  0  0  0  0  0
  139.0514   70.2345  222.5582 H   0  0  0  0  0  0  0  0  0  0  0  0
  138.8178   68.4951  224.3307 H   0  0  0  0  0  0  0  0  0  0  0  0
  139.1977   67.8185  226.5377 H   0  0  0  0  0  0  0  0  0  0  0  0
  141.2436   70.4569  229.2792 H   0  0  0  0  0  0  0  0  0  0  0  0
  141.4727   72.1901  227.4952 H   0  0  0  0  0  0  0  0  0  0  0  0
  1  2  2  0
  2  3  1  0
  3  4  1  0
  4  5  1  0
  5  6  2  0
  5  7  1  0
  7  8  1  0
  8  9  1  0
  9 10  1  0
 10 11  1  0
 11 12  1  0
 12 13  1  0
 13 14  1  0
 14 15  2  0
 15 16  1  0
 16 17  2  0
 17 18  1  0
 18 19  2  0
  2 20  1  0
 20 21  2  0
 21 22  1  0
 22 23  2  0
 23 24  1  0
 24 25  2  0
 25 26  1  0
 25 27  1  0
 27 28  2  0
 28 29  1  0
 29 30  2  0
 13  7  1  0
 19 14  1  0
 30 20  1  0
 29 23  1  0
  3 31  1  0
  4 32  1  0
  4 33  1  0
  8 34  1  0
  8 35  1  0
  9 36  1  0
  9 37  1  0
 10 38  1  0
 10 39  1  0
 11 40  1  0
 11 41  1  0
 12 42  1  0
 12 43  1  0
 13 44  1  6
 15 45  1  0
 16 46  1  0
 17 47  1  0
 18 48  1  0
 19 49  1  0
 21 50  1  0
 22 51  1  0
 24 52  1  0
 27 53  1  0
 28 54  1  0
M  END
>  <smiles>  (44) 
O=C(NCC(=O)N1CCCCCC1c1ccccc1)c1ccc2cc(F)ccc2n1

>  <score_type>  (44) 
oracle

>  <origin>  (44) 
autodockgpu

>  <m_score__min__energy>  (44) 
-6.9000000000000004

>  <m_primary>  (44) 
energy

>  <rmsd>  (44) 
2.02013785046903

>  <m_score__min__rmsd>  (44) 
2.02013785046903

>  <meeko>  (44) 
{"free_energy": -6.78, "intermolecular_energy": -10.06, "internal_energy": -1.59, "cluster_size": 12, "cluster_id": 2, "rank_in_cluster": 1}

>  <energy>  (44) 
-5.15

>  <cluster_rmsd>  (44) 
1.68

>  <cluster>  (44) 
6

$$$$

     RDKit          3D

 54 57  0  0  0  0  0  0  0  0999 V2000
  141.5070   74.2290  220.6760 O   0  0  0  0  0  0  0  0  0  0  0  0
  140.6720   74.4070  221.6000 C   0  0  0  0  0  0  0  0  0  0  0  0
  140.2460   73.2410  222.3080 N   0  0  0  0  0  0  0  0  0  0  0  0
  140.8400   71.9810  221.8680 C   0  0  0  0  0  0  0  0  0  0  0  0
  139.8480   70.9040  221.9340 C   0  0  0  0  0  0  0  0  0  0  0  0
  139.6400   70.1950  220.9000 O   0  0  0  0  0  0  0  0  0  0  0  0
  139.1470   70.6840  223.1570 N   0  0  0  0  0  0  0  0  0  0  0  0
  137.9110   71.4050  223.3750 C   0  0  0  0  0  0  0  0  0  0  0  0
  136.8710   70.6190  224.1210 C   0  0  0  0  0  0  0  0  0  0  0  0
  136.5210   69.2970  223.5160 C   0  0  0  0  0  0  0  0  0  0  0  0
  137.7200   68.4000  223.4060 C   0  0  0  0  0  0  0  0  0  0  0  0
  138.7730   68.6440  224.4280 C   0  0  0  0  0  0  0  0  0  0  0  0
  139.7440   69.7450  224.0850 C   0  0  2  0  0  0  0  0  0  0  0  0
  140.1420   70.3720  225.3710 C   0  0  0  0  0  0  0  0  0  0  0  0
  140.9510   71.4900  225.4460 C   0  0  0  0  0  0  0  0  0  0  0  0
  141.3200   72.0720  226.6430 C   0  0  0  0  0  0  0  0  0  0  0  0
  140.8710   71.5260  227.8410 C   0  0  0  0  0  0  0  0  0  0  0  0
  140.0600   70.4060  227.7980 C   0  0  0  0  0  0  0  0  0  0  0  0
  139.7050   69.8440  226.5900 C   0  0  0  0  0  0  0  0  0  0  0  0
  140.1560   75.7300  221.9390 C   0  0  0  0  0  0  0  0  0  0  0  0
  138.7920   75.9300  221.8500 C   0  0  0  0  0  0  0  0  0  0  0  0
  138.2040   77.1480  222.1510 C   0  0  0  0  0  0  0  0  0  0  0  0
  139.0490   78.1660  222.5480 C   0  0  0  0  0  0  0  0  0  0  0  0
  138.4620   79.3780  222.8460 C   0  0  0  0  0  0  0  0  0  0  0  0
  139.2920   80.4150  223.2480 C   0  0  0  0  0  0  0  0  0  0  0  0
  138.7620   81.6280  223.5530 F   0  0  0  0  0  0  0  0  0  0  0  0
  140.6690   80.2200  223.3400 C   0  0  0  0  0  0  0  0  0  0  0  0
  141.2490   78.9930  223.0370 C   0  0  0  0  0  0  0  0  0  0  0  0
  140.4140   77.9680  222.6380 C   0  0  0  0  0  0  0  0  0  0  0  0
  140.9470   76.7480  222.3310 N   0  0  0  0  0  0  0  0  0  0  0  0
  139.5610   73.3040  223.0820 H   0  0  0  0  0  0  0  0  0  0  0  0
  141.1922   72.0877  220.8314 H   0  0  0  0  0  0  0  0  0  0  0  0
  141.6845   71.7324  222.5276 H   0  0  0  0  0  0  0  0  0  0  0  0
  138.1375   72.3141  223.9514 H   0  0  0  0  0  0  0  0  0  0  0  0
  137.4919   71.6274  222.3826 H   0  0  0  0  0  0  0  0  0  0  0  0
  137.2452   70.4394  225.1397 H   0  0  0  0  0  0  0  0  0  0  0  0
  135.9517   71.2223  224.0924 H   0  0  0  0  0  0  0  0  0  0  0  0
  135.7652   68.8057  224.1464 H   0  0  0  0  0  0  0  0  0  0  0  0
  136.1336   69.4764  222.5022 H   0  0  0  0  0  0  0  0  0  0  0  0
  137.3796   67.3588  223.5062 H   0  0  0  0  0  0  0  0  0  0  0  0
  138.1791   68.6124  222.4292 H   0  0  0  0  0  0  0  0  0  0  0  0
  138.2772   68.9074  225.3740 H   0  0  0  0  0  0  0  0  0  0  0  0
  139.3640   67.7184  224.4907 H   0  0  0  0  0  0  0  0  0  0  0  0
  140.6373   69.3597  223.5716 H   0  0  0  0  0  0  0  0  0  0  0  0
  141.3176   71.9366  224.5100 H   0  0  0  0  0  0  0  0  0  0  0  0
  141.9656   72.9626  226.6489 H   0  0  0  0  0  0  0  0  0  0  0  0
  141.1552   71.9759  228.8037 H   0  0  0  0  0  0  0  0  0  0  0  0
  139.6954   69.9602  228.7352 H   0  0  0  0  0  0  0  0  0  0  0  0
  139.0588   68.9538  226.5850 H   0  0  0  0  0  0  0  0  0  0  0  0
  138.1517   75.0949  221.5297 H   0  0  0  0  0  0  0  0  0  0  0  0
  137.1166   77.2971  222.0773 H   0  0  0  0  0  0  0  0  0  0  0  0
  137.3737   79.5178  222.7677 H   0  0  0  0  0  0  0  0  0  0  0  0
  141.3107   81.0545  223.6591 H   0  0  0  0  0  0  0  0  0  0  0  0
  142.3362   78.8439  223.1126 H   0  0  0  0  0  0  0  0  0  0  0  0
  1  2  2  0
  2  3  1  0
  3  4  1  0
  4  5  1  0
  5  6  2  0
  5  7  1  0
  7  8  1  0
  8  9  1  0
  9 10  1  0
 10 11  1  0
 11 12  1  0
 12 13  1  0
 13 14  1  0
 14 15  2  0
 15 16  1  0
 16 17  2  0
 17 18  1  0
 18 19  2  0
  2 20  1  0
 20 21  2  0
 21 22  1  0
 22 23  2  0
 23 24  1  0
 24 25  2  0
 25 26  1  0
 25 27  1  0
 27 28  2  0
 28 29  1  0
 29 30  2  0
 13  7  1  0
 19 14  1  0
 30 20  1  0
 29 23  1  0
  3 31  1  0
  4 32  1  0
  4 33  1  0
  8 34  1  0
  8 35  1  0
  9 36  1  0
  9 37  1  0
 10 38  1  0
 10 39  1  0
 11 40  1  0
 11 41  1  0
 12 42  1  0
 12 43  1  0
 13 44  1  6
 15 45  1  0
 16 46  1  0
 17 47  1  0
 18 48  1  0
 19 49  1  0
 21 50  1  0
 22 51  1  0
 24 52  1  0
 27 53  1  0
 28 54  1  0
M  END
>  <smiles>  (45) 
O=C(NCC(=O)N1CCCCCC1c1ccccc1)c1ccc2cc(F)ccc2n1

>  <score_type>  (45) 
oracle

>  <origin>  (45) 
autodockgpu

>  <m_score__min__energy>  (45) 
-6.9000000000000004

>  <m_primary>  (45) 
energy

>  <rmsd>  (45) 
8.336577601902416

>  <m_score__min__rmsd>  (45) 
8.336577601902416

>  <meeko>  (45) 
{"free_energy": -6.11, "intermolecular_energy": -9.39, "internal_energy": -1.72, "cluster_size": 10, "cluster_id": 1, "rank_in_cluster": 6}

>  <energy>  (45) 
-4.99

>  <cluster_rmsd>  (45) 
0.83

>  <cluster>  (45) 
6

$$$$

     RDKit          3D

 54 57  0  0  0  0  0  0  0  0999 V2000
  141.3930   73.3180  221.5510 O   0  0  0  0  0  0  0  0  0  0  0  0
  140.3560   73.1660  222.2470 C   0  0  0  0  0  0  0  0  0  0  0  0
  139.4500   74.2690  222.2900 N   0  0  0  0  0  0  0  0  0  0  0  0
  139.8430   75.4430  221.5130 C   0  0  0  0  0  0  0  0  0  0  0  0
  139.2870   76.6580  222.1140 C   0  0  0  0  0  0  0  0  0  0  0  0
  138.2270   76.5690  222.8120 O   0  0  0  0  0  0  0  0  0  0  0  0
  139.9510   77.9020  221.9000 N   0  0  0  0  0  0  0  0  0  0  0  0
  139.1420   79.0980  221.7910 C   0  0  0  0  0  0  0  0  0  0  0  0
  139.0470   79.8880  223.0650 C   0  0  0  0  0  0  0  0  0  0  0  0
  140.3040   80.5870  223.4720 C   0  0  0  0  0  0  0  0  0  0  0  0
  141.4560   79.6320  223.6020 C   0  0  0  0  0  0  0  0  0  0  0  0
  142.0020   79.1440  222.3070 C   0  0  0  0  0  0  0  0  0  0  0  0
  141.3960   77.8570  221.8090 C   0  0  2  0  0  0  0  0  0  0  0  0
  141.8850   77.6700  220.4190 C   0  0  0  0  0  0  0  0  0  0  0  0
  141.7510   78.6320  219.4360 C   0  0  0  0  0  0  0  0  0  0  0  0
  142.2060   78.4570  218.1450 C   0  0  0  0  0  0  0  0  0  0  0  0
  142.8310   77.2650  217.7910 C   0  0  0  0  0  0  0  0  0  0  0  0
  142.9800   76.2810  218.7540 C   0  0  0  0  0  0  0  0  0  0  0  0
  142.5160   76.4820  220.0370 C   0  0  0  0  0  0  0  0  0  0  0  0
  140.0830   71.9330  222.9790 C   0  0  0  0  0  0  0  0  0  0  0  0
  139.3700   70.9440  222.3290 C   0  0  0  0  0  0  0  0  0  0  0  0
  139.0600   69.7380  222.9360 C   0  0  0  0  0  0  0  0  0  0  0  0
  139.4980   69.5640  224.2350 C   0  0  0  0  0  0  0  0  0  0  0  0
  139.1870   68.3630  224.8380 C   0  0  0  0  0  0  0  0  0  0  0  0
  139.6180   68.1660  226.1420 C   0  0  0  0  0  0  0  0  0  0  0  0
  139.3380   67.0000  226.7800 F   0  0  0  0  0  0  0  0  0  0  0  0
  140.3380   69.1590  226.8040 C   0  0  0  0  0  0  0  0  0  0  0  0
  140.6450   70.3660  226.1850 C   0  0  0  0  0  0  0  0  0  0  0  0
  140.2120   70.5510  224.8870 C   0  0  0  0  0  0  0  0  0  0  0  0
  140.4940   71.7250  224.2460 N   0  0  0  0  0  0  0  0  0  0  0  0
  138.5740   74.2230  222.8400 H   0  0  0  0  0  0  0  0  0  0  0  0
  140.9404   75.5160  221.4953 H   0  0  0  0  0  0  0  0  0  0  0  0
  139.4563   75.3406  220.4883 H   0  0  0  0  0  0  0  0  0  0  0  0
  139.5807   79.7432  221.0156 H   0  0  0  0  0  0  0  0  0  0  0  0
  138.1217   78.7711  221.5417 H   0  0  0  0  0  0  0  0  0  0  0  0
  138.2608   80.6468  222.9378 H   0  0  0  0  0  0  0  0  0  0  0  0
  138.8288   79.1610  223.8611 H   0  0  0  0  0  0  0  0  0  0  0  0
  140.5525   81.3435  222.7131 H   0  0  0  0  0  0  0  0  0  0  0  0
  140.1337   81.0531  224.4537 H   0  0  0  0  0  0  0  0  0  0  0  0
  142.2651   80.1416  224.1458 H   0  0  0  0  0  0  0  0  0  0  0  0
  141.0714   78.7483  224.1323 H   0  0  0  0  0  0  0  0  0  0  0  0
  141.8272   79.9206  221.5478 H   0  0  0  0  0  0  0  0  0  0  0  0
  143.0685   78.9370  222.4795 H   0  0  0  0  0  0  0  0  0  0  0  0
  141.6978   76.9965  222.4241 H   0  0  0  0  0  0  0  0  0  0  0  0
  141.2589   79.5812  219.6946 H   0  0  0  0  0  0  0  0  0  0  0  0
  142.0754   79.2554  217.3997 H   0  0  0  0  0  0  0  0  0  0  0  0
  143.1994   77.1075  216.7665 H   0  0  0  0  0  0  0  0  0  0  0  0
  143.4720   75.3322  218.4937 H   0  0  0  0  0  0  0  0  0  0  0  0
  142.6462   75.6837  220.7825 H   0  0  0  0  0  0  0  0  0  0  0  0
  139.0375   71.1201  221.2953 H   0  0  0  0  0  0  0  0  0  0  0  0
  138.4925   68.9566  222.4094 H   0  0  0  0  0  0  0  0  0  0  0  0
  138.6172   67.5885  224.3037 H   0  0  0  0  0  0  0  0  0  0  0  0
  140.6704   68.9843  227.8379 H   0  0  0  0  0  0  0  0  0  0  0  0
  141.2135   71.1467  226.7116 H   0  0  0  0  0  0  0  0  0  0  0  0
  1  2  2  0
  2  3  1  0
  3  4  1  0
  4  5  1  0
  5  6  2  0
  5  7  1  0
  7  8  1  0
  8  9  1  0
  9 10  1  0
 10 11  1  0
 11 12  1  0
 12 13  1  0
 13 14  1  0
 14 15  2  0
 15 16  1  0
 16 17  2  0
 17 18  1  0
 18 19  2  0
  2 20  1  0
 20 21  2  0
 21 22  1  0
 22 23  2  0
 23 24  1  0
 24 25  2  0
 25 26  1  0
 25 27  1  0
 27 28  2  0
 28 29  1  0
 29 30  2  0
 13  7  1  0
 19 14  1  0
 30 20  1  0
 29 23  1  0
  3 31  1  0
  4 32  1  0
  4 33  1  0
  8 34  1  0
  8 35  1  0
  9 36  1  0
  9 37  1  0
 10 38  1  0
 10 39  1  0
 11 40  1  0
 11 41  1  0
 12 42  1  0
 12 43  1  0
 13 44  1  1
 15 45  1  0
 16 46  1  0
 17 47  1  0
 18 48  1  0
 19 49  1  0
 21 50  1  0
 22 51  1  0
 24 52  1  0
 27 53  1  0
 28 54  1  0
M  END
>  <smiles>  (46) 
O=C(NCC(=O)N1CCCCCC1c1ccccc1)c1ccc2cc(F)ccc2n1

>  <score_type>  (46) 
oracle

>  <origin>  (46) 
autodockgpu

>  <m_score__min__energy>  (46) 
-6.9000000000000004

>  <m_primary>  (46) 
energy

>  <rmsd>  (46) 
3.555179176492051

>  <m_score__min__rmsd>  (46) 
3.555179176492051

>  <meeko>  (46) 
{"free_energy": -6.54, "intermolecular_energy": -9.82, "internal_energy": -1.93, "cluster_size": 7, "cluster_id": 4, "rank_in_cluster": 1}

>  <energy>  (46) 
-5.32

>  <cluster_rmsd>  (46) 
0.0

>  <cluster>  (46) 
7

$$$$

     RDKit          3D

 54 57  0  0  0  0  0  0  0  0999 V2000
  140.9110   73.8610  220.3070 O   0  0  0  0  0  0  0  0  0  0  0  0
  140.4000   74.6290  221.1630 C   0  0  0  0  0  0  0  0  0  0  0  0
  139.3700   74.0730  221.9830 N   0  0  0  0  0  0  0  0  0  0  0  0
  139.0390   72.6730  221.7230 C   0  0  0  0  0  0  0  0  0  0  0  0
  139.8410   71.7960  222.5810 C   0  0  0  0  0  0  0  0  0  0  0  0
  141.0870   71.6860  222.3550 O   0  0  0  0  0  0  0  0  0  0  0  0
  139.1990   71.0940  223.6440 N   0  0  0  0  0  0  0  0  0  0  0  0
  137.7900   71.3370  223.8700 C   0  0  0  0  0  0  0  0  0  0  0  0
  137.0030   70.0990  224.1960 C   0  0  0  0  0  0  0  0  0  0  0  0
  137.2110   68.9520  223.2600 C   0  0  0  0  0  0  0  0  0  0  0  0
  138.5980   68.3870  223.3710 C   0  0  0  0  0  0  0  0  0  0  0  0
  139.3500   68.8500  224.5690 C   0  0  0  0  0  0  0  0  0  0  0  0
  140.0270   70.1880  224.4130 C   0  0  2  0  0  0  0  0  0  0  0  0
  140.3090   70.6810  225.7860 C   0  0  0  0  0  0  0  0  0  0  0  0
  139.8400   70.0530  226.9240 C   0  0  0  0  0  0  0  0  0  0  0  0
  140.1020   70.5130  228.1990 C   0  0  0  0  0  0  0  0  0  0  0  0
  140.8710   71.6590  228.3720 C   0  0  0  0  0  0  0  0  0  0  0  0
  141.3550   72.3110  227.2510 C   0  0  0  0  0  0  0  0  0  0  0  0
  141.0780   71.8310  225.9890 C   0  0  0  0  0  0  0  0  0  0  0  0
  140.8260   76.0160  221.3190 C   0  0  0  0  0  0  0  0  0  0  0  0
  141.7030   76.5280  220.3840 C   0  0  0  0  0  0  0  0  0  0  0  0
  142.1680   77.8320  220.4430 C   0  0  0  0  0  0  0  0  0  0  0  0
  141.7100   78.6070  221.4910 C   0  0  0  0  0  0  0  0  0  0  0  0
  142.1740   79.9050  221.5500 C   0  0  0  0  0  0  0  0  0  0  0  0
  141.7280   80.7030  222.5940 C   0  0  0  0  0  0  0  0  0  0  0  0
  142.1550   81.9880  222.6960 F   0  0  0  0  0  0  0  0  0  0  0  0
  140.8420   80.1930  223.5420 C   0  0  0  0  0  0  0  0  0  0  0  0
  140.3820   78.8820  223.4710 C   0  0  0  0  0  0  0  0  0  0  0  0
  140.8320   78.0980  222.4290 C   0  0  0  0  0  0  0  0  0  0  0  0
  140.4030   76.8040  222.3270 N   0  0  0  0  0  0  0  0  0  0  0  0
  138.9000   74.6390  222.7100 H   0  0  0  0  0  0  0  0  0  0  0  0
  137.9715   72.5073  221.9306 H   0  0  0  0  0  0  0  0  0  0  0  0
  139.2568   72.4421  220.6698 H   0  0  0  0  0  0  0  0  0  0  0  0
  137.6903   72.0416  224.7088 H   0  0  0  0  0  0  0  0  0  0  0  0
  137.3805   71.7375  222.9309 H   0  0  0  0  0  0  0  0  0  0  0  0
  137.2874   69.7704  225.2065 H   0  0  0  0  0  0  0  0  0  0  0  0
  135.9425   70.3777  224.1090 H   0  0  0  0  0  0  0  0  0  0  0  0
  136.4842   68.1614  223.4983 H   0  0  0  0  0  0  0  0  0  0  0  0
  137.0723   69.3193  222.2324 H   0  0  0  0  0  0  0  0  0  0  0  0
  138.5217   67.2905  223.4138 H   0  0  0  0  0  0  0  0  0  0  0  0
  139.1554   68.7407  222.4911 H   0  0  0  0  0  0  0  0  0  0  0  0
  138.6444   68.9196  225.4100 H   0  0  0  0  0  0  0  0  0  0  0  0
  140.1516   68.1150  224.7343 H   0  0  0  0  0  0  0  0  0  0  0  0
  140.9688   70.1089  223.8501 H   0  0  0  0  0  0  0  0  0  0  0  0
  139.2299   69.1450  226.8087 H   0  0  0  0  0  0  0  0  0  0  0  0
  139.7048   69.9762  229.0732 H   0  0  0  0  0  0  0  0  0  0  0  0
  141.0903   72.0399  229.3804 H   0  0  0  0  0  0  0  0  0  0  0  0
  141.9651   73.2188  227.3682 H   0  0  0  0  0  0  0  0  0  0  0  0
  141.4739   72.3690  225.1150 H   0  0  0  0  0  0  0  0  0  0  0  0
  142.0443   75.8788  219.5642 H   0  0  0  0  0  0  0  0  0  0  0  0
  142.8670   78.2303  219.6928 H   0  0  0  0  0  0  0  0  0  0  0  0
  142.8735   80.2939  220.7954 H   0  0  0  0  0  0  0  0  0  0  0  0
  140.4997   80.8404  224.3628 H   0  0  0  0  0  0  0  0  0  0  0  0
  139.6826   78.4838  224.2209 H   0  0  0  0  0  0  0  0  0  0  0  0
  1  2  2  0
  2  3  1  0
  3  4  1  0
  4  5  1  0
  5  6  2  0
  5  7  1  0
  7  8  1  0
  8  9  1  0
  9 10  1  0
 10 11  1  0
 11 12  1  0
 12 13  1  0
 13 14  1  0
 14 15  2  0
 15 16  1  0
 16 17  2  0
 17 18  1  0
 18 19  2  0
  2 20  1  0
 20 21  2  0
 21 22  1  0
 22 23  2  0
 23 24  1  0
 24 25  2  0
 25 26  1  0
 25 27  1  0
 27 28  2  0
 28 29  1  0
 29 30  2  0
 13  7  1  0
 19 14  1  0
 30 20  1  0
 29 23  1  0
  3 31  1  0
  4 32  1  0
  4 33  1  0
  8 34  1  0
  8 35  1  0
  9 36  1  0
  9 37  1  0
 10 38  1  0
 10 39  1  0
 11 40  1  0
 11 41  1  0
 12 42  1  0
 12 43  1  0
 13 44  1  6
 15 45  1  0
 16 46  1  0
 17 47  1  0
 18 48  1  0
 19 49  1  0
 21 50  1  0
 22 51  1  0
 24 52  1  0
 27 53  1  0
 28 54  1  0
M  END
>  <smiles>  (47) 
O=C(NCC(=O)N1CCCCCC1c1ccccc1)c1ccc2cc(F)ccc2n1

>  <score_type>  (47) 
oracle

>  <origin>  (47) 
autodockgpu

>  <m_score__min__energy>  (47) 
-6.9000000000000004

>  <m_primary>  (47) 
energy

>  <rmsd>  (47) 
8.625802054553958

>  <m_score__min__rmsd>  (47) 
8.625802054553958

>  <meeko>  (47) 
{"free_energy": -6.82, "intermolecular_energy": -10.1, "internal_energy": -1.74, "cluster_size": 10, "cluster_id": 1, "rank_in_cluster": 2}

>  <energy>  (47) 
-5.03

>  <cluster_rmsd>  (47) 
0.0

>  <cluster>  (47) 
8

$$$$

     RDKit          3D

 54 57  0  0  0  0  0  0  0  0999 V2000
  140.6720   73.0720  222.1420 O   0  0  0  0  0  0  0  0  0  0  0  0
  139.6990   72.5600  222.7540 C   0  0  0  0  0  0  0  0  0  0  0  0
  138.3980   73.0190  222.3790 N   0  0  0  0  0  0  0  0  0  0  0  0
  138.3630   74.0310  221.3250 C   0  0  0  0  0  0  0  0  0  0  0  0
  138.4670   75.3720  221.9080 C   0  0  0  0  0  0  0  0  0  0  0  0
  137.7370   75.6680  222.9060 O   0  0  0  0  0  0  0  0  0  0  0  0
  139.3860   76.3040  221.3390 N   0  0  0  0  0  0  0  0  0  0  0  0
  138.9010   77.2010  220.3130 C   0  0  0  0  0  0  0  0  0  0  0  0
  138.3880   78.5110  220.8410 C   0  0  0  0  0  0  0  0  0  0  0  0
  139.1710   79.0860  221.9770 C   0  0  0  0  0  0  0  0  0  0  0  0
  140.6380   78.7920  221.8480 C   0  0  0  0  0  0  0  0  0  0  0  0
  141.0850   77.5570  222.5470 C   0  0  0  0  0  0  0  0  0  0  0  0
  140.7420   76.2660  221.8460 C   0  0  2  0  0  0  0  0  0  0  0  0
  141.7580   76.0840  220.7780 C   0  0  0  0  0  0  0  0  0  0  0  0
  142.4500   74.9030  220.5890 C   0  0  0  0  0  0  0  0  0  0  0  0
  143.3940   74.7350  219.5960 C   0  0  0  0  0  0  0  0  0  0  0  0
  143.6790   75.7870  218.7330 C   0  0  0  0  0  0  0  0  0  0  0  0
  143.0020   76.9840  218.8970 C   0  0  0  0  0  0  0  0  0  0  0  0
  142.0640   77.1250  219.8970 C   0  0  0  0  0  0  0  0  0  0  0  0
  139.8750   71.5510  223.7930 C   0  0  0  0  0  0  0  0  0  0  0  0
  139.4840   70.2580  223.5060 C   0  0  0  0  0  0  0  0  0  0  0  0
  139.6100   69.2280  224.4230 C   0  0  0  0  0  0  0  0  0  0  0  0
  140.1490   69.5530  225.6530 C   0  0  0  0  0  0  0  0  0  0  0  0
  140.2730   68.5260  226.5670 C   0  0  0  0  0  0  0  0  0  0  0  0
  140.8130   68.8300  227.8080 C   0  0  0  0  0  0  0  0  0  0  0  0
  140.9560   67.8540  228.7420 F   0  0  0  0  0  0  0  0  0  0  0  0
  141.2100   70.1330  228.1050 C   0  0  0  0  0  0  0  0  0  0  0  0
  141.0790   71.1590  227.1750 C   0  0  0  0  0  0  0  0  0  0  0  0
  140.5420   70.8460  225.9430 C   0  0  0  0  0  0  0  0  0  0  0  0
  140.3970   71.8280  225.0040 N   0  0  0  0  0  0  0  0  0  0  0  0
  137.5470   72.6470  222.8350 H   0  0  0  0  0  0  0  0  0  0  0  0
  139.2051   73.8678  220.6363 H   0  0  0  0  0  0  0  0  0  0  0  0
  137.4111   73.9491  220.7799 H   0  0  0  0  0  0  0  0  0  0  0  0
  139.7263   77.4081  219.6159 H   0  0  0  0  0  0  0  0  0  0  0  0
  138.0520   76.6991  219.8260 H   0  0  0  0  0  0  0  0  0  0  0  0
  138.3991   79.2388  220.0163 H   0  0  0  0  0  0  0  0  0  0  0  0
  137.3803   78.3100  221.2337 H   0  0  0  0  0  0  0  0  0  0  0  0
  139.0264   80.1763  221.9934 H   0  0  0  0  0  0  0  0  0  0  0  0
  138.8105   78.6255  222.9087 H   0  0  0  0  0  0  0  0  0  0  0  0
  140.8741   78.6859  220.7789 H   0  0  0  0  0  0  0  0  0  0  0  0
  141.1674   79.6298  222.3252 H   0  0  0  0  0  0  0  0  0  0  0  0
  142.1784   77.6047  222.6577 H   0  0  0  0  0  0  0  0  0  0  0  0
  140.5483   77.5367  223.5070 H   0  0  0  0  0  0  0  0  0  0  0  0
  140.7702   75.4056  222.5308 H   0  0  0  0  0  0  0  0  0  0  0  0
  142.2389   74.0579  221.2607 H   0  0  0  0  0  0  0  0  0  0  0  0
  143.9180   73.7738  219.4881 H   0  0  0  0  0  0  0  0  0  0  0  0
  144.4276   75.6709  217.9355 H   0  0  0  0  0  0  0  0  0  0  0  0
  143.2144   77.8281  218.2245 H   0  0  0  0  0  0  0  0  0  0  0  0
  141.5402   78.0862  220.0050 H   0  0  0  0  0  0  0  0  0  0  0  0
  139.0581   70.0389  222.5157 H   0  0  0  0  0  0  0  0  0  0  0  0
  139.2963   68.2012  224.1838 H   0  0  0  0  0  0  0  0  0  0  0  0
  139.9547   67.5025  226.3199 H   0  0  0  0  0  0  0  0  0  0  0  0
  141.6355   70.3542  229.0949 H   0  0  0  0  0  0  0  0  0  0  0  0
  141.3930   72.1858  227.4137 H   0  0  0  0  0  0  0  0  0  0  0  0
  1  2  2  0
  2  3  1  0
  3  4  1  0
  4  5  1  0
  5  6  2  0
  5  7  1  0
  7  8  1  0
  8  9  1  0
  9 10  1  0
 10 11  1  0
 11 12  1  0
 12 13  1  0
 13 14  1  0
 14 15  2  0
 15 16  1  0
 16 17  2  0
 17 18  1  0
 18 19  2  0
  2 20  1  0
 20 21  2  0
 21 22  1  0
 22 23  2  0
 23 24  1  0
 24 25  2  0
 25 26  1  0
 25 27  1  0
 27 28  2  0
 28 29  1  0
 29 30  2  0
 13  7  1  0
 19 14  1  0
 30 20  1  0
 29 23  1  0
  3 31  1  0
  4 32  1  0
  4 33  1  0
  8 34  1  0
  8 35  1  0
  9 36  1  0
  9 37  1  0
 10 38  1  0
 10 39  1  0
 11 40  1  0
 11 41  1  0
 12 42  1  0
 12 43  1  0
 13 44  1  1
 15 45  1  0
 16 46  1  0
 17 47  1  0
 18 48  1  0
 19 49  1  0
 21 50  1  0
 22 51  1  0
 24 52  1  0
 27 53  1  0
 28 54  1  0
M  END
>  <smiles>  (48) 
O=C(NCC(=O)N1CCCCCC1c1ccccc1)c1ccc2cc(F)ccc2n1

>  <score_type>  (48) 
oracle

>  <origin>  (48) 
autodockgpu

>  <m_score__min__energy>  (48) 
-6.9000000000000004

>  <m_primary>  (48) 
energy

>  <rmsd>  (48) 
2.532716371926193

>  <m_score__min__rmsd>  (48) 
2.532716371926193

>  <meeko>  (48) 
{"free_energy": -5.66, "intermolecular_energy": -8.94, "internal_energy": -1.66, "cluster_size": 7, "cluster_id": 4, "rank_in_cluster": 5}

>  <energy>  (48) 
-4.56

>  <cluster_rmsd>  (48) 
0.0

>  <cluster>  (48) 
9

$$$$

     RDKit          3D

 54 57  0  0  0  0  0  0  0  0999 V2000
  138.5300   71.9930  221.8670 O   0  0  0  0  0  0  0  0  0  0  0  0
  139.4990   72.0310  222.6690 C   0  0  0  0  0  0  0  0  0  0  0  0
  140.5230   72.9860  222.3860 N   0  0  0  0  0  0  0  0  0  0  0  0
  140.3140   73.8050  221.1950 C   0  0  0  0  0  0  0  0  0  0  0  0
  141.2650   74.9210  221.1740 C   0  0  0  0  0  0  0  0  0  0  0  0
  142.5100   74.6680  221.2060 O   0  0  0  0  0  0  0  0  0  0  0  0
  140.7640   76.2550  221.1190 N   0  0  0  0  0  0  0  0  0  0  0  0
  140.7400   76.9230  219.8350 C   0  0  0  0  0  0  0  0  0  0  0  0
  139.3590   77.1190  219.2760 C   0  0  0  0  0  0  0  0  0  0  0  0
  138.2580   76.5030  220.0770 C   0  0  0  0  0  0  0  0  0  0  0  0
  138.0360   77.2300  221.3730 C   0  0  0  0  0  0  0  0  0  0  0  0
  138.8250   76.7030  222.5170 C   0  0  0  0  0  0  0  0  0  0  0  0
  140.3200   76.8320  222.3710 C   0  0  2  0  0  0  0  0  0  0  0  0
  140.6310   78.2800  222.4880 C   0  0  0  0  0  0  0  0  0  0  0  0
  141.8220   78.8320  222.0570 C   0  0  0  0  0  0  0  0  0  0  0  0
  142.1110   80.1780  222.1660 C   0  0  0  0  0  0  0  0  0  0  0  0
  141.1760   81.0380  222.7330 C   0  0  0  0  0  0  0  0  0  0  0  0
  139.9730   80.5140  223.1750 C   0  0  0  0  0  0  0  0  0  0  0  0
  139.7100   79.1660  223.0540 C   0  0  0  0  0  0  0  0  0  0  0  0
  139.5850   71.1500  223.8300 C   0  0  0  0  0  0  0  0  0  0  0  0
  138.9930   69.9050  223.7370 C   0  0  0  0  0  0  0  0  0  0  0  0
  139.0190   68.9960  224.7810 C   0  0  0  0  0  0  0  0  0  0  0  0
  139.6690   69.3920  225.9350 C   0  0  0  0  0  0  0  0  0  0  0  0
  139.6930   68.4860  226.9750 C   0  0  0  0  0  0  0  0  0  0  0  0
  140.3410   68.8620  228.1430 C   0  0  0  0  0  0  0  0  0  0  0  0
  140.3930   68.0060  229.1960 F   0  0  0  0  0  0  0  0  0  0  0  0
  140.9400   70.1170  228.2440 C   0  0  0  0  0  0  0  0  0  0  0  0
  140.9080   71.0220  227.1870 C   0  0  0  0  0  0  0  0  0  0  0  0
  140.2620   70.6370  226.0300 C   0  0  0  0  0  0  0  0  0  0  0  0
  140.2090   71.4990  224.9710 N   0  0  0  0  0  0  0  0  0  0  0  0
  141.3530   73.0800  222.9980 H   0  0  0  0  0  0  0  0  0  0  0  0
  140.4609   73.1856  220.2979 H   0  0  0  0  0  0  0  0  0  0  0  0
  139.2900   74.2065  221.2109 H   0  0  0  0  0  0  0  0  0  0  0  0
  141.2106   77.9106  219.9496 H   0  0  0  0  0  0  0  0  0  0  0  0
  141.2814   76.2764  219.1287 H   0  0  0  0  0  0  0  0  0  0  0  0
  139.1684   78.2003  219.2097 H   0  0  0  0  0  0  0  0  0  0  0  0
  139.3486   76.6119  218.2999 H   0  0  0  0  0  0  0  0  0  0  0  0
  137.3294   76.5335  219.4881 H   0  0  0  0  0  0  0  0  0  0  0  0
  138.5442   75.4670  220.3111 H   0  0  0  0  0  0  0  0  0  0  0  0
  138.3071   78.2858  221.2257 H   0  0  0  0  0  0  0  0  0  0  0  0
  136.9762   77.0909  221.6328 H   0  0  0  0  0  0  0  0  0  0  0  0
  138.5217   77.2500  223.4219 H   0  0  0  0  0  0  0  0  0  0  0  0
  138.6122   75.6250  222.5675 H   0  0  0  0  0  0  0  0  0  0  0  0
  140.8593   76.2757  223.1519 H   0  0  0  0  0  0  0  0  0  0  0  0
  142.5748   78.1687  221.6062 H   0  0  0  0  0  0  0  0  0  0  0  0
  143.0748   80.5678  221.8066 H   0  0  0  0  0  0  0  0  0  0  0  0
  141.3882   82.1131  222.8283 H   0  0  0  0  0  0  0  0  0  0  0  0
  139.2213   81.1783  223.6262 H   0  0  0  0  0  0  0  0  0  0  0  0
  138.7464   78.7761  223.4137 H   0  0  0  0  0  0  0  0  0  0  0  0
  138.4841   69.6268  222.8023 H   0  0  0  0  0  0  0  0  0  0  0  0
  138.5454   68.0068  224.6963 H   0  0  0  0  0  0  0  0  0  0  0  0
  139.2150   67.4997  226.8816 H   0  0  0  0  0  0  0  0  0  0  0  0
  141.4483   70.3977  229.1783 H   0  0  0  0  0  0  0  0  0  0  0  0
  141.3819   72.0111  227.2711 H   0  0  0  0  0  0  0  0  0  0  0  0
  1  2  2  0
  2  3  1  0
  3  4  1  0
  4  5  1  0
  5  6  2  0
  5  7  1  0
  7  8  1  0
  8  9  1  0
  9 10  1  0
 10 11  1  0
 11 12  1  0
 12 13  1  0
 13 14  1  0
 14 15  2  0
 15 16  1  0
 16 17  2  0
 17 18  1  0
 18 19  2  0
  2 20  1  0
 20 21  2  0
 21 22  1  0
 22 23  2  0
 23 24  1  0
 24 25  2  0
 25 26  1  0
 25 27  1  0
 27 28  2  0
 28 29  1  0
 29 30  2  0
 13  7  1  0
 19 14  1  0
 30 20  1  0
 29 23  1  0
  3 31  1  0
  4 32  1  0
  4 33  1  0
  8 34  1  0
  8 35  1  0
  9 36  1  0
  9 37  1  0
 10 38  1  0
 10 39  1  0
 11 40  1  0
 11 41  1  0
 12 42  1  0
 12 43  1  0
 13 44  1  1
 15 45  1  0
 16 46  1  0
 17 47  1  0
 18 48  1  0
 19 49  1  0
 21 50  1  0
 22 51  1  0
 24 52  1  0
 27 53  1  0
 28 54  1  0
M  END
>  <smiles>  (49) 
O=C(NCC(=O)N1CCCCCC1c1ccccc1)c1ccc2cc(F)ccc2n1

>  <score_type>  (49) 
oracle

>  <origin>  (49) 
autodockgpu

>  <m_score__min__energy>  (49) 
-6.9000000000000004

>  <m_primary>  (49) 
energy

>  <rmsd>  (49) 
2.434620236045578

>  <m_score__min__rmsd>  (49) 
2.434620236045578

>  <meeko>  (49) 
{"free_energy": -5.65, "intermolecular_energy": -8.93, "internal_energy": -1.74, "cluster_size": 12, "cluster_id": 2, "rank_in_cluster": 10}

>  <energy>  (49) 
-4.41

>  <cluster_rmsd>  (49) 
0.0

>  <cluster>  (49) 
10

$$$$

     RDKit          3D

 54 57  0  0  0  0  0  0  0  0999 V2000
  140.1650   71.0020  221.2290 O   0  0  0  0  0  0  0  0  0  0  0  0
  139.7090   71.5480  222.2680 C   0  0  0  0  0  0  0  0  0  0  0  0
  138.9140   72.7200  222.0750 N   0  0  0  0  0  0  0  0  0  0  0  0
  138.7290   73.1380  220.6880 C   0  0  0  0  0  0  0  0  0  0  0  0
  139.2880   74.4780  220.4840 C   0  0  0  0  0  0  0  0  0  0  0  0
  139.5880   74.8460  219.3050 O   0  0  0  0  0  0  0  0  0  0  0  0
  139.4780   75.3260  221.6140 N   0  0  0  0  0  0  0  0  0  0  0  0
  138.3050   75.8030  222.3160 C   0  0  0  0  0  0  0  0  0  0  0  0
  137.8040   77.1330  221.8320 C   0  0  0  0  0  0  0  0  0  0  0  0
  138.8010   78.2450  221.8880 C   0  0  0  0  0  0  0  0  0  0  0  0
  139.9890   77.8870  222.7350 C   0  0  0  0  0  0  0  0  0  0  0  0
  141.0550   77.1350  222.0170 C   0  0  0  0  0  0  0  0  0  0  0  0
  140.8480   75.6420  221.9630 C   0  0  2  0  0  0  0  0  0  0  0  0
  141.8340   75.1150  220.9850 C   0  0  0  0  0  0  0  0  0  0  0  0
  142.2410   73.7950  220.9610 C   0  0  0  0  0  0  0  0  0  0  0  0
  143.1570   73.3060  220.0510 C   0  0  0  0  0  0  0  0  0  0  0  0
  143.7110   74.1630  219.1050 C   0  0  0  0  0  0  0  0  0  0  0  0
  143.3230   75.4920  219.1040 C   0  0  0  0  0  0  0  0  0  0  0  0
  142.4060   75.9540  220.0230 C   0  0  0  0  0  0  0  0  0  0  0  0
  139.9730   71.0220  223.6040 C   0  0  0  0  0  0  0  0  0  0  0  0
  140.6890   71.8160  224.4770 C   0  0  0  0  0  0  0  0  0  0  0  0
  140.9910   71.4100  225.7660 C   0  0  0  0  0  0  0  0  0  0  0  0
  140.5390   70.1600  226.1460 C   0  0  0  0  0  0  0  0  0  0  0  0
  140.8410   69.7560  227.4300 C   0  0  0  0  0  0  0  0  0  0  0  0
  140.3970   68.5050  227.8340 C   0  0  0  0  0  0  0  0  0  0  0  0
  140.6680   68.0610  229.0880 F   0  0  0  0  0  0  0  0  0  0  0  0
  139.6730   67.6980  226.9580 C   0  0  0  0  0  0  0  0  0  0  0  0
  139.3750   68.1170  225.6650 C   0  0  0  0  0  0  0  0  0  0  0  0
  139.8210   69.3630  225.2740 C   0  0  0  0  0  0  0  0  0  0  0  0
  139.5490   69.8100  224.0110 N   0  0  0  0  0  0  0  0  0  0  0  0
  138.5030   73.2260  222.8790 H   0  0  0  0  0  0  0  0  0  0  0  0
  139.2397   72.4262  220.0228 H   0  0  0  0  0  0  0  0  0  0  0  0
  137.6531   73.1595  220.4601 H   0  0  0  0  0  0  0  0  0  0  0  0
  137.5009   75.0632  222.1890 H   0  0  0  0  0  0  0  0  0  0  0  0
  138.5954   75.9355  223.3687 H   0  0  0  0  0  0  0  0  0  0  0  0
  137.4825   77.0160  220.7866 H   0  0  0  0  0  0  0  0  0  0  0  0
  136.9881   77.4188  222.5121 H   0  0  0  0  0  0  0  0  0  0  0  0
  139.1453   78.4662  220.8670 H   0  0  0  0  0  0  0  0  0  0  0  0
  138.3113   79.1209  222.3386 H   0  0  0  0  0  0  0  0  0  0  0  0
  140.4274   78.8182  223.1231 H   0  0  0  0  0  0  0  0  0  0  0  0
  139.6181   77.2225  223.5293 H   0  0  0  0  0  0  0  0  0  0  0  0
  141.1033   77.5115  220.9846 H   0  0  0  0  0  0  0  0  0  0  0  0
  141.9843   77.2988  222.5823 H   0  0  0  0  0  0  0  0  0  0  0  0
  141.0121   75.1690  222.9425 H   0  0  0  0  0  0  0  0  0  0  0  0
  141.8155   73.1014  221.7012 H   0  0  0  0  0  0  0  0  0  0  0  0
  143.4471   72.2452  220.0737 H   0  0  0  0  0  0  0  0  0  0  0  0
  144.4428   73.7919  218.3724 H   0  0  0  0  0  0  0  0  0  0  0  0
  143.7501   76.1846  218.3638 H   0  0  0  0  0  0  0  0  0  0  0  0
  142.1151   77.0146  219.9994 H   0  0  0  0  0  0  0  0  0  0  0  0
  141.0313   72.8047  224.1373 H   0  0  0  0  0  0  0  0  0  0  0  0
  141.5625   72.0506  226.4538 H   0  0  0  0  0  0  0  0  0  0  0  0
  141.4141   70.4033  228.1101 H   0  0  0  0  0  0  0  0  0  0  0  0
  139.3300   66.7090  227.2960 H   0  0  0  0  0  0  0  0  0  0  0  0
  138.8031   67.4765  224.9775 H   0  0  0  0  0  0  0  0  0  0  0  0
  1  2  2  0
  2  3  1  0
  3  4  1  0
  4  5  1  0
  5  6  2  0
  5  7  1  0
  7  8  1  0
  8  9  1  0
  9 10  1  0
 10 11  1  0
 11 12  1  0
 12 13  1  0
 13 14  1  0
 14 15  2  0
 15 16  1  0
 16 17  2  0
 17 18  1  0
 18 19  2  0
  2 20  1  0
 20 21  2  0
 21 22  1  0
 22 23  2  0
 23 24  1  0
 24 25  2  0
 25 26  1  0
 25 27  1  0
 27 28  2  0
 28 29  1  0
 29 30  2  0
 13  7  1  0
 19 14  1  0
 30 20  1  0
 29 23  1  0
  3 31  1  0
  4 32  1  0
  4 33  1  0
  8 34  1  0
  8 35  1  0
  9 36  1  0
  9 37  1  0
 10 38  1  0
 10 39  1  0
 11 40  1  0
 11 41  1  0
 12 42  1  0
 12 43  1  0
 13 44  1  1
 15 45  1  0
 16 46  1  0
 17 47  1  0
 18 48  1  0
 19 49  1  0
 21 50  1  0
 22 51  1  0
 24 52  1  0
 27 53  1  0
 28 54  1  0
M  END
>  <smiles>  (50) 
O=C(NCC(=O)N1CCCCCC1c1ccccc1)c1ccc2cc(F)ccc2n1

>  <score_type>  (50) 
oracle

>  <origin>  (50) 
autodockgpu

>  <m_score__min__energy>  (50) 
-6.9000000000000004

>  <m_primary>  (50) 
energy

>  <rmsd>  (50) 
3.295712172176415

>  <m_score__min__rmsd>  (50) 
3.295712172176415

>  <meeko>  (50) 
{"free_energy": -5.73, "intermolecular_energy": -9.01, "internal_energy": -1.95, "cluster_size": 7, "cluster_id": 4, "rank_in_cluster": 4}

>  <energy>  (50) 
-4.4

>  <cluster_rmsd>  (50) 
0.0

>  <cluster>  (50) 
11

$$$$

     RDKit          3D

 54 57  0  0  0  0  0  0  0  0999 V2000
  139.6950   73.8020  222.4670 O   0  0  0  0  0  0  0  0  0  0  0  0
  140.1230   72.6260  222.3850 C   0  0  0  0  0  0  0  0  0  0  0  0
  140.6650   72.2170  221.1250 N   0  0  0  0  0  0  0  0  0  0  0  0
  140.6720   73.1990  220.0500 C   0  0  0  0  0  0  0  0  0  0  0  0
  141.8020   72.9670  219.1180 C   0  0  0  0  0  0  0  0  0  0  0  0
  141.5510   72.5900  217.9230 O   0  0  0  0  0  0  0  0  0  0  0  0
  143.1670   73.1400  219.4790 N   0  0  0  0  0  0  0  0  0  0  0  0
  144.0440   72.2070  218.8010 C   0  0  0  0  0  0  0  0  0  0  0  0
  145.4890   72.5480  218.8330 C   0  0  0  0  0  0  0  0  0  0  0  0
  146.1210   72.3540  220.1930 C   0  0  0  0  0  0  0  0  0  0  0  0
  145.5080   73.2270  221.2470 C   0  0  0  0  0  0  0  0  0  0  0  0
  144.8950   74.4190  220.5920 C   0  0  0  0  0  0  0  0  0  0  0  0
  143.3960   74.2010  220.4310 C   0  0  1  0  0  0  0  0  0  0  0  0
  142.7590   75.4920  220.0430 C   0  0  0  0  0  0  0  0  0  0  0  0
  141.7350   76.0450  220.7790 C   0  0  0  0  0  0  0  0  0  0  0  0
  141.1460   77.2470  220.4130 C   0  0  0  0  0  0  0  0  0  0  0  0
  141.5610   77.9370  219.2940 C   0  0  0  0  0  0  0  0  0  0  0  0
  142.5950   77.3920  218.5390 C   0  0  0  0  0  0  0  0  0  0  0  0
  143.1810   76.1870  218.9140 C   0  0  0  0  0  0  0  0  0  0  0  0
  140.0930   71.6810  223.4940 C   0  0  0  0  0  0  0  0  0  0  0  0
  139.5480   70.4340  223.2570 C   0  0  0  0  0  0  0  0  0  0  0  0
  139.4790   69.4740  224.2560 C   0  0  0  0  0  0  0  0  0  0  0  0
  139.9840   69.8360  225.5000 C   0  0  0  0  0  0  0  0  0  0  0  0
  139.9070   68.8670  226.4840 C   0  0  0  0  0  0  0  0  0  0  0  0
  140.4120   69.2190  227.7370 C   0  0  0  0  0  0  0  0  0  0  0  0
  140.3490   68.2820  228.7290 F   0  0  0  0  0  0  0  0  0  0  0  0
  140.9510   70.4650  227.9580 C   0  0  0  0  0  0  0  0  0  0  0  0
  141.0170   71.4200  226.9580 C   0  0  0  0  0  0  0  0  0  0  0  0
  140.5250   71.0880  225.7180 C   0  0  0  0  0  0  0  0  0  0  0  0
  140.5630   71.9660  224.7210 N   0  0  0  0  0  0  0  0  0  0  0  0
  141.0330   71.2450  221.0140 H   0  0  0  0  0  0  0  0  0  0  0  0
  139.7266   73.1270  219.4923 H   0  0  0  0  0  0  0  0  0  0  0  0
  140.7862   74.1993  220.4932 H   0  0  0  0  0  0  0  0  0  0  0  0
  143.9182   71.2207  219.2716 H   0  0  0  0  0  0  0  0  0  0  0  0
  143.7512   72.2336  217.7410 H   0  0  0  0  0  0  0  0  0  0  0  0
  146.0147   71.9075  218.1095 H   0  0  0  0  0  0  0  0  0  0  0  0
  145.5767   73.6156  218.5831 H   0  0  0  0  0  0  0  0  0  0  0  0
  145.9973   71.3025  220.4915 H   0  0  0  0  0  0  0  0  0  0  0  0
  147.1821   72.6313  220.1084 H   0  0  0  0  0  0  0  0  0  0  0  0
  144.7332   72.6639  221.7879 H   0  0  0  0  0  0  0  0  0  0  0  0
  146.2817   73.5502  221.9590 H   0  0  0  0  0  0  0  0  0  0  0  0
  145.0705   75.3090  221.2142 H   0  0  0  0  0  0  0  0  0  0  0  0
  145.3507   74.5656  219.6016 H   0  0  0  0  0  0  0  0  0  0  0  0
  142.9333   73.8825  221.3768 H   0  0  0  0  0  0  0  0  0  0  0  0
  141.3757   75.5220  221.6776 H   0  0  0  0  0  0  0  0  0  0  0  0
  140.3316   77.6575  221.0281 H   0  0  0  0  0  0  0  0  0  0  0  0
  141.0896   78.8885  219.0070 H   0  0  0  0  0  0  0  0  0  0  0  0
  142.9513   77.9169  217.6404 H   0  0  0  0  0  0  0  0  0  0  0  0
  143.9974   75.7740  218.3033 H   0  0  0  0  0  0  0  0  0  0  0  0
  139.1606   70.1973  222.2551 H   0  0  0  0  0  0  0  0  0  0  0  0
  139.0475   68.4787  224.0737 H   0  0  0  0  0  0  0  0  0  0  0  0
  139.4725   67.8752  226.2902 H   0  0  0  0  0  0  0  0  0  0  0  0
  141.3405   70.7094  228.9573 H   0  0  0  0  0  0  0  0  0  0  0  0
  141.4495   72.4131  227.1495 H   0  0  0  0  0  0  0  0  0  0  0  0
  1  2  2  0
  2  3  1  0
  3  4  1  0
  4  5  1  0
  5  6  2  0
  5  7  1  0
  7  8  1  0
  8  9  1  0
  9 10  1  0
 10 11  1  0
 11 12  1  0
 12 13  1  0
 13 14  1  0
 14 15  2  0
 15 16  1  0
 16 17  2  0
 17 18  1  0
 18 19  2  0
  2 20  1  0
 20 21  2  0
 21 22  1  0
 22 23  2  0
 23 24  1  0
 24 25  2  0
 25 26  1  0
 25 27  1  0
 27 28  2  0
 28 29  1  0
 29 30  2  0
 13  7  1  0
 19 14  1  0
 30 20  1  0
 29 23  1  0
  3 31  1  0
  4 32  1  0
  4 33  1  0
  8 34  1  0
  8 35  1  0
  9 36  1  0
  9 37  1  0
 10 38  1  0
 10 39  1  0
 11 40  1  0
 11 41  1  0
 12 42  1  0
 12 43  1  0
 13 44  1  1
 15 45  1  0
 16 46  1  0
 17 47  1  0
 18 48  1  0
 19 49  1  0
 21 50  1  0
 22 51  1  0
 24 52  1  0
 27 53  1  0
 28 54  1  0
M  END
>  <smiles>  (51) 
O=C(NCC(=O)N1CCCCCC1c1ccccc1)c1ccc2cc(F)ccc2n1

>  <score_type>  (51) 
oracle

>  <origin>  (51) 
autodockgpu

>  <m_score__min__energy>  (51) 
-6.8700000000000001

>  <m_primary>  (51) 
energy

>  <rmsd>  (51) 
3.530632439518879

>  <m_score__min__rmsd>  (51) 
3.530632439518879

>  <meeko>  (51) 
{"free_energy": -5.7, "intermolecular_energy": -8.98, "internal_energy": -1.67, "cluster_size": 16, "cluster_id": 3, "rank_in_cluster": 8}

>  <energy>  (51) 
-6.87

>  <cluster_rmsd>  (51) 
0.0

>  <cluster>  (51) 
1

$$$$

     RDKit          3D

 54 57  0  0  0  0  0  0  0  0999 V2000
  139.7030   73.5620  222.4120 O   0  0  0  0  0  0  0  0  0  0  0  0
  140.1210   72.3800  222.4460 C   0  0  0  0  0  0  0  0  0  0  0  0
  140.6720   71.8490  221.2360 N   0  0  0  0  0  0  0  0  0  0  0  0
  140.6990   72.7250  220.0740 C   0  0  0  0  0  0  0  0  0  0  0  0
  141.5390   73.9220  220.3240 C   0  0  0  0  0  0  0  0  0  0  0  0
  142.2540   73.9660  221.3830 O   0  0  0  0  0  0  0  0  0  0  0  0
  141.5960   75.0400  219.4450 N   0  0  0  0  0  0  0  0  0  0  0  0
  140.2980   75.6460  219.2320 C   0  0  0  0  0  0  0  0  0  0  0  0
  140.3080   76.9360  218.4960 C   0  0  0  0  0  0  0  0  0  0  0  0
  141.2290   77.9690  219.1070 C   0  0  0  0  0  0  0  0  0  0  0  0
  142.1740   77.3800  220.1120 C   0  0  0  0  0  0  0  0  0  0  0  0
  143.3170   76.7410  219.3970 C   0  0  0  0  0  0  0  0  0  0  0  0
  142.9220   75.3370  218.9560 C   0  0  1  0  0  0  0  0  0  0  0  0
  143.9560   74.3740  219.4300 C   0  0  0  0  0  0  0  0  0  0  0  0
  144.7870   74.6660  220.4900 C   0  0  0  0  0  0  0  0  0  0  0  0
  145.7490   73.7660  220.9270 C   0  0  0  0  0  0  0  0  0  0  0  0
  145.9140   72.5420  220.3160 C   0  0  0  0  0  0  0  0  0  0  0  0
  145.0830   72.2300  219.2430 C   0  0  0  0  0  0  0  0  0  0  0  0
  144.1210   73.1390  218.8120 C   0  0  0  0  0  0  0  0  0  0  0  0
  140.0700   71.5440  223.6390 C   0  0  0  0  0  0  0  0  0  0  0  0
  139.5040   70.2890  223.5170 C   0  0  0  0  0  0  0  0  0  0  0  0
  139.4150   69.4290  224.6010 C   0  0  0  0  0  0  0  0  0  0  0  0
  139.9220   69.8970  225.8090 C   0  0  0  0  0  0  0  0  0  0  0  0
  139.8240   69.0260  226.8790 C   0  0  0  0  0  0  0  0  0  0  0  0
  140.3310   69.4860  228.0960 C   0  0  0  0  0  0  0  0  0  0  0  0
  140.2480   68.6460  229.1700 F   0  0  0  0  0  0  0  0  0  0  0  0
  140.8910   70.7370  228.2010 C   0  0  0  0  0  0  0  0  0  0  0  0
  140.9770   71.5920  227.1170 C   0  0  0  0  0  0  0  0  0  0  0  0
  140.4830   71.1540  225.9110 C   0  0  0  0  0  0  0  0  0  0  0  0
  140.5410   71.9340  224.8360 N   0  0  0  0  0  0  0  0  0  0  0  0
  141.0310   70.8680  221.2220 H   0  0  0  0  0  0  0  0  0  0  0  0
  141.1095   72.1713  219.2167 H   0  0  0  0  0  0  0  0  0  0  0  0
  139.6717   73.0579  219.8648 H   0  0  0  0  0  0  0  0  0  0  0  0
  139.6816   74.9353  218.6620 H   0  0  0  0  0  0  0  0  0  0  0  0
  139.9023   75.8724  220.2331 H   0  0  0  0  0  0  0  0  0  0  0  0
  140.6342   76.7455  217.4629 H   0  0  0  0  0  0  0  0  0  0  0  0
  139.2873   77.3436  218.5412 H   0  0  0  0  0  0  0  0  0  0  0  0
  141.8167   78.4360  218.3029 H   0  0  0  0  0  0  0  0  0  0  0  0
  140.6016   78.7043  219.6321 H   0  0  0  0  0  0  0  0  0  0  0  0
  142.5514   78.1751  220.7719 H   0  0  0  0  0  0  0  0  0  0  0  0
  141.6479   76.6255  220.7152 H   0  0  0  0  0  0  0  0  0  0  0  0
  143.5788   77.3423  218.5139 H   0  0  0  0  0  0  0  0  0  0  0  0
  144.1837   76.6821  220.0718 H   0  0  0  0  0  0  0  0  0  0  0  0
  142.8816   75.2563  217.8597 H   0  0  0  0  0  0  0  0  0  0  0  0
  144.6855   75.6346  221.0014 H   0  0  0  0  0  0  0  0  0  0  0  0
  146.3923   74.0351  221.7778 H   0  0  0  0  0  0  0  0  0  0  0  0
  146.6790   71.8328  220.6652 H   0  0  0  0  0  0  0  0  0  0  0  0
  145.1873   71.2606  218.7336 H   0  0  0  0  0  0  0  0  0  0  0  0
  143.4754   72.8741  217.9617 H   0  0  0  0  0  0  0  0  0  0  0  0
  139.1161   69.9658  222.5397 H   0  0  0  0  0  0  0  0  0  0  0  0
  138.9667   68.4286  224.5105 H   0  0  0  0  0  0  0  0  0  0  0  0
  139.3725   68.0281  226.7771 H   0  0  0  0  0  0  0  0  0  0  0  0
  141.2818   71.0675  229.1747 H   0  0  0  0  0  0  0  0  0  0  0  0
  141.4265   72.5910  227.2167 H   0  0  0  0  0  0  0  0  0  0  0  0
  1  2  2  0
  2  3  1  0
  3  4  1  0
  4  5  1  0
  5  6  2  0
  5  7  1  0
  7  8  1  0
  8  9  1  0
  9 10  1  0
 10 11  1  0
 11 12  1  0
 12 13  1  0
 13 14  1  0
 14 15  2  0
 15 16  1  0
 16 17  2  0
 17 18  1  0
 18 19  2  0
  2 20  1  0
 20 21  2  0
 21 22  1  0
 22 23  2  0
 23 24  1  0
 24 25  2  0
 25 26  1  0
 25 27  1  0
 27 28  2  0
 28 29  1  0
 29 30  2  0
 13  7  1  0
 19 14  1  0
 30 20  1  0
 29 23  1  0
  3 31  1  0
  4 32  1  0
  4 33  1  0
  8 34  1  0
  8 35  1  0
  9 36  1  0
  9 37  1  0
 10 38  1  0
 10 39  1  0
 11 40  1  0
 11 41  1  0
 12 42  1  0
 12 43  1  0
 13 44  1  6
 15 45  1  0
 16 46  1  0
 17 47  1  0
 18 48  1  0
 19 49  1  0
 21 50  1  0
 22 51  1  0
 24 52  1  0
 27 53  1  0
 28 54  1  0
M  END
>  <smiles>  (52) 
O=C(NCC(=O)N1CCCCCC1c1ccccc1)c1ccc2cc(F)ccc2n1

>  <score_type>  (52) 
oracle

>  <origin>  (52) 
autodockgpu

>  <m_score__min__energy>  (52) 
-6.8700000000000001

>  <m_primary>  (52) 
energy

>  <rmsd>  (52) 
2.1677672177849763

>  <m_score__min__rmsd>  (52) 
2.1677672177849763

>  <meeko>  (52) 
{"free_energy": -6.15, "intermolecular_energy": -9.43, "internal_energy": -1.25, "cluster_size": 16, "cluster_id": 2, "rank_in_cluster": 9}

>  <energy>  (52) 
-6.83

>  <cluster_rmsd>  (52) 
0.23

>  <cluster>  (52) 
1

$$$$

     RDKit          3D

 54 57  0  0  0  0  0  0  0  0999 V2000
  141.3680   72.6080  221.8080 O   0  0  0  0  0  0  0  0  0  0  0  0
  140.3820   72.6030  222.5830 C   0  0  0  0  0  0  0  0  0  0  0  0
  139.3610   73.5780  222.3460 N   0  0  0  0  0  0  0  0  0  0  0  0
  139.5560   74.4890  221.2280 C   0  0  0  0  0  0  0  0  0  0  0  0
  139.2550   75.8890  221.6170 C   0  0  0  0  0  0  0  0  0  0  0  0
  138.4170   76.1020  222.5590 O   0  0  0  0  0  0  0  0  0  0  0  0
  139.8480   77.0230  220.9970 N   0  0  0  0  0  0  0  0  0  0  0  0
  138.9180   77.7440  220.1520 C   0  0  0  0  0  0  0  0  0  0  0  0
  139.0540   77.4960  218.6940 C   0  0  0  0  0  0  0  0  0  0  0  0
  140.4910   77.4660  218.2210 C   0  0  0  0  0  0  0  0  0  0  0  0
  141.3310   76.4840  218.9830 C   0  0  0  0  0  0  0  0  0  0  0  0
  142.0730   77.2060  220.0620 C   0  0  0  0  0  0  0  0  0  0  0  0
  141.2370   77.2210  221.3350 C   0  0  1  0  0  0  0  0  0  0  0  0
  141.4920   78.4970  222.0630 C   0  0  0  0  0  0  0  0  0  0  0  0
  141.7310   79.6770  221.3950 C   0  0  0  0  0  0  0  0  0  0  0  0
  141.9680   80.8620  222.0760 C   0  0  0  0  0  0  0  0  0  0  0  0
  141.9750   80.9070  223.4540 C   0  0  0  0  0  0  0  0  0  0  0  0
  141.7350   79.7230  224.1460 C   0  0  0  0  0  0  0  0  0  0  0  0
  141.4970   78.5400  223.4540 C   0  0  0  0  0  0  0  0  0  0  0  0
  140.2360   71.6650  223.6900 C   0  0  0  0  0  0  0  0  0  0  0  0
  139.5620   70.4850  223.4430 C   0  0  0  0  0  0  0  0  0  0  0  0
  139.3780   69.5370  224.4390 C   0  0  0  0  0  0  0  0  0  0  0  0
  139.9050   69.8410  225.6900 C   0  0  0  0  0  0  0  0  0  0  0  0
  139.7110   68.8840  226.6710 C   0  0  0  0  0  0  0  0  0  0  0  0
  140.2360   69.1790  227.9310 C   0  0  0  0  0  0  0  0  0  0  0  0
  140.0610   68.2520  228.9190 F   0  0  0  0  0  0  0  0  0  0  0  0
  140.9040   70.3580  228.1610 C   0  0  0  0  0  0  0  0  0  0  0  0
  141.0850   71.3010  227.1640 C   0  0  0  0  0  0  0  0  0  0  0  0
  140.5740   71.0260  225.9170 C   0  0  0  0  0  0  0  0  0  0  0  0
  140.7200   71.8960  224.9230 N   0  0  0  0  0  0  0  0  0  0  0  0
  138.5230   73.6070  222.9690 H   0  0  0  0  0  0  0  0  0  0  0  0
  140.6018   74.4268  220.8928 H   0  0  0  0  0  0  0  0  0  0  0  0
  138.8709   74.1978  220.4182 H   0  0  0  0  0  0  0  0  0  0  0  0
  137.8983   77.4593  220.4505 H   0  0  0  0  0  0  0  0  0  0  0  0
  139.1416   78.8110  220.2988 H   0  0  0  0  0  0  0  0  0  0  0  0
  138.5897   76.5265  218.4604 H   0  0  0  0  0  0  0  0  0  0  0  0
  138.5587   78.3300  218.1752 H   0  0  0  0  0  0  0  0  0  0  0  0
  140.5053   77.1897  217.1563 H   0  0  0  0  0  0  0  0  0  0  0  0
  140.9165   78.4666  218.3874 H   0  0  0  0  0  0  0  0  0  0  0  0
  140.6836   75.7163  219.4319 H   0  0  0  0  0  0  0  0  0  0  0  0
  142.0467   76.0018  218.3009 H   0  0  0  0  0  0  0  0  0  0  0  0
  143.0267   76.6935  220.2564 H   0  0  0  0  0  0  0  0  0  0  0  0
  142.2691   78.2399  219.7416 H   0  0  0  0  0  0  0  0  0  0  0  0
  141.5183   76.3990  222.0097 H   0  0  0  0  0  0  0  0  0  0  0  0
  141.7341   79.6801  220.2950 H   0  0  0  0  0  0  0  0  0  0  0  0
  142.1540   81.7839  221.5054 H   0  0  0  0  0  0  0  0  0  0  0  0
  142.1643   81.8488  223.9898 H   0  0  0  0  0  0  0  0  0  0  0  0
  141.7336   79.7230  225.2460 H   0  0  0  0  0  0  0  0  0  0  0  0
  141.3081   77.6159  224.0201 H   0  0  0  0  0  0  0  0  0  0  0  0
  139.1630   70.2930  222.4361 H   0  0  0  0  0  0  0  0  0  0  0  0
  138.8435   68.5945  224.2495 H   0  0  0  0  0  0  0  0  0  0  0  0
  139.1742   67.9452  226.4697 H   0  0  0  0  0  0  0  0  0  0  0  0
  141.3060   70.5577  229.1653 H   0  0  0  0  0  0  0  0  0  0  0  0
  141.6208   72.2409  227.3628 H   0  0  0  0  0  0  0  0  0  0  0  0
  1  2  2  0
  2  3  1  0
  3  4  1  0
  4  5  1  0
  5  6  2  0
  5  7  1  0
  7  8  1  0
  8  9  1  0
  9 10  1  0
 10 11  1  0
 11 12  1  0
 12 13  1  0
 13 14  1  0
 14 15  2  0
 15 16  1  0
 16 17  2  0
 17 18  1  0
 18 19  2  0
  2 20  1  0
 20 21  2  0
 21 22  1  0
 22 23  2  0
 23 24  1  0
 24 25  2  0
 25 26  1  0
 25 27  1  0
 27 28  2  0
 28 29  1  0
 29 30  2  0
 13  7  1  0
 19 14  1  0
 30 20  1  0
 29 23  1  0
  3 31  1  0
  4 32  1  0
  4 33  1  0
  8 34  1  0
  8 35  1  0
  9 36  1  0
  9 37  1  0
 10 38  1  0
 10 39  1  0
 11 40  1  0
 11 41  1  0
 12 42  1  0
 12 43  1  0
 13 44  1  1
 15 45  1  0
 16 46  1  0
 17 47  1  0
 18 48  1  0
 19 49  1  0
 21 50  1  0
 22 51  1  0
 24 52  1  0
 27 53  1  0
 28 54  1  0
M  END
>  <smiles>  (53) 
O=C(NCC(=O)N1CCCCCC1c1ccccc1)c1ccc2cc(F)ccc2n1

>  <score_type>  (53) 
oracle

>  <origin>  (53) 
autodockgpu

>  <m_score__min__energy>  (53) 
-6.8700000000000001

>  <m_primary>  (53) 
energy

>  <rmsd>  (53) 
1.9957795591462262

>  <m_score__min__rmsd>  (53) 
1.9957795591462262

>  <meeko>  (53) 
{"free_energy": -6.7, "intermolecular_energy": -9.98, "internal_energy": -1.79, "cluster_size": 11, "cluster_id": 1, "rank_in_cluster": 4}

>  <energy>  (53) 
-6.81

>  <cluster_rmsd>  (53) 
0.85

>  <cluster>  (53) 
1

$$$$

     RDKit          3D

 54 57  0  0  0  0  0  0  0  0999 V2000
  142.9820   78.4550  218.4130 O   0  0  0  0  0  0  0  0  0  0  0  0
  142.4590   77.3420  218.6620 C   0  0  0  0  0  0  0  0  0  0  0  0
  141.0630   77.3330  218.9730 N   0  0  0  0  0  0  0  0  0  0  0  0
  140.3710   78.6140  218.9720 C   0  0  0  0  0  0  0  0  0  0  0  0
  140.2100   79.1380  220.3510 C   0  0  0  0  0  0  0  0  0  0  0  0
  139.0300   79.3060  220.8150 O   0  0  0  0  0  0  0  0  0  0  0  0
  141.3020   79.4730  221.1980 N   0  0  0  0  0  0  0  0  0  0  0  0
  141.9280   80.7260  220.8290 C   0  0  0  0  0  0  0  0  0  0  0  0
  141.5390   81.9010  221.6500 C   0  0  0  0  0  0  0  0  0  0  0  0
  141.2080   81.5500  223.0830 C   0  0  0  0  0  0  0  0  0  0  0  0
  142.0910   80.4690  223.6330 C   0  0  0  0  0  0  0  0  0  0  0  0
  141.3610   79.1690  223.5990 C   0  0  0  0  0  0  0  0  0  0  0  0
  141.5570   78.5070  222.2410 C   0  0  1  0  0  0  0  0  0  0  0  0
  140.6790   77.3050  222.1600 C   0  0  0  0  0  0  0  0  0  0  0  0
  139.3940   77.3120  222.6550 C   0  0  0  0  0  0  0  0  0  0  0  0
  138.5800   76.1900  222.5770 C   0  0  0  0  0  0  0  0  0  0  0  0
  139.0270   75.0200  222.0020 C   0  0  0  0  0  0  0  0  0  0  0  0
  140.3240   74.9950  221.4970 C   0  0  0  0  0  0  0  0  0  0  0  0
  141.1320   76.1250  221.5780 C   0  0  0  0  0  0  0  0  0  0  0  0
  143.2000   76.0860  218.6490 C   0  0  0  0  0  0  0  0  0  0  0  0
  143.2910   75.4110  217.4470 C   0  0  0  0  0  0  0  0  0  0  0  0
  143.9770   74.2100  217.3440 C   0  0  0  0  0  0  0  0  0  0  0  0
  144.5610   73.7270  218.5110 C   0  0  0  0  0  0  0  0  0  0  0  0
  145.2400   72.5280  218.3900 C   0  0  0  0  0  0  0  0  0  0  0  0
  145.8310   72.0330  219.5540 C   0  0  0  0  0  0  0  0  0  0  0  0
  146.5090   70.8510  219.4640 F   0  0  0  0  0  0  0  0  0  0  0  0
  145.7300   72.7170  220.7430 C   0  0  0  0  0  0  0  0  0  0  0  0
  145.0450   73.9150  220.8410 C   0  0  0  0  0  0  0  0  0  0  0  0
  144.4580   74.4160  219.7020 C   0  0  0  0  0  0  0  0  0  0  0  0
  143.7880   75.5630  219.7390 N   0  0  0  0  0  0  0  0  0  0  0  0
  140.5880   76.4270  219.1870 H   0  0  0  0  0  0  0  0  0  0  0  0
  140.9527   79.3356  218.3796 H   0  0  0  0  0  0  0  0  0  0  0  0
  139.3718   78.4698  218.5353 H   0  0  0  0  0  0  0  0  0  0  0  0
  143.0173   80.5987  220.9141 H   0  0  0  0  0  0  0  0  0  0  0  0
  141.5859   80.9451  219.8068 H   0  0  0  0  0  0  0  0  0  0  0  0
  142.3736   82.6175  221.6505 H   0  0  0  0  0  0  0  0  0  0  0  0
  140.6281   82.3235  221.2007 H   0  0  0  0  0  0  0  0  0  0  0  0
  141.3272   82.4511  223.7026 H   0  0  0  0  0  0  0  0  0  0  0  0
  140.1736   81.1765  223.1032 H   0  0  0  0  0  0  0  0  0  0  0  0
  143.0031   80.3940  223.0227 H   0  0  0  0  0  0  0  0  0  0  0  0
  142.3646   80.7101  224.6708 H   0  0  0  0  0  0  0  0  0  0  0  0
  141.7519   78.5091  224.3876 H   0  0  0  0  0  0  0  0  0  0  0  0
  140.2886   79.3482  223.7662 H   0  0  0  0  0  0  0  0  0  0  0  0
  142.5932   78.1628  222.1078 H   0  0  0  0  0  0  0  0  0  0  0  0
  139.0035   78.2277  223.1230 H   0  0  0  0  0  0  0  0  0  0  0  0
  137.5583   76.2358  222.9821 H   0  0  0  0  0  0  0  0  0  0  0  0
  138.3788   74.1332  221.9439 H   0  0  0  0  0  0  0  0  0  0  0  0
  140.7122   74.0771  221.0314 H   0  0  0  0  0  0  0  0  0  0  0  0
  142.1536   76.0845  221.1721 H   0  0  0  0  0  0  0  0  0  0  0  0
  142.8095   75.8348  216.5534 H   0  0  0  0  0  0  0  0  0  0  0  0
  144.0553   73.6679  216.3901 H   0  0  0  0  0  0  0  0  0  0  0  0
  145.3104   71.9945  217.4306 H   0  0  0  0  0  0  0  0  0  0  0  0
  146.2075   72.2996  221.6417 H   0  0  0  0  0  0  0  0  0  0  0  0
  144.9720   74.4501  221.7993 H   0  0  0  0  0  0  0  0  0  0  0  0
  1  2  2  0
  2  3  1  0
  3  4  1  0
  4  5  1  0
  5  6  2  0
  5  7  1  0
  7  8  1  0
  8  9  1  0
  9 10  1  0
 10 11  1  0
 11 12  1  0
 12 13  1  0
 13 14  1  0
 14 15  2  0
 15 16  1  0
 16 17  2  0
 17 18  1  0
 18 19  2  0
  2 20  1  0
 20 21  2  0
 21 22  1  0
 22 23  2  0
 23 24  1  0
 24 25  2  0
 25 26  1  0
 25 27  1  0
 27 28  2  0
 28 29  1  0
 29 30  2  0
 13  7  1  0
 19 14  1  0
 30 20  1  0
 29 23  1  0
  3 31  1  0
  4 32  1  0
  4 33  1  0
  8 34  1  0
  8 35  1  0
  9 36  1  0
  9 37  1  0
 10 38  1  0
 10 39  1  0
 11 40  1  0
 11 41  1  0
 12 42  1  0
 12 43  1  0
 13 44  1  1
 15 45  1  0
 16 46  1  0
 17 47  1  0
 18 48  1  0
 19 49  1  0
 21 50  1  0
 22 51  1  0
 24 52  1  0
 27 53  1  0
 28 54  1  0
M  END
>  <smiles>  (54) 
O=C(NCC(=O)N1CCCCCC1c1ccccc1)c1ccc2cc(F)ccc2n1

>  <score_type>  (54) 
oracle

>  <origin>  (54) 
autodockgpu

>  <m_score__min__energy>  (54) 
-6.8700000000000001

>  <m_primary>  (54) 
energy

>  <rmsd>  (54) 
7.803630667906513

>  <m_score__min__rmsd>  (54) 
7.803630667906513

>  <meeko>  (54) 
{"free_energy": -4.8, "intermolecular_energy": -8.08, "internal_energy": -2.13, "cluster_size": 1, "cluster_id": 8, "rank_in_cluster": 1}

>  <energy>  (54) 
-6.7

>  <cluster_rmsd>  (54) 
0.71

>  <cluster>  (54) 
1

$$$$

     RDKit          3D

 54 57  0  0  0  0  0  0  0  0999 V2000
  139.6530   75.4590  222.3660 O   0  0  0  0  0  0  0  0  0  0  0  0
  140.7250   76.0180  222.0340 C   0  0  0  0  0  0  0  0  0  0  0  0
  141.7520   75.1850  221.4850 N   0  0  0  0  0  0  0  0  0  0  0  0
  141.4630   73.7640  221.3610 C   0  0  0  0  0  0  0  0  0  0  0  0
  141.8460   73.2530  220.0220 C   0  0  0  0  0  0  0  0  0  0  0  0
  142.1620   72.0210  219.8970 O   0  0  0  0  0  0  0  0  0  0  0  0
  141.8850   74.0620  218.8520 N   0  0  0  0  0  0  0  0  0  0  0  0
  140.5630   74.4250  218.3830 C   0  0  0  0  0  0  0  0  0  0  0  0
  140.1150   75.7970  218.7320 C   0  0  0  0  0  0  0  0  0  0  0  0
  141.1730   76.8520  218.4990 C   0  0  0  0  0  0  0  0  0  0  0  0
  142.4590   76.5490  219.2090 C   0  0  0  0  0  0  0  0  0  0  0  0
  143.3920   75.8640  218.2670 C   0  0  0  0  0  0  0  0  0  0  0  0
  143.2180   74.3550  218.3830 C   0  0  1  0  0  0  0  0  0  0  0  0
  144.2890   73.8130  219.2680 C   0  0  0  0  0  0  0  0  0  0  0  0
  144.9010   72.6070  219.0090 C   0  0  0  0  0  0  0  0  0  0  0  0
  145.8970   72.1070  219.8360 C   0  0  0  0  0  0  0  0  0  0  0  0
  146.3140   72.7980  220.9530 C   0  0  0  0  0  0  0  0  0  0  0  0
  145.7060   74.0190  221.2300 C   0  0  0  0  0  0  0  0  0  0  0  0
  144.7090   74.5130  220.3940 C   0  0  0  0  0  0  0  0  0  0  0  0
  140.9630   77.4490  222.1800 C   0  0  0  0  0  0  0  0  0  0  0  0
  141.4380   77.8960  223.3980 C   0  0  0  0  0  0  0  0  0  0  0  0
  141.6920   79.2410  223.6240 C   0  0  0  0  0  0  0  0  0  0  0  0
  141.4430   80.1060  222.5640 C   0  0  0  0  0  0  0  0  0  0  0  0
  141.7010   81.4430  222.8070 C   0  0  0  0  0  0  0  0  0  0  0  0
  141.4560   82.3210  221.7500 C   0  0  0  0  0  0  0  0  0  0  0  0
  141.7020   83.6480  221.9610 F   0  0  0  0  0  0  0  0  0  0  0  0
  140.9830   81.8600  220.5440 C   0  0  0  0  0  0  0  0  0  0  0  0
  140.7310   80.5170  220.3230 C   0  0  0  0  0  0  0  0  0  0  0  0
  140.9690   79.6400  221.3540 C   0  0  0  0  0  0  0  0  0  0  0  0
  140.7440   78.3400  221.1980 N   0  0  0  0  0  0  0  0  0  0  0  0
  142.6610   75.6120  221.1960 H   0  0  0  0  0  0  0  0  0  0  0  0
  142.0270   73.2149  222.1293 H   0  0  0  0  0  0  0  0  0  0  0  0
  140.3811   73.6159  221.4937 H   0  0  0  0  0  0  0  0  0  0  0  0
  140.5558   74.3348  217.2867 H   0  0  0  0  0  0  0  0  0  0  0  0
  139.8650   73.7417  218.8889 H   0  0  0  0  0  0  0  0  0  0  0  0
  139.2359   76.0434  218.1184 H   0  0  0  0  0  0  0  0  0  0  0  0
  139.8853   75.7997  219.8077 H   0  0  0  0  0  0  0  0  0  0  0  0
  141.3738   76.9165  217.4194 H   0  0  0  0  0  0  0  0  0  0  0  0
  140.7886   77.8019  218.8988 H   0  0  0  0  0  0  0  0  0  0  0  0
  142.9144   77.4865  219.5607 H   0  0  0  0  0  0  0  0  0  0  0  0
  142.2593   75.8953  220.0709 H   0  0  0  0  0  0  0  0  0  0  0  0
  143.1699   76.1801  217.2371 H   0  0  0  0  0  0  0  0  0  0  0  0
  144.4284   76.1328  218.5191 H   0  0  0  0  0  0  0  0  0  0  0  0
  143.3240   73.8626  217.4051 H   0  0  0  0  0  0  0  0  0  0  0  0
  144.5935   72.0267  218.1266 H   0  0  0  0  0  0  0  0  0  0  0  0
  146.3628   71.1400  219.5951 H   0  0  0  0  0  0  0  0  0  0  0  0
  147.1033   72.3968  221.6058 H   0  0  0  0  0  0  0  0  0  0  0  0
  146.0150   74.5963  222.1139 H   0  0  0  0  0  0  0  0  0  0  0  0
  144.2418   75.4806  220.6295 H   0  0  0  0  0  0  0  0  0  0  0  0
  141.6185   77.1706  224.2050 H   0  0  0  0  0  0  0  0  0  0  0  0
  142.0705   79.6042  224.5909 H   0  0  0  0  0  0  0  0  0  0  0  0
  142.0781   81.7946  223.7787 H   0  0  0  0  0  0  0  0  0  0  0  0
  140.7997   82.5789  219.7318 H   0  0  0  0  0  0  0  0  0  0  0  0
  140.3522   80.1629  219.3529 H   0  0  0  0  0  0  0  0  0  0  0  0
  1  2  2  0
  2  3  1  0
  3  4  1  0
  4  5  1  0
  5  6  2  0
  5  7  1  0
  7  8  1  0
  8  9  1  0
  9 10  1  0
 10 11  1  0
 11 12  1  0
 12 13  1  0
 13 14  1  0
 14 15  2  0
 15 16  1  0
 16 17  2  0
 17 18  1  0
 18 19  2  0
  2 20  1  0
 20 21  2  0
 21 22  1  0
 22 23  2  0
 23 24  1  0
 24 25  2  0
 25 26  1  0
 25 27  1  0
 27 28  2  0
 28 29  1  0
 29 30  2  0
 13  7  1  0
 19 14  1  0
 30 20  1  0
 29 23  1  0
  3 31  1  0
  4 32  1  0
  4 33  1  0
  8 34  1  0
  8 35  1  0
  9 36  1  0
  9 37  1  0
 10 38  1  0
 10 39  1  0
 11 40  1  0
 11 41  1  0
 12 42  1  0
 12 43  1  0
 13 44  1  6
 15 45  1  0
 16 46  1  0
 17 47  1  0
 18 48  1  0
 19 49  1  0
 21 50  1  0
 22 51  1  0
 24 52  1  0
 27 53  1  0
 28 54  1  0
M  END
>  <smiles>  (55) 
O=C(NCC(=O)N1CCCCCC1c1ccccc1)c1ccc2cc(F)ccc2n1

>  <score_type>  (55) 
oracle

>  <origin>  (55) 
autodockgpu

>  <m_score__min__energy>  (55) 
-6.8700000000000001

>  <m_primary>  (55) 
energy

>  <rmsd>  (55) 
8.243224786402587

>  <m_score__min__rmsd>  (55) 
8.243224786402587

>  <meeko>  (55) 
{"free_energy": -5.13, "intermolecular_energy": -8.41, "internal_energy": -2.15, "cluster_size": 2, "cluster_id": 5, "rank_in_cluster": 1}

>  <energy>  (55) 
-6.53

>  <cluster_rmsd>  (55) 
1.93

>  <cluster>  (55) 
1

$$$$

     RDKit          3D

 54 57  0  0  0  0  0  0  0  0999 V2000
  141.0700   72.0660  221.3270 O   0  0  0  0  0  0  0  0  0  0  0  0
  140.3180   72.3500  222.2900 C   0  0  0  0  0  0  0  0  0  0  0  0
  139.5450   73.5490  222.1800 N   0  0  0  0  0  0  0  0  0  0  0  0
  139.6970   74.3330  220.9630 C   0  0  0  0  0  0  0  0  0  0  0  0
  139.3680   75.7600  221.1990 C   0  0  0  0  0  0  0  0  0  0  0  0
  138.4120   76.0510  221.9960 O   0  0  0  0  0  0  0  0  0  0  0  0
  140.0590   76.8390  220.5820 N   0  0  0  0  0  0  0  0  0  0  0  0
  139.2620   77.5050  219.5720 C   0  0  0  0  0  0  0  0  0  0  0  0
  139.5770   77.1420  218.1670 C   0  0  0  0  0  0  0  0  0  0  0  0
  141.0570   77.1710  217.8560 C   0  0  0  0  0  0  0  0  0  0  0  0
  141.8600   76.3070  218.7820 C   0  0  0  0  0  0  0  0  0  0  0  0
  142.3670   77.1350  219.9150 C   0  0  0  0  0  0  0  0  0  0  0  0
  141.3960   77.0480  221.0850 C   0  0  1  0  0  0  0  0  0  0  0  0
  141.5300   78.2790  221.9150 C   0  0  0  0  0  0  0  0  0  0  0  0
  141.7400   79.5160  221.3460 C   0  0  0  0  0  0  0  0  0  0  0  0
  141.8640   80.6600  222.1230 C   0  0  0  0  0  0  0  0  0  0  0  0
  141.7830   80.6040  223.4980 C   0  0  0  0  0  0  0  0  0  0  0  0
  141.5710   79.3620  224.0890 C   0  0  0  0  0  0  0  0  0  0  0  0
  141.4470   78.2210  223.3020 C   0  0  0  0  0  0  0  0  0  0  0  0
  140.2030   71.5280  223.4880 C   0  0  0  0  0  0  0  0  0  0  0  0
  139.5530   70.3150  223.3710 C   0  0  0  0  0  0  0  0  0  0  0  0
  139.3990   69.4700  224.4600 C   0  0  0  0  0  0  0  0  0  0  0  0
  139.9310   69.9110  225.6680 C   0  0  0  0  0  0  0  0  0  0  0  0
  139.7680   69.0560  226.7430 C   0  0  0  0  0  0  0  0  0  0  0  0
  140.2990   69.4880  227.9600 C   0  0  0  0  0  0  0  0  0  0  0  0
  140.1520   68.6640  229.0400 F   0  0  0  0  0  0  0  0  0  0  0  0
  140.9430   70.6990  228.0600 C   0  0  0  0  0  0  0  0  0  0  0  0
  141.0940   71.5390  226.9710 C   0  0  0  0  0  0  0  0  0  0  0  0
  140.5770   71.1270  225.7650 C   0  0  0  0  0  0  0  0  0  0  0  0
  140.6940   71.8930  224.6850 N   0  0  0  0  0  0  0  0  0  0  0  0
  138.9060   73.8220  222.9600 H   0  0  0  0  0  0  0  0  0  0  0  0
  140.7379   74.2576  220.6154 H   0  0  0  0  0  0  0  0  0  0  0  0
  139.0051   73.9370  220.2051 H   0  0  0  0  0  0  0  0  0  0  0  0
  138.2060   77.2589  219.7570 H   0  0  0  0  0  0  0  0  0  0  0  0
  139.4905   78.5769  219.6654 H   0  0  0  0  0  0  0  0  0  0  0  0
  139.2006   76.1261  217.9767 H   0  0  0  0  0  0  0  0  0  0  0  0
  139.0951   77.8917  217.5223 H   0  0  0  0  0  0  0  0  0  0  0  0
  141.2071   76.8168  216.8255 H   0  0  0  0  0  0  0  0  0  0  0  0
  141.4033   78.2071  217.9845 H   0  0  0  0  0  0  0  0  0  0  0  0
  141.2249   75.4986  219.1733 H   0  0  0  0  0  0  0  0  0  0  0  0
  142.7095   75.8717  218.2353 H   0  0  0  0  0  0  0  0  0  0  0  0
  143.3530   76.7617  220.2288 H   0  0  0  0  0  0  0  0  0  0  0  0
  142.4562   78.1824  219.5911 H   0  0  0  0  0  0  0  0  0  0  0  0
  141.6266   76.1911  221.7350 H   0  0  0  0  0  0  0  0  0  0  0  0
  141.8111   79.5992  220.2514 H   0  0  0  0  0  0  0  0  0  0  0  0
  142.0301   81.6301  221.6317 H   0  0  0  0  0  0  0  0  0  0  0  0
  141.8829   81.5130  224.1093 H   0  0  0  0  0  0  0  0  0  0  0  0
  141.5011   79.2818  225.1838 H   0  0  0  0  0  0  0  0  0  0  0  0
  141.2792   77.2491  223.7891 H   0  0  0  0  0  0  0  0  0  0  0  0
  139.1489   70.0127  222.3936 H   0  0  0  0  0  0  0  0  0  0  0  0
  138.8835   68.5021  224.3734 H   0  0  0  0  0  0  0  0  0  0  0  0
  139.2496   68.0908  226.6448 H   0  0  0  0  0  0  0  0  0  0  0  0
  141.3498   71.0088  229.0339 H   0  0  0  0  0  0  0  0  0  0  0  0
  141.6109   72.5053  227.0667 H   0  0  0  0  0  0  0  0  0  0  0  0
  1  2  2  0
  2  3  1  0
  3  4  1  0
  4  5  1  0
  5  6  2  0
  5  7  1  0
  7  8  1  0
  8  9  1  0
  9 10  1  0
 10 11  1  0
 11 12  1  0
 12 13  1  0
 13 14  1  0
 14 15  2  0
 15 16  1  0
 16 17  2  0
 17 18  1  0
 18 19  2  0
  2 20  1  0
 20 21  2  0
 21 22  1  0
 22 23  2  0
 23 24  1  0
 24 25  2  0
 25 26  1  0
 25 27  1  0
 27 28  2  0
 28 29  1  0
 29 30  2  0
 13  7  1  0
 19 14  1  0
 30 20  1  0
 29 23  1  0
  3 31  1  0
  4 32  1  0
  4 33  1  0
  8 34  1  0
  8 35  1  0
  9 36  1  0
  9 37  1  0
 10 38  1  0
 10 39  1  0
 11 40  1  0
 11 41  1  0
 12 42  1  0
 12 43  1  0
 13 44  1  1
 15 45  1  0
 16 46  1  0
 17 47  1  0
 18 48  1  0
 19 49  1  0
 21 50  1  0
 22 51  1  0
 24 52  1  0
 27 53  1  0
 28 54  1  0
M  END
>  <smiles>  (56) 
O=C(NCC(=O)N1CCCCCC1c1ccccc1)c1ccc2cc(F)ccc2n1

>  <score_type>  (56) 
oracle

>  <origin>  (56) 
autodockgpu

>  <m_score__min__energy>  (56) 
-6.8700000000000001

>  <m_primary>  (56) 
energy

>  <rmsd>  (56) 
1.8028679025832053

>  <m_score__min__rmsd>  (56) 
1.8028679025832053

>  <meeko>  (56) 
{"free_energy": -6.81, "intermolecular_energy": -10.09, "internal_energy": -1.83, "cluster_size": 11, "cluster_id": 1, "rank_in_cluster": 3}

>  <energy>  (56) 
-6.45

>  <cluster_rmsd>  (56) 
1.01

>  <cluster>  (56) 
1

$$$$

     RDKit          3D

 54 57  0  0  0  0  0  0  0  0999 V2000
  137.1340   75.9880  222.0600 O   0  0  0  0  0  0  0  0  0  0  0  0
  138.3630   76.1130  222.2800 C   0  0  0  0  0  0  0  0  0  0  0  0
  139.1610   74.9280  222.2070 N   0  0  0  0  0  0  0  0  0  0  0  0
  138.4800   73.6830  221.8860 C   0  0  0  0  0  0  0  0  0  0  0  0
  139.4240   72.5390  221.8810 C   0  0  0  0  0  0  0  0  0  0  0  0
  140.6710   72.7680  221.7150 O   0  0  0  0  0  0  0  0  0  0  0  0
  139.0220   71.1850  222.0490 N   0  0  0  0  0  0  0  0  0  0  0  0
  139.3870   70.3530  220.9210 C   0  0  0  0  0  0  0  0  0  0  0  0
  139.7790   68.9600  221.2550 C   0  0  0  0  0  0  0  0  0  0  0  0
  138.6280   68.1140  221.7520 C   0  0  0  0  0  0  0  0  0  0  0  0
  138.2120   68.4650  223.1500 C   0  0  0  0  0  0  0  0  0  0  0  0
  137.4160   69.7280  223.1230 C   0  0  0  0  0  0  0  0  0  0  0  0
  138.3440   70.9230  223.2960 C   0  0  1  0  0  0  0  0  0  0  0  0
  139.2750   70.6490  224.4280 C   0  0  0  0  0  0  0  0  0  0  0  0
  138.8540   70.0110  225.5750 C   0  0  0  0  0  0  0  0  0  0  0  0
  139.7240   69.7590  226.6260 C   0  0  0  0  0  0  0  0  0  0  0  0
  141.0480   70.1380  226.5670 C   0  0  0  0  0  0  0  0  0  0  0  0
  141.4910   70.7830  225.4150 C   0  0  0  0  0  0  0  0  0  0  0  0
  140.6110   71.0310  224.3660 C   0  0  0  0  0  0  0  0  0  0  0  0
  138.9960   77.3870  222.5980 C   0  0  0  0  0  0  0  0  0  0  0  0
  138.1700   78.4610  222.8700 C   0  0  0  0  0  0  0  0  0  0  0  0
  138.6880   79.7090  223.1830 C   0  0  0  0  0  0  0  0  0  0  0  0
  140.0750   79.8180  223.2060 C   0  0  0  0  0  0  0  0  0  0  0  0
  140.5730   81.0690  223.5190 C   0  0  0  0  0  0  0  0  0  0  0  0
  141.9640   81.1900  223.5460 C   0  0  0  0  0  0  0  0  0  0  0  0
  142.4850   82.4150  223.8530 F   0  0  0  0  0  0  0  0  0  0  0  0
  142.7720   80.1120  223.2730 C   0  0  0  0  0  0  0  0  0  0  0  0
  142.2510   78.8680  222.9610 C   0  0  0  0  0  0  0  0  0  0  0  0
  140.8830   78.7330  222.9310 C   0  0  0  0  0  0  0  0  0  0  0  0
  140.3280   77.5610  222.6380 N   0  0  0  0  0  0  0  0  0  0  0  0
  140.1890   74.9880  222.3840 H   0  0  0  0  0  0  0  0  0  0  0  0
  137.6974   73.4986  222.6367 H   0  0  0  0  0  0  0  0  0  0  0  0
  138.0412   73.7759  220.8816 H   0  0  0  0  0  0  0  0  0  0  0  0
  138.5246   70.3083  220.2396 H   0  0  0  0  0  0  0  0  0  0  0  0
  140.2787   70.8198  220.4772 H   0  0  0  0  0  0  0  0  0  0  0  0
  140.1935   68.4885  220.3518 H   0  0  0  0  0  0  0  0  0  0  0  0
  140.5154   69.0169  222.0701 H   0  0  0  0  0  0  0  0  0  0  0  0
  137.7683   68.2610  221.0817 H   0  0  0  0  0  0  0  0  0  0  0  0
  138.9645   67.0668  221.7588 H   0  0  0  0  0  0  0  0  0  0  0  0
  137.5986   67.6523  223.5663 H   0  0  0  0  0  0  0  0  0  0  0  0
  139.1048   68.6043  223.7772 H   0  0  0  0  0  0  0  0  0  0  0  0
  136.8912   69.8090  222.1597 H   0  0  0  0  0  0  0  0  0  0  0  0
  136.6828   69.7143  223.9429 H   0  0  0  0  0  0  0  0  0  0  0  0
  137.7825   71.8345  223.5489 H   0  0  0  0  0  0  0  0  0  0  0  0
  137.8039   69.6943  225.6590 H   0  0  0  0  0  0  0  0  0  0  0  0
  139.3497   69.2465  227.5244 H   0  0  0  0  0  0  0  0  0  0  0  0
  141.7333   69.9372  227.4037 H   0  0  0  0  0  0  0  0  0  0  0  0
  142.5418   71.0980  225.3339 H   0  0  0  0  0  0  0  0  0  0  0  0
  140.9812   71.5420  223.4650 H   0  0  0  0  0  0  0  0  0  0  0  0
  137.0791   78.3233  222.8376 H   0  0  0  0  0  0  0  0  0  0  0  0
  138.0363   80.5678  223.4017 H   0  0  0  0  0  0  0  0  0  0  0  0
  139.9112   81.9208  223.7346 H   0  0  0  0  0  0  0  0  0  0  0  0
  143.8639   80.2416  223.3033 H   0  0  0  0  0  0  0  0  0  0  0  0
  142.9104   78.0147  222.7440 H   0  0  0  0  0  0  0  0  0  0  0  0
  1  2  2  0
  2  3  1  0
  3  4  1  0
  4  5  1  0
  5  6  2  0
  5  7  1  0
  7  8  1  0
  8  9  1  0
  9 10  1  0
 10 11  1  0
 11 12  1  0
 12 13  1  0
 13 14  1  0
 14 15  2  0
 15 16  1  0
 16 17  2  0
 17 18  1  0
 18 19  2  0
  2 20  1  0
 20 21  2  0
 21 22  1  0
 22 23  2  0
 23 24  1  0
 24 25  2  0
 25 26  1  0
 25 27  1  0
 27 28  2  0
 28 29  1  0
 29 30  2  0
 13  7  1  0
 19 14  1  0
 30 20  1  0
 29 23  1  0
  3 31  1  0
  4 32  1  0
  4 33  1  0
  8 34  1  0
  8 35  1  0
  9 36  1  0
  9 37  1  0
 10 38  1  0
 10 39  1  0
 11 40  1  0
 11 41  1  0
 12 42  1  0
 12 43  1  0
 13 44  1  1
 15 45  1  0
 16 46  1  0
 17 47  1  0
 18 48  1  0
 19 49  1  0
 21 50  1  0
 22 51  1  0
 24 52  1  0
 27 53  1  0
 28 54  1  0
M  END
>  <smiles>  (57) 
O=C(NCC(=O)N1CCCCCC1c1ccccc1)c1ccc2cc(F)ccc2n1

>  <score_type>  (57) 
oracle

>  <origin>  (57) 
autodockgpu

>  <m_score__min__energy>  (57) 
-6.8700000000000001

>  <m_primary>  (57) 
energy

>  <rmsd>  (57) 
8.494145023771567

>  <m_score__min__rmsd>  (57) 
8.494145023771567

>  <meeko>  (57) 
{"free_energy": -5.13, "intermolecular_energy": -8.41, "internal_energy": -1.95, "cluster_size": 1, "cluster_id": 6, "rank_in_cluster": 1}

>  <energy>  (57) 
-6.38

>  <cluster_rmsd>  (57) 
1.03

>  <cluster>  (57) 
1

$$$$

     RDKit          3D

 54 57  0  0  0  0  0  0  0  0999 V2000
  141.2250   72.2220  221.5360 O   0  0  0  0  0  0  0  0  0  0  0  0
  140.3460   72.4520  222.4000 C   0  0  0  0  0  0  0  0  0  0  0  0
  139.5090   73.5940  222.1890 N   0  0  0  0  0  0  0  0  0  0  0  0
  139.7500   74.3870  220.9930 C   0  0  0  0  0  0  0  0  0  0  0  0
  140.9300   75.2700  221.1630 C   0  0  0  0  0  0  0  0  0  0  0  0
  141.3960   75.4610  222.3380 O   0  0  0  0  0  0  0  0  0  0  0  0
  141.5810   75.9290  220.0840 N   0  0  0  0  0  0  0  0  0  0  0  0
  141.4650   77.3710  220.1610 C   0  0  0  0  0  0  0  0  0  0  0  0
  142.1140   78.1240  219.0580 C   0  0  0  0  0  0  0  0  0  0  0  0
  141.4750   77.8840  217.7090 C   0  0  0  0  0  0  0  0  0  0  0  0
  141.6500   76.4740  217.2280 C   0  0  0  0  0  0  0  0  0  0  0  0
  142.7750   75.8410  217.9800 C   0  0  0  0  0  0  0  0  0  0  0  0
  142.2200   75.0350  219.1470 C   0  0  1  0  0  0  0  0  0  0  0  0
  143.3250   74.2370  219.7500 C   0  0  0  0  0  0  0  0  0  0  0  0
  144.3970   74.8400  220.3710 C   0  0  0  0  0  0  0  0  0  0  0  0
  145.4240   74.0930  220.9320 C   0  0  0  0  0  0  0  0  0  0  0  0
  145.4150   72.7150  220.8880 C   0  0  0  0  0  0  0  0  0  0  0  0
  144.3390   72.0900  220.2640 C   0  0  0  0  0  0  0  0  0  0  0  0
  143.3130   72.8470  219.7060 C   0  0  0  0  0  0  0  0  0  0  0  0
  140.1460   71.6240  223.5830 C   0  0  0  0  0  0  0  0  0  0  0  0
  139.4270   70.4540  223.4290 C   0  0  0  0  0  0  0  0  0  0  0  0
  139.1910   69.6060  224.5020 C   0  0  0  0  0  0  0  0  0  0  0  0
  139.7130   69.9990  225.7300 C   0  0  0  0  0  0  0  0  0  0  0  0
  139.4670   69.1420  226.7880 C   0  0  0  0  0  0  0  0  0  0  0  0
  139.9870   69.5250  228.0260 C   0  0  0  0  0  0  0  0  0  0  0  0
  139.7590   68.6980  229.0890 F   0  0  0  0  0  0  0  0  0  0  0  0
  140.7000   70.6930  228.1620 C   0  0  0  0  0  0  0  0  0  0  0  0
  140.9330   71.5360  227.0890 C   0  0  0  0  0  0  0  0  0  0  0  0
  140.4280   71.1720  225.8630 C   0  0  0  0  0  0  0  0  0  0  0  0
  140.6230   71.9430  224.7980 N   0  0  0  0  0  0  0  0  0  0  0  0
  138.7640   73.8210  222.8860 H   0  0  0  0  0  0  0  0  0  0  0  0
  139.9275   73.7106  220.1439 H   0  0  0  0  0  0  0  0  0  0  0  0
  138.8673   75.0171  220.8094 H   0  0  0  0  0  0  0  0  0  0  0  0
  140.3948   77.6254  220.1613 H   0  0  0  0  0  0  0  0  0  0  0  0
  141.9914   77.6678  221.0801 H   0  0  0  0  0  0  0  0  0  0  0  0
  142.0531   79.1983  219.2864 H   0  0  0  0  0  0  0  0  0  0  0  0
  143.1537   77.7709  218.9919 H   0  0  0  0  0  0  0  0  0  0  0  0
  140.3989   78.0984  217.7862 H   0  0  0  0  0  0  0  0  0  0  0  0
  141.9709   78.5462  216.9840 H   0  0  0  0  0  0  0  0  0  0  0  0
  140.7239   75.9068  217.4029 H   0  0  0  0  0  0  0  0  0  0  0  0
  141.8751   76.4733  216.1513 H   0  0  0  0  0  0  0  0  0  0  0  0
  143.3350   75.1741  217.3080 H   0  0  0  0  0  0  0  0  0  0  0  0
  143.4449   76.6248  218.3632 H   0  0  0  0  0  0  0  0  0  0  0  0
  141.4501   74.3236  218.8137 H   0  0  0  0  0  0  0  0  0  0  0  0
  144.4401   75.9379  220.4235 H   0  0  0  0  0  0  0  0  0  0  0  0
  146.2619   74.6110  221.4215 H   0  0  0  0  0  0  0  0  0  0  0  0
  146.2324   72.1279  221.3320 H   0  0  0  0  0  0  0  0  0  0  0  0
  144.2994   70.9920  220.2117 H   0  0  0  0  0  0  0  0  0  0  0  0
  142.4717   72.3331  219.2180 H   0  0  0  0  0  0  0  0  0  0  0  0
  139.0339   70.1895  222.4363 H   0  0  0  0  0  0  0  0  0  0  0  0
  138.6211   68.6722  224.3874 H   0  0  0  0  0  0  0  0  0  0  0  0
  138.8942   68.2115  226.6610 H   0  0  0  0  0  0  0  0  0  0  0  0
  141.0964   70.9651  229.1514 H   0  0  0  0  0  0  0  0  0  0  0  0
  141.5042   72.4678  227.2133 H   0  0  0  0  0  0  0  0  0  0  0  0
  1  2  2  0
  2  3  1  0
  3  4  1  0
  4  5  1  0
  5  6  2  0
  5  7  1  0
  7  8  1  0
  8  9  1  0
  9 10  1  0
 10 11  1  0
 11 12  1  0
 12 13  1  0
 13 14  1  0
 14 15  2  0
 15 16  1  0
 16 17  2  0
 17 18  1  0
 18 19  2  0
  2 20  1  0
 20 21  2  0
 21 22  1  0
 22 23  2  0
 23 24  1  0
 24 25  2  0
 25 26  1  0
 25 27  1  0
 27 28  2  0
 28 29  1  0
 29 30  2  0
 13  7  1  0
 19 14  1  0
 30 20  1  0
 29 23  1  0
  3 31  1  0
  4 32  1  0
  4 33  1  0
  8 34  1  0
  8 35  1  0
  9 36  1  0
  9 37  1  0
 10 38  1  0
 10 39  1  0
 11 40  1  0
 11 41  1  0
 12 42  1  0
 12 43  1  0
 13 44  1  6
 15 45  1  0
 16 46  1  0
 17 47  1  0
 18 48  1  0
 19 49  1  0
 21 50  1  0
 22 51  1  0
 24 52  1  0
 27 53  1  0
 28 54  1  0
M  END
>  <smiles>  (58) 
O=C(NCC(=O)N1CCCCCC1c1ccccc1)c1ccc2cc(F)ccc2n1

>  <score_type>  (58) 
oracle

>  <origin>  (58) 
autodockgpu

>  <m_score__min__energy>  (58) 
-6.8700000000000001

>  <m_primary>  (58) 
energy

>  <rmsd>  (58) 
2.2965374224292807

>  <m_score__min__rmsd>  (58) 
2.2965374224292807

>  <meeko>  (58) 
{"free_energy": -6.21, "intermolecular_energy": -9.49, "internal_energy": -1.92, "cluster_size": 16, "cluster_id": 2, "rank_in_cluster": 7}

>  <energy>  (58) 
-6.36

>  <cluster_rmsd>  (58) 
1.24

>  <cluster>  (58) 
1

$$$$

     RDKit          3D

 54 57  0  0  0  0  0  0  0  0999 V2000
  139.8510   70.6530  221.4730 O   0  0  0  0  0  0  0  0  0  0  0  0
  139.8180   71.1890  222.6060 C   0  0  0  0  0  0  0  0  0  0  0  0
  139.7660   72.6190  222.6490 N   0  0  0  0  0  0  0  0  0  0  0  0
  139.7570   73.3250  221.3760 C   0  0  0  0  0  0  0  0  0  0  0  0
  140.8910   74.2760  221.2810 C   0  0  0  0  0  0  0  0  0  0  0  0
  140.9120   75.2930  222.0540 O   0  0  0  0  0  0  0  0  0  0  0  0
  141.9710   74.1230  220.3680 N   0  0  0  0  0  0  0  0  0  0  0  0
  141.8260   72.9530  219.5250 C   0  0  0  0  0  0  0  0  0  0  0  0
  142.7020   71.8050  219.8700 C   0  0  0  0  0  0  0  0  0  0  0  0
  144.1730   72.1540  219.8840 C   0  0  0  0  0  0  0  0  0  0  0  0
  144.4480   73.5260  219.3450 C   0  0  0  0  0  0  0  0  0  0  0  0
  144.3580   74.5150  220.4590 C   0  0  0  0  0  0  0  0  0  0  0  0
  142.9760   75.1550  220.4650 C   0  0  1  0  0  0  0  0  0  0  0  0
  142.9040   76.1560  219.3630 C   0  0  0  0  0  0  0  0  0  0  0  0
  143.2300   75.8290  218.0650 C   0  0  0  0  0  0  0  0  0  0  0  0
  143.1620   76.7640  217.0420 C   0  0  0  0  0  0  0  0  0  0  0  0
  142.7650   78.0620  217.2830 C   0  0  0  0  0  0  0  0  0  0  0  0
  142.4310   78.4100  218.5900 C   0  0  0  0  0  0  0  0  0  0  0  0
  142.5020   77.4650  219.6090 C   0  0  0  0  0  0  0  0  0  0  0  0
  139.8290   70.4330  223.8530 C   0  0  0  0  0  0  0  0  0  0  0  0
  139.1940   69.2070  223.8620 C   0  0  0  0  0  0  0  0  0  0  0  0
  139.1570   68.4210  225.0050 C   0  0  0  0  0  0  0  0  0  0  0  0
  139.7900   68.9360  226.1320 C   0  0  0  0  0  0  0  0  0  0  0  0
  139.7420   68.1400  227.2620 C   0  0  0  0  0  0  0  0  0  0  0  0
  140.3740   68.6460  228.4000 C   0  0  0  0  0  0  0  0  0  0  0  0
  140.3440   67.8810  229.5310 F   0  0  0  0  0  0  0  0  0  0  0  0
  141.0020   69.8690  228.3740 C   0  0  0  0  0  0  0  0  0  0  0  0
  141.0360   70.6490  227.2310 C   0  0  0  0  0  0  0  0  0  0  0  0
  140.4190   70.1640  226.1030 C   0  0  0  0  0  0  0  0  0  0  0  0
  140.4210   70.8710  224.9770 N   0  0  0  0  0  0  0  0  0  0  0  0
  139.7370   73.1050  223.5730 H   0  0  0  0  0  0  0  0  0  0  0  0
  139.8340   72.5924  220.5591 H   0  0  0  0  0  0  0  0  0  0  0  0
  138.8186   73.8939  221.3004 H   0  0  0  0  0  0  0  0  0  0  0  0
  140.7815   72.6145  219.5916 H   0  0  0  0  0  0  0  0  0  0  0  0
  142.1257   73.2691  218.5149 H   0  0  0  0  0  0  0  0  0  0  0  0
  142.4209   71.4400  220.8689 H   0  0  0  0  0  0  0  0  0  0  0  0
  142.5573   71.0412  219.0917 H   0  0  0  0  0  0  0  0  0  0  0  0
  144.5366   72.1040  220.9210 H   0  0  0  0  0  0  0  0  0  0  0  0
  144.6916   71.4325  219.2356 H   0  0  0  0  0  0  0  0  0  0  0  0
  145.4569   73.5546  218.9076 H   0  0  0  0  0  0  0  0  0  0  0  0
  143.7095   73.7741  218.5684 H   0  0  0  0  0  0  0  0  0  0  0  0
  144.5283   74.0029  221.4175 H   0  0  0  0  0  0  0  0  0  0  0  0
  145.1206   75.2949  220.3170 H   0  0  0  0  0  0  0  0  0  0  0  0
  142.7868   75.6929  221.4057 H   0  0  0  0  0  0  0  0  0  0  0  0
  143.5517   74.8027  217.8342 H   0  0  0  0  0  0  0  0  0  0  0  0
  143.4302   76.4635  216.0184 H   0  0  0  0  0  0  0  0  0  0  0  0
  142.7135   78.7998  216.4688 H   0  0  0  0  0  0  0  0  0  0  0  0
  142.1095   79.4371  218.8176 H   0  0  0  0  0  0  0  0  0  0  0  0
  142.2337   77.7602  220.6341 H   0  0  0  0  0  0  0  0  0  0  0  0
  138.7073   68.8458  222.9440 H   0  0  0  0  0  0  0  0  0  0  0  0
  138.6540   67.4428  225.0193 H   0  0  0  0  0  0  0  0  0  0  0  0
  139.2349   67.1639  227.2643 H   0  0  0  0  0  0  0  0  0  0  0  0
  141.4913   70.2380  229.2875 H   0  0  0  0  0  0  0  0  0  0  0  0
  141.5410   71.6262  227.2258 H   0  0  0  0  0  0  0  0  0  0  0  0
  1  2  2  0
  2  3  1  0
  3  4  1  0
  4  5  1  0
  5  6  2  0
  5  7  1  0
  7  8  1  0
  8  9  1  0
  9 10  1  0
 10 11  1  0
 11 12  1  0
 12 13  1  0
 13 14  1  0
 14 15  2  0
 15 16  1  0
 16 17  2  0
 17 18  1  0
 18 19  2  0
  2 20  1  0
 20 21  2  0
 21 22  1  0
 22 23  2  0
 23 24  1  0
 24 25  2  0
 25 26  1  0
 25 27  1  0
 27 28  2  0
 28 29  1  0
 29 30  2  0
 13  7  1  0
 19 14  1  0
 30 20  1  0
 29 23  1  0
  3 31  1  0
  4 32  1  0
  4 33  1  0
  8 34  1  0
  8 35  1  0
  9 36  1  0
  9 37  1  0
 10 38  1  0
 10 39  1  0
 11 40  1  0
 11 41  1  0
 12 42  1  0
 12 43  1  0
 13 44  1  1
 15 45  1  0
 16 46  1  0
 17 47  1  0
 18 48  1  0
 19 49  1  0
 21 50  1  0
 22 51  1  0
 24 52  1  0
 27 53  1  0
 28 54  1  0
M  END
>  <smiles>  (59) 
O=C(NCC(=O)N1CCCCCC1c1ccccc1)c1ccc2cc(F)ccc2n1

>  <score_type>  (59) 
oracle

>  <origin>  (59) 
autodockgpu

>  <m_score__min__energy>  (59) 
-6.8700000000000001

>  <m_primary>  (59) 
energy

>  <rmsd>  (59) 
2.675106156236544

>  <m_score__min__rmsd>  (59) 
2.675106156236544

>  <meeko>  (59) 
{"free_energy": -6.01, "intermolecular_energy": -9.29, "internal_energy": -1.64, "cluster_size": 16, "cluster_id": 3, "rank_in_cluster": 4}

>  <energy>  (59) 
-6.24

>  <cluster_rmsd>  (59) 
1.06

>  <cluster>  (59) 
1

$$$$

     RDKit          3D

 54 57  0  0  0  0  0  0  0  0999 V2000
  140.9880   71.8850  221.3390 O   0  0  0  0  0  0  0  0  0  0  0  0
  140.2170   72.1660  222.2880 C   0  0  0  0  0  0  0  0  0  0  0  0
  139.3720   73.3090  222.1240 N   0  0  0  0  0  0  0  0  0  0  0  0
  139.4790   74.0440  220.8720 C   0  0  0  0  0  0  0  0  0  0  0  0
  140.6750   74.9200  220.8640 C   0  0  0  0  0  0  0  0  0  0  0  0
  141.3570   75.0460  221.9380 O   0  0  0  0  0  0  0  0  0  0  0  0
  141.1160   75.6410  219.7190 N   0  0  0  0  0  0  0  0  0  0  0  0
  140.7270   77.0360  219.7580 C   0  0  0  0  0  0  0  0  0  0  0  0
  141.8460   78.0120  219.7340 C   0  0  0  0  0  0  0  0  0  0  0  0
  142.6000   78.0300  218.4240 C   0  0  0  0  0  0  0  0  0  0  0  0
  143.3140   76.7400  218.1470 C   0  0  0  0  0  0  0  0  0  0  0  0
  142.3320   75.7330  217.6290 C   0  0  0  0  0  0  0  0  0  0  0  0
  141.8530   74.8430  218.7680 C   0  0  1  0  0  0  0  0  0  0  0  0
  143.0300   74.1490  219.3660 C   0  0  0  0  0  0  0  0  0  0  0  0
  143.3120   72.8310  219.0860 C   0  0  0  0  0  0  0  0  0  0  0  0
  144.4090   72.1890  219.6440 C   0  0  0  0  0  0  0  0  0  0  0  0
  145.2610   72.8470  220.5050 C   0  0  0  0  0  0  0  0  0  0  0  0
  144.9910   74.1800  220.7990 C   0  0  0  0  0  0  0  0  0  0  0  0
  143.8890   74.8150  220.2330 C   0  0  0  0  0  0  0  0  0  0  0  0
  140.1500   71.3940  223.5230 C   0  0  0  0  0  0  0  0  0  0  0  0
  139.5730   70.1400  223.4620 C   0  0  0  0  0  0  0  0  0  0  0  0
  139.4690   69.3380  224.5890 C   0  0  0  0  0  0  0  0  0  0  0  0
  139.9720   69.8650  225.7750 C   0  0  0  0  0  0  0  0  0  0  0  0
  139.8590   69.0520  226.8880 C   0  0  0  0  0  0  0  0  0  0  0  0
  140.3610   69.5700  228.0830 C   0  0  0  0  0  0  0  0  0  0  0  0
  140.2630   68.7890  229.2000 F   0  0  0  0  0  0  0  0  0  0  0  0
  140.9320   70.8200  228.1270 C   0  0  0  0  0  0  0  0  0  0  0  0
  141.0340   71.6170  227.0000 C   0  0  0  0  0  0  0  0  0  0  0  0
  140.5450   71.1200  225.8150 C   0  0  0  0  0  0  0  0  0  0  0  0
  140.6170   71.8420  224.7010 N   0  0  0  0  0  0  0  0  0  0  0  0
  138.7150   73.5770  222.8910 H   0  0  0  0  0  0  0  0  0  0  0  0
  139.5537   73.3275  220.0407 H   0  0  0  0  0  0  0  0  0  0  0  0
  138.5848   74.6751  220.7615 H   0  0  0  0  0  0  0  0  0  0  0  0
  140.0860   77.2337  218.8862 H   0  0  0  0  0  0  0  0  0  0  0  0
  140.2197   77.1815  220.7231 H   0  0  0  0  0  0  0  0  0  0  0  0
  141.4360   79.0168  219.9140 H   0  0  0  0  0  0  0  0  0  0  0  0
  142.5589   77.7074  220.5144 H   0  0  0  0  0  0  0  0  0  0  0  0
  141.8851   78.2180  217.6094 H   0  0  0  0  0  0  0  0  0  0  0  0
  143.3604   78.8221  218.4901 H   0  0  0  0  0  0  0  0  0  0  0  0
  144.0991   76.9084  217.3952 H   0  0  0  0  0  0  0  0  0  0  0  0
  143.7722   76.3654  219.0742 H   0  0  0  0  0  0  0  0  0  0  0  0
  141.4708   76.2566  217.1883 H   0  0  0  0  0  0  0  0  0  0  0  0
  142.8202   75.1112  216.8642 H   0  0  0  0  0  0  0  0  0  0  0  0
  141.1653   74.0642  218.4067 H   0  0  0  0  0  0  0  0  0  0  0  0
  142.6527   72.2736  218.4043 H   0  0  0  0  0  0  0  0  0  0  0  0
  144.6021   71.1352  219.3944 H   0  0  0  0  0  0  0  0  0  0  0  0
  146.1281   72.3338  220.9463 H   0  0  0  0  0  0  0  0  0  0  0  0
  145.6514   74.7346  221.4818 H   0  0  0  0  0  0  0  0  0  0  0  0
  143.6931   75.8694  220.4777 H   0  0  0  0  0  0  0  0  0  0  0  0
  139.1883   69.7701  222.5001 H   0  0  0  0  0  0  0  0  0  0  0  0
  139.0129   68.3379  224.5476 H   0  0  0  0  0  0  0  0  0  0  0  0
  139.3996   68.0539  226.8346 H   0  0  0  0  0  0  0  0  0  0  0  0
  141.3188   71.1974  229.0851 H   0  0  0  0  0  0  0  0  0  0  0  0
  141.4916   72.6160  227.0508 H   0  0  0  0  0  0  0  0  0  0  0  0
  1  2  2  0
  2  3  1  0
  3  4  1  0
  4  5  1  0
  5  6  2  0
  5  7  1  0
  7  8  1  0
  8  9  1  0
  9 10  1  0
 10 11  1  0
 11 12  1  0
 12 13  1  0
 13 14  1  0
 14 15  2  0
 15 16  1  0
 16 17  2  0
 17 18  1  0
 18 19  2  0
  2 20  1  0
 20 21  2  0
 21 22  1  0
 22 23  2  0
 23 24  1  0
 24 25  2  0
 25 26  1  0
 25 27  1  0
 27 28  2  0
 28 29  1  0
 29 30  2  0
 13  7  1  0
 19 14  1  0
 30 20  1  0
 29 23  1  0
  3 31  1  0
  4 32  1  0
  4 33  1  0
  8 34  1  0
  8 35  1  0
  9 36  1  0
  9 37  1  0
 10 38  1  0
 10 39  1  0
 11 40  1  0
 11 41  1  0
 12 42  1  0
 12 43  1  0
 13 44  1  6
 15 45  1  0
 16 46  1  0
 17 47  1  0
 18 48  1  0
 19 49  1  0
 21 50  1  0
 22 51  1  0
 24 52  1  0
 27 53  1  0
 28 54  1  0
M  END
>  <smiles>  (60) 
O=C(NCC(=O)N1CCCCCC1c1ccccc1)c1ccc2cc(F)ccc2n1

>  <score_type>  (60) 
oracle

>  <origin>  (60) 
autodockgpu

>  <m_score__min__energy>  (60) 
-6.8700000000000001

>  <m_primary>  (60) 
energy

>  <rmsd>  (60) 
2.0387309073173494

>  <m_score__min__rmsd>  (60) 
2.0387309073173494

>  <meeko>  (60) 
{"free_energy": -5.84, "intermolecular_energy": -9.12, "internal_energy": -1.77, "cluster_size": 16, "cluster_id": 2, "rank_in_cluster": 10}

>  <energy>  (60) 
-6.18

>  <cluster_rmsd>  (60) 
0.63

>  <cluster>  (60) 
1

$$$$

     RDKit          3D

 54 57  0  0  0  0  0  0  0  0999 V2000
  139.7990   73.8110  222.6300 O   0  0  0  0  0  0  0  0  0  0  0  0
  139.8970   72.5800  222.4110 C   0  0  0  0  0  0  0  0  0  0  0  0
  139.9470   72.1640  221.0420 N   0  0  0  0  0  0  0  0  0  0  0  0
  139.8800   73.2040  220.0260 C   0  0  0  0  0  0  0  0  0  0  0  0
  141.1770   73.3510  219.3210 C   0  0  0  0  0  0  0  0  0  0  0  0
  141.1760   73.6920  218.0890 O   0  0  0  0  0  0  0  0  0  0  0  0
  142.4390   73.1310  219.9400 N   0  0  0  0  0  0  0  0  0  0  0  0
  142.9080   71.7700  219.7770 C   0  0  0  0  0  0  0  0  0  0  0  0
  144.1450   71.4270  220.5230 C   0  0  0  0  0  0  0  0  0  0  0  0
  145.3360   72.2740  220.1340 C   0  0  0  0  0  0  0  0  0  0  0  0
  145.3420   73.6120  220.8110 C   0  0  0  0  0  0  0  0  0  0  0  0
  144.4080   74.5300  220.0970 C   0  0  0  0  0  0  0  0  0  0  0  0
  142.9860   74.2970  220.5930 C   0  0  1  0  0  0  0  0  0  0  0  0
  142.1860   75.5340  220.3620 C   0  0  0  0  0  0  0  0  0  0  0  0
  142.3700   76.3170  219.2430 C   0  0  0  0  0  0  0  0  0  0  0  0
  141.6240   77.4670  219.0330 C   0  0  0  0  0  0  0  0  0  0  0  0
  140.6660   77.8760  219.9370 C   0  0  0  0  0  0  0  0  0  0  0  0
  140.4680   77.0960  221.0730 C   0  0  0  0  0  0  0  0  0  0  0  0
  141.2210   75.9430  221.2750 C   0  0  0  0  0  0  0  0  0  0  0  0
  139.9600   71.5780  223.4680 C   0  0  0  0  0  0  0  0  0  0  0  0
  139.4980   70.3100  223.1750 C   0  0  0  0  0  0  0  0  0  0  0  0
  139.5220   69.2960  224.1210 C   0  0  0  0  0  0  0  0  0  0  0  0
  140.0320   69.6270  225.3730 C   0  0  0  0  0  0  0  0  0  0  0  0
  140.0470   68.6040  226.3040 C   0  0  0  0  0  0  0  0  0  0  0  0
  140.5580   68.9250  227.5630 C   0  0  0  0  0  0  0  0  0  0  0  0
  140.5860   67.9340  228.5030 F   0  0  0  0  0  0  0  0  0  0  0  0
  141.0140   70.1920  227.8390 C   0  0  0  0  0  0  0  0  0  0  0  0
  140.9880   71.2000  226.8910 C   0  0  0  0  0  0  0  0  0  0  0  0
  140.4890   70.9000  225.6460 C   0  0  0  0  0  0  0  0  0  0  0  0
  140.4410   71.8300  224.6980 N   0  0  0  0  0  0  0  0  0  0  0  0
  140.0280   71.1480  220.8160 H   0  0  0  0  0  0  0  0  0  0  0  0
  139.1019   72.9409  219.2943 H   0  0  0  0  0  0  0  0  0  0  0  0
  139.6423   74.1578  220.5197 H   0  0  0  0  0  0  0  0  0  0  0  0
  142.1094   71.0934  220.1154 H   0  0  0  0  0  0  0  0  0  0  0  0
  143.1581   71.6622  218.7112 H   0  0  0  0  0  0  0  0  0  0  0  0
  143.9541   71.5664  221.5973 H   0  0  0  0  0  0  0  0  0  0  0  0
  144.3940   70.3843  220.2765 H   0  0  0  0  0  0  0  0  0  0  0  0
  146.2551   71.7362  220.4098 H   0  0  0  0  0  0  0  0  0  0  0  0
  145.2772   72.4510  219.0499 H   0  0  0  0  0  0  0  0  0  0  0  0
  145.0170   73.4967  221.8556 H   0  0  0  0  0  0  0  0  0  0  0  0
  146.3588   74.0312  220.7897 H   0  0  0  0  0  0  0  0  0  0  0  0
  144.6981   75.5728  220.2929 H   0  0  0  0  0  0  0  0  0  0  0  0
  144.4556   74.3323  219.0160 H   0  0  0  0  0  0  0  0  0  0  0  0
  142.9653   74.0942  221.6739 H   0  0  0  0  0  0  0  0  0  0  0  0
  143.1256   76.0232  218.4996 H   0  0  0  0  0  0  0  0  0  0  0  0
  141.7999   78.0653  218.1269 H   0  0  0  0  0  0  0  0  0  0  0  0
  140.0772   78.7893  219.7659 H   0  0  0  0  0  0  0  0  0  0  0  0
  139.7122   77.3926  221.8151 H   0  0  0  0  0  0  0  0  0  0  0  0
  141.0482   75.3408  222.1791 H   0  0  0  0  0  0  0  0  0  0  0  0
  139.1027   70.0998  222.1703 H   0  0  0  0  0  0  0  0  0  0  0  0
  139.1572   68.2835  223.8937 H   0  0  0  0  0  0  0  0  0  0  0  0
  139.6776   67.5956  226.0661 H   0  0  0  0  0  0  0  0  0  0  0  0
  141.4107   70.4109  228.8414 H   0  0  0  0  0  0  0  0  0  0  0  0
  141.3553   72.2098  227.1266 H   0  0  0  0  0  0  0  0  0  0  0  0
  1  2  2  0
  2  3  1  0
  3  4  1  0
  4  5  1  0
  5  6  2  0
  5  7  1  0
  7  8  1  0
  8  9  1  0
  9 10  1  0
 10 11  1  0
 11 12  1  0
 12 13  1  0
 13 14  1  0
 14 15  2  0
 15 16  1  0
 16 17  2  0
 17 18  1  0
 18 19  2  0
  2 20  1  0
 20 21  2  0
 21 22  1  0
 22 23  2  0
 23 24  1  0
 24 25  2  0
 25 26  1  0
 25 27  1  0
 27 28  2  0
 28 29  1  0
 29 30  2  0
 13  7  1  0
 19 14  1  0
 30 20  1  0
 29 23  1  0
  3 31  1  0
  4 32  1  0
  4 33  1  0
  8 34  1  0
  8 35  1  0
  9 36  1  0
  9 37  1  0
 10 38  1  0
 10 39  1  0
 11 40  1  0
 11 41  1  0
 12 42  1  0
 12 43  1  0
 13 44  1  1
 15 45  1  0
 16 46  1  0
 17 47  1  0
 18 48  1  0
 19 49  1  0
 21 50  1  0
 22 51  1  0
 24 52  1  0
 27 53  1  0
 28 54  1  0
M  END
>  <smiles>  (61) 
O=C(NCC(=O)N1CCCCCC1c1ccccc1)c1ccc2cc(F)ccc2n1

>  <score_type>  (61) 
oracle

>  <origin>  (61) 
autodockgpu

>  <m_score__min__energy>  (61) 
-6.8700000000000001

>  <m_primary>  (61) 
energy

>  <rmsd>  (61) 
3.2352236739928277

>  <m_score__min__rmsd>  (61) 
3.2352236739928277

>  <meeko>  (61) 
{"free_energy": -5.72, "intermolecular_energy": -9.0, "internal_energy": -1.92, "cluster_size": 16, "cluster_id": 3, "rank_in_cluster": 7}

>  <energy>  (61) 
-5.58

>  <cluster_rmsd>  (61) 
1.34

>  <cluster>  (61) 
1

$$$$

     RDKit          3D

 54 57  0  0  0  0  0  0  0  0999 V2000
  139.0760   71.2990  221.0780 O   0  0  0  0  0  0  0  0  0  0  0  0
  139.3350   71.8710  222.1640 C   0  0  0  0  0  0  0  0  0  0  0  0
  139.3990   73.3000  222.1480 N   0  0  0  0  0  0  0  0  0  0  0  0
  139.1580   73.9650  220.8760 C   0  0  0  0  0  0  0  0  0  0  0  0
  140.3350   73.8510  219.9790 C   0  0  0  0  0  0  0  0  0  0  0  0
  140.1840   74.0800  218.7300 O   0  0  0  0  0  0  0  0  0  0  0  0
  141.6360   73.4960  220.4290 N   0  0  0  0  0  0  0  0  0  0  0  0
  141.8880   72.0730  220.3350 C   0  0  0  0  0  0  0  0  0  0  0  0
  143.2670   71.6430  220.6780 C   0  0  0  0  0  0  0  0  0  0  0  0
  144.2040   72.7970  220.9580 C   0  0  0  0  0  0  0  0  0  0  0  0
  144.4160   73.6750  219.7600 C   0  0  0  0  0  0  0  0  0  0  0  0
  143.5420   74.8810  219.8710 C   0  0  0  0  0  0  0  0  0  0  0  0
  142.4300   74.6150  220.8790 C   0  0  1  0  0  0  0  0  0  0  0  0
  141.6390   75.8650  221.0630 C   0  0  0  0  0  0  0  0  0  0  0  0
  140.9740   76.1350  222.2390 C   0  0  0  0  0  0  0  0  0  0  0  0
  140.2380   77.2990  222.4070 C   0  0  0  0  0  0  0  0  0  0  0  0
  140.1410   78.2360  221.4000 C   0  0  0  0  0  0  0  0  0  0  0  0
  140.8060   77.9790  220.2040 C   0  0  0  0  0  0  0  0  0  0  0  0
  141.5420   76.8090  220.0460 C   0  0  0  0  0  0  0  0  0  0  0  0
  139.5680   71.1560  223.4130 C   0  0  0  0  0  0  0  0  0  0  0  0
  139.2460   69.8130  223.4500 C   0  0  0  0  0  0  0  0  0  0  0  0
  139.4360   69.0560  224.5970 C   0  0  0  0  0  0  0  0  0  0  0  0
  139.9640   69.7210  225.6990 C   0  0  0  0  0  0  0  0  0  0  0  0
  140.1460   68.9510  226.8340 C   0  0  0  0  0  0  0  0  0  0  0  0
  140.6760   69.6080  227.9460 C   0  0  0  0  0  0  0  0  0  0  0  0
  140.8670   68.8720  229.0810 F   0  0  0  0  0  0  0  0  0  0  0  0
  140.9910   70.9450  227.8930 C   0  0  0  0  0  0  0  0  0  0  0  0
  140.8000   71.6960  226.7460 C   0  0  0  0  0  0  0  0  0  0  0  0
  140.2790   71.0640  225.6420 C   0  0  0  0  0  0  0  0  0  0  0  0
  140.0750   71.7360  224.5140 N   0  0  0  0  0  0  0  0  0  0  0  0
  139.6120   73.8160  223.0310 H   0  0  0  0  0  0  0  0  0  0  0  0
  138.2885   73.5009  220.3876 H   0  0  0  0  0  0  0  0  0  0  0  0
  138.9704   75.0313  221.0706 H   0  0  0  0  0  0  0  0  0  0  0  0
  141.1938   71.5603  221.0172 H   0  0  0  0  0  0  0  0  0  0  0  0
  141.7449   71.8108  219.2763 H   0  0  0  0  0  0  0  0  0  0  0  0
  143.2210   71.0060  221.5736 H   0  0  0  0  0  0  0  0  0  0  0  0
  143.6659   71.1052  219.8053 H   0  0  0  0  0  0  0  0  0  0  0  0
  143.7795   73.4059  221.7698 H   0  0  0  0  0  0  0  0  0  0  0  0
  145.1801   72.3724  221.2354 H   0  0  0  0  0  0  0  0  0  0  0  0
  145.4697   73.9877  219.7154 H   0  0  0  0  0  0  0  0  0  0  0  0
  144.1618   73.1186  218.8458 H   0  0  0  0  0  0  0  0  0  0  0  0
  144.1429   75.7390  220.2066 H   0  0  0  0  0  0  0  0  0  0  0  0
  143.0995   75.1033  218.8888 H   0  0  0  0  0  0  0  0  0  0  0  0
  142.8366   74.3391  221.8632 H   0  0  0  0  0  0  0  0  0  0  0  0
  141.0279   75.4102  223.0647 H   0  0  0  0  0  0  0  0  0  0  0  0
  139.7219   77.4779  223.3618 H   0  0  0  0  0  0  0  0  0  0  0  0
  139.5565   79.1577  221.5373 H   0  0  0  0  0  0  0  0  0  0  0  0
  140.7491   78.7050  219.3796 H   0  0  0  0  0  0  0  0  0  0  0  0
  142.0601   76.6259  219.0931 H   0  0  0  0  0  0  0  0  0  0  0  0
  138.8303   69.3339  222.5513 H   0  0  0  0  0  0  0  0  0  0  0  0
  139.1825   67.9862  224.6332 H   0  0  0  0  0  0  0  0  0  0  0  0
  139.8878   67.8820  226.8588 H   0  0  0  0  0  0  0  0  0  0  0  0
  141.4067   71.4319  228.7875 H   0  0  0  0  0  0  0  0  0  0  0  0
  141.0571   72.7652  226.7188 H   0  0  0  0  0  0  0  0  0  0  0  0
  1  2  2  0
  2  3  1  0
  3  4  1  0
  4  5  1  0
  5  6  2  0
  5  7  1  0
  7  8  1  0
  8  9  1  0
  9 10  1  0
 10 11  1  0
 11 12  1  0
 12 13  1  0
 13 14  1  0
 14 15  2  0
 15 16  1  0
 16 17  2  0
 17 18  1  0
 18 19  2  0
  2 20  1  0
 20 21  2  0
 21 22  1  0
 22 23  2  0
 23 24  1  0
 24 25  2  0
 25 26  1  0
 25 27  1  0
 27 28  2  0
 28 29  1  0
 29 30  2  0
 13  7  1  0
 19 14  1  0
 30 20  1  0
 29 23  1  0
  3 31  1  0
  4 32  1  0
  4 33  1  0
  8 34  1  0
  8 35  1  0
  9 36  1  0
  9 37  1  0
 10 38  1  0
 10 39  1  0
 11 40  1  0
 11 41  1  0
 12 42  1  0
 12 43  1  0
 13 44  1  1
 15 45  1  0
 16 46  1  0
 17 47  1  0
 18 48  1  0
 19 49  1  0
 21 50  1  0
 22 51  1  0
 24 52  1  0
 27 53  1  0
 28 54  1  0
M  END
>  <smiles>  (62) 
O=C(NCC(=O)N1CCCCCC1c1ccccc1)c1ccc2cc(F)ccc2n1

>  <score_type>  (62) 
oracle

>  <origin>  (62) 
autodockgpu

>  <m_score__min__energy>  (62) 
-6.8700000000000001

>  <m_primary>  (62) 
energy

>  <rmsd>  (62) 
2.7250358047462298

>  <m_score__min__rmsd>  (62) 
2.7250358047462298

>  <meeko>  (62) 
{"free_energy": -5.23, "intermolecular_energy": -8.51, "internal_energy": -2.15, "cluster_size": 16, "cluster_id": 3, "rank_in_cluster": 13}

>  <energy>  (62) 
-6.62

>  <cluster_rmsd>  (62) 
0.0

>  <cluster>  (62) 
2

$$$$

     RDKit          3D

 54 57  0  0  0  0  0  0  0  0999 V2000
  140.0540   73.5970  222.3500 O   0  0  0  0  0  0  0  0  0  0  0  0
  140.1180   72.3450  222.3170 C   0  0  0  0  0  0  0  0  0  0  0  0
  140.2450   71.7320  221.0300 N   0  0  0  0  0  0  0  0  0  0  0  0
  140.2900   72.6140  219.8730 C   0  0  0  0  0  0  0  0  0  0  0  0
  141.5360   72.4150  219.0930 C   0  0  0  0  0  0  0  0  0  0  0  0
  141.4500   72.1710  217.8410 O   0  0  0  0  0  0  0  0  0  0  0  0
  142.8390   72.4770  219.6620 N   0  0  0  0  0  0  0  0  0  0  0  0
  143.5660   71.2320  219.5220 C   0  0  0  0  0  0  0  0  0  0  0  0
  144.9040   71.3410  218.8880 C   0  0  0  0  0  0  0  0  0  0  0  0
  145.9190   72.0630  219.7470 C   0  0  0  0  0  0  0  0  0  0  0  0
  145.5960   73.5160  219.9280 C   0  0  0  0  0  0  0  0  0  0  0  0
  144.5150   73.6570  220.9480 C   0  0  0  0  0  0  0  0  0  0  0  0
  143.1640   73.7540  220.2510 C   0  0  1  0  0  0  0  0  0  0  0  0
  143.2120   74.8670  219.2600 C   0  0  0  0  0  0  0  0  0  0  0  0
  142.9270   76.1670  219.6160 C   0  0  0  0  0  0  0  0  0  0  0  0
  142.9720   77.1990  218.6900 C   0  0  0  0  0  0  0  0  0  0  0  0
  143.3040   76.9660  217.3720 C   0  0  0  0  0  0  0  0  0  0  0  0
  143.5960   75.6570  216.9950 C   0  0  0  0  0  0  0  0  0  0  0  0
  143.5480   74.6290  217.9310 C   0  0  0  0  0  0  0  0  0  0  0  0
  140.0680   71.5070  223.5100 C   0  0  0  0  0  0  0  0  0  0  0  0
  139.4820   70.2620  223.3910 C   0  0  0  0  0  0  0  0  0  0  0  0
  139.3930   69.4000  224.4750 C   0  0  0  0  0  0  0  0  0  0  0  0
  139.9220   69.8580  225.6770 C   0  0  0  0  0  0  0  0  0  0  0  0
  139.8240   68.9870  226.7470 C   0  0  0  0  0  0  0  0  0  0  0  0
  140.3520   69.4360  227.9590 C   0  0  0  0  0  0  0  0  0  0  0  0
  140.2700   68.5950  229.0320 F   0  0  0  0  0  0  0  0  0  0  0  0
  140.9330   70.6780  228.0600 C   0  0  0  0  0  0  0  0  0  0  0  0
  141.0190   71.5340  226.9760 C   0  0  0  0  0  0  0  0  0  0  0  0
  140.5040   71.1060  225.7750 C   0  0  0  0  0  0  0  0  0  0  0  0
  140.5600   71.8870  224.7010 N   0  0  0  0  0  0  0  0  0  0  0  0
  140.3020   70.6920  220.9590 H   0  0  0  0  0  0  0  0  0  0  0  0
  139.4251   72.4025  219.2271 H   0  0  0  0  0  0  0  0  0  0  0  0
  140.2646   73.6548  220.2281 H   0  0  0  0  0  0  0  0  0  0  0  0
  143.7007   70.8034  220.5261 H   0  0  0  0  0  0  0  0  0  0  0  0
  142.9632   70.6043  218.8492 H   0  0  0  0  0  0  0  0  0  0  0  0
  145.2775   70.3264  218.6853 H   0  0  0  0  0  0  0  0  0  0  0  0
  144.7801   71.9301  217.9673 H   0  0  0  0  0  0  0  0  0  0  0  0
  145.9475   71.5831  220.7364 H   0  0  0  0  0  0  0  0  0  0  0  0
  146.8910   72.0002  219.2359 H   0  0  0  0  0  0  0  0  0  0  0  0
  146.4941   74.0527  220.2676 H   0  0  0  0  0  0  0  0  0  0  0  0
  145.2580   73.9406  218.9712 H   0  0  0  0  0  0  0  0  0  0  0  0
  144.5220   72.7803  221.6124 H   0  0  0  0  0  0  0  0  0  0  0  0
  144.6873   74.5685  221.5391 H   0  0  0  0  0  0  0  0  0  0  0  0
  142.3597   73.9881  220.9640 H   0  0  0  0  0  0  0  0  0  0  0  0
  142.6576   76.3919  220.6585 H   0  0  0  0  0  0  0  0  0  0  0  0
  142.7381   78.2240  219.0137 H   0  0  0  0  0  0  0  0  0  0  0  0
  143.3372   77.7877  216.6414 H   0  0  0  0  0  0  0  0  0  0  0  0
  143.8659   75.4352  215.9519 H   0  0  0  0  0  0  0  0  0  0  0  0
  143.7815   73.6024  217.6125 H   0  0  0  0  0  0  0  0  0  0  0  0
  139.0777   69.9474  222.4176 H   0  0  0  0  0  0  0  0  0  0  0  0
  138.9285   68.4067  224.3881 H   0  0  0  0  0  0  0  0  0  0  0  0
  139.3564   67.9962  226.6486 H   0  0  0  0  0  0  0  0  0  0  0  0
  141.3408   71.0003  229.0294 H   0  0  0  0  0  0  0  0  0  0  0  0
  141.4848   72.5259  227.0721 H   0  0  0  0  0  0  0  0  0  0  0  0
  1  2  2  0
  2  3  1  0
  3  4  1  0
  4  5  1  0
  5  6  2  0
  5  7  1  0
  7  8  1  0
  8  9  1  0
  9 10  1  0
 10 11  1  0
 11 12  1  0
 12 13  1  0
 13 14  1  0
 14 15  2  0
 15 16  1  0
 16 17  2  0
 17 18  1  0
 18 19  2  0
  2 20  1  0
 20 21  2  0
 21 22  1  0
 22 23  2  0
 23 24  1  0
 24 25  2  0
 25 26  1  0
 25 27  1  0
 27 28  2  0
 28 29  1  0
 29 30  2  0
 13  7  1  0
 19 14  1  0
 30 20  1  0
 29 23  1  0
  3 31  1  0
  4 32  1  0
  4 33  1  0
  8 34  1  0
  8 35  1  0
  9 36  1  0
  9 37  1  0
 10 38  1  0
 10 39  1  0
 11 40  1  0
 11 41  1  0
 12 42  1  0
 12 43  1  0
 13 44  1  1
 15 45  1  0
 16 46  1  0
 17 47  1  0
 18 48  1  0
 19 49  1  0
 21 50  1  0
 22 51  1  0
 24 52  1  0
 27 53  1  0
 28 54  1  0
M  END
>  <smiles>  (63) 
O=C(NCC(=O)N1CCCCCC1c1ccccc1)c1ccc2cc(F)ccc2n1

>  <score_type>  (63) 
oracle

>  <origin>  (63) 
autodockgpu

>  <m_score__min__energy>  (63) 
-6.8700000000000001

>  <m_primary>  (63) 
energy

>  <rmsd>  (63) 
3.712519902500173

>  <m_score__min__rmsd>  (63) 
3.712519902500173

>  <meeko>  (63) 
{"free_energy": -6.04, "intermolecular_energy": -9.32, "internal_energy": -1.73, "cluster_size": 16, "cluster_id": 3, "rank_in_cluster": 3}

>  <energy>  (63) 
-6.61

>  <cluster_rmsd>  (63) 
0.82

>  <cluster>  (63) 
2

$$$$

     RDKit          3D

 54 57  0  0  0  0  0  0  0  0999 V2000
  140.1830   71.3100  221.0400 O   0  0  0  0  0  0  0  0  0  0  0  0
  139.9360   71.8320  222.1540 C   0  0  0  0  0  0  0  0  0  0  0  0
  139.6870   73.2410  222.1720 N   0  0  0  0  0  0  0  0  0  0  0  0
  139.7410   73.9450  220.8990 C   0  0  0  0  0  0  0  0  0  0  0  0
  140.7250   75.0540  220.9400 C   0  0  0  0  0  0  0  0  0  0  0  0
  141.3630   75.2760  222.0260 O   0  0  0  0  0  0  0  0  0  0  0  0
  141.0050   75.8990  219.8310 N   0  0  0  0  0  0  0  0  0  0  0  0
  139.9930   76.9190  219.6400 C   0  0  0  0  0  0  0  0  0  0  0  0
  140.3230   77.9670  218.6400 C   0  0  0  0  0  0  0  0  0  0  0  0
  141.6710   78.6120  218.8690 C   0  0  0  0  0  0  0  0  0  0  0  0
  142.8010   77.8150  218.2870 C   0  0  0  0  0  0  0  0  0  0  0  0
  143.1980   76.7420  219.2480 C   0  0  0  0  0  0  0  0  0  0  0  0
  142.2270   75.5730  219.1350 C   0  0  1  0  0  0  0  0  0  0  0  0
  142.8910   74.3430  219.6520 C   0  0  0  0  0  0  0  0  0  0  0  0
  144.0090   74.4070  220.4550 C   0  0  0  0  0  0  0  0  0  0  0  0
  144.6240   73.2590  220.9340 C   0  0  0  0  0  0  0  0  0  0  0  0
  144.1420   72.0050  220.6240 C   0  0  0  0  0  0  0  0  0  0  0  0
  143.0130   71.9220  219.8140 C   0  0  0  0  0  0  0  0  0  0  0  0
  142.4020   73.0790  219.3390 C   0  0  0  0  0  0  0  0  0  0  0  0
  139.8940   71.0790  223.4010 C   0  0  0  0  0  0  0  0  0  0  0  0
  139.3550   69.8080  223.3630 C   0  0  0  0  0  0  0  0  0  0  0  0
  139.2770   69.0220  224.5030 C   0  0  0  0  0  0  0  0  0  0  0  0
  139.7660   69.5820  225.6780 C   0  0  0  0  0  0  0  0  0  0  0  0
  139.6790   68.7850  226.8050 C   0  0  0  0  0  0  0  0  0  0  0  0
  140.1680   69.3370  227.9900 C   0  0  0  0  0  0  0  0  0  0  0  0
  140.0950   68.5720  229.1200 F   0  0  0  0  0  0  0  0  0  0  0  0
  140.7010   70.6040  228.0130 C   0  0  0  0  0  0  0  0  0  0  0  0
  140.7780   71.3850  226.8720 C   0  0  0  0  0  0  0  0  0  0  0  0
  140.3010   70.8550  225.6970 C   0  0  0  0  0  0  0  0  0  0  0  0
  140.3500   71.5600  224.5710 N   0  0  0  0  0  0  0  0  0  0  0  0
  139.4770   73.7150  223.0790 H   0  0  0  0  0  0  0  0  0  0  0  0
  140.0317   73.2365  220.1094 H   0  0  0  0  0  0  0  0  0  0  0  0
  138.7471   74.3690  220.6934 H   0  0  0  0  0  0  0  0  0  0  0  0
  139.0669   76.4214  219.3165 H   0  0  0  0  0  0  0  0  0  0  0  0
  139.9025   77.4395  220.6048 H   0  0  0  0  0  0  0  0  0  0  0  0
  140.3214   77.5080  217.6403 H   0  0  0  0  0  0  0  0  0  0  0  0
  139.5642   78.7576  218.7356 H   0  0  0  0  0  0  0  0  0  0  0  0
  141.6676   79.6089  218.4041 H   0  0  0  0  0  0  0  0  0  0  0  0
  141.8309   78.6703  219.9558 H   0  0  0  0  0  0  0  0  0  0  0  0
  142.4783   77.3583  217.3398 H   0  0  0  0  0  0  0  0  0  0  0  0
  143.6595   78.4769  218.1001 H   0  0  0  0  0  0  0  0  0  0  0  0
  144.2157   76.3972  219.0125 H   0  0  0  0  0  0  0  0  0  0  0  0
  143.1735   77.1408  220.2729 H   0  0  0  0  0  0  0  0  0  0  0  0
  141.9530   75.3786  218.0875 H   0  0  0  0  0  0  0  0  0  0  0  0
  144.4233   75.3903  220.7223 H   0  0  0  0  0  0  0  0  0  0  0  0
  145.5139   73.3513  221.5739 H   0  0  0  0  0  0  0  0  0  0  0  0
  144.6344   71.0981  221.0050 H   0  0  0  0  0  0  0  0  0  0  0  0
  142.6016   70.9371  219.5479 H   0  0  0  0  0  0  0  0  0  0  0  0
  141.5106   72.9916  218.7005 H   0  0  0  0  0  0  0  0  0  0  0  0
  138.9796   69.4107  222.4084 H   0  0  0  0  0  0  0  0  0  0  0  0
  138.8505   68.0083  224.4789 H   0  0  0  0  0  0  0  0  0  0  0  0
  139.2487   67.7733  226.7694 H   0  0  0  0  0  0  0  0  0  0  0  0
  141.0768   71.0087  228.9643 H   0  0  0  0  0  0  0  0  0  0  0  0
  141.2072   72.3973  226.9050 H   0  0  0  0  0  0  0  0  0  0  0  0
  1  2  2  0
  2  3  1  0
  3  4  1  0
  4  5  1  0
  5  6  2  0
  5  7  1  0
  7  8  1  0
  8  9  1  0
  9 10  1  0
 10 11  1  0
 11 12  1  0
 12 13  1  0
 13 14  1  0
 14 15  2  0
 15 16  1  0
 16 17  2  0
 17 18  1  0
 18 19  2  0
  2 20  1  0
 20 21  2  0
 21 22  1  0
 22 23  2  0
 23 24  1  0
 24 25  2  0
 25 26  1  0
 25 27  1  0
 27 28  2  0
 28 29  1  0
 29 30  2  0
 13  7  1  0
 19 14  1  0
 30 20  1  0
 29 23  1  0
  3 31  1  0
  4 32  1  0
  4 33  1  0
  8 34  1  0
  8 35  1  0
  9 36  1  0
  9 37  1  0
 10 38  1  0
 10 39  1  0
 11 40  1  0
 11 41  1  0
 12 42  1  0
 12 43  1  0
 13 44  1  6
 15 45  1  0
 16 46  1  0
 17 47  1  0
 18 48  1  0
 19 49  1  0
 21 50  1  0
 22 51  1  0
 24 52  1  0
 27 53  1  0
 28 54  1  0
M  END
>  <smiles>  (64) 
O=C(NCC(=O)N1CCCCCC1c1ccccc1)c1ccc2cc(F)ccc2n1

>  <score_type>  (64) 
oracle

>  <origin>  (64) 
autodockgpu

>  <m_score__min__energy>  (64) 
-6.8700000000000001

>  <m_primary>  (64) 
energy

>  <rmsd>  (64) 
1.8583053986660287

>  <m_score__min__rmsd>  (64) 
1.8583053986660287

>  <meeko>  (64) 
{"free_energy": -5.63, "intermolecular_energy": -8.91, "internal_energy": -2.04, "cluster_size": 16, "cluster_id": 2, "rank_in_cluster": 11}

>  <energy>  (64) 
-6.59

>  <cluster_rmsd>  (64) 
0.71

>  <cluster>  (64) 
2

$$$$

     RDKit          3D

 54 57  0  0  0  0  0  0  0  0999 V2000
  141.5090   73.0250  221.3470 O   0  0  0  0  0  0  0  0  0  0  0  0
  140.6020   73.0760  222.2120 C   0  0  0  0  0  0  0  0  0  0  0  0
  139.8410   74.2850  222.2870 N   0  0  0  0  0  0  0  0  0  0  0  0
  140.1840   75.3490  221.3540 C   0  0  0  0  0  0  0  0  0  0  0  0
  139.9540   76.6850  221.9550 C   0  0  0  0  0  0  0  0  0  0  0  0
  138.8360   76.9210  222.5290 O   0  0  0  0  0  0  0  0  0  0  0  0
  140.9130   77.7360  221.9290 N   0  0  0  0  0  0  0  0  0  0  0  0
  141.5180   77.9670  223.2260 C   0  0  0  0  0  0  0  0  0  0  0  0
  141.1980   79.2740  223.8550 C   0  0  0  0  0  0  0  0  0  0  0  0
  141.7250   80.4600  223.0790 C   0  0  0  0  0  0  0  0  0  0  0  0
  141.1330   80.5630  221.7050 C   0  0  0  0  0  0  0  0  0  0  0  0
  141.8660   79.6440  220.7860 C   0  0  0  0  0  0  0  0  0  0  0  0
  141.0860   78.3440  220.6320 C   0  0  1  0  0  0  0  0  0  0  0  0
  141.7970   77.4680  219.6580 C   0  0  0  0  0  0  0  0  0  0  0  0
  141.4860   77.4740  218.3160 C   0  0  0  0  0  0  0  0  0  0  0  0
  142.1510   76.6560  217.4130 C   0  0  0  0  0  0  0  0  0  0  0  0
  143.1510   75.8000  217.8240 C   0  0  0  0  0  0  0  0  0  0  0  0
  143.4780   75.7810  219.1770 C   0  0  0  0  0  0  0  0  0  0  0  0
  142.8060   76.6050  220.0750 C   0  0  0  0  0  0  0  0  0  0  0  0
  140.2990   71.9790  223.1240 C   0  0  0  0  0  0  0  0  0  0  0  0
  139.4950   70.9600  222.6520 C   0  0  0  0  0  0  0  0  0  0  0  0
  139.1570   69.8780  223.4520 C   0  0  0  0  0  0  0  0  0  0  0  0
  139.6690   69.8780  224.7450 C   0  0  0  0  0  0  0  0  0  0  0  0
  139.3220   68.7930  225.5290 C   0  0  0  0  0  0  0  0  0  0  0  0
  139.8310   68.7820  226.8290 C   0  0  0  0  0  0  0  0  0  0  0  0
  139.5040   67.7210  227.6250 F   0  0  0  0  0  0  0  0  0  0  0  0
  140.6300   69.8040  227.2830 C   0  0  0  0  0  0  0  0  0  0  0  0
  140.9640   70.8820  226.4810 C   0  0  0  0  0  0  0  0  0  0  0  0
  140.4710   70.9060  225.1980 C   0  0  0  0  0  0  0  0  0  0  0  0
  140.7610   71.9170  224.3850 N   0  0  0  0  0  0  0  0  0  0  0  0
  139.0760   74.3690  222.9940 H   0  0  0  0  0  0  0  0  0  0  0  0
  141.2452   75.2571  221.0795 H   0  0  0  0  0  0  0  0  0  0  0  0
  139.5433   75.2523  220.4651 H   0  0  0  0  0  0  0  0  0  0  0  0
  141.1784   77.1713  223.9054 H   0  0  0  0  0  0  0  0  0  0  0  0
  142.6049   77.9702  223.0570 H   0  0  0  0  0  0  0  0  0  0  0  0
  140.1045   79.3656  223.9314 H   0  0  0  0  0  0  0  0  0  0  0  0
  141.6867   79.2880  224.8404 H   0  0  0  0  0  0  0  0  0  0  0  0
  141.4857   81.3785  223.6349 H   0  0  0  0  0  0  0  0  0  0  0  0
  142.8106   80.3251  222.9634 H   0  0  0  0  0  0  0  0  0  0  0  0
  140.0709   80.2790  221.7396 H   0  0  0  0  0  0  0  0  0  0  0  0
  141.2203   81.5974  221.3411 H   0  0  0  0  0  0  0  0  0  0  0  0
  141.9772   80.1227  219.8019 H   0  0  0  0  0  0  0  0  0  0  0  0
  142.8597   79.4259  221.2044 H   0  0  0  0  0  0  0  0  0  0  0  0
  140.0781   78.5249  220.2301 H   0  0  0  0  0  0  0  0  0  0  0  0
  140.6922   78.1426  217.9515 H   0  0  0  0  0  0  0  0  0  0  0  0
  141.8749   76.6913  216.3488 H   0  0  0  0  0  0  0  0  0  0  0  0
  143.6741   75.1523  217.1050 H   0  0  0  0  0  0  0  0  0  0  0  0
  144.2720   75.1109  219.5384 H   0  0  0  0  0  0  0  0  0  0  0  0
  143.0790   76.5734  221.1401 H   0  0  0  0  0  0  0  0  0  0  0  0
  139.1149   71.0072  221.6208 H   0  0  0  0  0  0  0  0  0  0  0  0
  138.5174   69.0627  223.0828 H   0  0  0  0  0  0  0  0  0  0  0  0
  138.6808   67.9838  225.1496 H   0  0  0  0  0  0  0  0  0  0  0  0
  141.0150   69.7643  228.3127 H   0  0  0  0  0  0  0  0  0  0  0  0
  141.6035   71.6935  226.8585 H   0  0  0  0  0  0  0  0  0  0  0  0
  1  2  2  0
  2  3  1  0
  3  4  1  0
  4  5  1  0
  5  6  2  0
  5  7  1  0
  7  8  1  0
  8  9  1  0
  9 10  1  0
 10 11  1  0
 11 12  1  0
 12 13  1  0
 13 14  1  0
 14 15  2  0
 15 16  1  0
 16 17  2  0
 17 18  1  0
 18 19  2  0
  2 20  1  0
 20 21  2  0
 21 22  1  0
 22 23  2  0
 23 24  1  0
 24 25  2  0
 25 26  1  0
 25 27  1  0
 27 28  2  0
 28 29  1  0
 29 30  2  0
 13  7  1  0
 19 14  1  0
 30 20  1  0
 29 23  1  0
  3 31  1  0
  4 32  1  0
  4 33  1  0
  8 34  1  0
  8 35  1  0
  9 36  1  0
  9 37  1  0
 10 38  1  0
 10 39  1  0
 11 40  1  0
 11 41  1  0
 12 42  1  0
 12 43  1  0
 13 44  1  6
 15 45  1  0
 16 46  1  0
 17 47  1  0
 18 48  1  0
 19 49  1  0
 21 50  1  0
 22 51  1  0
 24 52  1  0
 27 53  1  0
 28 54  1  0
M  END
>  <smiles>  (65) 
O=C(NCC(=O)N1CCCCCC1c1ccccc1)c1ccc2cc(F)ccc2n1

>  <score_type>  (65) 
oracle

>  <origin>  (65) 
autodockgpu

>  <m_score__min__energy>  (65) 
-6.8700000000000001

>  <m_primary>  (65) 
energy

>  <rmsd>  (65) 
3.5100483867869876

>  <m_score__min__rmsd>  (65) 
3.5100483867869876

>  <meeko>  (65) 
{"free_energy": -6.15, "intermolecular_energy": -9.43, "internal_energy": -1.72, "cluster_size": 2, "cluster_id": 4, "rank_in_cluster": 1}

>  <energy>  (65) 
-6.53

>  <cluster_rmsd>  (65) 
0.5

>  <cluster>  (65) 
2

$$$$

     RDKit          3D

 54 57  0  0  0  0  0  0  0  0999 V2000
  140.4680   71.7940  221.1250 O   0  0  0  0  0  0  0  0  0  0  0  0
  140.1480   72.2510  222.2480 C   0  0  0  0  0  0  0  0  0  0  0  0
  139.8380   73.6460  222.3180 N   0  0  0  0  0  0  0  0  0  0  0  0
  139.9200   74.4120  221.0830 C   0  0  0  0  0  0  0  0  0  0  0  0
  140.5910   75.7170  221.3030 C   0  0  0  0  0  0  0  0  0  0  0  0
  140.2590   76.4190  222.3180 O   0  0  0  0  0  0  0  0  0  0  0  0
  141.5930   76.2410  220.4410 N   0  0  0  0  0  0  0  0  0  0  0  0
  141.8920   77.6320  220.7180 C   0  0  0  0  0  0  0  0  0  0  0  0
  141.3950   78.6050  219.7130 C   0  0  0  0  0  0  0  0  0  0  0  0
  141.9530   78.3750  218.3260 C   0  0  0  0  0  0  0  0  0  0  0  0
  141.6250   77.0150  217.7870 C   0  0  0  0  0  0  0  0  0  0  0  0
  142.6450   76.0390  218.2700 C   0  0  0  0  0  0  0  0  0  0  0  0
  142.1020   75.2900  219.4810 C   0  0  1  0  0  0  0  0  0  0  0  0
  143.1780   74.4160  220.0290 C   0  0  0  0  0  0  0  0  0  0  0  0
  142.9590   73.0840  220.3040 C   0  0  0  0  0  0  0  0  0  0  0  0
  143.9630   72.2740  220.8150 C   0  0  0  0  0  0  0  0  0  0  0  0
  145.2240   72.7700  221.0690 C   0  0  0  0  0  0  0  0  0  0  0  0
  145.4630   74.1140  220.7980 C   0  0  0  0  0  0  0  0  0  0  0  0
  144.4490   74.9190  220.2850 C   0  0  0  0  0  0  0  0  0  0  0  0
  140.0810   71.4390  223.4570 C   0  0  0  0  0  0  0  0  0  0  0  0
  139.5410   70.1720  223.3460 C   0  0  0  0  0  0  0  0  0  0  0  0
  139.4400   69.3320  224.4450 C   0  0  0  0  0  0  0  0  0  0  0  0
  139.9080   69.8340  225.6550 C   0  0  0  0  0  0  0  0  0  0  0  0
  139.7980   68.9830  226.7400 C   0  0  0  0  0  0  0  0  0  0  0  0
  140.2650   69.4760  227.9600 C   0  0  0  0  0  0  0  0  0  0  0  0
  140.1690   68.6570  229.0490 F   0  0  0  0  0  0  0  0  0  0  0  0
  140.7990   70.7390  228.0540 C   0  0  0  0  0  0  0  0  0  0  0  0
  140.8990   71.5740  226.9540 C   0  0  0  0  0  0  0  0  0  0  0  0
  140.4440   71.1030  225.7460 C   0  0  0  0  0  0  0  0  0  0  0  0
  140.5150   71.8610  224.6570 N   0  0  0  0  0  0  0  0  0  0  0  0
  139.5670   74.0680  223.2350 H   0  0  0  0  0  0  0  0  0  0  0  0
  140.4917   73.8355  220.3408 H   0  0  0  0  0  0  0  0  0  0  0  0
  138.8980   74.6027  220.7236 H   0  0  0  0  0  0  0  0  0  0  0  0
  141.4428   77.8883  221.6889 H   0  0  0  0  0  0  0  0  0  0  0  0
  142.9888   77.7142  220.7013 H   0  0  0  0  0  0  0  0  0  0  0  0
  140.2988   78.5273  219.6650 H   0  0  0  0  0  0  0  0  0  0  0  0
  141.7277   79.6027  220.0352 H   0  0  0  0  0  0  0  0  0  0  0  0
  141.5331   79.1326  217.6480 H   0  0  0  0  0  0  0  0  0  0  0  0
  143.0484   78.4500  218.3926 H   0  0  0  0  0  0  0  0  0  0  0  0
  140.6282   76.7102  218.1384 H   0  0  0  0  0  0  0  0  0  0  0  0
  141.6292   77.0415  216.6873 H   0  0  0  0  0  0  0  0  0  0  0  0
  142.8739   75.3216  217.4682 H   0  0  0  0  0  0  0  0  0  0  0  0
  143.5609   76.5780  218.5541 H   0  0  0  0  0  0  0  0  0  0  0  0
  141.2610   74.6367  219.2054 H   0  0  0  0  0  0  0  0  0  0  0  0
  141.9651   72.6526  220.1141 H   0  0  0  0  0  0  0  0  0  0  0  0
  143.7485   71.2151  221.0216 H   0  0  0  0  0  0  0  0  0  0  0  0
  146.0167   72.1234  221.4734 H   0  0  0  0  0  0  0  0  0  0  0  0
  146.4577   74.5425  220.9900 H   0  0  0  0  0  0  0  0  0  0  0  0
  144.6585   75.9787  220.0772 H   0  0  0  0  0  0  0  0  0  0  0  0
  139.1839   69.8224  222.3660 H   0  0  0  0  0  0  0  0  0  0  0  0
  139.0123   68.3218  224.3641 H   0  0  0  0  0  0  0  0  0  0  0  0
  139.3671   67.9752  226.6469 H   0  0  0  0  0  0  0  0  0  0  0  0
  141.1570   71.0966  229.0307 H   0  0  0  0  0  0  0  0  0  0  0  0
  141.3291   72.5824  227.0443 H   0  0  0  0  0  0  0  0  0  0  0  0
  1  2  2  0
  2  3  1  0
  3  4  1  0
  4  5  1  0
  5  6  2  0
  5  7  1  0
  7  8  1  0
  8  9  1  0
  9 10  1  0
 10 11  1  0
 11 12  1  0
 12 13  1  0
 13 14  1  0
 14 15  2  0
 15 16  1  0
 16 17  2  0
 17 18  1  0
 18 19  2  0
  2 20  1  0
 20 21  2  0
 21 22  1  0
 22 23  2  0
 23 24  1  0
 24 25  2  0
 25 26  1  0
 25 27  1  0
 27 28  2  0
 28 29  1  0
 29 30  2  0
 13  7  1  0
 19 14  1  0
 30 20  1  0
 29 23  1  0
  3 31  1  0
  4 32  1  0
  4 33  1  0
  8 34  1  0
  8 35  1  0
  9 36  1  0
  9 37  1  0
 10 38  1  0
 10 39  1  0
 11 40  1  0
 11 41  1  0
 12 42  1  0
 12 43  1  0
 13 44  1  6
 15 45  1  0
 16 46  1  0
 17 47  1  0
 18 48  1  0
 19 49  1  0
 21 50  1  0
 22 51  1  0
 24 52  1  0
 27 53  1  0
 28 54  1  0
M  END
>  <smiles>  (66) 
O=C(NCC(=O)N1CCCCCC1c1ccccc1)c1ccc2cc(F)ccc2n1

>  <score_type>  (66) 
oracle

>  <origin>  (66) 
autodockgpu

>  <m_score__min__energy>  (66) 
-6.8700000000000001

>  <m_primary>  (66) 
energy

>  <rmsd>  (66) 
2.3471188931566744

>  <m_score__min__rmsd>  (66) 
2.3471188931566744

>  <meeko>  (66) 
{"free_energy": -6.61, "intermolecular_energy": -9.89, "internal_energy": -2.1, "cluster_size": 16, "cluster_id": 2, "rank_in_cluster": 2}

>  <energy>  (66) 
-6.52

>  <cluster_rmsd>  (66) 
0.64

>  <cluster>  (66) 
2

$$$$

     RDKit          3D

 54 57  0  0  0  0  0  0  0  0999 V2000
  139.5160   70.8890  221.5030 O   0  0  0  0  0  0  0  0  0  0  0  0
  139.6750   71.3840  222.6450 C   0  0  0  0  0  0  0  0  0  0  0  0
  139.7670   72.8090  222.7300 N   0  0  0  0  0  0  0  0  0  0  0  0
  139.6680   73.5600  221.4880 C   0  0  0  0  0  0  0  0  0  0  0  0
  140.8710   74.3990  221.2690 C   0  0  0  0  0  0  0  0  0  0  0  0
  141.0800   75.3950  222.0430 O   0  0  0  0  0  0  0  0  0  0  0  0
  141.8200   74.1600  220.2360 N   0  0  0  0  0  0  0  0  0  0  0  0
  141.6150   72.8860  219.5770 C   0  0  0  0  0  0  0  0  0  0  0  0
  142.5300   71.7950  219.9970 C   0  0  0  0  0  0  0  0  0  0  0  0
  143.9820   72.2130  220.0450 C   0  0  0  0  0  0  0  0  0  0  0  0
  144.2120   73.4130  220.9140 C   0  0  0  0  0  0  0  0  0  0  0  0
  144.1860   74.6440  220.0710 C   0  0  0  0  0  0  0  0  0  0  0  0
  142.7780   75.2250  220.0570 C   0  0  1  0  0  0  0  0  0  0  0  0
  142.5830   75.9890  218.7910 C   0  0  0  0  0  0  0  0  0  0  0  0
  141.9840   75.4210  217.6890 C   0  0  0  0  0  0  0  0  0  0  0  0
  141.8060   76.1350  216.5120 C   0  0  0  0  0  0  0  0  0  0  0  0
  142.2230   77.4440  216.3980 C   0  0  0  0  0  0  0  0  0  0  0  0
  142.8320   78.0330  217.5030 C   0  0  0  0  0  0  0  0  0  0  0  0
  143.0050   77.3090  218.6790 C   0  0  0  0  0  0  0  0  0  0  0  0
  139.7690   70.5840  223.8600 C   0  0  0  0  0  0  0  0  0  0  0  0
  139.2480   69.3050  223.8240 C   0  0  0  0  0  0  0  0  0  0  0  0
  139.2950   68.4750  224.9350 C   0  0  0  0  0  0  0  0  0  0  0  0
  139.8900   69.0000  226.0780 C   0  0  0  0  0  0  0  0  0  0  0  0
  139.9270   68.1600  227.1750 C   0  0  0  0  0  0  0  0  0  0  0  0
  140.5230   68.6760  228.3280 C   0  0  0  0  0  0  0  0  0  0  0  0
  140.5740   67.8680  229.4280 F   0  0  0  0  0  0  0  0  0  0  0  0
  141.0370   69.9510  228.3470 C   0  0  0  0  0  0  0  0  0  0  0  0
  140.9880   70.7760  227.2360 C   0  0  0  0  0  0  0  0  0  0  0  0
  140.4050   70.2810  226.0930 C   0  0  0  0  0  0  0  0  0  0  0  0
  140.3310   71.0290  224.9970 N   0  0  0  0  0  0  0  0  0  0  0  0
  139.9000   73.2610  223.6630 H   0  0  0  0  0  0  0  0  0  0  0  0
  139.5654   72.8549  220.6500 H   0  0  0  0  0  0  0  0  0  0  0  0
  138.7905   74.2204  221.5503 H   0  0  0  0  0  0  0  0  0  0  0  0
  140.5840   72.5610  219.7807 H   0  0  0  0  0  0  0  0  0  0  0  0
  141.8222   73.0605  218.5109 H   0  0  0  0  0  0  0  0  0  0  0  0
  142.2314   71.4566  221.0001 H   0  0  0  0  0  0  0  0  0  0  0  0
  142.4474   70.9954  219.2462 H   0  0  0  0  0  0  0  0  0  0  0  0
  144.5763   71.3750  220.4382 H   0  0  0  0  0  0  0  0  0  0  0  0
  144.2835   72.4819  219.0219 H   0  0  0  0  0  0  0  0  0  0  0  0
  143.4206   73.4724  221.6757 H   0  0  0  0  0  0  0  0  0  0  0  0
  145.1898   73.3267  221.4105 H   0  0  0  0  0  0  0  0  0  0  0  0
  144.8841   75.3862  220.4855 H   0  0  0  0  0  0  0  0  0  0  0  0
  144.4860   74.3893  219.0438 H   0  0  0  0  0  0  0  0  0  0  0  0
  142.6271   75.9297  220.8880 H   0  0  0  0  0  0  0  0  0  0  0  0
  141.6387   74.3780  217.7425 H   0  0  0  0  0  0  0  0  0  0  0  0
  141.3226   75.6466  215.6531 H   0  0  0  0  0  0  0  0  0  0  0  0
  142.0791   78.0057  215.4632 H   0  0  0  0  0  0  0  0  0  0  0  0
  143.1781   79.0756  217.4462 H   0  0  0  0  0  0  0  0  0  0  0  0
  143.4875   77.7930  219.5410 H   0  0  0  0  0  0  0  0  0  0  0  0
  138.7865   68.9371  222.8957 H   0  0  0  0  0  0  0  0  0  0  0  0
  138.8833   67.4552  224.9133 H   0  0  0  0  0  0  0  0  0  0  0  0
  139.5105   67.1424  227.1419 H   0  0  0  0  0  0  0  0  0  0  0  0
  141.5004   70.3265  229.2712 H   0  0  0  0  0  0  0  0  0  0  0  0
  141.4021   71.7946  227.2666 H   0  0  0  0  0  0  0  0  0  0  0  0
  1  2  2  0
  2  3  1  0
  3  4  1  0
  4  5  1  0
  5  6  2  0
  5  7  1  0
  7  8  1  0
  8  9  1  0
  9 10  1  0
 10 11  1  0
 11 12  1  0
 12 13  1  0
 13 14  1  0
 14 15  2  0
 15 16  1  0
 16 17  2  0
 17 18  1  0
 18 19  2  0
  2 20  1  0
 20 21  2  0
 21 22  1  0
 22 23  2  0
 23 24  1  0
 24 25  2  0
 25 26  1  0
 25 27  1  0
 27 28  2  0
 28 29  1  0
 29 30  2  0
 13  7  1  0
 19 14  1  0
 30 20  1  0
 29 23  1  0
  3 31  1  0
  4 32  1  0
  4 33  1  0
  8 34  1  0
  8 35  1  0
  9 36  1  0
  9 37  1  0
 10 38  1  0
 10 39  1  0
 11 40  1  0
 11 41  1  0
 12 42  1  0
 12 43  1  0
 13 44  1  1
 15 45  1  0
 16 46  1  0
 17 47  1  0
 18 48  1  0
 19 49  1  0
 21 50  1  0
 22 51  1  0
 24 52  1  0
 27 53  1  0
 28 54  1  0
M  END
>  <smiles>  (67) 
O=C(NCC(=O)N1CCCCCC1c1ccccc1)c1ccc2cc(F)ccc2n1

>  <score_type>  (67) 
oracle

>  <origin>  (67) 
autodockgpu

>  <m_score__min__energy>  (67) 
-6.8700000000000001

>  <m_primary>  (67) 
energy

>  <rmsd>  (67) 
2.5497171116115958

>  <m_score__min__rmsd>  (67) 
2.5497171116115958

>  <meeko>  (67) 
{"free_energy": -5.84, "intermolecular_energy": -9.12, "internal_energy": -1.92, "cluster_size": 16, "cluster_id": 3, "rank_in_cluster": 6}

>  <energy>  (67) 
-6.39

>  <cluster_rmsd>  (67) 
0.53

>  <cluster>  (67) 
2

$$$$

     RDKit          3D

 54 57  0  0  0  0  0  0  0  0999 V2000
  141.3130   72.5230  221.5880 O   0  0  0  0  0  0  0  0  0  0  0  0
  140.4140   72.6060  222.4590 C   0  0  0  0  0  0  0  0  0  0  0  0
  139.5100   73.7110  222.3590 N   0  0  0  0  0  0  0  0  0  0  0  0
  139.7130   74.6420  221.2590 C   0  0  0  0  0  0  0  0  0  0  0  0
  139.4060   76.0340  221.6680 C   0  0  0  0  0  0  0  0  0  0  0  0
  138.5980   76.2290  222.6410 O   0  0  0  0  0  0  0  0  0  0  0  0
  139.9600   77.1810  221.0360 N   0  0  0  0  0  0  0  0  0  0  0  0
  139.0360   77.8070  220.1120 C   0  0  0  0  0  0  0  0  0  0  0  0
  139.2590   77.4960  218.6770 C   0  0  0  0  0  0  0  0  0  0  0  0
  140.7190   77.4970  218.2810 C   0  0  0  0  0  0  0  0  0  0  0  0
  141.5570   78.3770  219.1610 C   0  0  0  0  0  0  0  0  0  0  0  0
  142.2070   77.5420  220.2120 C   0  0  0  0  0  0  0  0  0  0  0  0
  141.3120   77.4830  221.4430 C   0  0  1  0  0  0  0  0  0  0  0  0
  141.4310   78.7700  222.1880 C   0  0  0  0  0  0  0  0  0  0  0  0
  142.5370   79.5810  222.0600 C   0  0  0  0  0  0  0  0  0  0  0  0
  142.6440   80.7770  222.7550 C   0  0  0  0  0  0  0  0  0  0  0  0
  141.6450   81.2040  223.6040 C   0  0  0  0  0  0  0  0  0  0  0  0
  140.5200   80.3960  223.7450 C   0  0  0  0  0  0  0  0  0  0  0  0
  140.4210   79.1980  223.0430 C   0  0  0  0  0  0  0  0  0  0  0  0
  140.2550   71.6440  223.5430 C   0  0  0  0  0  0  0  0  0  0  0  0
  139.6100   70.4570  223.2550 C   0  0  0  0  0  0  0  0  0  0  0  0
  139.4170   69.4860  224.2260 C   0  0  0  0  0  0  0  0  0  0  0  0
  139.9040   69.7740  225.4970 C   0  0  0  0  0  0  0  0  0  0  0  0
  139.7020   68.7950  226.4540 C   0  0  0  0  0  0  0  0  0  0  0  0
  140.1870   69.0740  227.7330 C   0  0  0  0  0  0  0  0  0  0  0  0
  140.0020   68.1250  228.6980 F   0  0  0  0  0  0  0  0  0  0  0  0
  140.8270   70.2600  228.0040 C   0  0  0  0  0  0  0  0  0  0  0  0
  141.0180   71.2260  227.0310 C   0  0  0  0  0  0  0  0  0  0  0  0
  140.5460   70.9670  225.7660 C   0  0  0  0  0  0  0  0  0  0  0  0
  140.7020   71.8590  224.7930 N   0  0  0  0  0  0  0  0  0  0  0  0
  138.7470   73.8170  223.0650 H   0  0  0  0  0  0  0  0  0  0  0  0
  140.7620   74.5875  220.9323 H   0  0  0  0  0  0  0  0  0  0  0  0
  139.0351   74.3635  220.4387 H   0  0  0  0  0  0  0  0  0  0  0  0
  138.0193   77.4803  220.3757 H   0  0  0  0  0  0  0  0  0  0  0  0
  139.1936   78.8908  220.2145 H   0  0  0  0  0  0  0  0  0  0  0  0
  138.8417   76.5001  218.4673 H   0  0  0  0  0  0  0  0  0  0  0  0
  138.7641   78.2861  218.0932 H   0  0  0  0  0  0  0  0  0  0  0  0
  141.1019   76.4678  218.3456 H   0  0  0  0  0  0  0  0  0  0  0  0
  140.7851   77.8921  217.2565 H   0  0  0  0  0  0  0  0  0  0  0  0
  142.3295   78.8740  218.5558 H   0  0  0  0  0  0  0  0  0  0  0  0
  140.9211   79.1392  219.6350 H   0  0  0  0  0  0  0  0  0  0  0  0
  142.3653   76.5245  219.8253 H   0  0  0  0  0  0  0  0  0  0  0  0
  143.1753   77.9867  220.4851 H   0  0  0  0  0  0  0  0  0  0  0  0
  141.6238   76.6805  222.1277 H   0  0  0  0  0  0  0  0  0  0  0  0
  143.3544   79.2733  221.3912 H   0  0  0  0  0  0  0  0  0  0  0  0
  143.5436   81.3968  222.6262 H   0  0  0  0  0  0  0  0  0  0  0  0
  141.7341   82.1532  224.1527 H   0  0  0  0  0  0  0  0  0  0  0  0
  139.7046   80.7061  224.4150 H   0  0  0  0  0  0  0  0  0  0  0  0
  139.5229   78.5752  223.1674 H   0  0  0  0  0  0  0  0  0  0  0  0
  139.2417   70.2782  222.2340 H   0  0  0  0  0  0  0  0  0  0  0  0
  138.9057   68.5379  224.0030 H   0  0  0  0  0  0  0  0  0  0  0  0
  139.1885   67.8507  226.2202 H   0  0  0  0  0  0  0  0  0  0  0  0
  141.1978   70.4467  229.0227 H   0  0  0  0  0  0  0  0  0  0  0  0
  141.5312   72.1710  227.2627 H   0  0  0  0  0  0  0  0  0  0  0  0
  1  2  2  0
  2  3  1  0
  3  4  1  0
  4  5  1  0
  5  6  2  0
  5  7  1  0
  7  8  1  0
  8  9  1  0
  9 10  1  0
 10 11  1  0
 11 12  1  0
 12 13  1  0
 13 14  1  0
 14 15  2  0
 15 16  1  0
 16 17  2  0
 17 18  1  0
 18 19  2  0
  2 20  1  0
 20 21  2  0
 21 22  1  0
 22 23  2  0
 23 24  1  0
 24 25  2  0
 25 26  1  0
 25 27  1  0
 27 28  2  0
 28 29  1  0
 29 30  2  0
 13  7  1  0
 19 14  1  0
 30 20  1  0
 29 23  1  0
  3 31  1  0
  4 32  1  0
  4 33  1  0
  8 34  1  0
  8 35  1  0
  9 36  1  0
  9 37  1  0
 10 38  1  0
 10 39  1  0
 11 40  1  0
 11 41  1  0
 12 42  1  0
 12 43  1  0
 13 44  1  1
 15 45  1  0
 16 46  1  0
 17 47  1  0
 18 48  1  0
 19 49  1  0
 21 50  1  0
 22 51  1  0
 24 52  1  0
 27 53  1  0
 28 54  1  0
M  END
>  <smiles>  (68) 
O=C(NCC(=O)N1CCCCCC1c1ccccc1)c1ccc2cc(F)ccc2n1

>  <score_type>  (68) 
oracle

>  <origin>  (68) 
autodockgpu

>  <m_score__min__energy>  (68) 
-6.8700000000000001

>  <m_primary>  (68) 
energy

>  <rmsd>  (68) 
2.0227154812539827

>  <m_score__min__rmsd>  (68) 
2.0227154812539827

>  <meeko>  (68) 
{"free_energy": -6.83, "intermolecular_energy": -10.12, "internal_energy": -1.82, "cluster_size": 11, "cluster_id": 1, "rank_in_cluster": 2}

>  <energy>  (68) 
-6.21

>  <cluster_rmsd>  (68) 
0.61

>  <cluster>  (68) 
2

$$$$

     RDKit          3D

 54 57  0  0  0  0  0  0  0  0999 V2000
  139.9820   73.6600  222.5220 O   0  0  0  0  0  0  0  0  0  0  0  0
  140.2150   72.4300  222.4410 C   0  0  0  0  0  0  0  0  0  0  0  0
  140.5280   71.9100  221.1450 N   0  0  0  0  0  0  0  0  0  0  0  0
  140.5470   72.8510  220.0350 C   0  0  0  0  0  0  0  0  0  0  0  0
  141.8910   72.9170  219.4100 C   0  0  0  0  0  0  0  0  0  0  0  0
  141.9770   73.0600  218.1420 O   0  0  0  0  0  0  0  0  0  0  0  0
  143.1050   72.8280  220.1450 N   0  0  0  0  0  0  0  0  0  0  0  0
  143.6180   71.4740  220.2100 C   0  0  0  0  0  0  0  0  0  0  0  0
  144.8070   71.2000  219.3640 C   0  0  0  0  0  0  0  0  0  0  0  0
  145.9990   72.0670  219.7030 C   0  0  0  0  0  0  0  0  0  0  0  0
  145.7510   72.9550  220.8860 C   0  0  0  0  0  0  0  0  0  0  0  0
  145.0740   74.2070  220.4310 C   0  0  0  0  0  0  0  0  0  0  0  0
  143.5730   74.0910  220.6650 C   0  0  1  0  0  0  0  0  0  0  0  0
  142.8980   75.2700  220.0510 C   0  0  0  0  0  0  0  0  0  0  0  0
  143.3370   75.8200  218.8670 C   0  0  0  0  0  0  0  0  0  0  0  0
  142.7050   76.9180  218.2990 C   0  0  0  0  0  0  0  0  0  0  0  0
  141.6110   77.5040  218.8990 C   0  0  0  0  0  0  0  0  0  0  0  0
  141.1540   76.9600  220.0960 C   0  0  0  0  0  0  0  0  0  0  0  0
  141.7940   75.8590  220.6570 C   0  0  0  0  0  0  0  0  0  0  0  0
  140.1830   71.5300  223.5880 C   0  0  0  0  0  0  0  0  0  0  0  0
  139.6090   70.2860  223.4070 C   0  0  0  0  0  0  0  0  0  0  0  0
  139.5360   69.3680  224.4440 C   0  0  0  0  0  0  0  0  0  0  0  0
  140.0680   69.7670  225.6660 C   0  0  0  0  0  0  0  0  0  0  0  0
  139.9860   68.8390  226.6880 C   0  0  0  0  0  0  0  0  0  0  0  0
  140.5180   69.2290  227.9190 C   0  0  0  0  0  0  0  0  0  0  0  0
  140.4510   68.3320  228.9470 F   0  0  0  0  0  0  0  0  0  0  0  0
  141.0850   70.4710  228.0820 C   0  0  0  0  0  0  0  0  0  0  0  0
  141.1550   71.3840  227.0450 C   0  0  0  0  0  0  0  0  0  0  0  0
  140.6370   71.0150  225.8260 C   0  0  0  0  0  0  0  0  0  0  0  0
  140.6780   71.8520  224.7950 N   0  0  0  0  0  0  0  0  0  0  0  0
  140.7290   70.8900  221.0350 H   0  0  0  0  0  0  0  0  0  0  0  0
  139.8154   72.5291  219.2793 H   0  0  0  0  0  0  0  0  0  0  0  0
  140.2929   73.8494  220.4206 H   0  0  0  0  0  0  0  0  0  0  0  0
  143.8900   71.2644  221.2550 H   0  0  0  0  0  0  0  0  0  0  0  0
  142.8162   70.8282  219.8226 H   0  0  0  0  0  0  0  0  0  0  0  0
  145.0936   70.1463  219.4963 H   0  0  0  0  0  0  0  0  0  0  0  0
  144.5254   71.4274  218.3253 H   0  0  0  0  0  0  0  0  0  0  0  0
  146.8564   71.4150  219.9260 H   0  0  0  0  0  0  0  0  0  0  0  0
  146.1956   72.7153  218.8363 H   0  0  0  0  0  0  0  0  0  0  0  0
  145.1084   72.4320  221.6096 H   0  0  0  0  0  0  0  0  0  0  0  0
  146.7089   73.2073  221.3644 H   0  0  0  0  0  0  0  0  0  0  0  0
  145.4678   75.0630  220.9986 H   0  0  0  0  0  0  0  0  0  0  0  0
  145.2658   74.3566  219.3582 H   0  0  0  0  0  0  0  0  0  0  0  0
  143.3315   74.1001  221.7381 H   0  0  0  0  0  0  0  0  0  0  0  0
  144.2081   75.3794  218.3600 H   0  0  0  0  0  0  0  0  0  0  0  0
  143.0847   77.3283  217.3517 H   0  0  0  0  0  0  0  0  0  0  0  0
  141.1144   78.3747  218.4458 H   0  0  0  0  0  0  0  0  0  0  0  0
  140.2827   77.4026  220.6009 H   0  0  0  0  0  0  0  0  0  0  0  0
  141.4170   75.4444  221.6035 H   0  0  0  0  0  0  0  0  0  0  0  0
  139.2019   70.0186  222.4207 H   0  0  0  0  0  0  0  0  0  0  0  0
  139.0811   68.3758  224.3074 H   0  0  0  0  0  0  0  0  0  0  0  0
  139.5278   67.8500  226.5398 H   0  0  0  0  0  0  0  0  0  0  0  0
  141.4946   70.7465  229.0650 H   0  0  0  0  0  0  0  0  0  0  0  0
  141.6109   72.3744  227.1911 H   0  0  0  0  0  0  0  0  0  0  0  0
  1  2  2  0
  2  3  1  0
  3  4  1  0
  4  5  1  0
  5  6  2  0
  5  7  1  0
  7  8  1  0
  8  9  1  0
  9 10  1  0
 10 11  1  0
 11 12  1  0
 12 13  1  0
 13 14  1  0
 14 15  2  0
 15 16  1  0
 16 17  2  0
 17 18  1  0
 18 19  2  0
  2 20  1  0
 20 21  2  0
 21 22  1  0
 22 23  2  0
 23 24  1  0
 24 25  2  0
 25 26  1  0
 25 27  1  0
 27 28  2  0
 28 29  1  0
 29 30  2  0
 13  7  1  0
 19 14  1  0
 30 20  1  0
 29 23  1  0
  3 31  1  0
  4 32  1  0
  4 33  1  0
  8 34  1  0
  8 35  1  0
  9 36  1  0
  9 37  1  0
 10 38  1  0
 10 39  1  0
 11 40  1  0
 11 41  1  0
 12 42  1  0
 12 43  1  0
 13 44  1  1
 15 45  1  0
 16 46  1  0
 17 47  1  0
 18 48  1  0
 19 49  1  0
 21 50  1  0
 22 51  1  0
 24 52  1  0
 27 53  1  0
 28 54  1  0
M  END
>  <smiles>  (69) 
O=C(NCC(=O)N1CCCCCC1c1ccccc1)c1ccc2cc(F)ccc2n1

>  <score_type>  (69) 
oracle

>  <origin>  (69) 
autodockgpu

>  <m_score__min__energy>  (69) 
-6.8700000000000001

>  <m_primary>  (69) 
energy

>  <rmsd>  (69) 
3.6569923247280367

>  <m_score__min__rmsd>  (69) 
3.6569923247280367

>  <meeko>  (69) 
{"free_energy": -6.33, "intermolecular_energy": -9.61, "internal_energy": -1.86, "cluster_size": 16, "cluster_id": 3, "rank_in_cluster": 1}

>  <energy>  (69) 
-6.2

>  <cluster_rmsd>  (69) 
1.04

>  <cluster>  (69) 
2

$$$$

     RDKit          3D

 54 57  0  0  0  0  0  0  0  0999 V2000
  140.9470   72.0840  221.2890 O   0  0  0  0  0  0  0  0  0  0  0  0
  140.3390   72.4220  222.3330 C   0  0  0  0  0  0  0  0  0  0  0  0
  139.7700   73.7350  222.3600 N   0  0  0  0  0  0  0  0  0  0  0  0
  139.9450   74.5620  221.1750 C   0  0  0  0  0  0  0  0  0  0  0  0
  139.7070   75.9940  221.4800 C   0  0  0  0  0  0  0  0  0  0  0  0
  139.0550   76.3010  222.5370 O   0  0  0  0  0  0  0  0  0  0  0  0
  140.1630   77.0610  220.6580 N   0  0  0  0  0  0  0  0  0  0  0  0
  139.2090   77.4130  219.6250 C   0  0  0  0  0  0  0  0  0  0  0  0
  139.7450   78.2460  218.5180 C   0  0  0  0  0  0  0  0  0  0  0  0
  140.8700   77.5820  217.7560 C   0  0  0  0  0  0  0  0  0  0  0  0
  141.9510   77.0610  218.6560 C   0  0  0  0  0  0  0  0  0  0  0  0
  142.1880   78.0400  219.7630 C   0  0  0  0  0  0  0  0  0  0  0  0
  141.4650   77.5690  221.0190 C   0  0  1  0  0  0  0  0  0  0  0  0
  141.4100   78.6950  221.9950 C   0  0  0  0  0  0  0  0  0  0  0  0
  142.5090   79.0620  222.7390 C   0  0  0  0  0  0  0  0  0  0  0  0
  142.4540   80.1110  223.6470 C   0  0  0  0  0  0  0  0  0  0  0  0
  141.2930   80.8280  223.8410 C   0  0  0  0  0  0  0  0  0  0  0  0
  140.1720   80.4700  223.0970 C   0  0  0  0  0  0  0  0  0  0  0  0
  140.2380   79.4180  222.1890 C   0  0  0  0  0  0  0  0  0  0  0  0
  140.1930   71.5520  223.4930 C   0  0  0  0  0  0  0  0  0  0  0  0
  139.5630   70.3370  223.3060 C   0  0  0  0  0  0  0  0  0  0  0  0
  139.3820   69.4480  224.3550 C   0  0  0  0  0  0  0  0  0  0  0  0
  139.8660   69.8470  225.5970 C   0  0  0  0  0  0  0  0  0  0  0  0
  139.6760   68.9480  226.6310 C   0  0  0  0  0  0  0  0  0  0  0  0
  140.1580   69.3380  227.8820 C   0  0  0  0  0  0  0  0  0  0  0  0
  139.9850   68.4700  228.9230 F   0  0  0  0  0  0  0  0  0  0  0  0
  140.7820   70.5510  228.0530 C   0  0  0  0  0  0  0  0  0  0  0  0
  140.9610   71.4350  227.0030 C   0  0  0  0  0  0  0  0  0  0  0  0
  140.4920   71.0650  225.7640 C   0  0  0  0  0  0  0  0  0  0  0  0
  140.6370   71.8750  224.7200 N   0  0  0  0  0  0  0  0  0  0  0  0
  139.2560   74.0550  223.2110 H   0  0  0  0  0  0  0  0  0  0  0  0
  140.9725   74.4407  220.8014 H   0  0  0  0  0  0  0  0  0  0  0  0
  139.2159   74.2418  220.4161 H   0  0  0  0  0  0  0  0  0  0  0  0
  138.8205   76.4803  219.1901 H   0  0  0  0  0  0  0  0  0  0  0  0
  138.4401   78.0250  220.1192 H   0  0  0  0  0  0  0  0  0  0  0  0
  138.9265   78.4599  217.8149 H   0  0  0  0  0  0  0  0  0  0  0  0
  140.1552   79.1611  218.9700 H   0  0  0  0  0  0  0  0  0  0  0  0
  140.4564   76.7413  217.1797 H   0  0  0  0  0  0  0  0  0  0  0  0
  141.3210   78.3418  217.1008 H   0  0  0  0  0  0  0  0  0  0  0  0
  141.6417   76.0944  219.0803 H   0  0  0  0  0  0  0  0  0  0  0  0
  142.8777   76.9262  218.0788 H   0  0  0  0  0  0  0  0  0  0  0  0
  143.2669   78.1109  219.9654 H   0  0  0  0  0  0  0  0  0  0  0  0
  141.8054   79.0281  219.4677 H   0  0  0  0  0  0  0  0  0  0  0  0
  142.0037   76.7428  221.5059 H   0  0  0  0  0  0  0  0  0  0  0  0
  143.4526   78.5113  222.6110 H   0  0  0  0  0  0  0  0  0  0  0  0
  143.3538   80.3747  224.2222 H   0  0  0  0  0  0  0  0  0  0  0  0
  141.2533   81.6580  224.5618 H   0  0  0  0  0  0  0  0  0  0  0  0
  139.2294   81.0217  223.2278 H   0  0  0  0  0  0  0  0  0  0  0  0
  139.3412   79.1516  221.6104 H   0  0  0  0  0  0  0  0  0  0  0  0
  139.1971   70.0689  222.3039 H   0  0  0  0  0  0  0  0  0  0  0  0
  138.8821   68.4785  224.2126 H   0  0  0  0  0  0  0  0  0  0  0  0
  139.1740   67.9815  226.4765 H   0  0  0  0  0  0  0  0  0  0  0  0
  141.1494   70.8269  229.0525 H   0  0  0  0  0  0  0  0  0  0  0  0
  141.4622   72.4024  227.1546 H   0  0  0  0  0  0  0  0  0  0  0  0
  1  2  2  0
  2  3  1  0
  3  4  1  0
  4  5  1  0
  5  6  2  0
  5  7  1  0
  7  8  1  0
  8  9  1  0
  9 10  1  0
 10 11  1  0
 11 12  1  0
 12 13  1  0
 13 14  1  0
 14 15  2  0
 15 16  1  0
 16 17  2  0
 17 18  1  0
 18 19  2  0
  2 20  1  0
 20 21  2  0
 21 22  1  0
 22 23  2  0
 23 24  1  0
 24 25  2  0
 25 26  1  0
 25 27  1  0
 27 28  2  0
 28 29  1  0
 29 30  2  0
 13  7  1  0
 19 14  1  0
 30 20  1  0
 29 23  1  0
  3 31  1  0
  4 32  1  0
  4 33  1  0
  8 34  1  0
  8 35  1  0
  9 36  1  0
  9 37  1  0
 10 38  1  0
 10 39  1  0
 11 40  1  0
 11 41  1  0
 12 42  1  0
 12 43  1  0
 13 44  1  1
 15 45  1  0
 16 46  1  0
 17 47  1  0
 18 48  1  0
 19 49  1  0
 21 50  1  0
 22 51  1  0
 24 52  1  0
 27 53  1  0
 28 54  1  0
M  END
>  <smiles>  (70) 
O=C(NCC(=O)N1CCCCCC1c1ccccc1)c1ccc2cc(F)ccc2n1

>  <score_type>  (70) 
oracle

>  <origin>  (70) 
autodockgpu

>  <m_score__min__energy>  (70) 
-6.8700000000000001

>  <m_primary>  (70) 
energy

>  <rmsd>  (70) 
1.8409252474937274

>  <m_score__min__rmsd>  (70) 
1.8409252474937274

>  <meeko>  (70) 
{"free_energy": -6.18, "intermolecular_energy": -9.46, "internal_energy": -1.93, "cluster_size": 11, "cluster_id": 1, "rank_in_cluster": 10}

>  <energy>  (70) 
-6.15

>  <cluster_rmsd>  (70) 
1.48

>  <cluster>  (70) 
2

$$$$

     RDKit          3D

 54 57  0  0  0  0  0  0  0  0999 V2000
  141.0780   72.1760  221.3860 O   0  0  0  0  0  0  0  0  0  0  0  0
  140.3190   72.4200  222.3540 C   0  0  0  0  0  0  0  0  0  0  0  0
  139.5370   73.6170  222.2820 N   0  0  0  0  0  0  0  0  0  0  0  0
  139.6900   74.4440  221.0950 C   0  0  0  0  0  0  0  0  0  0  0  0
  140.8340   75.3780  221.2340 C   0  0  0  0  0  0  0  0  0  0  0  0
  142.0210   74.9020  221.2570 O   0  0  0  0  0  0  0  0  0  0  0  0
  140.6900   76.7880  221.3460 N   0  0  0  0  0  0  0  0  0  0  0  0
  140.5380   77.2230  222.7200 C   0  0  0  0  0  0  0  0  0  0  0  0
  141.5210   78.2360  223.1810 C   0  0  0  0  0  0  0  0  0  0  0  0
  141.2650   79.6190  222.6250 C   0  0  0  0  0  0  0  0  0  0  0  0
  140.4940   79.5930  221.3390 C   0  0  0  0  0  0  0  0  0  0  0  0
  141.2910   78.8860  220.2990 C   0  0  0  0  0  0  0  0  0  0  0  0
  140.7270   77.4870  220.0840 C   0  0  1  0  0  0  0  0  0  0  0  0
  141.5440   76.7930  219.0480 C   0  0  0  0  0  0  0  0  0  0  0  0
  142.9200   76.8500  219.0520 C   0  0  0  0  0  0  0  0  0  0  0  0
  143.6770   76.2020  218.0860 C   0  0  0  0  0  0  0  0  0  0  0  0
  143.0800   75.4740  217.0780 C   0  0  0  0  0  0  0  0  0  0  0  0
  141.6900   75.4060  217.0590 C   0  0  0  0  0  0  0  0  0  0  0  0
  140.9400   76.0580  218.0330 C   0  0  0  0  0  0  0  0  0  0  0  0
  140.2040   71.5560  223.5220 C   0  0  0  0  0  0  0  0  0  0  0  0
  139.5600   70.3440  223.3600 C   0  0  0  0  0  0  0  0  0  0  0  0
  139.4060   69.4610  224.4180 C   0  0  0  0  0  0  0  0  0  0  0  0
  139.9320   69.8610  225.6420 C   0  0  0  0  0  0  0  0  0  0  0  0
  139.7690   68.9680  226.6860 C   0  0  0  0  0  0  0  0  0  0  0  0
  140.2930   69.3590  227.9190 C   0  0  0  0  0  0  0  0  0  0  0  0
  140.1470   68.4970  228.9680 F   0  0  0  0  0  0  0  0  0  0  0  0
  140.9310   70.5680  228.0650 C   0  0  0  0  0  0  0  0  0  0  0  0
  141.0820   71.4470  227.0060 C   0  0  0  0  0  0  0  0  0  0  0  0
  140.5720   71.0760  225.7850 C   0  0  0  0  0  0  0  0  0  0  0  0
  140.6880   71.8810  224.7330 N   0  0  0  0  0  0  0  0  0  0  0  0
  138.8920   73.8580  223.0680 H   0  0  0  0  0  0  0  0  0  0  0  0
  139.8618   73.7937  220.2246 H   0  0  0  0  0  0  0  0  0  0  0  0
  138.7722   75.0357  220.9628 H   0  0  0  0  0  0  0  0  0  0  0  0
  139.5313   77.6525  222.8304 H   0  0  0  0  0  0  0  0  0  0  0  0
  140.7092   76.3310  223.3405 H   0  0  0  0  0  0  0  0  0  0  0  0
  141.4786   78.2884  224.2789 H   0  0  0  0  0  0  0  0  0  0  0  0
  142.5093   77.9180  222.8174 H   0  0  0  0  0  0  0  0  0  0  0  0
  140.6929   80.1959  223.3665 H   0  0  0  0  0  0  0  0  0  0  0  0
  142.2422   80.0792  222.4169 H   0  0  0  0  0  0  0  0  0  0  0  0
  139.5412   79.0654  221.4929 H   0  0  0  0  0  0  0  0  0  0  0  0
  140.2926   80.6233  221.0104 H   0  0  0  0  0  0  0  0  0  0  0  0
  141.2424   79.4490  219.3553 H   0  0  0  0  0  0  0  0  0  0  0  0
  142.3373   78.8105  220.6301 H   0  0  0  0  0  0  0  0  0  0  0  0
  139.6924   77.5238  219.7123 H   0  0  0  0  0  0  0  0  0  0  0  0
  143.4313   77.4228  219.8397 H   0  0  0  0  0  0  0  0  0  0  0  0
  144.7742   76.2703  218.1250 H   0  0  0  0  0  0  0  0  0  0  0  0
  143.6835   74.9632  216.3132 H   0  0  0  0  0  0  0  0  0  0  0  0
  141.1813   74.8335  216.2694 H   0  0  0  0  0  0  0  0  0  0  0  0
  139.8426   75.9906  217.9996 H   0  0  0  0  0  0  0  0  0  0  0  0
  139.1612   70.0741  222.3710 H   0  0  0  0  0  0  0  0  0  0  0  0
  138.8947   68.4948  224.2957 H   0  0  0  0  0  0  0  0  0  0  0  0
  139.2555   68.0045  226.5519 H   0  0  0  0  0  0  0  0  0  0  0  0
  141.3328   70.8448  229.0509 H   0  0  0  0  0  0  0  0  0  0  0  0
  141.5939   72.4117  227.1378 H   0  0  0  0  0  0  0  0  0  0  0  0
  1  2  2  0
  2  3  1  0
  3  4  1  0
  4  5  1  0
  5  6  2  0
  5  7  1  0
  7  8  1  0
  8  9  1  0
  9 10  1  0
 10 11  1  0
 11 12  1  0
 12 13  1  0
 13 14  1  0
 14 15  2  0
 15 16  1  0
 16 17  2  0
 17 18  1  0
 18 19  2  0
  2 20  1  0
 20 21  2  0
 21 22  1  0
 22 23  2  0
 23 24  1  0
 24 25  2  0
 25 26  1  0
 25 27  1  0
 27 28  2  0
 28 29  1  0
 29 30  2  0
 13  7  1  0
 19 14  1  0
 30 20  1  0
 29 23  1  0
  3 31  1  0
  4 32  1  0
  4 33  1  0
  8 34  1  0
  8 35  1  0
  9 36  1  0
  9 37  1  0
 10 38  1  0
 10 39  1  0
 11 40  1  0
 11 41  1  0
 12 42  1  0
 12 43  1  0
 13 44  1  6
 15 45  1  0
 16 46  1  0
 17 47  1  0
 18 48  1  0
 19 49  1  0
 21 50  1  0
 22 51  1  0
 24 52  1  0
 27 53  1  0
 28 54  1  0
M  END
>  <smiles>  (71) 
O=C(NCC(=O)N1CCCCCC1c1ccccc1)c1ccc2cc(F)ccc2n1

>  <score_type>  (71) 
oracle

>  <origin>  (71) 
autodockgpu

>  <m_score__min__energy>  (71) 
-6.8700000000000001

>  <m_primary>  (71) 
energy

>  <rmsd>  (71) 
2.9021333692232583

>  <m_score__min__rmsd>  (71) 
2.9021333692232583

>  <meeko>  (71) 
{"free_energy": -5.68, "intermolecular_energy": -8.96, "internal_energy": -1.59, "cluster_size": 2, "cluster_id": 4, "rank_in_cluster": 2}

>  <energy>  (71) 
-5.84

>  <cluster_rmsd>  (71) 
0.68

>  <cluster>  (71) 
2

$$$$

     RDKit          3D

 54 57  0  0  0  0  0  0  0  0999 V2000
  140.6220   71.8290  221.1820 O   0  0  0  0  0  0  0  0  0  0  0  0
  140.2360   72.2780  222.2880 C   0  0  0  0  0  0  0  0  0  0  0  0
  139.8650   73.6600  222.3360 N   0  0  0  0  0  0  0  0  0  0  0  0
  139.9670   74.4210  221.1000 C   0  0  0  0  0  0  0  0  0  0  0  0
  140.9020   75.5630  221.2470 C   0  0  0  0  0  0  0  0  0  0  0  0
  141.0950   76.0580  222.4100 O   0  0  0  0  0  0  0  0  0  0  0  0
  141.6050   76.1510  220.1590 N   0  0  0  0  0  0  0  0  0  0  0  0
  141.5470   77.5980  220.1770 C   0  0  0  0  0  0  0  0  0  0  0  0
  142.1960   78.2780  219.0270 C   0  0  0  0  0  0  0  0  0  0  0  0
  141.5390   77.9730  217.6990 C   0  0  0  0  0  0  0  0  0  0  0  0
  141.7210   76.5460  217.2770 C   0  0  0  0  0  0  0  0  0  0  0  0
  142.8180   75.9270  218.0770 C   0  0  0  0  0  0  0  0  0  0  0  0
  142.2280   75.1940  219.2750 C   0  0  1  0  0  0  0  0  0  0  0  0
  143.3040   74.3960  219.9300 C   0  0  0  0  0  0  0  0  0  0  0  0
  143.1350   73.0630  220.2290 C   0  0  0  0  0  0  0  0  0  0  0  0
  144.1390   72.3240  220.8390 C   0  0  0  0  0  0  0  0  0  0  0  0
  145.3490   72.8960  221.1720 C   0  0  0  0  0  0  0  0  0  0  0  0
  145.5350   74.2440  220.8760 C   0  0  0  0  0  0  0  0  0  0  0  0
  144.5230   74.9760  220.2640 C   0  0  0  0  0  0  0  0  0  0  0  0
  140.1530   71.4700  223.4990 C   0  0  0  0  0  0  0  0  0  0  0  0
  139.5540   70.2290  223.3980 C   0  0  0  0  0  0  0  0  0  0  0  0
  139.4330   69.3950  224.5000 C   0  0  0  0  0  0  0  0  0  0  0  0
  139.9430   69.8760  225.7010 C   0  0  0  0  0  0  0  0  0  0  0  0
  139.8130   69.0310  226.7890 C   0  0  0  0  0  0  0  0  0  0  0  0
  140.3230   69.5020  228.0000 C   0  0  0  0  0  0  0  0  0  0  0  0
  140.2090   68.6890  229.0920 F   0  0  0  0  0  0  0  0  0  0  0  0
  140.9170   70.7400  228.0840 C   0  0  0  0  0  0  0  0  0  0  0  0
  141.0350   71.5690  226.9820 C   0  0  0  0  0  0  0  0  0  0  0  0
  140.5380   71.1180  225.7810 C   0  0  0  0  0  0  0  0  0  0  0  0
  140.6260   71.8730  224.6910 N   0  0  0  0  0  0  0  0  0  0  0  0
  139.5390   74.0740  223.2380 H   0  0  0  0  0  0  0  0  0  0  0  0
  140.3321   73.7593  220.3007 H   0  0  0  0  0  0  0  0  0  0  0  0
  138.9710   74.8168  220.8523 H   0  0  0  0  0  0  0  0  0  0  0  0
  140.4879   77.8946  220.1924 H   0  0  0  0  0  0  0  0  0  0  0  0
  142.1082   77.9118  221.0695 H   0  0  0  0  0  0  0  0  0  0  0  0
  142.1539   79.3642  219.1954 H   0  0  0  0  0  0  0  0  0  0  0  0
  143.2294   77.9053  218.9708 H   0  0  0  0  0  0  0  0  0  0  0  0
  140.4620   78.1802  217.7835 H   0  0  0  0  0  0  0  0  0  0  0  0
  142.0173   78.6077  216.9385 H   0  0  0  0  0  0  0  0  0  0  0  0
  140.7861   75.9915  217.4460 H   0  0  0  0  0  0  0  0  0  0  0  0
  141.9807   76.5097  216.2087 H   0  0  0  0  0  0  0  0  0  0  0  0
  143.3717   75.2141  217.4484 H   0  0  0  0  0  0  0  0  0  0  0  0
  143.5001   76.7141  218.4309 H   0  0  0  0  0  0  0  0  0  0  0  0
  141.4423   74.4881  218.9677 H   0  0  0  0  0  0  0  0  0  0  0  0
  142.1827   72.5725  219.9788 H   0  0  0  0  0  0  0  0  0  0  0  0
  143.9662   71.2607  221.0614 H   0  0  0  0  0  0  0  0  0  0  0  0
  146.1416   72.3064  221.6558 H   0  0  0  0  0  0  0  0  0  0  0  0
  146.4878   74.7327  221.1277 H   0  0  0  0  0  0  0  0  0  0  0  0
  144.6909   76.0395  220.0387 H   0  0  0  0  0  0  0  0  0  0  0  0
  139.1653   69.8957  222.4244 H   0  0  0  0  0  0  0  0  0  0  0  0
  138.9586   68.4052  224.4276 H   0  0  0  0  0  0  0  0  0  0  0  0
  139.3348   68.0440  226.7044 H   0  0  0  0  0  0  0  0  0  0  0  0
  141.3090   71.0804  229.0538 H   0  0  0  0  0  0  0  0  0  0  0  0
  141.5111   72.5572  227.0638 H   0  0  0  0  0  0  0  0  0  0  0  0
  1  2  2  0
  2  3  1  0
  3  4  1  0
  4  5  1  0
  5  6  2  0
  5  7  1  0
  7  8  1  0
  8  9  1  0
  9 10  1  0
 10 11  1  0
 11 12  1  0
 12 13  1  0
 13 14  1  0
 14 15  2  0
 15 16  1  0
 16 17  2  0
 17 18  1  0
 18 19  2  0
  2 20  1  0
 20 21  2  0
 21 22  1  0
 22 23  2  0
 23 24  1  0
 24 25  2  0
 25 26  1  0
 25 27  1  0
 27 28  2  0
 28 29  1  0
 29 30  2  0
 13  7  1  0
 19 14  1  0
 30 20  1  0
 29 23  1  0
  3 31  1  0
  4 32  1  0
  4 33  1  0
  8 34  1  0
  8 35  1  0
  9 36  1  0
  9 37  1  0
 10 38  1  0
 10 39  1  0
 11 40  1  0
 11 41  1  0
 12 42  1  0
 12 43  1  0
 13 44  1  6
 15 45  1  0
 16 46  1  0
 17 47  1  0
 18 48  1  0
 19 49  1  0
 21 50  1  0
 22 51  1  0
 24 52  1  0
 27 53  1  0
 28 54  1  0
M  END
>  <smiles>  (72) 
O=C(NCC(=O)N1CCCCCC1c1ccccc1)c1ccc2cc(F)ccc2n1

>  <score_type>  (72) 
oracle

>  <origin>  (72) 
autodockgpu

>  <m_score__min__energy>  (72) 
-6.8700000000000001

>  <m_primary>  (72) 
energy

>  <rmsd>  (72) 
2.3055359877378576

>  <m_score__min__rmsd>  (72) 
2.3055359877378576

>  <meeko>  (72) 
{"free_energy": -6.59, "intermolecular_energy": -9.87, "internal_energy": -2.11, "cluster_size": 16, "cluster_id": 2, "rank_in_cluster": 3}

>  <energy>  (72) 
-5.63

>  <cluster_rmsd>  (72) 
1.1

>  <cluster>  (72) 
2

$$$$

     RDKit          3D

 54 57  0  0  0  0  0  0  0  0999 V2000
  140.8470   71.1430  221.7600 O   0  0  0  0  0  0  0  0  0  0  0  0
  140.3500   71.6750  222.7810 C   0  0  0  0  0  0  0  0  0  0  0  0
  139.6700   72.9210  222.6000 N   0  0  0  0  0  0  0  0  0  0  0  0
  139.6150   73.4620  221.2500 C   0  0  0  0  0  0  0  0  0  0  0  0
  140.4140   74.7070  221.1370 C   0  0  0  0  0  0  0  0  0  0  0  0
  139.9950   75.7650  221.7200 O   0  0  0  0  0  0  0  0  0  0  0  0
  141.6310   74.7970  220.4070 N   0  0  0  0  0  0  0  0  0  0  0  0
  142.1710   76.1420  220.3920 C   0  0  0  0  0  0  0  0  0  0  0  0
  142.8250   76.5530  219.1230 C   0  0  0  0  0  0  0  0  0  0  0  0
  142.2170   75.9100  217.8970 C   0  0  0  0  0  0  0  0  0  0  0  0
  142.7170   74.5140  217.6670 C   0  0  0  0  0  0  0  0  0  0  0  0
  141.8040   73.5440  218.3440 C   0  0  0  0  0  0  0  0  0  0  0  0
  142.0750   73.5450  219.8430 C   0  0  1  0  0  0  0  0  0  0  0  0
  143.5240   73.2740  220.0710 C   0  0  0  0  0  0  0  0  0  0  0  0
  144.3130   74.1290  220.8080 C   0  0  0  0  0  0  0  0  0  0  0  0
  145.6610   73.8730  221.0170 C   0  0  0  0  0  0  0  0  0  0  0  0
  146.2670   72.7520  220.4930 C   0  0  0  0  0  0  0  0  0  0  0  0
  145.4840   71.8770  219.7440 C   0  0  0  0  0  0  0  0  0  0  0  0
  144.1330   72.1420  219.5410 C   0  0  0  0  0  0  0  0  0  0  0  0
  140.4340   71.0900  224.1130 C   0  0  0  0  0  0  0  0  0  0  0  0
  140.9860   71.8620  225.1170 C   0  0  0  0  0  0  0  0  0  0  0  0
  141.1040   71.3840  226.4140 C   0  0  0  0  0  0  0  0  0  0  0  0
  140.6400   70.0930  226.6440 C   0  0  0  0  0  0  0  0  0  0  0  0
  140.7660   69.6330  227.9420 C   0  0  0  0  0  0  0  0  0  0  0  0
  140.3030   68.3380  228.1850 C   0  0  0  0  0  0  0  0  0  0  0  0
  140.4150   67.8570  229.4590 F   0  0  0  0  0  0  0  0  0  0  0  0
  139.7570   67.5820  227.1750 C   0  0  0  0  0  0  0  0  0  0  0  0
  139.6410   68.0630  225.8830 C   0  0  0  0  0  0  0  0  0  0  0  0
  140.0920   69.3360  225.6280 C   0  0  0  0  0  0  0  0  0  0  0  0
  140.0050   69.8490  224.4050 N   0  0  0  0  0  0  0  0  0  0  0  0
  139.2420   73.3980  223.4250 H   0  0  0  0  0  0  0  0  0  0  0  0
  140.0137   72.7150  220.5478 H   0  0  0  0  0  0  0  0  0  0  0  0
  138.5673   73.6982  221.0122 H   0  0  0  0  0  0  0  0  0  0  0  0
  141.3453   76.8412  220.5900 H   0  0  0  0  0  0  0  0  0  0  0  0
  142.9597   76.1600  221.1586 H   0  0  0  0  0  0  0  0  0  0  0  0
  142.7373   77.6450  219.0235 H   0  0  0  0  0  0  0  0  0  0  0  0
  143.8728   76.2226  219.1765 H   0  0  0  0  0  0  0  0  0  0  0  0
  141.1247   75.8764  218.0223 H   0  0  0  0  0  0  0  0  0  0  0  0
  142.5081   76.5150  217.0256 H   0  0  0  0  0  0  0  0  0  0  0  0
  142.7395   74.3051  216.5873 H   0  0  0  0  0  0  0  0  0  0  0  0
  143.7319   74.4138  218.0793 H   0  0  0  0  0  0  0  0  0  0  0  0
  140.7594   73.8361  218.1610 H   0  0  0  0  0  0  0  0  0  0  0  0
  141.9811   72.5354  217.9422 H   0  0  0  0  0  0  0  0  0  0  0  0
  141.5115   72.7503  220.3538 H   0  0  0  0  0  0  0  0  0  0  0  0
  143.8646   75.0354  221.2409 H   0  0  0  0  0  0  0  0  0  0  0  0
  146.2576   74.5793  221.6130 H   0  0  0  0  0  0  0  0  0  0  0  0
  147.3360   72.5543  220.6610 H   0  0  0  0  0  0  0  0  0  0  0  0
  145.9355   70.9723  219.3109 H   0  0  0  0  0  0  0  0  0  0  0  0
  143.5319   71.4383  218.9464 H   0  0  0  0  0  0  0  0  0  0  0  0
  141.3394   72.8771  224.8831 H   0  0  0  0  0  0  0  0  0  0  0  0
  141.5415   71.9938  227.2182 H   0  0  0  0  0  0  0  0  0  0  0  0
  141.2059   70.2519  228.7379 H   0  0  0  0  0  0  0  0  0  0  0  0
  139.4022   66.5655  227.4005 H   0  0  0  0  0  0  0  0  0  0  0  0
  139.2018   67.4462  225.0851 H   0  0  0  0  0  0  0  0  0  0  0  0
  1  2  2  0
  2  3  1  0
  3  4  1  0
  4  5  1  0
  5  6  2  0
  5  7  1  0
  7  8  1  0
  8  9  1  0
  9 10  1  0
 10 11  1  0
 11 12  1  0
 12 13  1  0
 13 14  1  0
 14 15  2  0
 15 16  1  0
 16 17  2  0
 17 18  1  0
 18 19  2  0
  2 20  1  0
 20 21  2  0
 21 22  1  0
 22 23  2  0
 23 24  1  0
 24 25  2  0
 25 26  1  0
 25 27  1  0
 27 28  2  0
 28 29  1  0
 29 30  2  0
 13  7  1  0
 19 14  1  0
 30 20  1  0
 29 23  1  0
  3 31  1  0
  4 32  1  0
  4 33  1  0
  8 34  1  0
  8 35  1  0
  9 36  1  0
  9 37  1  0
 10 38  1  0
 10 39  1  0
 11 40  1  0
 11 41  1  0
 12 42  1  0
 12 43  1  0
 13 44  1  1
 15 45  1  0
 16 46  1  0
 17 47  1  0
 18 48  1  0
 19 49  1  0
 21 50  1  0
 22 51  1  0
 24 52  1  0
 27 53  1  0
 28 54  1  0
M  END
>  <smiles>  (73) 
O=C(NCC(=O)N1CCCCCC1c1ccccc1)c1ccc2cc(F)ccc2n1

>  <score_type>  (73) 
oracle

>  <origin>  (73) 
autodockgpu

>  <m_score__min__energy>  (73) 
-6.8700000000000001

>  <m_primary>  (73) 
energy

>  <rmsd>  (73) 
3.2827990189931255

>  <m_score__min__rmsd>  (73) 
3.2827990189931255

>  <meeko>  (73) 
{"free_energy": -6.2, "intermolecular_energy": -9.49, "internal_energy": -1.73, "cluster_size": 16, "cluster_id": 2, "rank_in_cluster": 8}

>  <energy>  (73) 
-5.52

>  <cluster_rmsd>  (73) 
1.3

>  <cluster>  (73) 
2

$$$$

     RDKit          3D

 54 57  0  0  0  0  0  0  0  0999 V2000
  139.0650   71.8420  220.8110 O   0  0  0  0  0  0  0  0  0  0  0  0
  139.6150   72.2840  221.8480 C   0  0  0  0  0  0  0  0  0  0  0  0
  140.0980   73.6300  221.8060 N   0  0  0  0  0  0  0  0  0  0  0  0
  139.9090   74.3680  220.5660 C   0  0  0  0  0  0  0  0  0  0  0  0
  140.8940   73.9520  219.5370 C   0  0  0  0  0  0  0  0  0  0  0  0
  140.5460   73.9640  218.3070 O   0  0  0  0  0  0  0  0  0  0  0  0
  142.2190   73.5340  219.8410 N   0  0  0  0  0  0  0  0  0  0  0  0
  142.3880   72.0990  219.7280 C   0  0  0  0  0  0  0  0  0  0  0  0
  143.4550   71.5130  220.5780 C   0  0  0  0  0  0  0  0  0  0  0  0
  144.8490   71.9330  220.1690 C   0  0  0  0  0  0  0  0  0  0  0  0
  145.1810   73.3330  220.5950 C   0  0  0  0  0  0  0  0  0  0  0  0
  144.5100   74.2980  219.6710 C   0  0  0  0  0  0  0  0  0  0  0  0
  143.1130   74.6130  220.1910 C   0  0  1  0  0  0  0  0  0  0  0  0
  142.6840   75.9340  219.6500 C   0  0  0  0  0  0  0  0  0  0  0  0
  142.9820   76.3210  218.3620 C   0  0  0  0  0  0  0  0  0  0  0  0
  142.5810   77.5520  217.8630 C   0  0  0  0  0  0  0  0  0  0  0  0
  141.8680   78.4410  218.6380 C   0  0  0  0  0  0  0  0  0  0  0  0
  141.5580   78.0670  219.9420 C   0  0  0  0  0  0  0  0  0  0  0  0
  141.9640   76.8290  220.4340 C   0  0  0  0  0  0  0  0  0  0  0  0
  139.7790   71.5000  223.0660 C   0  0  0  0  0  0  0  0  0  0  0  0
  139.3580   70.1840  223.0410 C   0  0  0  0  0  0  0  0  0  0  0  0
  139.4770   69.3670  224.1550 C   0  0  0  0  0  0  0  0  0  0  0  0
  140.0380   69.9430  225.2910 C   0  0  0  0  0  0  0  0  0  0  0  0
  140.1480   69.1130  226.3920 C   0  0  0  0  0  0  0  0  0  0  0  0
  140.7110   69.6810  227.5370 C   0  0  0  0  0  0  0  0  0  0  0  0
  140.8320   68.8850  228.6410 F   0  0  0  0  0  0  0  0  0  0  0  0
  141.1250   70.9920  227.5460 C   0  0  0  0  0  0  0  0  0  0  0  0
  141.0040   71.8030  226.4320 C   0  0  0  0  0  0  0  0  0  0  0  0
  140.4530   71.2590  225.2960 C   0  0  0  0  0  0  0  0  0  0  0  0
  140.3130   71.9930  224.1970 N   0  0  0  0  0  0  0  0  0  0  0  0
  140.5620   74.0370  222.6480 H   0  0  0  0  0  0  0  0  0  0  0  0
  138.8936   74.1791  220.1875 H   0  0  0  0  0  0  0  0  0  0  0  0
  140.0535   75.4386  220.7730 H   0  0  0  0  0  0  0  0  0  0  0  0
  141.4354   71.6227  220.0032 H   0  0  0  0  0  0  0  0  0  0  0  0
  142.6928   71.9114  218.6879 H   0  0  0  0  0  0  0  0  0  0  0  0
  143.2863   71.8308  221.6175 H   0  0  0  0  0  0  0  0  0  0  0  0
  143.3985   70.4206  220.4620 H   0  0  0  0  0  0  0  0  0  0  0  0
  145.5731   71.2443  220.6288 H   0  0  0  0  0  0  0  0  0  0  0  0
  144.8968   71.9001  219.0705 H   0  0  0  0  0  0  0  0  0  0  0  0
  144.8256   73.4993  221.6227 H   0  0  0  0  0  0  0  0  0  0  0  0
  146.2702   73.4825  220.5596 H   0  0  0  0  0  0  0  0  0  0  0  0
  145.0993   75.2254  219.6186 H   0  0  0  0  0  0  0  0  0  0  0  0
  144.4356   73.8530  218.6678 H   0  0  0  0  0  0  0  0  0  0  0  0
  143.1013   74.6913  221.2881 H   0  0  0  0  0  0  0  0  0  0  0  0
  143.5511   75.6382  217.7140 H   0  0  0  0  0  0  0  0  0  0  0  0
  142.8372   77.8237  216.8284 H   0  0  0  0  0  0  0  0  0  0  0  0
  141.5536   79.4163  218.2381 H   0  0  0  0  0  0  0  0  0  0  0  0
  140.9894   78.7526  220.5874 H   0  0  0  0  0  0  0  0  0  0  0  0
  141.7090   76.5524  221.4677 H   0  0  0  0  0  0  0  0  0  0  0  0
  138.9194   69.7762  222.1183 H   0  0  0  0  0  0  0  0  0  0  0  0
  139.1453   68.3183  224.1416 H   0  0  0  0  0  0  0  0  0  0  0  0
  139.8115   68.0660  226.3672 H   0  0  0  0  0  0  0  0  0  0  0  0
  141.5647   71.4076  228.4647 H   0  0  0  0  0  0  0  0  0  0  0  0
  141.3383   72.8507  226.4544 H   0  0  0  0  0  0  0  0  0  0  0  0
  1  2  2  0
  2  3  1  0
  3  4  1  0
  4  5  1  0
  5  6  2  0
  5  7  1  0
  7  8  1  0
  8  9  1  0
  9 10  1  0
 10 11  1  0
 11 12  1  0
 12 13  1  0
 13 14  1  0
 14 15  2  0
 15 16  1  0
 16 17  2  0
 17 18  1  0
 18 19  2  0
  2 20  1  0
 20 21  2  0
 21 22  1  0
 22 23  2  0
 23 24  1  0
 24 25  2  0
 25 26  1  0
 25 27  1  0
 27 28  2  0
 28 29  1  0
 29 30  2  0
 13  7  1  0
 19 14  1  0
 30 20  1  0
 29 23  1  0
  3 31  1  0
  4 32  1  0
  4 33  1  0
  8 34  1  0
  8 35  1  0
  9 36  1  0
  9 37  1  0
 10 38  1  0
 10 39  1  0
 11 40  1  0
 11 41  1  0
 12 42  1  0
 12 43  1  0
 13 44  1  1
 15 45  1  0
 16 46  1  0
 17 47  1  0
 18 48  1  0
 19 49  1  0
 21 50  1  0
 22 51  1  0
 24 52  1  0
 27 53  1  0
 28 54  1  0
M  END
>  <smiles>  (74) 
O=C(NCC(=O)N1CCCCCC1c1ccccc1)c1ccc2cc(F)ccc2n1

>  <score_type>  (74) 
oracle

>  <origin>  (74) 
autodockgpu

>  <m_score__min__energy>  (74) 
-6.8700000000000001

>  <m_primary>  (74) 
energy

>  <rmsd>  (74) 
3.01841774616721

>  <m_score__min__rmsd>  (74) 
3.01841774616721

>  <meeko>  (74) 
{"free_energy": -4.92, "intermolecular_energy": -8.2, "internal_energy": -2.13, "cluster_size": 16, "cluster_id": 3, "rank_in_cluster": 15}

>  <energy>  (74) 
-5.5

>  <cluster_rmsd>  (74) 
1.41

>  <cluster>  (74) 
2

$$$$

     RDKit          3D

 54 57  0  0  0  0  0  0  0  0999 V2000
  139.6070   75.5160  222.4420 O   0  0  0  0  0  0  0  0  0  0  0  0
  140.6720   76.0670  222.0740 C   0  0  0  0  0  0  0  0  0  0  0  0
  141.6720   75.2270  221.4900 N   0  0  0  0  0  0  0  0  0  0  0  0
  141.3680   73.8080  221.3740 C   0  0  0  0  0  0  0  0  0  0  0  0
  141.8010   73.2720  220.0600 C   0  0  0  0  0  0  0  0  0  0  0  0
  142.1390   72.0420  219.9760 O   0  0  0  0  0  0  0  0  0  0  0  0
  141.8660   74.0530  218.8740 N   0  0  0  0  0  0  0  0  0  0  0  0
  140.5880   74.1460  218.1990 C   0  0  0  0  0  0  0  0  0  0  0  0
  139.9080   75.4630  218.2950 C   0  0  0  0  0  0  0  0  0  0  0  0
  140.7840   76.5500  218.8790 C   0  0  0  0  0  0  0  0  0  0  0  0
  142.0630   76.7340  218.1190 C   0  0  0  0  0  0  0  0  0  0  0  0
  143.1780   76.0880  218.8650 C   0  0  0  0  0  0  0  0  0  0  0  0
  143.1770   74.5890  218.5920 C   0  0  1  0  0  0  0  0  0  0  0  0
  144.2610   73.9520  219.3930 C   0  0  0  0  0  0  0  0  0  0  0  0
  144.7640   74.5450  220.5300 C   0  0  0  0  0  0  0  0  0  0  0  0
  145.7730   73.9490  221.2730 C   0  0  0  0  0  0  0  0  0  0  0  0
  146.3150   72.7370  220.9020 C   0  0  0  0  0  0  0  0  0  0  0  0
  145.8170   72.1230  219.7560 C   0  0  0  0  0  0  0  0  0  0  0  0
  144.8050   72.7290  219.0180 C   0  0  0  0  0  0  0  0  0  0  0  0
  140.9270   77.4960  222.2150 C   0  0  0  0  0  0  0  0  0  0  0  0
  141.4190   77.9410  223.4270 C   0  0  0  0  0  0  0  0  0  0  0  0
  141.6910   79.2830  223.6460 C   0  0  0  0  0  0  0  0  0  0  0  0
  141.4390   80.1490  222.5870 C   0  0  0  0  0  0  0  0  0  0  0  0
  141.7140   81.4840  222.8240 C   0  0  0  0  0  0  0  0  0  0  0  0
  141.4660   82.3620  221.7670 C   0  0  0  0  0  0  0  0  0  0  0  0
  141.7290   83.6860  221.9730 F   0  0  0  0  0  0  0  0  0  0  0  0
  140.9760   81.9030  220.5670 C   0  0  0  0  0  0  0  0  0  0  0  0
  140.7070   80.5620  220.3530 C   0  0  0  0  0  0  0  0  0  0  0  0
  140.9460   79.6850  221.3840 C   0  0  0  0  0  0  0  0  0  0  0  0
  140.7060   78.3860  221.2320 N   0  0  0  0  0  0  0  0  0  0  0  0
  142.5740   75.6460  221.1710 H   0  0  0  0  0  0  0  0  0  0  0  0
  141.8905   73.2626  222.1737 H   0  0  0  0  0  0  0  0  0  0  0  0
  140.2794   73.6767  221.4620 H   0  0  0  0  0  0  0  0  0  0  0  0
  140.7507   73.9255  217.1337 H   0  0  0  0  0  0  0  0  0  0  0  0
  139.9265   73.4273  218.7048 H   0  0  0  0  0  0  0  0  0  0  0  0
  139.5980   75.7698  217.2852 H   0  0  0  0  0  0  0  0  0  0  0  0
  139.0507   75.3374  218.9727 H   0  0  0  0  0  0  0  0  0  0  0  0
  140.2260   77.4978  218.8633 H   0  0  0  0  0  0  0  0  0  0  0  0
  141.0472   76.2494  219.9039 H   0  0  0  0  0  0  0  0  0  0  0  0
  141.9695   76.2714  217.1254 H   0  0  0  0  0  0  0  0  0  0  0  0
  142.2711   77.8080  218.0039 H   0  0  0  0  0  0  0  0  0  0  0  0
  144.1355   76.5189  218.5371 H   0  0  0  0  0  0  0  0  0  0  0  0
  143.0447   76.2624  219.9429 H   0  0  0  0  0  0  0  0  0  0  0  0
  143.3860   74.3738  217.5337 H   0  0  0  0  0  0  0  0  0  0  0  0
  144.3565   75.5132  220.8564 H   0  0  0  0  0  0  0  0  0  0  0  0
  146.1477   74.4535  222.1758 H   0  0  0  0  0  0  0  0  0  0  0  0
  147.1162   72.2694  221.4931 H   0  0  0  0  0  0  0  0  0  0  0  0
  146.2255   71.1543  219.4325 H   0  0  0  0  0  0  0  0  0  0  0  0
  144.4259   72.2277  218.1152 H   0  0  0  0  0  0  0  0  0  0  0  0
  141.5986   77.2160  224.2346 H   0  0  0  0  0  0  0  0  0  0  0  0
  142.0855   79.6440  224.6073 H   0  0  0  0  0  0  0  0  0  0  0  0
  142.1059   81.8340  223.7904 H   0  0  0  0  0  0  0  0  0  0  0  0
  140.7926   82.6214  219.7544 H   0  0  0  0  0  0  0  0  0  0  0  0
  140.3142   80.2093  219.3879 H   0  0  0  0  0  0  0  0  0  0  0  0
  1  2  2  0
  2  3  1  0
  3  4  1  0
  4  5  1  0
  5  6  2  0
  5  7  1  0
  7  8  1  0
  8  9  1  0
  9 10  1  0
 10 11  1  0
 11 12  1  0
 12 13  1  0
 13 14  1  0
 14 15  2  0
 15 16  1  0
 16 17  2  0
 17 18  1  0
 18 19  2  0
  2 20  1  0
 20 21  2  0
 21 22  1  0
 22 23  2  0
 23 24  1  0
 24 25  2  0
 25 26  1  0
 25 27  1  0
 27 28  2  0
 28 29  1  0
 29 30  2  0
 13  7  1  0
 19 14  1  0
 30 20  1  0
 29 23  1  0
  3 31  1  0
  4 32  1  0
  4 33  1  0
  8 34  1  0
  8 35  1  0
  9 36  1  0
  9 37  1  0
 10 38  1  0
 10 39  1  0
 11 40  1  0
 11 41  1  0
 12 42  1  0
 12 43  1  0
 13 44  1  6
 15 45  1  0
 16 46  1  0
 17 47  1  0
 18 48  1  0
 19 49  1  0
 21 50  1  0
 22 51  1  0
 24 52  1  0
 27 53  1  0
 28 54  1  0
M  END
>  <smiles>  (75) 
O=C(NCC(=O)N1CCCCCC1c1ccccc1)c1ccc2cc(F)ccc2n1

>  <score_type>  (75) 
oracle

>  <origin>  (75) 
autodockgpu

>  <m_score__min__energy>  (75) 
-6.8700000000000001

>  <m_primary>  (75) 
energy

>  <rmsd>  (75) 
8.250470837809814

>  <m_score__min__rmsd>  (75) 
8.250470837809814

>  <meeko>  (75) 
{"free_energy": -4.79, "intermolecular_energy": -8.07, "internal_energy": -2.31, "cluster_size": 2, "cluster_id": 5, "rank_in_cluster": 2}

>  <energy>  (75) 
-5.43

>  <cluster_rmsd>  (75) 
1.22

>  <cluster>  (75) 
2

$$$$

     RDKit          3D

 54 57  0  0  0  0  0  0  0  0999 V2000
  141.3960   72.2920  221.5290 O   0  0  0  0  0  0  0  0  0  0  0  0
  140.4790   72.4850  222.3630 C   0  0  0  0  0  0  0  0  0  0  0  0
  139.5910   73.5790  222.1130 N   0  0  0  0  0  0  0  0  0  0  0  0
  139.8280   74.3710  220.9160 C   0  0  0  0  0  0  0  0  0  0  0  0
  140.9560   75.3150  221.1110 C   0  0  0  0  0  0  0  0  0  0  0  0
  141.0530   75.9420  222.2210 O   0  0  0  0  0  0  0  0  0  0  0  0
  141.9480   75.5700  220.1240 N   0  0  0  0  0  0  0  0  0  0  0  0
  142.3520   76.9610  220.0890 C   0  0  0  0  0  0  0  0  0  0  0  0
  141.8250   77.7510  218.9470 C   0  0  0  0  0  0  0  0  0  0  0  0
  142.1730   77.1630  217.5980 C   0  0  0  0  0  0  0  0  0  0  0  0
  143.1470   76.0270  217.6940 C   0  0  0  0  0  0  0  0  0  0  0  0
  142.3970   74.7530  217.8900 C   0  0  0  0  0  0  0  0  0  0  0  0
  142.3450   74.4030  219.3720 C   0  0  1  0  0  0  0  0  0  0  0  0
  143.6700   73.8570  219.7850 C   0  0  0  0  0  0  0  0  0  0  0  0
  144.5760   74.6140  220.4930 C   0  0  0  0  0  0  0  0  0  0  0  0
  145.8080   74.1020  220.8750 C   0  0  0  0  0  0  0  0  0  0  0  0
  146.1760   72.8110  220.5590 C   0  0  0  0  0  0  0  0  0  0  0  0
  145.2720   72.0320  219.8430 C   0  0  0  0  0  0  0  0  0  0  0  0
  144.0380   72.5540  219.4650 C   0  0  0  0  0  0  0  0  0  0  0  0
  140.2860   71.6590  223.5490 C   0  0  0  0  0  0  0  0  0  0  0  0
  139.6040   70.4670  223.3930 C   0  0  0  0  0  0  0  0  0  0  0  0
  139.3770   69.6200  224.4680 C   0  0  0  0  0  0  0  0  0  0  0  0
  139.8680   70.0370  225.7010 C   0  0  0  0  0  0  0  0  0  0  0  0
  139.6310   69.1800  226.7610 C   0  0  0  0  0  0  0  0  0  0  0  0
  140.1200   69.5880  228.0040 C   0  0  0  0  0  0  0  0  0  0  0  0
  139.9010   68.7610  229.0690 F   0  0  0  0  0  0  0  0  0  0  0  0
  140.7960   70.7770  228.1420 C   0  0  0  0  0  0  0  0  0  0  0  0
  141.0210   71.6190  227.0670 C   0  0  0  0  0  0  0  0  0  0  0  0
  140.5460   71.2310  225.8360 C   0  0  0  0  0  0  0  0  0  0  0  0
  140.7340   72.0010  224.7690 N   0  0  0  0  0  0  0  0  0  0  0  0
  138.8140   73.7740  222.7840 H   0  0  0  0  0  0  0  0  0  0  0  0
  140.0655   73.6960  220.0805 H   0  0  0  0  0  0  0  0  0  0  0  0
  138.9205   74.9533  220.6987 H   0  0  0  0  0  0  0  0  0  0  0  0
  142.0074   77.4376  221.0186 H   0  0  0  0  0  0  0  0  0  0  0  0
  143.4459   76.9551  219.9731 H   0  0  0  0  0  0  0  0  0  0  0  0
  140.7295   77.8007  219.0335 H   0  0  0  0  0  0  0  0  0  0  0  0
  142.2918   78.7457  218.9976 H   0  0  0  0  0  0  0  0  0  0  0  0
  141.2499   76.7957  217.1258 H   0  0  0  0  0  0  0  0  0  0  0  0
  142.6474   77.9570  217.0026 H   0  0  0  0  0  0  0  0  0  0  0  0
  143.7361   75.9682  216.7669 H   0  0  0  0  0  0  0  0  0  0  0  0
  143.8241   76.1918  218.5451 H   0  0  0  0  0  0  0  0  0  0  0  0
  141.3725   74.8705  217.5071 H   0  0  0  0  0  0  0  0  0  0  0  0
  142.9078   73.9452  217.3454 H   0  0  0  0  0  0  0  0  0  0  0  0
  141.5947   73.6246  219.5747 H   0  0  0  0  0  0  0  0  0  0  0  0
  144.3174   75.6487  220.7622 H   0  0  0  0  0  0  0  0  0  0  0  0
  146.5045   74.7382  221.4408 H   0  0  0  0  0  0  0  0  0  0  0  0
  147.1538   72.4095  220.8635 H   0  0  0  0  0  0  0  0  0  0  0  0
  145.5340   70.9980  219.5742 H   0  0  0  0  0  0  0  0  0  0  0  0
  143.3375   71.9214  218.9001 H   0  0  0  0  0  0  0  0  0  0  0  0
  139.2338   70.1843  222.3965 H   0  0  0  0  0  0  0  0  0  0  0  0
  138.8371   68.6687  224.3515 H   0  0  0  0  0  0  0  0  0  0  0  0
  139.0886   68.2317  226.6322 H   0  0  0  0  0  0  0  0  0  0  0  0
  141.1688   71.0675  229.1353 H   0  0  0  0  0  0  0  0  0  0  0  0
  141.5624   72.5682  227.1931 H   0  0  0  0  0  0  0  0  0  0  0  0
  1  2  2  0
  2  3  1  0
  3  4  1  0
  4  5  1  0
  5  6  2  0
  5  7  1  0
  7  8  1  0
  8  9  1  0
  9 10  1  0
 10 11  1  0
 11 12  1  0
 12 13  1  0
 13 14  1  0
 14 15  2  0
 15 16  1  0
 16 17  2  0
 17 18  1  0
 18 19  2  0
  2 20  1  0
 20 21  2  0
 21 22  1  0
 22 23  2  0
 23 24  1  0
 24 25  2  0
 25 26  1  0
 25 27  1  0
 27 28  2  0
 28 29  1  0
 29 30  2  0
 13  7  1  0
 19 14  1  0
 30 20  1  0
 29 23  1  0
  3 31  1  0
  4 32  1  0
  4 33  1  0
  8 34  1  0
  8 35  1  0
  9 36  1  0
  9 37  1  0
 10 38  1  0
 10 39  1  0
 11 40  1  0
 11 41  1  0
 12 42  1  0
 12 43  1  0
 13 44  1  6
 15 45  1  0
 16 46  1  0
 17 47  1  0
 18 48  1  0
 19 49  1  0
 21 50  1  0
 22 51  1  0
 24 52  1  0
 27 53  1  0
 28 54  1  0
M  END
>  <smiles>  (76) 
O=C(NCC(=O)N1CCCCCC1c1ccccc1)c1ccc2cc(F)ccc2n1

>  <score_type>  (76) 
oracle

>  <origin>  (76) 
autodockgpu

>  <m_score__min__energy>  (76) 
-6.8700000000000001

>  <m_primary>  (76) 
energy

>  <rmsd>  (76) 
2.377916587553091

>  <m_score__min__rmsd>  (76) 
2.377916587553091

>  <meeko>  (76) 
{"free_energy": -6.62, "intermolecular_energy": -9.9, "internal_energy": -1.91, "cluster_size": 16, "cluster_id": 2, "rank_in_cluster": 1}

>  <energy>  (76) 
-5.17

>  <cluster_rmsd>  (76) 
1.36

>  <cluster>  (76) 
2

$$$$

     RDKit          3D

 54 57  0  0  0  0  0  0  0  0999 V2000
  141.3280   72.4580  221.7970 O   0  0  0  0  0  0  0  0  0  0  0  0
  140.3680   72.5240  222.6020 C   0  0  0  0  0  0  0  0  0  0  0  0
  139.3890   73.5410  222.3660 N   0  0  0  0  0  0  0  0  0  0  0  0
  139.5920   74.4080  221.2150 C   0  0  0  0  0  0  0  0  0  0  0  0
  140.0920   75.7420  221.6290 C   0  0  0  0  0  0  0  0  0  0  0  0
  141.3530   75.9220  221.7420 O   0  0  0  0  0  0  0  0  0  0  0  0
  139.2430   76.8470  221.9140 N   0  0  0  0  0  0  0  0  0  0  0  0
  138.1350   76.4890  222.7750 C   0  0  0  0  0  0  0  0  0  0  0  0
  136.8030   76.9840  222.3420 C   0  0  0  0  0  0  0  0  0  0  0  0
  136.5870   78.4540  222.6250 C   0  0  0  0  0  0  0  0  0  0  0  0
  137.8390   79.2640  222.4670 C   0  0  0  0  0  0  0  0  0  0  0  0
  138.4500   78.9950  221.1310 C   0  0  0  0  0  0  0  0  0  0  0  0
  139.6590   78.0840  221.2960 C   0  0  1  0  0  0  0  0  0  0  0  0
  140.7060   78.8090  222.0720 C   0  0  0  0  0  0  0  0  0  0  0  0
  141.5200   79.7520  221.4840 C   0  0  0  0  0  0  0  0  0  0  0  0
  142.4930   80.4250  222.2100 C   0  0  0  0  0  0  0  0  0  0  0  0
  142.6860   80.1740  223.5520 C   0  0  0  0  0  0  0  0  0  0  0  0
  141.8720   79.2240  224.1620 C   0  0  0  0  0  0  0  0  0  0  0  0
  140.8990   78.5560  223.4260 C   0  0  0  0  0  0  0  0  0  0  0  0
  140.2120   71.6280  223.7410 C   0  0  0  0  0  0  0  0  0  0  0  0
  139.5780   70.4200  223.5220 C   0  0  0  0  0  0  0  0  0  0  0  0
  139.3880   69.5070  224.5490 C   0  0  0  0  0  0  0  0  0  0  0  0
  139.8670   69.8760  225.8030 C   0  0  0  0  0  0  0  0  0  0  0  0
  139.6680   68.9540  226.8150 C   0  0  0  0  0  0  0  0  0  0  0  0
  140.1450   69.3130  228.0780 C   0  0  0  0  0  0  0  0  0  0  0  0
  139.9630   68.4220  229.0970 F   0  0  0  0  0  0  0  0  0  0  0  0
  140.7740   70.5190  228.2790 C   0  0  0  0  0  0  0  0  0  0  0  0
  140.9610   71.4260  227.2510 C   0  0  0  0  0  0  0  0  0  0  0  0
  140.4970   71.0870  226.0020 C   0  0  0  0  0  0  0  0  0  0  0  0
  140.6510   71.9210  224.9780 N   0  0  0  0  0  0  0  0  0  0  0  0
  138.5730   73.6300  223.0120 H   0  0  0  0  0  0  0  0  0  0  0  0
  140.3264   73.9431  220.5408 H   0  0  0  0  0  0  0  0  0  0  0  0
  138.6265   74.5411  220.7049 H   0  0  0  0  0  0  0  0  0  0  0  0
  138.0878   75.3913  222.8279 H   0  0  0  0  0  0  0  0  0  0  0  0
  138.3365   76.9713  223.7429 H   0  0  0  0  0  0  0  0  0  0  0  0
  136.7052   76.8195  221.2588 H   0  0  0  0  0  0  0  0  0  0  0  0
  136.0476   76.4284  222.9170 H   0  0  0  0  0  0  0  0  0  0  0  0
  135.8285   78.8389  221.9275 H   0  0  0  0  0  0  0  0  0  0  0  0
  136.2615   78.5464  223.6717 H   0  0  0  0  0  0  0  0  0  0  0  0
  137.5948   80.3335  222.5483 H   0  0  0  0  0  0  0  0  0  0  0  0
  138.5535   78.9861  223.2559 H   0  0  0  0  0  0  0  0  0  0  0  0
  137.7091   78.5060  220.4814 H   0  0  0  0  0  0  0  0  0  0  0  0
  138.7679   79.9451  220.6768 H   0  0  0  0  0  0  0  0  0  0  0  0
  140.0991   77.8202  220.3230 H   0  0  0  0  0  0  0  0  0  0  0  0
  141.3961   79.9769  220.4144 H   0  0  0  0  0  0  0  0  0  0  0  0
  143.1221   81.1729  221.7051 H   0  0  0  0  0  0  0  0  0  0  0  0
  143.4596   80.7082  224.1230 H   0  0  0  0  0  0  0  0  0  0  0  0
  141.9988   79.0004  225.2315 H   0  0  0  0  0  0  0  0  0  0  0  0
  140.2662   77.8088  223.9274 H   0  0  0  0  0  0  0  0  0  0  0  0
  139.2163   70.1771  222.5120 H   0  0  0  0  0  0  0  0  0  0  0  0
  138.8856   68.5429  224.3815 H   0  0  0  0  0  0  0  0  0  0  0  0
  139.1631   67.9933  226.6355 H   0  0  0  0  0  0  0  0  0  0  0  0
  141.1390   70.7699  229.2859 H   0  0  0  0  0  0  0  0  0  0  0  0
  141.4649   72.3878  227.4274 H   0  0  0  0  0  0  0  0  0  0  0  0
  1  2  2  0
  2  3  1  0
  3  4  1  0
  4  5  1  0
  5  6  2  0
  5  7  1  0
  7  8  1  0
  8  9  1  0
  9 10  1  0
 10 11  1  0
 11 12  1  0
 12 13  1  0
 13 14  1  0
 14 15  2  0
 15 16  1  0
 16 17  2  0
 17 18  1  0
 18 19  2  0
  2 20  1  0
 20 21  2  0
 21 22  1  0
 22 23  2  0
 23 24  1  0
 24 25  2  0
 25 26  1  0
 25 27  1  0
 27 28  2  0
 28 29  1  0
 29 30  2  0
 13  7  1  0
 19 14  1  0
 30 20  1  0
 29 23  1  0
  3 31  1  0
  4 32  1  0
  4 33  1  0
  8 34  1  0
  8 35  1  0
  9 36  1  0
  9 37  1  0
 10 38  1  0
 10 39  1  0
 11 40  1  0
 11 41  1  0
 12 42  1  0
 12 43  1  0
 13 44  1  6
 15 45  1  0
 16 46  1  0
 17 47  1  0
 18 48  1  0
 19 49  1  0
 21 50  1  0
 22 51  1  0
 24 52  1  0
 27 53  1  0
 28 54  1  0
M  END
>  <smiles>  (77) 
O=C(NCC(=O)N1CCCCCC1c1ccccc1)c1ccc2cc(F)ccc2n1

>  <score_type>  (77) 
oracle

>  <origin>  (77) 
autodockgpu

>  <m_score__min__energy>  (77) 
-6.8700000000000001

>  <m_primary>  (77) 
energy

>  <rmsd>  (77) 
2.91321259709272

>  <m_score__min__rmsd>  (77) 
2.91321259709272

>  <meeko>  (77) 
{"free_energy": -6.53, "intermolecular_energy": -9.81, "internal_energy": -1.53, "cluster_size": 11, "cluster_id": 1, "rank_in_cluster": 5}

>  <energy>  (77) 
-5.14

>  <cluster_rmsd>  (77) 
1.44

>  <cluster>  (77) 
2

$$$$

     RDKit          3D

 54 57  0  0  0  0  0  0  0  0999 V2000
  139.2340   70.7150  221.5380 O   0  0  0  0  0  0  0  0  0  0  0  0
  139.4490   71.2420  222.6550 C   0  0  0  0  0  0  0  0  0  0  0  0
  139.5190   72.6710  222.6990 N   0  0  0  0  0  0  0  0  0  0  0  0
  139.3340   73.3870  221.4450 C   0  0  0  0  0  0  0  0  0  0  0  0
  140.6010   73.4670  220.6800 C   0  0  0  0  0  0  0  0  0  0  0  0
  141.0660   72.4040  220.1410 O   0  0  0  0  0  0  0  0  0  0  0  0
  141.3430   74.6680  220.5080 N   0  0  0  0  0  0  0  0  0  0  0  0
  141.0710   75.6420  221.5450 C   0  0  0  0  0  0  0  0  0  0  0  0
  141.5060   77.0300  221.2480 C   0  0  0  0  0  0  0  0  0  0  0  0
  140.8470   77.6170  220.0200 C   0  0  0  0  0  0  0  0  0  0  0  0
  140.9430   76.7160  218.8250 C   0  0  0  0  0  0  0  0  0  0  0  0
  142.2920   76.0800  218.7860 C   0  0  0  0  0  0  0  0  0  0  0  0
  142.2060   74.6680  219.3510 C   0  0  1  0  0  0  0  0  0  0  0  0
  143.5850   74.1810  219.6420 C   0  0  0  0  0  0  0  0  0  0  0  0
  144.2080   74.4450  220.8420 C   0  0  0  0  0  0  0  0  0  0  0  0
  145.4910   73.9900  221.1090 C   0  0  0  0  0  0  0  0  0  0  0  0
  146.1980   73.2560  220.1810 C   0  0  0  0  0  0  0  0  0  0  0  0
  145.5840   72.9800  218.9630 C   0  0  0  0  0  0  0  0  0  0  0  0
  144.2960   73.4390  218.7040 C   0  0  0  0  0  0  0  0  0  0  0  0
  139.6280   70.4770  223.8830 C   0  0  0  0  0  0  0  0  0  0  0  0
  139.1890   69.1670  223.8890 C   0  0  0  0  0  0  0  0  0  0  0  0
  139.3200   68.3660  225.0140 C   0  0  0  0  0  0  0  0  0  0  0  0
  139.9120   68.9530  226.1280 C   0  0  0  0  0  0  0  0  0  0  0  0
  140.0330   68.1410  227.2410 C   0  0  0  0  0  0  0  0  0  0  0  0
  140.6270   68.7200  228.3640 C   0  0  0  0  0  0  0  0  0  0  0  0
  140.7610   67.9400  229.4780 F   0  0  0  0  0  0  0  0  0  0  0  0
  141.0590   70.0250  228.3430 C   0  0  0  0  0  0  0  0  0  0  0  0
  140.9260   70.8200  227.2170 C   0  0  0  0  0  0  0  0  0  0  0  0
  140.3440   70.2640  226.1030 C   0  0  0  0  0  0  0  0  0  0  0  0
  140.1920   70.9820  224.9940 N   0  0  0  0  0  0  0  0  0  0  0  0
  139.6960   73.1500  223.6100 H   0  0  0  0  0  0  0  0  0  0  0  0
  138.5819   72.8605  220.8391 H   0  0  0  0  0  0  0  0  0  0  0  0
  139.0012   74.4100  221.6745 H   0  0  0  0  0  0  0  0  0  0  0  0
  139.9850   75.6572  221.7193 H   0  0  0  0  0  0  0  0  0  0  0  0
  141.6561   75.3228  222.4201 H   0  0  0  0  0  0  0  0  0  0  0  0
  141.2605   77.6646  222.1123 H   0  0  0  0  0  0  0  0  0  0  0  0
  142.5876   76.9957  221.0506 H   0  0  0  0  0  0  0  0  0  0  0  0
  139.7845   77.7951  220.2420 H   0  0  0  0  0  0  0  0  0  0  0  0
  141.3735   78.5512  219.7749 H   0  0  0  0  0  0  0  0  0  0  0  0
  140.1716   75.9348  218.8924 H   0  0  0  0  0  0  0  0  0  0  0  0
  140.7901   77.3057  217.9091 H   0  0  0  0  0  0  0  0  0  0  0  0
  142.6470   76.0374  217.7457 H   0  0  0  0  0  0  0  0  0  0  0  0
  142.9941   76.6737  219.3898 H   0  0  0  0  0  0  0  0  0  0  0  0
  141.7612   73.9715  218.6250 H   0  0  0  0  0  0  0  0  0  0  0  0
  143.6757   75.0302  221.6063 H   0  0  0  0  0  0  0  0  0  0  0  0
  145.9532   74.2195  222.0804 H   0  0  0  0  0  0  0  0  0  0  0  0
  147.2160   72.8994  220.3965 H   0  0  0  0  0  0  0  0  0  0  0  0
  146.1199   72.3956  218.2005 H   0  0  0  0  0  0  0  0  0  0  0  0
  143.8290   73.2098  217.7348 H   0  0  0  0  0  0  0  0  0  0  0  0
  138.7257   68.7503  222.9825 H   0  0  0  0  0  0  0  0  0  0  0  0
  138.9741   67.3218  225.0248 H   0  0  0  0  0  0  0  0  0  0  0  0
  139.6814   67.0987  227.2414 H   0  0  0  0  0  0  0  0  0  0  0  0
  141.5231   70.4493  229.2455 H   0  0  0  0  0  0  0  0  0  0  0  0
  141.2750   71.8632  227.2143 H   0  0  0  0  0  0  0  0  0  0  0  0
  1  2  2  0
  2  3  1  0
  3  4  1  0
  4  5  1  0
  5  6  2  0
  5  7  1  0
  7  8  1  0
  8  9  1  0
  9 10  1  0
 10 11  1  0
 11 12  1  0
 12 13  1  0
 13 14  1  0
 14 15  2  0
 15 16  1  0
 16 17  2  0
 17 18  1  0
 18 19  2  0
  2 20  1  0
 20 21  2  0
 21 22  1  0
 22 23  2  0
 23 24  1  0
 24 25  2  0
 25 26  1  0
 25 27  1  0
 27 28  2  0
 28 29  1  0
 29 30  2  0
 13  7  1  0
 19 14  1  0
 30 20  1  0
 29 23  1  0
  3 31  1  0
  4 32  1  0
  4 33  1  0
  8 34  1  0
  8 35  1  0
  9 36  1  0
  9 37  1  0
 10 38  1  0
 10 39  1  0
 11 40  1  0
 11 41  1  0
 12 42  1  0
 12 43  1  0
 13 44  1  6
 15 45  1  0
 16 46  1  0
 17 47  1  0
 18 48  1  0
 19 49  1  0
 21 50  1  0
 22 51  1  0
 24 52  1  0
 27 53  1  0
 28 54  1  0
M  END
>  <smiles>  (78) 
O=C(NCC(=O)N1CCCCCC1c1ccccc1)c1ccc2cc(F)ccc2n1

>  <score_type>  (78) 
oracle

>  <origin>  (78) 
autodockgpu

>  <m_score__min__energy>  (78) 
-6.8700000000000001

>  <m_primary>  (78) 
energy

>  <rmsd>  (78) 
2.324779581486006

>  <m_score__min__rmsd>  (78) 
2.324779581486006

>  <meeko>  (78) 
{"free_energy": -5.52, "intermolecular_energy": -8.8, "internal_energy": -1.74, "cluster_size": 16, "cluster_id": 2, "rank_in_cluster": 12}

>  <energy>  (78) 
-6.33

>  <cluster_rmsd>  (78) 
0.0

>  <cluster>  (78) 
3

$$$$

     RDKit          3D

 54 57  0  0  0  0  0  0  0  0999 V2000
  140.8120   72.0040  221.1560 O   0  0  0  0  0  0  0  0  0  0  0  0
  140.3400   72.3890  222.2530 C   0  0  0  0  0  0  0  0  0  0  0  0
  139.9320   73.7570  222.3420 N   0  0  0  0  0  0  0  0  0  0  0  0
  140.0980   74.5820  221.1550 C   0  0  0  0  0  0  0  0  0  0  0  0
  140.2170   76.0180  221.5100 C   0  0  0  0  0  0  0  0  0  0  0  0
  140.1340   76.3590  222.7390 O   0  0  0  0  0  0  0  0  0  0  0  0
  140.4190   77.0510  220.5540 N   0  0  0  0  0  0  0  0  0  0  0  0
  139.2430   77.2960  219.7440 C   0  0  0  0  0  0  0  0  0  0  0  0
  139.2750   76.7160  218.3780 C   0  0  0  0  0  0  0  0  0  0  0  0
  140.5250   77.0700  217.6040 C   0  0  0  0  0  0  0  0  0  0  0  0
  141.7820   76.6690  218.3180 C   0  0  0  0  0  0  0  0  0  0  0  0
  142.2520   77.8050  219.1650 C   0  0  0  0  0  0  0  0  0  0  0  0
  141.7380   77.6370  220.5890 C   0  0  1  0  0  0  0  0  0  0  0  0
  141.7790   78.9600  221.2750 C   0  0  0  0  0  0  0  0  0  0  0  0
  141.7650   80.1430  220.5700 C   0  0  0  0  0  0  0  0  0  0  0  0
  141.8030   81.3720  221.2130 C   0  0  0  0  0  0  0  0  0  0  0  0
  141.8580   81.4600  222.5880 C   0  0  0  0  0  0  0  0  0  0  0  0
  141.8720   80.2730  223.3170 C   0  0  0  0  0  0  0  0  0  0  0  0
  141.8330   79.0460  222.6630 C   0  0  0  0  0  0  0  0  0  0  0  0
  140.1960   71.5190  223.4140 C   0  0  0  0  0  0  0  0  0  0  0  0
  139.6080   70.2840  223.2180 C   0  0  0  0  0  0  0  0  0  0  0  0
  139.4320   69.3930  224.2660 C   0  0  0  0  0  0  0  0  0  0  0  0
  139.8750   69.8120  225.5170 C   0  0  0  0  0  0  0  0  0  0  0  0
  139.6900   68.9120  226.5510 C   0  0  0  0  0  0  0  0  0  0  0  0
  140.1310   69.3210  227.8110 C   0  0  0  0  0  0  0  0  0  0  0  0
  139.9620   68.4520  228.8510 F   0  0  0  0  0  0  0  0  0  0  0  0
  140.7130   70.5540  227.9900 C   0  0  0  0  0  0  0  0  0  0  0  0
  140.8870   71.4390  226.9400 C   0  0  0  0  0  0  0  0  0  0  0  0
  140.4590   71.0500  225.6930 C   0  0  0  0  0  0  0  0  0  0  0  0
  140.6010   71.8600  224.6490 N   0  0  0  0  0  0  0  0  0  0  0  0
  139.5340   74.1180  223.2380 H   0  0  0  0  0  0  0  0  0  0  0  0
  141.0086   74.2673  220.6241 H   0  0  0  0  0  0  0  0  0  0  0  0
  139.2118   74.4541  220.5160 H   0  0  0  0  0  0  0  0  0  0  0  0
  138.3747   76.8738  220.2710 H   0  0  0  0  0  0  0  0  0  0  0  0
  139.1923   78.3863  219.6077 H   0  0  0  0  0  0  0  0  0  0  0  0
  139.2159   75.6209  218.4628 H   0  0  0  0  0  0  0  0  0  0  0  0
  138.4215   77.1372  217.8265 H   0  0  0  0  0  0  0  0  0  0  0  0
  140.4938   76.5568  216.6316 H   0  0  0  0  0  0  0  0  0  0  0  0
  140.5443   78.1636  217.4868 H   0  0  0  0  0  0  0  0  0  0  0  0
  141.5801   75.7949  218.9546 H   0  0  0  0  0  0  0  0  0  0  0  0
  142.5581   76.4124  217.5819 H   0  0  0  0  0  0  0  0  0  0  0  0
  143.3518   77.8227  219.1739 H   0  0  0  0  0  0  0  0  0  0  0  0
  141.8683   78.7489  218.7504 H   0  0  0  0  0  0  0  0  0  0  0  0
  142.3741   76.9509  221.1675 H   0  0  0  0  0  0  0  0  0  0  0  0
  141.7227   80.1129  219.4712 H   0  0  0  0  0  0  0  0  0  0  0  0
  141.7890   82.2945  220.6139 H   0  0  0  0  0  0  0  0  0  0  0  0
  141.8898   82.4366  223.0932 H   0  0  0  0  0  0  0  0  0  0  0  0
  141.9141   80.3062  224.4157 H   0  0  0  0  0  0  0  0  0  0  0  0
  141.8451   78.1207  223.2576 H   0  0  0  0  0  0  0  0  0  0  0  0
  139.2724   70.0016  222.2092 H   0  0  0  0  0  0  0  0  0  0  0  0
  138.9670   68.4074  224.1164 H   0  0  0  0  0  0  0  0  0  0  0  0
  139.2220   67.9297  226.3897 H   0  0  0  0  0  0  0  0  0  0  0  0
  141.0497   70.8452  228.9959 H   0  0  0  0  0  0  0  0  0  0  0  0
  141.3531   72.4227  227.0985 H   0  0  0  0  0  0  0  0  0  0  0  0
  1  2  2  0
  2  3  1  0
  3  4  1  0
  4  5  1  0
  5  6  2  0
  5  7  1  0
  7  8  1  0
  8  9  1  0
  9 10  1  0
 10 11  1  0
 11 12  1  0
 12 13  1  0
 13 14  1  0
 14 15  2  0
 15 16  1  0
 16 17  2  0
 17 18  1  0
 18 19  2  0
  2 20  1  0
 20 21  2  0
 21 22  1  0
 22 23  2  0
 23 24  1  0
 24 25  2  0
 25 26  1  0
 25 27  1  0
 27 28  2  0
 28 29  1  0
 29 30  2  0
 13  7  1  0
 19 14  1  0
 30 20  1  0
 29 23  1  0
  3 31  1  0
  4 32  1  0
  4 33  1  0
  8 34  1  0
  8 35  1  0
  9 36  1  0
  9 37  1  0
 10 38  1  0
 10 39  1  0
 11 40  1  0
 11 41  1  0
 12 42  1  0
 12 43  1  0
 13 44  1  1
 15 45  1  0
 16 46  1  0
 17 47  1  0
 18 48  1  0
 19 49  1  0
 21 50  1  0
 22 51  1  0
 24 52  1  0
 27 53  1  0
 28 54  1  0
M  END
>  <smiles>  (79) 
O=C(NCC(=O)N1CCCCCC1c1ccccc1)c1ccc2cc(F)ccc2n1

>  <score_type>  (79) 
oracle

>  <origin>  (79) 
autodockgpu

>  <m_score__min__energy>  (79) 
-6.8700000000000001

>  <m_primary>  (79) 
energy

>  <rmsd>  (79) 
1.7687051786111028

>  <m_score__min__rmsd>  (79) 
1.7687051786111028

>  <meeko>  (79) 
{"free_energy": -6.24, "intermolecular_energy": -9.52, "internal_energy": -1.94, "cluster_size": 11, "cluster_id": 1, "rank_in_cluster": 9}

>  <energy>  (79) 
-6.27

>  <cluster_rmsd>  (79) 
0.64

>  <cluster>  (79) 
3

$$$$

     RDKit          3D

 54 57  0  0  0  0  0  0  0  0999 V2000
  139.6980   71.5960  221.0120 O   0  0  0  0  0  0  0  0  0  0  0  0
  139.8100   72.1410  222.1360 C   0  0  0  0  0  0  0  0  0  0  0  0
  139.8800   73.5700  222.1640 N   0  0  0  0  0  0  0  0  0  0  0  0
  139.8150   74.2660  220.8870 C   0  0  0  0  0  0  0  0  0  0  0  0
  140.9150   73.8430  219.9870 C   0  0  0  0  0  0  0  0  0  0  0  0
  140.6630   73.6610  218.7470 O   0  0  0  0  0  0  0  0  0  0  0  0
  142.2490   73.6210  220.4260 N   0  0  0  0  0  0  0  0  0  0  0  0
  142.5550   72.2140  220.5870 C   0  0  0  0  0  0  0  0  0  0  0  0
  143.6560   71.6970  219.7350 C   0  0  0  0  0  0  0  0  0  0  0  0
  145.0240   72.1800  220.1630 C   0  0  0  0  0  0  0  0  0  0  0  0
  144.9600   73.3800  221.0610 C   0  0  0  0  0  0  0  0  0  0  0  0
  144.4770   74.5560  220.2790 C   0  0  0  0  0  0  0  0  0  0  0  0
  143.0160   74.8300  220.6140 C   0  0  1  0  0  0  0  0  0  0  0  0
  142.5370   75.9690  219.7810 C   0  0  0  0  0  0  0  0  0  0  0  0
  142.8360   76.0620  218.4400 C   0  0  0  0  0  0  0  0  0  0  0  0
  142.3870   77.1260  217.6680 C   0  0  0  0  0  0  0  0  0  0  0  0
  141.6240   78.1350  218.2150 C   0  0  0  0  0  0  0  0  0  0  0  0
  141.3130   78.0570  219.5700 C   0  0  0  0  0  0  0  0  0  0  0  0
  141.7660   76.9860  220.3350 C   0  0  0  0  0  0  0  0  0  0  0  0
  139.8710   71.3950  223.3870 C   0  0  0  0  0  0  0  0  0  0  0  0
  139.3520   70.1140  223.3930 C   0  0  0  0  0  0  0  0  0  0  0  0
  139.3690   69.3340  224.5400 C   0  0  0  0  0  0  0  0  0  0  0  0
  139.9330   69.9100  225.6740 C   0  0  0  0  0  0  0  0  0  0  0  0
  139.9410   69.1170  226.8080 C   0  0  0  0  0  0  0  0  0  0  0  0
  140.5050   69.6850  227.9520 C   0  0  0  0  0  0  0  0  0  0  0  0
  140.5270   68.9250  229.0870 F   0  0  0  0  0  0  0  0  0  0  0  0
  141.0180   70.9600  227.9300 C   0  0  0  0  0  0  0  0  0  0  0  0
  140.9980   71.7350  226.7830 C   0  0  0  0  0  0  0  0  0  0  0  0
  140.4460   71.1910  225.6480 C   0  0  0  0  0  0  0  0  0  0  0  0
  140.4020   71.8900  224.5190 N   0  0  0  0  0  0  0  0  0  0  0  0
  139.9740   74.0630  223.0800 H   0  0  0  0  0  0  0  0  0  0  0  0
  138.8517   74.0422  220.4054 H   0  0  0  0  0  0  0  0  0  0  0  0
  139.9147   75.3454  221.0741 H   0  0  0  0  0  0  0  0  0  0  0  0
  142.8324   72.0457  221.6381 H   0  0  0  0  0  0  0  0  0  0  0  0
  141.6510   71.6709  220.2743 H   0  0  0  0  0  0  0  0  0  0  0  0
  143.6446   70.5980  219.7794 H   0  0  0  0  0  0  0  0  0  0  0  0
  143.4826   72.0737  218.7162 H   0  0  0  0  0  0  0  0  0  0  0  0
  145.5326   71.3656  220.6997 H   0  0  0  0  0  0  0  0  0  0  0  0
  145.5715   72.4734  219.2552 H   0  0  0  0  0  0  0  0  0  0  0  0
  144.2666   73.1810  221.8914 H   0  0  0  0  0  0  0  0  0  0  0  0
  145.9610   73.5919  221.4648 H   0  0  0  0  0  0  0  0  0  0  0  0
  145.0824   75.4383  220.5340 H   0  0  0  0  0  0  0  0  0  0  0  0
  144.5705   74.3422  219.2041 H   0  0  0  0  0  0  0  0  0  0  0  0
  142.8929   75.1228  221.6672 H   0  0  0  0  0  0  0  0  0  0  0  0
  143.4444   75.2757  217.9693 H   0  0  0  0  0  0  0  0  0  0  0  0
  142.6454   77.1640  216.5995 H   0  0  0  0  0  0  0  0  0  0  0  0
  141.2715   78.9761  217.6000 H   0  0  0  0  0  0  0  0  0  0  0  0
  140.7061   78.8459  220.0384 H   0  0  0  0  0  0  0  0  0  0  0  0
  141.5082   76.9427  221.4035 H   0  0  0  0  0  0  0  0  0  0  0  0
  138.9166   69.7047  222.4695 H   0  0  0  0  0  0  0  0  0  0  0  0
  138.9582   68.3137  224.5523 H   0  0  0  0  0  0  0  0  0  0  0  0
  139.5269   68.0979  226.8081 H   0  0  0  0  0  0  0  0  0  0  0  0
  141.4565   71.3760  228.8490 H   0  0  0  0  0  0  0  0  0  0  0  0
  141.4111   72.7545  226.7802 H   0  0  0  0  0  0  0  0  0  0  0  0
  1  2  2  0
  2  3  1  0
  3  4  1  0
  4  5  1  0
  5  6  2  0
  5  7  1  0
  7  8  1  0
  8  9  1  0
  9 10  1  0
 10 11  1  0
 11 12  1  0
 12 13  1  0
 13 14  1  0
 14 15  2  0
 15 16  1  0
 16 17  2  0
 17 18  1  0
 18 19  2  0
  2 20  1  0
 20 21  2  0
 21 22  1  0
 22 23  2  0
 23 24  1  0
 24 25  2  0
 25 26  1  0
 25 27  1  0
 27 28  2  0
 28 29  1  0
 29 30  2  0
 13  7  1  0
 19 14  1  0
 30 20  1  0
 29 23  1  0
  3 31  1  0
  4 32  1  0
  4 33  1  0
  8 34  1  0
  8 35  1  0
  9 36  1  0
  9 37  1  0
 10 38  1  0
 10 39  1  0
 11 40  1  0
 11 41  1  0
 12 42  1  0
 12 43  1  0
 13 44  1  1
 15 45  1  0
 16 46  1  0
 17 47  1  0
 18 48  1  0
 19 49  1  0
 21 50  1  0
 22 51  1  0
 24 52  1  0
 27 53  1  0
 28 54  1  0
M  END
>  <smiles>  (80) 
O=C(NCC(=O)N1CCCCCC1c1ccccc1)c1ccc2cc(F)ccc2n1

>  <score_type>  (80) 
oracle

>  <origin>  (80) 
autodockgpu

>  <m_score__min__energy>  (80) 
-6.8700000000000001

>  <m_primary>  (80) 
energy

>  <rmsd>  (80) 
3.010462918600694

>  <m_score__min__rmsd>  (80) 
3.010462918600694

>  <meeko>  (80) 
{"free_energy": -5.55, "intermolecular_energy": -8.84, "internal_energy": -1.94, "cluster_size": 16, "cluster_id": 3, "rank_in_cluster": 9}

>  <energy>  (80) 
-6.04

>  <cluster_rmsd>  (80) 
0.72

>  <cluster>  (80) 
3

$$$$

     RDKit          3D

 54 57  0  0  0  0  0  0  0  0999 V2000
  141.2980   71.8150  221.4980 O   0  0  0  0  0  0  0  0  0  0  0  0
  140.4210   72.1680  222.3220 C   0  0  0  0  0  0  0  0  0  0  0  0
  139.6470   73.3260  221.9950 N   0  0  0  0  0  0  0  0  0  0  0  0
  139.9450   73.9940  220.7360 C   0  0  0  0  0  0  0  0  0  0  0  0
  140.9210   75.0940  220.9290 C   0  0  0  0  0  0  0  0  0  0  0  0
  142.1700   74.8350  220.8360 O   0  0  0  0  0  0  0  0  0  0  0  0
  140.5480   76.4360  221.2150 N   0  0  0  0  0  0  0  0  0  0  0  0
  139.2160   76.5350  221.7770 C   0  0  0  0  0  0  0  0  0  0  0  0
  138.2760   77.4150  221.0400 C   0  0  0  0  0  0  0  0  0  0  0  0
  138.9670   78.3940  220.1170 C   0  0  0  0  0  0  0  0  0  0  0  0
  139.8760   77.7200  219.1330 C   0  0  0  0  0  0  0  0  0  0  0  0
  141.2910   77.9840  219.5090 C   0  0  0  0  0  0  0  0  0  0  0  0
  141.5630   77.4110  220.8950 C   0  0  1  0  0  0  0  0  0  0  0  0
  141.6360   78.5330  221.8740 C   0  0  0  0  0  0  0  0  0  0  0  0
  141.5360   78.3170  223.2310 C   0  0  0  0  0  0  0  0  0  0  0  0
  141.6030   79.3650  224.1390 C   0  0  0  0  0  0  0  0  0  0  0  0
  141.7720   80.6670  223.7190 C   0  0  0  0  0  0  0  0  0  0  0  0
  141.8740   80.9030  222.3500 C   0  0  0  0  0  0  0  0  0  0  0  0
  141.8070   79.8460  221.4480 C   0  0  0  0  0  0  0  0  0  0  0  0
  140.1640   71.4620  223.5720 C   0  0  0  0  0  0  0  0  0  0  0  0
  139.3190   70.3690  223.5260 C   0  0  0  0  0  0  0  0  0  0  0  0
  139.0200   69.6400  224.6670 C   0  0  0  0  0  0  0  0  0  0  0  0
  139.6130   70.0680  225.8510 C   0  0  0  0  0  0  0  0  0  0  0  0
  139.3030   69.3300  226.9790 C   0  0  0  0  0  0  0  0  0  0  0  0
  139.8930   69.7500  228.1720 C   0  0  0  0  0  0  0  0  0  0  0  0
  139.6050   69.0390  229.3020 F   0  0  0  0  0  0  0  0  0  0  0  0
  140.7310   70.8390  228.2010 C   0  0  0  0  0  0  0  0  0  0  0  0
  141.0270   71.5640  227.0590 C   0  0  0  0  0  0  0  0  0  0  0  0
  140.4540   71.1620  225.8760 C   0  0  0  0  0  0  0  0  0  0  0  0
  140.7030   71.8220  224.7490 N   0  0  0  0  0  0  0  0  0  0  0  0
  138.9070   73.6540  222.6550 H   0  0  0  0  0  0  0  0  0  0  0  0
  140.3655   73.2609  220.0319 H   0  0  0  0  0  0  0  0  0  0  0  0
  139.0123   74.4221  220.3401 H   0  0  0  0  0  0  0  0  0  0  0  0
  138.7834   75.5240  221.8039 H   0  0  0  0  0  0  0  0  0  0  0  0
  139.3403   76.9905  222.7705 H   0  0  0  0  0  0  0  0  0  0  0  0
  137.6055   76.7831  220.4390 H   0  0  0  0  0  0  0  0  0  0  0  0
  137.7296   78.0062  221.7897 H   0  0  0  0  0  0  0  0  0  0  0  0
  138.2007   78.9544  219.5614 H   0  0  0  0  0  0  0  0  0  0  0  0
  139.5853   79.0574  220.7396 H   0  0  0  0  0  0  0  0  0  0  0  0
  139.6893   76.6360  219.1432 H   0  0  0  0  0  0  0  0  0  0  0  0
  139.6835   78.1139  218.1242 H   0  0  0  0  0  0  0  0  0  0  0  0
  141.9600   77.5075  218.7773 H   0  0  0  0  0  0  0  0  0  0  0  0
  141.4719   79.0690  219.5185 H   0  0  0  0  0  0  0  0  0  0  0  0
  142.5288   76.8856  220.9309 H   0  0  0  0  0  0  0  0  0  0  0  0
  141.4000   77.2909  223.6034 H   0  0  0  0  0  0  0  0  0  0  0  0
  141.5196   79.1522  225.2150 H   0  0  0  0  0  0  0  0  0  0  0  0
  141.8247   81.4939  224.4425 H   0  0  0  0  0  0  0  0  0  0  0  0
  142.0082   81.9303  221.9803 H   0  0  0  0  0  0  0  0  0  0  0  0
  141.8914   80.0538  220.3711 H   0  0  0  0  0  0  0  0  0  0  0  0
  138.8747   70.0715  222.5647 H   0  0  0  0  0  0  0  0  0  0  0  0
  138.3491   68.7688  224.6378 H   0  0  0  0  0  0  0  0  0  0  0  0
  138.6295   68.4612  226.9381 H   0  0  0  0  0  0  0  0  0  0  0  0
  141.1792   71.1432  229.1584 H   0  0  0  0  0  0  0  0  0  0  0  0
  141.6992   72.4339  227.0973 H   0  0  0  0  0  0  0  0  0  0  0  0
  1  2  2  0
  2  3  1  0
  3  4  1  0
  4  5  1  0
  5  6  2  0
  5  7  1  0
  7  8  1  0
  8  9  1  0
  9 10  1  0
 10 11  1  0
 11 12  1  0
 12 13  1  0
 13 14  1  0
 14 15  2  0
 15 16  1  0
 16 17  2  0
 17 18  1  0
 18 19  2  0
  2 20  1  0
 20 21  2  0
 21 22  1  0
 22 23  2  0
 23 24  1  0
 24 25  2  0
 25 26  1  0
 25 27  1  0
 27 28  2  0
 28 29  1  0
 29 30  2  0
 13  7  1  0
 19 14  1  0
 30 20  1  0
 29 23  1  0
  3 31  1  0
  4 32  1  0
  4 33  1  0
  8 34  1  0
  8 35  1  0
  9 36  1  0
  9 37  1  0
 10 38  1  0
 10 39  1  0
 11 40  1  0
 11 41  1  0
 12 42  1  0
 12 43  1  0
 13 44  1  6
 15 45  1  0
 16 46  1  0
 17 47  1  0
 18 48  1  0
 19 49  1  0
 21 50  1  0
 22 51  1  0
 24 52  1  0
 27 53  1  0
 28 54  1  0
M  END
>  <smiles>  (81) 
O=C(NCC(=O)N1CCCCCC1c1ccccc1)c1ccc2cc(F)ccc2n1

>  <score_type>  (81) 
oracle

>  <origin>  (81) 
autodockgpu

>  <m_score__min__energy>  (81) 
-6.8700000000000001

>  <m_primary>  (81) 
energy

>  <rmsd>  (81) 
2.202589422049763

>  <m_score__min__rmsd>  (81) 
2.202589422049763

>  <meeko>  (81) 
{"free_energy": -6.38, "intermolecular_energy": -9.66, "internal_energy": -1.56, "cluster_size": 11, "cluster_id": 1, "rank_in_cluster": 7}

>  <energy>  (81) 
-6.01

>  <cluster_rmsd>  (81) 
1.4

>  <cluster>  (81) 
3

$$$$

     RDKit          3D

 54 57  0  0  0  0  0  0  0  0999 V2000
  141.1820   73.3720  221.4900 O   0  0  0  0  0  0  0  0  0  0  0  0
  140.1670   73.3250  222.2260 C   0  0  0  0  0  0  0  0  0  0  0  0
  139.2460   74.4160  222.1340 N   0  0  0  0  0  0  0  0  0  0  0  0
  139.5650   75.4830  221.1970 C   0  0  0  0  0  0  0  0  0  0  0  0
  140.5060   76.4610  221.7960 C   0  0  0  0  0  0  0  0  0  0  0  0
  140.4920   76.6370  223.0620 O   0  0  0  0  0  0  0  0  0  0  0  0
  141.4330   77.2270  221.0370 N   0  0  0  0  0  0  0  0  0  0  0  0
  142.1180   76.4370  220.0350 C   0  0  0  0  0  0  0  0  0  0  0  0
  141.6510   76.6320  218.6380 C   0  0  0  0  0  0  0  0  0  0  0  0
  141.7190   78.0710  218.1780 C   0  0  0  0  0  0  0  0  0  0  0  0
  140.9220   78.9960  219.0500 C   0  0  0  0  0  0  0  0  0  0  0  0
  141.7770   79.4650  220.1800 C   0  0  0  0  0  0  0  0  0  0  0  0
  141.4980   78.6190  221.4160 C   0  0  1  0  0  0  0  0  0  0  0  0
  140.2500   79.1130  222.0660 C   0  0  0  0  0  0  0  0  0  0  0  0
  139.0370   79.0920  221.4140 C   0  0  0  0  0  0  0  0  0  0  0  0
  137.8780   79.5530  222.0230 C   0  0  0  0  0  0  0  0  0  0  0  0
  137.8940   80.0530  223.3080 C   0  0  0  0  0  0  0  0  0  0  0  0
  139.1130   80.0820  223.9810 C   0  0  0  0  0  0  0  0  0  0  0  0
  140.2690   79.6170  223.3620 C   0  0  0  0  0  0  0  0  0  0  0  0
  139.8950   72.2310  223.1500 C   0  0  0  0  0  0  0  0  0  0  0  0
  138.7380   71.5020  222.9530 C   0  0  0  0  0  0  0  0  0  0  0  0
  138.4010   70.4440  223.7850 C   0  0  0  0  0  0  0  0  0  0  0  0
  139.2870   70.1610  224.8190 C   0  0  0  0  0  0  0  0  0  0  0  0
  138.9350   69.1030  225.6380 C   0  0  0  0  0  0  0  0  0  0  0  0
  139.8180   68.8100  226.6800 C   0  0  0  0  0  0  0  0  0  0  0  0
  139.4960   67.7700  227.5050 F   0  0  0  0  0  0  0  0  0  0  0  0
  140.9660   69.5450  226.8620 C   0  0  0  0  0  0  0  0  0  0  0  0
  141.2970   70.6000  226.0300 C   0  0  0  0  0  0  0  0  0  0  0  0
  140.4390   70.9010  224.9990 C   0  0  0  0  0  0  0  0  0  0  0  0
  140.7080   71.9040  224.1690 N   0  0  0  0  0  0  0  0  0  0  0  0
  138.3880   74.4160  222.7300 H   0  0  0  0  0  0  0  0  0  0  0  0
  140.0258   75.0457  220.2990 H   0  0  0  0  0  0  0  0  0  0  0  0
  138.6341   76.0091  220.9390 H   0  0  0  0  0  0  0  0  0  0  0  0
  143.1870   76.6932  220.0739 H   0  0  0  0  0  0  0  0  0  0  0  0
  141.9048   75.3863  220.2810 H   0  0  0  0  0  0  0  0  0  0  0  0
  142.2796   76.0228  217.9719 H   0  0  0  0  0  0  0  0  0  0  0  0
  140.5940   76.3294  218.6034 H   0  0  0  0  0  0  0  0  0  0  0  0
  142.7702   78.3949  218.1897 H   0  0  0  0  0  0  0  0  0  0  0  0
  141.2904   78.1169  217.1660 H   0  0  0  0  0  0  0  0  0  0  0  0
  140.5868   79.8610  218.4589 H   0  0  0  0  0  0  0  0  0  0  0  0
  140.0445   78.4646  219.4469 H   0  0  0  0  0  0  0  0  0  0  0  0
  142.8369   79.3687  219.9018 H   0  0  0  0  0  0  0  0  0  0  0  0
  141.5485   80.5185  220.3987 H   0  0  0  0  0  0  0  0  0  0  0  0
  142.3077   78.7087  222.1551 H   0  0  0  0  0  0  0  0  0  0  0  0
  138.9855   78.7009  220.3871 H   0  0  0  0  0  0  0  0  0  0  0  0
  136.9280   79.5188  221.4696 H   0  0  0  0  0  0  0  0  0  0  0  0
  136.9730   80.4175  223.7864 H   0  0  0  0  0  0  0  0  0  0  0  0
  139.1621   80.4746  225.0074 H   0  0  0  0  0  0  0  0  0  0  0  0
  141.2215   79.6488  223.9113 H   0  0  0  0  0  0  0  0  0  0  0  0
  138.0704   71.7658  222.1195 H   0  0  0  0  0  0  0  0  0  0  0  0
  137.4812   69.8597  223.6347 H   0  0  0  0  0  0  0  0  0  0  0  0
  138.0126   68.5255  225.4778 H   0  0  0  0  0  0  0  0  0  0  0  0
  141.6400   69.2870  227.6922 H   0  0  0  0  0  0  0  0  0  0  0  0
  142.2182   71.1799  226.1887 H   0  0  0  0  0  0  0  0  0  0  0  0
  1  2  2  0
  2  3  1  0
  3  4  1  0
  4  5  1  0
  5  6  2  0
  5  7  1  0
  7  8  1  0
  8  9  1  0
  9 10  1  0
 10 11  1  0
 11 12  1  0
 12 13  1  0
 13 14  1  0
 14 15  2  0
 15 16  1  0
 16 17  2  0
 17 18  1  0
 18 19  2  0
  2 20  1  0
 20 21  2  0
 21 22  1  0
 22 23  2  0
 23 24  1  0
 24 25  2  0
 25 26  1  0
 25 27  1  0
 27 28  2  0
 28 29  1  0
 29 30  2  0
 13  7  1  0
 19 14  1  0
 30 20  1  0
 29 23  1  0
  3 31  1  0
  4 32  1  0
  4 33  1  0
  8 34  1  0
  8 35  1  0
  9 36  1  0
  9 37  1  0
 10 38  1  0
 10 39  1  0
 11 40  1  0
 11 41  1  0
 12 42  1  0
 12 43  1  0
 13 44  1  1
 15 45  1  0
 16 46  1  0
 17 47  1  0
 18 48  1  0
 19 49  1  0
 21 50  1  0
 22 51  1  0
 24 52  1  0
 27 53  1  0
 28 54  1  0
M  END
>  <smiles>  (82) 
O=C(NCC(=O)N1CCCCCC1c1ccccc1)c1ccc2cc(F)ccc2n1

>  <score_type>  (82) 
oracle

>  <origin>  (82) 
autodockgpu

>  <m_score__min__energy>  (82) 
-6.8700000000000001

>  <m_primary>  (82) 
energy

>  <rmsd>  (82) 
2.530531225697747

>  <m_score__min__rmsd>  (82) 
2.530531225697747

>  <meeko>  (82) 
{"free_energy": -5.58, "intermolecular_energy": -8.86, "internal_energy": -1.4, "cluster_size": 11, "cluster_id": 1, "rank_in_cluster": 11}

>  <energy>  (82) 
-5.97

>  <cluster_rmsd>  (82) 
0.73

>  <cluster>  (82) 
3

$$$$

     RDKit          3D

 54 57  0  0  0  0  0  0  0  0999 V2000
  140.1160   71.7610  221.1100 O   0  0  0  0  0  0  0  0  0  0  0  0
  139.9290   72.2390  222.2540 C   0  0  0  0  0  0  0  0  0  0  0  0
  139.6580   73.6420  222.3370 N   0  0  0  0  0  0  0  0  0  0  0  0
  139.6230   74.3900  221.0890 C   0  0  0  0  0  0  0  0  0  0  0  0
  139.7470   75.8480  221.3330 C   0  0  0  0  0  0  0  0  0  0  0  0
  139.2710   76.3360  222.4150 O   0  0  0  0  0  0  0  0  0  0  0  0
  140.3680   76.7490  220.4250 N   0  0  0  0  0  0  0  0  0  0  0  0
  139.5240   77.0640  219.2900 C   0  0  0  0  0  0  0  0  0  0  0  0
  139.9260   76.4430  218.0030 C   0  0  0  0  0  0  0  0  0  0  0  0
  141.3210   76.8240  217.5610 C   0  0  0  0  0  0  0  0  0  0  0  0
  142.3700   76.4400  218.5610 C   0  0  0  0  0  0  0  0  0  0  0  0
  142.4980   77.5250  219.5750 C   0  0  0  0  0  0  0  0  0  0  0  0
  141.6950   77.1600  220.8170 C   0  0  1  0  0  0  0  0  0  0  0  0
  141.7010   78.3210  221.7530 C   0  0  0  0  0  0  0  0  0  0  0  0
  141.8870   79.6100  221.3060 C   0  0  0  0  0  0  0  0  0  0  0  0
  141.8920   80.6880  222.1810 C   0  0  0  0  0  0  0  0  0  0  0  0
  141.7130   80.5110  223.5360 C   0  0  0  0  0  0  0  0  0  0  0  0
  141.5250   79.2130  224.0050 C   0  0  0  0  0  0  0  0  0  0  0  0
  141.5200   78.1390  223.1200 C   0  0  0  0  0  0  0  0  0  0  0  0
  139.9750   71.4430  223.4740 C   0  0  0  0  0  0  0  0  0  0  0  0
  139.4950   70.1490  223.4110 C   0  0  0  0  0  0  0  0  0  0  0  0
  139.5010   69.3220  224.5250 C   0  0  0  0  0  0  0  0  0  0  0  0
  140.0120   69.8650  225.6990 C   0  0  0  0  0  0  0  0  0  0  0  0
  140.0100   69.0270  226.7990 C   0  0  0  0  0  0  0  0  0  0  0  0
  140.5210   69.5610  227.9830 C   0  0  0  0  0  0  0  0  0  0  0  0
  140.5320   68.7550  229.0860 F   0  0  0  0  0  0  0  0  0  0  0  0
  140.9950   70.8510  228.0290 C   0  0  0  0  0  0  0  0  0  0  0  0
  140.9870   71.6730  226.9160 C   0  0  0  0  0  0  0  0  0  0  0  0
  140.4870   71.1610  225.7420 C   0  0  0  0  0  0  0  0  0  0  0  0
  140.4550   71.9050  224.6410 N   0  0  0  0  0  0  0  0  0  0  0  0
  139.4960   74.0800  223.2710 H   0  0  0  0  0  0  0  0  0  0  0  0
  140.4560   74.0611  220.4502 H   0  0  0  0  0  0  0  0  0  0  0  0
  138.6578   74.2004  220.5966 H   0  0  0  0  0  0  0  0  0  0  0  0
  138.5027   76.7288  219.5237 H   0  0  0  0  0  0  0  0  0  0  0  0
  139.6109   78.1504  219.1413 H   0  0  0  0  0  0  0  0  0  0  0  0
  139.8824   75.3496  218.1150 H   0  0  0  0  0  0  0  0  0  0  0  0
  139.2305   76.8108  217.2343 H   0  0  0  0  0  0  0  0  0  0  0  0
  141.5395   76.3170  216.6096 H   0  0  0  0  0  0  0  0  0  0  0  0
  141.3484   77.9185  217.4544 H   0  0  0  0  0  0  0  0  0  0  0  0
  142.0790   75.5032  219.0587 H   0  0  0  0  0  0  0  0  0  0  0  0
  143.3333   76.2948  218.0502 H   0  0  0  0  0  0  0  0  0  0  0  0
  143.5566   77.6492  219.8468 H   0  0  0  0  0  0  0  0  0  0  0  0
  142.1134   78.4658  219.1543 H   0  0  0  0  0  0  0  0  0  0  0  0
  142.1453   76.3094  221.3497 H   0  0  0  0  0  0  0  0  0  0  0  0
  142.0350   79.7898  220.2309 H   0  0  0  0  0  0  0  0  0  0  0  0
  142.0418   81.7033  221.7850 H   0  0  0  0  0  0  0  0  0  0  0  0
  141.7184   81.3680  224.2256 H   0  0  0  0  0  0  0  0  0  0  0  0
  141.3797   79.0359  225.0809 H   0  0  0  0  0  0  0  0  0  0  0  0
  141.3693   77.1219  223.5109 H   0  0  0  0  0  0  0  0  0  0  0  0
  139.1000   69.7666  222.4582 H   0  0  0  0  0  0  0  0  0  0  0  0
  139.1214   68.2905  224.4819 H   0  0  0  0  0  0  0  0  0  0  0  0
  139.6271   67.9972  226.7440 H   0  0  0  0  0  0  0  0  0  0  0  0
  141.3920   71.2407  228.9780 H   0  0  0  0  0  0  0  0  0  0  0  0
  141.3685   72.7034  226.9687 H   0  0  0  0  0  0  0  0  0  0  0  0
  1  2  2  0
  2  3  1  0
  3  4  1  0
  4  5  1  0
  5  6  2  0
  5  7  1  0
  7  8  1  0
  8  9  1  0
  9 10  1  0
 10 11  1  0
 11 12  1  0
 12 13  1  0
 13 14  1  0
 14 15  2  0
 15 16  1  0
 16 17  2  0
 17 18  1  0
 18 19  2  0
  2 20  1  0
 20 21  2  0
 21 22  1  0
 22 23  2  0
 23 24  1  0
 24 25  2  0
 25 26  1  0
 25 27  1  0
 27 28  2  0
 28 29  1  0
 29 30  2  0
 13  7  1  0
 19 14  1  0
 30 20  1  0
 29 23  1  0
  3 31  1  0
  4 32  1  0
  4 33  1  0
  8 34  1  0
  8 35  1  0
  9 36  1  0
  9 37  1  0
 10 38  1  0
 10 39  1  0
 11 40  1  0
 11 41  1  0
 12 42  1  0
 12 43  1  0
 13 44  1  1
 15 45  1  0
 16 46  1  0
 17 47  1  0
 18 48  1  0
 19 49  1  0
 21 50  1  0
 22 51  1  0
 24 52  1  0
 27 53  1  0
 28 54  1  0
M  END
>  <smiles>  (83) 
O=C(NCC(=O)N1CCCCCC1c1ccccc1)c1ccc2cc(F)ccc2n1

>  <score_type>  (83) 
oracle

>  <origin>  (83) 
autodockgpu

>  <m_score__min__energy>  (83) 
-6.8700000000000001

>  <m_primary>  (83) 
energy

>  <rmsd>  (83) 
1.5835965029552561

>  <m_score__min__rmsd>  (83) 
1.5835965029552561

>  <meeko>  (83) 
{"free_energy": -6.45, "intermolecular_energy": -9.73, "internal_energy": -1.92, "cluster_size": 11, "cluster_id": 1, "rank_in_cluster": 6}

>  <energy>  (83) 
-5.84

>  <cluster_rmsd>  (83) 
1.48

>  <cluster>  (83) 
3

$$$$

     RDKit          3D

 54 57  0  0  0  0  0  0  0  0999 V2000
  138.9500   71.2820  221.1800 O   0  0  0  0  0  0  0  0  0  0  0  0
  139.6180   71.6770  222.1650 C   0  0  0  0  0  0  0  0  0  0  0  0
  140.2930   72.9320  222.0340 N   0  0  0  0  0  0  0  0  0  0  0  0
  140.1460   73.6400  220.7700 C   0  0  0  0  0  0  0  0  0  0  0  0
  140.8940   74.9210  220.7820 C   0  0  0  0  0  0  0  0  0  0  0  0
  141.4300   75.3140  221.8750 O   0  0  0  0  0  0  0  0  0  0  0  0
  141.0500   75.7520  219.6380 N   0  0  0  0  0  0  0  0  0  0  0  0
  139.9170   76.6290  219.4290 C   0  0  0  0  0  0  0  0  0  0  0  0
  140.1110   77.6920  218.4100 C   0  0  0  0  0  0  0  0  0  0  0  0
  141.3780   78.4930  218.6110 C   0  0  0  0  0  0  0  0  0  0  0  0
  142.5850   77.8240  218.0230 C   0  0  0  0  0  0  0  0  0  0  0  0
  143.1200   76.8310  219.0000 C   0  0  0  0  0  0  0  0  0  0  0  0
  142.2940   75.5530  218.9320 C   0  0  1  0  0  0  0  0  0  0  0  0
  143.1060   74.4250  219.4710 C   0  0  0  0  0  0  0  0  0  0  0  0
  142.8070   73.1130  219.1780 C   0  0  0  0  0  0  0  0  0  0  0  0
  143.5650   72.0660  219.6820 C   0  0  0  0  0  0  0  0  0  0  0  0
  144.6520   72.2970  220.4990 C   0  0  0  0  0  0  0  0  0  0  0  0
  144.9680   73.6180  220.8050 C   0  0  0  0  0  0  0  0  0  0  0  0
  144.2020   74.6610  220.2940 C   0  0  0  0  0  0  0  0  0  0  0  0
  139.7320   70.9270  223.4100 C   0  0  0  0  0  0  0  0  0  0  0  0
  139.2060   69.6500  223.4370 C   0  0  0  0  0  0  0  0  0  0  0  0
  139.2720   68.8660  224.5800 C   0  0  0  0  0  0  0  0  0  0  0  0
  139.8910   69.4350  225.6880 C   0  0  0  0  0  0  0  0  0  0  0  0
  139.9470   68.6400  226.8180 C   0  0  0  0  0  0  0  0  0  0  0  0
  140.5670   69.2010  227.9370 C   0  0  0  0  0  0  0  0  0  0  0  0
  140.6370   68.4380  229.0680 F   0  0  0  0  0  0  0  0  0  0  0  0
  141.0850   70.4730  227.8940 C   0  0  0  0  0  0  0  0  0  0  0  0
  141.0180   71.2520  226.7510 C   0  0  0  0  0  0  0  0  0  0  0  0
  140.4110   70.7130  225.6410 C   0  0  0  0  0  0  0  0  0  0  0  0
  140.3180   71.4160  224.5170 N   0  0  0  0  0  0  0  0  0  0  0  0
  140.8610   73.2970  222.8310 H   0  0  0  0  0  0  0  0  0  0  0  0
  140.5317   73.0070  219.9573 H   0  0  0  0  0  0  0  0  0  0  0  0
  139.0794   73.8611  220.6168 H   0  0  0  0  0  0  0  0  0  0  0  0
  139.0630   76.0106  219.1154 H   0  0  0  0  0  0  0  0  0  0  0  0
  139.7590   77.1513  220.3841 H   0  0  0  0  0  0  0  0  0  0  0  0
  140.1507   77.2201  217.4171 H   0  0  0  0  0  0  0  0  0  0  0  0
  139.2667   78.3907  218.5050 H   0  0  0  0  0  0  0  0  0  0  0  0
  141.2526   79.4758  218.1332 H   0  0  0  0  0  0  0  0  0  0  0  0
  141.5442   78.5858  219.6944 H   0  0  0  0  0  0  0  0  0  0  0  0
  142.3038   77.3097  217.0922 H   0  0  0  0  0  0  0  0  0  0  0  0
  143.3551   78.5780  217.8029 H   0  0  0  0  0  0  0  0  0  0  0  0
  144.1678   76.6034  218.7544 H   0  0  0  0  0  0  0  0  0  0  0  0
  143.0630   77.2498  220.0156 H   0  0  0  0  0  0  0  0  0  0  0  0
  142.0325   75.2978  217.8945 H   0  0  0  0  0  0  0  0  0  0  0  0
  141.9471   72.8900  218.5292 H   0  0  0  0  0  0  0  0  0  0  0  0
  143.2938   71.0314  219.4250 H   0  0  0  0  0  0  0  0  0  0  0  0
  145.2504   71.4638  220.8963 H   0  0  0  0  0  0  0  0  0  0  0  0
  145.8281   73.8383  221.4544 H   0  0  0  0  0  0  0  0  0  0  0  0
  144.4697   75.6975  220.5471 H   0  0  0  0  0  0  0  0  0  0  0  0
  138.7249   69.2463  222.5339 H   0  0  0  0  0  0  0  0  0  0  0  0
  138.8566   67.8479  224.6083 H   0  0  0  0  0  0  0  0  0  0  0  0
  139.5271   67.6234  226.8348 H   0  0  0  0  0  0  0  0  0  0  0  0
  141.5667   70.8843  228.7933 H   0  0  0  0  0  0  0  0  0  0  0  0
  141.4368   72.2690  226.7316 H   0  0  0  0  0  0  0  0  0  0  0  0
  1  2  2  0
  2  3  1  0
  3  4  1  0
  4  5  1  0
  5  6  2  0
  5  7  1  0
  7  8  1  0
  8  9  1  0
  9 10  1  0
 10 11  1  0
 11 12  1  0
 12 13  1  0
 13 14  1  0
 14 15  2  0
 15 16  1  0
 16 17  2  0
 17 18  1  0
 18 19  2  0
  2 20  1  0
 20 21  2  0
 21 22  1  0
 22 23  2  0
 23 24  1  0
 24 25  2  0
 25 26  1  0
 25 27  1  0
 27 28  2  0
 28 29  1  0
 29 30  2  0
 13  7  1  0
 19 14  1  0
 30 20  1  0
 29 23  1  0
  3 31  1  0
  4 32  1  0
  4 33  1  0
  8 34  1  0
  8 35  1  0
  9 36  1  0
  9 37  1  0
 10 38  1  0
 10 39  1  0
 11 40  1  0
 11 41  1  0
 12 42  1  0
 12 43  1  0
 13 44  1  6
 15 45  1  0
 16 46  1  0
 17 47  1  0
 18 48  1  0
 19 49  1  0
 21 50  1  0
 22 51  1  0
 24 52  1  0
 27 53  1  0
 28 54  1  0
M  END
>  <smiles>  (84) 
O=C(NCC(=O)N1CCCCCC1c1ccccc1)c1ccc2cc(F)ccc2n1

>  <score_type>  (84) 
oracle

>  <origin>  (84) 
autodockgpu

>  <m_score__min__energy>  (84) 
-6.8700000000000001

>  <m_primary>  (84) 
energy

>  <rmsd>  (84) 
1.8199409066114667

>  <m_score__min__rmsd>  (84) 
1.8199409066114667

>  <meeko>  (84) 
{"free_energy": -5.43, "intermolecular_energy": -8.72, "internal_energy": -2.26, "cluster_size": 16, "cluster_id": 2, "rank_in_cluster": 14}

>  <energy>  (84) 
-5.72

>  <cluster_rmsd>  (84) 
0.68

>  <cluster>  (84) 
3

$$$$

     RDKit          3D

 54 57  0  0  0  0  0  0  0  0999 V2000
  139.5430   71.1170  221.1090 O   0  0  0  0  0  0  0  0  0  0  0  0
  139.6190   71.6710  222.2320 C   0  0  0  0  0  0  0  0  0  0  0  0
  139.5860   73.1010  222.2560 N   0  0  0  0  0  0  0  0  0  0  0  0
  139.4680   73.7880  220.9780 C   0  0  0  0  0  0  0  0  0  0  0  0
  140.4190   74.9230  220.8880 C   0  0  0  0  0  0  0  0  0  0  0  0
  141.0210   75.3110  221.9470 O   0  0  0  0  0  0  0  0  0  0  0  0
  140.7040   75.6160  219.6790 N   0  0  0  0  0  0  0  0  0  0  0  0
  139.7190   76.6350  219.3780 C   0  0  0  0  0  0  0  0  0  0  0  0
  140.1560   78.0350  219.6110 C   0  0  0  0  0  0  0  0  0  0  0  0
  141.6230   78.2630  219.3250 C   0  0  0  0  0  0  0  0  0  0  0  0
  142.5130   77.3090  220.0660 C   0  0  0  0  0  0  0  0  0  0  0  0
  142.9770   76.2450  219.1310 C   0  0  0  0  0  0  0  0  0  0  0  0
  141.9040   75.1700  219.0130 C   0  0  1  0  0  0  0  0  0  0  0  0
  142.4420   73.8910  219.5580 C   0  0  0  0  0  0  0  0  0  0  0  0
  143.5090   73.8670  220.4290 C   0  0  0  0  0  0  0  0  0  0  0  0
  144.0060   72.6740  220.9340 C   0  0  0  0  0  0  0  0  0  0  0  0
  143.4530   71.4610  220.5830 C   0  0  0  0  0  0  0  0  0  0  0  0
  142.3740   71.4670  219.7030 C   0  0  0  0  0  0  0  0  0  0  0  0
  141.8810   72.6680  219.2030 C   0  0  0  0  0  0  0  0  0  0  0  0
  139.7360   70.9340  223.4850 C   0  0  0  0  0  0  0  0  0  0  0  0
  139.2560   69.6390  223.5120 C   0  0  0  0  0  0  0  0  0  0  0  0
  139.3280   68.8660  224.6610 C   0  0  0  0  0  0  0  0  0  0  0  0
  139.9050   69.4650  225.7770 C   0  0  0  0  0  0  0  0  0  0  0  0
  139.9670   68.6800  226.9140 C   0  0  0  0  0  0  0  0  0  0  0  0
  140.5450   69.2710  228.0400 C   0  0  0  0  0  0  0  0  0  0  0  0
  140.6200   68.5190  229.1770 F   0  0  0  0  0  0  0  0  0  0  0  0
  141.0180   70.5610  227.9970 C   0  0  0  0  0  0  0  0  0  0  0  0
  140.9440   71.3280  226.8470 C   0  0  0  0  0  0  0  0  0  0  0  0
  140.3780   70.7610  225.7300 C   0  0  0  0  0  0  0  0  0  0  0  0
  140.2820   71.4520  224.5990 N   0  0  0  0  0  0  0  0  0  0  0  0
  139.6470   73.6020  223.1710 H   0  0  0  0  0  0  0  0  0  0  0  0
  139.6816   73.0761  220.1671 H   0  0  0  0  0  0  0  0  0  0  0  0
  138.4453   74.1832  220.8886 H   0  0  0  0  0  0  0  0  0  0  0  0
  139.4440   76.5378  218.3174 H   0  0  0  0  0  0  0  0  0  0  0  0
  138.8824   76.4605  220.0706 H   0  0  0  0  0  0  0  0  0  0  0  0
  139.5670   78.6969  218.9592 H   0  0  0  0  0  0  0  0  0  0  0  0
  139.9963   78.2512  220.6777 H   0  0  0  0  0  0  0  0  0  0  0  0
  141.7946   78.1381  218.2457 H   0  0  0  0  0  0  0  0  0  0  0  0
  141.8728   79.2799  219.6618 H   0  0  0  0  0  0  0  0  0  0  0  0
  143.3821   77.8518  220.4661 H   0  0  0  0  0  0  0  0  0  0  0  0
  141.9553   76.8530  220.8973 H   0  0  0  0  0  0  0  0  0  0  0  0
  143.1665   76.6843  218.1405 H   0  0  0  0  0  0  0  0  0  0  0  0
  143.9046   75.7967  219.5166 H   0  0  0  0  0  0  0  0  0  0  0  0
  141.6327   74.9880  217.9626 H   0  0  0  0  0  0  0  0  0  0  0  0
  143.9777   74.8152  220.7310 H   0  0  0  0  0  0  0  0  0  0  0  0
  144.8586   72.6966  221.6286 H   0  0  0  0  0  0  0  0  0  0  0  0
  143.8516   70.5181  220.9854 H   0  0  0  0  0  0  0  0  0  0  0  0
  141.9088   70.5169  219.4015 H   0  0  0  0  0  0  0  0  0  0  0  0
  141.0268   72.6504  218.5101 H   0  0  0  0  0  0  0  0  0  0  0  0
  138.8072   69.2120  222.6030 H   0  0  0  0  0  0  0  0  0  0  0  0
  138.9490   67.8337  224.6890 H   0  0  0  0  0  0  0  0  0  0  0  0
  139.5831   67.6493  226.9307 H   0  0  0  0  0  0  0  0  0  0  0  0
  141.4679   70.9959  228.9017 H   0  0  0  0  0  0  0  0  0  0  0  0
  141.3263   72.3593  226.8276 H   0  0  0  0  0  0  0  0  0  0  0  0
  1  2  2  0
  2  3  1  0
  3  4  1  0
  4  5  1  0
  5  6  2  0
  5  7  1  0
  7  8  1  0
  8  9  1  0
  9 10  1  0
 10 11  1  0
 11 12  1  0
 12 13  1  0
 13 14  1  0
 14 15  2  0
 15 16  1  0
 16 17  2  0
 17 18  1  0
 18 19  2  0
  2 20  1  0
 20 21  2  0
 21 22  1  0
 22 23  2  0
 23 24  1  0
 24 25  2  0
 25 26  1  0
 25 27  1  0
 27 28  2  0
 28 29  1  0
 29 30  2  0
 13  7  1  0
 19 14  1  0
 30 20  1  0
 29 23  1  0
  3 31  1  0
  4 32  1  0
  4 33  1  0
  8 34  1  0
  8 35  1  0
  9 36  1  0
  9 37  1  0
 10 38  1  0
 10 39  1  0
 11 40  1  0
 11 41  1  0
 12 42  1  0
 12 43  1  0
 13 44  1  6
 15 45  1  0
 16 46  1  0
 17 47  1  0
 18 48  1  0
 19 49  1  0
 21 50  1  0
 22 51  1  0
 24 52  1  0
 27 53  1  0
 28 54  1  0
M  END
>  <smiles>  (85) 
O=C(NCC(=O)N1CCCCCC1c1ccccc1)c1ccc2cc(F)ccc2n1

>  <score_type>  (85) 
oracle

>  <origin>  (85) 
autodockgpu

>  <m_score__min__energy>  (85) 
-6.8700000000000001

>  <m_primary>  (85) 
energy

>  <rmsd>  (85) 
1.77834400576256

>  <m_score__min__rmsd>  (85) 
1.77834400576256

>  <meeko>  (85) 
{"free_energy": -5.17, "intermolecular_energy": -8.45, "internal_energy": -2.37, "cluster_size": 16, "cluster_id": 2, "rank_in_cluster": 15}

>  <energy>  (85) 
-5.7

>  <cluster_rmsd>  (85) 
0.48

>  <cluster>  (85) 
3

$$$$

     RDKit          3D

 54 57  0  0  0  0  0  0  0  0999 V2000
  138.6060   72.2770  221.6920 O   0  0  0  0  0  0  0  0  0  0  0  0
  139.5750   72.3260  222.4870 C   0  0  0  0  0  0  0  0  0  0  0  0
  140.5640   73.3320  222.2480 N   0  0  0  0  0  0  0  0  0  0  0  0
  140.3600   74.2100  221.1050 C   0  0  0  0  0  0  0  0  0  0  0  0
  141.1470   73.7560  219.9320 C   0  0  0  0  0  0  0  0  0  0  0  0
  140.5400   73.5350  218.8290 O   0  0  0  0  0  0  0  0  0  0  0  0
  142.5530   73.5490  219.9610 N   0  0  0  0  0  0  0  0  0  0  0  0
  142.9250   72.2060  219.5640 C   0  0  0  0  0  0  0  0  0  0  0  0
  144.3000   72.0570  219.0240 C   0  0  0  0  0  0  0  0  0  0  0  0
  145.3730   72.1130  220.0890 C   0  0  0  0  0  0  0  0  0  0  0  0
  145.3210   73.3760  220.8960 C   0  0  0  0  0  0  0  0  0  0  0  0
  144.7840   74.4830  220.0500 C   0  0  0  0  0  0  0  0  0  0  0  0
  143.3120   74.7060  220.3720 C   0  0  1  0  0  0  0  0  0  0  0  0
  142.8620   75.9690  219.7210 C   0  0  0  0  0  0  0  0  0  0  0  0
  142.0640   76.8790  220.3790 C   0  0  0  0  0  0  0  0  0  0  0  0
  141.6470   78.0540  219.7690 C   0  0  0  0  0  0  0  0  0  0  0  0
  142.0150   78.3580  218.4760 C   0  0  0  0  0  0  0  0  0  0  0  0
  142.8210   77.4500  217.7960 C   0  0  0  0  0  0  0  0  0  0  0  0
  143.2350   76.2750  218.4160 C   0  0  0  0  0  0  0  0  0  0  0  0
  139.7310   71.4200  223.6190 C   0  0  0  0  0  0  0  0  0  0  0  0
  139.3020   70.1160  223.4580 C   0  0  0  0  0  0  0  0  0  0  0  0
  139.4140   69.1880  224.4830 C   0  0  0  0  0  0  0  0  0  0  0  0
  139.9760   69.6410  225.6720 C   0  0  0  0  0  0  0  0  0  0  0  0
  140.0780   68.7020  226.6830 C   0  0  0  0  0  0  0  0  0  0  0  0
  140.6410   69.1460  227.8810 C   0  0  0  0  0  0  0  0  0  0  0  0
  140.7560   68.2400  228.8980 F   0  0  0  0  0  0  0  0  0  0  0  0
  141.0630   70.4460  228.0260 C   0  0  0  0  0  0  0  0  0  0  0  0
  140.9500   71.3690  227.0000 C   0  0  0  0  0  0  0  0  0  0  0  0
  140.3980   70.9480  225.8140 C   0  0  0  0  0  0  0  0  0  0  0  0
  140.2650   71.7920  224.7950 N   0  0  0  0  0  0  0  0  0  0  0  0
  141.3870   73.4070  222.8870 H   0  0  0  0  0  0  0  0  0  0  0  0
  139.2921   74.2131  220.8411 H   0  0  0  0  0  0  0  0  0  0  0  0
  140.6950   75.2214  221.3787 H   0  0  0  0  0  0  0  0  0  0  0  0
  142.8348   71.5547  220.4458 H   0  0  0  0  0  0  0  0  0  0  0  0
  142.2465   71.9353  218.7416 H   0  0  0  0  0  0  0  0  0  0  0  0
  144.3694   71.0871  218.5097 H   0  0  0  0  0  0  0  0  0  0  0  0
  144.4746   72.9025  218.3423 H   0  0  0  0  0  0  0  0  0  0  0  0
  145.2415   71.2566  220.7667 H   0  0  0  0  0  0  0  0  0  0  0  0
  146.3480   72.0830  219.5807 H   0  0  0  0  0  0  0  0  0  0  0  0
  144.6654   73.2284  221.7669 H   0  0  0  0  0  0  0  0  0  0  0  0
  146.3334   73.6343  221.2401 H   0  0  0  0  0  0  0  0  0  0  0  0
  145.3470   75.4057  220.2542 H   0  0  0  0  0  0  0  0  0  0  0  0
  144.8885   74.2144  218.9884 H   0  0  0  0  0  0  0  0  0  0  0  0
  143.1512   74.8226  221.4539 H   0  0  0  0  0  0  0  0  0  0  0  0
  141.7499   76.6695  221.4122 H   0  0  0  0  0  0  0  0  0  0  0  0
  141.0108   78.7559  220.3281 H   0  0  0  0  0  0  0  0  0  0  0  0
  141.6817   79.2900  217.9962 H   0  0  0  0  0  0  0  0  0  0  0  0
  143.1326   77.6623  216.7626 H   0  0  0  0  0  0  0  0  0  0  0  0
  143.8726   75.5711  217.8610 H   0  0  0  0  0  0  0  0  0  0  0  0
  138.8629   69.8078  222.4977 H   0  0  0  0  0  0  0  0  0  0  0  0
  139.0760   68.1482  224.3618 H   0  0  0  0  0  0  0  0  0  0  0  0
  139.7352   67.6652  226.5505 H   0  0  0  0  0  0  0  0  0  0  0  0
  141.5027   70.7619  228.9836 H   0  0  0  0  0  0  0  0  0  0  0  0
  141.2913   72.4066  227.1302 H   0  0  0  0  0  0  0  0  0  0  0  0
  1  2  2  0
  2  3  1  0
  3  4  1  0
  4  5  1  0
  5  6  2  0
  5  7  1  0
  7  8  1  0
  8  9  1  0
  9 10  1  0
 10 11  1  0
 11 12  1  0
 12 13  1  0
 13 14  1  0
 14 15  2  0
 15 16  1  0
 16 17  2  0
 17 18  1  0
 18 19  2  0
  2 20  1  0
 20 21  2  0
 21 22  1  0
 22 23  2  0
 23 24  1  0
 24 25  2  0
 25 26  1  0
 25 27  1  0
 27 28  2  0
 28 29  1  0
 29 30  2  0
 13  7  1  0
 19 14  1  0
 30 20  1  0
 29 23  1  0
  3 31  1  0
  4 32  1  0
  4 33  1  0
  8 34  1  0
  8 35  1  0
  9 36  1  0
  9 37  1  0
 10 38  1  0
 10 39  1  0
 11 40  1  0
 11 41  1  0
 12 42  1  0
 12 43  1  0
 13 44  1  1
 15 45  1  0
 16 46  1  0
 17 47  1  0
 18 48  1  0
 19 49  1  0
 21 50  1  0
 22 51  1  0
 24 52  1  0
 27 53  1  0
 28 54  1  0
M  END
>  <smiles>  (86) 
O=C(NCC(=O)N1CCCCCC1c1ccccc1)c1ccc2cc(F)ccc2n1

>  <score_type>  (86) 
oracle

>  <origin>  (86) 
autodockgpu

>  <m_score__min__energy>  (86) 
-6.8700000000000001

>  <m_primary>  (86) 
energy

>  <rmsd>  (86) 
3.0856135313257647

>  <m_score__min__rmsd>  (86) 
3.0856135313257647

>  <meeko>  (86) 
{"free_energy": -5.41, "intermolecular_energy": -8.69, "internal_energy": -1.79, "cluster_size": 16, "cluster_id": 3, "rank_in_cluster": 12}

>  <energy>  (86) 
-5.55

>  <cluster_rmsd>  (86) 
1.19

>  <cluster>  (86) 
3

$$$$

     RDKit          3D

 54 57  0  0  0  0  0  0  0  0999 V2000
  140.8910   71.8440  221.2520 O   0  0  0  0  0  0  0  0  0  0  0  0
  140.3670   72.2920  222.3000 C   0  0  0  0  0  0  0  0  0  0  0  0
  139.9380   73.6570  222.2810 N   0  0  0  0  0  0  0  0  0  0  0  0
  140.1480   74.4060  221.0500 C   0  0  0  0  0  0  0  0  0  0  0  0
  141.0170   75.5860  221.2800 C   0  0  0  0  0  0  0  0  0  0  0  0
  140.9880   76.1620  222.4210 O   0  0  0  0  0  0  0  0  0  0  0  0
  141.8910   76.1240  220.2950 N   0  0  0  0  0  0  0  0  0  0  0  0
  142.0500   77.5590  220.4180 C   0  0  0  0  0  0  0  0  0  0  0  0
  141.4640   78.3630  219.3160 C   0  0  0  0  0  0  0  0  0  0  0  0
  142.1030   78.0980  217.9720 C   0  0  0  0  0  0  0  0  0  0  0  0
  141.9430   76.6750  217.5250 C   0  0  0  0  0  0  0  0  0  0  0  0
  143.0050   75.8440  218.1650 C   0  0  0  0  0  0  0  0  0  0  0  0
  142.4340   75.1400  219.3890 C   0  0  1  0  0  0  0  0  0  0  0  0
  143.5020   74.2980  220.0020 C   0  0  0  0  0  0  0  0  0  0  0  0
  143.3520   72.9380  220.1540 C   0  0  0  0  0  0  0  0  0  0  0  0
  144.3490   72.1580  220.7250 C   0  0  0  0  0  0  0  0  0  0  0  0
  145.5300   72.7160  221.1650 C   0  0  0  0  0  0  0  0  0  0  0  0
  145.6980   74.0900  221.0190 C   0  0  0  0  0  0  0  0  0  0  0  0
  144.6930   74.8630  220.4440 C   0  0  0  0  0  0  0  0  0  0  0  0
  140.1800   71.4980  223.5080 C   0  0  0  0  0  0  0  0  0  0  0  0
  139.5130   70.2940  223.3840 C   0  0  0  0  0  0  0  0  0  0  0  0
  139.2930   69.4750  224.4820 C   0  0  0  0  0  0  0  0  0  0  0  0
  139.7750   69.9310  225.7040 C   0  0  0  0  0  0  0  0  0  0  0  0
  139.5450   69.1030  226.7870 C   0  0  0  0  0  0  0  0  0  0  0  0
  140.0260   69.5510  228.0190 C   0  0  0  0  0  0  0  0  0  0  0  0
  139.8140   68.7520  229.1070 F   0  0  0  0  0  0  0  0  0  0  0  0
  140.6870   70.7510  228.1260 C   0  0  0  0  0  0  0  0  0  0  0  0
  140.9050   71.5650  227.0280 C   0  0  0  0  0  0  0  0  0  0  0  0
  140.4390   71.1380  225.8070 C   0  0  0  0  0  0  0  0  0  0  0  0
  140.6200   71.8790  224.7190 N   0  0  0  0  0  0  0  0  0  0  0  0
  139.4960   74.0700  223.1330 H   0  0  0  0  0  0  0  0  0  0  0  0
  140.6245   73.7491  220.3075 H   0  0  0  0  0  0  0  0  0  0  0  0
  139.1715   74.7588  220.6868 H   0  0  0  0  0  0  0  0  0  0  0  0
  141.5730   77.8736  221.3580 H   0  0  0  0  0  0  0  0  0  0  0  0
  143.1334   77.7470  220.3864 H   0  0  0  0  0  0  0  0  0  0  0  0
  140.3920   78.1271  219.2446 H   0  0  0  0  0  0  0  0  0  0  0  0
  141.6426   79.4214  219.5567 H   0  0  0  0  0  0  0  0  0  0  0  0
  141.6361   78.7562  217.2245 H   0  0  0  0  0  0  0  0  0  0  0  0
  143.1805   78.2956  218.0718 H   0  0  0  0  0  0  0  0  0  0  0  0
  140.9523   76.3030  217.8251 H   0  0  0  0  0  0  0  0  0  0  0  0
  142.0334   76.6162  216.4303 H   0  0  0  0  0  0  0  0  0  0  0  0
  143.3658   75.0937  217.4461 H   0  0  0  0  0  0  0  0  0  0  0  0
  143.8400   76.4910  218.4718 H   0  0  0  0  0  0  0  0  0  0  0  0
  141.6061   74.4688  219.1169 H   0  0  0  0  0  0  0  0  0  0  0  0
  142.4217   72.4585  219.8156 H   0  0  0  0  0  0  0  0  0  0  0  0
  144.1932   71.0740  220.8281 H   0  0  0  0  0  0  0  0  0  0  0  0
  146.3162   72.0941  221.6179 H   0  0  0  0  0  0  0  0  0  0  0  0
  146.6288   74.5671  221.3594 H   0  0  0  0  0  0  0  0  0  0  0  0
  144.8449   75.9472  220.3368 H   0  0  0  0  0  0  0  0  0  0  0  0
  139.1492   69.9787  222.3949 H   0  0  0  0  0  0  0  0  0  0  0  0
  138.7646   68.5146  224.3906 H   0  0  0  0  0  0  0  0  0  0  0  0
  139.0133   68.1456  226.6840 H   0  0  0  0  0  0  0  0  0  0  0  0
  141.0531   71.0737  229.1118 H   0  0  0  0  0  0  0  0  0  0  0  0
  141.4346   72.5238  227.1291 H   0  0  0  0  0  0  0  0  0  0  0  0
  1  2  2  0
  2  3  1  0
  3  4  1  0
  4  5  1  0
  5  6  2  0
  5  7  1  0
  7  8  1  0
  8  9  1  0
  9 10  1  0
 10 11  1  0
 11 12  1  0
 12 13  1  0
 13 14  1  0
 14 15  2  0
 15 16  1  0
 16 17  2  0
 17 18  1  0
 18 19  2  0
  2 20  1  0
 20 21  2  0
 21 22  1  0
 22 23  2  0
 23 24  1  0
 24 25  2  0
 25 26  1  0
 25 27  1  0
 27 28  2  0
 28 29  1  0
 29 30  2  0
 13  7  1  0
 19 14  1  0
 30 20  1  0
 29 23  1  0
  3 31  1  0
  4 32  1  0
  4 33  1  0
  8 34  1  0
  8 35  1  0
  9 36  1  0
  9 37  1  0
 10 38  1  0
 10 39  1  0
 11 40  1  0
 11 41  1  0
 12 42  1  0
 12 43  1  0
 13 44  1  6
 15 45  1  0
 16 46  1  0
 17 47  1  0
 18 48  1  0
 19 49  1  0
 21 50  1  0
 22 51  1  0
 24 52  1  0
 27 53  1  0
 28 54  1  0
M  END
>  <smiles>  (87) 
O=C(NCC(=O)N1CCCCCC1c1ccccc1)c1ccc2cc(F)ccc2n1

>  <score_type>  (87) 
oracle

>  <origin>  (87) 
autodockgpu

>  <m_score__min__energy>  (87) 
-6.8700000000000001

>  <m_primary>  (87) 
energy

>  <rmsd>  (87) 
2.406913933563884

>  <m_score__min__rmsd>  (87) 
2.406913933563884

>  <meeko>  (87) 
{"free_energy": -6.52, "intermolecular_energy": -9.8, "internal_energy": -2.04, "cluster_size": 16, "cluster_id": 2, "rank_in_cluster": 5}

>  <energy>  (87) 
-5.46

>  <cluster_rmsd>  (87) 
1.31

>  <cluster>  (87) 
3

$$$$

     RDKit          3D

 54 57  0  0  0  0  0  0  0  0999 V2000
  139.3220   70.9420  221.3920 O   0  0  0  0  0  0  0  0  0  0  0  0
  139.5450   71.4740  222.5060 C   0  0  0  0  0  0  0  0  0  0  0  0
  139.6740   72.8990  222.5330 N   0  0  0  0  0  0  0  0  0  0  0  0
  139.5350   73.6060  221.2680 C   0  0  0  0  0  0  0  0  0  0  0  0
  140.3500   74.8460  221.2540 C   0  0  0  0  0  0  0  0  0  0  0  0
  141.0020   75.1690  222.3040 O   0  0  0  0  0  0  0  0  0  0  0  0
  140.4480   75.7090  220.1280 N   0  0  0  0  0  0  0  0  0  0  0  0
  139.4350   76.7450  220.1320 C   0  0  0  0  0  0  0  0  0  0  0  0
  139.6820   77.8850  219.2120 C   0  0  0  0  0  0  0  0  0  0  0  0
  140.9870   78.6010  219.4800 C   0  0  0  0  0  0  0  0  0  0  0  0
  142.0690   77.6750  219.9510 C   0  0  0  0  0  0  0  0  0  0  0  0
  142.3120   76.6450  218.9000 C   0  0  0  0  0  0  0  0  0  0  0  0
  141.5260   75.3820  219.2260 C   0  0  1  0  0  0  0  0  0  0  0  0
  142.4630   74.3590  219.7720 C   0  0  0  0  0  0  0  0  0  0  0  0
  142.1770   73.0120  219.7180 C   0  0  0  0  0  0  0  0  0  0  0  0
  143.0520   72.0640  220.2280 C   0  0  0  0  0  0  0  0  0  0  0  0
  144.2460   72.4310  220.8120 C   0  0  0  0  0  0  0  0  0  0  0  0
  144.5510   73.7880  220.8750 C   0  0  0  0  0  0  0  0  0  0  0  0
  143.6670   74.7320  220.3600 C   0  0  0  0  0  0  0  0  0  0  0  0
  139.6760   70.7170  223.7450 C   0  0  0  0  0  0  0  0  0  0  0  0
  139.1990   69.4210  223.7550 C   0  0  0  0  0  0  0  0  0  0  0  0
  139.2830   68.6290  224.8910 C   0  0  0  0  0  0  0  0  0  0  0  0
  139.8690   69.2110  226.0110 C   0  0  0  0  0  0  0  0  0  0  0  0
  139.9440   68.4080  227.1350 C   0  0  0  0  0  0  0  0  0  0  0  0
  140.5320   68.9820  228.2640 C   0  0  0  0  0  0  0  0  0  0  0  0
  140.6190   68.2120  229.3890 F   0  0  0  0  0  0  0  0  0  0  0  0
  141.0010   70.2740  228.2380 C   0  0  0  0  0  0  0  0  0  0  0  0
  140.9150   71.0590  227.1020 C   0  0  0  0  0  0  0  0  0  0  0  0
  140.3400   70.5090  225.9810 C   0  0  0  0  0  0  0  0  0  0  0  0
  140.2320   71.2180  224.8620 N   0  0  0  0  0  0  0  0  0  0  0  0
  139.8610   73.3810  223.4400 H   0  0  0  0  0  0  0  0  0  0  0  0
  139.8677   72.9487  220.4511 H   0  0  0  0  0  0  0  0  0  0  0  0
  138.4783   73.8822  221.1376 H   0  0  0  0  0  0  0  0  0  0  0  0
  138.4772   76.2834  219.8500 H   0  0  0  0  0  0  0  0  0  0  0  0
  139.4412   77.1693  221.1469 H   0  0  0  0  0  0  0  0  0  0  0  0
  139.6991   77.5033  218.1805 H   0  0  0  0  0  0  0  0  0  0  0  0
  138.8732   78.6130  219.3725 H   0  0  0  0  0  0  0  0  0  0  0  0
  141.3193   79.0867  218.5506 H   0  0  0  0  0  0  0  0  0  0  0  0
  140.8057   79.3342  220.2797 H   0  0  0  0  0  0  0  0  0  0  0  0
  142.9922   78.2458  220.1296 H   0  0  0  0  0  0  0  0  0  0  0  0
  141.7617   77.1874  220.8879 H   0  0  0  0  0  0  0  0  0  0  0  0
  141.9880   77.0353  217.9239 H   0  0  0  0  0  0  0  0  0  0  0  0
  143.3853   76.4068  218.8654 H   0  0  0  0  0  0  0  0  0  0  0  0
  141.0647   74.9530  218.3243 H   0  0  0  0  0  0  0  0  0  0  0  0
  141.2333   72.6809  219.2600 H   0  0  0  0  0  0  0  0  0  0  0  0
  142.7880   70.9980  220.1653 H   0  0  0  0  0  0  0  0  0  0  0  0
  144.9360   71.6753  221.2155 H   0  0  0  0  0  0  0  0  0  0  0  0
  145.4953   74.1159  221.3341 H   0  0  0  0  0  0  0  0  0  0  0  0
  143.9271   75.7992  220.4195 H   0  0  0  0  0  0  0  0  0  0  0  0
  138.7429   69.0080  222.8432 H   0  0  0  0  0  0  0  0  0  0  0  0
  138.9063   67.5956  224.9056 H   0  0  0  0  0  0  0  0  0  0  0  0
  139.5623   67.3764  227.1391 H   0  0  0  0  0  0  0  0  0  0  0  0
  141.4574   70.6954  229.1458 H   0  0  0  0  0  0  0  0  0  0  0  0
  141.2949   72.0913  227.0960 H   0  0  0  0  0  0  0  0  0  0  0  0
  1  2  2  0
  2  3  1  0
  3  4  1  0
  4  5  1  0
  5  6  2  0
  5  7  1  0
  7  8  1  0
  8  9  1  0
  9 10  1  0
 10 11  1  0
 11 12  1  0
 12 13  1  0
 13 14  1  0
 14 15  2  0
 15 16  1  0
 16 17  2  0
 17 18  1  0
 18 19  2  0
  2 20  1  0
 20 21  2  0
 21 22  1  0
 22 23  2  0
 23 24  1  0
 24 25  2  0
 25 26  1  0
 25 27  1  0
 27 28  2  0
 28 29  1  0
 29 30  2  0
 13  7  1  0
 19 14  1  0
 30 20  1  0
 29 23  1  0
  3 31  1  0
  4 32  1  0
  4 33  1  0
  8 34  1  0
  8 35  1  0
  9 36  1  0
  9 37  1  0
 10 38  1  0
 10 39  1  0
 11 40  1  0
 11 41  1  0
 12 42  1  0
 12 43  1  0
 13 44  1  6
 15 45  1  0
 16 46  1  0
 17 47  1  0
 18 48  1  0
 19 49  1  0
 21 50  1  0
 22 51  1  0
 24 52  1  0
 27 53  1  0
 28 54  1  0
M  END
>  <smiles>  (88) 
O=C(NCC(=O)N1CCCCCC1c1ccccc1)c1ccc2cc(F)ccc2n1

>  <score_type>  (88) 
oracle

>  <origin>  (88) 
autodockgpu

>  <m_score__min__energy>  (88) 
-6.8700000000000001

>  <m_primary>  (88) 
energy

>  <rmsd>  (88) 
1.6900220215136323

>  <m_score__min__rmsd>  (88) 
1.6900220215136323

>  <meeko>  (88) 
{"free_energy": -5.14, "intermolecular_energy": -8.42, "internal_energy": -2.17, "cluster_size": 16, "cluster_id": 2, "rank_in_cluster": 16}

>  <energy>  (88) 
-5.41

>  <cluster_rmsd>  (88) 
1.13

>  <cluster>  (88) 
3

$$$$

     RDKit          3D

 54 57  0  0  0  0  0  0  0  0999 V2000
  139.5120   71.3170  221.0590 O   0  0  0  0  0  0  0  0  0  0  0  0
  139.9980   71.7270  222.1400 C   0  0  0  0  0  0  0  0  0  0  0  0
  140.6580   72.9970  222.1170 N   0  0  0  0  0  0  0  0  0  0  0  0
  140.7080   73.7010  220.8440 C   0  0  0  0  0  0  0  0  0  0  0  0
  141.7420   73.1240  219.9510 C   0  0  0  0  0  0  0  0  0  0  0  0
  141.4230   72.8200  218.7510 O   0  0  0  0  0  0  0  0  0  0  0  0
  143.0850   72.8840  220.3540 N   0  0  0  0  0  0  0  0  0  0  0  0
  143.3540   71.4780  220.5810 C   0  0  0  0  0  0  0  0  0  0  0  0
  144.1660   70.8070  219.5350 C   0  0  0  0  0  0  0  0  0  0  0  0
  145.5230   71.4410  219.3270 C   0  0  0  0  0  0  0  0  0  0  0  0
  145.4320   72.8870  218.9380 C   0  0  0  0  0  0  0  0  0  0  0  0
  145.3490   73.7210  220.1710 C   0  0  0  0  0  0  0  0  0  0  0  0
  143.8940   74.0760  220.4500 C   0  0  1  0  0  0  0  0  0  0  0  0
  143.4720   75.1530  219.5090 C   0  0  0  0  0  0  0  0  0  0  0  0
  143.6290   75.0260  218.1460 C   0  0  0  0  0  0  0  0  0  0  0  0
  143.2350   76.0320  217.2740 C   0  0  0  0  0  0  0  0  0  0  0  0
  142.6720   77.2020  217.7370 C   0  0  0  0  0  0  0  0  0  0  0  0
  142.5070   77.3460  219.1120 C   0  0  0  0  0  0  0  0  0  0  0  0
  142.9030   76.3320  219.9790 C   0  0  0  0  0  0  0  0  0  0  0  0
  139.9200   70.9810  223.3890 C   0  0  0  0  0  0  0  0  0  0  0  0
  139.3020   69.7450  223.3580 C   0  0  0  0  0  0  0  0  0  0  0  0
  139.1850   68.9680  224.5010 C   0  0  0  0  0  0  0  0  0  0  0  0
  139.7190   69.4990  225.6710 C   0  0  0  0  0  0  0  0  0  0  0  0
  139.5920   68.7100  226.8000 C   0  0  0  0  0  0  0  0  0  0  0  0
  140.1260   69.2330  227.9800 C   0  0  0  0  0  0  0  0  0  0  0  0
  140.0150   68.4760  229.1110 F   0  0  0  0  0  0  0  0  0  0  0  0
  140.7380   70.4640  227.9940 C   0  0  0  0  0  0  0  0  0  0  0  0
  140.8530   71.2360  226.8510 C   0  0  0  0  0  0  0  0  0  0  0  0
  140.3330   70.7350  225.6810 C   0  0  0  0  0  0  0  0  0  0  0  0
  140.4150   71.4340  224.5540 N   0  0  0  0  0  0  0  0  0  0  0  0
  141.0770   73.3750  222.9960 H   0  0  0  0  0  0  0  0  0  0  0  0
  139.7267   73.6241  220.3529 H   0  0  0  0  0  0  0  0  0  0  0  0
  140.9638   74.7531  221.0381 H   0  0  0  0  0  0  0  0  0  0  0  0
  143.8894   71.3852  221.5374 H   0  0  0  0  0  0  0  0  0  0  0  0
  142.3747   70.9772  220.5715 H   0  0  0  0  0  0  0  0  0  0  0  0
  144.3133   69.7571  219.8284 H   0  0  0  0  0  0  0  0  0  0  0  0
  143.6156   70.9015  218.5873 H   0  0  0  0  0  0  0  0  0  0  0  0
  146.0950   71.3636  220.2634 H   0  0  0  0  0  0  0  0  0  0  0  0
  146.0176   70.9054  218.5033 H   0  0  0  0  0  0  0  0  0  0  0  0
  146.3251   73.1700  218.3616 H   0  0  0  0  0  0  0  0  0  0  0  0
  144.5357   73.0485  218.3210 H   0  0  0  0  0  0  0  0  0  0  0  0
  145.7582   73.1575  221.0225 H   0  0  0  0  0  0  0  0  0  0  0  0
  145.9296   74.6442  220.0277 H   0  0  0  0  0  0  0  0  0  0  0  0
  143.7645   74.4657  221.4705 H   0  0  0  0  0  0  0  0  0  0  0  0
  144.0765   74.1070  217.7396 H   0  0  0  0  0  0  0  0  0  0  0  0
  143.3749   75.8926  216.1919 H   0  0  0  0  0  0  0  0  0  0  0  0
  142.3629   77.9967  217.0421 H   0  0  0  0  0  0  0  0  0  0  0  0
  142.0609   78.2670  219.5155 H   0  0  0  0  0  0  0  0  0  0  0  0
  142.7627   76.4661  221.0617 H   0  0  0  0  0  0  0  0  0  0  0  0
  138.8947   69.3699  222.4075 H   0  0  0  0  0  0  0  0  0  0  0  0
  138.6954   67.9831  224.4834 H   0  0  0  0  0  0  0  0  0  0  0  0
  139.0988   67.7272  226.7703 H   0  0  0  0  0  0  0  0  0  0  0  0
  141.1479   70.8462  228.9405 H   0  0  0  0  0  0  0  0  0  0  0  0
  141.3450   72.2195  226.8778 H   0  0  0  0  0  0  0  0  0  0  0  0
  1  2  2  0
  2  3  1  0
  3  4  1  0
  4  5  1  0
  5  6  2  0
  5  7  1  0
  7  8  1  0
  8  9  1  0
  9 10  1  0
 10 11  1  0
 11 12  1  0
 12 13  1  0
 13 14  1  0
 14 15  2  0
 15 16  1  0
 16 17  2  0
 17 18  1  0
 18 19  2  0
  2 20  1  0
 20 21  2  0
 21 22  1  0
 22 23  2  0
 23 24  1  0
 24 25  2  0
 25 26  1  0
 25 27  1  0
 27 28  2  0
 28 29  1  0
 29 30  2  0
 13  7  1  0
 19 14  1  0
 30 20  1  0
 29 23  1  0
  3 31  1  0
  4 32  1  0
  4 33  1  0
  8 34  1  0
  8 35  1  0
  9 36  1  0
  9 37  1  0
 10 38  1  0
 10 39  1  0
 11 40  1  0
 11 41  1  0
 12 42  1  0
 12 43  1  0
 13 44  1  1
 15 45  1  0
 16 46  1  0
 17 47  1  0
 18 48  1  0
 19 49  1  0
 21 50  1  0
 22 51  1  0
 24 52  1  0
 27 53  1  0
 28 54  1  0
M  END
>  <smiles>  (89) 
O=C(NCC(=O)N1CCCCCC1c1ccccc1)c1ccc2cc(F)ccc2n1

>  <score_type>  (89) 
oracle

>  <origin>  (89) 
autodockgpu

>  <m_score__min__energy>  (89) 
-6.8700000000000001

>  <m_primary>  (89) 
energy

>  <rmsd>  (89) 
3.6321781739320707

>  <m_score__min__rmsd>  (89) 
3.6321781739320707

>  <meeko>  (89) 
{"free_energy": -5.41, "intermolecular_energy": -8.69, "internal_energy": -1.86, "cluster_size": 16, "cluster_id": 3, "rank_in_cluster": 11}

>  <energy>  (89) 
-5.41

>  <cluster_rmsd>  (89) 
1.05

>  <cluster>  (89) 
3

$$$$

     RDKit          3D

 54 57  0  0  0  0  0  0  0  0999 V2000
  140.0780   72.9170  222.6890 O   0  0  0  0  0  0  0  0  0  0  0  0
  140.1010   71.6780  222.8830 C   0  0  0  0  0  0  0  0  0  0  0  0
  139.9330   70.8360  221.7390 N   0  0  0  0  0  0  0  0  0  0  0  0
  139.7500   71.4880  220.4510 C   0  0  0  0  0  0  0  0  0  0  0  0
  141.0350   71.6050  219.7200 C   0  0  0  0  0  0  0  0  0  0  0  0
  141.1920   70.9450  218.6360 O   0  0  0  0  0  0  0  0  0  0  0  0
  142.1190   72.4150  220.1580 N   0  0  0  0  0  0  0  0  0  0  0  0
  143.2640   71.6320  220.5770 C   0  0  0  0  0  0  0  0  0  0  0  0
  144.5630   72.0290  219.9770 C   0  0  0  0  0  0  0  0  0  0  0  0
  145.0660   73.3690  220.4660 C   0  0  0  0  0  0  0  0  0  0  0  0
  144.2250   74.5140  219.9860 C   0  0  0  0  0  0  0  0  0  0  0  0
  142.9780   74.5840  220.8040 C   0  0  0  0  0  0  0  0  0  0  0  0
  141.8590   73.8340  220.0920 C   0  0  1  0  0  0  0  0  0  0  0  0
  141.7430   74.3500  218.6980 C   0  0  0  0  0  0  0  0  0  0  0  0
  142.2830   73.6710  217.6280 C   0  0  0  0  0  0  0  0  0  0  0  0
  142.1730   74.1550  216.3320 C   0  0  0  0  0  0  0  0  0  0  0  0
  141.5190   75.3380  216.0630 C   0  0  0  0  0  0  0  0  0  0  0  0
  140.9670   76.0370  217.1330 C   0  0  0  0  0  0  0  0  0  0  0  0
  141.0820   75.5430  218.4290 C   0  0  0  0  0  0  0  0  0  0  0  0
  140.2880   71.0750  224.1970 C   0  0  0  0  0  0  0  0  0  0  0  0
  140.7460   71.8900  225.2150 C   0  0  0  0  0  0  0  0  0  0  0  0
  140.9510   71.3990  226.4960 C   0  0  0  0  0  0  0  0  0  0  0  0
  140.6740   70.0500  226.6960 C   0  0  0  0  0  0  0  0  0  0  0  0
  140.8850   69.5780  227.9780 C   0  0  0  0  0  0  0  0  0  0  0  0
  140.6100   68.2260  228.1910 C   0  0  0  0  0  0  0  0  0  0  0  0
  140.8090   67.7310  229.4480 F   0  0  0  0  0  0  0  0  0  0  0  0
  140.1550   67.4280  227.1670 C   0  0  0  0  0  0  0  0  0  0  0  0
  139.9520   67.9220  225.8910 C   0  0  0  0  0  0  0  0  0  0  0  0
  140.2180   69.2520  225.6660 C   0  0  0  0  0  0  0  0  0  0  0  0
  140.0400   69.7800  224.4590 N   0  0  0  0  0  0  0  0  0  0  0  0
  139.9450   69.7980  221.8570 H   0  0  0  0  0  0  0  0  0  0  0  0
  139.0463   70.8968  219.8467 H   0  0  0  0  0  0  0  0  0  0  0  0
  139.3565   72.5001  220.6265 H   0  0  0  0  0  0  0  0  0  0  0  0
  143.3540   71.7208  221.6697 H   0  0  0  0  0  0  0  0  0  0  0  0
  143.0718   70.6059  220.2303 H   0  0  0  0  0  0  0  0  0  0  0  0
  145.3115   71.2630  220.2278 H   0  0  0  0  0  0  0  0  0  0  0  0
  144.4060   72.1174  218.8919 H   0  0  0  0  0  0  0  0  0  0  0  0
  145.0616   73.3663  221.5660 H   0  0  0  0  0  0  0  0  0  0  0  0
  146.0798   73.5101  220.0631 H   0  0  0  0  0  0  0  0  0  0  0  0
  144.7876   75.4533  220.0917 H   0  0  0  0  0  0  0  0  0  0  0  0
  143.9649   74.3633  218.9279 H   0  0  0  0  0  0  0  0  0  0  0  0
  143.1586   74.1253  221.7874 H   0  0  0  0  0  0  0  0  0  0  0  0
  142.6863   75.6362  220.9374 H   0  0  0  0  0  0  0  0  0  0  0  0
  140.8883   74.0014  220.5816 H   0  0  0  0  0  0  0  0  0  0  0  0
  142.8134   72.7237  217.8048 H   0  0  0  0  0  0  0  0  0  0  0  0
  142.6164   73.5834  215.5034 H   0  0  0  0  0  0  0  0  0  0  0  0
  141.4357   75.7183  215.0342 H   0  0  0  0  0  0  0  0  0  0  0  0
  140.4374   76.9842  216.9532 H   0  0  0  0  0  0  0  0  0  0  0  0
  140.6391   76.1104  219.2608 H   0  0  0  0  0  0  0  0  0  0  0  0
  140.9522   72.9499  225.0050 H   0  0  0  0  0  0  0  0  0  0  0  0
  141.3136   72.0424  227.3112 H   0  0  0  0  0  0  0  0  0  0  0  0
  141.2491   70.2310  228.7849 H   0  0  0  0  0  0  0  0  0  0  0  0
  139.9467   66.3669  227.3686 H   0  0  0  0  0  0  0  0  0  0  0  0
  139.5892   67.2712  225.0818 H   0  0  0  0  0  0  0  0  0  0  0  0
  1  2  2  0
  2  3  1  0
  3  4  1  0
  4  5  1  0
  5  6  2  0
  5  7  1  0
  7  8  1  0
  8  9  1  0
  9 10  1  0
 10 11  1  0
 11 12  1  0
 12 13  1  0
 13 14  1  0
 14 15  2  0
 15 16  1  0
 16 17  2  0
 17 18  1  0
 18 19  2  0
  2 20  1  0
 20 21  2  0
 21 22  1  0
 22 23  2  0
 23 24  1  0
 24 25  2  0
 25 26  1  0
 25 27  1  0
 27 28  2  0
 28 29  1  0
 29 30  2  0
 13  7  1  0
 19 14  1  0
 30 20  1  0
 29 23  1  0
  3 31  1  0
  4 32  1  0
  4 33  1  0
  8 34  1  0
  8 35  1  0
  9 36  1  0
  9 37  1  0
 10 38  1  0
 10 39  1  0
 11 40  1  0
 11 41  1  0
 12 42  1  0
 12 43  1  0
 13 44  1  1
 15 45  1  0
 16 46  1  0
 17 47  1  0
 18 48  1  0
 19 49  1  0
 21 50  1  0
 22 51  1  0
 24 52  1  0
 27 53  1  0
 28 54  1  0
M  END
>  <smiles>  (90) 
O=C(NCC(=O)N1CCCCCC1c1ccccc1)c1ccc2cc(F)ccc2n1

>  <score_type>  (90) 
oracle

>  <origin>  (90) 
autodockgpu

>  <m_score__min__energy>  (90) 
-6.8700000000000001

>  <m_primary>  (90) 
energy

>  <rmsd>  (90) 
4.099543857366582

>  <m_score__min__rmsd>  (90) 
4.099543857366582

>  <meeko>  (90) 
{"free_energy": -4.6, "intermolecular_energy": -7.88, "internal_energy": -2.07, "cluster_size": 16, "cluster_id": 3, "rank_in_cluster": 16}

>  <energy>  (90) 
-5.23

>  <cluster_rmsd>  (90) 
1.48

>  <cluster>  (90) 
3

$$$$

     RDKit          3D

 54 57  0  0  0  0  0  0  0  0999 V2000
  140.0700   73.6080  222.3090 O   0  0  0  0  0  0  0  0  0  0  0  0
  140.1860   72.3600  222.2640 C   0  0  0  0  0  0  0  0  0  0  0  0
  140.3440   71.7660  220.9710 N   0  0  0  0  0  0  0  0  0  0  0  0
  140.3570   72.6610  219.8230 C   0  0  0  0  0  0  0  0  0  0  0  0
  141.6710   72.6330  219.1350 C   0  0  0  0  0  0  0  0  0  0  0  0
  141.7010   72.6720  217.8580 O   0  0  0  0  0  0  0  0  0  0  0  0
  142.9160   72.5640  219.8190 N   0  0  0  0  0  0  0  0  0  0  0  0
  143.4810   71.2290  219.8120 C   0  0  0  0  0  0  0  0  0  0  0  0
  144.7510   71.0770  219.0590 C   0  0  0  0  0  0  0  0  0  0  0  0
  145.9020   71.8530  219.6590 C   0  0  0  0  0  0  0  0  0  0  0  0
  145.6650   73.3340  219.6590 C   0  0  0  0  0  0  0  0  0  0  0  0
  144.8060   73.6940  220.8240 C   0  0  0  0  0  0  0  0  0  0  0  0
  143.3570   73.8230  220.3710 C   0  0  1  0  0  0  0  0  0  0  0  0
  143.2520   74.9580  219.4100 C   0  0  0  0  0  0  0  0  0  0  0  0
  142.7320   76.1770  219.7830 C   0  0  0  0  0  0  0  0  0  0  0  0
  142.6360   77.2310  218.8850 C   0  0  0  0  0  0  0  0  0  0  0  0
  143.0570   77.1000  217.5790 C   0  0  0  0  0  0  0  0  0  0  0  0
  143.5850   75.8740  217.1850 C   0  0  0  0  0  0  0  0  0  0  0  0
  143.6780   74.8230  218.0930 C   0  0  0  0  0  0  0  0  0  0  0  0
  140.1660   71.5090  223.4470 C   0  0  0  0  0  0  0  0  0  0  0  0
  139.6160   70.2480  223.3180 C   0  0  0  0  0  0  0  0  0  0  0  0
  139.5570   69.3730  224.3930 C   0  0  0  0  0  0  0  0  0  0  0  0
  140.0770   69.8330  225.5980 C   0  0  0  0  0  0  0  0  0  0  0  0
  140.0090   68.9480  226.6580 C   0  0  0  0  0  0  0  0  0  0  0  0
  140.5290   69.3990  227.8730 C   0  0  0  0  0  0  0  0  0  0  0  0
  140.4750   68.5460  228.9380 F   0  0  0  0  0  0  0  0  0  0  0  0
  141.0730   70.6570  227.9850 C   0  0  0  0  0  0  0  0  0  0  0  0
  141.1300   71.5270  226.9100 C   0  0  0  0  0  0  0  0  0  0  0  0
  140.6220   71.0970  225.7070 C   0  0  0  0  0  0  0  0  0  0  0  0
  140.6510   71.8900  224.6410 N   0  0  0  0  0  0  0  0  0  0  0  0
  140.4440   70.7300  220.8900 H   0  0  0  0  0  0  0  0  0  0  0  0
  139.5749   72.3483  219.1155 H   0  0  0  0  0  0  0  0  0  0  0  0
  140.1719   73.6855  220.1783 H   0  0  0  0  0  0  0  0  0  0  0  0
  143.6682   70.9346  220.8552 H   0  0  0  0  0  0  0  0  0  0  0  0
  142.7463   70.5926  219.2969 H   0  0  0  0  0  0  0  0  0  0  0  0
  145.0207   70.0107  219.0420 H   0  0  0  0  0  0  0  0  0  0  0  0
  144.5799   71.4789  218.0495 H   0  0  0  0  0  0  0  0  0  0  0  0
  146.0474   71.5200  220.6973 H   0  0  0  0  0  0  0  0  0  0  0  0
  146.7910   71.6591  219.0409 H   0  0  0  0  0  0  0  0  0  0  0  0
  146.6278   73.8605  219.7353 H   0  0  0  0  0  0  0  0  0  0  0  0
  145.1629   73.6276  218.7253 H   0  0  0  0  0  0  0  0  0  0  0  0
  144.8812   72.9088  221.5907 H   0  0  0  0  0  0  0  0  0  0  0  0
  145.1438   74.6528  221.2441 H   0  0  0  0  0  0  0  0  0  0  0  0
  142.6906   74.0494  221.2164 H   0  0  0  0  0  0  0  0  0  0  0  0
  142.3844   76.3190  220.8170 H   0  0  0  0  0  0  0  0  0  0  0  0
  142.2156   78.1899  219.2222 H   0  0  0  0  0  0  0  0  0  0  0  0
  142.9782   77.9379  216.8706 H   0  0  0  0  0  0  0  0  0  0  0  0
  143.9308   75.7348  216.1501 H   0  0  0  0  0  0  0  0  0  0  0  0
  144.0986   73.8624  217.7608 H   0  0  0  0  0  0  0  0  0  0  0  0
  139.2168   69.9315  222.3431 H   0  0  0  0  0  0  0  0  0  0  0  0
  139.1215   68.3674  224.2972 H   0  0  0  0  0  0  0  0  0  0  0  0
  139.5700   67.9451  226.5504 H   0  0  0  0  0  0  0  0  0  0  0  0
  141.4743   70.9811  228.9566 H   0  0  0  0  0  0  0  0  0  0  0  0
  141.5679   72.5306  227.0149 H   0  0  0  0  0  0  0  0  0  0  0  0
  1  2  2  0
  2  3  1  0
  3  4  1  0
  4  5  1  0
  5  6  2  0
  5  7  1  0
  7  8  1  0
  8  9  1  0
  9 10  1  0
 10 11  1  0
 11 12  1  0
 12 13  1  0
 13 14  1  0
 14 15  2  0
 15 16  1  0
 16 17  2  0
 17 18  1  0
 18 19  2  0
  2 20  1  0
 20 21  2  0
 21 22  1  0
 22 23  2  0
 23 24  1  0
 24 25  2  0
 25 26  1  0
 25 27  1  0
 27 28  2  0
 28 29  1  0
 29 30  2  0
 13  7  1  0
 19 14  1  0
 30 20  1  0
 29 23  1  0
  3 31  1  0
  4 32  1  0
  4 33  1  0
  8 34  1  0
  8 35  1  0
  9 36  1  0
  9 37  1  0
 10 38  1  0
 10 39  1  0
 11 40  1  0
 11 41  1  0
 12 42  1  0
 12 43  1  0
 13 44  1  1
 15 45  1  0
 16 46  1  0
 17 47  1  0
 18 48  1  0
 19 49  1  0
 21 50  1  0
 22 51  1  0
 24 52  1  0
 27 53  1  0
 28 54  1  0
M  END
>  <smiles>  (91) 
O=C(NCC(=O)N1CCCCCC1c1ccccc1)c1ccc2cc(F)ccc2n1

>  <score_type>  (91) 
oracle

>  <origin>  (91) 
autodockgpu

>  <m_score__min__energy>  (91) 
-6.8700000000000001

>  <m_primary>  (91) 
energy

>  <rmsd>  (91) 
3.7389483126803413

>  <m_score__min__rmsd>  (91) 
3.7389483126803413

>  <meeko>  (91) 
{"free_energy": -6.27, "intermolecular_energy": -9.55, "internal_energy": -1.63, "cluster_size": 16, "cluster_id": 3, "rank_in_cluster": 2}

>  <energy>  (91) 
-4.96

>  <cluster_rmsd>  (91) 
1.16

>  <cluster>  (91) 
3

$$$$

     RDKit          3D

 54 57  0  0  0  0  0  0  0  0999 V2000
  139.3010   71.9200  221.0750 O   0  0  0  0  0  0  0  0  0  0  0  0
  139.9910   72.2080  222.0820 C   0  0  0  0  0  0  0  0  0  0  0  0
  140.8520   73.3460  221.9780 N   0  0  0  0  0  0  0  0  0  0  0  0
  140.8520   74.0700  220.7150 C   0  0  0  0  0  0  0  0  0  0  0  0
  141.3560   73.2200  219.6090 C   0  0  0  0  0  0  0  0  0  0  0  0
  140.5430   72.8500  218.6940 O   0  0  0  0  0  0  0  0  0  0  0  0
  142.7060   72.7830  219.5040 N   0  0  0  0  0  0  0  0  0  0  0  0
  142.8120   71.3610  219.2490 C   0  0  0  0  0  0  0  0  0  0  0  0
  143.8850   70.6570  219.9960 C   0  0  0  0  0  0  0  0  0  0  0  0
  145.2780   71.0250  219.5370 C   0  0  0  0  0  0  0  0  0  0  0  0
  145.6740   72.4130  219.9430 C   0  0  0  0  0  0  0  0  0  0  0  0
  145.0010   73.4000  219.0470 C   0  0  0  0  0  0  0  0  0  0  0  0
  143.6800   73.8360  219.6670 C   0  0  1  0  0  0  0  0  0  0  0  0
  143.2630   75.1280  219.0510 C   0  0  0  0  0  0  0  0  0  0  0  0
  143.1810   75.2860  217.6850 C   0  0  0  0  0  0  0  0  0  0  0  0
  142.7930   76.4910  217.1150 C   0  0  0  0  0  0  0  0  0  0  0  0
  142.4730   77.5810  217.8960 C   0  0  0  0  0  0  0  0  0  0  0  0
  142.5500   77.4390  219.2780 C   0  0  0  0  0  0  0  0  0  0  0  0
  142.9400   76.2270  219.8400 C   0  0  0  0  0  0  0  0  0  0  0  0
  139.9530   71.4480  223.3260 C   0  0  0  0  0  0  0  0  0  0  0  0
  139.2830   70.2400  223.3160 C   0  0  0  0  0  0  0  0  0  0  0  0
  139.1990   69.4520  224.4550 C   0  0  0  0  0  0  0  0  0  0  0  0
  139.8200   69.9450  225.5980 C   0  0  0  0  0  0  0  0  0  0  0  0
  139.7240   69.1470  226.7240 C   0  0  0  0  0  0  0  0  0  0  0  0
  140.3450   69.6310  227.8770 C   0  0  0  0  0  0  0  0  0  0  0  0
  140.2670   68.8630  229.0040 F   0  0  0  0  0  0  0  0  0  0  0  0
  141.0070   70.8350  227.8700 C   0  0  0  0  0  0  0  0  0  0  0  0
  141.0890   71.6180  226.7320 C   0  0  0  0  0  0  0  0  0  0  0  0
  140.4840   71.1550  225.5880 C   0  0  0  0  0  0  0  0  0  0  0  0
  140.5320   71.8650  224.4650 N   0  0  0  0  0  0  0  0  0  0  0  0
  141.4440   73.6210  222.7940 H   0  0  0  0  0  0  0  0  0  0  0  0
  139.8246   74.3877  220.4837 H   0  0  0  0  0  0  0  0  0  0  0  0
  141.5150   74.9421  220.8137 H   0  0  0  0  0  0  0  0  0  0  0  0
  141.8516   70.8960  219.5162 H   0  0  0  0  0  0  0  0  0  0  0  0
  143.0703   71.2630  218.1843 H   0  0  0  0  0  0  0  0  0  0  0  0
  143.7911   70.9102  221.0623 H   0  0  0  0  0  0  0  0  0  0  0  0
  143.7563   69.5803  219.8110 H   0  0  0  0  0  0  0  0  0  0  0  0
  145.9925   70.3129  219.9756 H   0  0  0  0  0  0  0  0  0  0  0  0
  145.2865   70.9855  218.4377 H   0  0  0  0  0  0  0  0  0  0  0  0
  145.3674   72.5930  220.9840 H   0  0  0  0  0  0  0  0  0  0  0  0
  146.7652   72.5241  219.8600 H   0  0  0  0  0  0  0  0  0  0  0  0
  145.6510   74.2777  218.9157 H   0  0  0  0  0  0  0  0  0  0  0  0
  144.8092   72.9339  218.0693 H   0  0  0  0  0  0  0  0  0  0  0  0
  143.7809   74.0088  220.7487 H   0  0  0  0  0  0  0  0  0  0  0  0
  143.4288   74.4374  217.0304 H   0  0  0  0  0  0  0  0  0  0  0  0
  142.7399   76.5776  216.0197 H   0  0  0  0  0  0  0  0  0  0  0  0
  142.1661   78.5341  217.4404 H   0  0  0  0  0  0  0  0  0  0  0  0
  142.3013   78.2894  219.9299 H   0  0  0  0  0  0  0  0  0  0  0  0
  142.9941   76.1360  220.9349 H   0  0  0  0  0  0  0  0  0  0  0  0
  138.8064   69.8958  222.3863 H   0  0  0  0  0  0  0  0  0  0  0  0
  138.6691   68.4880  224.4542 H   0  0  0  0  0  0  0  0  0  0  0  0
  139.1889   68.1860  226.7116 H   0  0  0  0  0  0  0  0  0  0  0  0
  141.4857   71.1867  228.7958 H   0  0  0  0  0  0  0  0  0  0  0  0
  141.6215   72.5805  226.7426 H   0  0  0  0  0  0  0  0  0  0  0  0
  1  2  2  0
  2  3  1  0
  3  4  1  0
  4  5  1  0
  5  6  2  0
  5  7  1  0
  7  8  1  0
  8  9  1  0
  9 10  1  0
 10 11  1  0
 11 12  1  0
 12 13  1  0
 13 14  1  0
 14 15  2  0
 15 16  1  0
 16 17  2  0
 17 18  1  0
 18 19  2  0
  2 20  1  0
 20 21  2  0
 21 22  1  0
 22 23  2  0
 23 24  1  0
 24 25  2  0
 25 26  1  0
 25 27  1  0
 27 28  2  0
 28 29  1  0
 29 30  2  0
 13  7  1  0
 19 14  1  0
 30 20  1  0
 29 23  1  0
  3 31  1  0
  4 32  1  0
  4 33  1  0
  8 34  1  0
  8 35  1  0
  9 36  1  0
  9 37  1  0
 10 38  1  0
 10 39  1  0
 11 40  1  0
 11 41  1  0
 12 42  1  0
 12 43  1  0
 13 44  1  1
 15 45  1  0
 16 46  1  0
 17 47  1  0
 18 48  1  0
 19 49  1  0
 21 50  1  0
 22 51  1  0
 24 52  1  0
 27 53  1  0
 28 54  1  0
M  END
>  <smiles>  (92) 
O=C(NCC(=O)N1CCCCCC1c1ccccc1)c1ccc2cc(F)ccc2n1

>  <score_type>  (92) 
oracle

>  <origin>  (92) 
autodockgpu

>  <m_score__min__energy>  (92) 
-6.8700000000000001

>  <m_primary>  (92) 
energy

>  <rmsd>  (92) 
3.492554296914652

>  <m_score__min__rmsd>  (92) 
3.492554296914652

>  <meeko>  (92) 
{"free_energy": -4.96, "intermolecular_energy": -8.24, "internal_energy": -1.81, "cluster_size": 16, "cluster_id": 3, "rank_in_cluster": 14}

>  <energy>  (92) 
-4.92

>  <cluster_rmsd>  (92) 
1.2

>  <cluster>  (92) 
3

$$$$

     RDKit          3D

 54 57  0  0  0  0  0  0  0  0999 V2000
  140.5830   74.1410  221.8890 O   0  0  0  0  0  0  0  0  0  0  0  0
  141.4200   74.9260  221.3840 C   0  0  0  0  0  0  0  0  0  0  0  0
  141.3230   76.3060  221.7510 N   0  0  0  0  0  0  0  0  0  0  0  0
  140.2640   76.6770  222.6780 C   0  0  0  0  0  0  0  0  0  0  0  0
  140.0430   78.1440  222.6820 C   0  0  0  0  0  0  0  0  0  0  0  0
  138.9470   78.6030  223.1540 O   0  0  0  0  0  0  0  0  0  0  0  0
  140.9890   79.0830  222.1860 N   0  0  0  0  0  0  0  0  0  0  0  0
  142.2270   79.0760  222.9390 C   0  0  0  0  0  0  0  0  0  0  0  0
  142.3740   80.1660  223.9370 C   0  0  0  0  0  0  0  0  0  0  0  0
  141.8250   81.4930  223.4640 C   0  0  0  0  0  0  0  0  0  0  0  0
  141.9080   81.6560  221.9750 C   0  0  0  0  0  0  0  0  0  0  0  0
  140.5840   81.3260  221.3700 C   0  0  0  0  0  0  0  0  0  0  0  0
  140.5270   79.8390  221.0450 C   0  0  1  0  0  0  0  0  0  0  0  0
  141.3190   79.5850  219.8080 C   0  0  0  0  0  0  0  0  0  0  0  0
  141.8190   80.6160  219.0440 C   0  0  0  0  0  0  0  0  0  0  0  0
  142.5560   80.3750  217.8930 C   0  0  0  0  0  0  0  0  0  0  0  0
  142.8170   79.0910  217.4650 C   0  0  0  0  0  0  0  0  0  0  0  0
  142.3190   78.0360  218.2260 C   0  0  0  0  0  0  0  0  0  0  0  0
  141.5820   78.2880  219.3790 C   0  0  0  0  0  0  0  0  0  0  0  0
  142.4630   74.5010  220.4590 C   0  0  0  0  0  0  0  0  0  0  0  0
  143.2780   73.4560  220.8510 C   0  0  0  0  0  0  0  0  0  0  0  0
  144.2950   72.9870  220.0330 C   0  0  0  0  0  0  0  0  0  0  0  0
  144.4480   73.6250  218.8050 C   0  0  0  0  0  0  0  0  0  0  0  0
  145.4670   73.1450  218.0030 C   0  0  0  0  0  0  0  0  0  0  0  0
  145.6290   73.7760  216.7680 C   0  0  0  0  0  0  0  0  0  0  0  0
  146.6280   73.3230  215.9550 F   0  0  0  0  0  0  0  0  0  0  0  0
  144.8100   74.8150  216.3930 C   0  0  0  0  0  0  0  0  0  0  0  0
  143.7960   75.2790  217.2130 C   0  0  0  0  0  0  0  0  0  0  0  0
  143.6240   74.6670  218.4320 C   0  0  0  0  0  0  0  0  0  0  0  0
  142.6650   75.0720  219.2590 N   0  0  0  0  0  0  0  0  0  0  0  0
  142.0010   76.9930  221.3530 H   0  0  0  0  0  0  0  0  0  0  0  0
  139.3325   76.1748  222.3779 H   0  0  0  0  0  0  0  0  0  0  0  0
  140.5634   76.3674  223.6902 H   0  0  0  0  0  0  0  0  0  0  0  0
  142.2937   78.1165  223.4727 H   0  0  0  0  0  0  0  0  0  0  0  0
  143.0295   79.2302  222.2026 H   0  0  0  0  0  0  0  0  0  0  0  0
  141.8393   79.8742  224.8529 H   0  0  0  0  0  0  0  0  0  0  0  0
  143.4515   80.3041  224.1099 H   0  0  0  0  0  0  0  0  0  0  0  0
  140.7703   81.5659  223.7678 H   0  0  0  0  0  0  0  0  0  0  0  0
  142.4353   82.2866  223.9198 H   0  0  0  0  0  0  0  0  0  0  0  0
  142.1741   82.6955  221.7331 H   0  0  0  0  0  0  0  0  0  0  0  0
  142.6769   80.9806  221.5718 H   0  0  0  0  0  0  0  0  0  0  0  0
  139.7836   81.5760  222.0820 H   0  0  0  0  0  0  0  0  0  0  0  0
  140.4496   81.9073  220.4458 H   0  0  0  0  0  0  0  0  0  0  0  0
  139.4964   79.5113  220.8439 H   0  0  0  0  0  0  0  0  0  0  0  0
  141.6298   81.6546  219.3532 H   0  0  0  0  0  0  0  0  0  0  0  0
  142.9396   81.2257  217.3106 H   0  0  0  0  0  0  0  0  0  0  0  0
  143.4003   78.9053  216.5511 H   0  0  0  0  0  0  0  0  0  0  0  0
  142.5093   76.9985  217.9139 H   0  0  0  0  0  0  0  0  0  0  0  0
  141.1978   77.4407  219.9659 H   0  0  0  0  0  0  0  0  0  0  0  0
  143.1167   72.9863  221.8325 H   0  0  0  0  0  0  0  0  0  0  0  0
  144.9464   72.1548  220.3383 H   0  0  0  0  0  0  0  0  0  0  0  0
  146.1133   72.3132  218.3199 H   0  0  0  0  0  0  0  0  0  0  0  0
  144.9651   75.2909  215.4135 H   0  0  0  0  0  0  0  0  0  0  0  0
  143.1484   76.1110  216.8993 H   0  0  0  0  0  0  0  0  0  0  0  0
  1  2  2  0
  2  3  1  0
  3  4  1  0
  4  5  1  0
  5  6  2  0
  5  7  1  0
  7  8  1  0
  8  9  1  0
  9 10  1  0
 10 11  1  0
 11 12  1  0
 12 13  1  0
 13 14  1  0
 14 15  2  0
 15 16  1  0
 16 17  2  0
 17 18  1  0
 18 19  2  0
  2 20  1  0
 20 21  2  0
 21 22  1  0
 22 23  2  0
 23 24  1  0
 24 25  2  0
 25 26  1  0
 25 27  1  0
 27 28  2  0
 28 29  1  0
 29 30  2  0
 13  7  1  0
 19 14  1  0
 30 20  1  0
 29 23  1  0
  3 31  1  0
  4 32  1  0
  4 33  1  0
  8 34  1  0
  8 35  1  0
  9 36  1  0
  9 37  1  0
 10 38  1  0
 10 39  1  0
 11 40  1  0
 11 41  1  0
 12 42  1  0
 12 43  1  0
 13 44  1  6
 15 45  1  0
 16 46  1  0
 17 47  1  0
 18 48  1  0
 19 49  1  0
 21 50  1  0
 22 51  1  0
 24 52  1  0
 27 53  1  0
 28 54  1  0
M  END
>  <smiles>  (93) 
O=C(NCC(=O)N1CCCCCC1c1ccccc1)c1ccc2cc(F)ccc2n1

>  <score_type>  (93) 
oracle

>  <origin>  (93) 
autodockgpu

>  <m_score__min__energy>  (93) 
-6.8700000000000001

>  <m_primary>  (93) 
energy

>  <rmsd>  (93) 
7.944445604245426

>  <m_score__min__rmsd>  (93) 
7.944445604245426

>  <meeko>  (93) 
{"free_energy": -5.03, "intermolecular_energy": -8.31, "internal_energy": -2.21, "cluster_size": 1, "cluster_id": 7, "rank_in_cluster": 1}

>  <energy>  (93) 
-4.6

>  <cluster_rmsd>  (93) 
1.64

>  <cluster>  (93) 
3

$$$$

     RDKit          3D

 54 57  0  0  0  0  0  0  0  0999 V2000
  140.1540   71.5170  221.1620 O   0  0  0  0  0  0  0  0  0  0  0  0
  139.9590   71.9600  222.3200 C   0  0  0  0  0  0  0  0  0  0  0  0
  139.7260   73.3660  222.4490 N   0  0  0  0  0  0  0  0  0  0  0  0
  139.7350   74.1590  221.2280 C   0  0  0  0  0  0  0  0  0  0  0  0
  140.0500   75.5800  221.5140 C   0  0  0  0  0  0  0  0  0  0  0  0
  139.8890   76.0230  222.7020 O   0  0  0  0  0  0  0  0  0  0  0  0
  140.5240   76.4940  220.5320 N   0  0  0  0  0  0  0  0  0  0  0  0
  139.5780   76.6910  219.4530 C   0  0  0  0  0  0  0  0  0  0  0  0
  140.1210   77.3520  218.2390 C   0  0  0  0  0  0  0  0  0  0  0  0
  141.3140   76.6360  217.6470 C   0  0  0  0  0  0  0  0  0  0  0  0
  142.0810   75.8470  218.6670 C   0  0  0  0  0  0  0  0  0  0  0  0
  142.7460   76.7850  219.6170 C   0  0  0  0  0  0  0  0  0  0  0  0
  141.8340   77.0320  220.8120 C   0  0  1  0  0  0  0  0  0  0  0  0
  141.8210   78.4920  221.1140 C   0  0  0  0  0  0  0  0  0  0  0  0
  141.7980   79.4390  220.1130 C   0  0  0  0  0  0  0  0  0  0  0  0
  141.7860   80.7970  220.3990 C   0  0  0  0  0  0  0  0  0  0  0  0
  141.7970   81.2550  221.7000 C   0  0  0  0  0  0  0  0  0  0  0  0
  141.8200   80.3120  222.7230 C   0  0  0  0  0  0  0  0  0  0  0  0
  141.8310   78.9520  222.4270 C   0  0  0  0  0  0  0  0  0  0  0  0
  139.9600   71.1200  223.5110 C   0  0  0  0  0  0  0  0  0  0  0  0
  139.3950   69.8630  223.4070 C   0  0  0  0  0  0  0  0  0  0  0  0
  139.3540   68.9980  224.4910 C   0  0  0  0  0  0  0  0  0  0  0  0
  139.9070   69.4650  225.6790 C   0  0  0  0  0  0  0  0  0  0  0  0
  139.8560   68.5900  226.7490 C   0  0  0  0  0  0  0  0  0  0  0  0
  140.4100   69.0480  227.9460 C   0  0  0  0  0  0  0  0  0  0  0  0
  140.3740   68.2040  229.0200 F   0  0  0  0  0  0  0  0  0  0  0  0
  140.9680   70.3010  228.0340 C   0  0  0  0  0  0  0  0  0  0  0  0
  141.0070   71.1600  226.9490 C   0  0  0  0  0  0  0  0  0  0  0  0
  140.4670   70.7240  225.7630 C   0  0  0  0  0  0  0  0  0  0  0  0
  140.4770   71.5080  224.6900 N   0  0  0  0  0  0  0  0  0  0  0  0
  139.5590   73.7750  223.3950 H   0  0  0  0  0  0  0  0  0  0  0  0
  140.4942   73.7540  220.5427 H   0  0  0  0  0  0  0  0  0  0  0  0
  138.7351   74.1086  220.7724 H   0  0  0  0  0  0  0  0  0  0  0  0
  139.1910   75.7047  219.1574 H   0  0  0  0  0  0  0  0  0  0  0  0
  138.8075   77.3699  219.8473 H   0  0  0  0  0  0  0  0  0  0  0  0
  139.3265   77.3923  217.4793 H   0  0  0  0  0  0  0  0  0  0  0  0
  140.4606   78.3541  218.5398 H   0  0  0  0  0  0  0  0  0  0  0  0
  140.9593   75.9489  216.8646 H   0  0  0  0  0  0  0  0  0  0  0  0
  141.9920   77.4007  217.2402 H   0  0  0  0  0  0  0  0  0  0  0  0
  141.3913   75.1920  219.2195 H   0  0  0  0  0  0  0  0  0  0  0  0
  142.8413   75.2328  218.1624 H   0  0  0  0  0  0  0  0  0  0  0  0
  143.6928   76.3452  219.9635 H   0  0  0  0  0  0  0  0  0  0  0  0
  142.9483   77.7389  219.1079 H   0  0  0  0  0  0  0  0  0  0  0  0
  142.2021   76.5168  221.7115 H   0  0  0  0  0  0  0  0  0  0  0  0
  141.7890   79.1109  219.0631 H   0  0  0  0  0  0  0  0  0  0  0  0
  141.7673   81.5222  219.5721 H   0  0  0  0  0  0  0  0  0  0  0  0
  141.7879   82.3323  221.9220 H   0  0  0  0  0  0  0  0  0  0  0  0
  141.8296   80.6433  223.7719 H   0  0  0  0  0  0  0  0  0  0  0  0
  141.8480   78.2234  223.2509 H   0  0  0  0  0  0  0  0  0  0  0  0
  138.9691   69.5417  222.4450 H   0  0  0  0  0  0  0  0  0  0  0  0
  138.9076   67.9955  224.4150 H   0  0  0  0  0  0  0  0  0  0  0  0
  139.4048   67.5906  226.6619 H   0  0  0  0  0  0  0  0  0  0  0  0
  141.3952   70.6303  228.9927 H   0  0  0  0  0  0  0  0  0  0  0  0
  141.4563   72.1605  227.0337 H   0  0  0  0  0  0  0  0  0  0  0  0
  1  2  2  0
  2  3  1  0
  3  4  1  0
  4  5  1  0
  5  6  2  0
  5  7  1  0
  7  8  1  0
  8  9  1  0
  9 10  1  0
 10 11  1  0
 11 12  1  0
 12 13  1  0
 13 14  1  0
 14 15  2  0
 15 16  1  0
 16 17  2  0
 17 18  1  0
 18 19  2  0
  2 20  1  0
 20 21  2  0
 21 22  1  0
 22 23  2  0
 23 24  1  0
 24 25  2  0
 25 26  1  0
 25 27  1  0
 27 28  2  0
 28 29  1  0
 29 30  2  0
 13  7  1  0
 19 14  1  0
 30 20  1  0
 29 23  1  0
  3 31  1  0
  4 32  1  0
  4 33  1  0
  8 34  1  0
  8 35  1  0
  9 36  1  0
  9 37  1  0
 10 38  1  0
 10 39  1  0
 11 40  1  0
 11 41  1  0
 12 42  1  0
 12 43  1  0
 13 44  1  1
 15 45  1  0
 16 46  1  0
 17 47  1  0
 18 48  1  0
 19 49  1  0
 21 50  1  0
 22 51  1  0
 24 52  1  0
 27 53  1  0
 28 54  1  0
M  END
>  <smiles>  (94) 
O=C(NCC(=O)N1CCCCCC1c1ccccc1)c1ccc2cc(F)ccc2n1

>  <score_type>  (94) 
oracle

>  <origin>  (94) 
autodockgpu

>  <m_score__min__energy>  (94) 
-6.8700000000000001

>  <m_primary>  (94) 
energy

>  <rmsd>  (94) 
1.4781984397336936

>  <m_score__min__rmsd>  (94) 
1.4781984397336936

>  <meeko>  (94) 
{"free_energy": -6.36, "intermolecular_energy": -9.64, "internal_energy": -1.98, "cluster_size": 11, "cluster_id": 1, "rank_in_cluster": 8}

>  <energy>  (94) 
-6.15

>  <cluster_rmsd>  (94) 
0.0

>  <cluster>  (94) 
4

$$$$

     RDKit          3D

 54 57  0  0  0  0  0  0  0  0999 V2000
  139.1510   71.7130  220.9180 O   0  0  0  0  0  0  0  0  0  0  0  0
  139.4610   72.1900  222.0360 C   0  0  0  0  0  0  0  0  0  0  0  0
  139.6260   73.6090  222.1150 N   0  0  0  0  0  0  0  0  0  0  0  0
  139.4200   74.3750  220.8940 C   0  0  0  0  0  0  0  0  0  0  0  0
  140.4590   74.0630  219.8830 C   0  0  0  0  0  0  0  0  0  0  0  0
  140.1570   74.1370  218.6430 O   0  0  0  0  0  0  0  0  0  0  0  0
  141.7890   73.6800  220.2130 N   0  0  0  0  0  0  0  0  0  0  0  0
  142.0070   72.2540  220.0750 C   0  0  0  0  0  0  0  0  0  0  0  0
  143.1500   71.7050  220.8470 C   0  0  0  0  0  0  0  0  0  0  0  0
  144.4940   72.2110  220.3730 C   0  0  0  0  0  0  0  0  0  0  0  0
  144.7900   73.6020  220.8490 C   0  0  0  0  0  0  0  0  0  0  0  0
  144.0280   74.5780  220.0180 C   0  0  0  0  0  0  0  0  0  0  0  0
  142.6380   74.7780  220.6090 C   0  0  1  0  0  0  0  0  0  0  0  0
  142.1200   76.1090  220.1810 C   0  0  0  0  0  0  0  0  0  0  0  0
  141.4200   76.9250  221.0430 C   0  0  0  0  0  0  0  0  0  0  0  0
  140.9390   78.1630  220.6410 C   0  0  0  0  0  0  0  0  0  0  0  0
  141.1420   78.6280  219.3590 C   0  0  0  0  0  0  0  0  0  0  0  0
  141.8470   77.8160  218.4750 C   0  0  0  0  0  0  0  0  0  0  0  0
  142.3260   76.5760  218.8870 C   0  0  0  0  0  0  0  0  0  0  0  0
  139.6560   71.3770  223.2300 C   0  0  0  0  0  0  0  0  0  0  0  0
  139.2840   70.0480  223.1650 C   0  0  0  0  0  0  0  0  0  0  0  0
  139.4350   69.2020  224.2550 C   0  0  0  0  0  0  0  0  0  0  0  0
  139.9770   69.7640  225.4060 C   0  0  0  0  0  0  0  0  0  0  0  0
  140.1200   68.9060  226.4820 C   0  0  0  0  0  0  0  0  0  0  0  0
  140.6630   69.4600  227.6430 C   0  0  0  0  0  0  0  0  0  0  0  0
  140.8160   68.6360  228.7220 F   0  0  0  0  0  0  0  0  0  0  0  0
  141.0280   70.7840  227.6920 C   0  0  0  0  0  0  0  0  0  0  0  0
  140.8760   71.6240  226.6020 C   0  0  0  0  0  0  0  0  0  0  0  0
  140.3430   71.0940  225.4510 C   0  0  0  0  0  0  0  0  0  0  0  0
  140.1740   71.8550  224.3740 N   0  0  0  0  0  0  0  0  0  0  0  0
  139.8840   74.0470  223.0280 H   0  0  0  0  0  0  0  0  0  0  0  0
  138.4310   74.1300  220.4794 H   0  0  0  0  0  0  0  0  0  0  0  0
  139.4835   75.4453  221.1396 H   0  0  0  0  0  0  0  0  0  0  0  0
  141.0943   71.7378  220.4074 H   0  0  0  0  0  0  0  0  0  0  0  0
  142.2498   72.0866  219.0153 H   0  0  0  0  0  0  0  0  0  0  0  0
  143.0244   71.9860  221.9031 H   0  0  0  0  0  0  0  0  0  0  0  0
  143.1447   70.6145  220.7032 H   0  0  0  0  0  0  0  0  0  0  0  0
  145.2768   71.5362  220.7497 H   0  0  0  0  0  0  0  0  0  0  0  0
  144.4711   72.2342  219.2735 H   0  0  0  0  0  0  0  0  0  0  0  0
  144.4892   73.7021  221.9023 H   0  0  0  0  0  0  0  0  0  0  0  0
  145.8678   73.8019  220.7580 H   0  0  0  0  0  0  0  0  0  0  0  0
  144.5610   75.5401  220.0026 H   0  0  0  0  0  0  0  0  0  0  0  0
  143.9363   74.1909  218.9924 H   0  0  0  0  0  0  0  0  0  0  0  0
  142.6650   74.7772  221.7087 H   0  0  0  0  0  0  0  0  0  0  0  0
  141.2383   76.5871  222.0739 H   0  0  0  0  0  0  0  0  0  0  0  0
  140.3850   78.7855  221.3591 H   0  0  0  0  0  0  0  0  0  0  0  0
  140.7588   79.6100  219.0445 H   0  0  0  0  0  0  0  0  0  0  0  0
  142.0266   78.1565  217.4446 H   0  0  0  0  0  0  0  0  0  0  0  0
  142.8807   75.9503  218.1723 H   0  0  0  0  0  0  0  0  0  0  0  0
  138.8596   69.6523  222.2305 H   0  0  0  0  0  0  0  0  0  0  0  0
  139.1414   68.1428  224.2108 H   0  0  0  0  0  0  0  0  0  0  0  0
  139.8230   67.8483  226.4260 H   0  0  0  0  0  0  0  0  0  0  0  0
  141.4527   71.1875  228.6230 H   0  0  0  0  0  0  0  0  0  0  0  0
  141.1724   72.6820  226.6553 H   0  0  0  0  0  0  0  0  0  0  0  0
  1  2  2  0
  2  3  1  0
  3  4  1  0
  4  5  1  0
  5  6  2  0
  5  7  1  0
  7  8  1  0
  8  9  1  0
  9 10  1  0
 10 11  1  0
 11 12  1  0
 12 13  1  0
 13 14  1  0
 14 15  2  0
 15 16  1  0
 16 17  2  0
 17 18  1  0
 18 19  2  0
  2 20  1  0
 20 21  2  0
 21 22  1  0
 22 23  2  0
 23 24  1  0
 24 25  2  0
 25 26  1  0
 25 27  1  0
 27 28  2  0
 28 29  1  0
 29 30  2  0
 13  7  1  0
 19 14  1  0
 30 20  1  0
 29 23  1  0
  3 31  1  0
  4 32  1  0
  4 33  1  0
  8 34  1  0
  8 35  1  0
  9 36  1  0
  9 37  1  0
 10 38  1  0
 10 39  1  0
 11 40  1  0
 11 41  1  0
 12 42  1  0
 12 43  1  0
 13 44  1  1
 15 45  1  0
 16 46  1  0
 17 47  1  0
 18 48  1  0
 19 49  1  0
 21 50  1  0
 22 51  1  0
 24 52  1  0
 27 53  1  0
 28 54  1  0
M  END
>  <smiles>  (95) 
O=C(NCC(=O)N1CCCCCC1c1ccccc1)c1ccc2cc(F)ccc2n1

>  <score_type>  (95) 
oracle

>  <origin>  (95) 
autodockgpu

>  <m_score__min__energy>  (95) 
-6.8700000000000001

>  <m_primary>  (95) 
energy

>  <rmsd>  (95) 
2.7868873706337363

>  <m_score__min__rmsd>  (95) 
2.7868873706337363

>  <meeko>  (95) 
{"free_energy": -5.46, "intermolecular_energy": -8.74, "internal_energy": -2.12, "cluster_size": 16, "cluster_id": 3, "rank_in_cluster": 10}

>  <energy>  (95) 
-5.68

>  <cluster_rmsd>  (95) 
1.0

>  <cluster>  (95) 
4

$$$$

     RDKit          3D

 54 57  0  0  0  0  0  0  0  0999 V2000
  140.2690   73.6070  222.2890 O   0  0  0  0  0  0  0  0  0  0  0  0
  140.2170   72.3550  222.2490 C   0  0  0  0  0  0  0  0  0  0  0  0
  140.2560   71.7420  220.9560 N   0  0  0  0  0  0  0  0  0  0  0  0
  140.3520   72.6240  219.8020 C   0  0  0  0  0  0  0  0  0  0  0  0
  141.6340   72.4310  219.0830 C   0  0  0  0  0  0  0  0  0  0  0  0
  141.6110   72.2340  217.8200 O   0  0  0  0  0  0  0  0  0  0  0  0
  142.9050   72.4480  219.7220 N   0  0  0  0  0  0  0  0  0  0  0  0
  143.5560   71.1530  219.7000 C   0  0  0  0  0  0  0  0  0  0  0  0
  144.8620   71.1060  218.9950 C   0  0  0  0  0  0  0  0  0  0  0  0
  145.9480   71.8980  219.6890 C   0  0  0  0  0  0  0  0  0  0  0  0
  145.6600   73.3700  219.7220 C   0  0  0  0  0  0  0  0  0  0  0  0
  144.6920   73.6550  220.8210 C   0  0  0  0  0  0  0  0  0  0  0  0
  143.2820   73.7370  220.2500 C   0  0  1  0  0  0  0  0  0  0  0  0
  143.2360   74.8280  219.2350 C   0  0  0  0  0  0  0  0  0  0  0  0
  143.5710   74.6070  217.9180 C   0  0  0  0  0  0  0  0  0  0  0  0
  143.5280   75.6250  216.9770 C   0  0  0  0  0  0  0  0  0  0  0  0
  143.1470   76.9050  217.3230 C   0  0  0  0  0  0  0  0  0  0  0  0
  142.8050   77.1460  218.6500 C   0  0  0  0  0  0  0  0  0  0  0  0
  142.8510   76.1180  219.5870 C   0  0  0  0  0  0  0  0  0  0  0  0
  140.1210   71.5160  223.4380 C   0  0  0  0  0  0  0  0  0  0  0  0
  139.4470   70.3160  223.3210 C   0  0  0  0  0  0  0  0  0  0  0  0
  139.3090   69.4570  224.4010 C   0  0  0  0  0  0  0  0  0  0  0  0
  139.8810   69.8710  225.6000 C   0  0  0  0  0  0  0  0  0  0  0  0
  139.7330   69.0030  226.6660 C   0  0  0  0  0  0  0  0  0  0  0  0
  140.3040   69.4070  227.8750 C   0  0  0  0  0  0  0  0  0  0  0  0
  140.1740   68.5690  228.9460 F   0  0  0  0  0  0  0  0  0  0  0  0
  140.9710   70.6050  227.9750 C   0  0  0  0  0  0  0  0  0  0  0  0
  141.1070   71.4590  226.8940 C   0  0  0  0  0  0  0  0  0  0  0  0
  140.5500   71.0740  225.6970 C   0  0  0  0  0  0  0  0  0  0  0  0
  140.6510   71.8550  224.6260 N   0  0  0  0  0  0  0  0  0  0  0  0
  140.2140   70.7010  220.8780 H   0  0  0  0  0  0  0  0  0  0  0  0
  139.5200   72.4082  219.1156 H   0  0  0  0  0  0  0  0  0  0  0  0
  140.3047   73.6647  220.1550 H   0  0  0  0  0  0  0  0  0  0  0  0
  143.7214   70.8391  220.7412 H   0  0  0  0  0  0  0  0  0  0  0  0
  142.8850   70.4872  219.1375 H   0  0  0  0  0  0  0  0  0  0  0  0
  145.1845   70.0565  218.9280 H   0  0  0  0  0  0  0  0  0  0  0  0
  144.7125   71.5591  218.0038 H   0  0  0  0  0  0  0  0  0  0  0  0
  146.0424   71.5346  220.7229 H   0  0  0  0  0  0  0  0  0  0  0  0
  146.8788   71.7543  219.1207 H   0  0  0  0  0  0  0  0  0  0  0  0
  146.5935   73.9238  219.9009 H   0  0  0  0  0  0  0  0  0  0  0  0
  145.2302   73.6846  218.7596 H   0  0  0  0  0  0  0  0  0  0  0  0
  144.7383   72.8490  221.5681 H   0  0  0  0  0  0  0  0  0  0  0  0
  144.9503   74.6126  221.2968 H   0  0  0  0  0  0  0  0  0  0  0  0
  142.5471   73.9867  221.0295 H   0  0  0  0  0  0  0  0  0  0  0  0
  143.8802   73.5989  217.6046 H   0  0  0  0  0  0  0  0  0  0  0  0
  143.8031   75.4075  215.9344 H   0  0  0  0  0  0  0  0  0  0  0  0
  143.1146   77.7095  216.5736 H   0  0  0  0  0  0  0  0  0  0  0  0
  142.4964   78.1552  218.9604 H   0  0  0  0  0  0  0  0  0  0  0  0
  142.5765   76.3303  220.6308 H   0  0  0  0  0  0  0  0  0  0  0  0
  139.0106   70.0358  222.3509 H   0  0  0  0  0  0  0  0  0  0  0  0
  138.7755   68.4989  224.3143 H   0  0  0  0  0  0  0  0  0  0  0  0
  139.1959   68.0481  226.5675 H   0  0  0  0  0  0  0  0  0  0  0  0
  141.4092   70.8933  228.9419 H   0  0  0  0  0  0  0  0  0  0  0  0
  141.6433   72.4147  226.9894 H   0  0  0  0  0  0  0  0  0  0  0  0
  1  2  2  0
  2  3  1  0
  3  4  1  0
  4  5  1  0
  5  6  2  0
  5  7  1  0
  7  8  1  0
  8  9  1  0
  9 10  1  0
 10 11  1  0
 11 12  1  0
 12 13  1  0
 13 14  1  0
 14 15  2  0
 15 16  1  0
 16 17  2  0
 17 18  1  0
 18 19  2  0
  2 20  1  0
 20 21  2  0
 21 22  1  0
 22 23  2  0
 23 24  1  0
 24 25  2  0
 25 26  1  0
 25 27  1  0
 27 28  2  0
 28 29  1  0
 29 30  2  0
 13  7  1  0
 19 14  1  0
 30 20  1  0
 29 23  1  0
  3 31  1  0
  4 32  1  0
  4 33  1  0
  8 34  1  0
  8 35  1  0
  9 36  1  0
  9 37  1  0
 10 38  1  0
 10 39  1  0
 11 40  1  0
 11 41  1  0
 12 42  1  0
 12 43  1  0
 13 44  1  1
 15 45  1  0
 16 46  1  0
 17 47  1  0
 18 48  1  0
 19 49  1  0
 21 50  1  0
 22 51  1  0
 24 52  1  0
 27 53  1  0
 28 54  1  0
M  END
>  <smiles>  (96) 
O=C(NCC(=O)N1CCCCCC1c1ccccc1)c1ccc2cc(F)ccc2n1

>  <score_type>  (96) 
oracle

>  <origin>  (96) 
autodockgpu

>  <m_score__min__energy>  (96) 
-6.8700000000000001

>  <m_primary>  (96) 
energy

>  <rmsd>  (96) 
3.766917792466938

>  <m_score__min__rmsd>  (96) 
3.766917792466938

>  <meeko>  (96) 
{"free_energy": -5.97, "intermolecular_energy": -9.25, "internal_energy": -1.7, "cluster_size": 16, "cluster_id": 3, "rank_in_cluster": 5}

>  <energy>  (96) 
-5.13

>  <cluster_rmsd>  (96) 
0.0

>  <cluster>  (96) 
5

$$$$

     RDKit          3D

 54 57  0  0  0  0  0  0  0  0999 V2000
  140.1850   71.8180  221.0840 O   0  0  0  0  0  0  0  0  0  0  0  0
  139.9650   72.2740  222.2320 C   0  0  0  0  0  0  0  0  0  0  0  0
  139.6830   73.6740  222.3330 N   0  0  0  0  0  0  0  0  0  0  0  0
  139.6750   74.4440  221.0980 C   0  0  0  0  0  0  0  0  0  0  0  0
  140.5770   75.6180  221.1910 C   0  0  0  0  0  0  0  0  0  0  0  0
  140.3680   76.4880  222.1050 O   0  0  0  0  0  0  0  0  0  0  0  0
  141.6750   75.8390  220.3140 N   0  0  0  0  0  0  0  0  0  0  0  0
  142.1870   77.1920  220.3950 C   0  0  0  0  0  0  0  0  0  0  0  0
  141.8010   78.0900  219.2770 C   0  0  0  0  0  0  0  0  0  0  0  0
  142.1120   77.5180  217.9120 C   0  0  0  0  0  0  0  0  0  0  0  0
  143.0180   76.3240  217.9760 C   0  0  0  0  0  0  0  0  0  0  0  0
  142.1910   75.0850  218.0730 C   0  0  0  0  0  0  0  0  0  0  0  0
  142.0490   74.6820  219.5350 C   0  0  1  0  0  0  0  0  0  0  0  0
  143.3220   74.0520  219.9870 C   0  0  0  0  0  0  0  0  0  0  0  0
  143.4800   72.6840  220.0220 C   0  0  0  0  0  0  0  0  0  0  0  0
  144.6670   72.1020  220.4450 C   0  0  0  0  0  0  0  0  0  0  0  0
  145.7380   72.8700  220.8490 C   0  0  0  0  0  0  0  0  0  0  0  0
  145.5950   74.2550  220.8200 C   0  0  0  0  0  0  0  0  0  0  0  0
  144.4010   74.8300  220.3940 C   0  0  0  0  0  0  0  0  0  0  0  0
  139.9860   71.4570  223.4380 C   0  0  0  0  0  0  0  0  0  0  0  0
  139.4910   70.1700  223.3470 C   0  0  0  0  0  0  0  0  0  0  0  0
  139.4730   69.3240  224.4450 C   0  0  0  0  0  0  0  0  0  0  0  0
  139.9750   69.8400  225.6350 C   0  0  0  0  0  0  0  0  0  0  0  0
  139.9490   68.9830  226.7210 C   0  0  0  0  0  0  0  0  0  0  0  0
  140.4510   69.4910  227.9200 C   0  0  0  0  0  0  0  0  0  0  0  0
  140.4380   68.6660  229.0090 F   0  0  0  0  0  0  0  0  0  0  0  0
  140.9400   70.7730  227.9950 C   0  0  0  0  0  0  0  0  0  0  0  0
  140.9560   71.6140  226.8960 C   0  0  0  0  0  0  0  0  0  0  0  0
  140.4650   71.1290  225.7070 C   0  0  0  0  0  0  0  0  0  0  0  0
  140.4570   71.8930  224.6190 N   0  0  0  0  0  0  0  0  0  0  0  0
  139.4940   74.0940  223.2700 H   0  0  0  0  0  0  0  0  0  0  0  0
  140.0091   73.7996  220.2714 H   0  0  0  0  0  0  0  0  0  0  0  0
  138.6513   74.8050  220.9196 H   0  0  0  0  0  0  0  0  0  0  0  0
  141.8187   77.6382  221.3306 H   0  0  0  0  0  0  0  0  0  0  0  0
  143.2824   77.1036  220.3467 H   0  0  0  0  0  0  0  0  0  0  0  0
  140.7188   78.2774  219.3381 H   0  0  0  0  0  0  0  0  0  0  0  0
  142.3897   79.0130  219.3840 H   0  0  0  0  0  0  0  0  0  0  0  0
  141.1683   77.2181  217.4330 H   0  0  0  0  0  0  0  0  0  0  0  0
  142.6314   78.2980  217.3360 H   0  0  0  0  0  0  0  0  0  0  0  0
  143.6372   76.2829  217.0677 H   0  0  0  0  0  0  0  0  0  0  0  0
  143.6711   76.4024  218.8577 H   0  0  0  0  0  0  0  0  0  0  0  0
  141.1949   75.2748  217.6466 H   0  0  0  0  0  0  0  0  0  0  0  0
  142.6803   74.2731  217.5149 H   0  0  0  0  0  0  0  0  0  0  0  0
  141.2514   73.9367  219.6708 H   0  0  0  0  0  0  0  0  0  0  0  0
  142.6467   72.0383  219.7077 H   0  0  0  0  0  0  0  0  0  0  0  0
  144.7548   71.0056  220.4581 H   0  0  0  0  0  0  0  0  0  0  0  0
  146.6763   72.4035  221.1838 H   0  0  0  0  0  0  0  0  0  0  0  0
  146.4300   74.8979  221.1354 H   0  0  0  0  0  0  0  0  0  0  0  0
  144.3085   75.9260  220.3788 H   0  0  0  0  0  0  0  0  0  0  0  0
  139.1031   69.8093  222.3830 H   0  0  0  0  0  0  0  0  0  0  0  0
  139.0820   68.2980  224.3786 H   0  0  0  0  0  0  0  0  0  0  0  0
  139.5549   67.9590  226.6437 H   0  0  0  0  0  0  0  0  0  0  0  0
  141.3297   71.1411  228.9555 H   0  0  0  0  0  0  0  0  0  0  0  0
  141.3493   72.6385  226.9715 H   0  0  0  0  0  0  0  0  0  0  0  0
  1  2  2  0
  2  3  1  0
  3  4  1  0
  4  5  1  0
  5  6  2  0
  5  7  1  0
  7  8  1  0
  8  9  1  0
  9 10  1  0
 10 11  1  0
 11 12  1  0
 12 13  1  0
 13 14  1  0
 14 15  2  0
 15 16  1  0
 16 17  2  0
 17 18  1  0
 18 19  2  0
  2 20  1  0
 20 21  2  0
 21 22  1  0
 22 23  2  0
 23 24  1  0
 24 25  2  0
 25 26  1  0
 25 27  1  0
 27 28  2  0
 28 29  1  0
 29 30  2  0
 13  7  1  0
 19 14  1  0
 30 20  1  0
 29 23  1  0
  3 31  1  0
  4 32  1  0
  4 33  1  0
  8 34  1  0
  8 35  1  0
  9 36  1  0
  9 37  1  0
 10 38  1  0
 10 39  1  0
 11 40  1  0
 11 41  1  0
 12 42  1  0
 12 43  1  0
 13 44  1  6
 15 45  1  0
 16 46  1  0
 17 47  1  0
 18 48  1  0
 19 49  1  0
 21 50  1  0
 22 51  1  0
 24 52  1  0
 27 53  1  0
 28 54  1  0
M  END
>  <smiles>  (97) 
O=C(NCC(=O)N1CCCCCC1c1ccccc1)c1ccc2cc(F)ccc2n1

>  <score_type>  (97) 
oracle

>  <origin>  (97) 
autodockgpu

>  <m_score__min__energy>  (97) 
-6.8700000000000001

>  <m_primary>  (97) 
energy

>  <rmsd>  (97) 
2.264671576421381

>  <m_score__min__rmsd>  (97) 
2.264671576421381

>  <meeko>  (97) 
{"free_energy": -6.39, "intermolecular_energy": -9.67, "internal_energy": -1.97, "cluster_size": 16, "cluster_id": 2, "rank_in_cluster": 6}

>  <energy>  (97) 
-4.79

>  <cluster_rmsd>  (97) 
0.38

>  <cluster>  (97) 
5

$$$$

     RDKit          3D

 54 57  0  0  0  0  0  0  0  0999 V2000
  141.2750   72.5370  221.5410 O   0  0  0  0  0  0  0  0  0  0  0  0
  140.3780   72.5890  222.4160 C   0  0  0  0  0  0  0  0  0  0  0  0
  139.4480   73.6730  222.3320 N   0  0  0  0  0  0  0  0  0  0  0  0
  139.6240   74.6210  221.2410 C   0  0  0  0  0  0  0  0  0  0  0  0
  139.2130   75.9870  221.6450 C   0  0  0  0  0  0  0  0  0  0  0  0
  138.2530   76.1230  222.4790 O   0  0  0  0  0  0  0  0  0  0  0  0
  139.8270   77.1720  221.1520 N   0  0  0  0  0  0  0  0  0  0  0  0
  138.9600   77.9190  220.2630 C   0  0  0  0  0  0  0  0  0  0  0  0
  139.2310   77.7470  218.8130 C   0  0  0  0  0  0  0  0  0  0  0  0
  140.6880   77.4900  218.5000 C   0  0  0  0  0  0  0  0  0  0  0  0
  141.6160   78.2720  219.3800 C   0  0  0  0  0  0  0  0  0  0  0  0
  142.1370   77.3800  220.4590 C   0  0  0  0  0  0  0  0  0  0  0  0
  141.1700   77.3850  221.6360 C   0  0  1  0  0  0  0  0  0  0  0  0
  141.3320   78.6620  222.3870 C   0  0  0  0  0  0  0  0  0  0  0  0
  142.5580   79.2790  222.5120 C   0  0  0  0  0  0  0  0  0  0  0  0
  142.7040   80.4680  223.2120 C   0  0  0  0  0  0  0  0  0  0  0  0
  141.6260   81.0820  223.8150 C   0  0  0  0  0  0  0  0  0  0  0  0
  140.3800   80.4720  223.6990 C   0  0  0  0  0  0  0  0  0  0  0  0
  140.2430   79.2800  222.9940 C   0  0  0  0  0  0  0  0  0  0  0  0
  140.2460   71.6110  223.4900 C   0  0  0  0  0  0  0  0  0  0  0  0
  139.6050   70.4230  223.1970 C   0  0  0  0  0  0  0  0  0  0  0  0
  139.4370   69.4380  224.1590 C   0  0  0  0  0  0  0  0  0  0  0  0
  139.9440   69.7130  225.4250 C   0  0  0  0  0  0  0  0  0  0  0  0
  139.7660   68.7200  226.3710 C   0  0  0  0  0  0  0  0  0  0  0  0
  140.2720   68.9850  227.6450 C   0  0  0  0  0  0  0  0  0  0  0  0
  140.1120   68.0210  228.6000 F   0  0  0  0  0  0  0  0  0  0  0  0
  140.9080   70.1720  227.9200 C   0  0  0  0  0  0  0  0  0  0  0  0
  141.0730   71.1530  226.9570 C   0  0  0  0  0  0  0  0  0  0  0  0
  140.5810   70.9070  225.6980 C   0  0  0  0  0  0  0  0  0  0  0  0
  140.7130   71.8130  224.7340 N   0  0  0  0  0  0  0  0  0  0  0  0
  138.6850   73.7530  223.0410 H   0  0  0  0  0  0  0  0  0  0  0  0
  140.6840   74.6374  220.9477 H   0  0  0  0  0  0  0  0  0  0  0  0
  138.9928   74.3027  220.3982 H   0  0  0  0  0  0  0  0  0  0  0  0
  137.9242   77.6020  220.4542 H   0  0  0  0  0  0  0  0  0  0  0  0
  139.1459   78.9810  220.4814 H   0  0  0  0  0  0  0  0  0  0  0  0
  138.6402   76.8945  218.4467 H   0  0  0  0  0  0  0  0  0  0  0  0
  138.9539   78.6890  218.3172 H   0  0  0  0  0  0  0  0  0  0  0  0
  140.8934   76.4180  218.6367 H   0  0  0  0  0  0  0  0  0  0  0  0
  140.8661   77.8096  217.4626 H   0  0  0  0  0  0  0  0  0  0  0  0
  142.4558   78.6546  218.7813 H   0  0  0  0  0  0  0  0  0  0  0  0
  141.0749   79.1180  219.8288 H   0  0  0  0  0  0  0  0  0  0  0  0
  142.2365   76.3555  220.0711 H   0  0  0  0  0  0  0  0  0  0  0  0
  143.1201   77.7443  220.7918 H   0  0  0  0  0  0  0  0  0  0  0  0
  141.3870   76.5656  222.3371 H   0  0  0  0  0  0  0  0  0  0  0  0
  143.4414   78.8181  222.0459 H   0  0  0  0  0  0  0  0  0  0  0  0
  143.6993   80.9303  223.2876 H   0  0  0  0  0  0  0  0  0  0  0  0
  141.7471   82.0240  224.3700 H   0  0  0  0  0  0  0  0  0  0  0  0
  139.4988   80.9348  224.1673 H   0  0  0  0  0  0  0  0  0  0  0  0
  139.2493   78.8149  222.9146 H   0  0  0  0  0  0  0  0  0  0  0  0
  139.2201   70.2547  222.1804 H   0  0  0  0  0  0  0  0  0  0  0  0
  138.9293   68.4888  223.9327 H   0  0  0  0  0  0  0  0  0  0  0  0
  139.2550   67.7754  226.1333 H   0  0  0  0  0  0  0  0  0  0  0  0
  141.2969   70.3476  228.9339 H   0  0  0  0  0  0  0  0  0  0  0  0
  141.5819   72.0994  227.1924 H   0  0  0  0  0  0  0  0  0  0  0  0
  1  2  2  0
  2  3  1  0
  3  4  1  0
  4  5  1  0
  5  6  2  0
  5  7  1  0
  7  8  1  0
  8  9  1  0
  9 10  1  0
 10 11  1  0
 11 12  1  0
 12 13  1  0
 13 14  1  0
 14 15  2  0
 15 16  1  0
 16 17  2  0
 17 18  1  0
 18 19  2  0
  2 20  1  0
 20 21  2  0
 21 22  1  0
 22 23  2  0
 23 24  1  0
 24 25  2  0
 25 26  1  0
 25 27  1  0
 27 28  2  0
 28 29  1  0
 29 30  2  0
 13  7  1  0
 19 14  1  0
 30 20  1  0
 29 23  1  0
  3 31  1  0
  4 32  1  0
  4 33  1  0
  8 34  1  0
  8 35  1  0
  9 36  1  0
  9 37  1  0
 10 38  1  0
 10 39  1  0
 11 40  1  0
 11 41  1  0
 12 42  1  0
 12 43  1  0
 13 44  1  1
 15 45  1  0
 16 46  1  0
 17 47  1  0
 18 48  1  0
 19 49  1  0
 21 50  1  0
 22 51  1  0
 24 52  1  0
 27 53  1  0
 28 54  1  0
M  END
>  <smiles>  (98) 
O=C(NCC(=O)N1CCCCCC1c1ccccc1)c1ccc2cc(F)ccc2n1

>  <score_type>  (98) 
oracle

>  <origin>  (98) 
autodockgpu

>  <m_score__min__energy>  (98) 
-6.8700000000000001

>  <m_primary>  (98) 
energy

>  <rmsd>  (98) 
2.086399905243961

>  <m_score__min__rmsd>  (98) 
2.086399905243961

>  <meeko>  (98) 
{"free_energy": -6.87, "intermolecular_energy": -10.15, "internal_energy": -1.82, "cluster_size": 11, "cluster_id": 1, "rank_in_cluster": 1}

>  <energy>  (98) 
-5.13

>  <cluster_rmsd>  (98) 
0.0

>  <cluster>  (98) 
6

$$$$

     RDKit          3D

 54 57  0  0  0  0  0  0  0  0999 V2000
  139.2230   71.1640  221.7480 O   0  0  0  0  0  0  0  0  0  0  0  0
  139.9030   71.7040  222.6530 C   0  0  0  0  0  0  0  0  0  0  0  0
  140.4960   72.9710  222.3530 N   0  0  0  0  0  0  0  0  0  0  0  0
  140.2600   73.5220  221.0270 C   0  0  0  0  0  0  0  0  0  0  0  0
  141.0850   74.7330  220.7920 C   0  0  0  0  0  0  0  0  0  0  0  0
  141.7570   75.2200  221.7640 O   0  0  0  0  0  0  0  0  0  0  0  0
  141.1730   75.3940  219.5360 N   0  0  0  0  0  0  0  0  0  0  0  0
  139.8940   75.9080  219.0880 C   0  0  0  0  0  0  0  0  0  0  0  0
  139.7440   77.3850  219.1440 C   0  0  0  0  0  0  0  0  0  0  0  0
  141.0330   78.1080  219.4680 C   0  0  0  0  0  0  0  0  0  0  0  0
  142.1290   77.8050  218.4900 C   0  0  0  0  0  0  0  0  0  0  0  0
  143.0740   76.8260  219.0970 C   0  0  0  0  0  0  0  0  0  0  0  0
  142.5020   75.4190  218.9750 C   0  0  1  0  0  0  0  0  0  0  0  0
  143.4380   74.4600  219.6290 C   0  0  0  0  0  0  0  0  0  0  0  0
  144.4840   74.8910  220.4150 C   0  0  0  0  0  0  0  0  0  0  0  0
  145.3530   73.9940  221.0210 C   0  0  0  0  0  0  0  0  0  0  0  0
  145.2050   72.6330  220.8610 C   0  0  0  0  0  0  0  0  0  0  0  0
  144.1530   72.1810  220.0690 C   0  0  0  0  0  0  0  0  0  0  0  0
  143.2860   73.0870  219.4660 C   0  0  0  0  0  0  0  0  0  0  0  0
  140.1090   71.1080  223.9680 C   0  0  0  0  0  0  0  0  0  0  0  0
  140.6960   71.8940  224.9410 C   0  0  0  0  0  0  0  0  0  0  0  0
  140.9280   71.4070  226.2190 C   0  0  0  0  0  0  0  0  0  0  0  0
  140.5410   70.0930  226.4620 C   0  0  0  0  0  0  0  0  0  0  0  0
  140.7810   69.6240  227.7410 C   0  0  0  0  0  0  0  0  0  0  0  0
  140.3960   68.3070  227.9970 C   0  0  0  0  0  0  0  0  0  0  0  0
  140.6200   67.8170  229.2520 F   0  0  0  0  0  0  0  0  0  0  0  0
  139.8130   67.5380  227.0180 C   0  0  0  0  0  0  0  0  0  0  0  0
  139.5830   68.0280  225.7440 C   0  0  0  0  0  0  0  0  0  0  0  0
  139.9560   69.3240  225.4770 C   0  0  0  0  0  0  0  0  0  0  0  0
  139.7580   69.8460  224.2700 N   0  0  0  0  0  0  0  0  0  0  0  0
  141.0710   73.4550  223.0790 H   0  0  0  0  0  0  0  0  0  0  0  0
  140.5149   72.7628  220.2729 H   0  0  0  0  0  0  0  0  0  0  0  0
  139.1995   73.8042  220.9518 H   0  0  0  0  0  0  0  0  0  0  0  0
  139.7482   75.5917  218.0446 H   0  0  0  0  0  0  0  0  0  0  0  0
  139.1446   75.5014  219.7830 H   0  0  0  0  0  0  0  0  0  0  0  0
  139.3836   77.7362  218.1659 H   0  0  0  0  0  0  0  0  0  0  0  0
  139.0338   77.6088  219.9536 H   0  0  0  0  0  0  0  0  0  0  0  0
  140.8412   79.1911  219.4570 H   0  0  0  0  0  0  0  0  0  0  0  0
  141.3669   77.7637  220.4579 H   0  0  0  0  0  0  0  0  0  0  0  0
  141.6959   77.3779  217.5735 H   0  0  0  0  0  0  0  0  0  0  0  0
  142.6675   78.7314  218.2414 H   0  0  0  0  0  0  0  0  0  0  0  0
  144.0393   76.8754  218.5719 H   0  0  0  0  0  0  0  0  0  0  0  0
  143.2195   77.0699  220.1597 H   0  0  0  0  0  0  0  0  0  0  0  0
  142.4069   75.1140  217.9224 H   0  0  0  0  0  0  0  0  0  0  0  0
  144.6340   75.9702  220.5658 H   0  0  0  0  0  0  0  0  0  0  0  0
  146.1765   74.3772  221.6415 H   0  0  0  0  0  0  0  0  0  0  0  0
  145.8961   71.9264  221.3437 H   0  0  0  0  0  0  0  0  0  0  0  0
  144.0063   71.1012  219.9190 H   0  0  0  0  0  0  0  0  0  0  0  0
  142.4605   72.7083  218.8454 H   0  0  0  0  0  0  0  0  0  0  0  0
  140.9852   72.9269  224.6972 H   0  0  0  0  0  0  0  0  0  0  0  0
  141.3935   72.0272  226.9992 H   0  0  0  0  0  0  0  0  0  0  0  0
  141.2487   70.2532  228.5126 H   0  0  0  0  0  0  0  0  0  0  0  0
  139.5210   66.5040  227.2537 H   0  0  0  0  0  0  0  0  0  0  0  0
  139.1167   67.4006  224.9701 H   0  0  0  0  0  0  0  0  0  0  0  0
  1  2  2  0
  2  3  1  0
  3  4  1  0
  4  5  1  0
  5  6  2  0
  5  7  1  0
  7  8  1  0
  8  9  1  0
  9 10  1  0
 10 11  1  0
 11 12  1  0
 12 13  1  0
 13 14  1  0
 14 15  2  0
 15 16  1  0
 16 17  2  0
 17 18  1  0
 18 19  2  0
  2 20  1  0
 20 21  2  0
 21 22  1  0
 22 23  2  0
 23 24  1  0
 24 25  2  0
 25 26  1  0
 25 27  1  0
 27 28  2  0
 28 29  1  0
 29 30  2  0
 13  7  1  0
 19 14  1  0
 30 20  1  0
 29 23  1  0
  3 31  1  0
  4 32  1  0
  4 33  1  0
  8 34  1  0
  8 35  1  0
  9 36  1  0
  9 37  1  0
 10 38  1  0
 10 39  1  0
 11 40  1  0
 11 41  1  0
 12 42  1  0
 12 43  1  0
 13 44  1  6
 15 45  1  0
 16 46  1  0
 17 47  1  0
 18 48  1  0
 19 49  1  0
 21 50  1  0
 22 51  1  0
 24 52  1  0
 27 53  1  0
 28 54  1  0
M  END
>  <smiles>  (99) 
O=C(NCC(=O)N1CCCCCC1c1ccccc1)c1ccc2cc(F)ccc2n1

>  <score_type>  (99) 
oracle

>  <origin>  (99) 
autodockgpu

>  <m_score__min__energy>  (99) 
-6.8700000000000001

>  <m_primary>  (99) 
energy

>  <rmsd>  (99) 
2.878955469775799

>  <m_score__min__rmsd>  (99) 
2.878955469775799

>  <meeko>  (99) 
{"free_energy": -5.5, "intermolecular_energy": -8.78, "internal_energy": -2.0, "cluster_size": 16, "cluster_id": 2, "rank_in_cluster": 13}

>  <energy>  (99) 
-5.03

>  <cluster_rmsd>  (99) 
0.0

>  <cluster>  (99) 
7

$$$$

     RDKit          3D

 54 57  0  0  0  0  0  0  0  0999 V2000
  140.4720   71.8430  221.1180 O   0  0  0  0  0  0  0  0  0  0  0  0
  140.0970   72.2500  222.2430 C   0  0  0  0  0  0  0  0  0  0  0  0
  139.6680   73.6130  222.3320 N   0  0  0  0  0  0  0  0  0  0  0  0
  139.7040   74.4050  221.1120 C   0  0  0  0  0  0  0  0  0  0  0  0
  140.8080   75.3950  221.1470 C   0  0  0  0  0  0  0  0  0  0  0  0
  140.7540   76.3520  221.9930 O   0  0  0  0  0  0  0  0  0  0  0  0
  141.9370   75.3450  220.2830 N   0  0  0  0  0  0  0  0  0  0  0  0
  142.5590   76.6420  220.1060 C   0  0  0  0  0  0  0  0  0  0  0  0
  142.2500   77.3290  218.8260 C   0  0  0  0  0  0  0  0  0  0  0  0
  141.8260   76.3830  217.7240 C   0  0  0  0  0  0  0  0  0  0  0  0
  142.6990   75.1670  217.6360 C   0  0  0  0  0  0  0  0  0  0  0  0
  141.9970   74.0100  218.2650 C   0  0  0  0  0  0  0  0  0  0  0  0
  142.2300   74.0280  219.7710 C   0  0  1  0  0  0  0  0  0  0  0  0
  143.6260   73.5820  220.0480 C   0  0  0  0  0  0  0  0  0  0  0  0
  144.0430   72.2970  219.7790 C   0  0  0  0  0  0  0  0  0  0  0  0
  145.3430   71.8870  220.0390 C   0  0  0  0  0  0  0  0  0  0  0  0
  146.2720   72.7510  220.5790 C   0  0  0  0  0  0  0  0  0  0  0  0
  145.8670   74.0530  220.8570 C   0  0  0  0  0  0  0  0  0  0  0  0
  144.5610   74.4560  220.5920 C   0  0  0  0  0  0  0  0  0  0  0  0
  140.0800   71.4130  223.4360 C   0  0  0  0  0  0  0  0  0  0  0  0
  139.5560   70.1400  223.3160 C   0  0  0  0  0  0  0  0  0  0  0  0
  139.5020   69.2770  224.4000 C   0  0  0  0  0  0  0  0  0  0  0  0
  139.9990   69.7620  225.6060 C   0  0  0  0  0  0  0  0  0  0  0  0
  139.9360   68.8870  226.6760 C   0  0  0  0  0  0  0  0  0  0  0  0
  140.4340   69.3630  227.8910 C   0  0  0  0  0  0  0  0  0  0  0  0
  140.3850   68.5210  228.9650 F   0  0  0  0  0  0  0  0  0  0  0  0
  140.9520   70.6320  227.9940 C   0  0  0  0  0  0  0  0  0  0  0  0
  141.0040   71.4910  226.9090 C   0  0  0  0  0  0  0  0  0  0  0  0
  140.5190   71.0360  225.7060 C   0  0  0  0  0  0  0  0  0  0  0  0
  140.5440   71.8180  224.6310 N   0  0  0  0  0  0  0  0  0  0  0  0
  139.3470   73.9920  223.2510 H   0  0  0  0  0  0  0  0  0  0  0  0
  139.8510   73.7339  220.2529 H   0  0  0  0  0  0  0  0  0  0  0  0
  138.7519   74.9484  221.0215 H   0  0  0  0  0  0  0  0  0  0  0  0
  142.2270   77.2924  220.9287 H   0  0  0  0  0  0  0  0  0  0  0  0
  143.6435   76.4585  220.0966 H   0  0  0  0  0  0  0  0  0  0  0  0
  141.4348   78.0460  219.0030 H   0  0  0  0  0  0  0  0  0  0  0  0
  143.1736   77.8241  218.4917 H   0  0  0  0  0  0  0  0  0  0  0  0
  140.7920   76.0605  217.9158 H   0  0  0  0  0  0  0  0  0  0  0  0
  141.9137   76.9241  216.7703 H   0  0  0  0  0  0  0  0  0  0  0  0
  142.9080   74.9402  216.5801 H   0  0  0  0  0  0  0  0  0  0  0  0
  143.6463   75.3543  218.1628 H   0  0  0  0  0  0  0  0  0  0  0  0
  140.9185   74.0810  218.0605 H   0  0  0  0  0  0  0  0  0  0  0  0
  142.3903   73.0722  217.8457 H   0  0  0  0  0  0  0  0  0  0  0  0
  141.5570   73.3298  220.2903 H   0  0  0  0  0  0  0  0  0  0  0  0
  143.3292   71.5794  219.3483 H   0  0  0  0  0  0  0  0  0  0  0  0
  145.6381   70.8524  219.8098 H   0  0  0  0  0  0  0  0  0  0  0  0
  147.3013   72.4213  220.7837 H   0  0  0  0  0  0  0  0  0  0  0  0
  146.5829   74.7679  221.2886 H   0  0  0  0  0  0  0  0  0  0  0  0
  144.2616   75.4900  220.8182 H   0  0  0  0  0  0  0  0  0  0  0  0
  139.1739   69.8044  222.3406 H   0  0  0  0  0  0  0  0  0  0  0  0
  139.0879   68.2618  224.3113 H   0  0  0  0  0  0  0  0  0  0  0  0
  139.5177   67.8746  226.5755 H   0  0  0  0  0  0  0  0  0  0  0  0
  141.3362   70.9750  228.9660 H   0  0  0  0  0  0  0  0  0  0  0  0
  141.4200   72.5046  227.0067 H   0  0  0  0  0  0  0  0  0  0  0  0
  1  2  2  0
  2  3  1  0
  3  4  1  0
  4  5  1  0
  5  6  2  0
  5  7  1  0
  7  8  1  0
  8  9  1  0
  9 10  1  0
 10 11  1  0
 11 12  1  0
 12 13  1  0
 13 14  1  0
 14 15  2  0
 15 16  1  0
 16 17  2  0
 17 18  1  0
 18 19  2  0
  2 20  1  0
 20 21  2  0
 21 22  1  0
 22 23  2  0
 23 24  1  0
 24 25  2  0
 25 26  1  0
 25 27  1  0
 27 28  2  0
 28 29  1  0
 29 30  2  0
 13  7  1  0
 19 14  1  0
 30 20  1  0
 29 23  1  0
  3 31  1  0
  4 32  1  0
  4 33  1  0
  8 34  1  0
  8 35  1  0
  9 36  1  0
  9 37  1  0
 10 38  1  0
 10 39  1  0
 11 40  1  0
 11 41  1  0
 12 42  1  0
 12 43  1  0
 13 44  1  1
 15 45  1  0
 16 46  1  0
 17 47  1  0
 18 48  1  0
 19 49  1  0
 21 50  1  0
 22 51  1  0
 24 52  1  0
 27 53  1  0
 28 54  1  0
M  END
>  <smiles>  (100) 
O=C(NCC(=O)N1CCCCCC1c1ccccc1)c1ccc2cc(F)ccc2n1

>  <score_type>  (100) 
oracle

>  <origin>  (100) 
autodockgpu

>  <m_score__min__energy>  (100) 
-6.8700000000000001

>  <m_primary>  (100) 
energy

>  <rmsd>  (100) 
2.380267040728794

>  <m_score__min__rmsd>  (100) 
2.380267040728794

>  <meeko>  (100) 
{"free_energy": -6.53, "intermolecular_energy": -9.81, "internal_energy": -1.89, "cluster_size": 16, "cluster_id": 2, "rank_in_cluster": 4}

>  <energy>  (100) 
-4.8

>  <cluster_rmsd>  (100) 
0.0

>  <cluster>  (100) 
8

$$$$
