
     RDKit          3D

 54 57  0  0  0  0  0  0  0  0999 V2000
  139.9530   71.0840  221.3530 O   0  0  0  0  0  0  0  0  0  0  0  0
  139.8450   71.6730  222.4550 C   0  0  0  0  0  0  0  0  0  0  0  0
  139.6690   73.0820  222.4190 N   0  0  0  0  0  0  0  0  0  0  0  0
  139.6340   73.6990  221.0970 C   0  0  0  0  0  0  0  0  0  0  0  0
  140.4340   74.9410  221.1160 C   0  0  0  0  0  0  0  0  0  0  0  0
  140.6510   75.4710  222.2330 O   0  0  0  0  0  0  0  0  0  0  0  0
  140.9010   75.4490  219.8800 N   0  0  0  0  0  0  0  0  0  0  0  0
  140.8780   74.6370  218.6460 C   0  0  0  0  0  0  0  0  0  0  0  0
  142.1650   74.9740  217.9380 C   0  0  0  0  0  0  0  0  0  0  0  0
  143.2620   75.4010  218.8810 C   0  0  0  0  0  0  0  0  0  0  0  0
  142.9320   76.6000  219.7210 C   0  0  0  0  0  0  0  0  0  0  0  0
  141.4430   76.7890  219.7070 C   0  0  2  0  0  0  0  0  0  0  0  0
  140.9360   77.7700  220.6730 C   0  0  0  0  0  0  0  0  0  0  0  0
  139.5760   77.9720  220.8280 C   0  0  0  0  0  0  0  0  0  0  0  0
  139.1080   78.9020  221.7560 C   0  0  0  0  0  0  0  0  0  0  0  0
  139.9790   79.6400  222.5380 C   0  0  0  0  0  0  0  0  0  0  0  0
  139.4930   80.6430  223.5380 C   0  0  0  0  0  0  0  0  0  0  0  0
  138.6740   80.0940  224.4890 F   0  0  0  0  0  0  0  0  0  0  0  0
  138.7880   81.6440  222.9040 F   0  0  0  0  0  0  0  0  0  0  0  0
  140.5520   81.2430  224.1910 F   0  0  0  0  0  0  0  0  0  0  0  0
  141.3320   79.4220  222.3660 C   0  0  0  0  0  0  0  0  0  0  0  0
  141.8200   78.4960  221.4430 C   0  0  0  0  0  0  0  0  0  0  0  0
  139.8960   70.9520  223.7220 C   0  0  0  0  0  0  0  0  0  0  0  0
  139.3930   69.6620  223.7610 C   0  0  0  0  0  0  0  0  0  0  0  0
  139.4060   68.9250  224.9130 C   0  0  0  0  0  0  0  0  0  0  0  0
  139.9420   69.5070  226.0550 C   0  0  0  0  0  0  0  0  0  0  0  0
  139.9580   68.7670  227.2210 C   0  0  0  0  0  0  0  0  0  0  0  0
  140.4940   69.3650  228.3410 C   0  0  0  0  0  0  0  0  0  0  0  0
  141.0000   70.6580  228.3070 C   0  0  0  0  0  0  0  0  0  0  0  0
  140.9780   71.3820  227.1440 C   0  0  0  0  0  0  0  0  0  0  0  0
  140.4470   70.8080  226.0060 C   0  0  0  0  0  0  0  0  0  0  0  0
  140.4160   71.5070  224.8460 N   0  0  0  0  0  0  0  0  0  0  0  0
  139.5720   73.6330  223.2910 H   0  0  0  0  0  0  0  0  0  0  0  0
  140.0535   73.0031  220.3556 H   0  0  0  0  0  0  0  0  0  0  0  0
  138.5938   73.9350  220.8281 H   0  0  0  0  0  0  0  0  0  0  0  0
  140.8387   73.5648  218.8886 H   0  0  0  0  0  0  0  0  0  0  0  0
  139.9951   74.8503  218.0255 H   0  0  0  0  0  0  0  0  0  0  0  0
  142.5040   74.0855  217.3852 H   0  0  0  0  0  0  0  0  0  0  0  0
  141.9594   75.8212  217.2672 H   0  0  0  0  0  0  0  0  0  0  0  0
  143.4818   74.5599  219.5549 H   0  0  0  0  0  0  0  0  0  0  0  0
  144.1191   75.6863  218.2534 H   0  0  0  0  0  0  0  0  0  0  0  0
  143.2768   76.4377  220.7529 H   0  0  0  0  0  0  0  0  0  0  0  0
  143.4316   77.4938  219.3191 H   0  0  0  0  0  0  0  0  0  0  0  0
  141.1133   77.2433  218.7610 H   0  0  0  0  0  0  0  0  0  0  0  0
  138.8627   77.3981  220.2182 H   0  0  0  0  0  0  0  0  0  0  0  0
  138.0241   79.0519  221.8686 H   0  0  0  0  0  0  0  0  0  0  0  0
  142.0464   79.9955  222.9749 H   0  0  0  0  0  0  0  0  0  0  0  0
  142.9039   78.3461  221.3303 H   0  0  0  0  0  0  0  0  0  0  0  0
  138.9737   69.2204  222.8449 H   0  0  0  0  0  0  0  0  0  0  0  0
  139.0039   67.9014  224.9347 H   0  0  0  0  0  0  0  0  0  0  0  0
  139.5593   67.7424  227.2544 H   0  0  0  0  0  0  0  0  0  0  0  0
  140.5218   68.8036  229.2866 H   0  0  0  0  0  0  0  0  0  0  0  0
  141.4213   71.1039  229.2201 H   0  0  0  0  0  0  0  0  0  0  0  0
  141.3778   72.4064  227.1173 H   0  0  0  0  0  0  0  0  0  0  0  0
  1  2  2  0
  2  3  1  0
  3  4  1  0
  4  5  1  0
  5  6  2  0
  5  7  1  0
  7  8  1  0
  8  9  1  0
  9 10  1  0
 10 11  1  0
 11 12  1  0
 12 13  1  0
 13 14  2  0
 14 15  1  0
 15 16  2  0
 16 17  1  0
 17 18  1  0
 17 19  1  0
 17 20  1  0
 16 21  1  0
 21 22  2  0
  2 23  1  0
 23 24  2  0
 24 25  1  0
 25 26  2  0
 26 27  1  0
 27 28  2  0
 28 29  1  0
 29 30  2  0
 30 31  1  0
 31 32  2  0
 12  7  1  0
 22 13  1  0
 32 23  1  0
 31 26  1  0
  3 33  1  0
  4 34  1  0
  4 35  1  0
  8 36  1  0
  8 37  1  0
  9 38  1  0
  9 39  1  0
 10 40  1  0
 10 41  1  0
 11 42  1  0
 11 43  1  0
 12 44  1  6
 14 45  1  0
 15 46  1  0
 21 47  1  0
 22 48  1  0
 24 49  1  0
 25 50  1  0
 27 51  1  0
 28 52  1  0
 29 53  1  0
 30 54  1  0
M  END
>  <smiles>  (1) 
O=C(NCC(=O)N1CCCCC1c1ccc(C(F)(F)F)cc1)c1ccc2ccccc2n1

>  <score_type>  (1) 
oracle

>  <origin>  (1) 
autodockgpu

>  <m_score__min__energy>  (1) 
-8.3300000000000001

>  <m_primary>  (1) 
energy

>  <rmsd>  (1) 
1.5240348339025493

>  <m_score__min__rmsd>  (1) 
1.5240348339025493

>  <meeko>  (1) 
{"free_energy": -8.14, "intermolecular_energy": -9.93, "internal_energy": -1.84, "cluster_size": 12, "cluster_id": 1, "rank_in_cluster": 4}

>  <energy>  (1) 
-8.33

>  <cluster_rmsd>  (1) 
0.0

>  <cluster>  (1) 
1

$$$$

     RDKit          3D

 54 57  0  0  0  0  0  0  0  0999 V2000
  140.9060   77.4470  218.2780 O   0  0  0  0  0  0  0  0  0  0  0  0
  141.8430   77.2770  219.0930 C   0  0  0  0  0  0  0  0  0  0  0  0
  142.1900   78.3800  219.9180 N   0  0  0  0  0  0  0  0  0  0  0  0
  141.4160   79.6020  219.7270 C   0  0  0  0  0  0  0  0  0  0  0  0
  140.1730   79.5210  220.5230 C   0  0  0  0  0  0  0  0  0  0  0  0
  139.1160   79.2250  219.9160 O   0  0  0  0  0  0  0  0  0  0  0  0
  140.2560   79.7820  221.9120 N   0  0  0  0  0  0  0  0  0  0  0  0
  140.0640   81.1410  222.4620 C   0  0  0  0  0  0  0  0  0  0  0  0
  141.0830   81.2590  223.5650 C   0  0  0  0  0  0  0  0  0  0  0  0
  142.2960   80.3890  223.3420 C   0  0  0  0  0  0  0  0  0  0  0  0
  141.9990   78.9240  223.2160 C   0  0  0  0  0  0  0  0  0  0  0  0
  140.5370   78.7640  222.9140 C   0  0  2  0  0  0  0  0  0  0  0  0
  140.1320   77.4100  222.5210 C   0  0  0  0  0  0  0  0  0  0  0  0
  141.0790   76.4380  222.2550 C   0  0  0  0  0  0  0  0  0  0  0  0
  140.6800   75.1520  221.8900 C   0  0  0  0  0  0  0  0  0  0  0  0
  139.3410   74.8170  221.7840 C   0  0  0  0  0  0  0  0  0  0  0  0
  138.8960   73.4430  221.3930 C   0  0  0  0  0  0  0  0  0  0  0  0
  137.6620   73.1180  221.8950 F   0  0  0  0  0  0  0  0  0  0  0  0
  139.7950   72.5020  221.8490 F   0  0  0  0  0  0  0  0  0  0  0  0
  138.8360   73.3140  220.0190 F   0  0  0  0  0  0  0  0  0  0  0  0
  138.4140   75.8030  222.0540 C   0  0  0  0  0  0  0  0  0  0  0  0
  138.7930   77.0950  222.4210 C   0  0  0  0  0  0  0  0  0  0  0  0
  142.5510   76.0060  219.1980 C   0  0  0  0  0  0  0  0  0  0  0  0
  142.0640   74.9240  218.4840 C   0  0  0  0  0  0  0  0  0  0  0  0
  142.6740   73.7020  218.5340 C   0  0  0  0  0  0  0  0  0  0  0  0
  143.8080   73.5690  219.3250 C   0  0  0  0  0  0  0  0  0  0  0  0
  144.4290   72.3370  219.3780 C   0  0  0  0  0  0  0  0  0  0  0  0
  145.5520   72.2290  220.1690 C   0  0  0  0  0  0  0  0  0  0  0  0
  146.0470   73.3110  220.8860 C   0  0  0  0  0  0  0  0  0  0  0  0
  145.4210   74.5280  220.8250 C   0  0  0  0  0  0  0  0  0  0  0  0
  144.2930   74.6650  220.0400 C   0  0  0  0  0  0  0  0  0  0  0  0
  143.6610   75.8610  219.9670 N   0  0  0  0  0  0  0  0  0  0  0  0
  142.9550   78.3110  220.6140 H   0  0  0  0  0  0  0  0  0  0  0  0
  142.0085   80.4679  220.0575 H   0  0  0  0  0  0  0  0  0  0  0  0
  141.1654   79.7174  218.6622 H   0  0  0  0  0  0  0  0  0  0  0  0
  140.2424   81.9011  221.6871 H   0  0  0  0  0  0  0  0  0  0  0  0
  139.0383   81.2996  222.8265 H   0  0  0  0  0  0  0  0  0  0  0  0
  141.4103   82.3072  223.6293 H   0  0  0  0  0  0  0  0  0  0  0  0
  140.6022   80.9215  224.4950 H   0  0  0  0  0  0  0  0  0  0  0  0
  142.7900   80.7198  222.4165 H   0  0  0  0  0  0  0  0  0  0  0  0
  142.9297   80.5031  224.2338 H   0  0  0  0  0  0  0  0  0  0  0  0
  142.5969   78.4920  222.3999 H   0  0  0  0  0  0  0  0  0  0  0  0
  142.2520   78.4040  224.1518 H   0  0  0  0  0  0  0  0  0  0  0  0
  139.9308   78.9048  223.8210 H   0  0  0  0  0  0  0  0  0  0  0  0
  142.1495   76.6794  222.3314 H   0  0  0  0  0  0  0  0  0  0  0  0
  141.4446   74.3890  221.6823 H   0  0  0  0  0  0  0  0  0  0  0  0
  137.3432   75.5631  221.9776 H   0  0  0  0  0  0  0  0  0  0  0  0
  138.0282   77.8577  222.6293 H   0  0  0  0  0  0  0  0  0  0  0  0
  141.1655   75.0510  217.8623 H   0  0  0  0  0  0  0  0  0  0  0  0
  142.2783   72.8483  217.9642 H   0  0  0  0  0  0  0  0  0  0  0  0
  144.0429   71.4766  218.8117 H   0  0  0  0  0  0  0  0  0  0  0  0
  146.0701   71.2608  220.2345 H   0  0  0  0  0  0  0  0  0  0  0  0
  146.9471   73.1898  221.5065 H   0  0  0  0  0  0  0  0  0  0  0  0
  145.8116   75.3847  221.3937 H   0  0  0  0  0  0  0  0  0  0  0  0
  1  2  2  0
  2  3  1  0
  3  4  1  0
  4  5  1  0
  5  6  2  0
  5  7  1  0
  7  8  1  0
  8  9  1  0
  9 10  1  0
 10 11  1  0
 11 12  1  0
 12 13  1  0
 13 14  2  0
 14 15  1  0
 15 16  2  0
 16 17  1  0
 17 18  1  0
 17 19  1  0
 17 20  1  0
 16 21  1  0
 21 22  2  0
  2 23  1  0
 23 24  2  0
 24 25  1  0
 25 26  2  0
 26 27  1  0
 27 28  2  0
 28 29  1  0
 29 30  2  0
 30 31  1  0
 31 32  2  0
 12  7  1  0
 22 13  1  0
 32 23  1  0
 31 26  1  0
  3 33  1  0
  4 34  1  0
  4 35  1  0
  8 36  1  0
  8 37  1  0
  9 38  1  0
  9 39  1  0
 10 40  1  0
 10 41  1  0
 11 42  1  0
 11 43  1  0
 12 44  1  1
 14 45  1  0
 15 46  1  0
 21 47  1  0
 22 48  1  0
 24 49  1  0
 25 50  1  0
 27 51  1  0
 28 52  1  0
 29 53  1  0
 30 54  1  0
M  END
>  <smiles>  (2) 
O=C(NCC(=O)N1CCCCC1c1ccc(C(F)(F)F)cc1)c1ccc2ccccc2n1

>  <score_type>  (2) 
oracle

>  <origin>  (2) 
autodockgpu

>  <m_score__min__energy>  (2) 
-8.3300000000000001

>  <m_primary>  (2) 
energy

>  <rmsd>  (2) 
7.5202983594806145

>  <m_score__min__rmsd>  (2) 
7.5202983594806145

>  <meeko>  (2) 
{"free_energy": -6.79, "intermolecular_energy": -8.58, "internal_energy": -2.92, "cluster_size": 10, "cluster_id": 7, "rank_in_cluster": 10}

>  <energy>  (2) 
-8.24

>  <cluster_rmsd>  (2) 
0.2

>  <cluster>  (2) 
1

$$$$

     RDKit          3D

 54 57  0  0  0  0  0  0  0  0999 V2000
  140.9920   74.5770  220.6760 O   0  0  0  0  0  0  0  0  0  0  0  0
  140.1850   74.8710  221.5890 C   0  0  0  0  0  0  0  0  0  0  0  0
  139.3950   73.8140  222.1180 N   0  0  0  0  0  0  0  0  0  0  0  0
  139.6080   72.4920  221.5380 C   0  0  0  0  0  0  0  0  0  0  0  0
  138.6920   71.5250  222.1770 C   0  0  0  0  0  0  0  0  0  0  0  0
  137.7350   71.9890  222.8430 O   0  0  0  0  0  0  0  0  0  0  0  0
  138.9510   70.1450  221.9970 N   0  0  0  0  0  0  0  0  0  0  0  0
  139.0640   69.5440  220.6510 C   0  0  0  0  0  0  0  0  0  0  0  0
  138.3800   68.2060  220.7680 C   0  0  0  0  0  0  0  0  0  0  0  0
  137.3100   68.1820  221.8300 C   0  0  0  0  0  0  0  0  0  0  0  0
  137.7930   68.5140  223.2120 C   0  0  0  0  0  0  0  0  0  0  0  0
  139.1220   69.2020  223.0920 C   0  0  2  0  0  0  0  0  0  0  0  0
  139.6170   69.8090  224.3330 C   0  0  0  0  0  0  0  0  0  0  0  0
  140.5920   70.7890  224.3000 C   0  0  0  0  0  0  0  0  0  0  0  0
  141.0480   71.3630  225.4870 C   0  0  0  0  0  0  0  0  0  0  0  0
  140.5450   70.9730  226.7160 C   0  0  0  0  0  0  0  0  0  0  0  0
  141.0230   71.5770  227.9990 C   0  0  0  0  0  0  0  0  0  0  0  0
  139.9980   72.0160  228.7970 F   0  0  0  0  0  0  0  0  0  0  0  0
  141.8440   72.6540  227.7400 F   0  0  0  0  0  0  0  0  0  0  0  0
  141.7640   70.6680  228.7280 F   0  0  0  0  0  0  0  0  0  0  0  0
  139.5720   69.9920  226.7240 C   0  0  0  0  0  0  0  0  0  0  0  0
  139.1020   69.4060  225.5470 C   0  0  0  0  0  0  0  0  0  0  0  0
  140.0550   76.2330  222.0940 C   0  0  0  0  0  0  0  0  0  0  0  0
  138.7820   76.7440  222.2780 C   0  0  0  0  0  0  0  0  0  0  0  0
  138.5820   78.0130  222.7470 C   0  0  0  0  0  0  0  0  0  0  0  0
  139.6980   78.7850  223.0380 C   0  0  0  0  0  0  0  0  0  0  0  0
  139.5020   80.0670  223.5130 C   0  0  0  0  0  0  0  0  0  0  0  0
  140.6250   80.8150  223.7950 C   0  0  0  0  0  0  0  0  0  0  0  0
  141.9050   80.3070  223.6130 C   0  0  0  0  0  0  0  0  0  0  0  0
  142.0860   79.0340  223.1410 C   0  0  0  0  0  0  0  0  0  0  0  0
  140.9790   78.2620  222.8500 C   0  0  0  0  0  0  0  0  0  0  0  0
  141.1370   77.0000  222.3830 N   0  0  0  0  0  0  0  0  0  0  0  0
  138.7080   73.9840  222.8740 H   0  0  0  0  0  0  0  0  0  0  0  0
  139.4079   72.5285  220.4570 H   0  0  0  0  0  0  0  0  0  0  0  0
  140.6492   72.1794  221.7058 H   0  0  0  0  0  0  0  0  0  0  0  0
  138.5598   70.1728  219.9023 H   0  0  0  0  0  0  0  0  0  0  0  0
  140.1104   69.4483  220.3255 H   0  0  0  0  0  0  0  0  0  0  0  0
  137.9183   67.9625  219.7997 H   0  0  0  0  0  0  0  0  0  0  0  0
  139.1450   67.4695  221.0551 H   0  0  0  0  0  0  0  0  0  0  0  0
  136.5352   68.9120  221.5528 H   0  0  0  0  0  0  0  0  0  0  0  0
  136.9348   67.1488  221.8709 H   0  0  0  0  0  0  0  0  0  0  0  0
  137.0722   69.1805  223.7083 H   0  0  0  0  0  0  0  0  0  0  0  0
  137.8930   67.5963  223.8102 H   0  0  0  0  0  0  0  0  0  0  0  0
  139.9221   68.4764  222.8838 H   0  0  0  0  0  0  0  0  0  0  0  0
  141.0088   71.1166  223.3362 H   0  0  0  0  0  0  0  0  0  0  0  0
  141.8236   72.1419  225.4452 H   0  0  0  0  0  0  0  0  0  0  0  0
  139.1549   69.6626  227.6871 H   0  0  0  0  0  0  0  0  0  0  0  0
  138.3257   68.6277  225.5879 H   0  0  0  0  0  0  0  0  0  0  0  0
  137.9111   76.1150  222.0416 H   0  0  0  0  0  0  0  0  0  0  0  0
  137.5662   78.4102  222.8894 H   0  0  0  0  0  0  0  0  0  0  0  0
  138.4909   80.4745  223.6603 H   0  0  0  0  0  0  0  0  0  0  0  0
  140.5044   81.8406  224.1739 H   0  0  0  0  0  0  0  0  0  0  0  0
  142.7792   80.9313  223.8496 H   0  0  0  0  0  0  0  0  0  0  0  0
  143.0996   78.6322  222.9958 H   0  0  0  0  0  0  0  0  0  0  0  0
  1  2  2  0
  2  3  1  0
  3  4  1  0
  4  5  1  0
  5  6  2  0
  5  7  1  0
  7  8  1  0
  8  9  1  0
  9 10  1  0
 10 11  1  0
 11 12  1  0
 12 13  1  0
 13 14  2  0
 14 15  1  0
 15 16  2  0
 16 17  1  0
 17 18  1  0
 17 19  1  0
 17 20  1  0
 16 21  1  0
 21 22  2  0
  2 23  1  0
 23 24  2  0
 24 25  1  0
 25 26  2  0
 26 27  1  0
 27 28  2  0
 28 29  1  0
 29 30  2  0
 30 31  1  0
 31 32  2  0
 12  7  1  0
 22 13  1  0
 32 23  1  0
 31 26  1  0
  3 33  1  0
  4 34  1  0
  4 35  1  0
  8 36  1  0
  8 37  1  0
  9 38  1  0
  9 39  1  0
 10 40  1  0
 10 41  1  0
 11 42  1  0
 11 43  1  0
 12 44  1  6
 14 45  1  0
 15 46  1  0
 21 47  1  0
 22 48  1  0
 24 49  1  0
 25 50  1  0
 27 51  1  0
 28 52  1  0
 29 53  1  0
 30 54  1  0
M  END
>  <smiles>  (3) 
O=C(NCC(=O)N1CCCCC1c1ccc(C(F)(F)F)cc1)c1ccc2ccccc2n1

>  <score_type>  (3) 
oracle

>  <origin>  (3) 
autodockgpu

>  <m_score__min__energy>  (3) 
-8.3300000000000001

>  <m_primary>  (3) 
energy

>  <rmsd>  (3) 
8.098132459949086

>  <m_score__min__rmsd>  (3) 
8.098132459949086

>  <meeko>  (3) 
{"free_energy": -8.22, "intermolecular_energy": -10.01, "internal_energy": -1.86, "cluster_size": 8, "cluster_id": 2, "rank_in_cluster": 5}

>  <energy>  (3) 
-8.19

>  <cluster_rmsd>  (3) 
0.2

>  <cluster>  (3) 
1

$$$$

     RDKit          3D

 54 57  0  0  0  0  0  0  0  0999 V2000
  141.1070   74.5680  220.7410 O   0  0  0  0  0  0  0  0  0  0  0  0
  140.2420   74.8870  221.5900 C   0  0  0  0  0  0  0  0  0  0  0  0
  139.3700   73.8600  222.0400 N   0  0  0  0  0  0  0  0  0  0  0  0
  139.5730   72.5360  221.4610 C   0  0  0  0  0  0  0  0  0  0  0  0
  138.7280   71.5560  222.1750 C   0  0  0  0  0  0  0  0  0  0  0  0
  137.8200   72.0060  222.9150 O   0  0  0  0  0  0  0  0  0  0  0  0
  138.9970   70.1790  221.9790 N   0  0  0  0  0  0  0  0  0  0  0  0
  139.1300   69.5970  220.6270 C   0  0  0  0  0  0  0  0  0  0  0  0
  138.4510   68.2550  220.7170 C   0  0  0  0  0  0  0  0  0  0  0  0
  137.3680   68.2110  221.7650 C   0  0  0  0  0  0  0  0  0  0  0  0
  137.8330   68.5260  223.1570 C   0  0  0  0  0  0  0  0  0  0  0  0
  139.1600   69.2220  223.0630 C   0  0  2  0  0  0  0  0  0  0  0  0
  139.6370   69.8140  224.3180 C   0  0  0  0  0  0  0  0  0  0  0  0
  139.1170   69.4080  225.5340 C   0  0  0  0  0  0  0  0  0  0  0  0
  139.5850   69.9750  226.7190 C   0  0  0  0  0  0  0  0  0  0  0  0
  140.5700   70.9470  226.7140 C   0  0  0  0  0  0  0  0  0  0  0  0
  141.0830   71.5650  227.9760 C   0  0  0  0  0  0  0  0  0  0  0  0
  141.8180   70.6930  228.7370 F   0  0  0  0  0  0  0  0  0  0  0  0
  140.0320   72.0130  228.7480 F   0  0  0  0  0  0  0  0  0  0  0  0
  141.8810   72.6590  227.7030 F   0  0  0  0  0  0  0  0  0  0  0  0
  141.0740   71.3360  225.4880 C   0  0  0  0  0  0  0  0  0  0  0  0
  140.6190   70.7820  224.2910 C   0  0  0  0  0  0  0  0  0  0  0  0
  140.1290   76.2480  222.1010 C   0  0  0  0  0  0  0  0  0  0  0  0
  138.8620   76.7700  222.2990 C   0  0  0  0  0  0  0  0  0  0  0  0
  138.6780   78.0390  222.7750 C   0  0  0  0  0  0  0  0  0  0  0  0
  139.8050   78.8000  223.0590 C   0  0  0  0  0  0  0  0  0  0  0  0
  139.6250   80.0820  223.5400 C   0  0  0  0  0  0  0  0  0  0  0  0
  140.7560   80.8180  223.8150 C   0  0  0  0  0  0  0  0  0  0  0  0
  142.0300   80.3000  223.6200 C   0  0  0  0  0  0  0  0  0  0  0  0
  142.1950   79.0260  223.1420 C   0  0  0  0  0  0  0  0  0  0  0  0
  141.0780   78.2650  222.8570 C   0  0  0  0  0  0  0  0  0  0  0  0
  141.2210   77.0040  222.3840 N   0  0  0  0  0  0  0  0  0  0  0  0
  138.6320   74.0510  222.7420 H   0  0  0  0  0  0  0  0  0  0  0  0
  139.2956   72.5539  220.3967 H   0  0  0  0  0  0  0  0  0  0  0  0
  140.6308   72.2499  221.5573 H   0  0  0  0  0  0  0  0  0  0  0  0
  138.6326   70.2336  219.8805 H   0  0  0  0  0  0  0  0  0  0  0  0
  140.1809   69.5104  220.3138 H   0  0  0  0  0  0  0  0  0  0  0  0
  138.0025   68.0230  219.7397 H   0  0  0  0  0  0  0  0  0  0  0  0
  139.2159   67.5182  221.0036 H   0  0  0  0  0  0  0  0  0  0  0  0
  136.5931   68.9411  221.4886 H   0  0  0  0  0  0  0  0  0  0  0  0
  136.9969   67.1757  221.7868 H   0  0  0  0  0  0  0  0  0  0  0  0
  137.1030   69.1820  223.6538 H   0  0  0  0  0  0  0  0  0  0  0  0
  137.9305   67.6003  223.7432 H   0  0  0  0  0  0  0  0  0  0  0  0
  139.9665   68.5035  222.8550 H   0  0  0  0  0  0  0  0  0  0  0  0
  138.3333   68.6368  225.5662 H   0  0  0  0  0  0  0  0  0  0  0  0
  139.1621   69.6424  227.6784 H   0  0  0  0  0  0  0  0  0  0  0  0
  141.8584   72.1064  225.4544 H   0  0  0  0  0  0  0  0  0  0  0  0
  141.0410   71.1153  223.3314 H   0  0  0  0  0  0  0  0  0  0  0  0
  137.9832   76.1499  222.0682 H   0  0  0  0  0  0  0  0  0  0  0  0
  137.6673   78.4451  222.9284 H   0  0  0  0  0  0  0  0  0  0  0  0
  138.6190   80.4983  223.6971 H   0  0  0  0  0  0  0  0  0  0  0  0
  140.6477   81.8430  224.1992 H   0  0  0  0  0  0  0  0  0  0  0  0
  142.9118   80.9159  223.8505 H   0  0  0  0  0  0  0  0  0  0  0  0
  143.2036   78.6151  222.9874 H   0  0  0  0  0  0  0  0  0  0  0  0
  1  2  2  0
  2  3  1  0
  3  4  1  0
  4  5  1  0
  5  6  2  0
  5  7  1  0
  7  8  1  0
  8  9  1  0
  9 10  1  0
 10 11  1  0
 11 12  1  0
 12 13  1  0
 13 14  2  0
 14 15  1  0
 15 16  2  0
 16 17  1  0
 17 18  1  0
 17 19  1  0
 17 20  1  0
 16 21  1  0
 21 22  2  0
  2 23  1  0
 23 24  2  0
 24 25  1  0
 25 26  2  0
 26 27  1  0
 27 28  2  0
 28 29  1  0
 29 30  2  0
 30 31  1  0
 31 32  2  0
 12  7  1  0
 22 13  1  0
 32 23  1  0
 31 26  1  0
  3 33  1  0
  4 34  1  0
  4 35  1  0
  8 36  1  0
  8 37  1  0
  9 38  1  0
  9 39  1  0
 10 40  1  0
 10 41  1  0
 11 42  1  0
 11 43  1  0
 12 44  1  6
 14 45  1  0
 15 46  1  0
 21 47  1  0
 22 48  1  0
 24 49  1  0
 25 50  1  0
 27 51  1  0
 28 52  1  0
 29 53  1  0
 30 54  1  0
M  END
>  <smiles>  (4) 
O=C(NCC(=O)N1CCCCC1c1ccc(C(F)(F)F)cc1)c1ccc2ccccc2n1

>  <score_type>  (4) 
oracle

>  <origin>  (4) 
autodockgpu

>  <m_score__min__energy>  (4) 
-8.3300000000000001

>  <m_primary>  (4) 
energy

>  <rmsd>  (4) 
8.08313164971158

>  <m_score__min__rmsd>  (4) 
8.08313164971158

>  <meeko>  (4) 
{"free_energy": -8.23, "intermolecular_energy": -10.02, "internal_energy": -1.88, "cluster_size": 8, "cluster_id": 2, "rank_in_cluster": 4}

>  <energy>  (4) 
-8.14

>  <cluster_rmsd>  (4) 
0.36

>  <cluster>  (4) 
1

$$$$

     RDKit          3D

 54 57  0  0  0  0  0  0  0  0999 V2000
  139.1310   70.9000  221.5800 O   0  0  0  0  0  0  0  0  0  0  0  0
  139.4540   71.3970  222.6840 C   0  0  0  0  0  0  0  0  0  0  0  0
  139.6540   72.8040  222.7250 N   0  0  0  0  0  0  0  0  0  0  0  0
  139.4620   73.5230  221.4700 C   0  0  0  0  0  0  0  0  0  0  0  0
  139.3980   74.9740  221.7440 C   0  0  0  0  0  0  0  0  0  0  0  0
  140.3760   75.4950  222.3330 O   0  0  0  0  0  0  0  0  0  0  0  0
  138.2420   75.6780  221.3270 N   0  0  0  0  0  0  0  0  0  0  0  0
  136.9130   75.0330  221.2780 C   0  0  0  0  0  0  0  0  0  0  0  0
  136.2680   75.5740  220.0290 C   0  0  0  0  0  0  0  0  0  0  0  0
  137.2690   75.9730  218.9740 C   0  0  0  0  0  0  0  0  0  0  0  0
  138.2530   77.0190  219.4090 C   0  0  0  0  0  0  0  0  0  0  0  0
  138.2490   77.0720  220.9100 C   0  0  2  0  0  0  0  0  0  0  0  0
  139.3280   77.8700  221.5030 C   0  0  0  0  0  0  0  0  0  0  0  0
  139.2580   78.2870  222.8200 C   0  0  0  0  0  0  0  0  0  0  0  0
  140.2950   79.0380  223.3720 C   0  0  0  0  0  0  0  0  0  0  0  0
  141.4100   79.3840  222.6290 C   0  0  0  0  0  0  0  0  0  0  0  0
  142.5310   80.1890  223.2060 C   0  0  0  0  0  0  0  0  0  0  0  0
  143.7600   79.8130  222.7290 F   0  0  0  0  0  0  0  0  0  0  0  0
  142.5550   80.0570  224.5780 F   0  0  0  0  0  0  0  0  0  0  0  0
  142.3680   81.5330  222.9300 F   0  0  0  0  0  0  0  0  0  0  0  0
  141.4580   78.9560  221.3160 C   0  0  0  0  0  0  0  0  0  0  0  0
  140.4310   78.2040  220.7450 C   0  0  0  0  0  0  0  0  0  0  0  0
  139.6190   70.5780  223.8790 C   0  0  0  0  0  0  0  0  0  0  0  0
  139.1570   69.2740  223.8480 C   0  0  0  0  0  0  0  0  0  0  0  0
  139.2760   68.4460  224.9310 C   0  0  0  0  0  0  0  0  0  0  0  0
  139.8800   68.9510  226.0750 C   0  0  0  0  0  0  0  0  0  0  0  0
  140.0040   68.1200  227.1700 C   0  0  0  0  0  0  0  0  0  0  0  0
  140.6070   68.6420  228.2940 C   0  0  0  0  0  0  0  0  0  0  0  0
  141.0750   69.9490  228.3310 C   0  0  0  0  0  0  0  0  0  0  0  0
  140.9450   70.7640  227.2370 C   0  0  0  0  0  0  0  0  0  0  0  0
  140.3450   70.2670  226.0970 C   0  0  0  0  0  0  0  0  0  0  0  0
  140.2080   71.0570  225.0050 N   0  0  0  0  0  0  0  0  0  0  0  0
  139.9220   73.2820  223.6040 H   0  0  0  0  0  0  0  0  0  0  0  0
  140.3039   73.3134  220.7938 H   0  0  0  0  0  0  0  0  0  0  0  0
  138.5245   73.1953  220.9969 H   0  0  0  0  0  0  0  0  0  0  0  0
  137.0151   73.9393  221.2188 H   0  0  0  0  0  0  0  0  0  0  0  0
  136.3162   75.2433  222.1778 H   0  0  0  0  0  0  0  0  0  0  0  0
  135.6086   74.7990  219.6112 H   0  0  0  0  0  0  0  0  0  0  0  0
  135.7103   76.4789  220.3123 H   0  0  0  0  0  0  0  0  0  0  0  0
  137.8314   75.0752  218.6778 H   0  0  0  0  0  0  0  0  0  0  0  0
  136.6916   76.4132  218.1476 H   0  0  0  0  0  0  0  0  0  0  0  0
  139.2587   76.7571  219.0484 H   0  0  0  0  0  0  0  0  0  0  0  0
  137.9745   77.9987  218.9935 H   0  0  0  0  0  0  0  0  0  0  0  0
  137.3663   77.6130  221.2815 H   0  0  0  0  0  0  0  0  0  0  0  0
  138.3827   78.0257  223.4329 H   0  0  0  0  0  0  0  0  0  0  0  0
  140.2253   79.3625  224.4207 H   0  0  0  0  0  0  0  0  0  0  0  0
  142.3329   79.2162  220.7021 H   0  0  0  0  0  0  0  0  0  0  0  0
  140.5004   77.8793  219.6963 H   0  0  0  0  0  0  0  0  0  0  0  0
  138.6828   68.8940  222.9311 H   0  0  0  0  0  0  0  0  0  0  0  0
  138.9043   67.4113  224.8964 H   0  0  0  0  0  0  0  0  0  0  0  0
  139.6366   67.0835  227.1465 H   0  0  0  0  0  0  0  0  0  0  0  0
  140.7205   68.0069  229.1849 H   0  0  0  0  0  0  0  0  0  0  0  0
  141.5531   70.3325  229.2444 H   0  0  0  0  0  0  0  0  0  0  0  0
  141.3136   71.8000  227.2666 H   0  0  0  0  0  0  0  0  0  0  0  0
  1  2  2  0
  2  3  1  0
  3  4  1  0
  4  5  1  0
  5  6  2  0
  5  7  1  0
  7  8  1  0
  8  9  1  0
  9 10  1  0
 10 11  1  0
 11 12  1  0
 12 13  1  0
 13 14  2  0
 14 15  1  0
 15 16  2  0
 16 17  1  0
 17 18  1  0
 17 19  1  0
 17 20  1  0
 16 21  1  0
 21 22  2  0
  2 23  1  0
 23 24  2  0
 24 25  1  0
 25 26  2  0
 26 27  1  0
 27 28  2  0
 28 29  1  0
 29 30  2  0
 30 31  1  0
 31 32  2  0
 12  7  1  0
 22 13  1  0
 32 23  1  0
 31 26  1  0
  3 33  1  0
  4 34  1  0
  4 35  1  0
  8 36  1  0
  8 37  1  0
  9 38  1  0
  9 39  1  0
 10 40  1  0
 10 41  1  0
 11 42  1  0
 11 43  1  0
 12 44  1  6
 14 45  1  0
 15 46  1  0
 21 47  1  0
 22 48  1  0
 24 49  1  0
 25 50  1  0
 27 51  1  0
 28 52  1  0
 29 53  1  0
 30 54  1  0
M  END
>  <smiles>  (5) 
O=C(NCC(=O)N1CCCCC1c1ccc(C(F)(F)F)cc1)c1ccc2ccccc2n1

>  <score_type>  (5) 
oracle

>  <origin>  (5) 
autodockgpu

>  <m_score__min__energy>  (5) 
-8.3300000000000001

>  <m_primary>  (5) 
energy

>  <rmsd>  (5) 
2.3383230579086103

>  <m_score__min__rmsd>  (5) 
2.3383230579086103

>  <meeko>  (5) 
{"free_energy": -7.78, "intermolecular_energy": -9.57, "internal_energy": -1.71, "cluster_size": 12, "cluster_id": 1, "rank_in_cluster": 10}

>  <energy>  (5) 
-8.11

>  <cluster_rmsd>  (5) 
0.37

>  <cluster>  (5) 
1

$$$$

     RDKit          3D

 54 57  0  0  0  0  0  0  0  0999 V2000
  140.4720   71.3370  221.3670 O   0  0  0  0  0  0  0  0  0  0  0  0
  140.0690   71.8750  222.4260 C   0  0  0  0  0  0  0  0  0  0  0  0
  139.6110   73.2170  222.3350 N   0  0  0  0  0  0  0  0  0  0  0  0
  139.6590   73.8310  221.0110 C   0  0  0  0  0  0  0  0  0  0  0  0
  140.5510   75.0080  221.0520 C   0  0  0  0  0  0  0  0  0  0  0  0
  140.8550   75.4650  222.1810 O   0  0  0  0  0  0  0  0  0  0  0  0
  141.0020   75.5420  219.8210 N   0  0  0  0  0  0  0  0  0  0  0  0
  140.9880   74.7460  218.5750 C   0  0  0  0  0  0  0  0  0  0  0  0
  142.2650   75.1170  217.8660 C   0  0  0  0  0  0  0  0  0  0  0  0
  143.3580   75.5520  218.8100 C   0  0  0  0  0  0  0  0  0  0  0  0
  143.0100   76.7340  219.6670 C   0  0  0  0  0  0  0  0  0  0  0  0
  141.5170   76.8940  219.6630 C   0  0  2  0  0  0  0  0  0  0  0  0
  140.9960   77.8520  220.6450 C   0  0  0  0  0  0  0  0  0  0  0  0
  139.6380   78.0920  220.7470 C   0  0  0  0  0  0  0  0  0  0  0  0
  139.1560   79.0000  221.6900 C   0  0  0  0  0  0  0  0  0  0  0  0
  140.0120   79.6770  222.5400 C   0  0  0  0  0  0  0  0  0  0  0  0
  139.5120   80.6550  223.5570 C   0  0  0  0  0  0  0  0  0  0  0  0
  138.7320   81.6410  223.0110 F   0  0  0  0  0  0  0  0  0  0  0  0
  140.5720   81.2630  224.1940 F   0  0  0  0  0  0  0  0  0  0  0  0
  138.7640   80.0190  224.5290 F   0  0  0  0  0  0  0  0  0  0  0  0
  141.3640   79.4220  222.4200 C   0  0  0  0  0  0  0  0  0  0  0  0
  141.8660   78.5170  221.4830 C   0  0  0  0  0  0  0  0  0  0  0  0
  140.0670   71.1630  223.6990 C   0  0  0  0  0  0  0  0  0  0  0  0
  139.5310   69.8870  223.7340 C   0  0  0  0  0  0  0  0  0  0  0  0
  139.4930   69.1590  224.8910 C   0  0  0  0  0  0  0  0  0  0  0  0
  140.0130   69.7360  226.0430 C   0  0  0  0  0  0  0  0  0  0  0  0
  139.9780   69.0060  227.2140 C   0  0  0  0  0  0  0  0  0  0  0  0
  140.4990   69.5980  228.3440 C   0  0  0  0  0  0  0  0  0  0  0  0
  141.0390   70.8770  228.3150 C   0  0  0  0  0  0  0  0  0  0  0  0
  141.0670   71.5920  227.1460 C   0  0  0  0  0  0  0  0  0  0  0  0
  140.5520   71.0230  225.9980 C   0  0  0  0  0  0  0  0  0  0  0  0
  140.5710   71.7140  224.8330 N   0  0  0  0  0  0  0  0  0  0  0  0
  139.2640   73.7240  223.1690 H   0  0  0  0  0  0  0  0  0  0  0  0
  140.0442   73.1030  220.2819 H   0  0  0  0  0  0  0  0  0  0  0  0
  138.6477   74.1446  220.7128 H   0  0  0  0  0  0  0  0  0  0  0  0
  140.9700   73.6700  218.8029 H   0  0  0  0  0  0  0  0  0  0  0  0
  140.0982   74.9510  217.9616 H   0  0  0  0  0  0  0  0  0  0  0  0
  142.6183   74.2427  217.2997 H   0  0  0  0  0  0  0  0  0  0  0  0
  142.0403   75.9691  217.2076 H   0  0  0  0  0  0  0  0  0  0  0  0
  143.5961   74.7065  219.4721 H   0  0  0  0  0  0  0  0  0  0  0  0
  144.2069   75.8612  218.1825 H   0  0  0  0  0  0  0  0  0  0  0  0
  143.3635   76.5655  220.6949 H   0  0  0  0  0  0  0  0  0  0  0  0
  143.4902   77.6423  219.2741 H   0  0  0  0  0  0  0  0  0  0  0  0
  141.1738   77.3542  218.7247 H   0  0  0  0  0  0  0  0  0  0  0  0
  138.9363   77.5658  220.0831 H   0  0  0  0  0  0  0  0  0  0  0  0
  138.0733   79.1813  221.7591 H   0  0  0  0  0  0  0  0  0  0  0  0
  142.0667   79.9480  223.0829 H   0  0  0  0  0  0  0  0  0  0  0  0
  142.9487   78.3356  221.4137 H   0  0  0  0  0  0  0  0  0  0  0  0
  139.1264   69.4486  222.8098 H   0  0  0  0  0  0  0  0  0  0  0  0
  139.0634   68.1465  224.9091 H   0  0  0  0  0  0  0  0  0  0  0  0
  139.5514   67.9925  227.2439 H   0  0  0  0  0  0  0  0  0  0  0  0
  140.4868   69.0430  229.2937 H   0  0  0  0  0  0  0  0  0  0  0  0
  141.4468   71.3191  229.2360 H   0  0  0  0  0  0  0  0  0  0  0  0
  141.4940   72.6055  227.1226 H   0  0  0  0  0  0  0  0  0  0  0  0
  1  2  2  0
  2  3  1  0
  3  4  1  0
  4  5  1  0
  5  6  2  0
  5  7  1  0
  7  8  1  0
  8  9  1  0
  9 10  1  0
 10 11  1  0
 11 12  1  0
 12 13  1  0
 13 14  2  0
 14 15  1  0
 15 16  2  0
 16 17  1  0
 17 18  1  0
 17 19  1  0
 17 20  1  0
 16 21  1  0
 21 22  2  0
  2 23  1  0
 23 24  2  0
 24 25  1  0
 25 26  2  0
 26 27  1  0
 27 28  2  0
 28 29  1  0
 29 30  2  0
 30 31  1  0
 31 32  2  0
 12  7  1  0
 22 13  1  0
 32 23  1  0
 31 26  1  0
  3 33  1  0
  4 34  1  0
  4 35  1  0
  8 36  1  0
  8 37  1  0
  9 38  1  0
  9 39  1  0
 10 40  1  0
 10 41  1  0
 11 42  1  0
 11 43  1  0
 12 44  1  6
 14 45  1  0
 15 46  1  0
 21 47  1  0
 22 48  1  0
 24 49  1  0
 25 50  1  0
 27 51  1  0
 28 52  1  0
 29 53  1  0
 30 54  1  0
M  END
>  <smiles>  (6) 
O=C(NCC(=O)N1CCCCC1c1ccc(C(F)(F)F)cc1)c1ccc2ccccc2n1

>  <score_type>  (6) 
oracle

>  <origin>  (6) 
autodockgpu

>  <m_score__min__energy>  (6) 
-8.3300000000000001

>  <m_primary>  (6) 
energy

>  <rmsd>  (6) 
1.592248769680722

>  <m_score__min__rmsd>  (6) 
1.592248769680722

>  <meeko>  (6) 
{"free_energy": -8.24, "intermolecular_energy": -10.03, "internal_energy": -1.7, "cluster_size": 12, "cluster_id": 1, "rank_in_cluster": 2}

>  <energy>  (6) 
-8.0

>  <cluster_rmsd>  (6) 
0.47

>  <cluster>  (6) 
1

$$$$

     RDKit          3D

 54 57  0  0  0  0  0  0  0  0999 V2000
  140.5480   77.7310  218.6300 O   0  0  0  0  0  0  0  0  0  0  0  0
  141.5580   77.5370  219.3470 C   0  0  0  0  0  0  0  0  0  0  0  0
  142.1100   78.6700  220.0040 N   0  0  0  0  0  0  0  0  0  0  0  0
  141.4410   79.9450  219.7710 C   0  0  0  0  0  0  0  0  0  0  0  0
  140.3250   80.0920  220.7280 C   0  0  0  0  0  0  0  0  0  0  0  0
  139.1580   80.0320  220.2700 O   0  0  0  0  0  0  0  0  0  0  0  0
  140.6420   80.2890  222.0940 N   0  0  0  0  0  0  0  0  0  0  0  0
  140.8360   81.6410  222.6610 C   0  0  0  0  0  0  0  0  0  0  0  0
  141.9880   81.4950  223.6200 C   0  0  0  0  0  0  0  0  0  0  0  0
  142.9330   80.3820  223.2420 C   0  0  0  0  0  0  0  0  0  0  0  0
  142.2980   79.0240  223.1600 C   0  0  0  0  0  0  0  0  0  0  0  0
  140.8120   79.2070  223.0520 C   0  0  2  0  0  0  0  0  0  0  0  0
  140.0630   77.9900  222.7190 C   0  0  0  0  0  0  0  0  0  0  0  0
  138.6800   77.9940  222.6980 C   0  0  0  0  0  0  0  0  0  0  0  0
  137.9810   76.8320  222.3730 C   0  0  0  0  0  0  0  0  0  0  0  0
  138.6420   75.6560  222.0650 C   0  0  0  0  0  0  0  0  0  0  0  0
  137.9080   74.4000  221.7140 C   0  0  0  0  0  0  0  0  0  0  0  0
  137.5060   74.3650  220.4040 F   0  0  0  0  0  0  0  0  0  0  0  0
  136.7840   74.2700  222.5020 F   0  0  0  0  0  0  0  0  0  0  0  0
  138.6940   73.2870  221.9420 F   0  0  0  0  0  0  0  0  0  0  0  0
  140.0230   75.6750  222.0920 C   0  0  0  0  0  0  0  0  0  0  0  0
  140.7400   76.8280  222.4160 C   0  0  0  0  0  0  0  0  0  0  0  0
  142.1460   76.2120  219.5070 C   0  0  0  0  0  0  0  0  0  0  0  0
  141.3820   75.1110  219.1630 C   0  0  0  0  0  0  0  0  0  0  0  0
  141.8660   73.8380  219.2870 C   0  0  0  0  0  0  0  0  0  0  0  0
  143.1570   73.6740  219.7700 C   0  0  0  0  0  0  0  0  0  0  0  0
  143.6510   72.3910  219.8970 C   0  0  0  0  0  0  0  0  0  0  0  0
  144.9350   72.2520  220.3790 C   0  0  0  0  0  0  0  0  0  0  0  0
  145.7070   73.3540  220.7250 C   0  0  0  0  0  0  0  0  0  0  0  0
  145.2050   74.6220  220.5950 C   0  0  0  0  0  0  0  0  0  0  0  0
  143.9210   74.7900  220.1150 C   0  0  0  0  0  0  0  0  0  0  0  0
  143.4070   76.0370  219.9790 N   0  0  0  0  0  0  0  0  0  0  0  0
  142.9450   78.5830  220.6120 H   0  0  0  0  0  0  0  0  0  0  0  0
  142.1576   80.7674  219.9128 H   0  0  0  0  0  0  0  0  0  0  0  0
  141.0514   79.9746  218.7427 H   0  0  0  0  0  0  0  0  0  0  0  0
  141.0815   82.3623  221.8676 H   0  0  0  0  0  0  0  0  0  0  0  0
  139.9288   82.0173  223.1564 H   0  0  0  0  0  0  0  0  0  0  0  0
  142.5500   82.4404  223.6391 H   0  0  0  0  0  0  0  0  0  0  0  0
  141.5661   81.2476  224.6053 H   0  0  0  0  0  0  0  0  0  0  0  0
  143.3657   80.6184  222.2587 H   0  0  0  0  0  0  0  0  0  0  0  0
  143.6855   80.3265  224.0424 H   0  0  0  0  0  0  0  0  0  0  0  0
  142.6729   78.4905  222.2741 H   0  0  0  0  0  0  0  0  0  0  0  0
  142.5442   78.4346  224.0556 H   0  0  0  0  0  0  0  0  0  0  0  0
  140.3758   79.4569  224.0304 H   0  0  0  0  0  0  0  0  0  0  0  0
  138.1302   78.9160  222.9382 H   0  0  0  0  0  0  0  0  0  0  0  0
  136.8812   76.8506  222.3612 H   0  0  0  0  0  0  0  0  0  0  0  0
  140.5741   74.7540  221.8510 H   0  0  0  0  0  0  0  0  0  0  0  0
  141.8398   76.8095  222.4295 H   0  0  0  0  0  0  0  0  0  0  0  0
  140.3618   75.2631  218.7809 H   0  0  0  0  0  0  0  0  0  0  0  0
  141.2501   72.9691  219.0119 H   0  0  0  0  0  0  0  0  0  0  0  0
  143.0443   71.5148  219.6245 H   0  0  0  0  0  0  0  0  0  0  0  0
  145.3589   71.2433  220.4925 H   0  0  0  0  0  0  0  0  0  0  0  0
  146.7284   73.2074  221.1060 H   0  0  0  0  0  0  0  0  0  0  0  0
  145.8163   75.4944  220.8692 H   0  0  0  0  0  0  0  0  0  0  0  0
  1  2  2  0
  2  3  1  0
  3  4  1  0
  4  5  1  0
  5  6  2  0
  5  7  1  0
  7  8  1  0
  8  9  1  0
  9 10  1  0
 10 11  1  0
 11 12  1  0
 12 13  1  0
 13 14  2  0
 14 15  1  0
 15 16  2  0
 16 17  1  0
 17 18  1  0
 17 19  1  0
 17 20  1  0
 16 21  1  0
 21 22  2  0
  2 23  1  0
 23 24  2  0
 24 25  1  0
 25 26  2  0
 26 27  1  0
 27 28  2  0
 28 29  1  0
 29 30  2  0
 30 31  1  0
 31 32  2  0
 12  7  1  0
 22 13  1  0
 32 23  1  0
 31 26  1  0
  3 33  1  0
  4 34  1  0
  4 35  1  0
  8 36  1  0
  8 37  1  0
  9 38  1  0
  9 39  1  0
 10 40  1  0
 10 41  1  0
 11 42  1  0
 11 43  1  0
 12 44  1  1
 14 45  1  0
 15 46  1  0
 21 47  1  0
 22 48  1  0
 24 49  1  0
 25 50  1  0
 27 51  1  0
 28 52  1  0
 29 53  1  0
 30 54  1  0
M  END
>  <smiles>  (7) 
O=C(NCC(=O)N1CCCCC1c1ccc(C(F)(F)F)cc1)c1ccc2ccccc2n1

>  <score_type>  (7) 
oracle

>  <origin>  (7) 
autodockgpu

>  <m_score__min__energy>  (7) 
-8.3300000000000001

>  <m_primary>  (7) 
energy

>  <rmsd>  (7) 
7.516640744565407

>  <m_score__min__rmsd>  (7) 
7.516640744565407

>  <meeko>  (7) 
{"free_energy": -6.92, "intermolecular_energy": -8.71, "internal_energy": -2.87, "cluster_size": 10, "cluster_id": 7, "rank_in_cluster": 8}

>  <energy>  (7) 
-7.96

>  <cluster_rmsd>  (7) 
0.58

>  <cluster>  (7) 
1

$$$$

     RDKit          3D

 54 57  0  0  0  0  0  0  0  0999 V2000
  140.6180   71.7550  221.5160 O   0  0  0  0  0  0  0  0  0  0  0  0
  139.8680   72.0020  222.4890 C   0  0  0  0  0  0  0  0  0  0  0  0
  138.9020   73.0290  222.3160 N   0  0  0  0  0  0  0  0  0  0  0  0
  138.8850   73.6920  221.0150 C   0  0  0  0  0  0  0  0  0  0  0  0
  139.8520   74.8090  221.0250 C   0  0  0  0  0  0  0  0  0  0  0  0
  140.5380   74.9710  222.0640 O   0  0  0  0  0  0  0  0  0  0  0  0
  139.9410   75.6210  219.8690 N   0  0  0  0  0  0  0  0  0  0  0  0
  138.9660   76.6990  219.5980 C   0  0  0  0  0  0  0  0  0  0  0  0
  138.7260   76.6370  218.1120 C   0  0  0  0  0  0  0  0  0  0  0  0
  138.9370   75.2590  217.5370 C   0  0  0  0  0  0  0  0  0  0  0  0
  140.3120   74.6960  217.7510 C   0  0  0  0  0  0  0  0  0  0  0  0
  140.9720   75.4750  218.8520 C   0  0  2  0  0  0  0  0  0  0  0  0
  142.2260   74.8980  219.3500 C   0  0  0  0  0  0  0  0  0  0  0  0
  142.3890   73.5270  219.4360 C   0  0  0  0  0  0  0  0  0  0  0  0
  143.5890   72.9930  219.9050 C   0  0  0  0  0  0  0  0  0  0  0  0
  144.6380   73.8080  220.2920 C   0  0  0  0  0  0  0  0  0  0  0  0
  145.9320   73.2510  220.7970 C   0  0  0  0  0  0  0  0  0  0  0  0
  145.9310   73.0430  222.1510 F   0  0  0  0  0  0  0  0  0  0  0  0
  146.9680   74.1140  220.5050 F   0  0  0  0  0  0  0  0  0  0  0  0
  146.2240   72.0470  220.1870 F   0  0  0  0  0  0  0  0  0  0  0  0
  144.4530   75.1740  220.1970 C   0  0  0  0  0  0  0  0  0  0  0  0
  143.2600   75.7280  219.7310 C   0  0  0  0  0  0  0  0  0  0  0  0
  139.9740   71.2730  223.7480 C   0  0  0  0  0  0  0  0  0  0  0  0
  139.5560   69.9540  223.7780 C   0  0  0  0  0  0  0  0  0  0  0  0
  139.6250   69.2070  224.9220 C   0  0  0  0  0  0  0  0  0  0  0  0
  140.1310   69.8110  226.0660 C   0  0  0  0  0  0  0  0  0  0  0  0
  140.2030   69.0620  227.2240 C   0  0  0  0  0  0  0  0  0  0  0  0
  140.7080   69.6810  228.3460 C   0  0  0  0  0  0  0  0  0  0  0  0
  141.1300   71.0040  228.3230 C   0  0  0  0  0  0  0  0  0  0  0  0
  141.0530   71.7370  227.1670 C   0  0  0  0  0  0  0  0  0  0  0  0
  140.5510   71.1420  226.0270 C   0  0  0  0  0  0  0  0  0  0  0  0
  140.4670   71.8500  224.8740 N   0  0  0  0  0  0  0  0  0  0  0  0
  138.2490   73.2860  223.0780 H   0  0  0  0  0  0  0  0  0  0  0  0
  139.1633   72.9717  220.2316 H   0  0  0  0  0  0  0  0  0  0  0  0
  137.8758   74.0794  220.8113 H   0  0  0  0  0  0  0  0  0  0  0  0
  138.0305   76.5228  220.1492 H   0  0  0  0  0  0  0  0  0  0  0  0
  139.3369   77.6840  219.9177 H   0  0  0  0  0  0  0  0  0  0  0  0
  137.6893   76.9453  217.9114 H   0  0  0  0  0  0  0  0  0  0  0  0
  139.4545   77.3079  217.6332 H   0  0  0  0  0  0  0  0  0  0  0  0
  138.2108   74.5775  218.0041 H   0  0  0  0  0  0  0  0  0  0  0  0
  138.8041   75.3517  216.4490 H   0  0  0  0  0  0  0  0  0  0  0  0
  140.2401   73.6361  218.0363 H   0  0  0  0  0  0  0  0  0  0  0  0
  140.9018   74.7719  216.8256 H   0  0  0  0  0  0  0  0  0  0  0  0
  141.3245   76.4505  218.4857 H   0  0  0  0  0  0  0  0  0  0  0  0
  141.5707   72.8568  219.1340 H   0  0  0  0  0  0  0  0  0  0  0  0
  143.7039   71.9009  219.9686 H   0  0  0  0  0  0  0  0  0  0  0  0
  145.2710   75.8452  220.4978 H   0  0  0  0  0  0  0  0  0  0  0  0
  143.1447   76.8201  219.6678 H   0  0  0  0  0  0  0  0  0  0  0  0
  139.1589   69.4955  222.8603 H   0  0  0  0  0  0  0  0  0  0  0  0
  139.2898   68.1594  224.9355 H   0  0  0  0  0  0  0  0  0  0  0  0
  139.8706   68.0137  227.2493 H   0  0  0  0  0  0  0  0  0  0  0  0
  140.7789   69.1125  229.2850 H   0  0  0  0  0  0  0  0  0  0  0  0
  141.5285   71.4666  229.2380 H   0  0  0  0  0  0  0  0  0  0  0  0
  141.3867   72.7850  227.1482 H   0  0  0  0  0  0  0  0  0  0  0  0
  1  2  2  0
  2  3  1  0
  3  4  1  0
  4  5  1  0
  5  6  2  0
  5  7  1  0
  7  8  1  0
  8  9  1  0
  9 10  1  0
 10 11  1  0
 11 12  1  0
 12 13  1  0
 13 14  2  0
 14 15  1  0
 15 16  2  0
 16 17  1  0
 17 18  1  0
 17 19  1  0
 17 20  1  0
 16 21  1  0
 21 22  2  0
  2 23  1  0
 23 24  2  0
 24 25  1  0
 25 26  2  0
 26 27  1  0
 27 28  2  0
 28 29  1  0
 29 30  2  0
 30 31  1  0
 31 32  2  0
 12  7  1  0
 22 13  1  0
 32 23  1  0
 31 26  1  0
  3 33  1  0
  4 34  1  0
  4 35  1  0
  8 36  1  0
  8 37  1  0
  9 38  1  0
  9 39  1  0
 10 40  1  0
 10 41  1  0
 11 42  1  0
 11 43  1  0
 12 44  1  6
 14 45  1  0
 15 46  1  0
 21 47  1  0
 22 48  1  0
 24 49  1  0
 25 50  1  0
 27 51  1  0
 28 52  1  0
 29 53  1  0
 30 54  1  0
M  END
>  <smiles>  (8) 
O=C(NCC(=O)N1CCCCC1c1ccc(C(F)(F)F)cc1)c1ccc2ccccc2n1

>  <score_type>  (8) 
oracle

>  <origin>  (8) 
autodockgpu

>  <m_score__min__energy>  (8) 
-8.3300000000000001

>  <m_primary>  (8) 
energy

>  <rmsd>  (8) 
1.7496559592077472

>  <m_score__min__rmsd>  (8) 
1.7496559592077472

>  <meeko>  (8) 
{"free_energy": -8.03, "intermolecular_energy": -9.82, "internal_energy": -1.82, "cluster_size": 11, "cluster_id": 4, "rank_in_cluster": 1}

>  <energy>  (8) 
-7.88

>  <cluster_rmsd>  (8) 
0.51

>  <cluster>  (8) 
1

$$$$

     RDKit          3D

 54 57  0  0  0  0  0  0  0  0999 V2000
  140.4160   71.0550  221.6500 O   0  0  0  0  0  0  0  0  0  0  0  0
  140.1480   71.6880  222.6980 C   0  0  0  0  0  0  0  0  0  0  0  0
  139.7580   73.0470  222.5500 N   0  0  0  0  0  0  0  0  0  0  0  0
  139.7120   73.5630  221.1860 C   0  0  0  0  0  0  0  0  0  0  0  0
  139.9550   75.0210  221.2080 C   0  0  0  0  0  0  0  0  0  0  0  0
  140.1450   75.5590  222.3260 O   0  0  0  0  0  0  0  0  0  0  0  0
  139.9570   75.7120  219.9720 N   0  0  0  0  0  0  0  0  0  0  0  0
  138.9700   76.7700  219.6710 C   0  0  0  0  0  0  0  0  0  0  0  0
  138.6140   76.5650  218.2210 C   0  0  0  0  0  0  0  0  0  0  0  0
  138.7720   75.1330  217.7730 C   0  0  0  0  0  0  0  0  0  0  0  0
  140.1570   74.5770  217.9360 C   0  0  0  0  0  0  0  0  0  0  0  0
  140.9050   75.4520  218.8990 C   0  0  2  0  0  0  0  0  0  0  0  0
  142.1910   74.9120  219.3540 C   0  0  0  0  0  0  0  0  0  0  0  0
  143.2200   75.7560  219.7290 C   0  0  0  0  0  0  0  0  0  0  0  0
  144.4350   75.2280  220.1660 C   0  0  0  0  0  0  0  0  0  0  0  0
  144.6430   73.8620  220.2370 C   0  0  0  0  0  0  0  0  0  0  0  0
  145.9400   73.2790  220.7030 C   0  0  0  0  0  0  0  0  0  0  0  0
  147.0110   74.0980  220.4600 F   0  0  0  0  0  0  0  0  0  0  0  0
  146.1770   72.0780  220.0690 F   0  0  0  0  0  0  0  0  0  0  0  0
  145.9080   73.0220  222.0600 F   0  0  0  0  0  0  0  0  0  0  0  0
  143.6010   73.0380  219.8580 C   0  0  0  0  0  0  0  0  0  0  0  0
  142.3780   73.5470  219.4170 C   0  0  0  0  0  0  0  0  0  0  0  0
  140.2300   71.0680  224.0160 C   0  0  0  0  0  0  0  0  0  0  0  0
  140.6950   71.8320  225.0720 C   0  0  0  0  0  0  0  0  0  0  0  0
  140.8000   71.3190  226.3350 C   0  0  0  0  0  0  0  0  0  0  0  0
  140.4240   69.9970  226.5360 C   0  0  0  0  0  0  0  0  0  0  0  0
  140.5270   69.4730  227.8090 C   0  0  0  0  0  0  0  0  0  0  0  0
  140.1480   68.1600  227.9850 C   0  0  0  0  0  0  0  0  0  0  0  0
  139.6790   67.3880  226.9290 C   0  0  0  0  0  0  0  0  0  0  0  0
  139.5820   67.9200  225.6700 C   0  0  0  0  0  0  0  0  0  0  0  0
  139.9550   69.2340  225.4650 C   0  0  0  0  0  0  0  0  0  0  0  0
  139.8660   69.7770  224.2270 N   0  0  0  0  0  0  0  0  0  0  0  0
  139.5220   73.6300  223.3730 H   0  0  0  0  0  0  0  0  0  0  0  0
  140.4867   73.0703  220.5802 H   0  0  0  0  0  0  0  0  0  0  0  0
  138.7236   73.3602  220.7479 H   0  0  0  0  0  0  0  0  0  0  0  0
  138.0795   76.6613  220.3075 H   0  0  0  0  0  0  0  0  0  0  0  0
  139.3702   77.7768  219.8614 H   0  0  0  0  0  0  0  0  0  0  0  0
  137.5666   76.8659  218.0711 H   0  0  0  0  0  0  0  0  0  0  0  0
  139.3058   77.1758  217.6223 H   0  0  0  0  0  0  0  0  0  0  0  0
  138.0811   74.5112  218.3612 H   0  0  0  0  0  0  0  0  0  0  0  0
  138.5545   75.1176  216.6948 H   0  0  0  0  0  0  0  0  0  0  0  0
  140.1023   73.5516  218.3304 H   0  0  0  0  0  0  0  0  0  0  0  0
  140.6732   74.5540  216.9649 H   0  0  0  0  0  0  0  0  0  0  0  0
  141.2338   76.3813  218.4108 H   0  0  0  0  0  0  0  0  0  0  0  0
  143.0803   76.8461  219.6826 H   0  0  0  0  0  0  0  0  0  0  0  0
  145.2446   75.9120  220.4603 H   0  0  0  0  0  0  0  0  0  0  0  0
  143.7390   71.9477  219.9051 H   0  0  0  0  0  0  0  0  0  0  0  0
  141.5684   72.8634  219.1216 H   0  0  0  0  0  0  0  0  0  0  0  0
  140.9871   72.8769  224.8910 H   0  0  0  0  0  0  0  0  0  0  0  0
  141.1713   71.9349  227.1673 H   0  0  0  0  0  0  0  0  0  0  0  0
  140.8968   70.0793  228.6491 H   0  0  0  0  0  0  0  0  0  0  0  0
  140.2185   67.7115  228.9869 H   0  0  0  0  0  0  0  0  0  0  0  0
  139.3837   66.3431  227.1049 H   0  0  0  0  0  0  0  0  0  0  0  0
  139.2120   67.3087  224.8337 H   0  0  0  0  0  0  0  0  0  0  0  0
  1  2  2  0
  2  3  1  0
  3  4  1  0
  4  5  1  0
  5  6  2  0
  5  7  1  0
  7  8  1  0
  8  9  1  0
  9 10  1  0
 10 11  1  0
 11 12  1  0
 12 13  1  0
 13 14  2  0
 14 15  1  0
 15 16  2  0
 16 17  1  0
 17 18  1  0
 17 19  1  0
 17 20  1  0
 16 21  1  0
 21 22  2  0
  2 23  1  0
 23 24  2  0
 24 25  1  0
 25 26  2  0
 26 27  1  0
 27 28  2  0
 28 29  1  0
 29 30  2  0
 30 31  1  0
 31 32  2  0
 12  7  1  0
 22 13  1  0
 32 23  1  0
 31 26  1  0
  3 33  1  0
  4 34  1  0
  4 35  1  0
  8 36  1  0
  8 37  1  0
  9 38  1  0
  9 39  1  0
 10 40  1  0
 10 41  1  0
 11 42  1  0
 11 43  1  0
 12 44  1  6
 14 45  1  0
 15 46  1  0
 21 47  1  0
 22 48  1  0
 24 49  1  0
 25 50  1  0
 27 51  1  0
 28 52  1  0
 29 53  1  0
 30 54  1  0
M  END
>  <smiles>  (9) 
O=C(NCC(=O)N1CCCCC1c1ccc(C(F)(F)F)cc1)c1ccc2ccccc2n1

>  <score_type>  (9) 
oracle

>  <origin>  (9) 
autodockgpu

>  <m_score__min__energy>  (9) 
-8.3300000000000001

>  <m_primary>  (9) 
energy

>  <rmsd>  (9) 
2.8990600224123573

>  <m_score__min__rmsd>  (9) 
2.8990600224123573

>  <meeko>  (9) 
{"free_energy": -7.78, "intermolecular_energy": -9.57, "internal_energy": -2.09, "cluster_size": 11, "cluster_id": 4, "rank_in_cluster": 6}

>  <energy>  (9) 
-7.83

>  <cluster_rmsd>  (9) 
0.77

>  <cluster>  (9) 
1

$$$$

     RDKit          3D

 54 57  0  0  0  0  0  0  0  0999 V2000
  139.7960   71.0790  221.3220 O   0  0  0  0  0  0  0  0  0  0  0  0
  139.4020   71.6500  222.3650 C   0  0  0  0  0  0  0  0  0  0  0  0
  138.6400   72.8380  222.2030 N   0  0  0  0  0  0  0  0  0  0  0  0
  138.3970   73.2710  220.8300 C   0  0  0  0  0  0  0  0  0  0  0  0
  139.5110   74.1340  220.3860 C   0  0  0  0  0  0  0  0  0  0  0  0
  139.9190   73.9920  219.2080 O   0  0  0  0  0  0  0  0  0  0  0  0
  140.0430   75.0610  221.3150 N   0  0  0  0  0  0  0  0  0  0  0  0
  139.1920   75.7330  222.3190 C   0  0  0  0  0  0  0  0  0  0  0  0
  139.7140   77.1450  222.3840 C   0  0  0  0  0  0  0  0  0  0  0  0
  140.3550   77.5970  221.0960 C   0  0  0  0  0  0  0  0  0  0  0  0
  141.5130   76.7550  220.6460 C   0  0  0  0  0  0  0  0  0  0  0  0
  141.4470   75.4400  221.3680 C   0  0  2  0  0  0  0  0  0  0  0  0
  142.3650   74.4120  220.8640 C   0  0  0  0  0  0  0  0  0  0  0  0
  142.2100   73.0870  221.2280 C   0  0  0  0  0  0  0  0  0  0  0  0
  143.0850   72.1190  220.7350 C   0  0  0  0  0  0  0  0  0  0  0  0
  144.1200   72.4520  219.8790 C   0  0  0  0  0  0  0  0  0  0  0  0
  145.0680   71.4260  219.3420 C   0  0  0  0  0  0  0  0  0  0  0  0
  145.1160   71.4090  217.9730 F   0  0  0  0  0  0  0  0  0  0  0  0
  144.6970   70.1680  219.7650 F   0  0  0  0  0  0  0  0  0  0  0  0
  146.3510   71.6480  219.8040 F   0  0  0  0  0  0  0  0  0  0  0  0
  144.2550   73.7820  219.5300 C   0  0  0  0  0  0  0  0  0  0  0  0
  143.3900   74.7650  220.0120 C   0  0  0  0  0  0  0  0  0  0  0  0
  139.7060   71.1260  223.6920 C   0  0  0  0  0  0  0  0  0  0  0  0
  139.4070   69.8010  223.9570 C   0  0  0  0  0  0  0  0  0  0  0  0
  139.6630   69.2400  225.1780 C   0  0  0  0  0  0  0  0  0  0  0  0
  140.2370   70.0410  226.1560 C   0  0  0  0  0  0  0  0  0  0  0  0
  140.4990   69.4790  227.3910 C   0  0  0  0  0  0  0  0  0  0  0  0
  141.0680   70.2920  228.3470 C   0  0  0  0  0  0  0  0  0  0  0  0
  141.3720   71.6230  228.0870 C   0  0  0  0  0  0  0  0  0  0  0  0
  141.1070   72.1680  226.8580 C   0  0  0  0  0  0  0  0  0  0  0  0
  140.5360   71.3760  225.8810 C   0  0  0  0  0  0  0  0  0  0  0  0
  140.2680   71.8970  224.6590 N   0  0  0  0  0  0  0  0  0  0  0  0
  138.2820   73.3630  223.0220 H   0  0  0  0  0  0  0  0  0  0  0  0
  138.3298   72.3909  220.1736 H   0  0  0  0  0  0  0  0  0  0  0  0
  137.4532   73.8340  220.7826 H   0  0  0  0  0  0  0  0  0  0  0  0
  138.1386   75.7236  222.0025 H   0  0  0  0  0  0  0  0  0  0  0  0
  139.2295   75.2313  223.2972 H   0  0  0  0  0  0  0  0  0  0  0  0
  138.8750   77.8185  222.6130 H   0  0  0  0  0  0  0  0  0  0  0  0
  140.4888   77.1734  223.1643 H   0  0  0  0  0  0  0  0  0  0  0  0
  139.5894   77.5778  220.3064 H   0  0  0  0  0  0  0  0  0  0  0  0
  140.7558   78.6041  221.2835 H   0  0  0  0  0  0  0  0  0  0  0  0
  141.4515   76.5871  219.5606 H   0  0  0  0  0  0  0  0  0  0  0  0
  142.4620   77.2639  220.8704 H   0  0  0  0  0  0  0  0  0  0  0  0
  141.8024   75.5426  222.4039 H   0  0  0  0  0  0  0  0  0  0  0  0
  141.3954   72.7959  221.9074 H   0  0  0  0  0  0  0  0  0  0  0  0
  142.9494   71.0688  221.0330 H   0  0  0  0  0  0  0  0  0  0  0  0
  145.0695   74.0749  218.8512 H   0  0  0  0  0  0  0  0  0  0  0  0
  143.5250   75.8152  219.7141 H   0  0  0  0  0  0  0  0  0  0  0  0
  138.9528   69.1845  223.1672 H   0  0  0  0  0  0  0  0  0  0  0  0
  139.4213   68.1859  225.3790 H   0  0  0  0  0  0  0  0  0  0  0  0
  140.2629   68.4256  227.6023 H   0  0  0  0  0  0  0  0  0  0  0  0
  141.2873   69.8768  229.3417 H   0  0  0  0  0  0  0  0  0  0  0  0
  141.8282   72.2429  228.8728 H   0  0  0  0  0  0  0  0  0  0  0  0
  141.3458   73.2219  226.6523 H   0  0  0  0  0  0  0  0  0  0  0  0
  1  2  2  0
  2  3  1  0
  3  4  1  0
  4  5  1  0
  5  6  2  0
  5  7  1  0
  7  8  1  0
  8  9  1  0
  9 10  1  0
 10 11  1  0
 11 12  1  0
 12 13  1  0
 13 14  2  0
 14 15  1  0
 15 16  2  0
 16 17  1  0
 17 18  1  0
 17 19  1  0
 17 20  1  0
 16 21  1  0
 21 22  2  0
  2 23  1  0
 23 24  2  0
 24 25  1  0
 25 26  2  0
 26 27  1  0
 27 28  2  0
 28 29  1  0
 29 30  2  0
 30 31  1  0
 31 32  2  0
 12  7  1  0
 22 13  1  0
 32 23  1  0
 31 26  1  0
  3 33  1  0
  4 34  1  0
  4 35  1  0
  8 36  1  0
  8 37  1  0
  9 38  1  0
  9 39  1  0
 10 40  1  0
 10 41  1  0
 11 42  1  0
 11 43  1  0
 12 44  1  1
 14 45  1  0
 15 46  1  0
 21 47  1  0
 22 48  1  0
 24 49  1  0
 25 50  1  0
 27 51  1  0
 28 52  1  0
 29 53  1  0
 30 54  1  0
M  END
>  <smiles>  (10) 
O=C(NCC(=O)N1CCCCC1c1ccc(C(F)(F)F)cc1)c1ccc2ccccc2n1

>  <score_type>  (10) 
oracle

>  <origin>  (10) 
autodockgpu

>  <m_score__min__energy>  (10) 
-8.3300000000000001

>  <m_primary>  (10) 
energy

>  <rmsd>  (10) 
2.4512429893816923

>  <m_score__min__rmsd>  (10) 
2.4512429893816923

>  <meeko>  (10) 
{"free_energy": -7.89, "intermolecular_energy": -9.68, "internal_energy": -1.99, "cluster_size": 11, "cluster_id": 4, "rank_in_cluster": 3}

>  <energy>  (10) 
-7.78

>  <cluster_rmsd>  (10) 
1.89

>  <cluster>  (10) 
1

$$$$

     RDKit          3D

 54 57  0  0  0  0  0  0  0  0999 V2000
  139.2460   74.7510  221.4370 O   0  0  0  0  0  0  0  0  0  0  0  0
  140.3080   75.3750  221.6710 C   0  0  0  0  0  0  0  0  0  0  0  0
  141.5280   74.6920  221.4210 N   0  0  0  0  0  0  0  0  0  0  0  0
  141.4150   73.3270  220.9170 C   0  0  0  0  0  0  0  0  0  0  0  0
  141.8320   73.2940  219.5000 C   0  0  0  0  0  0  0  0  0  0  0  0
  140.9270   73.2990  218.6300 O   0  0  0  0  0  0  0  0  0  0  0  0
  143.2190   73.2590  219.2160 N   0  0  0  0  0  0  0  0  0  0  0  0
  143.9310   71.9880  218.9690 C   0  0  0  0  0  0  0  0  0  0  0  0
  145.2630   72.1520  219.6530 C   0  0  0  0  0  0  0  0  0  0  0  0
  145.2120   73.1050  220.8220 C   0  0  0  0  0  0  0  0  0  0  0  0
  144.7570   74.4930  220.4770 C   0  0  0  0  0  0  0  0  0  0  0  0
  144.0630   74.4430  219.1460 C   0  0  2  0  0  0  0  0  0  0  0  0
  143.3460   75.6690  218.7780 C   0  0  0  0  0  0  0  0  0  0  0  0
  143.0390   76.6230  219.7310 C   0  0  0  0  0  0  0  0  0  0  0  0
  142.3630   77.7870  219.3650 C   0  0  0  0  0  0  0  0  0  0  0  0
  141.9850   78.0180  218.0540 C   0  0  0  0  0  0  0  0  0  0  0  0
  141.2590   79.2610  217.6450 C   0  0  0  0  0  0  0  0  0  0  0  0
  141.0310   79.3250  216.2950 F   0  0  0  0  0  0  0  0  0  0  0  0
  141.9870   80.3760  218.0010 F   0  0  0  0  0  0  0  0  0  0  0  0
  140.0370   79.3530  218.2820 F   0  0  0  0  0  0  0  0  0  0  0  0
  142.3020   77.0520  217.1200 C   0  0  0  0  0  0  0  0  0  0  0  0
  142.9770   75.8800  217.4660 C   0  0  0  0  0  0  0  0  0  0  0  0
  140.3010   76.7430  222.1770 C   0  0  0  0  0  0  0  0  0  0  0  0
  139.0780   77.3460  222.4170 C   0  0  0  0  0  0  0  0  0  0  0  0
  138.9930   78.6270  222.8910 C   0  0  0  0  0  0  0  0  0  0  0  0
  140.1760   79.3150  223.1280 C   0  0  0  0  0  0  0  0  0  0  0  0
  140.0960   80.6080  223.6070 C   0  0  0  0  0  0  0  0  0  0  0  0
  141.2820   81.2720  223.8350 C   0  0  0  0  0  0  0  0  0  0  0  0
  142.5120   80.6720  223.5970 C   0  0  0  0  0  0  0  0  0  0  0  0
  142.5770   79.3880  223.1210 C   0  0  0  0  0  0  0  0  0  0  0  0
  141.4040   78.6990  222.8830 C   0  0  0  0  0  0  0  0  0  0  0  0
  141.4490   77.4290  222.4140 N   0  0  0  0  0  0  0  0  0  0  0  0
  142.4430   75.1470  221.5920 H   0  0  0  0  0  0  0  0  0  0  0  0
  142.0638   72.6626  221.5066 H   0  0  0  0  0  0  0  0  0  0  0  0
  140.3721   72.9877  221.0024 H   0  0  0  0  0  0  0  0  0  0  0  0
  143.3754   71.1426  219.4010 H   0  0  0  0  0  0  0  0  0  0  0  0
  144.0398   71.7757  217.8952 H   0  0  0  0  0  0  0  0  0  0  0  0
  145.5937   71.1680  220.0170 H   0  0  0  0  0  0  0  0  0  0  0  0
  145.9621   72.5730  218.9154 H   0  0  0  0  0  0  0  0  0  0  0  0
  144.5193   72.6930  221.5706 H   0  0  0  0  0  0  0  0  0  0  0  0
  146.2432   73.1982  221.1935 H   0  0  0  0  0  0  0  0  0  0  0  0
  144.0608   74.8585  221.2463 H   0  0  0  0  0  0  0  0  0  0  0  0
  145.6192   75.1745  220.4302 H   0  0  0  0  0  0  0  0  0  0  0  0
  144.7917   74.3762  218.3247 H   0  0  0  0  0  0  0  0  0  0  0  0
  143.3286   76.4635  220.7801 H   0  0  0  0  0  0  0  0  0  0  0  0
  142.1256   78.5366  220.1342 H   0  0  0  0  0  0  0  0  0  0  0  0
  142.0137   77.2108  216.0704 H   0  0  0  0  0  0  0  0  0  0  0  0
  143.2131   75.1296  216.6971 H   0  0  0  0  0  0  0  0  0  0  0  0
  138.1536   76.7826  222.2222 H   0  0  0  0  0  0  0  0  0  0  0  0
  138.0167   79.0978  223.0787 H   0  0  0  0  0  0  0  0  0  0  0  0
  139.1251   81.0883  223.7987 H   0  0  0  0  0  0  0  0  0  0  0  0
  141.2538   82.3038  224.2153 H   0  0  0  0  0  0  0  0  0  0  0  0
  143.4395   81.2305  223.7916 H   0  0  0  0  0  0  0  0  0  0  0  0
  143.5507   78.9128  222.9311 H   0  0  0  0  0  0  0  0  0  0  0  0
  1  2  2  0
  2  3  1  0
  3  4  1  0
  4  5  1  0
  5  6  2  0
  5  7  1  0
  7  8  1  0
  8  9  1  0
  9 10  1  0
 10 11  1  0
 11 12  1  0
 12 13  1  0
 13 14  2  0
 14 15  1  0
 15 16  2  0
 16 17  1  0
 17 18  1  0
 17 19  1  0
 17 20  1  0
 16 21  1  0
 21 22  2  0
  2 23  1  0
 23 24  2  0
 24 25  1  0
 25 26  2  0
 26 27  1  0
 27 28  2  0
 28 29  1  0
 29 30  2  0
 30 31  1  0
 31 32  2  0
 12  7  1  0
 22 13  1  0
 32 23  1  0
 31 26  1  0
  3 33  1  0
  4 34  1  0
  4 35  1  0
  8 36  1  0
  8 37  1  0
  9 38  1  0
  9 39  1  0
 10 40  1  0
 10 41  1  0
 11 42  1  0
 11 43  1  0
 12 44  1  6
 14 45  1  0
 15 46  1  0
 21 47  1  0
 22 48  1  0
 24 49  1  0
 25 50  1  0
 27 51  1  0
 28 52  1  0
 29 53  1  0
 30 54  1  0
M  END
>  <smiles>  (11) 
O=C(NCC(=O)N1CCCCC1c1ccc(C(F)(F)F)cc1)c1ccc2ccccc2n1

>  <score_type>  (11) 
oracle

>  <origin>  (11) 
autodockgpu

>  <m_score__min__energy>  (11) 
-8.3300000000000001

>  <m_primary>  (11) 
energy

>  <rmsd>  (11) 
7.487894778182917

>  <m_score__min__rmsd>  (11) 
7.487894778182917

>  <meeko>  (11) 
{"free_energy": -7.09, "intermolecular_energy": -8.88, "internal_energy": -2.68, "cluster_size": 6, "cluster_id": 6, "rank_in_cluster": 5}

>  <energy>  (11) 
-7.76

>  <cluster_rmsd>  (11) 
1.02

>  <cluster>  (11) 
1

$$$$

     RDKit          3D

 54 57  0  0  0  0  0  0  0  0999 V2000
  139.6400   70.9560  221.4090 O   0  0  0  0  0  0  0  0  0  0  0  0
  139.7170   71.5510  222.5090 C   0  0  0  0  0  0  0  0  0  0  0  0
  139.7260   72.9720  222.4760 N   0  0  0  0  0  0  0  0  0  0  0  0
  139.6450   73.5900  221.1570 C   0  0  0  0  0  0  0  0  0  0  0  0
  140.4160   74.8510  221.1620 C   0  0  0  0  0  0  0  0  0  0  0  0
  140.6330   75.3920  222.2730 O   0  0  0  0  0  0  0  0  0  0  0  0
  140.8570   75.3650  219.9180 N   0  0  0  0  0  0  0  0  0  0  0  0
  140.7940   74.5620  218.6780 C   0  0  0  0  0  0  0  0  0  0  0  0
  142.0660   74.8920  217.9410 C   0  0  0  0  0  0  0  0  0  0  0  0
  143.1910   75.3000  218.8580 C   0  0  0  0  0  0  0  0  0  0  0  0
  142.8960   76.4960  219.7160 C   0  0  0  0  0  0  0  0  0  0  0  0
  141.4080   76.7000  219.7410 C   0  0  2  0  0  0  0  0  0  0  0  0
  140.9360   77.6780  220.7280 C   0  0  0  0  0  0  0  0  0  0  0  0
  141.8260   78.3140  221.5750 C   0  0  0  0  0  0  0  0  0  0  0  0
  141.3640   79.2470  222.5030 C   0  0  0  0  0  0  0  0  0  0  0  0
  140.0190   79.5600  222.6020 C   0  0  0  0  0  0  0  0  0  0  0  0
  139.5070   80.5580  223.5920 C   0  0  0  0  0  0  0  0  0  0  0  0
  138.7570   79.9870  224.5870 F   0  0  0  0  0  0  0  0  0  0  0  0
  138.7190   81.4960  222.9580 F   0  0  0  0  0  0  0  0  0  0  0  0
  140.5480   81.2410  224.1910 F   0  0  0  0  0  0  0  0  0  0  0  0
  139.1500   78.9130  221.7460 C   0  0  0  0  0  0  0  0  0  0  0  0
  139.5920   77.9760  220.8110 C   0  0  0  0  0  0  0  0  0  0  0  0
  139.7930   70.8270  223.7730 C   0  0  0  0  0  0  0  0  0  0  0  0
  139.3000   69.5340  223.8180 C   0  0  0  0  0  0  0  0  0  0  0  0
  139.3370   68.7940  224.9670 C   0  0  0  0  0  0  0  0  0  0  0  0
  139.8880   69.3760  226.1010 C   0  0  0  0  0  0  0  0  0  0  0  0
  139.9280   68.6330  227.2640 C   0  0  0  0  0  0  0  0  0  0  0  0
  140.4790   69.2310  228.3770 C   0  0  0  0  0  0  0  0  0  0  0  0
  140.9770   70.5270  228.3380 C   0  0  0  0  0  0  0  0  0  0  0  0
  140.9310   71.2540  227.1780 C   0  0  0  0  0  0  0  0  0  0  0  0
  140.3840   70.6800  226.0470 C   0  0  0  0  0  0  0  0  0  0  0  0
  140.3290   71.3830  224.8900 N   0  0  0  0  0  0  0  0  0  0  0  0
  139.7870   73.5290  223.3480 H   0  0  0  0  0  0  0  0  0  0  0  0
  140.0636   72.9060  220.4041 H   0  0  0  0  0  0  0  0  0  0  0  0
  138.5936   73.8011  220.9121 H   0  0  0  0  0  0  0  0  0  0  0  0
  140.7499   73.4884  218.9134 H   0  0  0  0  0  0  0  0  0  0  0  0
  139.8978   74.7884  218.0817 H   0  0  0  0  0  0  0  0  0  0  0  0
  142.3817   74.0047  217.3726 H   0  0  0  0  0  0  0  0  0  0  0  0
  141.8519   75.7473  217.2832 H   0  0  0  0  0  0  0  0  0  0  0  0
  143.4193   74.4513  219.5195 H   0  0  0  0  0  0  0  0  0  0  0  0
  144.0343   75.5816  218.2103 H   0  0  0  0  0  0  0  0  0  0  0  0
  143.2652   76.3217  220.7374 H   0  0  0  0  0  0  0  0  0  0  0  0
  143.3951   77.3879  219.3092 H   0  0  0  0  0  0  0  0  0  0  0  0
  141.0593   77.1647  218.8069 H   0  0  0  0  0  0  0  0  0  0  0  0
  142.9000   78.0834  221.5164 H   0  0  0  0  0  0  0  0  0  0  0  0
  142.0832   79.7446  223.1702 H   0  0  0  0  0  0  0  0  0  0  0  0
  138.0759   79.1433  221.8028 H   0  0  0  0  0  0  0  0  0  0  0  0
  138.8727   77.4781  220.1442 H   0  0  0  0  0  0  0  0  0  0  0  0
  138.8684   69.0917  222.9080 H   0  0  0  0  0  0  0  0  0  0  0  0
  138.9419   67.7677  224.9924 H   0  0  0  0  0  0  0  0  0  0  0  0
  139.5362   67.6058  227.3009 H   0  0  0  0  0  0  0  0  0  0  0  0
  140.5255   68.6673  229.3204 H   0  0  0  0  0  0  0  0  0  0  0  0
  141.4114   70.9727  229.2450 H   0  0  0  0  0  0  0  0  0  0  0  0
  141.3243   72.2808  227.1476 H   0  0  0  0  0  0  0  0  0  0  0  0
  1  2  2  0
  2  3  1  0
  3  4  1  0
  4  5  1  0
  5  6  2  0
  5  7  1  0
  7  8  1  0
  8  9  1  0
  9 10  1  0
 10 11  1  0
 11 12  1  0
 12 13  1  0
 13 14  2  0
 14 15  1  0
 15 16  2  0
 16 17  1  0
 17 18  1  0
 17 19  1  0
 17 20  1  0
 16 21  1  0
 21 22  2  0
  2 23  1  0
 23 24  2  0
 24 25  1  0
 25 26  2  0
 26 27  1  0
 27 28  2  0
 28 29  1  0
 29 30  2  0
 30 31  1  0
 31 32  2  0
 12  7  1  0
 22 13  1  0
 32 23  1  0
 31 26  1  0
  3 33  1  0
  4 34  1  0
  4 35  1  0
  8 36  1  0
  8 37  1  0
  9 38  1  0
  9 39  1  0
 10 40  1  0
 10 41  1  0
 11 42  1  0
 11 43  1  0
 12 44  1  6
 14 45  1  0
 15 46  1  0
 21 47  1  0
 22 48  1  0
 24 49  1  0
 25 50  1  0
 27 51  1  0
 28 52  1  0
 29 53  1  0
 30 54  1  0
M  END
>  <smiles>  (12) 
O=C(NCC(=O)N1CCCCC1c1ccc(C(F)(F)F)cc1)c1ccc2ccccc2n1

>  <score_type>  (12) 
oracle

>  <origin>  (12) 
autodockgpu

>  <m_score__min__energy>  (12) 
-8.3300000000000001

>  <m_primary>  (12) 
energy

>  <rmsd>  (12) 
1.4987474404583676

>  <m_score__min__rmsd>  (12) 
1.4987474404583676

>  <meeko>  (12) 
{"free_energy": -8.0, "intermolecular_energy": -9.79, "internal_energy": -1.97, "cluster_size": 12, "cluster_id": 1, "rank_in_cluster": 6}

>  <energy>  (12) 
-7.64

>  <cluster_rmsd>  (12) 
0.77

>  <cluster>  (12) 
1

$$$$

     RDKit          3D

 54 57  0  0  0  0  0  0  0  0999 V2000
  139.1250   75.0190  221.4680 O   0  0  0  0  0  0  0  0  0  0  0  0
  140.2120   75.5960  221.7110 C   0  0  0  0  0  0  0  0  0  0  0  0
  141.4020   74.8660  221.4490 N   0  0  0  0  0  0  0  0  0  0  0  0
  141.2330   73.5140  220.9250 C   0  0  0  0  0  0  0  0  0  0  0  0
  141.6620   73.4820  219.5110 C   0  0  0  0  0  0  0  0  0  0  0  0
  140.7710   73.5990  218.6340 O   0  0  0  0  0  0  0  0  0  0  0  0
  143.0420   73.3230  219.2390 N   0  0  0  0  0  0  0  0  0  0  0  0
  143.6430   71.9900  219.0200 C   0  0  0  0  0  0  0  0  0  0  0  0
  144.9800   72.0510  219.7110 C   0  0  0  0  0  0  0  0  0  0  0  0
  145.0040   73.0250  220.8630 C   0  0  0  0  0  0  0  0  0  0  0  0
  144.6720   74.4410  220.4920 C   0  0  0  0  0  0  0  0  0  0  0  0
  143.9860   74.4280  219.1570 C   0  0  2  0  0  0  0  0  0  0  0  0
  143.3800   75.7040  218.7620 C   0  0  0  0  0  0  0  0  0  0  0  0
  143.1710   76.0060  217.4280 C   0  0  0  0  0  0  0  0  0  0  0  0
  142.5880   77.2200  217.0670 C   0  0  0  0  0  0  0  0  0  0  0  0
  142.2040   78.1460  218.0210 C   0  0  0  0  0  0  0  0  0  0  0  0
  141.5770   79.4540  217.6520 C   0  0  0  0  0  0  0  0  0  0  0  0
  142.2840   80.5340  218.1130 F   0  0  0  0  0  0  0  0  0  0  0  0
  140.3020   79.5340  218.1700 F   0  0  0  0  0  0  0  0  0  0  0  0
  141.4660   79.5800  216.2810 F   0  0  0  0  0  0  0  0  0  0  0  0
  142.4220   77.8240  219.3460 C   0  0  0  0  0  0  0  0  0  0  0  0
  143.0050   76.6140  219.7280 C   0  0  0  0  0  0  0  0  0  0  0  0
  140.2620   76.9550  222.2370 C   0  0  0  0  0  0  0  0  0  0  0  0
  139.0680   77.5710  222.5730 C   0  0  0  0  0  0  0  0  0  0  0  0
  139.0370   78.8450  223.0710 C   0  0  0  0  0  0  0  0  0  0  0  0
  140.2440   79.5120  223.2350 C   0  0  0  0  0  0  0  0  0  0  0  0
  140.2180   80.7980  223.7380 C   0  0  0  0  0  0  0  0  0  0  0  0
  141.4270   81.4410  223.8910 C   0  0  0  0  0  0  0  0  0  0  0  0
  142.6270   80.8270  223.5570 C   0  0  0  0  0  0  0  0  0  0  0  0
  142.6400   79.5510  223.0580 C   0  0  0  0  0  0  0  0  0  0  0  0
  141.4420   78.8830  222.8940 C   0  0  0  0  0  0  0  0  0  0  0  0
  141.4340   77.6200  222.4020 N   0  0  0  0  0  0  0  0  0  0  0  0
  142.3360   75.2800  221.6260 H   0  0  0  0  0  0  0  0  0  0  0  0
  141.8459   72.8133  221.5111 H   0  0  0  0  0  0  0  0  0  0  0  0
  140.1754   73.2202  220.9964 H   0  0  0  0  0  0  0  0  0  0  0  0
  143.0137   71.2040  219.4629 H   0  0  0  0  0  0  0  0  0  0  0  0
  143.7393   71.7491  217.9510 H   0  0  0  0  0  0  0  0  0  0  0  0
  145.2227   71.0488  220.0941 H   0  0  0  0  0  0  0  0  0  0  0  0
  145.7171   72.3974  218.9717 H   0  0  0  0  0  0  0  0  0  0  0  0
  144.2741   72.6869  221.6132 H   0  0  0  0  0  0  0  0  0  0  0  0
  146.0373   73.0360  221.2401 H   0  0  0  0  0  0  0  0  0  0  0  0
  144.0043   74.8775  221.2494 H   0  0  0  0  0  0  0  0  0  0  0  0
  145.5896   75.0455  220.4416 H   0  0  0  0  0  0  0  0  0  0  0  0
  144.7128   74.2844  218.3439 H   0  0  0  0  0  0  0  0  0  0  0  0
  143.4656   75.2863  216.6501 H   0  0  0  0  0  0  0  0  0  0  0  0
  142.4301   77.4463  216.0022 H   0  0  0  0  0  0  0  0  0  0  0  0
  142.1273   78.5429  220.1247 H   0  0  0  0  0  0  0  0  0  0  0  0
  143.1642   76.3881  220.7927 H   0  0  0  0  0  0  0  0  0  0  0  0
  138.1235   77.0239  222.4365 H   0  0  0  0  0  0  0  0  0  0  0  0
  138.0838   79.3269  223.3338 H   0  0  0  0  0  0  0  0  0  0  0  0
  139.2707   81.2889  224.0056 H   0  0  0  0  0  0  0  0  0  0  0  0
  141.4421   82.4668  224.2878 H   0  0  0  0  0  0  0  0  0  0  0  0
  143.5742   81.3692  223.6941 H   0  0  0  0  0  0  0  0  0  0  0  0
  143.5905   79.0656  222.7919 H   0  0  0  0  0  0  0  0  0  0  0  0
  1  2  2  0
  2  3  1  0
  3  4  1  0
  4  5  1  0
  5  6  2  0
  5  7  1  0
  7  8  1  0
  8  9  1  0
  9 10  1  0
 10 11  1  0
 11 12  1  0
 12 13  1  0
 13 14  2  0
 14 15  1  0
 15 16  2  0
 16 17  1  0
 17 18  1  0
 17 19  1  0
 17 20  1  0
 16 21  1  0
 21 22  2  0
  2 23  1  0
 23 24  2  0
 24 25  1  0
 25 26  2  0
 26 27  1  0
 27 28  2  0
 28 29  1  0
 29 30  2  0
 30 31  1  0
 31 32  2  0
 12  7  1  0
 22 13  1  0
 32 23  1  0
 31 26  1  0
  3 33  1  0
  4 34  1  0
  4 35  1  0
  8 36  1  0
  8 37  1  0
  9 38  1  0
  9 39  1  0
 10 40  1  0
 10 41  1  0
 11 42  1  0
 11 43  1  0
 12 44  1  6
 14 45  1  0
 15 46  1  0
 21 47  1  0
 22 48  1  0
 24 49  1  0
 25 50  1  0
 27 51  1  0
 28 52  1  0
 29 53  1  0
 30 54  1  0
M  END
>  <smiles>  (13) 
O=C(NCC(=O)N1CCCCC1c1ccc(C(F)(F)F)cc1)c1ccc2ccccc2n1

>  <score_type>  (13) 
oracle

>  <origin>  (13) 
autodockgpu

>  <m_score__min__energy>  (13) 
-8.3300000000000001

>  <m_primary>  (13) 
energy

>  <rmsd>  (13) 
7.550671681894755

>  <m_score__min__rmsd>  (13) 
7.550671681894755

>  <meeko>  (13) 
{"free_energy": -7.21, "intermolecular_energy": -9.0, "internal_energy": -2.57, "cluster_size": 6, "cluster_id": 6, "rank_in_cluster": 3}

>  <energy>  (13) 
-8.28

>  <cluster_rmsd>  (13) 
0.0

>  <cluster>  (13) 
2

$$$$

     RDKit          3D

 54 57  0  0  0  0  0  0  0  0999 V2000
  141.2390   74.7570  221.2310 O   0  0  0  0  0  0  0  0  0  0  0  0
  140.2220   75.0600  221.8980 C   0  0  0  0  0  0  0  0  0  0  0  0
  139.3050   74.0140  222.1890 N   0  0  0  0  0  0  0  0  0  0  0  0
  139.6460   72.6910  221.6770 C   0  0  0  0  0  0  0  0  0  0  0  0
  138.7310   71.6900  222.2620 C   0  0  0  0  0  0  0  0  0  0  0  0
  137.7590   72.1170  222.9330 O   0  0  0  0  0  0  0  0  0  0  0  0
  139.0070   70.3210  222.0300 N   0  0  0  0  0  0  0  0  0  0  0  0
  139.1510   69.7770  220.6630 C   0  0  0  0  0  0  0  0  0  0  0  0
  138.4780   68.4290  220.7120 C   0  0  0  0  0  0  0  0  0  0  0  0
  137.3890   68.3510  221.7530 C   0  0  0  0  0  0  0  0  0  0  0  0
  137.8440   68.6310  223.1560 C   0  0  0  0  0  0  0  0  0  0  0  0
  139.1680   69.3350  223.0890 C   0  0  2  0  0  0  0  0  0  0  0  0
  139.6350   69.8950  224.3620 C   0  0  0  0  0  0  0  0  0  0  0  0
  139.0940   69.4690  225.5620 C   0  0  0  0  0  0  0  0  0  0  0  0
  139.5520   70.0050  226.7660 C   0  0  0  0  0  0  0  0  0  0  0  0
  140.5490   70.9650  226.7940 C   0  0  0  0  0  0  0  0  0  0  0  0
  141.0510   71.5500  228.0760 C   0  0  0  0  0  0  0  0  0  0  0  0
  140.0430   71.9900  228.8940 F   0  0  0  0  0  0  0  0  0  0  0  0
  141.8800   72.6220  227.8180 F   0  0  0  0  0  0  0  0  0  0  0  0
  141.7930   70.6250  228.7850 F   0  0  0  0  0  0  0  0  0  0  0  0
  141.0740   71.3740  225.5840 C   0  0  0  0  0  0  0  0  0  0  0  0
  140.6290   70.8510  224.3690 C   0  0  0  0  0  0  0  0  0  0  0  0
  139.9820   76.4230  222.3610 C   0  0  0  0  0  0  0  0  0  0  0  0
  141.0770   77.2180  222.6520 C   0  0  0  0  0  0  0  0  0  0  0  0
  140.9300   78.5050  223.0910 C   0  0  0  0  0  0  0  0  0  0  0  0
  139.6410   79.0010  223.2380 C   0  0  0  0  0  0  0  0  0  0  0  0
  139.4860   80.3000  223.6800 C   0  0  0  0  0  0  0  0  0  0  0  0
  138.1990   80.7710  223.8190 C   0  0  0  0  0  0  0  0  0  0  0  0
  137.0960   79.9790  223.5270 C   0  0  0  0  0  0  0  0  0  0  0  0
  137.2630   78.6910  223.0890 C   0  0  0  0  0  0  0  0  0  0  0  0
  138.5420   78.1930  222.9410 C   0  0  0  0  0  0  0  0  0  0  0  0
  138.7280   76.9220  222.5090 N   0  0  0  0  0  0  0  0  0  0  0  0
  138.4430   74.1930  222.7360 H   0  0  0  0  0  0  0  0  0  0  0  0
  139.5462   72.6841  220.5816 H   0  0  0  0  0  0  0  0  0  0  0  0
  140.6830   72.4463  221.9504 H   0  0  0  0  0  0  0  0  0  0  0  0
  138.6548   70.4315  219.9313 H   0  0  0  0  0  0  0  0  0  0  0  0
  140.2042   69.7042  220.3539 H   0  0  0  0  0  0  0  0  0  0  0  0
  138.0360   68.2219  219.7262 H   0  0  0  0  0  0  0  0  0  0  0  0
  139.2449   67.6882  220.9822 H   0  0  0  0  0  0  0  0  0  0  0  0
  136.6116   69.0840  221.4918 H   0  0  0  0  0  0  0  0  0  0  0  0
  137.0240   67.3133  221.7450 H   0  0  0  0  0  0  0  0  0  0  0  0
  137.1079   69.2703  223.6654 H   0  0  0  0  0  0  0  0  0  0  0  0
  137.9422   67.6905  223.7180 H   0  0  0  0  0  0  0  0  0  0  0  0
  139.9788   68.6257  222.8666 H   0  0  0  0  0  0  0  0  0  0  0  0
  138.3013   68.7063  225.5669 H   0  0  0  0  0  0  0  0  0  0  0  0
  139.1119   69.6576  227.7124 H   0  0  0  0  0  0  0  0  0  0  0  0
  141.8676   72.1357  225.5776 H   0  0  0  0  0  0  0  0  0  0  0  0
  141.0684   71.1992  223.4226 H   0  0  0  0  0  0  0  0  0  0  0  0
  142.0889   76.8052  222.5273 H   0  0  0  0  0  0  0  0  0  0  0  0
  141.8065   79.1287  223.3208 H   0  0  0  0  0  0  0  0  0  0  0  0
  140.3552   80.9331  223.9117 H   0  0  0  0  0  0  0  0  0  0  0  0
  138.0407   81.8013  224.1704 H   0  0  0  0  0  0  0  0  0  0  0  0
  136.0821   80.3880  223.6480 H   0  0  0  0  0  0  0  0  0  0  0  0
  136.3899   78.0628  222.8586 H   0  0  0  0  0  0  0  0  0  0  0  0
  1  2  2  0
  2  3  1  0
  3  4  1  0
  4  5  1  0
  5  6  2  0
  5  7  1  0
  7  8  1  0
  8  9  1  0
  9 10  1  0
 10 11  1  0
 11 12  1  0
 12 13  1  0
 13 14  2  0
 14 15  1  0
 15 16  2  0
 16 17  1  0
 17 18  1  0
 17 19  1  0
 17 20  1  0
 16 21  1  0
 21 22  2  0
  2 23  1  0
 23 24  2  0
 24 25  1  0
 25 26  2  0
 26 27  1  0
 27 28  2  0
 28 29  1  0
 29 30  2  0
 30 31  1  0
 31 32  2  0
 12  7  1  0
 22 13  1  0
 32 23  1  0
 31 26  1  0
  3 33  1  0
  4 34  1  0
  4 35  1  0
  8 36  1  0
  8 37  1  0
  9 38  1  0
  9 39  1  0
 10 40  1  0
 10 41  1  0
 11 42  1  0
 11 43  1  0
 12 44  1  6
 14 45  1  0
 15 46  1  0
 21 47  1  0
 22 48  1  0
 24 49  1  0
 25 50  1  0
 27 51  1  0
 28 52  1  0
 29 53  1  0
 30 54  1  0
M  END
>  <smiles>  (14) 
O=C(NCC(=O)N1CCCCC1c1ccc(C(F)(F)F)cc1)c1ccc2ccccc2n1

>  <score_type>  (14) 
oracle

>  <origin>  (14) 
autodockgpu

>  <m_score__min__energy>  (14) 
-8.3300000000000001

>  <m_primary>  (14) 
energy

>  <rmsd>  (14) 
8.252125331148791

>  <m_score__min__rmsd>  (14) 
8.252125331148791

>  <meeko>  (14) 
{"free_energy": -7.51, "intermolecular_energy": -9.3, "internal_energy": -2.05, "cluster_size": 8, "cluster_id": 2, "rank_in_cluster": 8}

>  <energy>  (14) 
-8.28

>  <cluster_rmsd>  (14) 
0.04

>  <cluster>  (14) 
2

$$$$

     RDKit          3D

 54 57  0  0  0  0  0  0  0  0999 V2000
  140.9020   77.7270  218.3130 O   0  0  0  0  0  0  0  0  0  0  0  0
  141.7880   77.4920  219.1690 C   0  0  0  0  0  0  0  0  0  0  0  0
  142.1890   78.5750  219.9970 N   0  0  0  0  0  0  0  0  0  0  0  0
  141.5230   79.8520  219.7620 C   0  0  0  0  0  0  0  0  0  0  0  0
  140.3890   79.9910  220.7000 C   0  0  0  0  0  0  0  0  0  0  0  0
  139.2310   79.9280  220.2200 O   0  0  0  0  0  0  0  0  0  0  0  0
  140.6820   80.1860  222.0720 N   0  0  0  0  0  0  0  0  0  0  0  0
  140.7550   81.5370  222.6680 C   0  0  0  0  0  0  0  0  0  0  0  0
  141.9110   81.4710  223.6320 C   0  0  0  0  0  0  0  0  0  0  0  0
  142.9510   80.4520  223.2370 C   0  0  0  0  0  0  0  0  0  0  0  0
  142.4360   79.0460  223.1220 C   0  0  0  0  0  0  0  0  0  0  0  0
  140.9400   79.1020  223.0080 C   0  0  2  0  0  0  0  0  0  0  0  0
  140.3010   77.8320  222.6440 C   0  0  0  0  0  0  0  0  0  0  0  0
  141.0620   76.7330  222.2910 C   0  0  0  0  0  0  0  0  0  0  0  0
  140.4410   75.5300  221.9540 C   0  0  0  0  0  0  0  0  0  0  0  0
  139.0640   75.4030  221.9650 C   0  0  0  0  0  0  0  0  0  0  0  0
  138.3820   74.1200  221.6070 C   0  0  0  0  0  0  0  0  0  0  0  0
  137.1430   73.9960  222.1790 F   0  0  0  0  0  0  0  0  0  0  0  0
  139.1430   73.0460  222.0160 F   0  0  0  0  0  0  0  0  0  0  0  0
  138.2250   74.0080  220.2390 F   0  0  0  0  0  0  0  0  0  0  0  0
  138.3240   76.5130  222.3210 C   0  0  0  0  0  0  0  0  0  0  0  0
  138.9260   77.7260  222.6610 C   0  0  0  0  0  0  0  0  0  0  0  0
  142.3870   76.1710  219.3150 C   0  0  0  0  0  0  0  0  0  0  0  0
  141.7180   75.0850  218.7750 C   0  0  0  0  0  0  0  0  0  0  0  0
  142.2180   73.8160  218.8730 C   0  0  0  0  0  0  0  0  0  0  0  0
  143.4260   73.6390  219.5340 C   0  0  0  0  0  0  0  0  0  0  0  0
  143.9360   72.3600  219.6360 C   0  0  0  0  0  0  0  0  0  0  0  0
  145.1350   72.2080  220.2970 C   0  0  0  0  0  0  0  0  0  0  0  0
  145.8120   73.2930  220.8400 C   0  0  0  0  0  0  0  0  0  0  0  0
  145.2950   74.5580  220.7320 C   0  0  0  0  0  0  0  0  0  0  0  0
  144.0940   74.7390  220.0750 C   0  0  0  0  0  0  0  0  0  0  0  0
  143.5680   75.9820  219.9590 N   0  0  0  0  0  0  0  0  0  0  0  0
  142.9160   78.4530  220.7260 H   0  0  0  0  0  0  0  0  0  0  0  0
  142.2363   80.6737  219.9234 H   0  0  0  0  0  0  0  0  0  0  0  0
  141.1521   79.8894  218.7271 H   0  0  0  0  0  0  0  0  0  0  0  0
  140.9409   82.2935  221.8914 H   0  0  0  0  0  0  0  0  0  0  0  0
  139.8161   81.8227  223.1648 H   0  0  0  0  0  0  0  0  0  0  0  0
  142.3887   82.4609  223.6746 H   0  0  0  0  0  0  0  0  0  0  0  0
  141.5074   81.1672  224.6091 H   0  0  0  0  0  0  0  0  0  0  0  0
  143.3666   80.7461  222.2619 H   0  0  0  0  0  0  0  0  0  0  0  0
  143.7016   80.4445  224.0411 H   0  0  0  0  0  0  0  0  0  0  0  0
  142.8599   78.5662  222.2275 H   0  0  0  0  0  0  0  0  0  0  0  0
  142.7279   78.4610  224.0066 H   0  0  0  0  0  0  0  0  0  0  0  0
  140.4786   79.2917  223.9884 H   0  0  0  0  0  0  0  0  0  0  0  0
  142.1594   76.8073  222.2758 H   0  0  0  0  0  0  0  0  0  0  0  0
  141.0595   74.6646  221.6737 H   0  0  0  0  0  0  0  0  0  0  0  0
  137.2266   76.4394  222.3372 H   0  0  0  0  0  0  0  0  0  0  0  0
  138.3075   78.5916  222.9406 H   0  0  0  0  0  0  0  0  0  0  0  0
  140.7622   75.2471  218.2552 H   0  0  0  0  0  0  0  0  0  0  0  0
  141.6787   72.9603  218.4407 H   0  0  0  0  0  0  0  0  0  0  0  0
  143.4061   71.4970  219.2066 H   0  0  0  0  0  0  0  0  0  0  0  0
  145.5676   71.2016  220.3975 H   0  0  0  0  0  0  0  0  0  0  0  0
  146.7687   73.1360  221.3597 H   0  0  0  0  0  0  0  0  0  0  0  0
  145.8297   75.4173  221.1629 H   0  0  0  0  0  0  0  0  0  0  0  0
  1  2  2  0
  2  3  1  0
  3  4  1  0
  4  5  1  0
  5  6  2  0
  5  7  1  0
  7  8  1  0
  8  9  1  0
  9 10  1  0
 10 11  1  0
 11 12  1  0
 12 13  1  0
 13 14  2  0
 14 15  1  0
 15 16  2  0
 16 17  1  0
 17 18  1  0
 17 19  1  0
 17 20  1  0
 16 21  1  0
 21 22  2  0
  2 23  1  0
 23 24  2  0
 24 25  1  0
 25 26  2  0
 26 27  1  0
 27 28  2  0
 28 29  1  0
 29 30  2  0
 30 31  1  0
 31 32  2  0
 12  7  1  0
 22 13  1  0
 32 23  1  0
 31 26  1  0
  3 33  1  0
  4 34  1  0
  4 35  1  0
  8 36  1  0
  8 37  1  0
  9 38  1  0
  9 39  1  0
 10 40  1  0
 10 41  1  0
 11 42  1  0
 11 43  1  0
 12 44  1  1
 14 45  1  0
 15 46  1  0
 21 47  1  0
 22 48  1  0
 24 49  1  0
 25 50  1  0
 27 51  1  0
 28 52  1  0
 29 53  1  0
 30 54  1  0
M  END
>  <smiles>  (15) 
O=C(NCC(=O)N1CCCCC1c1ccc(C(F)(F)F)cc1)c1ccc2ccccc2n1

>  <score_type>  (15) 
oracle

>  <origin>  (15) 
autodockgpu

>  <m_score__min__energy>  (15) 
-8.3300000000000001

>  <m_primary>  (15) 
energy

>  <rmsd>  (15) 
7.5717544907314025

>  <m_score__min__rmsd>  (15) 
7.5717544907314025

>  <meeko>  (15) 
{"free_energy": -7.03, "intermolecular_energy": -8.82, "internal_energy": -2.85, "cluster_size": 10, "cluster_id": 7, "rank_in_cluster": 2}

>  <energy>  (15) 
-8.24

>  <cluster_rmsd>  (15) 
0.12

>  <cluster>  (15) 
2

$$$$

     RDKit          3D

 54 57  0  0  0  0  0  0  0  0999 V2000
  141.0510   74.5630  220.6910 O   0  0  0  0  0  0  0  0  0  0  0  0
  140.2190   74.8540  221.5840 C   0  0  0  0  0  0  0  0  0  0  0  0
  139.4250   73.7940  222.0970 N   0  0  0  0  0  0  0  0  0  0  0  0
  139.6620   72.4710  221.5280 C   0  0  0  0  0  0  0  0  0  0  0  0
  138.7220   71.5040  222.1320 C   0  0  0  0  0  0  0  0  0  0  0  0
  137.7230   71.9680  222.7340 O   0  0  0  0  0  0  0  0  0  0  0  0
  139.0090   70.1250  221.9950 N   0  0  0  0  0  0  0  0  0  0  0  0
  139.1520   69.4880  220.6680 C   0  0  0  0  0  0  0  0  0  0  0  0
  138.4910   68.1420  220.8130 C   0  0  0  0  0  0  0  0  0  0  0  0
  137.4060   68.1280  221.8610 C   0  0  0  0  0  0  0  0  0  0  0  0
  137.8630   68.5070  223.2390 C   0  0  0  0  0  0  0  0  0  0  0  0
  139.1810   69.2160  223.1180 C   0  0  2  0  0  0  0  0  0  0  0  0
  139.6480   69.8660  224.3480 C   0  0  0  0  0  0  0  0  0  0  0  0
  139.1590   69.4780  225.5820 C   0  0  0  0  0  0  0  0  0  0  0  0
  139.6160   70.1000  226.7440 C   0  0  0  0  0  0  0  0  0  0  0  0
  140.5610   71.1090  226.6960 C   0  0  0  0  0  0  0  0  0  0  0  0
  141.0630   71.7870  227.9320 C   0  0  0  0  0  0  0  0  0  0  0  0
  141.8150   70.9610  228.7260 F   0  0  0  0  0  0  0  0  0  0  0  0
  140.0030   72.2440  228.6870 F   0  0  0  0  0  0  0  0  0  0  0  0
  141.8390   72.8850  227.6150 F   0  0  0  0  0  0  0  0  0  0  0  0
  141.0350   71.4800  225.4530 C   0  0  0  0  0  0  0  0  0  0  0  0
  140.5900   70.8710  224.2790 C   0  0  0  0  0  0  0  0  0  0  0  0
  140.0670   76.2170  222.0790 C   0  0  0  0  0  0  0  0  0  0  0  0
  138.7860   76.7090  222.2620 C   0  0  0  0  0  0  0  0  0  0  0  0
  138.5650   77.9770  222.7230 C   0  0  0  0  0  0  0  0  0  0  0  0
  139.6690   78.7700  223.0080 C   0  0  0  0  0  0  0  0  0  0  0  0
  139.4520   80.0510  223.4740 C   0  0  0  0  0  0  0  0  0  0  0  0
  140.5620   80.8200  223.7500 C   0  0  0  0  0  0  0  0  0  0  0  0
  141.8510   80.3320  223.5710 C   0  0  0  0  0  0  0  0  0  0  0  0
  142.0530   79.0580  223.1070 C   0  0  0  0  0  0  0  0  0  0  0  0
  140.9580   78.2660  222.8220 C   0  0  0  0  0  0  0  0  0  0  0  0
  141.1370   77.0040  222.3630 N   0  0  0  0  0  0  0  0  0  0  0  0
  138.7190   73.9620  222.8360 H   0  0  0  0  0  0  0  0  0  0  0  0
  139.5049   72.5055  220.4398 H   0  0  0  0  0  0  0  0  0  0  0  0
  140.6960   72.1597  221.7374 H   0  0  0  0  0  0  0  0  0  0  0  0
  138.6474   70.0860  219.8949 H   0  0  0  0  0  0  0  0  0  0  0  0
  140.2046   69.4023  220.3602 H   0  0  0  0  0  0  0  0  0  0  0  0
  138.0476   67.8632  219.8457 H   0  0  0  0  0  0  0  0  0  0  0  0
  139.2649   67.4279  221.1311 H   0  0  0  0  0  0  0  0  0  0  0  0
  136.6223   68.8357  221.5528 H   0  0  0  0  0  0  0  0  0  0  0  0
  137.0489   67.0896  221.9258 H   0  0  0  0  0  0  0  0  0  0  0  0
  137.1232   69.1735  223.7064 H   0  0  0  0  0  0  0  0  0  0  0  0
  137.9711   67.6083  223.8639 H   0  0  0  0  0  0  0  0  0  0  0  0
  139.9966   68.4994  222.9412 H   0  0  0  0  0  0  0  0  0  0  0  0
  138.4079   68.6770  225.6474 H   0  0  0  0  0  0  0  0  0  0  0  0
  139.2167   69.7816  227.7183 H   0  0  0  0  0  0  0  0  0  0  0  0
  141.7866   72.2804  225.3864 H   0  0  0  0  0  0  0  0  0  0  0  0
  140.9880   71.1905  223.3046 H   0  0  0  0  0  0  0  0  0  0  0  0
  137.9253   76.0642  222.0309 H   0  0  0  0  0  0  0  0  0  0  0  0
  137.5428   78.3580  222.8641 H   0  0  0  0  0  0  0  0  0  0  0  0
  138.4343   80.4423  223.6192 H   0  0  0  0  0  0  0  0  0  0  0  0
  140.4242   81.8462  224.1214 H   0  0  0  0  0  0  0  0  0  0  0  0
  142.7148   80.9723  223.8032 H   0  0  0  0  0  0  0  0  0  0  0  0
  143.0730   78.6719  222.9636 H   0  0  0  0  0  0  0  0  0  0  0  0
  1  2  2  0
  2  3  1  0
  3  4  1  0
  4  5  1  0
  5  6  2  0
  5  7  1  0
  7  8  1  0
  8  9  1  0
  9 10  1  0
 10 11  1  0
 11 12  1  0
 12 13  1  0
 13 14  2  0
 14 15  1  0
 15 16  2  0
 16 17  1  0
 17 18  1  0
 17 19  1  0
 17 20  1  0
 16 21  1  0
 21 22  2  0
  2 23  1  0
 23 24  2  0
 24 25  1  0
 25 26  2  0
 26 27  1  0
 27 28  2  0
 28 29  1  0
 29 30  2  0
 30 31  1  0
 31 32  2  0
 12  7  1  0
 22 13  1  0
 32 23  1  0
 31 26  1  0
  3 33  1  0
  4 34  1  0
  4 35  1  0
  8 36  1  0
  8 37  1  0
  9 38  1  0
  9 39  1  0
 10 40  1  0
 10 41  1  0
 11 42  1  0
 11 43  1  0
 12 44  1  6
 14 45  1  0
 15 46  1  0
 21 47  1  0
 22 48  1  0
 24 49  1  0
 25 50  1  0
 27 51  1  0
 28 52  1  0
 29 53  1  0
 30 54  1  0
M  END
>  <smiles>  (16) 
O=C(NCC(=O)N1CCCCC1c1ccc(C(F)(F)F)cc1)c1ccc2ccccc2n1

>  <score_type>  (16) 
oracle

>  <origin>  (16) 
autodockgpu

>  <m_score__min__energy>  (16) 
-8.3300000000000001

>  <m_primary>  (16) 
energy

>  <rmsd>  (16) 
8.10466227935236

>  <m_score__min__rmsd>  (16) 
8.10466227935236

>  <meeko>  (16) 
{"free_energy": -8.28, "intermolecular_energy": -10.07, "internal_energy": -1.82, "cluster_size": 8, "cluster_id": 2, "rank_in_cluster": 2}

>  <energy>  (16) 
-8.23

>  <cluster_rmsd>  (16) 
0.15

>  <cluster>  (16) 
2

$$$$

     RDKit          3D

 54 57  0  0  0  0  0  0  0  0999 V2000
  139.4720   70.7960  221.4450 O   0  0  0  0  0  0  0  0  0  0  0  0
  139.5850   71.4050  222.5360 C   0  0  0  0  0  0  0  0  0  0  0  0
  139.5750   72.8250  222.4870 N   0  0  0  0  0  0  0  0  0  0  0  0
  139.4350   73.4280  221.1650 C   0  0  0  0  0  0  0  0  0  0  0  0
  139.9280   74.8200  221.2100 C   0  0  0  0  0  0  0  0  0  0  0  0
  140.3250   75.2580  222.3170 O   0  0  0  0  0  0  0  0  0  0  0  0
  139.9210   75.5660  220.0060 N   0  0  0  0  0  0  0  0  0  0  0  0
  138.9070   76.6080  219.7430 C   0  0  0  0  0  0  0  0  0  0  0  0
  138.5700   76.4570  218.2820 C   0  0  0  0  0  0  0  0  0  0  0  0
  138.7730   75.0520  217.7720 C   0  0  0  0  0  0  0  0  0  0  0  0
  140.1710   74.5290  217.9230 C   0  0  0  0  0  0  0  0  0  0  0  0
  140.8860   75.3820  218.9320 C   0  0  2  0  0  0  0  0  0  0  0  0
  142.1830   74.8580  219.3750 C   0  0  0  0  0  0  0  0  0  0  0  0
  143.2120   75.7160  219.7190 C   0  0  0  0  0  0  0  0  0  0  0  0
  144.4370   75.2040  220.1450 C   0  0  0  0  0  0  0  0  0  0  0  0
  144.6560   73.8410  220.2360 C   0  0  0  0  0  0  0  0  0  0  0  0
  145.9650   73.2760  220.6910 C   0  0  0  0  0  0  0  0  0  0  0  0
  146.2480   72.0620  220.1220 F   0  0  0  0  0  0  0  0  0  0  0  0
  145.9600   73.1060  222.0600 F   0  0  0  0  0  0  0  0  0  0  0  0
  147.0060   74.1330  220.3920 F   0  0  0  0  0  0  0  0  0  0  0  0
  143.6140   73.0040  219.8880 C   0  0  0  0  0  0  0  0  0  0  0  0
  142.3810   73.4960  219.4590 C   0  0  0  0  0  0  0  0  0  0  0  0
  139.7200   70.6960  223.8030 C   0  0  0  0  0  0  0  0  0  0  0  0
  139.2540   69.3940  223.8770 C   0  0  0  0  0  0  0  0  0  0  0  0
  139.3450   68.6670  225.0320 C   0  0  0  0  0  0  0  0  0  0  0  0
  139.9240   69.2710  226.1400 C   0  0  0  0  0  0  0  0  0  0  0  0
  140.0200   68.5410  227.3090 C   0  0  0  0  0  0  0  0  0  0  0  0
  140.5970   69.1610  228.3960 C   0  0  0  0  0  0  0  0  0  0  0  0
  141.0670   70.4660  228.3270 C   0  0  0  0  0  0  0  0  0  0  0  0
  140.9660   71.1800  227.1610 C   0  0  0  0  0  0  0  0  0  0  0  0
  140.3920   70.5840  226.0560 C   0  0  0  0  0  0  0  0  0  0  0  0
  140.2830   71.2730  224.8950 N   0  0  0  0  0  0  0  0  0  0  0  0
  139.6630   73.3920  223.3500 H   0  0  0  0  0  0  0  0  0  0  0  0
  140.0231   72.8531  220.4345 H   0  0  0  0  0  0  0  0  0  0  0  0
  138.3763   73.4209  220.8664 H   0  0  0  0  0  0  0  0  0  0  0  0
  138.0145   76.4461  220.3653 H   0  0  0  0  0  0  0  0  0  0  0  0
  139.2761   77.6163  219.9820 H   0  0  0  0  0  0  0  0  0  0  0  0
  137.5157   76.7343  218.1351 H   0  0  0  0  0  0  0  0  0  0  0  0
  139.2497   77.1129  217.7183 H   0  0  0  0  0  0  0  0  0  0  0  0
  138.0954   74.3849  218.3251 H   0  0  0  0  0  0  0  0  0  0  0  0
  138.5651   75.0791  216.6922 H   0  0  0  0  0  0  0  0  0  0  0  0
  140.1426   73.4858  218.2709 H   0  0  0  0  0  0  0  0  0  0  0  0
  140.6956   74.5638  216.9568 H   0  0  0  0  0  0  0  0  0  0  0  0
  141.1924   76.3414  218.4897 H   0  0  0  0  0  0  0  0  0  0  0  0
  143.0637   76.8042  219.6564 H   0  0  0  0  0  0  0  0  0  0  0  0
  145.2464   75.8985  220.4144 H   0  0  0  0  0  0  0  0  0  0  0  0
  143.7608   71.9157  219.9510 H   0  0  0  0  0  0  0  0  0  0  0  0
  141.5716   72.8016  219.1894 H   0  0  0  0  0  0  0  0  0  0  0  0
  138.8004   68.9340  222.9867 H   0  0  0  0  0  0  0  0  0  0  0  0
  138.9704   67.6339  225.0816 H   0  0  0  0  0  0  0  0  0  0  0  0
  139.6508   67.5066  227.3696 H   0  0  0  0  0  0  0  0  0  0  0  0
  140.6876   68.6081  229.3426 H   0  0  0  0  0  0  0  0  0  0  0  0
  141.5234   70.9299  229.2139 H   0  0  0  0  0  0  0  0  0  0  0  0
  141.3374   72.2140  227.1067 H   0  0  0  0  0  0  0  0  0  0  0  0
  1  2  2  0
  2  3  1  0
  3  4  1  0
  4  5  1  0
  5  6  2  0
  5  7  1  0
  7  8  1  0
  8  9  1  0
  9 10  1  0
 10 11  1  0
 11 12  1  0
 12 13  1  0
 13 14  2  0
 14 15  1  0
 15 16  2  0
 16 17  1  0
 17 18  1  0
 17 19  1  0
 17 20  1  0
 16 21  1  0
 21 22  2  0
  2 23  1  0
 23 24  2  0
 24 25  1  0
 25 26  2  0
 26 27  1  0
 27 28  2  0
 28 29  1  0
 29 30  2  0
 30 31  1  0
 31 32  2  0
 12  7  1  0
 22 13  1  0
 32 23  1  0
 31 26  1  0
  3 33  1  0
  4 34  1  0
  4 35  1  0
  8 36  1  0
  8 37  1  0
  9 38  1  0
  9 39  1  0
 10 40  1  0
 10 41  1  0
 11 42  1  0
 11 43  1  0
 12 44  1  6
 14 45  1  0
 15 46  1  0
 21 47  1  0
 22 48  1  0
 24 49  1  0
 25 50  1  0
 27 51  1  0
 28 52  1  0
 29 53  1  0
 30 54  1  0
M  END
>  <smiles>  (17) 
O=C(NCC(=O)N1CCCCC1c1ccc(C(F)(F)F)cc1)c1ccc2ccccc2n1

>  <score_type>  (17) 
oracle

>  <origin>  (17) 
autodockgpu

>  <m_score__min__energy>  (17) 
-8.3300000000000001

>  <m_primary>  (17) 
energy

>  <rmsd>  (17) 
1.768986564113411

>  <m_score__min__rmsd>  (17) 
1.768986564113411

>  <meeko>  (17) 
{"free_energy": -7.77, "intermolecular_energy": -9.55, "internal_energy": -2.27, "cluster_size": 11, "cluster_id": 4, "rank_in_cluster": 9}

>  <energy>  (17) 
-8.22

>  <cluster_rmsd>  (17) 
0.12

>  <cluster>  (17) 
2

$$$$

     RDKit          3D

 54 57  0  0  0  0  0  0  0  0999 V2000
  139.1860   74.9720  221.6250 O   0  0  0  0  0  0  0  0  0  0  0  0
  140.2620   75.5810  221.8300 C   0  0  0  0  0  0  0  0  0  0  0  0
  141.4650   74.8680  221.5790 N   0  0  0  0  0  0  0  0  0  0  0  0
  141.3190   73.4940  221.1090 C   0  0  0  0  0  0  0  0  0  0  0  0
  141.6670   73.4300  219.6740 C   0  0  0  0  0  0  0  0  0  0  0  0
  140.7320   73.5580  218.8460 O   0  0  0  0  0  0  0  0  0  0  0  0
  143.0250   73.2300  219.3270 N   0  0  0  0  0  0  0  0  0  0  0  0
  143.5770   71.8790  219.0940 C   0  0  0  0  0  0  0  0  0  0  0  0
  144.9520   71.9130  219.7090 C   0  0  0  0  0  0  0  0  0  0  0  0
  145.0670   72.9010  220.8430 C   0  0  0  0  0  0  0  0  0  0  0  0
  144.7520   74.3200  220.4700 C   0  0  0  0  0  0  0  0  0  0  0  0
  143.9910   74.3080  219.1760 C   0  0  2  0  0  0  0  0  0  0  0  0
  143.3970   75.5950  218.7970 C   0  0  0  0  0  0  0  0  0  0  0  0
  143.1780   75.9080  217.4680 C   0  0  0  0  0  0  0  0  0  0  0  0
  142.6060   77.1330  217.1220 C   0  0  0  0  0  0  0  0  0  0  0  0
  142.2460   78.0570  218.0870 C   0  0  0  0  0  0  0  0  0  0  0  0
  141.6310   79.3750  217.7340 C   0  0  0  0  0  0  0  0  0  0  0  0
  142.3760   80.4430  218.1630 F   0  0  0  0  0  0  0  0  0  0  0  0
  140.3780   79.4830  218.2990 F   0  0  0  0  0  0  0  0  0  0  0  0
  141.4730   79.4970  216.3670 F   0  0  0  0  0  0  0  0  0  0  0  0
  142.4740   77.7230  219.4070 C   0  0  0  0  0  0  0  0  0  0  0  0
  143.0450   76.5030  219.7730 C   0  0  0  0  0  0  0  0  0  0  0  0
  140.2890   76.9600  222.3030 C   0  0  0  0  0  0  0  0  0  0  0  0
  139.0840   77.5720  222.6040 C   0  0  0  0  0  0  0  0  0  0  0  0
  139.0300   78.8630  223.0520 C   0  0  0  0  0  0  0  0  0  0  0  0
  140.2260   79.5530  223.2010 C   0  0  0  0  0  0  0  0  0  0  0  0
  140.1780   80.8570  223.6530 C   0  0  0  0  0  0  0  0  0  0  0  0
  141.3760   81.5220  223.7930 C   0  0  0  0  0  0  0  0  0  0  0  0
  142.5880   80.9130  223.4930 C   0  0  0  0  0  0  0  0  0  0  0  0
  142.6230   79.6190  223.0440 C   0  0  0  0  0  0  0  0  0  0  0  0
  141.4360   78.9280  222.8950 C   0  0  0  0  0  0  0  0  0  0  0  0
  141.4500   77.6470  222.4530 N   0  0  0  0  0  0  0  0  0  0  0  0
  142.3910   75.3090  221.7260 H   0  0  0  0  0  0  0  0  0  0  0  0
  141.9913   72.8368  221.6800 H   0  0  0  0  0  0  0  0  0  0  0  0
  140.2794   73.1639  221.2515 H   0  0  0  0  0  0  0  0  0  0  0  0
  142.9530   71.1160  219.5823 H   0  0  0  0  0  0  0  0  0  0  0  0
  143.6068   71.6216  218.0249 H   0  0  0  0  0  0  0  0  0  0  0  0
  145.1890   70.9098  220.0929 H   0  0  0  0  0  0  0  0  0  0  0  0
  145.6552   72.2296  218.9246 H   0  0  0  0  0  0  0  0  0  0  0  0
  144.3721   72.5930  221.6381 H   0  0  0  0  0  0  0  0  0  0  0  0
  146.1199   72.8889  221.1613 H   0  0  0  0  0  0  0  0  0  0  0  0
  144.1402   74.7847  221.2573 H   0  0  0  0  0  0  0  0  0  0  0  0
  145.6810   74.8983  220.3586 H   0  0  0  0  0  0  0  0  0  0  0  0
  144.6664   74.1343  218.3253 H   0  0  0  0  0  0  0  0  0  0  0  0
  143.4552   75.1900  216.6821 H   0  0  0  0  0  0  0  0  0  0  0  0
  142.4380   77.3688  216.0608 H   0  0  0  0  0  0  0  0  0  0  0  0
  142.1973   78.4399  220.1941 H   0  0  0  0  0  0  0  0  0  0  0  0
  143.2132   76.2673  220.8342 H   0  0  0  0  0  0  0  0  0  0  0  0
  138.1485   77.0067  222.4799 H   0  0  0  0  0  0  0  0  0  0  0  0
  138.0676   79.3408  223.2874 H   0  0  0  0  0  0  0  0  0  0  0  0
  139.2215   81.3450  223.8916 H   0  0  0  0  0  0  0  0  0  0  0  0
  141.3730   82.5619  224.1515 H   0  0  0  0  0  0  0  0  0  0  0  0
  143.5263   81.4736  223.6168 H   0  0  0  0  0  0  0  0  0  0  0  0
  143.5826   79.1371  222.8055 H   0  0  0  0  0  0  0  0  0  0  0  0
  1  2  2  0
  2  3  1  0
  3  4  1  0
  4  5  1  0
  5  6  2  0
  5  7  1  0
  7  8  1  0
  8  9  1  0
  9 10  1  0
 10 11  1  0
 11 12  1  0
 12 13  1  0
 13 14  2  0
 14 15  1  0
 15 16  2  0
 16 17  1  0
 17 18  1  0
 17 19  1  0
 17 20  1  0
 16 21  1  0
 21 22  2  0
  2 23  1  0
 23 24  2  0
 24 25  1  0
 25 26  2  0
 26 27  1  0
 27 28  2  0
 28 29  1  0
 29 30  2  0
 30 31  1  0
 31 32  2  0
 12  7  1  0
 22 13  1  0
 32 23  1  0
 31 26  1  0
  3 33  1  0
  4 34  1  0
  4 35  1  0
  8 36  1  0
  8 37  1  0
  9 38  1  0
  9 39  1  0
 10 40  1  0
 10 41  1  0
 11 42  1  0
 11 43  1  0
 12 44  1  6
 14 45  1  0
 15 46  1  0
 21 47  1  0
 22 48  1  0
 24 49  1  0
 25 50  1  0
 27 51  1  0
 28 52  1  0
 29 53  1  0
 30 54  1  0
M  END
>  <smiles>  (18) 
O=C(NCC(=O)N1CCCCC1c1ccc(C(F)(F)F)cc1)c1ccc2ccccc2n1

>  <score_type>  (18) 
oracle

>  <origin>  (18) 
autodockgpu

>  <m_score__min__energy>  (18) 
-8.3300000000000001

>  <m_primary>  (18) 
energy

>  <rmsd>  (18) 
7.596243893549447

>  <m_score__min__rmsd>  (18) 
7.596243893549447

>  <meeko>  (18) 
{"free_energy": -7.28, "intermolecular_energy": -9.07, "internal_energy": -2.55, "cluster_size": 6, "cluster_id": 6, "rank_in_cluster": 1}

>  <energy>  (18) 
-8.22

>  <cluster_rmsd>  (18) 
0.13

>  <cluster>  (18) 
2

$$$$

     RDKit          3D

 54 57  0  0  0  0  0  0  0  0999 V2000
  141.2350   74.6030  220.7860 O   0  0  0  0  0  0  0  0  0  0  0  0
  140.3500   74.9250  221.6130 C   0  0  0  0  0  0  0  0  0  0  0  0
  139.4930   73.8910  222.0770 N   0  0  0  0  0  0  0  0  0  0  0  0
  139.7340   72.5570  221.5370 C   0  0  0  0  0  0  0  0  0  0  0  0
  138.7820   71.6050  222.1450 C   0  0  0  0  0  0  0  0  0  0  0  0
  137.8210   72.0840  222.7950 O   0  0  0  0  0  0  0  0  0  0  0  0
  139.0140   70.2210  221.9570 N   0  0  0  0  0  0  0  0  0  0  0  0
  139.1340   69.6290  220.6080 C   0  0  0  0  0  0  0  0  0  0  0  0
  138.4200   68.3050  220.7030 C   0  0  0  0  0  0  0  0  0  0  0  0
  137.3340   68.2950  221.7490 C   0  0  0  0  0  0  0  0  0  0  0  0
  137.8040   68.6050  223.1400 C   0  0  0  0  0  0  0  0  0  0  0  0
  139.1490   69.2650  223.0460 C   0  0  2  0  0  0  0  0  0  0  0  0
  139.6390   69.8510  224.2990 C   0  0  0  0  0  0  0  0  0  0  0  0
  140.6090   70.8370  224.2870 C   0  0  0  0  0  0  0  0  0  0  0  0
  141.0600   71.3900  225.4850 C   0  0  0  0  0  0  0  0  0  0  0  0
  140.5570   70.9740  226.7050 C   0  0  0  0  0  0  0  0  0  0  0  0
  141.0300   71.5560  228.0000 C   0  0  0  0  0  0  0  0  0  0  0  0
  141.8690   72.6250  227.8290 F   0  0  0  0  0  0  0  0  0  0  0  0
  141.7070   70.6030  228.7310 F   0  0  0  0  0  0  0  0  0  0  0  0
  139.9650   71.9780  228.7720 F   0  0  0  0  0  0  0  0  0  0  0  0
  139.5890   69.9880  226.6930 C   0  0  0  0  0  0  0  0  0  0  0  0
  139.1250   69.4220  225.5040 C   0  0  0  0  0  0  0  0  0  0  0  0
  140.2000   76.2960  222.0850 C   0  0  0  0  0  0  0  0  0  0  0  0
  138.9200   76.7820  222.2880 C   0  0  0  0  0  0  0  0  0  0  0  0
  138.7010   78.0580  222.7280 C   0  0  0  0  0  0  0  0  0  0  0  0
  139.8050   78.8640  222.9720 C   0  0  0  0  0  0  0  0  0  0  0  0
  139.5900   80.1530  223.4180 C   0  0  0  0  0  0  0  0  0  0  0  0
  140.7010   80.9340  223.6530 C   0  0  0  0  0  0  0  0  0  0  0  0
  141.9880   80.4520  223.4530 C   0  0  0  0  0  0  0  0  0  0  0  0
  142.1880   79.1710  223.0090 C   0  0  0  0  0  0  0  0  0  0  0  0
  141.0930   78.3660  222.7660 C   0  0  0  0  0  0  0  0  0  0  0  0
  141.2700   77.0960  222.3280 N   0  0  0  0  0  0  0  0  0  0  0  0
  138.7400   74.0850  222.7610 H   0  0  0  0  0  0  0  0  0  0  0  0
  139.5933   72.5712  220.4461 H   0  0  0  0  0  0  0  0  0  0  0  0
  140.7637   72.2465  221.7677 H   0  0  0  0  0  0  0  0  0  0  0  0
  138.6546   70.2747  219.8575 H   0  0  0  0  0  0  0  0  0  0  0  0
  140.1829   69.5135  220.2973 H   0  0  0  0  0  0  0  0  0  0  0  0
  137.9677   68.0798  219.7259 H   0  0  0  0  0  0  0  0  0  0  0  0
  139.1647   67.5498  220.9946 H   0  0  0  0  0  0  0  0  0  0  0  0
  136.5791   69.0437  221.4670 H   0  0  0  0  0  0  0  0  0  0  0  0
  136.9359   67.2699  221.7755 H   0  0  0  0  0  0  0  0  0  0  0  0
  137.0905   69.2827  223.6315 H   0  0  0  0  0  0  0  0  0  0  0  0
  137.8758   67.6801  223.7311 H   0  0  0  0  0  0  0  0  0  0  0  0
  139.9362   68.5238  222.8438 H   0  0  0  0  0  0  0  0  0  0  0  0
  141.0255   71.1856  223.3304 H   0  0  0  0  0  0  0  0  0  0  0  0
  141.8318   72.1734  225.4596 H   0  0  0  0  0  0  0  0  0  0  0  0
  139.1715   69.6385  227.6488 H   0  0  0  0  0  0  0  0  0  0  0  0
  138.3536   68.6382  225.5287 H   0  0  0  0  0  0  0  0  0  0  0  0
  138.0589   76.1265  222.0908 H   0  0  0  0  0  0  0  0  0  0  0  0
  137.6795   78.4351  222.8842 H   0  0  0  0  0  0  0  0  0  0  0  0
  138.5733   80.5408  223.5792 H   0  0  0  0  0  0  0  0  0  0  0  0
  140.5648   81.9661  224.0083 H   0  0  0  0  0  0  0  0  0  0  0  0
  142.8523   81.1026  223.6522 H   0  0  0  0  0  0  0  0  0  0  0  0
  143.2071   78.7894  222.8484 H   0  0  0  0  0  0  0  0  0  0  0  0
  1  2  2  0
  2  3  1  0
  3  4  1  0
  4  5  1  0
  5  6  2  0
  5  7  1  0
  7  8  1  0
  8  9  1  0
  9 10  1  0
 10 11  1  0
 11 12  1  0
 12 13  1  0
 13 14  2  0
 14 15  1  0
 15 16  2  0
 16 17  1  0
 17 18  1  0
 17 19  1  0
 17 20  1  0
 16 21  1  0
 21 22  2  0
  2 23  1  0
 23 24  2  0
 24 25  1  0
 25 26  2  0
 26 27  1  0
 27 28  2  0
 28 29  1  0
 29 30  2  0
 30 31  1  0
 31 32  2  0
 12  7  1  0
 22 13  1  0
 32 23  1  0
 31 26  1  0
  3 33  1  0
  4 34  1  0
  4 35  1  0
  8 36  1  0
  8 37  1  0
  9 38  1  0
  9 39  1  0
 10 40  1  0
 10 41  1  0
 11 42  1  0
 11 43  1  0
 12 44  1  6
 14 45  1  0
 15 46  1  0
 21 47  1  0
 22 48  1  0
 24 49  1  0
 25 50  1  0
 27 51  1  0
 28 52  1  0
 29 53  1  0
 30 54  1  0
M  END
>  <smiles>  (19) 
O=C(NCC(=O)N1CCCCC1c1ccc(C(F)(F)F)cc1)c1ccc2ccccc2n1

>  <score_type>  (19) 
oracle

>  <origin>  (19) 
autodockgpu

>  <m_score__min__energy>  (19) 
-8.3300000000000001

>  <m_primary>  (19) 
energy

>  <rmsd>  (19) 
8.12163449625698

>  <m_score__min__rmsd>  (19) 
8.12163449625698

>  <meeko>  (19) 
{"free_energy": -8.21, "intermolecular_energy": -10.0, "internal_energy": -1.86, "cluster_size": 8, "cluster_id": 2, "rank_in_cluster": 7}

>  <energy>  (19) 
-8.21

>  <cluster_rmsd>  (19) 
0.18

>  <cluster>  (19) 
2

$$$$

     RDKit          3D

 54 57  0  0  0  0  0  0  0  0999 V2000
  139.3610   70.7950  221.4770 O   0  0  0  0  0  0  0  0  0  0  0  0
  139.5270   71.4060  222.5590 C   0  0  0  0  0  0  0  0  0  0  0  0
  139.5390   72.8250  222.5040 N   0  0  0  0  0  0  0  0  0  0  0  0
  139.3570   73.4260  221.1870 C   0  0  0  0  0  0  0  0  0  0  0  0
  139.9140   74.7950  221.1930 C   0  0  0  0  0  0  0  0  0  0  0  0
  140.3460   75.2380  222.2850 O   0  0  0  0  0  0  0  0  0  0  0  0
  139.9230   75.5140  219.9740 N   0  0  0  0  0  0  0  0  0  0  0  0
  138.9130   76.5510  219.6740 C   0  0  0  0  0  0  0  0  0  0  0  0
  138.5940   76.3680  218.2130 C   0  0  0  0  0  0  0  0  0  0  0  0
  138.8010   74.9520  217.7370 C   0  0  0  0  0  0  0  0  0  0  0  0
  140.1970   74.4310  217.9170 C   0  0  0  0  0  0  0  0  0  0  0  0
  140.9000   75.3040  218.9160 C   0  0  2  0  0  0  0  0  0  0  0  0
  142.1900   74.7890  219.3860 C   0  0  0  0  0  0  0  0  0  0  0  0
  143.2240   75.6520  219.7010 C   0  0  0  0  0  0  0  0  0  0  0  0
  144.4440   75.1490  220.1540 C   0  0  0  0  0  0  0  0  0  0  0  0
  144.6520   73.7880  220.3000 C   0  0  0  0  0  0  0  0  0  0  0  0
  145.9530   73.2320  220.7850 C   0  0  0  0  0  0  0  0  0  0  0  0
  145.9680   73.0090  222.1370 F   0  0  0  0  0  0  0  0  0  0  0  0
  146.9820   74.1020  220.4910 F   0  0  0  0  0  0  0  0  0  0  0  0
  146.2430   72.0350  220.1590 F   0  0  0  0  0  0  0  0  0  0  0  0
  143.6050   72.9460  219.9800 C   0  0  0  0  0  0  0  0  0  0  0  0
  142.3780   73.4300  219.5250 C   0  0  0  0  0  0  0  0  0  0  0  0
  139.7010   70.6990  223.8230 C   0  0  0  0  0  0  0  0  0  0  0  0
  139.2990   69.3760  223.8930 C   0  0  0  0  0  0  0  0  0  0  0  0
  139.4300   68.6490  225.0450 C   0  0  0  0  0  0  0  0  0  0  0  0
  139.9820   69.2770  226.1540 C   0  0  0  0  0  0  0  0  0  0  0  0
  140.1170   68.5480  227.3190 C   0  0  0  0  0  0  0  0  0  0  0  0
  140.6670   69.1910  228.4060 C   0  0  0  0  0  0  0  0  0  0  0  0
  141.0730   70.5180  228.3410 C   0  0  0  0  0  0  0  0  0  0  0  0
  140.9330   71.2310  227.1790 C   0  0  0  0  0  0  0  0  0  0  0  0
  140.3850   70.6110  226.0730 C   0  0  0  0  0  0  0  0  0  0  0  0
  140.2390   71.2990  224.9150 N   0  0  0  0  0  0  0  0  0  0  0  0
  139.6710   73.3940  223.3600 H   0  0  0  0  0  0  0  0  0  0  0  0
  139.8789   72.8204  220.4315 H   0  0  0  0  0  0  0  0  0  0  0  0
  138.2846   73.4658  220.9454 H   0  0  0  0  0  0  0  0  0  0  0  0
  138.0125   76.4038  220.2884 H   0  0  0  0  0  0  0  0  0  0  0  0
  139.2806   77.5640  219.8945 H   0  0  0  0  0  0  0  0  0  0  0  0
  137.5420   76.6433  218.0468 H   0  0  0  0  0  0  0  0  0  0  0  0
  139.2817   77.0102  217.6433 H   0  0  0  0  0  0  0  0  0  0  0  0
  138.1158   74.2982  218.2965 H   0  0  0  0  0  0  0  0  0  0  0  0
  138.6061   74.9550  216.6544 H   0  0  0  0  0  0  0  0  0  0  0  0
  140.1629   73.3955  218.2866 H   0  0  0  0  0  0  0  0  0  0  0  0
  140.7338   74.4449  216.9570 H   0  0  0  0  0  0  0  0  0  0  0  0
  141.2127   76.2530  218.4560 H   0  0  0  0  0  0  0  0  0  0  0  0
  143.0841   76.7378  219.5941 H   0  0  0  0  0  0  0  0  0  0  0  0
  145.2570   75.8479  220.4001 H   0  0  0  0  0  0  0  0  0  0  0  0
  143.7428   71.8599  220.0872 H   0  0  0  0  0  0  0  0  0  0  0  0
  141.5650   72.7312  219.2785 H   0  0  0  0  0  0  0  0  0  0  0  0
  138.8644   68.8984  223.0025 H   0  0  0  0  0  0  0  0  0  0  0  0
  139.1076   67.5983  225.0913 H   0  0  0  0  0  0  0  0  0  0  0  0
  139.7984   67.4967  227.3766 H   0  0  0  0  0  0  0  0  0  0  0  0
  140.7879   68.6394  229.3500 H   0  0  0  0  0  0  0  0  0  0  0  0
  141.5098   70.9997  229.2282 H   0  0  0  0  0  0  0  0  0  0  0  0
  141.2526   72.2823  227.1278 H   0  0  0  0  0  0  0  0  0  0  0  0
  1  2  2  0
  2  3  1  0
  3  4  1  0
  4  5  1  0
  5  6  2  0
  5  7  1  0
  7  8  1  0
  8  9  1  0
  9 10  1  0
 10 11  1  0
 11 12  1  0
 12 13  1  0
 13 14  2  0
 14 15  1  0
 15 16  2  0
 16 17  1  0
 17 18  1  0
 17 19  1  0
 17 20  1  0
 16 21  1  0
 21 22  2  0
  2 23  1  0
 23 24  2  0
 24 25  1  0
 25 26  2  0
 26 27  1  0
 27 28  2  0
 28 29  1  0
 29 30  2  0
 30 31  1  0
 31 32  2  0
 12  7  1  0
 22 13  1  0
 32 23  1  0
 31 26  1  0
  3 33  1  0
  4 34  1  0
  4 35  1  0
  8 36  1  0
  8 37  1  0
  9 38  1  0
  9 39  1  0
 10 40  1  0
 10 41  1  0
 11 42  1  0
 11 43  1  0
 12 44  1  6
 14 45  1  0
 15 46  1  0
 21 47  1  0
 22 48  1  0
 24 49  1  0
 25 50  1  0
 27 51  1  0
 28 52  1  0
 29 53  1  0
 30 54  1  0
M  END
>  <smiles>  (20) 
O=C(NCC(=O)N1CCCCC1c1ccc(C(F)(F)F)cc1)c1ccc2ccccc2n1

>  <score_type>  (20) 
oracle

>  <origin>  (20) 
autodockgpu

>  <m_score__min__energy>  (20) 
-8.3300000000000001

>  <m_primary>  (20) 
energy

>  <rmsd>  (20) 
1.765712383930566

>  <m_score__min__rmsd>  (20) 
1.765712383930566

>  <meeko>  (20) 
{"free_energy": -7.77, "intermolecular_energy": -9.56, "internal_energy": -2.28, "cluster_size": 11, "cluster_id": 4, "rank_in_cluster": 7}

>  <energy>  (20) 
-7.51

>  <cluster_rmsd>  (20) 
0.76

>  <cluster>  (20) 
2

$$$$

     RDKit          3D

 54 57  0  0  0  0  0  0  0  0999 V2000
  140.8630   77.5760  218.3980 O   0  0  0  0  0  0  0  0  0  0  0  0
  141.7980   77.3690  219.2060 C   0  0  0  0  0  0  0  0  0  0  0  0
  142.1850   78.4540  220.0380 N   0  0  0  0  0  0  0  0  0  0  0  0
  141.4510   79.7030  219.8590 C   0  0  0  0  0  0  0  0  0  0  0  0
  140.2400   79.6820  220.7060 C   0  0  0  0  0  0  0  0  0  0  0  0
  139.1420   79.4630  220.1400 O   0  0  0  0  0  0  0  0  0  0  0  0
  140.3980   79.9090  222.0950 N   0  0  0  0  0  0  0  0  0  0  0  0
  140.2990   81.2640  222.6780 C   0  0  0  0  0  0  0  0  0  0  0  0
  141.3710   81.3070  223.7360 C   0  0  0  0  0  0  0  0  0  0  0  0
  142.5270   80.3840  223.4420 C   0  0  0  0  0  0  0  0  0  0  0  0
  142.1520   78.9380  223.3020 C   0  0  0  0  0  0  0  0  0  0  0  0
  140.6720   78.8570  223.0630 C   0  0  2  0  0  0  0  0  0  0  0  0
  140.1820   77.5330  222.6640 C   0  0  0  0  0  0  0  0  0  0  0  0
  141.0670   76.5200  222.3420 C   0  0  0  0  0  0  0  0  0  0  0  0
  140.5870   75.2640  221.9700 C   0  0  0  0  0  0  0  0  0  0  0  0
  139.2300   74.9980  221.9150 C   0  0  0  0  0  0  0  0  0  0  0  0
  138.6980   73.6570  221.5190 C   0  0  0  0  0  0  0  0  0  0  0  0
  137.4820   73.3760  222.0840 F   0  0  0  0  0  0  0  0  0  0  0  0
  139.5770   72.6650  221.9000 F   0  0  0  0  0  0  0  0  0  0  0  0
  138.5550   73.5660  220.1480 F   0  0  0  0  0  0  0  0  0  0  0  0
  138.3660   76.0250  222.2410 C   0  0  0  0  0  0  0  0  0  0  0  0
  138.8260   77.2890  222.6150 C   0  0  0  0  0  0  0  0  0  0  0  0
  142.4640   76.0750  219.2990 C   0  0  0  0  0  0  0  0  0  0  0  0
  141.9130   75.0050  218.6150 C   0  0  0  0  0  0  0  0  0  0  0  0
  142.4810   73.7610  218.6550 C   0  0  0  0  0  0  0  0  0  0  0  0
  143.6380   73.5960  219.4060 C   0  0  0  0  0  0  0  0  0  0  0  0
  144.2170   72.3430  219.4490 C   0  0  0  0  0  0  0  0  0  0  0  0
  145.3630   72.2020  220.2000 C   0  0  0  0  0  0  0  0  0  0  0  0
  145.9220   73.2720  220.8870 C   0  0  0  0  0  0  0  0  0  0  0  0
  145.3380   74.5110  220.8360 C   0  0  0  0  0  0  0  0  0  0  0  0
  144.1870   74.6800  220.0910 C   0  0  0  0  0  0  0  0  0  0  0  0
  143.5960   75.8980  220.0280 N   0  0  0  0  0  0  0  0  0  0  0  0
  142.9500   78.3540  220.7290 H   0  0  0  0  0  0  0  0  0  0  0  0
  142.0894   80.5498  220.1512 H   0  0  0  0  0  0  0  0  0  0  0  0
  141.1613   79.8128  218.8035 H   0  0  0  0  0  0  0  0  0  0  0  0
  140.4813   82.0304  221.9103 H   0  0  0  0  0  0  0  0  0  0  0  0
  139.2997   81.4664  223.0909 H   0  0  0  0  0  0  0  0  0  0  0  0
  141.7532   82.3361  223.8060 H   0  0  0  0  0  0  0  0  0  0  0  0
  140.9152   80.9730  224.6798 H   0  0  0  0  0  0  0  0  0  0  0  0
  142.9953   80.7096  222.5014 H   0  0  0  0  0  0  0  0  0  0  0  0
  143.2045   80.4480  224.3062 H   0  0  0  0  0  0  0  0  0  0  0  0
  142.6911   78.4944  222.4520 H   0  0  0  0  0  0  0  0  0  0  0  0
  142.4196   78.3864  224.2153 H   0  0  0  0  0  0  0  0  0  0  0  0
  140.1142   79.0084  223.9989 H   0  0  0  0  0  0  0  0  0  0  0  0
  142.1507   76.7049  222.3793 H   0  0  0  0  0  0  0  0  0  0  0  0
  141.3023   74.4682  221.7150 H   0  0  0  0  0  0  0  0  0  0  0  0
  137.2820   75.8414  222.2049 H   0  0  0  0  0  0  0  0  0  0  0  0
  138.1109   78.0853  222.8690 H   0  0  0  0  0  0  0  0  0  0  0  0
  140.9970   75.1586  218.0256 H   0  0  0  0  0  0  0  0  0  0  0  0
  142.0349   72.9168  218.1089 H   0  0  0  0  0  0  0  0  0  0  0  0
  143.7806   71.4920  218.9055 H   0  0  0  0  0  0  0  0  0  0  0  0
  145.8481   71.2164  220.2572 H   0  0  0  0  0  0  0  0  0  0  0  0
  146.8393   73.1241  221.4758 H   0  0  0  0  0  0  0  0  0  0  0  0
  145.7795   75.3587  221.3805 H   0  0  0  0  0  0  0  0  0  0  0  0
  1  2  2  0
  2  3  1  0
  3  4  1  0
  4  5  1  0
  5  6  2  0
  5  7  1  0
  7  8  1  0
  8  9  1  0
  9 10  1  0
 10 11  1  0
 11 12  1  0
 12 13  1  0
 13 14  2  0
 14 15  1  0
 15 16  2  0
 16 17  1  0
 17 18  1  0
 17 19  1  0
 17 20  1  0
 16 21  1  0
 21 22  2  0
  2 23  1  0
 23 24  2  0
 24 25  1  0
 25 26  2  0
 26 27  1  0
 27 28  2  0
 28 29  1  0
 29 30  2  0
 30 31  1  0
 31 32  2  0
 12  7  1  0
 22 13  1  0
 32 23  1  0
 31 26  1  0
  3 33  1  0
  4 34  1  0
  4 35  1  0
  8 36  1  0
  8 37  1  0
  9 38  1  0
  9 39  1  0
 10 40  1  0
 10 41  1  0
 11 42  1  0
 11 43  1  0
 12 44  1  1
 14 45  1  0
 15 46  1  0
 21 47  1  0
 22 48  1  0
 24 49  1  0
 25 50  1  0
 27 51  1  0
 28 52  1  0
 29 53  1  0
 30 54  1  0
M  END
>  <smiles>  (21) 
O=C(NCC(=O)N1CCCCC1c1ccc(C(F)(F)F)cc1)c1ccc2ccccc2n1

>  <score_type>  (21) 
oracle

>  <origin>  (21) 
autodockgpu

>  <m_score__min__energy>  (21) 
-8.3300000000000001

>  <m_primary>  (21) 
energy

>  <rmsd>  (21) 
7.542072664548175

>  <m_score__min__rmsd>  (21) 
7.542072664548175

>  <meeko>  (21) 
{"free_energy": -6.91, "intermolecular_energy": -8.7, "internal_energy": -2.91, "cluster_size": 10, "cluster_id": 7, "rank_in_cluster": 9}

>  <energy>  (21) 
-8.13

>  <cluster_rmsd>  (21) 
0.0

>  <cluster>  (21) 
3

$$$$

     RDKit          3D

 54 57  0  0  0  0  0  0  0  0999 V2000
  139.4410   70.7660  221.3270 O   0  0  0  0  0  0  0  0  0  0  0  0
  139.3490   71.5160  222.3270 C   0  0  0  0  0  0  0  0  0  0  0  0
  138.9010   72.8450  222.0990 N   0  0  0  0  0  0  0  0  0  0  0  0
  138.5960   73.1990  220.7170 C   0  0  0  0  0  0  0  0  0  0  0  0
  139.5180   74.2650  220.2720 C   0  0  0  0  0  0  0  0  0  0  0  0
  139.8120   74.3030  219.0520 O   0  0  0  0  0  0  0  0  0  0  0  0
  140.0070   75.1690  221.2450 N   0  0  0  0  0  0  0  0  0  0  0  0
  139.1140   75.7980  222.2410 C   0  0  0  0  0  0  0  0  0  0  0  0
  139.6130   77.2140  222.3670 C   0  0  0  0  0  0  0  0  0  0  0  0
  140.2890   77.7150  221.1150 C   0  0  0  0  0  0  0  0  0  0  0  0
  141.4720   76.9030  220.6770 C   0  0  0  0  0  0  0  0  0  0  0  0
  141.4030   75.5660  221.3550 C   0  0  2  0  0  0  0  0  0  0  0  0
  142.3510   74.5670  220.8500 C   0  0  0  0  0  0  0  0  0  0  0  0
  143.4160   74.9430  220.0510 C   0  0  0  0  0  0  0  0  0  0  0  0
  144.3130   73.9830  219.5830 C   0  0  0  0  0  0  0  0  0  0  0  0
  144.1670   72.6440  219.9000 C   0  0  0  0  0  0  0  0  0  0  0  0
  145.1200   71.6020  219.4070 C   0  0  0  0  0  0  0  0  0  0  0  0
  144.7230   70.3270  219.7150 F   0  0  0  0  0  0  0  0  0  0  0  0
  146.3680   71.7980  219.9590 F   0  0  0  0  0  0  0  0  0  0  0  0
  145.2670   71.6750  218.0350 F   0  0  0  0  0  0  0  0  0  0  0  0
  143.0970   72.2920  220.6990 C   0  0  0  0  0  0  0  0  0  0  0  0
  142.1870   73.2370  221.1770 C   0  0  0  0  0  0  0  0  0  0  0  0
  139.6830   71.0530  223.6690 C   0  0  0  0  0  0  0  0  0  0  0  0
  139.4370   69.7280  223.9850 C   0  0  0  0  0  0  0  0  0  0  0  0
  139.7230   69.2230  225.2240 C   0  0  0  0  0  0  0  0  0  0  0  0
  140.2740   70.0800  226.1670 C   0  0  0  0  0  0  0  0  0  0  0  0
  140.5660   69.5760  227.4190 C   0  0  0  0  0  0  0  0  0  0  0  0
  141.1110   70.4440  228.3390 C   0  0  0  0  0  0  0  0  0  0  0  0
  141.3620   71.7750  228.0280 C   0  0  0  0  0  0  0  0  0  0  0  0
  141.0680   72.2630  226.7820 C   0  0  0  0  0  0  0  0  0  0  0  0
  140.5200   71.4150  225.8400 C   0  0  0  0  0  0  0  0  0  0  0  0
  140.2220   71.8800  224.6020 N   0  0  0  0  0  0  0  0  0  0  0  0
  138.8010   73.5190  222.8800 H   0  0  0  0  0  0  0  0  0  0  0  0
  138.7196   72.3144  220.0750 H   0  0  0  0  0  0  0  0  0  0  0  0
  137.5580   73.5566  220.6482 H   0  0  0  0  0  0  0  0  0  0  0  0
  138.0717   75.7845  221.8898 H   0  0  0  0  0  0  0  0  0  0  0  0
  139.1270   75.2664  223.2039 H   0  0  0  0  0  0  0  0  0  0  0  0
  138.7574   77.8686  222.5891 H   0  0  0  0  0  0  0  0  0  0  0  0
  140.3615   77.2283  223.1730 H   0  0  0  0  0  0  0  0  0  0  0  0
  139.5495   77.7110  220.3007 H   0  0  0  0  0  0  0  0  0  0  0  0
  140.6695   78.7207  221.3470 H   0  0  0  0  0  0  0  0  0  0  0  0
  141.4471   76.7683  219.5856 H   0  0  0  0  0  0  0  0  0  0  0  0
  142.4059   77.4174  220.9477 H   0  0  0  0  0  0  0  0  0  0  0  0
  141.7243   75.6417  222.4043 H   0  0  0  0  0  0  0  0  0  0  0  0
  143.5556   76.0010  219.7843 H   0  0  0  0  0  0  0  0  0  0  0  0
  145.1547   74.2971  218.9482 H   0  0  0  0  0  0  0  0  0  0  0  0
  142.9573   71.2344  220.9672 H   0  0  0  0  0  0  0  0  0  0  0  0
  141.3444   72.9228  221.8105 H   0  0  0  0  0  0  0  0  0  0  0  0
  139.0015   69.0657  223.2223 H   0  0  0  0  0  0  0  0  0  0  0  0
  139.5223   68.1689  225.4658 H   0  0  0  0  0  0  0  0  0  0  0  0
  140.3711   68.5233  227.6715 H   0  0  0  0  0  0  0  0  0  0  0  0
  141.3539   70.0741  229.3461 H   0  0  0  0  0  0  0  0  0  0  0  0
  141.7993   72.4407  228.7867 H   0  0  0  0  0  0  0  0  0  0  0  0
  141.2659   73.3165  226.5352 H   0  0  0  0  0  0  0  0  0  0  0  0
  1  2  2  0
  2  3  1  0
  3  4  1  0
  4  5  1  0
  5  6  2  0
  5  7  1  0
  7  8  1  0
  8  9  1  0
  9 10  1  0
 10 11  1  0
 11 12  1  0
 12 13  1  0
 13 14  2  0
 14 15  1  0
 15 16  2  0
 16 17  1  0
 17 18  1  0
 17 19  1  0
 17 20  1  0
 16 21  1  0
 21 22  2  0
  2 23  1  0
 23 24  2  0
 24 25  1  0
 25 26  2  0
 26 27  1  0
 27 28  2  0
 28 29  1  0
 29 30  2  0
 30 31  1  0
 31 32  2  0
 12  7  1  0
 22 13  1  0
 32 23  1  0
 31 26  1  0
  3 33  1  0
  4 34  1  0
  4 35  1  0
  8 36  1  0
  8 37  1  0
  9 38  1  0
  9 39  1  0
 10 40  1  0
 10 41  1  0
 11 42  1  0
 11 43  1  0
 12 44  1  1
 14 45  1  0
 15 46  1  0
 21 47  1  0
 22 48  1  0
 24 49  1  0
 25 50  1  0
 27 51  1  0
 28 52  1  0
 29 53  1  0
 30 54  1  0
M  END
>  <smiles>  (22) 
O=C(NCC(=O)N1CCCCC1c1ccc(C(F)(F)F)cc1)c1ccc2ccccc2n1

>  <score_type>  (22) 
oracle

>  <origin>  (22) 
autodockgpu

>  <m_score__min__energy>  (22) 
-8.3300000000000001

>  <m_primary>  (22) 
energy

>  <rmsd>  (22) 
2.4579561750884764

>  <m_score__min__rmsd>  (22) 
2.4579561750884764

>  <meeko>  (22) 
{"free_energy": -7.92, "intermolecular_energy": -9.71, "internal_energy": -1.96, "cluster_size": 11, "cluster_id": 4, "rank_in_cluster": 2}

>  <energy>  (22) 
-7.67

>  <cluster_rmsd>  (22) 
1.1

>  <cluster>  (22) 
3

$$$$

     RDKit          3D

 54 57  0  0  0  0  0  0  0  0999 V2000
  140.9020   77.7800  218.3430 O   0  0  0  0  0  0  0  0  0  0  0  0
  141.7780   77.5350  219.2050 C   0  0  0  0  0  0  0  0  0  0  0  0
  142.1930   78.6150  220.0300 N   0  0  0  0  0  0  0  0  0  0  0  0
  141.5530   79.9030  219.7830 C   0  0  0  0  0  0  0  0  0  0  0  0
  140.4290   80.0780  220.7270 C   0  0  0  0  0  0  0  0  0  0  0  0
  139.2670   80.0560  220.2530 O   0  0  0  0  0  0  0  0  0  0  0  0
  140.7350   80.2580  222.0970 N   0  0  0  0  0  0  0  0  0  0  0  0
  140.8580   81.6040  222.6970 C   0  0  0  0  0  0  0  0  0  0  0  0
  142.0160   81.4950  223.6550 C   0  0  0  0  0  0  0  0  0  0  0  0
  143.0170   80.4400  223.2530 C   0  0  0  0  0  0  0  0  0  0  0  0
  142.4520   79.0550  223.1360 C   0  0  0  0  0  0  0  0  0  0  0  0
  140.9580   79.1630  223.0300 C   0  0  2  0  0  0  0  0  0  0  0  0
  140.2730   77.9180  222.6660 C   0  0  0  0  0  0  0  0  0  0  0  0
  138.8920   77.8530  222.6370 C   0  0  0  0  0  0  0  0  0  0  0  0
  138.2540   76.6650  222.2820 C   0  0  0  0  0  0  0  0  0  0  0  0
  138.9750   75.5310  221.9520 C   0  0  0  0  0  0  0  0  0  0  0  0
  138.3060   74.2480  221.5700 C   0  0  0  0  0  0  0  0  0  0  0  0
  138.0440   74.1620  220.2280 F   0  0  0  0  0  0  0  0  0  0  0  0
  137.1090   74.1170  222.2410 F   0  0  0  0  0  0  0  0  0  0  0  0
  139.0860   73.1610  221.9150 F   0  0  0  0  0  0  0  0  0  0  0  0
  140.3530   75.6190  221.9880 C   0  0  0  0  0  0  0  0  0  0  0  0
  141.0100   76.7990  222.3410 C   0  0  0  0  0  0  0  0  0  0  0  0
  142.3510   76.2040  219.3640 C   0  0  0  0  0  0  0  0  0  0  0  0
  141.6270   75.1190  218.8980 C   0  0  0  0  0  0  0  0  0  0  0  0
  142.1000   73.8410  219.0120 C   0  0  0  0  0  0  0  0  0  0  0  0
  143.3390   73.6540  219.6120 C   0  0  0  0  0  0  0  0  0  0  0  0
  143.8220   72.3660  219.7290 C   0  0  0  0  0  0  0  0  0  0  0  0
  145.0520   72.2040  220.3280 C   0  0  0  0  0  0  0  0  0  0  0  0
  145.7840   73.2880  220.7970 C   0  0  0  0  0  0  0  0  0  0  0  0
  145.2930   74.5620  220.6750 C   0  0  0  0  0  0  0  0  0  0  0  0
  144.0620   74.7530  220.0780 C   0  0  0  0  0  0  0  0  0  0  0  0
  143.5610   76.0050  219.9480 N   0  0  0  0  0  0  0  0  0  0  0  0
  142.9130   78.4850  220.7630 H   0  0  0  0  0  0  0  0  0  0  0  0
  142.2848   80.7111  219.9289 H   0  0  0  0  0  0  0  0  0  0  0  0
  141.1758   79.9355  218.7502 H   0  0  0  0  0  0  0  0  0  0  0  0
  141.0661   82.3561  221.9218 H   0  0  0  0  0  0  0  0  0  0  0  0
  139.9321   81.9203  223.1997 H   0  0  0  0  0  0  0  0  0  0  0  0
  142.5291   82.4671  223.6966 H   0  0  0  0  0  0  0  0  0  0  0  0
  141.6068   81.2041  224.6338 H   0  0  0  0  0  0  0  0  0  0  0  0
  143.4393   80.7218  222.2772 H   0  0  0  0  0  0  0  0  0  0  0  0
  143.7696   80.4029  224.0544 H   0  0  0  0  0  0  0  0  0  0  0  0
  142.8541   78.5638  222.2376 H   0  0  0  0  0  0  0  0  0  0  0  0
  142.7273   78.4575  224.0176 H   0  0  0  0  0  0  0  0  0  0  0  0
  140.5079   79.3654  224.0131 H   0  0  0  0  0  0  0  0  0  0  0  0
  138.2954   78.7405  222.8946 H   0  0  0  0  0  0  0  0  0  0  0  0
  137.1548   76.6286  222.2639 H   0  0  0  0  0  0  0  0  0  0  0  0
  140.9509   74.7323  221.7307 H   0  0  0  0  0  0  0  0  0  0  0  0
  142.1092   76.8359  222.3598 H   0  0  0  0  0  0  0  0  0  0  0  0
  140.6486   75.2894  218.4251 H   0  0  0  0  0  0  0  0  0  0  0  0
  141.5166   72.9861  218.6395 H   0  0  0  0  0  0  0  0  0  0  0  0
  143.2479   71.5038  219.3589 H   0  0  0  0  0  0  0  0  0  0  0  0
  145.4652   71.1905  220.4378 H   0  0  0  0  0  0  0  0  0  0  0  0
  146.7637   73.1227  221.2691 H   0  0  0  0  0  0  0  0  0  0  0  0
  145.8713   75.4204  221.0474 H   0  0  0  0  0  0  0  0  0  0  0  0
  1  2  2  0
  2  3  1  0
  3  4  1  0
  4  5  1  0
  5  6  2  0
  5  7  1  0
  7  8  1  0
  8  9  1  0
  9 10  1  0
 10 11  1  0
 11 12  1  0
 12 13  1  0
 13 14  2  0
 14 15  1  0
 15 16  2  0
 16 17  1  0
 17 18  1  0
 17 19  1  0
 17 20  1  0
 16 21  1  0
 21 22  2  0
  2 23  1  0
 23 24  2  0
 24 25  1  0
 25 26  2  0
 26 27  1  0
 27 28  2  0
 28 29  1  0
 29 30  2  0
 30 31  1  0
 31 32  2  0
 12  7  1  0
 22 13  1  0
 32 23  1  0
 31 26  1  0
  3 33  1  0
  4 34  1  0
  4 35  1  0
  8 36  1  0
  8 37  1  0
  9 38  1  0
  9 39  1  0
 10 40  1  0
 10 41  1  0
 11 42  1  0
 11 43  1  0
 12 44  1  1
 14 45  1  0
 15 46  1  0
 21 47  1  0
 22 48  1  0
 24 49  1  0
 25 50  1  0
 27 51  1  0
 28 52  1  0
 29 53  1  0
 30 54  1  0
M  END
>  <smiles>  (23) 
O=C(NCC(=O)N1CCCCC1c1ccc(C(F)(F)F)cc1)c1ccc2ccccc2n1

>  <score_type>  (23) 
oracle

>  <origin>  (23) 
autodockgpu

>  <m_score__min__energy>  (23) 
-8.3300000000000001

>  <m_primary>  (23) 
energy

>  <rmsd>  (23) 
7.578180859676512

>  <m_score__min__rmsd>  (23) 
7.578180859676512

>  <meeko>  (23) 
{"free_energy": -7.02, "intermolecular_energy": -8.81, "internal_energy": -2.85, "cluster_size": 10, "cluster_id": 7, "rank_in_cluster": 3}

>  <energy>  (23) 
-8.03

>  <cluster_rmsd>  (23) 
0.0

>  <cluster>  (23) 
4

$$$$

     RDKit          3D

 54 57  0  0  0  0  0  0  0  0999 V2000
  140.8370   77.6010  218.4110 O   0  0  0  0  0  0  0  0  0  0  0  0
  141.7840   77.4010  219.2080 C   0  0  0  0  0  0  0  0  0  0  0  0
  142.1730   78.4880  220.0350 N   0  0  0  0  0  0  0  0  0  0  0  0
  141.4260   79.7310  219.8670 C   0  0  0  0  0  0  0  0  0  0  0  0
  140.2310   79.7030  220.7360 C   0  0  0  0  0  0  0  0  0  0  0  0
  139.1240   79.4750  220.1900 O   0  0  0  0  0  0  0  0  0  0  0  0
  140.4110   79.9330  222.1210 N   0  0  0  0  0  0  0  0  0  0  0  0
  140.3450   81.2920  222.6990 C   0  0  0  0  0  0  0  0  0  0  0  0
  141.4320   81.3210  223.7420 C   0  0  0  0  0  0  0  0  0  0  0  0
  142.5670   80.3760  223.4370 C   0  0  0  0  0  0  0  0  0  0  0  0
  142.1640   78.9360  223.3090 C   0  0  0  0  0  0  0  0  0  0  0  0
  140.6790   78.8810  223.0910 C   0  0  2  0  0  0  0  0  0  0  0  0
  140.1600   77.5650  222.7040 C   0  0  0  0  0  0  0  0  0  0  0  0
  141.0190   76.5490  222.3270 C   0  0  0  0  0  0  0  0  0  0  0  0
  140.5120   75.3000  221.9680 C   0  0  0  0  0  0  0  0  0  0  0  0
  139.1520   75.0440  221.9810 C   0  0  0  0  0  0  0  0  0  0  0  0
  138.5910   73.7100  221.6000 C   0  0  0  0  0  0  0  0  0  0  0  0
  137.2540   73.5940  221.8780 F   0  0  0  0  0  0  0  0  0  0  0  0
  139.2500   72.7050  222.2770 F   0  0  0  0  0  0  0  0  0  0  0  0
  138.7610   73.4690  220.2500 F   0  0  0  0  0  0  0  0  0  0  0  0
  138.3130   76.0730  222.3620 C   0  0  0  0  0  0  0  0  0  0  0  0
  138.8010   77.3300  222.7230 C   0  0  0  0  0  0  0  0  0  0  0  0
  142.4620   76.1120  219.2900 C   0  0  0  0  0  0  0  0  0  0  0  0
  141.9300   75.0460  218.5840 C   0  0  0  0  0  0  0  0  0  0  0  0
  142.5100   73.8080  218.6130 C   0  0  0  0  0  0  0  0  0  0  0  0
  143.6580   73.6430  219.3770 C   0  0  0  0  0  0  0  0  0  0  0  0
  144.2480   72.3950  219.4100 C   0  0  0  0  0  0  0  0  0  0  0  0
  145.3870   72.2540  220.1740 C   0  0  0  0  0  0  0  0  0  0  0  0
  145.9260   73.3200  220.8830 C   0  0  0  0  0  0  0  0  0  0  0  0
  145.3300   74.5530  220.8430 C   0  0  0  0  0  0  0  0  0  0  0  0
  144.1880   74.7230  220.0850 C   0  0  0  0  0  0  0  0  0  0  0  0
  143.5850   75.9350  220.0320 N   0  0  0  0  0  0  0  0  0  0  0  0
  142.9470   78.3940  220.7170 H   0  0  0  0  0  0  0  0  0  0  0  0
  142.0632   80.5833  220.1455 H   0  0  0  0  0  0  0  0  0  0  0  0
  141.1160   79.8359  218.8168 H   0  0  0  0  0  0  0  0  0  0  0  0
  140.5304   82.0514  221.9251 H   0  0  0  0  0  0  0  0  0  0  0  0
  139.3554   81.5140  223.1250 H   0  0  0  0  0  0  0  0  0  0  0  0
  141.8335   82.3434  223.8014 H   0  0  0  0  0  0  0  0  0  0  0  0
  140.9834   80.9999  224.6937 H   0  0  0  0  0  0  0  0  0  0  0  0
  143.0284   80.6887  222.4887 H   0  0  0  0  0  0  0  0  0  0  0  0
  143.2572   80.4317  224.2917 H   0  0  0  0  0  0  0  0  0  0  0  0
  142.6830   78.4789  222.4536 H   0  0  0  0  0  0  0  0  0  0  0  0
  142.4345   78.3836  224.2210 H   0  0  0  0  0  0  0  0  0  0  0  0
  140.1375   79.0468  224.0340 H   0  0  0  0  0  0  0  0  0  0  0  0
  142.1045   76.7261  222.3102 H   0  0  0  0  0  0  0  0  0  0  0  0
  141.2075   74.5022  221.6684 H   0  0  0  0  0  0  0  0  0  0  0  0
  137.2274   75.8966  222.3815 H   0  0  0  0  0  0  0  0  0  0  0  0
  138.1057   78.1286  223.0210 H   0  0  0  0  0  0  0  0  0  0  0  0
  141.0195   75.1987  217.9859 H   0  0  0  0  0  0  0  0  0  0  0  0
  142.0801   72.9678  218.0480 H   0  0  0  0  0  0  0  0  0  0  0  0
  143.8264   71.5476  218.8495 H   0  0  0  0  0  0  0  0  0  0  0  0
  145.8814   71.2726  220.2233 H   0  0  0  0  0  0  0  0  0  0  0  0
  146.8377   73.1732  221.4807 H   0  0  0  0  0  0  0  0  0  0  0  0
  145.7553   75.3962  221.4070 H   0  0  0  0  0  0  0  0  0  0  0  0
  1  2  2  0
  2  3  1  0
  3  4  1  0
  4  5  1  0
  5  6  2  0
  5  7  1  0
  7  8  1  0
  8  9  1  0
  9 10  1  0
 10 11  1  0
 11 12  1  0
 12 13  1  0
 13 14  2  0
 14 15  1  0
 15 16  2  0
 16 17  1  0
 17 18  1  0
 17 19  1  0
 17 20  1  0
 16 21  1  0
 21 22  2  0
  2 23  1  0
 23 24  2  0
 24 25  1  0
 25 26  2  0
 26 27  1  0
 27 28  2  0
 28 29  1  0
 29 30  2  0
 30 31  1  0
 31 32  2  0
 12  7  1  0
 22 13  1  0
 32 23  1  0
 31 26  1  0
  3 33  1  0
  4 34  1  0
  4 35  1  0
  8 36  1  0
  8 37  1  0
  9 38  1  0
  9 39  1  0
 10 40  1  0
 10 41  1  0
 11 42  1  0
 11 43  1  0
 12 44  1  1
 14 45  1  0
 15 46  1  0
 21 47  1  0
 22 48  1  0
 24 49  1  0
 25 50  1  0
 27 51  1  0
 28 52  1  0
 29 53  1  0
 30 54  1  0
M  END
>  <smiles>  (24) 
O=C(NCC(=O)N1CCCCC1c1ccc(C(F)(F)F)cc1)c1ccc2ccccc2n1

>  <score_type>  (24) 
oracle

>  <origin>  (24) 
autodockgpu

>  <m_score__min__energy>  (24) 
-8.3300000000000001

>  <m_primary>  (24) 
energy

>  <rmsd>  (24) 
7.572121924218231

>  <m_score__min__rmsd>  (24) 
7.572121924218231

>  <meeko>  (24) 
{"free_energy": -6.95, "intermolecular_energy": -8.74, "internal_energy": -2.87, "cluster_size": 10, "cluster_id": 7, "rank_in_cluster": 7}

>  <energy>  (24) 
-7.92

>  <cluster_rmsd>  (24) 
1.45

>  <cluster>  (24) 
4

$$$$

     RDKit          3D

 54 57  0  0  0  0  0  0  0  0999 V2000
  140.0750   70.9220  221.3930 O   0  0  0  0  0  0  0  0  0  0  0  0
  140.0130   71.4640  222.5210 C   0  0  0  0  0  0  0  0  0  0  0  0
  139.9990   72.8840  222.5560 N   0  0  0  0  0  0  0  0  0  0  0  0
  140.0600   73.5650  221.2660 C   0  0  0  0  0  0  0  0  0  0  0  0
  141.3560   74.2650  221.1450 C   0  0  0  0  0  0  0  0  0  0  0  0
  141.4540   75.3960  221.6800 O   0  0  0  0  0  0  0  0  0  0  0  0
  142.3970   73.6180  220.4370 N   0  0  0  0  0  0  0  0  0  0  0  0
  142.6100   72.1580  220.5290 C   0  0  0  0  0  0  0  0  0  0  0  0
  144.1070   71.9890  220.5580 C   0  0  0  0  0  0  0  0  0  0  0  0
  144.8250   73.1820  221.1370 C   0  0  0  0  0  0  0  0  0  0  0  0
  144.5750   74.4730  220.4120 C   0  0  0  0  0  0  0  0  0  0  0  0
  143.3420   74.3090  219.5720 C   0  0  2  0  0  0  0  0  0  0  0  0
  142.8220   75.5520  218.9900 C   0  0  0  0  0  0  0  0  0  0  0  0
  143.0670   76.7720  219.5930 C   0  0  0  0  0  0  0  0  0  0  0  0
  142.5730   77.9460  219.0240 C   0  0  0  0  0  0  0  0  0  0  0  0
  141.8330   77.9240  217.8550 C   0  0  0  0  0  0  0  0  0  0  0  0
  141.2950   79.1740  217.2320 C   0  0  0  0  0  0  0  0  0  0  0  0
  141.4690   79.2100  215.8730 F   0  0  0  0  0  0  0  0  0  0  0  0
  141.9230   80.2800  217.7650 F   0  0  0  0  0  0  0  0  0  0  0  0
  139.9450   79.3120  217.4860 F   0  0  0  0  0  0  0  0  0  0  0  0
  141.6010   76.6940  217.2700 C   0  0  0  0  0  0  0  0  0  0  0  0
  142.0870   75.5090  217.8240 C   0  0  0  0  0  0  0  0  0  0  0  0
  139.9570   70.6800  223.7500 C   0  0  0  0  0  0  0  0  0  0  0  0
  139.3220   69.4500  223.7140 C   0  0  0  0  0  0  0  0  0  0  0  0
  139.2300   68.6600  224.8270 C   0  0  0  0  0  0  0  0  0  0  0  0
  139.7950   69.1260  226.0070 C   0  0  0  0  0  0  0  0  0  0  0  0
  139.7050   68.3320  227.1330 C   0  0  0  0  0  0  0  0  0  0  0  0
  140.2730   68.8140  228.2930 C   0  0  0  0  0  0  0  0  0  0  0  0
  140.9130   70.0460  228.3350 C   0  0  0  0  0  0  0  0  0  0  0  0
  140.9950   70.8250  227.2100 C   0  0  0  0  0  0  0  0  0  0  0  0
  140.4340   70.3660  226.0340 C   0  0  0  0  0  0  0  0  0  0  0  0
  140.5060   71.1220  224.9110 N   0  0  0  0  0  0  0  0  0  0  0  0
  139.9500   73.3990  223.4540 H   0  0  0  0  0  0  0  0  0  0  0  0
  139.9637   72.8272  220.4559 H   0  0  0  0  0  0  0  0  0  0  0  0
  139.2391   74.2937  221.1944 H   0  0  0  0  0  0  0  0  0  0  0  0
  142.1569   71.7573  221.4478 H   0  0  0  0  0  0  0  0  0  0  0  0
  142.1470   71.6170  219.6906 H   0  0  0  0  0  0  0  0  0  0  0  0
  144.3480   71.1055  221.1674 H   0  0  0  0  0  0  0  0  0  0  0  0
  144.4449   71.8756  219.5173 H   0  0  0  0  0  0  0  0  0  0  0  0
  144.4994   73.3056  222.1804 H   0  0  0  0  0  0  0  0  0  0  0  0
  145.9012   72.9745  221.0432 H   0  0  0  0  0  0  0  0  0  0  0  0
  144.4250   75.2850  221.1387 H   0  0  0  0  0  0  0  0  0  0  0  0
  145.4368   74.7244  219.7762 H   0  0  0  0  0  0  0  0  0  0  0  0
  143.5606   73.7307  218.6622 H   0  0  0  0  0  0  0  0  0  0  0  0
  143.6525   76.8169  220.5231 H   0  0  0  0  0  0  0  0  0  0  0  0
  142.7760   78.9093  219.5149 H   0  0  0  0  0  0  0  0  0  0  0  0
  141.0157   76.6474  216.3398 H   0  0  0  0  0  0  0  0  0  0  0  0
  141.8849   74.5456  217.3331 H   0  0  0  0  0  0  0  0  0  0  0  0
  138.8815   69.1001  222.7688 H   0  0  0  0  0  0  0  0  0  0  0  0
  138.7234   67.6844  224.7885 H   0  0  0  0  0  0  0  0  0  0  0  0
  139.2007   67.3548  227.1056 H   0  0  0  0  0  0  0  0  0  0  0  0
  140.2179   68.2073  229.2089 H   0  0  0  0  0  0  0  0  0  0  0  0
  141.3571   70.3990  229.2774 H   0  0  0  0  0  0  0  0  0  0  0  0
  141.5002   71.8015  227.2432 H   0  0  0  0  0  0  0  0  0  0  0  0
  1  2  2  0
  2  3  1  0
  3  4  1  0
  4  5  1  0
  5  6  2  0
  5  7  1  0
  7  8  1  0
  8  9  1  0
  9 10  1  0
 10 11  1  0
 11 12  1  0
 12 13  1  0
 13 14  2  0
 14 15  1  0
 15 16  2  0
 16 17  1  0
 17 18  1  0
 17 19  1  0
 17 20  1  0
 16 21  1  0
 21 22  2  0
  2 23  1  0
 23 24  2  0
 24 25  1  0
 25 26  2  0
 26 27  1  0
 27 28  2  0
 28 29  1  0
 29 30  2  0
 30 31  1  0
 31 32  2  0
 12  7  1  0
 22 13  1  0
 32 23  1  0
 31 26  1  0
  3 33  1  0
  4 34  1  0
  4 35  1  0
  8 36  1  0
  8 37  1  0
  9 38  1  0
  9 39  1  0
 10 40  1  0
 10 41  1  0
 11 42  1  0
 11 43  1  0
 12 44  1  6
 14 45  1  0
 15 46  1  0
 21 47  1  0
 22 48  1  0
 24 49  1  0
 25 50  1  0
 27 51  1  0
 28 52  1  0
 29 53  1  0
 30 54  1  0
M  END
>  <smiles>  (25) 
O=C(NCC(=O)N1CCCCC1c1ccc(C(F)(F)F)cc1)c1ccc2ccccc2n1

>  <score_type>  (25) 
oracle

>  <origin>  (25) 
autodockgpu

>  <m_score__min__energy>  (25) 
-8.3300000000000001

>  <m_primary>  (25) 
energy

>  <rmsd>  (25) 
3.138561355295752

>  <m_score__min__rmsd>  (25) 
3.138561355295752

>  <meeko>  (25) 
{"free_energy": -7.67, "intermolecular_energy": -9.46, "internal_energy": -1.77, "cluster_size": 2, "cluster_id": 3, "rank_in_cluster": 2}

>  <energy>  (25) 
-7.89

>  <cluster_rmsd>  (25) 
1.45

>  <cluster>  (25) 
4

$$$$

     RDKit          3D

 54 57  0  0  0  0  0  0  0  0999 V2000
  139.8910   73.3950  222.6360 O   0  0  0  0  0  0  0  0  0  0  0  0
  140.2200   72.1850  222.6010 C   0  0  0  0  0  0  0  0  0  0  0  0
  140.7240   71.6880  221.3700 N   0  0  0  0  0  0  0  0  0  0  0  0
  140.8050   72.6420  220.2690 C   0  0  0  0  0  0  0  0  0  0  0  0
  141.9290   73.5720  220.5100 C   0  0  0  0  0  0  0  0  0  0  0  0
  141.7030   74.5780  221.2250 O   0  0  0  0  0  0  0  0  0  0  0  0
  143.1800   73.2670  219.9220 N   0  0  0  0  0  0  0  0  0  0  0  0
  143.6730   71.8780  219.8170 C   0  0  0  0  0  0  0  0  0  0  0  0
  145.1490   71.9690  220.1080 C   0  0  0  0  0  0  0  0  0  0  0  0
  145.5030   73.1320  221.0010 C   0  0  0  0  0  0  0  0  0  0  0  0
  145.1100   74.4760  220.4600 C   0  0  0  0  0  0  0  0  0  0  0  0
  144.0870   74.2690  219.3810 C   0  0  2  0  0  0  0  0  0  0  0  0
  143.4220   75.4910  218.9180 C   0  0  0  0  0  0  0  0  0  0  0  0
  142.9940   75.6110  217.6080 C   0  0  0  0  0  0  0  0  0  0  0  0
  142.3570   76.7770  217.1830 C   0  0  0  0  0  0  0  0  0  0  0  0
  142.1350   77.8330  218.0490 C   0  0  0  0  0  0  0  0  0  0  0  0
  141.4530   79.0900  217.6090 C   0  0  0  0  0  0  0  0  0  0  0  0
  140.1400   79.1480  217.9960 F   0  0  0  0  0  0  0  0  0  0  0  0
  141.4910   79.1970  216.2350 F   0  0  0  0  0  0  0  0  0  0  0  0
  142.0900   80.2040  218.1210 F   0  0  0  0  0  0  0  0  0  0  0  0
  142.5700   77.6910  219.3520 C   0  0  0  0  0  0  0  0  0  0  0  0
  143.2110   76.5330  219.7960 C   0  0  0  0  0  0  0  0  0  0  0  0
  140.0950   71.3200  223.7680 C   0  0  0  0  0  0  0  0  0  0  0  0
  139.4190   70.1200  223.6250 C   0  0  0  0  0  0  0  0  0  0  0  0
  139.2610   69.2580  224.6740 C   0  0  0  0  0  0  0  0  0  0  0  0
  139.8020   69.6170  225.9020 C   0  0  0  0  0  0  0  0  0  0  0  0
  139.6470   68.7500  226.9650 C   0  0  0  0  0  0  0  0  0  0  0  0
  140.1920   69.1270  228.1730 C   0  0  0  0  0  0  0  0  0  0  0  0
  140.8720   70.3290  228.3230 C   0  0  0  0  0  0  0  0  0  0  0  0
  141.0200   71.1810  227.2600 C   0  0  0  0  0  0  0  0  0  0  0  0
  140.4830   70.8280  226.0370 C   0  0  0  0  0  0  0  0  0  0  0  0
  140.6190   71.6580  224.9750 N   0  0  0  0  0  0  0  0  0  0  0  0
  141.0160   70.6990  221.2690 H   0  0  0  0  0  0  0  0  0  0  0  0
  140.9713   72.1012  219.3257 H   0  0  0  0  0  0  0  0  0  0  0  0
  139.8649   73.2094  220.2031 H   0  0  0  0  0  0  0  0  0  0  0  0
  143.1721   71.2325  220.5536 H   0  0  0  0  0  0  0  0  0  0  0  0
  143.4715   71.4400  218.8283 H   0  0  0  0  0  0  0  0  0  0  0  0
  145.4670   71.0387  220.6014 H   0  0  0  0  0  0  0  0  0  0  0  0
  145.6647   72.1220  219.1485 H   0  0  0  0  0  0  0  0  0  0  0  0
  144.9969   72.9895  221.9672 H   0  0  0  0  0  0  0  0  0  0  0  0
  146.5997   73.1381  221.0859 H   0  0  0  0  0  0  0  0  0  0  0  0
  144.6818   75.0905  221.2656 H   0  0  0  0  0  0  0  0  0  0  0  0
  145.9913   74.9930  220.0526 H   0  0  0  0  0  0  0  0  0  0  0  0
  144.5623   73.9285  218.4492 H   0  0  0  0  0  0  0  0  0  0  0  0
  143.1564   74.7851  216.8998 H   0  0  0  0  0  0  0  0  0  0  0  0
  142.0243   76.8586  216.1377 H   0  0  0  0  0  0  0  0  0  0  0  0
  142.4065   78.5154  220.0616 H   0  0  0  0  0  0  0  0  0  0  0  0
  143.5459   76.4523  220.8407 H   0  0  0  0  0  0  0  0  0  0  0  0
  138.9991   69.8540  222.6437 H   0  0  0  0  0  0  0  0  0  0  0  0
  138.7212   68.3077  224.5494 H   0  0  0  0  0  0  0  0  0  0  0  0
  139.1100   67.7966  226.8522 H   0  0  0  0  0  0  0  0  0  0  0  0
  140.0860   68.4592  229.0407 H   0  0  0  0  0  0  0  0  0  0  0  0
  141.2947   70.5988  229.3021 H   0  0  0  0  0  0  0  0  0  0  0  0
  141.5588   72.1326  227.3788 H   0  0  0  0  0  0  0  0  0  0  0  0
  1  2  2  0
  2  3  1  0
  3  4  1  0
  4  5  1  0
  5  6  2  0
  5  7  1  0
  7  8  1  0
  8  9  1  0
  9 10  1  0
 10 11  1  0
 11 12  1  0
 12 13  1  0
 13 14  2  0
 14 15  1  0
 15 16  2  0
 16 17  1  0
 17 18  1  0
 17 19  1  0
 17 20  1  0
 16 21  1  0
 21 22  2  0
  2 23  1  0
 23 24  2  0
 24 25  1  0
 25 26  2  0
 26 27  1  0
 27 28  2  0
 28 29  1  0
 29 30  2  0
 30 31  1  0
 31 32  2  0
 12  7  1  0
 22 13  1  0
 32 23  1  0
 31 26  1  0
  3 33  1  0
  4 34  1  0
  4 35  1  0
  8 36  1  0
  8 37  1  0
  9 38  1  0
  9 39  1  0
 10 40  1  0
 10 41  1  0
 11 42  1  0
 11 43  1  0
 12 44  1  6
 14 45  1  0
 15 46  1  0
 21 47  1  0
 22 48  1  0
 24 49  1  0
 25 50  1  0
 27 51  1  0
 28 52  1  0
 29 53  1  0
 30 54  1  0
M  END
>  <smiles>  (26) 
O=C(NCC(=O)N1CCCCC1c1ccc(C(F)(F)F)cc1)c1ccc2ccccc2n1

>  <score_type>  (26) 
oracle

>  <origin>  (26) 
autodockgpu

>  <m_score__min__energy>  (26) 
-8.3300000000000001

>  <m_primary>  (26) 
energy

>  <rmsd>  (26) 
3.6265228462179313

>  <m_score__min__rmsd>  (26) 
3.6265228462179313

>  <meeko>  (26) 
{"free_energy": -8.13, "intermolecular_energy": -9.92, "internal_energy": -1.41, "cluster_size": 2, "cluster_id": 3, "rank_in_cluster": 1}

>  <energy>  (26) 
-7.87

>  <cluster_rmsd>  (26) 
1.44

>  <cluster>  (26) 
4

$$$$

     RDKit          3D

 54 57  0  0  0  0  0  0  0  0999 V2000
  139.2270   74.8590  221.3660 O   0  0  0  0  0  0  0  0  0  0  0  0
  140.2920   75.4620  221.6380 C   0  0  0  0  0  0  0  0  0  0  0  0
  141.5060   74.7590  221.4170 N   0  0  0  0  0  0  0  0  0  0  0  0
  141.3840   73.4010  220.8950 C   0  0  0  0  0  0  0  0  0  0  0  0
  141.8270   73.3790  219.4850 C   0  0  0  0  0  0  0  0  0  0  0  0
  140.9390   73.4170  218.5990 O   0  0  0  0  0  0  0  0  0  0  0  0
  143.2180   73.3170  219.2270 N   0  0  0  0  0  0  0  0  0  0  0  0
  143.9100   72.0310  218.9940 C   0  0  0  0  0  0  0  0  0  0  0  0
  145.2320   72.1710  219.7020 C   0  0  0  0  0  0  0  0  0  0  0  0
  145.1780   73.1260  220.8690 C   0  0  0  0  0  0  0  0  0  0  0  0
  144.7560   74.5220  220.5140 C   0  0  0  0  0  0  0  0  0  0  0  0
  144.0860   74.4840  219.1710 C   0  0  2  0  0  0  0  0  0  0  0  0
  143.4000   75.7230  218.7880 C   0  0  0  0  0  0  0  0  0  0  0  0
  143.0740   75.9720  217.4670 C   0  0  0  0  0  0  0  0  0  0  0  0
  142.4150   77.1510  217.1190 C   0  0  0  0  0  0  0  0  0  0  0  0
  142.0720   78.0930  218.0720 C   0  0  0  0  0  0  0  0  0  0  0  0
  141.3650   79.3630  217.7150 C   0  0  0  0  0  0  0  0  0  0  0  0
  142.0310   80.4820  218.1410 F   0  0  0  0  0  0  0  0  0  0  0  0
  140.1070   79.3820  218.2790 F   0  0  0  0  0  0  0  0  0  0  0  0
  141.1980   79.4690  216.3480 F   0  0  0  0  0  0  0  0  0  0  0  0
  142.4070   77.8230  219.3840 C   0  0  0  0  0  0  0  0  0  0  0  0
  143.0660   76.6500  219.7530 C   0  0  0  0  0  0  0  0  0  0  0  0
  140.2940   76.8240  222.1580 C   0  0  0  0  0  0  0  0  0  0  0  0
  139.0760   77.4220  222.4330 C   0  0  0  0  0  0  0  0  0  0  0  0
  139.0000   78.6970  222.9220 C   0  0  0  0  0  0  0  0  0  0  0  0
  140.1870   79.3850  223.1400 C   0  0  0  0  0  0  0  0  0  0  0  0
  140.1160   80.6730  223.6340 C   0  0  0  0  0  0  0  0  0  0  0  0
  141.3050   81.3360  223.8420 C   0  0  0  0  0  0  0  0  0  0  0  0
  142.5300   80.7410  223.5690 C   0  0  0  0  0  0  0  0  0  0  0  0
  142.5870   79.4630  223.0790 C   0  0  0  0  0  0  0  0  0  0  0  0
  141.4100   78.7740  222.8600 C   0  0  0  0  0  0  0  0  0  0  0  0
  141.4460   77.5090  222.3760 N   0  0  0  0  0  0  0  0  0  0  0  0
  142.4240   75.1950  221.6190 H   0  0  0  0  0  0  0  0  0  0  0  0
  142.0129   72.7211  221.4886 H   0  0  0  0  0  0  0  0  0  0  0  0
  140.3354   73.0746  220.9573 H   0  0  0  0  0  0  0  0  0  0  0  0
  143.3305   71.1971  219.4168 H   0  0  0  0  0  0  0  0  0  0  0  0
  144.0339   71.8146  217.9226 H   0  0  0  0  0  0  0  0  0  0  0  0
  145.5375   71.1815  220.0728 H   0  0  0  0  0  0  0  0  0  0  0  0
  145.9519   72.5782  218.9768 H   0  0  0  0  0  0  0  0  0  0  0  0
  144.4640   72.7283  221.6052 H   0  0  0  0  0  0  0  0  0  0  0  0
  146.2037   73.1998  221.2596 H   0  0  0  0  0  0  0  0  0  0  0  0
  144.0529   74.9018  221.2700 H   0  0  0  0  0  0  0  0  0  0  0  0
  145.6320   75.1865  220.4822 H   0  0  0  0  0  0  0  0  0  0  0  0
  144.8284   74.4022  218.3634 H   0  0  0  0  0  0  0  0  0  0  0  0
  143.3350   75.2389  216.6895 H   0  0  0  0  0  0  0  0  0  0  0  0
  142.1627   77.3356  216.0644 H   0  0  0  0  0  0  0  0  0  0  0  0
  142.1462   78.5553  220.1623 H   0  0  0  0  0  0  0  0  0  0  0  0
  143.3178   76.4655  220.8078 H   0  0  0  0  0  0  0  0  0  0  0  0
  138.1482   76.8588  222.2541 H   0  0  0  0  0  0  0  0  0  0  0  0
  138.0274   79.1640  223.1364 H   0  0  0  0  0  0  0  0  0  0  0  0
  139.1490   81.1497  223.8524 H   0  0  0  0  0  0  0  0  0  0  0  0
  141.2840   82.3634  224.2345 H   0  0  0  0  0  0  0  0  0  0  0  0
  143.4606   81.2997  223.7475 H   0  0  0  0  0  0  0  0  0  0  0  0
  143.5572   78.9918  222.8628 H   0  0  0  0  0  0  0  0  0  0  0  0
  1  2  2  0
  2  3  1  0
  3  4  1  0
  4  5  1  0
  5  6  2  0
  5  7  1  0
  7  8  1  0
  8  9  1  0
  9 10  1  0
 10 11  1  0
 11 12  1  0
 12 13  1  0
 13 14  2  0
 14 15  1  0
 15 16  2  0
 16 17  1  0
 17 18  1  0
 17 19  1  0
 17 20  1  0
 16 21  1  0
 21 22  2  0
  2 23  1  0
 23 24  2  0
 24 25  1  0
 25 26  2  0
 26 27  1  0
 27 28  2  0
 28 29  1  0
 29 30  2  0
 30 31  1  0
 31 32  2  0
 12  7  1  0
 22 13  1  0
 32 23  1  0
 31 26  1  0
  3 33  1  0
  4 34  1  0
  4 35  1  0
  8 36  1  0
  8 37  1  0
  9 38  1  0
  9 39  1  0
 10 40  1  0
 10 41  1  0
 11 42  1  0
 11 43  1  0
 12 44  1  6
 14 45  1  0
 15 46  1  0
 21 47  1  0
 22 48  1  0
 24 49  1  0
 25 50  1  0
 27 51  1  0
 28 52  1  0
 29 53  1  0
 30 54  1  0
M  END
>  <smiles>  (27) 
O=C(NCC(=O)N1CCCCC1c1ccc(C(F)(F)F)cc1)c1ccc2ccccc2n1

>  <score_type>  (27) 
oracle

>  <origin>  (27) 
autodockgpu

>  <m_score__min__energy>  (27) 
-8.3300000000000001

>  <m_primary>  (27) 
energy

>  <rmsd>  (27) 
7.522181255386173

>  <m_score__min__rmsd>  (27) 
7.522181255386173

>  <meeko>  (27) 
{"free_energy": -7.1, "intermolecular_energy": -8.89, "internal_energy": -2.68, "cluster_size": 6, "cluster_id": 6, "rank_in_cluster": 4}

>  <energy>  (27) 
-7.84

>  <cluster_rmsd>  (27) 
1.49

>  <cluster>  (27) 
4

$$$$

     RDKit          3D

 54 57  0  0  0  0  0  0  0  0999 V2000
  140.4810   71.4180  221.3760 O   0  0  0  0  0  0  0  0  0  0  0  0
  140.0620   71.9480  222.4320 C   0  0  0  0  0  0  0  0  0  0  0  0
  139.5750   73.2790  222.3360 N   0  0  0  0  0  0  0  0  0  0  0  0
  139.6160   73.8920  221.0120 C   0  0  0  0  0  0  0  0  0  0  0  0
  140.6020   74.9930  221.0150 C   0  0  0  0  0  0  0  0  0  0  0  0
  141.0350   75.3790  222.1280 O   0  0  0  0  0  0  0  0  0  0  0  0
  140.9920   75.5380  219.7670 N   0  0  0  0  0  0  0  0  0  0  0  0
  140.9410   74.7440  218.5220 C   0  0  0  0  0  0  0  0  0  0  0  0
  142.1810   75.1390  217.7610 C   0  0  0  0  0  0  0  0  0  0  0  0
  143.3040   75.5920  218.6600 C   0  0  0  0  0  0  0  0  0  0  0  0
  142.9710   76.7650  219.5350 C   0  0  0  0  0  0  0  0  0  0  0  0
  141.4760   76.8990  219.5920 C   0  0  2  0  0  0  0  0  0  0  0  0
  140.9790   77.8450  220.5980 C   0  0  0  0  0  0  0  0  0  0  0  0
  141.8280   78.3670  221.5570 C   0  0  0  0  0  0  0  0  0  0  0  0
  141.3430   79.2710  222.5030 C   0  0  0  0  0  0  0  0  0  0  0  0
  140.0170   79.6670  222.5070 C   0  0  0  0  0  0  0  0  0  0  0  0
  139.4810   80.6350  223.5140 C   0  0  0  0  0  0  0  0  0  0  0  0
  138.6480   80.0470  224.4300 F   0  0  0  0  0  0  0  0  0  0  0  0
  138.7710   81.6350  222.8830 F   0  0  0  0  0  0  0  0  0  0  0  0
  140.5060   81.2440  224.2110 F   0  0  0  0  0  0  0  0  0  0  0  0
  139.1890   79.1320  221.5400 C   0  0  0  0  0  0  0  0  0  0  0  0
  139.6540   78.2260  220.5860 C   0  0  0  0  0  0  0  0  0  0  0  0
  140.0690   71.2380  223.7060 C   0  0  0  0  0  0  0  0  0  0  0  0
  139.5570   69.9530  223.7420 C   0  0  0  0  0  0  0  0  0  0  0  0
  139.5290   69.2260  224.9000 C   0  0  0  0  0  0  0  0  0  0  0  0
  140.0340   69.8140  226.0520 C   0  0  0  0  0  0  0  0  0  0  0  0
  140.0090   69.0850  227.2240 C   0  0  0  0  0  0  0  0  0  0  0  0
  140.5140   69.6890  228.3550 C   0  0  0  0  0  0  0  0  0  0  0  0
  141.0310   70.9780  228.3260 C   0  0  0  0  0  0  0  0  0  0  0  0
  141.0490   71.6910  227.1560 C   0  0  0  0  0  0  0  0  0  0  0  0
  140.5490   71.1110  226.0070 C   0  0  0  0  0  0  0  0  0  0  0  0
  140.5590   71.8000  224.8410 N   0  0  0  0  0  0  0  0  0  0  0  0
  139.2130   73.7800  223.1680 H   0  0  0  0  0  0  0  0  0  0  0  0
  139.9091   73.1380  220.2667 H   0  0  0  0  0  0  0  0  0  0  0  0
  138.6217   74.2879  220.7577 H   0  0  0  0  0  0  0  0  0  0  0  0
  140.9519   73.6676  218.7484 H   0  0  0  0  0  0  0  0  0  0  0  0
  140.0230   74.9337  217.9464 H   0  0  0  0  0  0  0  0  0  0  0  0
  142.5261   74.2720  217.1786 H   0  0  0  0  0  0  0  0  0  0  0  0
  141.9141   75.9878  217.1142 H   0  0  0  0  0  0  0  0  0  0  0  0
  143.5851   74.7493  219.3087 H   0  0  0  0  0  0  0  0  0  0  0  0
  144.1197   75.9189  217.9984 H   0  0  0  0  0  0  0  0  0  0  0  0
  143.3688   76.5993  220.5471 H   0  0  0  0  0  0  0  0  0  0  0  0
  143.4193   77.6828  219.1267 H   0  0  0  0  0  0  0  0  0  0  0  0
  141.0868   77.3554  218.6699 H   0  0  0  0  0  0  0  0  0  0  0  0
  142.8868   78.0692  221.5740 H   0  0  0  0  0  0  0  0  0  0  0  0
  142.0288   79.6772  223.2611 H   0  0  0  0  0  0  0  0  0  0  0  0
  138.1301   79.4292  221.5211 H   0  0  0  0  0  0  0  0  0  0  0  0
  138.9677   77.8183  219.8291 H   0  0  0  0  0  0  0  0  0  0  0  0
  139.1632   69.5057  222.8174 H   0  0  0  0  0  0  0  0  0  0  0  0
  139.1186   68.2056  224.9182 H   0  0  0  0  0  0  0  0  0  0  0  0
  139.6024   68.0633  227.2539 H   0  0  0  0  0  0  0  0  0  0  0  0
  140.5076   69.1359  229.3058 H   0  0  0  0  0  0  0  0  0  0  0  0
  141.4282   71.4288  229.2474 H   0  0  0  0  0  0  0  0  0  0  0  0
  141.4566   72.7124  227.1324 H   0  0  0  0  0  0  0  0  0  0  0  0
  1  2  2  0
  2  3  1  0
  3  4  1  0
  4  5  1  0
  5  6  2  0
  5  7  1  0
  7  8  1  0
  8  9  1  0
  9 10  1  0
 10 11  1  0
 11 12  1  0
 12 13  1  0
 13 14  2  0
 14 15  1  0
 15 16  2  0
 16 17  1  0
 17 18  1  0
 17 19  1  0
 17 20  1  0
 16 21  1  0
 21 22  2  0
  2 23  1  0
 23 24  2  0
 24 25  1  0
 25 26  2  0
 26 27  1  0
 27 28  2  0
 28 29  1  0
 29 30  2  0
 30 31  1  0
 31 32  2  0
 12  7  1  0
 22 13  1  0
 32 23  1  0
 31 26  1  0
  3 33  1  0
  4 34  1  0
  4 35  1  0
  8 36  1  0
  8 37  1  0
  9 38  1  0
  9 39  1  0
 10 40  1  0
 10 41  1  0
 11 42  1  0
 11 43  1  0
 12 44  1  6
 14 45  1  0
 15 46  1  0
 21 47  1  0
 22 48  1  0
 24 49  1  0
 25 50  1  0
 27 51  1  0
 28 52  1  0
 29 53  1  0
 30 54  1  0
M  END
>  <smiles>  (28) 
O=C(NCC(=O)N1CCCCC1c1ccc(C(F)(F)F)cc1)c1ccc2ccccc2n1

>  <score_type>  (28) 
oracle

>  <origin>  (28) 
autodockgpu

>  <m_score__min__energy>  (28) 
-8.3300000000000001

>  <m_primary>  (28) 
energy

>  <rmsd>  (28) 
1.5708347542472008

>  <m_score__min__rmsd>  (28) 
1.5708347542472008

>  <meeko>  (28) 
{"free_energy": -8.19, "intermolecular_energy": -9.98, "internal_energy": -1.7, "cluster_size": 12, "cluster_id": 1, "rank_in_cluster": 3}

>  <energy>  (28) 
-7.78

>  <cluster_rmsd>  (28) 
0.77

>  <cluster>  (28) 
4

$$$$

     RDKit          3D

 54 57  0  0  0  0  0  0  0  0999 V2000
  140.0500   71.0440  221.3630 O   0  0  0  0  0  0  0  0  0  0  0  0
  139.8820   71.6250  222.4610 C   0  0  0  0  0  0  0  0  0  0  0  0
  139.6810   73.0310  222.4230 N   0  0  0  0  0  0  0  0  0  0  0  0
  139.6940   73.6530  221.1030 C   0  0  0  0  0  0  0  0  0  0  0  0
  140.3070   74.9940  221.2020 C   0  0  0  0  0  0  0  0  0  0  0  0
  140.4020   75.5040  222.3440 O   0  0  0  0  0  0  0  0  0  0  0  0
  140.7460   75.6130  220.0060 N   0  0  0  0  0  0  0  0  0  0  0  0
  140.9440   74.8440  218.7590 C   0  0  0  0  0  0  0  0  0  0  0  0
  142.1880   75.4280  218.1400 C   0  0  0  0  0  0  0  0  0  0  0  0
  143.1310   76.0200  219.1570 C   0  0  0  0  0  0  0  0  0  0  0  0
  142.5390   77.1160  219.9950 C   0  0  0  0  0  0  0  0  0  0  0  0
  141.0440   77.0330  219.8900 C   0  0  2  0  0  0  0  0  0  0  0  0
  140.3110   77.8780  220.8380 C   0  0  0  0  0  0  0  0  0  0  0  0
  140.9650   78.4920  221.8910 C   0  0  0  0  0  0  0  0  0  0  0  0
  140.2560   79.2980  222.7820 C   0  0  0  0  0  0  0  0  0  0  0  0
  138.8950   79.5070  222.6380 C   0  0  0  0  0  0  0  0  0  0  0  0
  138.1200   80.3690  223.5840 C   0  0  0  0  0  0  0  0  0  0  0  0
  138.4450   80.1470  224.8970 F   0  0  0  0  0  0  0  0  0  0  0  0
  136.7680   80.1360  223.4410 F   0  0  0  0  0  0  0  0  0  0  0  0
  138.3320   81.7080  223.3200 F   0  0  0  0  0  0  0  0  0  0  0  0
  138.2630   78.8840  221.5800 C   0  0  0  0  0  0  0  0  0  0  0  0
  138.9550   78.0730  220.6790 C   0  0  0  0  0  0  0  0  0  0  0  0
  139.8900   70.8990  223.7260 C   0  0  0  0  0  0  0  0  0  0  0  0
  139.3440   69.6270  223.7540 C   0  0  0  0  0  0  0  0  0  0  0  0
  139.3150   68.8860  224.9030 C   0  0  0  0  0  0  0  0  0  0  0  0
  139.8530   69.4460  226.0550 C   0  0  0  0  0  0  0  0  0  0  0  0
  139.8270   68.7030  227.2180 C   0  0  0  0  0  0  0  0  0  0  0  0
  140.3660   69.2780  228.3480 C   0  0  0  0  0  0  0  0  0  0  0  0
  140.9160   70.5540  228.3260 C   0  0  0  0  0  0  0  0  0  0  0  0
  140.9350   71.2820  227.1650 C   0  0  0  0  0  0  0  0  0  0  0  0
  140.4020   70.7290  226.0170 C   0  0  0  0  0  0  0  0  0  0  0  0
  140.4120   71.4330  224.8590 N   0  0  0  0  0  0  0  0  0  0  0  0
  139.5360   73.5760  223.2930 H   0  0  0  0  0  0  0  0  0  0  0  0
  140.2794   73.0315  220.4095 H   0  0  0  0  0  0  0  0  0  0  0  0
  138.6638   73.7451  220.7284 H   0  0  0  0  0  0  0  0  0  0  0  0
  141.0862   73.7760  218.9808 H   0  0  0  0  0  0  0  0  0  0  0  0
  140.0753   74.9110  218.0875 H   0  0  0  0  0  0  0  0  0  0  0  0
  142.7155   74.6312  217.5952 H   0  0  0  0  0  0  0  0  0  0  0  0
  141.8714   76.2426  217.4720 H   0  0  0  0  0  0  0  0  0  0  0  0
  143.4605   75.2141  219.8292 H   0  0  0  0  0  0  0  0  0  0  0  0
  143.9570   76.4733  218.5893 H   0  0  0  0  0  0  0  0  0  0  0  0
  142.8460   76.9897  221.0437 H   0  0  0  0  0  0  0  0  0  0  0  0
  142.8904   78.0963  219.6408 H   0  0  0  0  0  0  0  0  0  0  0  0
  140.6937   77.4466  218.9328 H   0  0  0  0  0  0  0  0  0  0  0  0
  142.0466   78.3444  222.0261 H   0  0  0  0  0  0  0  0  0  0  0  0
  140.7893   79.7773  223.6162 H   0  0  0  0  0  0  0  0  0  0  0  0
  137.1815   79.0313  221.4431 H   0  0  0  0  0  0  0  0  0  0  0  0
  138.4214   77.5917  219.8462 H   0  0  0  0  0  0  0  0  0  0  0  0
  138.9237   69.2025  222.8304 H   0  0  0  0  0  0  0  0  0  0  0  0
  138.8786   67.8763  224.9148 H   0  0  0  0  0  0  0  0  0  0  0  0
  139.3933   67.6924  227.2416 H   0  0  0  0  0  0  0  0  0  0  0  0
  140.3609   68.7127  229.2916 H   0  0  0  0  0  0  0  0  0  0  0  0
  141.3389   70.9826  229.2466 H   0  0  0  0  0  0  0  0  0  0  0  0
  141.3687   72.2927  227.1476 H   0  0  0  0  0  0  0  0  0  0  0  0
  1  2  2  0
  2  3  1  0
  3  4  1  0
  4  5  1  0
  5  6  2  0
  5  7  1  0
  7  8  1  0
  8  9  1  0
  9 10  1  0
 10 11  1  0
 11 12  1  0
 12 13  1  0
 13 14  2  0
 14 15  1  0
 15 16  2  0
 16 17  1  0
 17 18  1  0
 17 19  1  0
 17 20  1  0
 16 21  1  0
 21 22  2  0
  2 23  1  0
 23 24  2  0
 24 25  1  0
 25 26  2  0
 26 27  1  0
 27 28  2  0
 28 29  1  0
 29 30  2  0
 30 31  1  0
 31 32  2  0
 12  7  1  0
 22 13  1  0
 32 23  1  0
 31 26  1  0
  3 33  1  0
  4 34  1  0
  4 35  1  0
  8 36  1  0
  8 37  1  0
  9 38  1  0
  9 39  1  0
 10 40  1  0
 10 41  1  0
 11 42  1  0
 11 43  1  0
 12 44  1  6
 14 45  1  0
 15 46  1  0
 21 47  1  0
 22 48  1  0
 24 49  1  0
 25 50  1  0
 27 51  1  0
 28 52  1  0
 29 53  1  0
 30 54  1  0
M  END
>  <smiles>  (29) 
O=C(NCC(=O)N1CCCCC1c1ccc(C(F)(F)F)cc1)c1ccc2ccccc2n1

>  <score_type>  (29) 
oracle

>  <origin>  (29) 
autodockgpu

>  <m_score__min__energy>  (29) 
-8.3300000000000001

>  <m_primary>  (29) 
energy

>  <rmsd>  (29) 
1.517589107634897

>  <m_score__min__rmsd>  (29) 
1.517589107634897

>  <meeko>  (29) 
{"free_energy": -7.83, "intermolecular_energy": -9.62, "internal_energy": -1.95, "cluster_size": 12, "cluster_id": 1, "rank_in_cluster": 9}

>  <energy>  (29) 
-7.77

>  <cluster_rmsd>  (29) 
0.55

>  <cluster>  (29) 
4

$$$$

     RDKit          3D

 54 57  0  0  0  0  0  0  0  0999 V2000
  139.1880   75.0310  221.5920 O   0  0  0  0  0  0  0  0  0  0  0  0
  140.2670   75.6350  221.7970 C   0  0  0  0  0  0  0  0  0  0  0  0
  141.4670   74.9170  221.5450 N   0  0  0  0  0  0  0  0  0  0  0  0
  141.3160   73.5450  221.0720 C   0  0  0  0  0  0  0  0  0  0  0  0
  141.6810   73.4790  219.6420 C   0  0  0  0  0  0  0  0  0  0  0  0
  140.7530   73.5820  218.8030 O   0  0  0  0  0  0  0  0  0  0  0  0
  143.0470   73.3030  219.3130 N   0  0  0  0  0  0  0  0  0  0  0  0
  143.6280   71.9620  219.0930 C   0  0  0  0  0  0  0  0  0  0  0  0
  144.9950   72.0260  219.7240 C   0  0  0  0  0  0  0  0  0  0  0  0
  145.0760   73.0210  220.8540 C   0  0  0  0  0  0  0  0  0  0  0  0
  144.7390   74.4320  220.4700 C   0  0  0  0  0  0  0  0  0  0  0  0
  143.9940   74.3990  219.1670 C   0  0  2  0  0  0  0  0  0  0  0  0
  143.3800   75.6720  218.7750 C   0  0  0  0  0  0  0  0  0  0  0  0
  143.0990   75.9430  217.4470 C   0  0  0  0  0  0  0  0  0  0  0  0
  142.5090   77.1550  217.0890 C   0  0  0  0  0  0  0  0  0  0  0  0
  142.1900   78.1090  218.0390 C   0  0  0  0  0  0  0  0  0  0  0  0
  141.5560   79.4140  217.6720 C   0  0  0  0  0  0  0  0  0  0  0  0
  142.2510   80.4970  218.1460 F   0  0  0  0  0  0  0  0  0  0  0  0
  140.2760   79.4820  218.1800 F   0  0  0  0  0  0  0  0  0  0  0  0
  141.4570   79.5480  216.3010 F   0  0  0  0  0  0  0  0  0  0  0  0
  142.4780   77.8170  219.3580 C   0  0  0  0  0  0  0  0  0  0  0  0
  143.0690   76.6110  219.7360 C   0  0  0  0  0  0  0  0  0  0  0  0
  140.2990   77.0130  222.2730 C   0  0  0  0  0  0  0  0  0  0  0  0
  139.0960   77.6340  222.5640 C   0  0  0  0  0  0  0  0  0  0  0  0
  139.0480   78.9240  223.0130 C   0  0  0  0  0  0  0  0  0  0  0  0
  140.2480   79.6050  223.1750 C   0  0  0  0  0  0  0  0  0  0  0  0
  140.2050   80.9080  223.6300 C   0  0  0  0  0  0  0  0  0  0  0  0
  141.4070   81.5640  223.7830 C   0  0  0  0  0  0  0  0  0  0  0  0
  142.6170   80.9460  223.4950 C   0  0  0  0  0  0  0  0  0  0  0  0
  142.6460   79.6520  223.0440 C   0  0  0  0  0  0  0  0  0  0  0  0
  141.4560   78.9710  222.8810 C   0  0  0  0  0  0  0  0  0  0  0  0
  141.4640   77.6910  222.4370 N   0  0  0  0  0  0  0  0  0  0  0  0
  142.3950   75.3540  221.6930 H   0  0  0  0  0  0  0  0  0  0  0  0
  141.9759   72.8820  221.6507 H   0  0  0  0  0  0  0  0  0  0  0  0
  140.2721   73.2233  221.2013 H   0  0  0  0  0  0  0  0  0  0  0  0
  143.0134   71.1892  219.5777 H   0  0  0  0  0  0  0  0  0  0  0  0
  143.6754   71.7002  218.0257 H   0  0  0  0  0  0  0  0  0  0  0  0
  145.2474   71.0295  220.1156 H   0  0  0  0  0  0  0  0  0  0  0  0
  145.7014   72.3526  218.9466 H   0  0  0  0  0  0  0  0  0  0  0  0
  144.3766   72.7035  221.6414 H   0  0  0  0  0  0  0  0  0  0  0  0
  146.1246   73.0305  221.1861 H   0  0  0  0  0  0  0  0  0  0  0  0
  144.1092   74.8891  221.2474 H   0  0  0  0  0  0  0  0  0  0  0  0
  145.6582   75.0273  220.3668 H   0  0  0  0  0  0  0  0  0  0  0  0
  144.6823   74.2343  218.3249 H   0  0  0  0  0  0  0  0  0  0  0  0
  143.3416   75.2008  216.6722 H   0  0  0  0  0  0  0  0  0  0  0  0
  142.2928   77.3566  216.0295 H   0  0  0  0  0  0  0  0  0  0  0  0
  142.2340   78.5577  220.1338 H   0  0  0  0  0  0  0  0  0  0  0  0
  143.2859   76.4101  220.7955 H   0  0  0  0  0  0  0  0  0  0  0  0
  138.1573   77.0762  222.4307 H   0  0  0  0  0  0  0  0  0  0  0  0
  138.0870   79.4090  223.2395 H   0  0  0  0  0  0  0  0  0  0  0  0
  139.2498   81.4023  223.8610 H   0  0  0  0  0  0  0  0  0  0  0  0
  141.4083   82.6036  224.1424 H   0  0  0  0  0  0  0  0  0  0  0  0
  143.5584   81.4988  223.6297 H   0  0  0  0  0  0  0  0  0  0  0  0
  143.6042   79.1627  222.8151 H   0  0  0  0  0  0  0  0  0  0  0  0
  1  2  2  0
  2  3  1  0
  3  4  1  0
  4  5  1  0
  5  6  2  0
  5  7  1  0
  7  8  1  0
  8  9  1  0
  9 10  1  0
 10 11  1  0
 11 12  1  0
 12 13  1  0
 13 14  2  0
 14 15  1  0
 15 16  2  0
 16 17  1  0
 17 18  1  0
 17 19  1  0
 17 20  1  0
 16 21  1  0
 21 22  2  0
  2 23  1  0
 23 24  2  0
 24 25  1  0
 25 26  2  0
 26 27  1  0
 27 28  2  0
 28 29  1  0
 29 30  2  0
 30 31  1  0
 31 32  2  0
 12  7  1  0
 22 13  1  0
 32 23  1  0
 31 26  1  0
  3 33  1  0
  4 34  1  0
  4 35  1  0
  8 36  1  0
  8 37  1  0
  9 38  1  0
  9 39  1  0
 10 40  1  0
 10 41  1  0
 11 42  1  0
 11 43  1  0
 12 44  1  6
 14 45  1  0
 15 46  1  0
 21 47  1  0
 22 48  1  0
 24 49  1  0
 25 50  1  0
 27 51  1  0
 28 52  1  0
 29 53  1  0
 30 54  1  0
M  END
>  <smiles>  (30) 
O=C(NCC(=O)N1CCCCC1c1ccc(C(F)(F)F)cc1)c1ccc2ccccc2n1

>  <score_type>  (30) 
oracle

>  <origin>  (30) 
autodockgpu

>  <m_score__min__energy>  (30) 
-8.3300000000000001

>  <m_primary>  (30) 
energy

>  <rmsd>  (30) 
7.617892259929758

>  <m_score__min__rmsd>  (30) 
7.617892259929758

>  <meeko>  (30) 
{"free_energy": -7.23, "intermolecular_energy": -9.02, "internal_energy": -2.59, "cluster_size": 6, "cluster_id": 6, "rank_in_cluster": 2}

>  <energy>  (30) 
-7.77

>  <cluster_rmsd>  (30) 
0.56

>  <cluster>  (30) 
4

$$$$

     RDKit          3D

 54 57  0  0  0  0  0  0  0  0999 V2000
  139.8480   70.9050  221.2470 O   0  0  0  0  0  0  0  0  0  0  0  0
  139.4840   71.5610  222.2510 C   0  0  0  0  0  0  0  0  0  0  0  0
  138.7890   72.7770  222.0110 N   0  0  0  0  0  0  0  0  0  0  0  0
  138.5740   73.1370  220.6140 C   0  0  0  0  0  0  0  0  0  0  0  0
  139.5290   74.1970  220.2300 C   0  0  0  0  0  0  0  0  0  0  0  0
  139.8700   74.2600  219.0240 O   0  0  0  0  0  0  0  0  0  0  0  0
  139.9950   75.0690  221.2430 N   0  0  0  0  0  0  0  0  0  0  0  0
  139.0800   75.6650  222.2390 C   0  0  0  0  0  0  0  0  0  0  0  0
  139.5760   77.0760  222.4230 C   0  0  0  0  0  0  0  0  0  0  0  0
  140.2800   77.6170  221.2030 C   0  0  0  0  0  0  0  0  0  0  0  0
  141.4740   76.8190  220.7660 C   0  0  0  0  0  0  0  0  0  0  0  0
  141.3890   75.4600  221.3990 C   0  0  2  0  0  0  0  0  0  0  0  0
  142.3480   74.4780  220.8830 C   0  0  0  0  0  0  0  0  0  0  0  0
  143.4010   74.8730  220.0770 C   0  0  0  0  0  0  0  0  0  0  0  0
  144.3090   73.9280  219.5990 C   0  0  0  0  0  0  0  0  0  0  0  0
  144.1860   72.5860  219.9140 C   0  0  0  0  0  0  0  0  0  0  0  0
  145.1510   71.5600  219.4090 C   0  0  0  0  0  0  0  0  0  0  0  0
  146.4120   71.7150  219.9240 F   0  0  0  0  0  0  0  0  0  0  0  0
  145.2470   71.6310  218.0360 F   0  0  0  0  0  0  0  0  0  0  0  0
  144.7250   70.2840  219.7210 F   0  0  0  0  0  0  0  0  0  0  0  0
  143.1270   72.2150  220.7200 C   0  0  0  0  0  0  0  0  0  0  0  0
  142.2070   73.1450  221.2070 C   0  0  0  0  0  0  0  0  0  0  0  0
  139.7550   71.1030  223.6090 C   0  0  0  0  0  0  0  0  0  0  0  0
  139.3770   69.8170  223.9550 C   0  0  0  0  0  0  0  0  0  0  0  0
  139.5980   69.3200  225.2090 C   0  0  0  0  0  0  0  0  0  0  0  0
  140.2190   70.1440  226.1390 C   0  0  0  0  0  0  0  0  0  0  0  0
  140.4450   69.6460  227.4070 C   0  0  0  0  0  0  0  0  0  0  0  0
  141.0620   70.4810  228.3120 C   0  0  0  0  0  0  0  0  0  0  0  0
  141.4460   71.7720  227.9710 C   0  0  0  0  0  0  0  0  0  0  0  0
  141.2150   72.2540  226.7090 C   0  0  0  0  0  0  0  0  0  0  0  0
  140.5980   71.4390  225.7810 C   0  0  0  0  0  0  0  0  0  0  0  0
  140.3610   71.8970  224.5280 N   0  0  0  0  0  0  0  0  0  0  0  0
  138.4590   73.3700  222.7940 H   0  0  0  0  0  0  0  0  0  0  0  0
  138.7312   72.2531  219.9784 H   0  0  0  0  0  0  0  0  0  0  0  0
  137.5450   73.5028  220.4820 H   0  0  0  0  0  0  0  0  0  0  0  0
  138.0458   75.6638  221.8644 H   0  0  0  0  0  0  0  0  0  0  0  0
  139.0715   75.1018  223.1838 H   0  0  0  0  0  0  0  0  0  0  0  0
  138.7156   77.7236  222.6473 H   0  0  0  0  0  0  0  0  0  0  0  0
  140.3060   77.0636  223.2458 H   0  0  0  0  0  0  0  0  0  0  0  0
  139.5592   77.6390  220.3724 H   0  0  0  0  0  0  0  0  0  0  0  0
  140.6543   78.6148  221.4756 H   0  0  0  0  0  0  0  0  0  0  0  0
  141.4746   76.7198  219.6705 H   0  0  0  0  0  0  0  0  0  0  0  0
  142.4013   77.3239  221.0745 H   0  0  0  0  0  0  0  0  0  0  0  0
  141.6856   75.4998  222.4575 H   0  0  0  0  0  0  0  0  0  0  0  0
  143.5223   75.9339  219.8127 H   0  0  0  0  0  0  0  0  0  0  0  0
  145.1405   74.2565  218.9581 H   0  0  0  0  0  0  0  0  0  0  0  0
  143.0051   71.1546  220.9860 H   0  0  0  0  0  0  0  0  0  0  0  0
  141.3740   72.8164  221.8458 H   0  0  0  0  0  0  0  0  0  0  0  0
  138.8874   69.1803  223.2034 H   0  0  0  0  0  0  0  0  0  0  0  0
  139.2929   68.2969  225.4741 H   0  0  0  0  0  0  0  0  0  0  0  0
  140.1446   68.6244  227.6829 H   0  0  0  0  0  0  0  0  0  0  0  0
  141.2558   70.1162  229.3315 H   0  0  0  0  0  0  0  0  0  0  0  0
  141.9385   72.4112  228.7186 H   0  0  0  0  0  0  0  0  0  0  0  0
  141.5172   73.2767  226.4391 H   0  0  0  0  0  0  0  0  0  0  0  0
  1  2  2  0
  2  3  1  0
  3  4  1  0
  4  5  1  0
  5  6  2  0
  5  7  1  0
  7  8  1  0
  8  9  1  0
  9 10  1  0
 10 11  1  0
 11 12  1  0
 12 13  1  0
 13 14  2  0
 14 15  1  0
 15 16  2  0
 16 17  1  0
 17 18  1  0
 17 19  1  0
 17 20  1  0
 16 21  1  0
 21 22  2  0
  2 23  1  0
 23 24  2  0
 24 25  1  0
 25 26  2  0
 26 27  1  0
 27 28  2  0
 28 29  1  0
 29 30  2  0
 30 31  1  0
 31 32  2  0
 12  7  1  0
 22 13  1  0
 32 23  1  0
 31 26  1  0
  3 33  1  0
  4 34  1  0
  4 35  1  0
  8 36  1  0
  8 37  1  0
  9 38  1  0
  9 39  1  0
 10 40  1  0
 10 41  1  0
 11 42  1  0
 11 43  1  0
 12 44  1  1
 14 45  1  0
 15 46  1  0
 21 47  1  0
 22 48  1  0
 24 49  1  0
 25 50  1  0
 27 51  1  0
 28 52  1  0
 29 53  1  0
 30 54  1  0
M  END
>  <smiles>  (31) 
O=C(NCC(=O)N1CCCCC1c1ccc(C(F)(F)F)cc1)c1ccc2ccccc2n1

>  <score_type>  (31) 
oracle

>  <origin>  (31) 
autodockgpu

>  <m_score__min__energy>  (31) 
-8.3300000000000001

>  <m_primary>  (31) 
energy

>  <rmsd>  (31) 
2.481775104232588

>  <m_score__min__rmsd>  (31) 
2.481775104232588

>  <meeko>  (31) 
{"free_energy": -7.87, "intermolecular_energy": -9.66, "internal_energy": -1.99, "cluster_size": 11, "cluster_id": 4, "rank_in_cluster": 4}

>  <energy>  (31) 
-7.77

>  <cluster_rmsd>  (31) 
0.54

>  <cluster>  (31) 
4

$$$$

     RDKit          3D

 54 57  0  0  0  0  0  0  0  0999 V2000
  140.8390   71.7550  221.5060 O   0  0  0  0  0  0  0  0  0  0  0  0
  140.1220   72.1000  222.4750 C   0  0  0  0  0  0  0  0  0  0  0  0
  139.3220   73.2620  222.3050 N   0  0  0  0  0  0  0  0  0  0  0  0
  139.4210   73.9350  221.0140 C   0  0  0  0  0  0  0  0  0  0  0  0
  140.5120   74.9310  221.0660 C   0  0  0  0  0  0  0  0  0  0  0  0
  140.9490   75.2520  222.1980 O   0  0  0  0  0  0  0  0  0  0  0  0
  140.9900   75.4570  219.8410 N   0  0  0  0  0  0  0  0  0  0  0  0
  140.9590   74.6690  218.5910 C   0  0  0  0  0  0  0  0  0  0  0  0
  142.2520   75.0000  217.8930 C   0  0  0  0  0  0  0  0  0  0  0  0
  143.3530   75.3920  218.8470 C   0  0  0  0  0  0  0  0  0  0  0  0
  143.0390   76.5800  219.7100 C   0  0  0  0  0  0  0  0  0  0  0  0
  141.5530   76.7910  219.6950 C   0  0  2  0  0  0  0  0  0  0  0  0
  141.0580   77.7600  220.6790 C   0  0  0  0  0  0  0  0  0  0  0  0
  141.9350   78.4470  221.4990 C   0  0  0  0  0  0  0  0  0  0  0  0
  141.4500   79.3710  222.4250 C   0  0  0  0  0  0  0  0  0  0  0  0
  140.0960   79.6240  222.5490 C   0  0  0  0  0  0  0  0  0  0  0  0
  139.5590   80.6120  223.5370 C   0  0  0  0  0  0  0  0  0  0  0  0
  138.7980   81.5910  222.9530 F   0  0  0  0  0  0  0  0  0  0  0  0
  140.5970   81.2280  224.2040 F   0  0  0  0  0  0  0  0  0  0  0  0
  138.7790   79.9850  224.4890 F   0  0  0  0  0  0  0  0  0  0  0  0
  139.2390   78.9270  221.7200 C   0  0  0  0  0  0  0  0  0  0  0  0
  139.7040   77.9980  220.7870 C   0  0  0  0  0  0  0  0  0  0  0  0
  140.1030   71.3480  223.7240 C   0  0  0  0  0  0  0  0  0  0  0  0
  139.5640   70.0730  223.7130 C   0  0  0  0  0  0  0  0  0  0  0  0
  139.5110   69.3090  224.8460 C   0  0  0  0  0  0  0  0  0  0  0  0
  140.0170   69.8480  226.0210 C   0  0  0  0  0  0  0  0  0  0  0  0
  139.9670   69.0810  227.1680 C   0  0  0  0  0  0  0  0  0  0  0  0
  140.4750   69.6360  228.3230 C   0  0  0  0  0  0  0  0  0  0  0  0
  141.0180   70.9140  228.3400 C   0  0  0  0  0  0  0  0  0  0  0  0
  141.0620   71.6650  227.1950 C   0  0  0  0  0  0  0  0  0  0  0  0
  140.5600   71.1340  226.0240 C   0  0  0  0  0  0  0  0  0  0  0  0
  140.5940   71.8620  224.8810 N   0  0  0  0  0  0  0  0  0  0  0  0
  138.7050   73.6050  223.0640 H   0  0  0  0  0  0  0  0  0  0  0  0
  139.6359   73.1949  220.2291 H   0  0  0  0  0  0  0  0  0  0  0  0
  138.4706   74.4403  220.7875 H   0  0  0  0  0  0  0  0  0  0  0  0
  140.9032   73.5931  218.8129 H   0  0  0  0  0  0  0  0  0  0  0  0
  140.0813   74.9075  217.9724 H   0  0  0  0  0  0  0  0  0  0  0  0
  142.5791   74.1174  217.3238 H   0  0  0  0  0  0  0  0  0  0  0  0
  142.0610   75.8630  217.2383 H   0  0  0  0  0  0  0  0  0  0  0  0
  143.5582   74.5347  219.5049 H   0  0  0  0  0  0  0  0  0  0  0  0
  144.2160   75.6765  218.2270 H   0  0  0  0  0  0  0  0  0  0  0  0
  143.3781   76.3924  220.7395 H   0  0  0  0  0  0  0  0  0  0  0  0
  143.5536   77.4739  219.3277 H   0  0  0  0  0  0  0  0  0  0  0  0
  141.2337   77.2677  218.7565 H   0  0  0  0  0  0  0  0  0  0  0  0
  143.0169   78.2644  221.4208 H   0  0  0  0  0  0  0  0  0  0  0  0
  142.1596   79.9097  223.0702 H   0  0  0  0  0  0  0  0  0  0  0  0
  138.1570   79.1093  221.7971 H   0  0  0  0  0  0  0  0  0  0  0  0
  138.9944   77.4592  220.1419 H   0  0  0  0  0  0  0  0  0  0  0  0
  139.1691   69.6649  222.7709 H   0  0  0  0  0  0  0  0  0  0  0  0
  139.0801   68.2971  224.8268 H   0  0  0  0  0  0  0  0  0  0  0  0
  139.5389   68.0677  227.1604 H   0  0  0  0  0  0  0  0  0  0  0  0
  140.4496   69.0518  229.2547 H   0  0  0  0  0  0  0  0  0  0  0  0
  141.4155   71.3262  229.2792 H   0  0  0  0  0  0  0  0  0  0  0  0
  141.4916   72.6775  227.2087 H   0  0  0  0  0  0  0  0  0  0  0  0
  1  2  2  0
  2  3  1  0
  3  4  1  0
  4  5  1  0
  5  6  2  0
  5  7  1  0
  7  8  1  0
  8  9  1  0
  9 10  1  0
 10 11  1  0
 11 12  1  0
 12 13  1  0
 13 14  2  0
 14 15  1  0
 15 16  2  0
 16 17  1  0
 17 18  1  0
 17 19  1  0
 17 20  1  0
 16 21  1  0
 21 22  2  0
  2 23  1  0
 23 24  2  0
 24 25  1  0
 25 26  2  0
 26 27  1  0
 27 28  2  0
 28 29  1  0
 29 30  2  0
 30 31  1  0
 31 32  2  0
 12  7  1  0
 22 13  1  0
 32 23  1  0
 31 26  1  0
  3 33  1  0
  4 34  1  0
  4 35  1  0
  8 36  1  0
  8 37  1  0
  9 38  1  0
  9 39  1  0
 10 40  1  0
 10 41  1  0
 11 42  1  0
 11 43  1  0
 12 44  1  6
 14 45  1  0
 15 46  1  0
 21 47  1  0
 22 48  1  0
 24 49  1  0
 25 50  1  0
 27 51  1  0
 28 52  1  0
 29 53  1  0
 30 54  1  0
M  END
>  <smiles>  (32) 
O=C(NCC(=O)N1CCCCC1c1ccc(C(F)(F)F)cc1)c1ccc2ccccc2n1

>  <score_type>  (32) 
oracle

>  <origin>  (32) 
autodockgpu

>  <m_score__min__energy>  (32) 
-8.3300000000000001

>  <m_primary>  (32) 
energy

>  <rmsd>  (32) 
1.6127633375316281

>  <m_score__min__rmsd>  (32) 
1.6127633375316281

>  <meeko>  (32) 
{"free_energy": -8.33, "intermolecular_energy": -10.12, "internal_energy": -1.6, "cluster_size": 12, "cluster_id": 1, "rank_in_cluster": 1}

>  <energy>  (32) 
-7.75

>  <cluster_rmsd>  (32) 
0.58

>  <cluster>  (32) 
4

$$$$

     RDKit          3D

 54 57  0  0  0  0  0  0  0  0999 V2000
  139.2050   70.8220  221.5200 O   0  0  0  0  0  0  0  0  0  0  0  0
  139.4580   71.4170  222.5940 C   0  0  0  0  0  0  0  0  0  0  0  0
  139.5480   72.8340  222.5420 N   0  0  0  0  0  0  0  0  0  0  0  0
  139.3370   73.4500  221.2350 C   0  0  0  0  0  0  0  0  0  0  0  0
  139.9060   74.8130  221.2410 C   0  0  0  0  0  0  0  0  0  0  0  0
  140.3430   75.2530  222.3320 O   0  0  0  0  0  0  0  0  0  0  0  0
  139.9220   75.5310  220.0200 N   0  0  0  0  0  0  0  0  0  0  0  0
  138.9240   76.5790  219.7220 C   0  0  0  0  0  0  0  0  0  0  0  0
  138.6000   76.3990  218.2610 C   0  0  0  0  0  0  0  0  0  0  0  0
  138.7920   74.9810  217.7860 C   0  0  0  0  0  0  0  0  0  0  0  0
  140.1820   74.4440  217.9650 C   0  0  0  0  0  0  0  0  0  0  0  0
  140.8960   75.3110  218.9610 C   0  0  2  0  0  0  0  0  0  0  0  0
  142.1810   74.7820  219.4310 C   0  0  0  0  0  0  0  0  0  0  0  0
  142.3760   73.4190  219.5730 C   0  0  0  0  0  0  0  0  0  0  0  0
  143.6060   72.9300  220.0130 C   0  0  0  0  0  0  0  0  0  0  0  0
  144.6530   73.7820  220.3170 C   0  0  0  0  0  0  0  0  0  0  0  0
  145.9780   73.2740  220.7910 C   0  0  0  0  0  0  0  0  0  0  0  0
  147.0120   74.1250  220.4980 F   0  0  0  0  0  0  0  0  0  0  0  0
  146.2580   72.0570  220.2060 F   0  0  0  0  0  0  0  0  0  0  0  0
  145.9730   73.0760  222.1580 F   0  0  0  0  0  0  0  0  0  0  0  0
  144.4360   75.1380  220.1670 C   0  0  0  0  0  0  0  0  0  0  0  0
  143.2130   75.6470  219.7280 C   0  0  0  0  0  0  0  0  0  0  0  0
  139.6520   70.6960  223.8470 C   0  0  0  0  0  0  0  0  0  0  0  0
  139.2590   69.3700  223.9070 C   0  0  0  0  0  0  0  0  0  0  0  0
  139.4080   68.6310  225.0480 C   0  0  0  0  0  0  0  0  0  0  0  0
  139.9720   69.2480  226.1570 C   0  0  0  0  0  0  0  0  0  0  0  0
  140.1260   68.5060  227.3110 C   0  0  0  0  0  0  0  0  0  0  0  0
  140.6870   69.1390  228.4000 C   0  0  0  0  0  0  0  0  0  0  0  0
  141.0840   70.4690  228.3450 C   0  0  0  0  0  0  0  0  0  0  0  0
  140.9260   71.1950  227.1940 C   0  0  0  0  0  0  0  0  0  0  0  0
  140.3660   70.5850  226.0880 C   0  0  0  0  0  0  0  0  0  0  0  0
  140.2010   71.2860  224.9400 N   0  0  0  0  0  0  0  0  0  0  0  0
  139.7540   73.3910  223.3910 H   0  0  0  0  0  0  0  0  0  0  0  0
  139.8339   72.8476  220.4602 H   0  0  0  0  0  0  0  0  0  0  0  0
  138.2592   73.5012  221.0211 H   0  0  0  0  0  0  0  0  0  0  0  0
  138.0231   76.4424  220.3382 H   0  0  0  0  0  0  0  0  0  0  0  0
  139.3035   77.5878  219.9416 H   0  0  0  0  0  0  0  0  0  0  0  0
  137.5505   76.6847  218.0968 H   0  0  0  0  0  0  0  0  0  0  0  0
  139.2925   77.0344  217.6894 H   0  0  0  0  0  0  0  0  0  0  0  0
  138.1000   74.3350  218.3462 H   0  0  0  0  0  0  0  0  0  0  0  0
  138.5973   74.9862  216.7034 H   0  0  0  0  0  0  0  0  0  0  0  0
  140.1365   73.4098  218.3369 H   0  0  0  0  0  0  0  0  0  0  0  0
  140.7177   74.4493  217.0042 H   0  0  0  0  0  0  0  0  0  0  0  0
  141.2187   76.2559  218.4994 H   0  0  0  0  0  0  0  0  0  0  0  0
  141.5595   72.7202  219.3384 H   0  0  0  0  0  0  0  0  0  0  0  0
  143.7466   71.8443  220.1206 H   0  0  0  0  0  0  0  0  0  0  0  0
  145.2519   75.8378  220.4007 H   0  0  0  0  0  0  0  0  0  0  0  0
  143.0730   76.7326  219.6194 H   0  0  0  0  0  0  0  0  0  0  0  0
  138.8166   68.8999  223.0163 H   0  0  0  0  0  0  0  0  0  0  0  0
  139.0904   67.5785  225.0863 H   0  0  0  0  0  0  0  0  0  0  0  0
  139.8138   67.4524  227.3598 H   0  0  0  0  0  0  0  0  0  0  0  0
  140.8235   68.5768  229.3356 H   0  0  0  0  0  0  0  0  0  0  0  0
  141.5287   70.9430  229.2325 H   0  0  0  0  0  0  0  0  0  0  0  0
  141.2404   72.2482  227.1510 H   0  0  0  0  0  0  0  0  0  0  0  0
  1  2  2  0
  2  3  1  0
  3  4  1  0
  4  5  1  0
  5  6  2  0
  5  7  1  0
  7  8  1  0
  8  9  1  0
  9 10  1  0
 10 11  1  0
 11 12  1  0
 12 13  1  0
 13 14  2  0
 14 15  1  0
 15 16  2  0
 16 17  1  0
 17 18  1  0
 17 19  1  0
 17 20  1  0
 16 21  1  0
 21 22  2  0
  2 23  1  0
 23 24  2  0
 24 25  1  0
 25 26  2  0
 26 27  1  0
 27 28  2  0
 28 29  1  0
 29 30  2  0
 30 31  1  0
 31 32  2  0
 12  7  1  0
 22 13  1  0
 32 23  1  0
 31 26  1  0
  3 33  1  0
  4 34  1  0
  4 35  1  0
  8 36  1  0
  8 37  1  0
  9 38  1  0
  9 39  1  0
 10 40  1  0
 10 41  1  0
 11 42  1  0
 11 43  1  0
 12 44  1  6
 14 45  1  0
 15 46  1  0
 21 47  1  0
 22 48  1  0
 24 49  1  0
 25 50  1  0
 27 51  1  0
 28 52  1  0
 29 53  1  0
 30 54  1  0
M  END
>  <smiles>  (33) 
O=C(NCC(=O)N1CCCCC1c1ccc(C(F)(F)F)cc1)c1ccc2ccccc2n1

>  <score_type>  (33) 
oracle

>  <origin>  (33) 
autodockgpu

>  <m_score__min__energy>  (33) 
-8.3300000000000001

>  <m_primary>  (33) 
energy

>  <rmsd>  (33) 
1.7688634017857459

>  <m_score__min__rmsd>  (33) 
1.7688634017857459

>  <meeko>  (33) 
{"free_energy": -7.75, "intermolecular_energy": -9.54, "internal_energy": -2.31, "cluster_size": 11, "cluster_id": 4, "rank_in_cluster": 10}

>  <energy>  (33) 
-7.55

>  <cluster_rmsd>  (33) 
0.64

>  <cluster>  (33) 
4

$$$$

     RDKit          3D

 54 57  0  0  0  0  0  0  0  0999 V2000
  139.8790   71.2720  221.3970 O   0  0  0  0  0  0  0  0  0  0  0  0
  139.8100   71.8180  222.5230 C   0  0  0  0  0  0  0  0  0  0  0  0
  139.6430   73.2280  222.5480 N   0  0  0  0  0  0  0  0  0  0  0  0
  139.5730   73.8960  221.2520 C   0  0  0  0  0  0  0  0  0  0  0  0
  139.9140   75.3240  221.4200 C   0  0  0  0  0  0  0  0  0  0  0  0
  139.7470   75.8290  222.5570 O   0  0  0  0  0  0  0  0  0  0  0  0
  140.4060   76.0260  220.2930 N   0  0  0  0  0  0  0  0  0  0  0  0
  140.6670   75.3470  219.0060 C   0  0  0  0  0  0  0  0  0  0  0  0
  141.9350   75.9760  218.4890 C   0  0  0  0  0  0  0  0  0  0  0  0
  142.8260   76.4970  219.5880 C   0  0  0  0  0  0  0  0  0  0  0  0
  142.1890   77.5300  220.4710 C   0  0  0  0  0  0  0  0  0  0  0  0
  140.7010   77.4510  220.2900 C   0  0  2  0  0  0  0  0  0  0  0  0
  139.9190   78.2260  221.2590 C   0  0  0  0  0  0  0  0  0  0  0  0
  140.5130   78.7400  222.3980 C   0  0  0  0  0  0  0  0  0  0  0  0
  139.7590   79.4820  223.3070 C   0  0  0  0  0  0  0  0  0  0  0  0
  138.4120   79.7220  223.1000 C   0  0  0  0  0  0  0  0  0  0  0  0
  137.5880   80.5150  224.0650 C   0  0  0  0  0  0  0  0  0  0  0  0
  136.3080   80.0420  224.1880 F   0  0  0  0  0  0  0  0  0  0  0  0
  137.5130   81.8300  223.6580 F   0  0  0  0  0  0  0  0  0  0  0  0
  138.1590   80.5110  225.3230 F   0  0  0  0  0  0  0  0  0  0  0  0
  137.8400   79.1990  221.9560 C   0  0  0  0  0  0  0  0  0  0  0  0
  138.5780   78.4550  221.0340 C   0  0  0  0  0  0  0  0  0  0  0  0
  139.8930   71.0480  223.7590 C   0  0  0  0  0  0  0  0  0  0  0  0
  139.4540   69.7350  223.7430 C   0  0  0  0  0  0  0  0  0  0  0  0
  139.5010   68.9510  224.8640 C   0  0  0  0  0  0  0  0  0  0  0  0
  140.0070   69.5100  226.0300 C   0  0  0  0  0  0  0  0  0  0  0  0
  140.0570   68.7240  227.1640 C   0  0  0  0  0  0  0  0  0  0  0  0
  140.5620   69.2990  228.3100 C   0  0  0  0  0  0  0  0  0  0  0  0
  141.0050   70.6150  228.3320 C   0  0  0  0  0  0  0  0  0  0  0  0
  140.9490   71.3860  227.2000 C   0  0  0  0  0  0  0  0  0  0  0  0
  140.4480   70.8350  226.0370 C   0  0  0  0  0  0  0  0  0  0  0  0
  140.3850   71.5800  224.9070 N   0  0  0  0  0  0  0  0  0  0  0  0
  139.5780   73.7460  223.4430 H   0  0  0  0  0  0  0  0  0  0  0  0
  140.2859   73.4271  220.5578 H   0  0  0  0  0  0  0  0  0  0  0  0
  138.5550   73.8055  220.8451 H   0  0  0  0  0  0  0  0  0  0  0  0
  140.8049   74.2665  219.1590 H   0  0  0  0  0  0  0  0  0  0  0  0
  139.8305   75.4588  218.3005 H   0  0  0  0  0  0  0  0  0  0  0  0
  142.4919   75.2208  217.9149 H   0  0  0  0  0  0  0  0  0  0  0  0
  141.6453   76.8350  217.8659 H   0  0  0  0  0  0  0  0  0  0  0  0
  143.1279   75.6467  220.2172 H   0  0  0  0  0  0  0  0  0  0  0  0
  143.6756   76.9904  219.0933 H   0  0  0  0  0  0  0  0  0  0  0  0
  142.4470   77.3315  221.5217 H   0  0  0  0  0  0  0  0  0  0  0  0
  142.5509   78.5335  220.2027 H   0  0  0  0  0  0  0  0  0  0  0  0
  140.3940   77.9296  219.3484 H   0  0  0  0  0  0  0  0  0  0  0  0
  141.5821   78.5631  222.5870 H   0  0  0  0  0  0  0  0  0  0  0  0
  140.2454   79.8850  224.2076 H   0  0  0  0  0  0  0  0  0  0  0  0
  136.7708   79.3743  221.7662 H   0  0  0  0  0  0  0  0  0  0  0  0
  138.0923   78.0534  220.1324 H   0  0  0  0  0  0  0  0  0  0  0  0
  139.0583   69.3121  222.8078 H   0  0  0  0  0  0  0  0  0  0  0  0
  139.1485   67.9092  224.8419 H   0  0  0  0  0  0  0  0  0  0  0  0
  139.7079   67.6809  227.1531 H   0  0  0  0  0  0  0  0  0  0  0  0
  140.6156   68.7001  229.2311 H   0  0  0  0  0  0  0  0  0  0  0  0
  141.4036   71.0416  229.2643 H   0  0  0  0  0  0  0  0  0  0  0  0
  141.2982   72.4289  227.2177 H   0  0  0  0  0  0  0  0  0  0  0  0
  1  2  2  0
  2  3  1  0
  3  4  1  0
  4  5  1  0
  5  6  2  0
  5  7  1  0
  7  8  1  0
  8  9  1  0
  9 10  1  0
 10 11  1  0
 11 12  1  0
 12 13  1  0
 13 14  2  0
 14 15  1  0
 15 16  2  0
 16 17  1  0
 17 18  1  0
 17 19  1  0
 17 20  1  0
 16 21  1  0
 21 22  2  0
  2 23  1  0
 23 24  2  0
 24 25  1  0
 25 26  2  0
 26 27  1  0
 27 28  2  0
 28 29  1  0
 29 30  2  0
 30 31  1  0
 31 32  2  0
 12  7  1  0
 22 13  1  0
 32 23  1  0
 31 26  1  0
  3 33  1  0
  4 34  1  0
  4 35  1  0
  8 36  1  0
  8 37  1  0
  9 38  1  0
  9 39  1  0
 10 40  1  0
 10 41  1  0
 11 42  1  0
 11 43  1  0
 12 44  1  6
 14 45  1  0
 15 46  1  0
 21 47  1  0
 22 48  1  0
 24 49  1  0
 25 50  1  0
 27 51  1  0
 28 52  1  0
 29 53  1  0
 30 54  1  0
M  END
>  <smiles>  (34) 
O=C(NCC(=O)N1CCCCC1c1ccc(C(F)(F)F)cc1)c1ccc2ccccc2n1

>  <score_type>  (34) 
oracle

>  <origin>  (34) 
autodockgpu

>  <m_score__min__energy>  (34) 
-8.3300000000000001

>  <m_primary>  (34) 
energy

>  <rmsd>  (34) 
1.5703616497016821

>  <m_score__min__rmsd>  (34) 
1.5703616497016821

>  <meeko>  (34) 
{"free_energy": -7.76, "intermolecular_energy": -9.55, "internal_energy": -1.97, "cluster_size": 12, "cluster_id": 1, "rank_in_cluster": 11}

>  <energy>  (34) 
-7.44

>  <cluster_rmsd>  (34) 
0.0

>  <cluster>  (34) 
5

$$$$

     RDKit          3D

 54 57  0  0  0  0  0  0  0  0999 V2000
  139.2260   74.7880  221.3590 O   0  0  0  0  0  0  0  0  0  0  0  0
  140.2930   75.3920  221.6220 C   0  0  0  0  0  0  0  0  0  0  0  0
  141.5060   74.6940  221.3820 N   0  0  0  0  0  0  0  0  0  0  0  0
  141.3820   73.3390  220.8530 C   0  0  0  0  0  0  0  0  0  0  0  0
  141.8340   73.3210  219.4460 C   0  0  0  0  0  0  0  0  0  0  0  0
  140.9510   73.3490  218.5550 O   0  0  0  0  0  0  0  0  0  0  0  0
  143.2270   73.2730  219.1970 N   0  0  0  0  0  0  0  0  0  0  0  0
  143.9320   71.9960  218.9610 C   0  0  0  0  0  0  0  0  0  0  0  0
  145.2480   72.1430  219.6790 C   0  0  0  0  0  0  0  0  0  0  0  0
  145.1780   73.0900  220.8500 C   0  0  0  0  0  0  0  0  0  0  0  0
  144.7460   74.4850  220.5020 C   0  0  0  0  0  0  0  0  0  0  0  0
  144.0840   74.4490  219.1540 C   0  0  2  0  0  0  0  0  0  0  0  0
  143.3890   75.6830  218.7740 C   0  0  0  0  0  0  0  0  0  0  0  0
  143.0460   76.6240  219.7290 C   0  0  0  0  0  0  0  0  0  0  0  0
  142.3910   77.7970  219.3520 C   0  0  0  0  0  0  0  0  0  0  0  0
  142.0710   78.0510  218.0300 C   0  0  0  0  0  0  0  0  0  0  0  0
  141.3690   79.3030  217.6090 C   0  0  0  0  0  0  0  0  0  0  0  0
  141.9420   80.4360  218.1270 F   0  0  0  0  0  0  0  0  0  0  0  0
  140.0530   79.2730  218.0200 F   0  0  0  0  0  0  0  0  0  0  0  0
  141.3620   79.4280  216.2340 F   0  0  0  0  0  0  0  0  0  0  0  0
  142.4240   77.0970  217.0950 C   0  0  0  0  0  0  0  0  0  0  0  0
  143.0790   75.9180  217.4510 C   0  0  0  0  0  0  0  0  0  0  0  0
  140.2980   76.7520  222.1500 C   0  0  0  0  0  0  0  0  0  0  0  0
  139.0820   77.3440  222.4440 C   0  0  0  0  0  0  0  0  0  0  0  0
  139.0080   78.6160  222.9420 C   0  0  0  0  0  0  0  0  0  0  0  0
  140.1950   79.3070  223.1480 C   0  0  0  0  0  0  0  0  0  0  0  0
  140.1260   80.5910  223.6500 C   0  0  0  0  0  0  0  0  0  0  0  0
  141.3160   81.2580  223.8460 C   0  0  0  0  0  0  0  0  0  0  0  0
  142.5400   80.6680  223.5540 C   0  0  0  0  0  0  0  0  0  0  0  0
  142.5940   79.3930  223.0550 C   0  0  0  0  0  0  0  0  0  0  0  0
  141.4170   78.7020  222.8490 C   0  0  0  0  0  0  0  0  0  0  0  0
  141.4500   77.4400  222.3560 N   0  0  0  0  0  0  0  0  0  0  0  0
  142.4250   75.1320  221.5760 H   0  0  0  0  0  0  0  0  0  0  0  0
  142.0042   72.6540  221.4477 H   0  0  0  0  0  0  0  0  0  0  0  0
  140.3316   73.0169  220.9069 H   0  0  0  0  0  0  0  0  0  0  0  0
  143.3572   71.1542  219.3744 H   0  0  0  0  0  0  0  0  0  0  0  0
  144.0654   71.7879  217.8891 H   0  0  0  0  0  0  0  0  0  0  0  0
  145.5592   71.1539  220.0463 H   0  0  0  0  0  0  0  0  0  0  0  0
  145.9695   72.5604  218.9612 H   0  0  0  0  0  0  0  0  0  0  0  0
  144.4628   72.6814  221.5791 H   0  0  0  0  0  0  0  0  0  0  0  0
  146.2008   73.1707  221.2466 H   0  0  0  0  0  0  0  0  0  0  0  0
  144.0352   74.8537  221.2562 H   0  0  0  0  0  0  0  0  0  0  0  0
  145.6160   75.1578  220.4801 H   0  0  0  0  0  0  0  0  0  0  0  0
  144.8323   74.3796  218.3507 H   0  0  0  0  0  0  0  0  0  0  0  0
  143.2901   76.4470  220.7869 H   0  0  0  0  0  0  0  0  0  0  0  0
  142.1234   78.5354  220.1221 H   0  0  0  0  0  0  0  0  0  0  0  0
  142.1809   77.2727  216.0367 H   0  0  0  0  0  0  0  0  0  0  0  0
  143.3467   75.1798  216.6807 H   0  0  0  0  0  0  0  0  0  0  0  0
  138.1539   76.7788  222.2733 H   0  0  0  0  0  0  0  0  0  0  0  0
  138.0367   79.0780  223.1726 H   0  0  0  0  0  0  0  0  0  0  0  0
  139.1603   81.0628  223.8841 H   0  0  0  0  0  0  0  0  0  0  0  0
  141.2965   82.2834  224.2436 H   0  0  0  0  0  0  0  0  0  0  0  0
  143.4712   81.2281  223.7246 H   0  0  0  0  0  0  0  0  0  0  0  0
  143.5624   78.9264  222.8217 H   0  0  0  0  0  0  0  0  0  0  0  0
  1  2  2  0
  2  3  1  0
  3  4  1  0
  4  5  1  0
  5  6  2  0
  5  7  1  0
  7  8  1  0
  8  9  1  0
  9 10  1  0
 10 11  1  0
 11 12  1  0
 12 13  1  0
 13 14  2  0
 14 15  1  0
 15 16  2  0
 16 17  1  0
 17 18  1  0
 17 19  1  0
 17 20  1  0
 16 21  1  0
 21 22  2  0
  2 23  1  0
 23 24  2  0
 24 25  1  0
 25 26  2  0
 26 27  1  0
 27 28  2  0
 28 29  1  0
 29 30  2  0
 30 31  1  0
 31 32  2  0
 12  7  1  0
 22 13  1  0
 32 23  1  0
 31 26  1  0
  3 33  1  0
  4 34  1  0
  4 35  1  0
  8 36  1  0
  8 37  1  0
  9 38  1  0
  9 39  1  0
 10 40  1  0
 10 41  1  0
 11 42  1  0
 11 43  1  0
 12 44  1  6
 14 45  1  0
 15 46  1  0
 21 47  1  0
 22 48  1  0
 24 49  1  0
 25 50  1  0
 27 51  1  0
 28 52  1  0
 29 53  1  0
 30 54  1  0
M  END
>  <smiles>  (35) 
O=C(NCC(=O)N1CCCCC1c1ccc(C(F)(F)F)cc1)c1ccc2ccccc2n1

>  <score_type>  (35) 
oracle

>  <origin>  (35) 
autodockgpu

>  <m_score__min__energy>  (35) 
-8.3300000000000001

>  <m_primary>  (35) 
energy

>  <rmsd>  (35) 
7.487657861730522

>  <m_score__min__rmsd>  (35) 
7.487657861730522

>  <meeko>  (35) 
{"free_energy": -7.09, "intermolecular_energy": -8.88, "internal_energy": -2.66, "cluster_size": 6, "cluster_id": 6, "rank_in_cluster": 6}

>  <energy>  (35) 
-7.28

>  <cluster_rmsd>  (35) 
0.0

>  <cluster>  (35) 
6

$$$$

     RDKit          3D

 54 57  0  0  0  0  0  0  0  0999 V2000
  139.0020   70.6490  221.4250 O   0  0  0  0  0  0  0  0  0  0  0  0
  139.1460   71.4100  222.4100 C   0  0  0  0  0  0  0  0  0  0  0  0
  138.9210   72.7960  222.1940 N   0  0  0  0  0  0  0  0  0  0  0  0
  138.5450   73.1890  220.8400 C   0  0  0  0  0  0  0  0  0  0  0  0
  139.4880   74.2160  220.3500 C   0  0  0  0  0  0  0  0  0  0  0  0
  139.7650   74.2100  219.1260 O   0  0  0  0  0  0  0  0  0  0  0  0
  140.0150   75.1350  221.2900 N   0  0  0  0  0  0  0  0  0  0  0  0
  139.1570   75.8070  222.2880 C   0  0  0  0  0  0  0  0  0  0  0  0
  139.6860   77.2150  222.3660 C   0  0  0  0  0  0  0  0  0  0  0  0
  140.3450   77.6700  221.0880 C   0  0  0  0  0  0  0  0  0  0  0  0
  141.5030   76.8230  220.6460 C   0  0  0  0  0  0  0  0  0  0  0  0
  141.4210   75.5050  221.3610 C   0  0  2  0  0  0  0  0  0  0  0  0
  142.3380   74.4740  220.8620 C   0  0  0  0  0  0  0  0  0  0  0  0
  142.1550   73.1440  221.1940 C   0  0  0  0  0  0  0  0  0  0  0  0
  143.0300   72.1740  220.7070 C   0  0  0  0  0  0  0  0  0  0  0  0
  144.0930   72.5090  219.8870 C   0  0  0  0  0  0  0  0  0  0  0  0
  145.0410   71.4810  219.3550 C   0  0  0  0  0  0  0  0  0  0  0  0
  146.3270   71.6630  219.7930 F   0  0  0  0  0  0  0  0  0  0  0  0
  145.0590   71.5160  217.9770 F   0  0  0  0  0  0  0  0  0  0  0  0
  144.6500   70.2090  219.7240 F   0  0  0  0  0  0  0  0  0  0  0  0
  144.2560   73.8430  219.5680 C   0  0  0  0  0  0  0  0  0  0  0  0
  143.3920   74.8290  220.0460 C   0  0  0  0  0  0  0  0  0  0  0  0
  139.5270   70.9050  223.7240 C   0  0  0  0  0  0  0  0  0  0  0  0
  139.3320   69.5600  223.9900 C   0  0  0  0  0  0  0  0  0  0  0  0
  139.6640   69.0150  225.2000 C   0  0  0  0  0  0  0  0  0  0  0  0
  140.2090   69.8510  226.1660 C   0  0  0  0  0  0  0  0  0  0  0  0
  140.5470   69.3060  227.3880 C   0  0  0  0  0  0  0  0  0  0  0  0
  141.0860   70.1550  228.3310 C   0  0  0  0  0  0  0  0  0  0  0  0
  141.2850   71.5040  228.0700 C   0  0  0  0  0  0  0  0  0  0  0  0
  140.9450   72.0330  226.8520 C   0  0  0  0  0  0  0  0  0  0  0  0
  140.4030   71.2050  225.8880 C   0  0  0  0  0  0  0  0  0  0  0  0
  140.0610   71.7100  224.6780 N   0  0  0  0  0  0  0  0  0  0  0  0
  139.0210   73.4830  222.9640 H   0  0  0  0  0  0  0  0  0  0  0  0
  138.5820   72.3107  220.1788 H   0  0  0  0  0  0  0  0  0  0  0  0
  137.5241   73.5986  220.8452 H   0  0  0  0  0  0  0  0  0  0  0  0
  138.1071   75.8054  221.9599 H   0  0  0  0  0  0  0  0  0  0  0  0
  139.1810   75.3002  223.2640 H   0  0  0  0  0  0  0  0  0  0  0  0
  138.8482   77.8922  222.5884 H   0  0  0  0  0  0  0  0  0  0  0  0
  140.4517   77.2349  223.1555 H   0  0  0  0  0  0  0  0  0  0  0  0
  139.5884   77.6604  220.2896 H   0  0  0  0  0  0  0  0  0  0  0  0
  140.7503   78.6732  221.2863 H   0  0  0  0  0  0  0  0  0  0  0  0
  141.4521   76.6607  219.5592 H   0  0  0  0  0  0  0  0  0  0  0  0
  142.4527   77.3249  220.8827 H   0  0  0  0  0  0  0  0  0  0  0  0
  141.7654   75.6002  222.4013 H   0  0  0  0  0  0  0  0  0  0  0  0
  141.3172   72.8508  221.8437 H   0  0  0  0  0  0  0  0  0  0  0  0
  142.8720   71.1203  220.9804 H   0  0  0  0  0  0  0  0  0  0  0  0
  145.0926   74.1371  218.9171 H   0  0  0  0  0  0  0  0  0  0  0  0
  143.5504   75.8829  219.7738 H   0  0  0  0  0  0  0  0  0  0  0  0
  138.9003   68.9151  223.2105 H   0  0  0  0  0  0  0  0  0  0  0  0
  139.5040   67.9456  225.4021 H   0  0  0  0  0  0  0  0  0  0  0  0
  140.3926   68.2379  227.6009 H   0  0  0  0  0  0  0  0  0  0  0  0
  141.3657   69.7531  229.3160 H   0  0  0  0  0  0  0  0  0  0  0  0
  141.7183   72.1525  228.8457 H   0  0  0  0  0  0  0  0  0  0  0  0
  141.1016   73.1019  226.6450 H   0  0  0  0  0  0  0  0  0  0  0  0
  1  2  2  0
  2  3  1  0
  3  4  1  0
  4  5  1  0
  5  6  2  0
  5  7  1  0
  7  8  1  0
  8  9  1  0
  9 10  1  0
 10 11  1  0
 11 12  1  0
 12 13  1  0
 13 14  2  0
 14 15  1  0
 15 16  2  0
 16 17  1  0
 17 18  1  0
 17 19  1  0
 17 20  1  0
 16 21  1  0
 21 22  2  0
  2 23  1  0
 23 24  2  0
 24 25  1  0
 25 26  2  0
 26 27  1  0
 27 28  2  0
 28 29  1  0
 29 30  2  0
 30 31  1  0
 31 32  2  0
 12  7  1  0
 22 13  1  0
 32 23  1  0
 31 26  1  0
  3 33  1  0
  4 34  1  0
  4 35  1  0
  8 36  1  0
  8 37  1  0
  9 38  1  0
  9 39  1  0
 10 40  1  0
 10 41  1  0
 11 42  1  0
 11 43  1  0
 12 44  1  1
 14 45  1  0
 15 46  1  0
 21 47  1  0
 22 48  1  0
 24 49  1  0
 25 50  1  0
 27 51  1  0
 28 52  1  0
 29 53  1  0
 30 54  1  0
M  END
>  <smiles>  (36) 
O=C(NCC(=O)N1CCCCC1c1ccc(C(F)(F)F)cc1)c1ccc2ccccc2n1

>  <score_type>  (36) 
oracle

>  <origin>  (36) 
autodockgpu

>  <m_score__min__energy>  (36) 
-8.3300000000000001

>  <m_primary>  (36) 
energy

>  <rmsd>  (36) 
2.4247072167606185

>  <m_score__min__rmsd>  (36) 
2.4247072167606185

>  <meeko>  (36) 
{"free_energy": -7.84, "intermolecular_energy": -9.63, "internal_energy": -1.96, "cluster_size": 11, "cluster_id": 4, "rank_in_cluster": 5}

>  <energy>  (36) 
-7.23

>  <cluster_rmsd>  (36) 
0.09

>  <cluster>  (36) 
6

$$$$

     RDKit          3D

 54 57  0  0  0  0  0  0  0  0999 V2000
  139.3580   70.8920  221.4940 O   0  0  0  0  0  0  0  0  0  0  0  0
  139.5880   71.4630  222.5860 C   0  0  0  0  0  0  0  0  0  0  0  0
  139.7180   72.8780  222.5600 N   0  0  0  0  0  0  0  0  0  0  0  0
  139.5690   73.5190  221.2580 C   0  0  0  0  0  0  0  0  0  0  0  0
  140.3450   74.7760  221.2420 C   0  0  0  0  0  0  0  0  0  0  0  0
  140.5560   75.3400  222.3430 O   0  0  0  0  0  0  0  0  0  0  0  0
  140.7990   75.2610  219.9910 N   0  0  0  0  0  0  0  0  0  0  0  0
  140.7230   74.4400  218.7640 C   0  0  0  0  0  0  0  0  0  0  0  0
  142.0030   74.7320  218.0250 C   0  0  0  0  0  0  0  0  0  0  0  0
  143.1340   75.1330  218.9380 C   0  0  0  0  0  0  0  0  0  0  0  0
  142.8600   76.3480  219.7760 C   0  0  0  0  0  0  0  0  0  0  0  0
  141.3770   76.5820  219.7940 C   0  0  2  0  0  0  0  0  0  0  0  0
  140.9230   77.5850  220.7640 C   0  0  0  0  0  0  0  0  0  0  0  0
  141.8310   78.2710  221.5500 C   0  0  0  0  0  0  0  0  0  0  0  0
  141.3840   79.2270  222.4630 C   0  0  0  0  0  0  0  0  0  0  0  0
  140.0380   79.5140  222.6050 C   0  0  0  0  0  0  0  0  0  0  0  0
  139.5430   80.5360  223.5790 C   0  0  0  0  0  0  0  0  0  0  0  0
  140.5570   81.2240  224.1930 F   0  0  0  0  0  0  0  0  0  0  0  0
  138.7910   79.9300  224.5640 F   0  0  0  0  0  0  0  0  0  0  0  0
  138.7270   81.4600  222.9560 F   0  0  0  0  0  0  0  0  0  0  0  0
  139.1500   78.8170  221.8090 C   0  0  0  0  0  0  0  0  0  0  0  0
  139.5770   77.8560  220.8910 C   0  0  0  0  0  0  0  0  0  0  0  0
  139.7190   70.7170  223.8320 C   0  0  0  0  0  0  0  0  0  0  0  0
  139.2430   69.4180  223.8710 C   0  0  0  0  0  0  0  0  0  0  0  0
  139.3300   68.6580  225.0040 C   0  0  0  0  0  0  0  0  0  0  0  0
  139.9140   69.2260  226.1290 C   0  0  0  0  0  0  0  0  0  0  0  0
  140.0050   68.4630  227.2760 C   0  0  0  0  0  0  0  0  0  0  0  0
  140.5880   69.0480  228.3790 C   0  0  0  0  0  0  0  0  0  0  0  0
  141.0690   70.3510  228.3470 C   0  0  0  0  0  0  0  0  0  0  0  0
  140.9720   71.0980  227.2020 C   0  0  0  0  0  0  0  0  0  0  0  0
  140.3920   70.5370  226.0810 C   0  0  0  0  0  0  0  0  0  0  0  0
  140.2880   71.2600  224.9400 N   0  0  0  0  0  0  0  0  0  0  0  0
  139.9080   73.4150  223.4250 H   0  0  0  0  0  0  0  0  0  0  0  0
  139.9428   72.8462  220.4721 H   0  0  0  0  0  0  0  0  0  0  0  0
  138.5069   73.7388  221.0744 H   0  0  0  0  0  0  0  0  0  0  0  0
  140.6565   73.3714  219.0164 H   0  0  0  0  0  0  0  0  0  0  0  0
  139.8331   74.6753  218.1617 H   0  0  0  0  0  0  0  0  0  0  0  0
  142.3022   73.8291  217.4725 H   0  0  0  0  0  0  0  0  0  0  0  0
  141.8076   75.5801  217.3523 H   0  0  0  0  0  0  0  0  0  0  0  0
  143.3447   74.2908  219.6135 H   0  0  0  0  0  0  0  0  0  0  0  0
  143.9840   75.3879  218.2879 H   0  0  0  0  0  0  0  0  0  0  0  0
  143.2232   76.1827  220.8011 H   0  0  0  0  0  0  0  0  0  0  0  0
  143.3773   77.2232  219.3560 H   0  0  0  0  0  0  0  0  0  0  0  0
  141.0393   77.0384  218.8518 H   0  0  0  0  0  0  0  0  0  0  0  0
  142.9069   78.0627  221.4553 H   0  0  0  0  0  0  0  0  0  0  0  0
  142.1173   79.7637  223.0829 H   0  0  0  0  0  0  0  0  0  0  0  0
  138.0739   79.0255  221.9013 H   0  0  0  0  0  0  0  0  0  0  0  0
  138.8437   77.3179  220.2723 H   0  0  0  0  0  0  0  0  0  0  0  0
  138.7839   68.9870  222.9691 H   0  0  0  0  0  0  0  0  0  0  0  0
  138.9485   67.6265  225.0241 H   0  0  0  0  0  0  0  0  0  0  0  0
  139.6275   67.4303  227.3081 H   0  0  0  0  0  0  0  0  0  0  0  0
  140.6749   68.4679  229.3096 H   0  0  0  0  0  0  0  0  0  0  0  0
  141.5304   70.7857  229.2460 H   0  0  0  0  0  0  0  0  0  0  0  0
  141.3509   72.1303  227.1761 H   0  0  0  0  0  0  0  0  0  0  0  0
  1  2  2  0
  2  3  1  0
  3  4  1  0
  4  5  1  0
  5  6  2  0
  5  7  1  0
  7  8  1  0
  8  9  1  0
  9 10  1  0
 10 11  1  0
 11 12  1  0
 12 13  1  0
 13 14  2  0
 14 15  1  0
 15 16  2  0
 16 17  1  0
 17 18  1  0
 17 19  1  0
 17 20  1  0
 16 21  1  0
 21 22  2  0
  2 23  1  0
 23 24  2  0
 24 25  1  0
 25 26  2  0
 26 27  1  0
 27 28  2  0
 28 29  1  0
 29 30  2  0
 30 31  1  0
 31 32  2  0
 12  7  1  0
 22 13  1  0
 32 23  1  0
 31 26  1  0
  3 33  1  0
  4 34  1  0
  4 35  1  0
  8 36  1  0
  8 37  1  0
  9 38  1  0
  9 39  1  0
 10 40  1  0
 10 41  1  0
 11 42  1  0
 11 43  1  0
 12 44  1  6
 14 45  1  0
 15 46  1  0
 21 47  1  0
 22 48  1  0
 24 49  1  0
 25 50  1  0
 27 51  1  0
 28 52  1  0
 29 53  1  0
 30 54  1  0
M  END
>  <smiles>  (37) 
O=C(NCC(=O)N1CCCCC1c1ccc(C(F)(F)F)cc1)c1ccc2ccccc2n1

>  <score_type>  (37) 
oracle

>  <origin>  (37) 
autodockgpu

>  <m_score__min__energy>  (37) 
-8.3300000000000001

>  <m_primary>  (37) 
energy

>  <rmsd>  (37) 
1.4999038278604386

>  <m_score__min__rmsd>  (37) 
1.4999038278604386

>  <meeko>  (37) 
{"free_energy": -7.96, "intermolecular_energy": -9.75, "internal_energy": -1.98, "cluster_size": 12, "cluster_id": 1, "rank_in_cluster": 7}

>  <energy>  (37) 
-7.21

>  <cluster_rmsd>  (37) 
0.13

>  <cluster>  (37) 
6

$$$$

     RDKit          3D

 54 57  0  0  0  0  0  0  0  0999 V2000
  140.8760   77.7200  218.3450 O   0  0  0  0  0  0  0  0  0  0  0  0
  141.7810   77.4880  219.1800 C   0  0  0  0  0  0  0  0  0  0  0  0
  142.2040   78.5740  219.9940 N   0  0  0  0  0  0  0  0  0  0  0  0
  141.5360   79.8520  219.7680 C   0  0  0  0  0  0  0  0  0  0  0  0
  140.3900   79.9730  220.6930 C   0  0  0  0  0  0  0  0  0  0  0  0
  139.2380   79.8910  220.2010 O   0  0  0  0  0  0  0  0  0  0  0  0
  140.6650   80.1740  222.0680 N   0  0  0  0  0  0  0  0  0  0  0  0
  140.7270   81.5270  222.6590 C   0  0  0  0  0  0  0  0  0  0  0  0
  141.8710   81.4680  223.6380 C   0  0  0  0  0  0  0  0  0  0  0  0
  142.9180   80.4500  223.2610 C   0  0  0  0  0  0  0  0  0  0  0  0
  142.4080   79.0430  223.1440 C   0  0  0  0  0  0  0  0  0  0  0  0
  140.9130   79.0940  223.0110 C   0  0  2  0  0  0  0  0  0  0  0  0
  140.2820   77.8220  222.6450 C   0  0  0  0  0  0  0  0  0  0  0  0
  138.9050   77.6970  222.6200 C   0  0  0  0  0  0  0  0  0  0  0  0
  138.3180   76.4830  222.2630 C   0  0  0  0  0  0  0  0  0  0  0  0
  139.0870   75.3820  221.9260 C   0  0  0  0  0  0  0  0  0  0  0  0
  138.4740   74.0730  221.5410 C   0  0  0  0  0  0  0  0  0  0  0  0
  138.1090   74.0220  220.2200 F   0  0  0  0  0  0  0  0  0  0  0  0
  137.3460   73.8350  222.2970 F   0  0  0  0  0  0  0  0  0  0  0  0
  139.3480   73.0290  221.7740 F   0  0  0  0  0  0  0  0  0  0  0  0
  140.4600   75.5310  221.9570 C   0  0  0  0  0  0  0  0  0  0  0  0
  141.0660   76.7370  222.3130 C   0  0  0  0  0  0  0  0  0  0  0  0
  142.3800   76.1650  219.3190 C   0  0  0  0  0  0  0  0  0  0  0  0
  141.7120   75.0830  218.7720 C   0  0  0  0  0  0  0  0  0  0  0  0
  142.2110   73.8140  218.8630 C   0  0  0  0  0  0  0  0  0  0  0  0
  143.4190   73.6330  219.5240 C   0  0  0  0  0  0  0  0  0  0  0  0
  143.9280   72.3530  219.6190 C   0  0  0  0  0  0  0  0  0  0  0  0
  145.1280   72.1970  220.2790 C   0  0  0  0  0  0  0  0  0  0  0  0
  145.8040   73.2790  220.8290 C   0  0  0  0  0  0  0  0  0  0  0  0
  145.2870   74.5440  220.7290 C   0  0  0  0  0  0  0  0  0  0  0  0
  144.0860   74.7300  220.0720 C   0  0  0  0  0  0  0  0  0  0  0  0
  143.5600   75.9730  219.9620 N   0  0  0  0  0  0  0  0  0  0  0  0
  142.9470   78.4540  220.7050 H   0  0  0  0  0  0  0  0  0  0  0  0
  142.2438   80.6741  219.9501 H   0  0  0  0  0  0  0  0  0  0  0  0
  141.1785   79.9028  218.7290 H   0  0  0  0  0  0  0  0  0  0  0  0
  140.9208   82.2808  221.8817 H   0  0  0  0  0  0  0  0  0  0  0  0
  139.7812   81.8123  223.1427 H   0  0  0  0  0  0  0  0  0  0  0  0
  142.3459   82.4592  223.6822 H   0  0  0  0  0  0  0  0  0  0  0  0
  141.4557   81.1676  224.6113 H   0  0  0  0  0  0  0  0  0  0  0  0
  143.3463   80.7415  222.2906 H   0  0  0  0  0  0  0  0  0  0  0  0
  143.6573   80.4469  224.0755 H   0  0  0  0  0  0  0  0  0  0  0  0
  142.8444   78.5616  222.2564 H   0  0  0  0  0  0  0  0  0  0  0  0
  142.6901   78.4619  224.0343 H   0  0  0  0  0  0  0  0  0  0  0  0
  140.4381   79.2855  223.9845 H   0  0  0  0  0  0  0  0  0  0  0  0
  138.2711   78.5569  222.8822 H   0  0  0  0  0  0  0  0  0  0  0  0
  137.2213   76.3986  222.2489 H   0  0  0  0  0  0  0  0  0  0  0  0
  141.0954   74.6727  221.6930 H   0  0  0  0  0  0  0  0  0  0  0  0
  142.1626   76.8215  222.3287 H   0  0  0  0  0  0  0  0  0  0  0  0
  140.7570   75.2485  218.2518 H   0  0  0  0  0  0  0  0  0  0  0  0
  141.6717   72.9609  218.4256 H   0  0  0  0  0  0  0  0  0  0  0  0
  143.3973   71.4925  219.1855 H   0  0  0  0  0  0  0  0  0  0  0  0
  145.5614   71.1903  220.3726 H   0  0  0  0  0  0  0  0  0  0  0  0
  146.7605   73.1191  221.3481 H   0  0  0  0  0  0  0  0  0  0  0  0
  145.8213   75.4004  221.1662 H   0  0  0  0  0  0  0  0  0  0  0  0
  1  2  2  0
  2  3  1  0
  3  4  1  0
  4  5  1  0
  5  6  2  0
  5  7  1  0
  7  8  1  0
  8  9  1  0
  9 10  1  0
 10 11  1  0
 11 12  1  0
 12 13  1  0
 13 14  2  0
 14 15  1  0
 15 16  2  0
 16 17  1  0
 17 18  1  0
 17 19  1  0
 17 20  1  0
 16 21  1  0
 21 22  2  0
  2 23  1  0
 23 24  2  0
 24 25  1  0
 25 26  2  0
 26 27  1  0
 27 28  2  0
 28 29  1  0
 29 30  2  0
 30 31  1  0
 31 32  2  0
 12  7  1  0
 22 13  1  0
 32 23  1  0
 31 26  1  0
  3 33  1  0
  4 34  1  0
  4 35  1  0
  8 36  1  0
  8 37  1  0
  9 38  1  0
  9 39  1  0
 10 40  1  0
 10 41  1  0
 11 42  1  0
 11 43  1  0
 12 44  1  1
 14 45  1  0
 15 46  1  0
 21 47  1  0
 22 48  1  0
 24 49  1  0
 25 50  1  0
 27 51  1  0
 28 52  1  0
 29 53  1  0
 30 54  1  0
M  END
>  <smiles>  (38) 
O=C(NCC(=O)N1CCCCC1c1ccc(C(F)(F)F)cc1)c1ccc2ccccc2n1

>  <score_type>  (38) 
oracle

>  <origin>  (38) 
autodockgpu

>  <m_score__min__energy>  (38) 
-8.3300000000000001

>  <m_primary>  (38) 
energy

>  <rmsd>  (38) 
7.57013663885703

>  <m_score__min__rmsd>  (38) 
7.57013663885703

>  <meeko>  (38) 
{"free_energy": -7.0, "intermolecular_energy": -8.79, "internal_energy": -2.89, "cluster_size": 10, "cluster_id": 7, "rank_in_cluster": 5}

>  <energy>  (38) 
-7.1

>  <cluster_rmsd>  (38) 
0.23

>  <cluster>  (38) 
6

$$$$

     RDKit          3D

 54 57  0  0  0  0  0  0  0  0999 V2000
  139.5880   70.8310  221.4240 O   0  0  0  0  0  0  0  0  0  0  0  0
  139.7140   71.4160  222.5250 C   0  0  0  0  0  0  0  0  0  0  0  0
  139.8020   72.8340  222.4970 N   0  0  0  0  0  0  0  0  0  0  0  0
  139.7380   73.4620  221.1820 C   0  0  0  0  0  0  0  0  0  0  0  0
  140.5000   74.7270  221.2080 C   0  0  0  0  0  0  0  0  0  0  0  0
  140.7190   75.2480  222.3290 O   0  0  0  0  0  0  0  0  0  0  0  0
  140.9320   75.2680  219.9720 N   0  0  0  0  0  0  0  0  0  0  0  0
  141.1120   74.4230  218.7740 C   0  0  0  0  0  0  0  0  0  0  0  0
  142.3540   74.9570  218.1080 C   0  0  0  0  0  0  0  0  0  0  0  0
  143.3120   75.6020  219.0780 C   0  0  0  0  0  0  0  0  0  0  0  0
  142.7380   76.7520  219.8520 C   0  0  0  0  0  0  0  0  0  0  0  0
  141.2410   76.6750  219.7660 C   0  0  2  0  0  0  0  0  0  0  0  0
  140.5230   77.5840  220.6680 C   0  0  0  0  0  0  0  0  0  0  0  0
  139.1740   77.8360  220.4920 C   0  0  0  0  0  0  0  0  0  0  0  0
  138.5040   78.6960  221.3610 C   0  0  0  0  0  0  0  0  0  0  0  0
  139.1590   79.3140  222.4120 C   0  0  0  0  0  0  0  0  0  0  0  0
  138.4550   80.2390  223.3530 C   0  0  0  0  0  0  0  0  0  0  0  0
  138.8590   80.0870  224.6540 F   0  0  0  0  0  0  0  0  0  0  0  0
  137.0940   80.0190  223.3080 F   0  0  0  0  0  0  0  0  0  0  0  0
  138.6650   81.5580  223.0010 F   0  0  0  0  0  0  0  0  0  0  0  0
  140.5050   79.0470  222.5680 C   0  0  0  0  0  0  0  0  0  0  0  0
  141.1940   78.1900  221.7090 C   0  0  0  0  0  0  0  0  0  0  0  0
  139.7680   70.6830  223.7850 C   0  0  0  0  0  0  0  0  0  0  0  0
  139.2240   69.4100  223.8260 C   0  0  0  0  0  0  0  0  0  0  0  0
  139.2370   68.6630  224.9710 C   0  0  0  0  0  0  0  0  0  0  0  0
  139.8150   69.2170  226.1060 C   0  0  0  0  0  0  0  0  0  0  0  0
  139.8320   68.4670  227.2650 C   0  0  0  0  0  0  0  0  0  0  0  0
  140.4110   69.0370  228.3780 C   0  0  0  0  0  0  0  0  0  0  0  0
  140.9590   70.3130  228.3430 C   0  0  0  0  0  0  0  0  0  0  0  0
  140.9360   71.0470  227.1870 C   0  0  0  0  0  0  0  0  0  0  0  0
  140.3620   70.5010  226.0560 C   0  0  0  0  0  0  0  0  0  0  0  0
  140.3300   71.2110  224.9020 N   0  0  0  0  0  0  0  0  0  0  0  0
  139.9070   73.3820  223.3700 H   0  0  0  0  0  0  0  0  0  0  0  0
  140.1727   72.7865  220.4306 H   0  0  0  0  0  0  0  0  0  0  0  0
  138.6891   73.6687  220.9228 H   0  0  0  0  0  0  0  0  0  0  0  0
  141.2483   73.3696  219.0600 H   0  0  0  0  0  0  0  0  0  0  0  0
  140.2373   74.4560  218.1079 H   0  0  0  0  0  0  0  0  0  0  0  0
  142.8695   74.1238  217.6080 H   0  0  0  0  0  0  0  0  0  0  0  0
  142.0373   75.7316  217.3941 H   0  0  0  0  0  0  0  0  0  0  0  0
  143.6413   74.8360  219.7955 H   0  0  0  0  0  0  0  0  0  0  0  0
  144.1361   76.0122  218.4758 H   0  0  0  0  0  0  0  0  0  0  0  0
  143.0543   76.6879  220.9036 H   0  0  0  0  0  0  0  0  0  0  0  0
  143.0939   77.7057  219.4352 H   0  0  0  0  0  0  0  0  0  0  0  0
  140.8855   77.0315  218.7880 H   0  0  0  0  0  0  0  0  0  0  0  0
  138.6292   77.3570  219.6651 H   0  0  0  0  0  0  0  0  0  0  0  0
  137.4317   78.8875  221.2080 H   0  0  0  0  0  0  0  0  0  0  0  0
  141.0508   79.5247  223.3950 H   0  0  0  0  0  0  0  0  0  0  0  0
  142.2665   77.9989  221.8615 H   0  0  0  0  0  0  0  0  0  0  0  0
  138.7708   68.9901  222.9159 H   0  0  0  0  0  0  0  0  0  0  0  0
  138.8024   67.6527  224.9927 H   0  0  0  0  0  0  0  0  0  0  0  0
  139.4009   67.4556  227.2986 H   0  0  0  0  0  0  0  0  0  0  0  0
  140.4400   68.4670  229.3183 H   0  0  0  0  0  0  0  0  0  0  0  0
  141.4146   70.7368  229.2501 H   0  0  0  0  0  0  0  0  0  0  0  0
  141.3690   72.0578  227.1598 H   0  0  0  0  0  0  0  0  0  0  0  0
  1  2  2  0
  2  3  1  0
  3  4  1  0
  4  5  1  0
  5  6  2  0
  5  7  1  0
  7  8  1  0
  8  9  1  0
  9 10  1  0
 10 11  1  0
 11 12  1  0
 12 13  1  0
 13 14  2  0
 14 15  1  0
 15 16  2  0
 16 17  1  0
 17 18  1  0
 17 19  1  0
 17 20  1  0
 16 21  1  0
 21 22  2  0
  2 23  1  0
 23 24  2  0
 24 25  1  0
 25 26  2  0
 26 27  1  0
 27 28  2  0
 28 29  1  0
 29 30  2  0
 30 31  1  0
 31 32  2  0
 12  7  1  0
 22 13  1  0
 32 23  1  0
 31 26  1  0
  3 33  1  0
  4 34  1  0
  4 35  1  0
  8 36  1  0
  8 37  1  0
  9 38  1  0
  9 39  1  0
 10 40  1  0
 10 41  1  0
 11 42  1  0
 11 43  1  0
 12 44  1  6
 14 45  1  0
 15 46  1  0
 21 47  1  0
 22 48  1  0
 24 49  1  0
 25 50  1  0
 27 51  1  0
 28 52  1  0
 29 53  1  0
 30 54  1  0
M  END
>  <smiles>  (39) 
O=C(NCC(=O)N1CCCCC1c1ccc(C(F)(F)F)cc1)c1ccc2ccccc2n1

>  <score_type>  (39) 
oracle

>  <origin>  (39) 
autodockgpu

>  <m_score__min__energy>  (39) 
-8.3300000000000001

>  <m_primary>  (39) 
energy

>  <rmsd>  (39) 
1.5728921163310376

>  <m_score__min__rmsd>  (39) 
1.5728921163310376

>  <meeko>  (39) 
{"free_energy": -7.64, "intermolecular_energy": -9.43, "internal_energy": -2.05, "cluster_size": 12, "cluster_id": 1, "rank_in_cluster": 12}

>  <energy>  (39) 
-7.09

>  <cluster_rmsd>  (39) 
0.29

>  <cluster>  (39) 
6

$$$$

     RDKit          3D

 54 57  0  0  0  0  0  0  0  0999 V2000
  140.9390   77.6470  218.2780 O   0  0  0  0  0  0  0  0  0  0  0  0
  141.8360   77.4430  219.1290 C   0  0  0  0  0  0  0  0  0  0  0  0
  142.1990   78.5370  219.9590 N   0  0  0  0  0  0  0  0  0  0  0  0
  141.4860   79.7900  219.7300 C   0  0  0  0  0  0  0  0  0  0  0  0
  140.3280   79.8660  220.6440 C   0  0  0  0  0  0  0  0  0  0  0  0
  139.1870   79.7030  220.1470 O   0  0  0  0  0  0  0  0  0  0  0  0
  140.5790   80.1170  222.0150 N   0  0  0  0  0  0  0  0  0  0  0  0
  140.5980   81.4890  222.5640 C   0  0  0  0  0  0  0  0  0  0  0  0
  141.7300   81.4910  223.5590 C   0  0  0  0  0  0  0  0  0  0  0  0
  142.8080   80.4900  223.2270 C   0  0  0  0  0  0  0  0  0  0  0  0
  142.3370   79.0670  223.1490 C   0  0  0  0  0  0  0  0  0  0  0  0
  140.8430   79.0750  222.9960 C   0  0  2  0  0  0  0  0  0  0  0  0
  140.2500   77.7750  222.6620 C   0  0  0  0  0  0  0  0  0  0  0  0
  138.8800   77.5900  222.7070 C   0  0  0  0  0  0  0  0  0  0  0  0
  138.3300   76.3500  222.3800 C   0  0  0  0  0  0  0  0  0  0  0  0
  139.1280   75.2840  222.0050 C   0  0  0  0  0  0  0  0  0  0  0  0
  138.5540   73.9480  221.6520 C   0  0  0  0  0  0  0  0  0  0  0  0
  137.2810   73.7710  222.1280 F   0  0  0  0  0  0  0  0  0  0  0  0
  139.3400   72.9400  222.1690 F   0  0  0  0  0  0  0  0  0  0  0  0
  138.5170   73.7720  220.2820 F   0  0  0  0  0  0  0  0  0  0  0  0
  140.4930   75.4920  221.9670 C   0  0  0  0  0  0  0  0  0  0  0  0
  141.0630   76.7240  222.2910 C   0  0  0  0  0  0  0  0  0  0  0  0
  142.4840   76.1440  219.2700 C   0  0  0  0  0  0  0  0  0  0  0  0
  141.9090   75.0540  218.6380 C   0  0  0  0  0  0  0  0  0  0  0  0
  142.4590   73.8050  218.7260 C   0  0  0  0  0  0  0  0  0  0  0  0
  143.6210   73.6530  219.4710 C   0  0  0  0  0  0  0  0  0  0  0  0
  144.1810   72.3950  219.5620 C   0  0  0  0  0  0  0  0  0  0  0  0
  145.3340   72.2680  220.3070 C   0  0  0  0  0  0  0  0  0  0  0  0
  145.9160   73.3580  220.9420 C   0  0  0  0  0  0  0  0  0  0  0  0
  145.3500   74.6020  220.8440 C   0  0  0  0  0  0  0  0  0  0  0  0
  144.1940   74.7580  220.1040 C   0  0  0  0  0  0  0  0  0  0  0  0
  143.6200   75.9800  219.9950 N   0  0  0  0  0  0  0  0  0  0  0  0
  142.9330   78.4410  220.6850 H   0  0  0  0  0  0  0  0  0  0  0  0
  142.1611   80.6373  219.9208 H   0  0  0  0  0  0  0  0  0  0  0  0
  141.1365   79.8303  218.6878 H   0  0  0  0  0  0  0  0  0  0  0  0
  140.7826   82.2230  221.7658 H   0  0  0  0  0  0  0  0  0  0  0  0
  139.6386   81.7640  223.0266 H   0  0  0  0  0  0  0  0  0  0  0  0
  142.1781   82.4954  223.5781 H   0  0  0  0  0  0  0  0  0  0  0  0
  141.3098   81.2102  224.5360 H   0  0  0  0  0  0  0  0  0  0  0  0
  143.2406   80.7621  222.2529 H   0  0  0  0  0  0  0  0  0  0  0  0
  143.5368   80.5324  224.0498 H   0  0  0  0  0  0  0  0  0  0  0  0
  142.7974   78.5693  222.2828 H   0  0  0  0  0  0  0  0  0  0  0  0
  142.6227   78.5217  224.0606 H   0  0  0  0  0  0  0  0  0  0  0  0
  140.3512   79.2856  223.9572 H   0  0  0  0  0  0  0  0  0  0  0  0
  138.2230   78.4218  223.0011 H   0  0  0  0  0  0  0  0  0  0  0  0
  137.2388   76.2173  222.4213 H   0  0  0  0  0  0  0  0  0  0  0  0
  141.1509   74.6611  221.6723 H   0  0  0  0  0  0  0  0  0  0  0  0
  142.1543   76.8563  222.2508 H   0  0  0  0  0  0  0  0  0  0  0  0
  140.9890   75.1961  218.0519 H   0  0  0  0  0  0  0  0  0  0  0  0
  141.9942   72.9453  218.2211 H   0  0  0  0  0  0  0  0  0  0  0  0
  143.7257   71.5284  219.0603 H   0  0  0  0  0  0  0  0  0  0  0  0
  145.8051   71.2785  220.4011 H   0  0  0  0  0  0  0  0  0  0  0  0
  146.8373   73.2215  221.5273 H   0  0  0  0  0  0  0  0  0  0  0  0
  145.8100   75.4649  221.3478 H   0  0  0  0  0  0  0  0  0  0  0  0
  1  2  2  0
  2  3  1  0
  3  4  1  0
  4  5  1  0
  5  6  2  0
  5  7  1  0
  7  8  1  0
  8  9  1  0
  9 10  1  0
 10 11  1  0
 11 12  1  0
 12 13  1  0
 13 14  2  0
 14 15  1  0
 15 16  2  0
 16 17  1  0
 17 18  1  0
 17 19  1  0
 17 20  1  0
 16 21  1  0
 21 22  2  0
  2 23  1  0
 23 24  2  0
 24 25  1  0
 25 26  2  0
 26 27  1  0
 27 28  2  0
 28 29  1  0
 29 30  2  0
 30 31  1  0
 31 32  2  0
 12  7  1  0
 22 13  1  0
 32 23  1  0
 31 26  1  0
  3 33  1  0
  4 34  1  0
  4 35  1  0
  8 36  1  0
  8 37  1  0
  9 38  1  0
  9 39  1  0
 10 40  1  0
 10 41  1  0
 11 42  1  0
 11 43  1  0
 12 44  1  1
 14 45  1  0
 15 46  1  0
 21 47  1  0
 22 48  1  0
 24 49  1  0
 25 50  1  0
 27 51  1  0
 28 52  1  0
 29 53  1  0
 30 54  1  0
M  END
>  <smiles>  (40) 
O=C(NCC(=O)N1CCCCC1c1ccc(C(F)(F)F)cc1)c1ccc2ccccc2n1

>  <score_type>  (40) 
oracle

>  <origin>  (40) 
autodockgpu

>  <m_score__min__energy>  (40) 
-8.3300000000000001

>  <m_primary>  (40) 
energy

>  <rmsd>  (40) 
7.580543592916182

>  <m_score__min__rmsd>  (40) 
7.580543592916182

>  <meeko>  (40) 
{"free_energy": -7.04, "intermolecular_energy": -8.83, "internal_energy": -2.85, "cluster_size": 10, "cluster_id": 7, "rank_in_cluster": 1}

>  <energy>  (40) 
-7.09

>  <cluster_rmsd>  (40) 
0.27

>  <cluster>  (40) 
6

$$$$

     RDKit          3D

 54 57  0  0  0  0  0  0  0  0999 V2000
  141.0640   74.5820  220.7330 O   0  0  0  0  0  0  0  0  0  0  0  0
  140.2060   74.8830  221.5960 C   0  0  0  0  0  0  0  0  0  0  0  0
  139.3770   73.8330  222.0750 N   0  0  0  0  0  0  0  0  0  0  0  0
  139.6120   72.5100  221.5070 C   0  0  0  0  0  0  0  0  0  0  0  0
  138.7090   71.5340  222.1520 C   0  0  0  0  0  0  0  0  0  0  0  0
  137.7290   71.9890  222.7910 O   0  0  0  0  0  0  0  0  0  0  0  0
  139.0060   70.1570  222.0070 N   0  0  0  0  0  0  0  0  0  0  0  0
  139.1540   69.5290  220.6780 C   0  0  0  0  0  0  0  0  0  0  0  0
  138.5030   68.1770  220.8150 C   0  0  0  0  0  0  0  0  0  0  0  0
  137.4170   68.1500  221.8620 C   0  0  0  0  0  0  0  0  0  0  0  0
  137.8710   68.5260  223.2430 C   0  0  0  0  0  0  0  0  0  0  0  0
  139.1840   69.2440  223.1260 C   0  0  2  0  0  0  0  0  0  0  0  0
  139.6450   69.8920  224.3600 C   0  0  0  0  0  0  0  0  0  0  0  0
  139.1560   69.4960  225.5910 C   0  0  0  0  0  0  0  0  0  0  0  0
  139.6080   70.1160  226.7560 C   0  0  0  0  0  0  0  0  0  0  0  0
  140.5480   71.1310  226.7140 C   0  0  0  0  0  0  0  0  0  0  0  0
  141.0440   71.8060  227.9540 C   0  0  0  0  0  0  0  0  0  0  0  0
  141.8080   70.9840  228.7400 F   0  0  0  0  0  0  0  0  0  0  0  0
  139.9800   72.2440  228.7150 F   0  0  0  0  0  0  0  0  0  0  0  0
  141.8050   72.9160  227.6430 F   0  0  0  0  0  0  0  0  0  0  0  0
  141.0220   71.5090  225.4730 C   0  0  0  0  0  0  0  0  0  0  0  0
  140.5810   70.9020  224.2960 C   0  0  0  0  0  0  0  0  0  0  0  0
  140.0590   76.2460  222.0930 C   0  0  0  0  0  0  0  0  0  0  0  0
  138.7790   76.7440  222.2690 C   0  0  0  0  0  0  0  0  0  0  0  0
  138.5620   78.0130  222.7310 C   0  0  0  0  0  0  0  0  0  0  0  0
  139.6690   78.7990  223.0240 C   0  0  0  0  0  0  0  0  0  0  0  0
  139.4560   80.0800  223.4920 C   0  0  0  0  0  0  0  0  0  0  0  0
  140.5690   80.8420  223.7760 C   0  0  0  0  0  0  0  0  0  0  0  0
  141.8550   80.3480  223.6030 C   0  0  0  0  0  0  0  0  0  0  0  0
  142.0530   79.0740  223.1380 C   0  0  0  0  0  0  0  0  0  0  0  0
  140.9560   78.2880  222.8450 C   0  0  0  0  0  0  0  0  0  0  0  0
  141.1310   77.0260  222.3840 N   0  0  0  0  0  0  0  0  0  0  0  0
  138.6470   74.0090  222.7890 H   0  0  0  0  0  0  0  0  0  0  0  0
  139.4144   72.5342  220.4252 H   0  0  0  0  0  0  0  0  0  0  0  0
  140.6575   72.2151  221.6802 H   0  0  0  0  0  0  0  0  0  0  0  0
  138.6452   70.1276  219.9080 H   0  0  0  0  0  0  0  0  0  0  0  0
  140.2074   69.4528  220.3703 H   0  0  0  0  0  0  0  0  0  0  0  0
  138.0627   67.8999  219.8458 H   0  0  0  0  0  0  0  0  0  0  0  0
  139.2818   67.4668  221.1298 H   0  0  0  0  0  0  0  0  0  0  0  0
  136.6284   68.8534  221.5566 H   0  0  0  0  0  0  0  0  0  0  0  0
  137.0670   67.1089  221.9215 H   0  0  0  0  0  0  0  0  0  0  0  0
  137.1266   69.1855  223.7130 H   0  0  0  0  0  0  0  0  0  0  0  0
  137.9846   67.6252  223.8640 H   0  0  0  0  0  0  0  0  0  0  0  0
  140.0050   68.5343  222.9463 H   0  0  0  0  0  0  0  0  0  0  0  0
  138.4092   68.6906  225.6519 H   0  0  0  0  0  0  0  0  0  0  0  0
  139.2090   69.7914  227.7283 H   0  0  0  0  0  0  0  0  0  0  0  0
  141.7700   72.3131  225.4103 H   0  0  0  0  0  0  0  0  0  0  0  0
  140.9780   71.2276  223.3232 H   0  0  0  0  0  0  0  0  0  0  0  0
  137.9164   76.1040  222.0317 H   0  0  0  0  0  0  0  0  0  0  0  0
  137.5411   78.3995  222.8665 H   0  0  0  0  0  0  0  0  0  0  0  0
  138.4396   80.4765  223.6326 H   0  0  0  0  0  0  0  0  0  0  0  0
  140.4349   81.8680  224.1493 H   0  0  0  0  0  0  0  0  0  0  0  0
  142.7208   80.9834  223.8408 H   0  0  0  0  0  0  0  0  0  0  0  0
  143.0718   78.6829  223.0001 H   0  0  0  0  0  0  0  0  0  0  0  0
  1  2  2  0
  2  3  1  0
  3  4  1  0
  4  5  1  0
  5  6  2  0
  5  7  1  0
  7  8  1  0
  8  9  1  0
  9 10  1  0
 10 11  1  0
 11 12  1  0
 12 13  1  0
 13 14  2  0
 14 15  1  0
 15 16  2  0
 16 17  1  0
 17 18  1  0
 17 19  1  0
 17 20  1  0
 16 21  1  0
 21 22  2  0
  2 23  1  0
 23 24  2  0
 24 25  1  0
 25 26  2  0
 26 27  1  0
 27 28  2  0
 28 29  1  0
 29 30  2  0
 30 31  1  0
 31 32  2  0
 12  7  1  0
 22 13  1  0
 32 23  1  0
 31 26  1  0
  3 33  1  0
  4 34  1  0
  4 35  1  0
  8 36  1  0
  8 37  1  0
  9 38  1  0
  9 39  1  0
 10 40  1  0
 10 41  1  0
 11 42  1  0
 11 43  1  0
 12 44  1  6
 14 45  1  0
 15 46  1  0
 21 47  1  0
 22 48  1  0
 24 49  1  0
 25 50  1  0
 27 51  1  0
 28 52  1  0
 29 53  1  0
 30 54  1  0
M  END
>  <smiles>  (41) 
O=C(NCC(=O)N1CCCCC1c1ccc(C(F)(F)F)cc1)c1ccc2ccccc2n1

>  <score_type>  (41) 
oracle

>  <origin>  (41) 
autodockgpu

>  <m_score__min__energy>  (41) 
-8.3300000000000001

>  <m_primary>  (41) 
energy

>  <rmsd>  (41) 
8.103544643066114

>  <m_score__min__rmsd>  (41) 
8.103544643066114

>  <meeko>  (41) 
{"free_energy": -8.28, "intermolecular_energy": -10.07, "internal_energy": -1.85, "cluster_size": 8, "cluster_id": 2, "rank_in_cluster": 1}

>  <energy>  (41) 
-7.04

>  <cluster_rmsd>  (41) 
0.0

>  <cluster>  (41) 
7

$$$$

     RDKit          3D

 54 57  0  0  0  0  0  0  0  0999 V2000
  140.3300   71.1800  221.3510 O   0  0  0  0  0  0  0  0  0  0  0  0
  140.0070   71.7620  222.4120 C   0  0  0  0  0  0  0  0  0  0  0  0
  139.5970   73.1190  222.3060 N   0  0  0  0  0  0  0  0  0  0  0  0
  139.5990   73.6930  220.9640 C   0  0  0  0  0  0  0  0  0  0  0  0
  140.3860   74.9440  220.9700 C   0  0  0  0  0  0  0  0  0  0  0  0
  140.4500   75.5820  222.0500 O   0  0  0  0  0  0  0  0  0  0  0  0
  141.0120   75.3410  219.7640 N   0  0  0  0  0  0  0  0  0  0  0  0
  141.0810   74.4440  218.5910 C   0  0  0  0  0  0  0  0  0  0  0  0
  142.4530   74.6710  218.0120 C   0  0  0  0  0  0  0  0  0  0  0  0
  143.4620   75.1140  219.0430 C   0  0  0  0  0  0  0  0  0  0  0  0
  143.1070   76.3840  219.7590 C   0  0  0  0  0  0  0  0  0  0  0  0
  141.6400   76.6390  219.5640 C   0  0  2  0  0  0  0  0  0  0  0  0
  141.0840   77.7080  220.4000 C   0  0  0  0  0  0  0  0  0  0  0  0
  141.8370   78.2830  221.4090 C   0  0  0  0  0  0  0  0  0  0  0  0
  141.2970   79.3030  222.1910 C   0  0  0  0  0  0  0  0  0  0  0  0
  140.0090   79.7660  221.9830 C   0  0  0  0  0  0  0  0  0  0  0  0
  139.4150   80.8600  222.8140 C   0  0  0  0  0  0  0  0  0  0  0  0
  140.0940   82.0450  222.7010 F   0  0  0  0  0  0  0  0  0  0  0  0
  139.4150   80.5010  224.1450 F   0  0  0  0  0  0  0  0  0  0  0  0
  138.1010   81.0940  222.4560 F   0  0  0  0  0  0  0  0  0  0  0  0
  139.2760   79.1780  220.9710 C   0  0  0  0  0  0  0  0  0  0  0  0
  139.7980   78.1550  220.1780 C   0  0  0  0  0  0  0  0  0  0  0  0
  140.0440   71.0870  223.7040 C   0  0  0  0  0  0  0  0  0  0  0  0
  139.5460   69.7970  223.7830 C   0  0  0  0  0  0  0  0  0  0  0  0
  139.5460   69.1010  224.9610 C   0  0  0  0  0  0  0  0  0  0  0  0
  140.0660   69.7250  226.0880 C   0  0  0  0  0  0  0  0  0  0  0  0
  140.0690   69.0270  227.2790 C   0  0  0  0  0  0  0  0  0  0  0  0
  140.5890   69.6650  228.3840 C   0  0  0  0  0  0  0  0  0  0  0  0
  141.0910   70.9580  228.3110 C   0  0  0  0  0  0  0  0  0  0  0  0
  141.0810   71.6410  227.1230 C   0  0  0  0  0  0  0  0  0  0  0  0
  140.5660   71.0250  225.9990 C   0  0  0  0  0  0  0  0  0  0  0  0
  140.5480   71.6830  224.8150 N   0  0  0  0  0  0  0  0  0  0  0  0
  139.3160   73.6620  223.1420 H   0  0  0  0  0  0  0  0  0  0  0  0
  140.0496   72.9786  220.2593 H   0  0  0  0  0  0  0  0  0  0  0  0
  138.5660   73.9085  220.6534 H   0  0  0  0  0  0  0  0  0  0  0  0
  140.9589   73.3948  218.8980 H   0  0  0  0  0  0  0  0  0  0  0  0
  140.2836   74.6519  217.8623 H   0  0  0  0  0  0  0  0  0  0  0  0
  142.8029   73.7310  217.5604 H   0  0  0  0  0  0  0  0  0  0  0  0
  142.3671   75.4768  217.2681 H   0  0  0  0  0  0  0  0  0  0  0  0
  143.5612   74.3143  219.7917 H   0  0  0  0  0  0  0  0  0  0  0  0
  144.3968   75.3138  218.4987 H   0  0  0  0  0  0  0  0  0  0  0  0
  143.3275   76.2807  220.8317 H   0  0  0  0  0  0  0  0  0  0  0  0
  143.6948   77.2229  219.3581 H   0  0  0  0  0  0  0  0  0  0  0  0
  141.4402   77.0383  218.5587 H   0  0  0  0  0  0  0  0  0  0  0  0
  142.8637   77.9344  221.5943 H   0  0  0  0  0  0  0  0  0  0  0  0
  141.9071   79.7493  222.9901 H   0  0  0  0  0  0  0  0  0  0  0  0
  138.2495   79.5265  220.7842 H   0  0  0  0  0  0  0  0  0  0  0  0
  139.1871   77.7075  219.3801 H   0  0  0  0  0  0  0  0  0  0  0  0
  139.1411   69.3210  222.8777 H   0  0  0  0  0  0  0  0  0  0  0  0
  139.1461   68.0776  225.0141 H   0  0  0  0  0  0  0  0  0  0  0  0
  139.6723   68.0030  227.3433 H   0  0  0  0  0  0  0  0  0  0  0  0
  140.6070   69.1368  229.3487 H   0  0  0  0  0  0  0  0  0  0  0  0
  141.4994   71.4371  229.2130 H   0  0  0  0  0  0  0  0  0  0  0  0
  141.4775   72.6654  227.0653 H   0  0  0  0  0  0  0  0  0  0  0  0
  1  2  2  0
  2  3  1  0
  3  4  1  0
  4  5  1  0
  5  6  2  0
  5  7  1  0
  7  8  1  0
  8  9  1  0
  9 10  1  0
 10 11  1  0
 11 12  1  0
 12 13  1  0
 13 14  2  0
 14 15  1  0
 15 16  2  0
 16 17  1  0
 17 18  1  0
 17 19  1  0
 17 20  1  0
 16 21  1  0
 21 22  2  0
  2 23  1  0
 23 24  2  0
 24 25  1  0
 25 26  2  0
 26 27  1  0
 27 28  2  0
 28 29  1  0
 29 30  2  0
 30 31  1  0
 31 32  2  0
 12  7  1  0
 22 13  1  0
 32 23  1  0
 31 26  1  0
  3 33  1  0
  4 34  1  0
  4 35  1  0
  8 36  1  0
  8 37  1  0
  9 38  1  0
  9 39  1  0
 10 40  1  0
 10 41  1  0
 11 42  1  0
 11 43  1  0
 12 44  1  6
 14 45  1  0
 15 46  1  0
 21 47  1  0
 22 48  1  0
 24 49  1  0
 25 50  1  0
 27 51  1  0
 28 52  1  0
 29 53  1  0
 30 54  1  0
M  END
>  <smiles>  (42) 
O=C(NCC(=O)N1CCCCC1c1ccc(C(F)(F)F)cc1)c1ccc2ccccc2n1

>  <score_type>  (42) 
oracle

>  <origin>  (42) 
autodockgpu

>  <m_score__min__energy>  (42) 
-8.3300000000000001

>  <m_primary>  (42) 
energy

>  <rmsd>  (42) 
1.675706289631737

>  <m_score__min__rmsd>  (42) 
1.675706289631737

>  <meeko>  (42) 
{"free_energy": -7.88, "intermolecular_energy": -9.67, "internal_energy": -1.76, "cluster_size": 12, "cluster_id": 1, "rank_in_cluster": 8}

>  <energy>  (42) 
-7.03

>  <cluster_rmsd>  (42) 
0.18

>  <cluster>  (42) 
7

$$$$

     RDKit          3D

 54 57  0  0  0  0  0  0  0  0999 V2000
  141.1360   74.5620  220.7500 O   0  0  0  0  0  0  0  0  0  0  0  0
  140.2670   74.8740  221.5980 C   0  0  0  0  0  0  0  0  0  0  0  0
  139.4130   73.8360  222.0590 N   0  0  0  0  0  0  0  0  0  0  0  0
  139.6380   72.5100  221.4910 C   0  0  0  0  0  0  0  0  0  0  0  0
  138.7360   71.5400  222.1460 C   0  0  0  0  0  0  0  0  0  0  0  0
  137.7840   72.0000  222.8220 O   0  0  0  0  0  0  0  0  0  0  0  0
  139.0030   70.1610  221.9680 N   0  0  0  0  0  0  0  0  0  0  0  0
  139.1420   69.5620  220.6240 C   0  0  0  0  0  0  0  0  0  0  0  0
  138.4600   68.2220  220.7260 C   0  0  0  0  0  0  0  0  0  0  0  0
  137.3710   68.1930  221.7690 C   0  0  0  0  0  0  0  0  0  0  0  0
  137.8280   68.5250  223.1600 C   0  0  0  0  0  0  0  0  0  0  0  0
  139.1570   69.2160  223.0650 C   0  0  2  0  0  0  0  0  0  0  0  0
  139.6280   69.8230  224.3150 C   0  0  0  0  0  0  0  0  0  0  0  0
  139.1130   69.4190  225.5340 C   0  0  0  0  0  0  0  0  0  0  0  0
  139.5760   70.0000  226.7160 C   0  0  0  0  0  0  0  0  0  0  0  0
  140.5500   70.9820  226.7030 C   0  0  0  0  0  0  0  0  0  0  0  0
  141.0560   71.6150  227.9600 C   0  0  0  0  0  0  0  0  0  0  0  0
  140.0520   72.1100  228.7510 F   0  0  0  0  0  0  0  0  0  0  0  0
  141.9060   72.6580  227.6590 F   0  0  0  0  0  0  0  0  0  0  0  0
  141.7760   70.7100  228.7150 F   0  0  0  0  0  0  0  0  0  0  0  0
  141.0480   71.3690  225.4740 C   0  0  0  0  0  0  0  0  0  0  0  0
  140.5990   70.8010  224.2810 C   0  0  0  0  0  0  0  0  0  0  0  0
  140.1320   76.2370  222.0960 C   0  0  0  0  0  0  0  0  0  0  0  0
  138.8560   76.7440  222.2810 C   0  0  0  0  0  0  0  0  0  0  0  0
  138.6510   78.0140  222.7440 C   0  0  0  0  0  0  0  0  0  0  0  0
  139.7650   78.7930  223.0300 C   0  0  0  0  0  0  0  0  0  0  0  0
  139.5640   80.0760  223.4990 C   0  0  0  0  0  0  0  0  0  0  0  0
  140.6830   80.8300  223.7750 C   0  0  0  0  0  0  0  0  0  0  0  0
  141.9650   80.3280  223.5930 C   0  0  0  0  0  0  0  0  0  0  0  0
  142.1520   79.0530  223.1260 C   0  0  0  0  0  0  0  0  0  0  0  0
  141.0470   78.2740  222.8410 C   0  0  0  0  0  0  0  0  0  0  0  0
  141.2110   77.0110  222.3800 N   0  0  0  0  0  0  0  0  0  0  0  0
  138.6730   74.0210  222.7590 H   0  0  0  0  0  0  0  0  0  0  0  0
  139.4314   72.5328  220.4108 H   0  0  0  0  0  0  0  0  0  0  0  0
  140.6837   72.2107  221.6553 H   0  0  0  0  0  0  0  0  0  0  0  0
  138.6498   70.1904  219.8671 H   0  0  0  0  0  0  0  0  0  0  0  0
  140.1945   69.4694  220.3180 H   0  0  0  0  0  0  0  0  0  0  0  0
  138.0164   67.9792  219.7492 H   0  0  0  0  0  0  0  0  0  0  0  0
  139.2218   67.4870  221.0251 H   0  0  0  0  0  0  0  0  0  0  0  0
  136.5988   68.9206  221.4789 H   0  0  0  0  0  0  0  0  0  0  0  0
  136.9988   67.1584  221.8020 H   0  0  0  0  0  0  0  0  0  0  0  0
  137.0967   69.1894  223.6435 H   0  0  0  0  0  0  0  0  0  0  0  0
  137.9192   67.6070  223.7591 H   0  0  0  0  0  0  0  0  0  0  0  0
  139.9623   68.4923  222.8705 H   0  0  0  0  0  0  0  0  0  0  0  0
  138.3380   68.6393  225.5718 H   0  0  0  0  0  0  0  0  0  0  0  0
  139.1573   69.6698  227.6781 H   0  0  0  0  0  0  0  0  0  0  0  0
  141.8225   72.1491  225.4345 H   0  0  0  0  0  0  0  0  0  0  0  0
  141.0175   71.1318  223.3190 H   0  0  0  0  0  0  0  0  0  0  0  0
  137.9874   76.1099  222.0500 H   0  0  0  0  0  0  0  0  0  0  0  0
  137.6336   78.4074  222.8859 H   0  0  0  0  0  0  0  0  0  0  0  0
  138.5513   80.4795  223.6462 H   0  0  0  0  0  0  0  0  0  0  0  0
  140.5580   81.8567  224.1494 H   0  0  0  0  0  0  0  0  0  0  0  0
  142.8363   80.9579  223.8252 H   0  0  0  0  0  0  0  0  0  0  0  0
  143.1673   78.6556  222.9802 H   0  0  0  0  0  0  0  0  0  0  0  0
  1  2  2  0
  2  3  1  0
  3  4  1  0
  4  5  1  0
  5  6  2  0
  5  7  1  0
  7  8  1  0
  8  9  1  0
  9 10  1  0
 10 11  1  0
 11 12  1  0
 12 13  1  0
 13 14  2  0
 14 15  1  0
 15 16  2  0
 16 17  1  0
 17 18  1  0
 17 19  1  0
 17 20  1  0
 16 21  1  0
 21 22  2  0
  2 23  1  0
 23 24  2  0
 24 25  1  0
 25 26  2  0
 26 27  1  0
 27 28  2  0
 28 29  1  0
 29 30  2  0
 30 31  1  0
 31 32  2  0
 12  7  1  0
 22 13  1  0
 32 23  1  0
 31 26  1  0
  3 33  1  0
  4 34  1  0
  4 35  1  0
  8 36  1  0
  8 37  1  0
  9 38  1  0
  9 39  1  0
 10 40  1  0
 10 41  1  0
 11 42  1  0
 11 43  1  0
 12 44  1  6
 14 45  1  0
 15 46  1  0
 21 47  1  0
 22 48  1  0
 24 49  1  0
 25 50  1  0
 27 51  1  0
 28 52  1  0
 29 53  1  0
 30 54  1  0
M  END
>  <smiles>  (43) 
O=C(NCC(=O)N1CCCCC1c1ccc(C(F)(F)F)cc1)c1ccc2ccccc2n1

>  <score_type>  (43) 
oracle

>  <origin>  (43) 
autodockgpu

>  <m_score__min__energy>  (43) 
-8.3300000000000001

>  <m_primary>  (43) 
energy

>  <rmsd>  (43) 
8.092172128888421

>  <m_score__min__rmsd>  (43) 
8.092172128888421

>  <meeko>  (43) 
{"free_energy": -8.24, "intermolecular_energy": -10.03, "internal_energy": -1.87, "cluster_size": 8, "cluster_id": 2, "rank_in_cluster": 3}

>  <energy>  (43) 
-7.02

>  <cluster_rmsd>  (43) 
0.28

>  <cluster>  (43) 
7

$$$$

     RDKit          3D

 54 57  0  0  0  0  0  0  0  0999 V2000
  140.8550   77.7430  218.3720 O   0  0  0  0  0  0  0  0  0  0  0  0
  141.7720   77.5180  219.1960 C   0  0  0  0  0  0  0  0  0  0  0  0
  142.1910   78.6050  220.0090 N   0  0  0  0  0  0  0  0  0  0  0  0
  141.5060   79.8760  219.7960 C   0  0  0  0  0  0  0  0  0  0  0  0
  140.3790   79.9870  220.7450 C   0  0  0  0  0  0  0  0  0  0  0  0
  139.2180   79.8990  220.2760 O   0  0  0  0  0  0  0  0  0  0  0  0
  140.6800   80.1850  222.1140 N   0  0  0  0  0  0  0  0  0  0  0  0
  140.7560   81.5370  222.7060 C   0  0  0  0  0  0  0  0  0  0  0  0
  141.9180   81.4750  223.6630 C   0  0  0  0  0  0  0  0  0  0  0  0
  142.9560   80.4550  223.2640 C   0  0  0  0  0  0  0  0  0  0  0  0
  142.4410   79.0500  223.1560 C   0  0  0  0  0  0  0  0  0  0  0  0
  140.9440   79.1040  223.0520 C   0  0  2  0  0  0  0  0  0  0  0  0
  140.3040   77.8330  222.6950 C   0  0  0  0  0  0  0  0  0  0  0  0
  138.9260   77.7060  222.7110 C   0  0  0  0  0  0  0  0  0  0  0  0
  138.3310   76.4940  222.3630 C   0  0  0  0  0  0  0  0  0  0  0  0
  139.0900   75.3970  221.9960 C   0  0  0  0  0  0  0  0  0  0  0  0
  138.4680   74.0890  221.6200 C   0  0  0  0  0  0  0  0  0  0  0  0
  137.1580   73.9890  222.0130 F   0  0  0  0  0  0  0  0  0  0  0  0
  139.1600   73.0480  222.2010 F   0  0  0  0  0  0  0  0  0  0  0  0
  138.5120   73.8940  220.2540 F   0  0  0  0  0  0  0  0  0  0  0  0
  140.4640   75.5470  221.9880 C   0  0  0  0  0  0  0  0  0  0  0  0
  141.0790   76.7510  222.3330 C   0  0  0  0  0  0  0  0  0  0  0  0
  142.3880   76.2020  219.3230 C   0  0  0  0  0  0  0  0  0  0  0  0
  141.7690   75.1270  218.7080 C   0  0  0  0  0  0  0  0  0  0  0  0
  142.2870   73.8640  218.7830 C   0  0  0  0  0  0  0  0  0  0  0  0
  143.4630   73.6820  219.4990 C   0  0  0  0  0  0  0  0  0  0  0  0
  143.9910   72.4090  219.5790 C   0  0  0  0  0  0  0  0  0  0  0  0
  145.1580   72.2520  220.2940 C   0  0  0  0  0  0  0  0  0  0  0  0
  145.7850   73.3260  220.9120 C   0  0  0  0  0  0  0  0  0  0  0  0
  145.2510   74.5850  220.8270 C   0  0  0  0  0  0  0  0  0  0  0  0
  144.0810   74.7710  220.1160 C   0  0  0  0  0  0  0  0  0  0  0  0
  143.5380   76.0090  220.0190 N   0  0  0  0  0  0  0  0  0  0  0  0
  142.9440   78.4910  220.7120 H   0  0  0  0  0  0  0  0  0  0  0  0
  142.2095   80.7052  219.9621 H   0  0  0  0  0  0  0  0  0  0  0  0
  141.1259   79.9221  218.7648 H   0  0  0  0  0  0  0  0  0  0  0  0
  140.9364   82.2916  221.9262 H   0  0  0  0  0  0  0  0  0  0  0  0
  139.8200   81.8229  223.2082 H   0  0  0  0  0  0  0  0  0  0  0  0
  142.3954   82.4653  223.6994 H   0  0  0  0  0  0  0  0  0  0  0  0
  141.5210   81.1745  224.6439 H   0  0  0  0  0  0  0  0  0  0  0  0
  143.3654   80.7466  222.2856 H   0  0  0  0  0  0  0  0  0  0  0  0
  143.7116   80.4497  224.0634 H   0  0  0  0  0  0  0  0  0  0  0  0
  142.8591   78.5683  222.2598 H   0  0  0  0  0  0  0  0  0  0  0  0
  142.7390   78.4678  224.0404 H   0  0  0  0  0  0  0  0  0  0  0  0
  140.4886   79.2955  224.0348 H   0  0  0  0  0  0  0  0  0  0  0  0
  138.2990   78.5628  222.9988 H   0  0  0  0  0  0  0  0  0  0  0  0
  137.2345   76.4082  222.3806 H   0  0  0  0  0  0  0  0  0  0  0  0
  141.0920   74.6908  221.7008 H   0  0  0  0  0  0  0  0  0  0  0  0
  142.1755   76.8368  222.3163 H   0  0  0  0  0  0  0  0  0  0  0  0
  140.8383   75.2931  218.1457 H   0  0  0  0  0  0  0  0  0  0  0  0
  141.7870   73.0168  218.2907 H   0  0  0  0  0  0  0  0  0  0  0  0
  143.4995   71.5542  219.0913 H   0  0  0  0  0  0  0  0  0  0  0  0
  145.6047   71.2502  220.3776 H   0  0  0  0  0  0  0  0  0  0  0  0
  146.7169   73.1648  221.4737 H   0  0  0  0  0  0  0  0  0  0  0  0
  145.7467   75.4355  221.3178 H   0  0  0  0  0  0  0  0  0  0  0  0
  1  2  2  0
  2  3  1  0
  3  4  1  0
  4  5  1  0
  5  6  2  0
  5  7  1  0
  7  8  1  0
  8  9  1  0
  9 10  1  0
 10 11  1  0
 11 12  1  0
 12 13  1  0
 13 14  2  0
 14 15  1  0
 15 16  2  0
 16 17  1  0
 17 18  1  0
 17 19  1  0
 17 20  1  0
 16 21  1  0
 21 22  2  0
  2 23  1  0
 23 24  2  0
 24 25  1  0
 25 26  2  0
 26 27  1  0
 27 28  2  0
 28 29  1  0
 29 30  2  0
 30 31  1  0
 31 32  2  0
 12  7  1  0
 22 13  1  0
 32 23  1  0
 31 26  1  0
  3 33  1  0
  4 34  1  0
  4 35  1  0
  8 36  1  0
  8 37  1  0
  9 38  1  0
  9 39  1  0
 10 40  1  0
 10 41  1  0
 11 42  1  0
 11 43  1  0
 12 44  1  1
 14 45  1  0
 15 46  1  0
 21 47  1  0
 22 48  1  0
 24 49  1  0
 25 50  1  0
 27 51  1  0
 28 52  1  0
 29 53  1  0
 30 54  1  0
M  END
>  <smiles>  (44) 
O=C(NCC(=O)N1CCCCC1c1ccc(C(F)(F)F)cc1)c1ccc2ccccc2n1

>  <score_type>  (44) 
oracle

>  <origin>  (44) 
autodockgpu

>  <m_score__min__energy>  (44) 
-8.3300000000000001

>  <m_primary>  (44) 
energy

>  <rmsd>  (44) 
7.593361442689858

>  <m_score__min__rmsd>  (44) 
7.593361442689858

>  <meeko>  (44) 
{"free_energy": -7.01, "intermolecular_energy": -8.8, "internal_energy": -2.9, "cluster_size": 10, "cluster_id": 7, "rank_in_cluster": 4}

>  <energy>  (44) 
-7.01

>  <cluster_rmsd>  (44) 
0.15

>  <cluster>  (44) 
7

$$$$

     RDKit          3D

 54 57  0  0  0  0  0  0  0  0999 V2000
  141.1340   74.5240  220.8690 O   0  0  0  0  0  0  0  0  0  0  0  0
  140.2190   74.8580  221.6580 C   0  0  0  0  0  0  0  0  0  0  0  0
  139.3220   73.8380  222.0760 N   0  0  0  0  0  0  0  0  0  0  0  0
  139.5620   72.5030  221.5380 C   0  0  0  0  0  0  0  0  0  0  0  0
  138.6520   71.5410  222.1950 C   0  0  0  0  0  0  0  0  0  0  0  0
  137.7070   72.0110  222.8740 O   0  0  0  0  0  0  0  0  0  0  0  0
  138.9040   70.1600  222.0160 N   0  0  0  0  0  0  0  0  0  0  0  0
  139.0150   69.5560  220.6710 C   0  0  0  0  0  0  0  0  0  0  0  0
  138.3240   68.2230  220.7890 C   0  0  0  0  0  0  0  0  0  0  0  0
  137.2530   68.2050  221.8510 C   0  0  0  0  0  0  0  0  0  0  0  0
  137.7370   68.5360  223.2320 C   0  0  0  0  0  0  0  0  0  0  0  0
  139.0700   69.2170  223.1120 C   0  0  2  0  0  0  0  0  0  0  0  0
  139.5680   69.8220  224.3530 C   0  0  0  0  0  0  0  0  0  0  0  0
  139.0820   69.4170  225.5820 C   0  0  0  0  0  0  0  0  0  0  0  0
  139.5690   69.9960  226.7540 C   0  0  0  0  0  0  0  0  0  0  0  0
  140.5420   70.9800  226.7200 C   0  0  0  0  0  0  0  0  0  0  0  0
  141.0750   71.6120  227.9670 C   0  0  0  0  0  0  0  0  0  0  0  0
  141.9100   72.6700  227.7140 F   0  0  0  0  0  0  0  0  0  0  0  0
  141.7830   70.6870  228.7050 F   0  0  0  0  0  0  0  0  0  0  0  0
  140.0480   72.0710  228.7680 F   0  0  0  0  0  0  0  0  0  0  0  0
  141.0130   71.3690  225.4810 C   0  0  0  0  0  0  0  0  0  0  0  0
  140.5370   70.8020  224.2980 C   0  0  0  0  0  0  0  0  0  0  0  0
  140.0730   76.2290  222.1320 C   0  0  0  0  0  0  0  0  0  0  0  0
  138.7930   76.7320  222.2990 C   0  0  0  0  0  0  0  0  0  0  0  0
  138.5790   78.0090  222.7400 C   0  0  0  0  0  0  0  0  0  0  0  0
  139.6860   78.7980  223.0200 C   0  0  0  0  0  0  0  0  0  0  0  0
  139.4750   80.0880  223.4650 C   0  0  0  0  0  0  0  0  0  0  0  0
  140.5890   80.8530  223.7370 C   0  0  0  0  0  0  0  0  0  0  0  0
  141.8750   80.3540  223.5730 C   0  0  0  0  0  0  0  0  0  0  0  0
  142.0710   79.0720  223.1290 C   0  0  0  0  0  0  0  0  0  0  0  0
  140.9720   78.2830  222.8490 C   0  0  0  0  0  0  0  0  0  0  0  0
  141.1460   77.0130  222.4110 N   0  0  0  0  0  0  0  0  0  0  0  0
  138.5420   74.0420  222.7270 H   0  0  0  0  0  0  0  0  0  0  0  0
  139.3748   72.5045  220.4540 H   0  0  0  0  0  0  0  0  0  0  0  0
  140.6056   72.2114  221.7272 H   0  0  0  0  0  0  0  0  0  0  0  0
  138.5152   70.1864  219.9208 H   0  0  0  0  0  0  0  0  0  0  0  0
  140.0612   69.4538  220.3470 H   0  0  0  0  0  0  0  0  0  0  0  0
  137.8613   67.9813  219.8207 H   0  0  0  0  0  0  0  0  0  0  0  0
  139.0850   67.4829  221.0773 H   0  0  0  0  0  0  0  0  0  0  0  0
  136.4817   68.9383  221.5728 H   0  0  0  0  0  0  0  0  0  0  0  0
  136.8728   67.1736  221.8928 H   0  0  0  0  0  0  0  0  0  0  0  0
  137.0195   69.2069  223.7271 H   0  0  0  0  0  0  0  0  0  0  0  0
  137.8320   67.6184  223.8312 H   0  0  0  0  0  0  0  0  0  0  0  0
  139.8667   68.4874  222.9047 H   0  0  0  0  0  0  0  0  0  0  0  0
  138.3092   68.6361  225.6360 H   0  0  0  0  0  0  0  0  0  0  0  0
  139.1719   69.6640  227.7246 H   0  0  0  0  0  0  0  0  0  0  0  0
  141.7865   72.1491  225.4252 H   0  0  0  0  0  0  0  0  0  0  0  0
  140.9324   71.1348  223.3270 H   0  0  0  0  0  0  0  0  0  0  0  0
  137.9292   76.0899  222.0718 H   0  0  0  0  0  0  0  0  0  0  0  0
  137.5588   78.3995  222.8691 H   0  0  0  0  0  0  0  0  0  0  0  0
  138.4592   80.4889  223.5971 H   0  0  0  0  0  0  0  0  0  0  0  0
  140.4562   81.8852  224.0931 H   0  0  0  0  0  0  0  0  0  0  0  0
  142.7418   80.9918  223.8009 H   0  0  0  0  0  0  0  0  0  0  0  0
  143.0892   78.6769  222.9975 H   0  0  0  0  0  0  0  0  0  0  0  0
  1  2  2  0
  2  3  1  0
  3  4  1  0
  4  5  1  0
  5  6  2  0
  5  7  1  0
  7  8  1  0
  8  9  1  0
  9 10  1  0
 10 11  1  0
 11 12  1  0
 12 13  1  0
 13 14  2  0
 14 15  1  0
 15 16  2  0
 16 17  1  0
 17 18  1  0
 17 19  1  0
 17 20  1  0
 16 21  1  0
 21 22  2  0
  2 23  1  0
 23 24  2  0
 24 25  1  0
 25 26  2  0
 26 27  1  0
 27 28  2  0
 28 29  1  0
 29 30  2  0
 30 31  1  0
 31 32  2  0
 12  7  1  0
 22 13  1  0
 32 23  1  0
 31 26  1  0
  3 33  1  0
  4 34  1  0
  4 35  1  0
  8 36  1  0
  8 37  1  0
  9 38  1  0
  9 39  1  0
 10 40  1  0
 10 41  1  0
 11 42  1  0
 11 43  1  0
 12 44  1  6
 14 45  1  0
 15 46  1  0
 21 47  1  0
 22 48  1  0
 24 49  1  0
 25 50  1  0
 27 51  1  0
 28 52  1  0
 29 53  1  0
 30 54  1  0
M  END
>  <smiles>  (45) 
O=C(NCC(=O)N1CCCCC1c1ccc(C(F)(F)F)cc1)c1ccc2ccccc2n1

>  <score_type>  (45) 
oracle

>  <origin>  (45) 
autodockgpu

>  <m_score__min__energy>  (45) 
-8.3300000000000001

>  <m_primary>  (45) 
energy

>  <rmsd>  (45) 
8.110791862294388

>  <m_score__min__rmsd>  (45) 
8.110791862294388

>  <meeko>  (45) 
{"free_energy": -8.22, "intermolecular_energy": -10.01, "internal_energy": -1.86, "cluster_size": 8, "cluster_id": 2, "rank_in_cluster": 6}

>  <energy>  (45) 
-7.0

>  <cluster_rmsd>  (45) 
0.18

>  <cluster>  (45) 
7

$$$$

     RDKit          3D

 54 57  0  0  0  0  0  0  0  0999 V2000
  139.3340   70.7890  221.4730 O   0  0  0  0  0  0  0  0  0  0  0  0
  139.5150   71.3940  222.5560 C   0  0  0  0  0  0  0  0  0  0  0  0
  139.5490   72.8140  222.5040 N   0  0  0  0  0  0  0  0  0  0  0  0
  139.3690   73.4190  221.1890 C   0  0  0  0  0  0  0  0  0  0  0  0
  139.9040   74.7970  221.2090 C   0  0  0  0  0  0  0  0  0  0  0  0
  140.3180   75.2410  222.3070 O   0  0  0  0  0  0  0  0  0  0  0  0
  139.9160   75.5230  219.9930 N   0  0  0  0  0  0  0  0  0  0  0  0
  138.9070   76.5610  219.6970 C   0  0  0  0  0  0  0  0  0  0  0  0
  138.5910   76.3860  218.2340 C   0  0  0  0  0  0  0  0  0  0  0  0
  138.7990   74.9730  217.7510 C   0  0  0  0  0  0  0  0  0  0  0  0
  140.1950   74.4510  217.9310 C   0  0  0  0  0  0  0  0  0  0  0  0
  140.8960   75.3190  218.9360 C   0  0  2  0  0  0  0  0  0  0  0  0
  142.1850   74.8020  219.4060 C   0  0  0  0  0  0  0  0  0  0  0  0
  143.2270   75.6620  219.7030 C   0  0  0  0  0  0  0  0  0  0  0  0
  144.4450   75.1570  220.1560 C   0  0  0  0  0  0  0  0  0  0  0  0
  144.6450   73.7970  220.3210 C   0  0  0  0  0  0  0  0  0  0  0  0
  145.9450   73.2380  220.8060 C   0  0  0  0  0  0  0  0  0  0  0  0
  145.9710   73.0450  222.1620 F   0  0  0  0  0  0  0  0  0  0  0  0
  146.9800   74.0920  220.4840 F   0  0  0  0  0  0  0  0  0  0  0  0
  146.2180   72.0250  220.2040 F   0  0  0  0  0  0  0  0  0  0  0  0
  143.5910   72.9570  220.0190 C   0  0  0  0  0  0  0  0  0  0  0  0
  142.3640   73.4430  219.5630 C   0  0  0  0  0  0  0  0  0  0  0  0
  139.6850   70.6820  223.8180 C   0  0  0  0  0  0  0  0  0  0  0  0
  139.2690   69.3640  223.8860 C   0  0  0  0  0  0  0  0  0  0  0  0
  139.3950   68.6330  225.0350 C   0  0  0  0  0  0  0  0  0  0  0  0
  139.9570   69.2520  226.1440 C   0  0  0  0  0  0  0  0  0  0  0  0
  140.0870   68.5180  227.3070 C   0  0  0  0  0  0  0  0  0  0  0  0
  140.6470   69.1530  228.3950 C   0  0  0  0  0  0  0  0  0  0  0  0
  141.0670   70.4750  228.3320 C   0  0  0  0  0  0  0  0  0  0  0  0
  140.9320   71.1920  227.1720 C   0  0  0  0  0  0  0  0  0  0  0  0
  140.3740   70.5810  226.0660 C   0  0  0  0  0  0  0  0  0  0  0  0
  140.2320   71.2740  224.9100 N   0  0  0  0  0  0  0  0  0  0  0  0
  139.6950   73.3790  223.3600 H   0  0  0  0  0  0  0  0  0  0  0  0
  139.9076   72.8264  220.4348 H   0  0  0  0  0  0  0  0  0  0  0  0
  138.2985   73.4424  220.9370 H   0  0  0  0  0  0  0  0  0  0  0  0
  138.0053   76.4103  220.3087 H   0  0  0  0  0  0  0  0  0  0  0  0
  139.2739   77.5729  219.9240 H   0  0  0  0  0  0  0  0  0  0  0  0
  137.5394   76.6622  218.0671 H   0  0  0  0  0  0  0  0  0  0  0  0
  139.2799   77.0314  217.6692 H   0  0  0  0  0  0  0  0  0  0  0  0
  138.1127   74.3161  218.3056 H   0  0  0  0  0  0  0  0  0  0  0  0
  138.6063   74.9818  216.6681 H   0  0  0  0  0  0  0  0  0  0  0  0
  140.1603   73.4136  218.2952 H   0  0  0  0  0  0  0  0  0  0  0  0
  140.7337   74.4699  216.9721 H   0  0  0  0  0  0  0  0  0  0  0  0
  141.2099   76.2704  218.4819 H   0  0  0  0  0  0  0  0  0  0  0  0
  143.0943   76.7472  219.5814 H   0  0  0  0  0  0  0  0  0  0  0  0
  145.2643   75.8537  220.3872 H   0  0  0  0  0  0  0  0  0  0  0  0
  143.7223   71.8717  220.1415 H   0  0  0  0  0  0  0  0  0  0  0  0
  141.5450   72.7465  219.3303 H   0  0  0  0  0  0  0  0  0  0  0  0
  138.8268   68.8934  222.9955 H   0  0  0  0  0  0  0  0  0  0  0  0
  139.0611   67.5858  225.0795 H   0  0  0  0  0  0  0  0  0  0  0  0
  139.7573   67.4701  227.3627 H   0  0  0  0  0  0  0  0  0  0  0  0
  140.7641   68.5980  229.3375 H   0  0  0  0  0  0  0  0  0  0  0  0
  141.5111   70.9500  229.2192 H   0  0  0  0  0  0  0  0  0  0  0  0
  141.2635   72.2397  227.1223 H   0  0  0  0  0  0  0  0  0  0  0  0
  1  2  2  0
  2  3  1  0
  3  4  1  0
  4  5  1  0
  5  6  2  0
  5  7  1  0
  7  8  1  0
  8  9  1  0
  9 10  1  0
 10 11  1  0
 11 12  1  0
 12 13  1  0
 13 14  2  0
 14 15  1  0
 15 16  2  0
 16 17  1  0
 17 18  1  0
 17 19  1  0
 17 20  1  0
 16 21  1  0
 21 22  2  0
  2 23  1  0
 23 24  2  0
 24 25  1  0
 25 26  2  0
 26 27  1  0
 27 28  2  0
 28 29  1  0
 29 30  2  0
 30 31  1  0
 31 32  2  0
 12  7  1  0
 22 13  1  0
 32 23  1  0
 31 26  1  0
  3 33  1  0
  4 34  1  0
  4 35  1  0
  8 36  1  0
  8 37  1  0
  9 38  1  0
  9 39  1  0
 10 40  1  0
 10 41  1  0
 11 42  1  0
 11 43  1  0
 12 44  1  6
 14 45  1  0
 15 46  1  0
 21 47  1  0
 22 48  1  0
 24 49  1  0
 25 50  1  0
 27 51  1  0
 28 52  1  0
 29 53  1  0
 30 54  1  0
M  END
>  <smiles>  (46) 
O=C(NCC(=O)N1CCCCC1c1ccc(C(F)(F)F)cc1)c1ccc2ccccc2n1

>  <score_type>  (46) 
oracle

>  <origin>  (46) 
autodockgpu

>  <m_score__min__energy>  (46) 
-8.3300000000000001

>  <m_primary>  (46) 
energy

>  <rmsd>  (46) 
1.7627941575377681

>  <m_score__min__rmsd>  (46) 
1.7627941575377681

>  <meeko>  (46) 
{"free_energy": -7.77, "intermolecular_energy": -9.56, "internal_energy": -2.28, "cluster_size": 11, "cluster_id": 4, "rank_in_cluster": 8}

>  <energy>  (46) 
-6.96

>  <cluster_rmsd>  (46) 
0.19

>  <cluster>  (46) 
7

$$$$

     RDKit          3D

 54 57  0  0  0  0  0  0  0  0999 V2000
  140.9050   77.6180  218.4090 O   0  0  0  0  0  0  0  0  0  0  0  0
  141.8220   77.4070  219.2370 C   0  0  0  0  0  0  0  0  0  0  0  0
  142.2000   78.4920  220.0720 N   0  0  0  0  0  0  0  0  0  0  0  0
  141.4780   79.7450  219.8760 C   0  0  0  0  0  0  0  0  0  0  0  0
  140.2840   79.7610  220.7470 C   0  0  0  0  0  0  0  0  0  0  0  0
  139.1670   79.5900  220.2010 O   0  0  0  0  0  0  0  0  0  0  0  0
  140.4770   79.9680  222.1340 N   0  0  0  0  0  0  0  0  0  0  0  0
  140.4280   81.3180  222.7340 C   0  0  0  0  0  0  0  0  0  0  0  0
  141.5230   81.3200  223.7690 C   0  0  0  0  0  0  0  0  0  0  0  0
  142.6470   80.3690  223.4400 C   0  0  0  0  0  0  0  0  0  0  0  0
  142.2290   78.9350  223.2930 C   0  0  0  0  0  0  0  0  0  0  0  0
  140.7420   78.8980  223.0850 C   0  0  2  0  0  0  0  0  0  0  0  0
  140.2080   77.5930  222.6820 C   0  0  0  0  0  0  0  0  0  0  0  0
  138.8430   77.3750  222.6220 C   0  0  0  0  0  0  0  0  0  0  0  0
  138.3490   76.1310  222.2310 C   0  0  0  0  0  0  0  0  0  0  0  0
  139.1980   75.0920  221.8930 C   0  0  0  0  0  0  0  0  0  0  0  0
  138.6850   73.7520  221.4710 C   0  0  0  0  0  0  0  0  0  0  0  0
  138.7410   73.5620  220.1150 F   0  0  0  0  0  0  0  0  0  0  0  0
  137.3710   73.6010  221.8620 F   0  0  0  0  0  0  0  0  0  0  0  0
  139.4050   72.7350  222.0670 F   0  0  0  0  0  0  0  0  0  0  0  0
  140.5570   75.3330  221.9590 C   0  0  0  0  0  0  0  0  0  0  0  0
  141.0710   76.5700  222.3500 C   0  0  0  0  0  0  0  0  0  0  0  0
  142.4780   76.1090  219.3460 C   0  0  0  0  0  0  0  0  0  0  0  0
  141.8910   75.0240  218.7160 C   0  0  0  0  0  0  0  0  0  0  0  0
  142.4470   73.7760  218.7750 C   0  0  0  0  0  0  0  0  0  0  0  0
  143.6280   73.6210  219.4890 C   0  0  0  0  0  0  0  0  0  0  0  0
  144.1950   72.3630  219.5510 C   0  0  0  0  0  0  0  0  0  0  0  0
  145.3660   72.2320  220.2650 C   0  0  0  0  0  0  0  0  0  0  0  0
  145.9600   73.3160  220.8990 C   0  0  0  0  0  0  0  0  0  0  0  0
  145.3870   74.5590  220.8300 C   0  0  0  0  0  0  0  0  0  0  0  0
  144.2130   74.7190  220.1210 C   0  0  0  0  0  0  0  0  0  0  0  0
  143.6320   75.9410  220.0410 N   0  0  0  0  0  0  0  0  0  0  0  0
  142.9510   78.3890  220.7800 H   0  0  0  0  0  0  0  0  0  0  0  0
  142.1325   80.5907  220.1339 H   0  0  0  0  0  0  0  0  0  0  0  0
  141.1684   79.8318  218.8240 H   0  0  0  0  0  0  0  0  0  0  0  0
  140.6148   82.0880  221.9710 H   0  0  0  0  0  0  0  0  0  0  0  0
  139.4437   81.5424  223.1709 H   0  0  0  0  0  0  0  0  0  0  0  0
  141.9347   82.3375  223.8417 H   0  0  0  0  0  0  0  0  0  0  0  0
  141.0785   80.9879  224.7188 H   0  0  0  0  0  0  0  0  0  0  0  0
  143.1037   80.6921  222.4929 H   0  0  0  0  0  0  0  0  0  0  0  0
  143.3447   80.4049  224.2897 H   0  0  0  0  0  0  0  0  0  0  0  0
  142.7373   78.4860  222.4270 H   0  0  0  0  0  0  0  0  0  0  0  0
  142.5006   78.3660  224.1944 H   0  0  0  0  0  0  0  0  0  0  0  0
  140.2084   79.0546  224.0341 H   0  0  0  0  0  0  0  0  0  0  0  0
  138.1459   78.1848  222.8833 H   0  0  0  0  0  0  0  0  0  0  0  0
  137.2613   75.9723  222.1904 H   0  0  0  0  0  0  0  0  0  0  0  0
  141.2552   74.5249  221.6952 H   0  0  0  0  0  0  0  0  0  0  0  0
  142.1587   76.7282  222.3932 H   0  0  0  0  0  0  0  0  0  0  0  0
  140.9559   75.1696  218.1553 H   0  0  0  0  0  0  0  0  0  0  0  0
  141.9729   72.9204  218.2719 H   0  0  0  0  0  0  0  0  0  0  0  0
  143.7304   71.5006  219.0505 H   0  0  0  0  0  0  0  0  0  0  0  0
  145.8430   71.2433  220.3349 H   0  0  0  0  0  0  0  0  0  0  0  0
  146.8959   73.1758  221.4598 H   0  0  0  0  0  0  0  0  0  0  0  0
  145.8560   75.4177  221.3327 H   0  0  0  0  0  0  0  0  0  0  0  0
  1  2  2  0
  2  3  1  0
  3  4  1  0
  4  5  1  0
  5  6  2  0
  5  7  1  0
  7  8  1  0
  8  9  1  0
  9 10  1  0
 10 11  1  0
 11 12  1  0
 12 13  1  0
 13 14  2  0
 14 15  1  0
 15 16  2  0
 16 17  1  0
 17 18  1  0
 17 19  1  0
 17 20  1  0
 16 21  1  0
 21 22  2  0
  2 23  1  0
 23 24  2  0
 24 25  1  0
 25 26  2  0
 26 27  1  0
 27 28  2  0
 28 29  1  0
 29 30  2  0
 30 31  1  0
 31 32  2  0
 12  7  1  0
 22 13  1  0
 32 23  1  0
 31 26  1  0
  3 33  1  0
  4 34  1  0
  4 35  1  0
  8 36  1  0
  8 37  1  0
  9 38  1  0
  9 39  1  0
 10 40  1  0
 10 41  1  0
 11 42  1  0
 11 43  1  0
 12 44  1  1
 14 45  1  0
 15 46  1  0
 21 47  1  0
 22 48  1  0
 24 49  1  0
 25 50  1  0
 27 51  1  0
 28 52  1  0
 29 53  1  0
 30 54  1  0
M  END
>  <smiles>  (47) 
O=C(NCC(=O)N1CCCCC1c1ccc(C(F)(F)F)cc1)c1ccc2ccccc2n1

>  <score_type>  (47) 
oracle

>  <origin>  (47) 
autodockgpu

>  <m_score__min__energy>  (47) 
-8.3300000000000001

>  <m_primary>  (47) 
energy

>  <rmsd>  (47) 
7.554730034981463

>  <m_score__min__rmsd>  (47) 
7.554730034981463

>  <meeko>  (47) 
{"free_energy": -6.96, "intermolecular_energy": -8.75, "internal_energy": -2.91, "cluster_size": 10, "cluster_id": 7, "rank_in_cluster": 6}

>  <energy>  (47) 
-6.95

>  <cluster_rmsd>  (47) 
0.22

>  <cluster>  (47) 
7

$$$$

     RDKit          3D

 54 57  0  0  0  0  0  0  0  0999 V2000
  134.3010   70.4210  225.4820 O   0  0  0  0  0  0  0  0  0  0  0  0
  134.6310   71.6250  225.3680 C   0  0  0  0  0  0  0  0  0  0  0  0
  135.7610   71.9110  224.5570 N   0  0  0  0  0  0  0  0  0  0  0  0
  136.4240   70.7670  223.9400 C   0  0  0  0  0  0  0  0  0  0  0  0
  137.3810   71.2470  222.9230 C   0  0  0  0  0  0  0  0  0  0  0  0
  137.3970   72.4780  222.6790 O   0  0  0  0  0  0  0  0  0  0  0  0
  138.2150   70.2930  222.2910 N   0  0  0  0  0  0  0  0  0  0  0  0
  138.2150   70.1090  220.8240 C   0  0  0  0  0  0  0  0  0  0  0  0
  138.3340   68.6210  220.6220 C   0  0  0  0  0  0  0  0  0  0  0  0
  137.7660   67.8230  221.7690 C   0  0  0  0  0  0  0  0  0  0  0  0
  138.3990   68.1040  223.1000 C   0  0  0  0  0  0  0  0  0  0  0  0
  139.1280   69.4130  223.0060 C   0  0  2  0  0  0  0  0  0  0  0  0
  139.5970   69.9520  224.2880 C   0  0  0  0  0  0  0  0  0  0  0  0
  139.2190   69.3650  225.4820 C   0  0  0  0  0  0  0  0  0  0  0  0
  139.6780   69.8840  226.6930 C   0  0  0  0  0  0  0  0  0  0  0  0
  140.5150   70.9860  226.7340 C   0  0  0  0  0  0  0  0  0  0  0  0
  141.0160   71.5540  228.0240 C   0  0  0  0  0  0  0  0  0  0  0  0
  140.0070   71.9720  228.8510 F   0  0  0  0  0  0  0  0  0  0  0  0
  141.8340   72.6380  227.7800 F   0  0  0  0  0  0  0  0  0  0  0  0
  141.7690   70.6250  228.7160 F   0  0  0  0  0  0  0  0  0  0  0  0
  140.8790   71.5540  225.5290 C   0  0  0  0  0  0  0  0  0  0  0  0
  140.4300   71.0510  224.3070 C   0  0  0  0  0  0  0  0  0  0  0  0
  133.8920   72.6910  226.0340 C   0  0  0  0  0  0  0  0  0  0  0  0
  132.7650   72.3510  226.7630 C   0  0  0  0  0  0  0  0  0  0  0  0
  132.0210   73.2970  227.4140 C   0  0  0  0  0  0  0  0  0  0  0  0
  132.4280   74.6220  227.3250 C   0  0  0  0  0  0  0  0  0  0  0  0
  131.6820   75.5810  227.9810 C   0  0  0  0  0  0  0  0  0  0  0  0
  132.1040   76.8890  227.8790 C   0  0  0  0  0  0  0  0  0  0  0  0
  133.2340   77.2360  227.1500 C   0  0  0  0  0  0  0  0  0  0  0  0
  133.9660   76.2750  226.5040 C   0  0  0  0  0  0  0  0  0  0  0  0
  133.5660   74.9560  226.5890 C   0  0  0  0  0  0  0  0  0  0  0  0
  134.2770   73.9910  225.9570 N   0  0  0  0  0  0  0  0  0  0  0  0
  136.0900   72.8840  224.4180 H   0  0  0  0  0  0  0  0  0  0  0  0
  136.9624   70.1951  224.7101 H   0  0  0  0  0  0  0  0  0  0  0  0
  135.6734   70.1197  223.4629 H   0  0  0  0  0  0  0  0  0  0  0  0
  137.2787   70.4857  220.3864 H   0  0  0  0  0  0  0  0  0  0  0  0
  139.0325   70.6605  220.3367 H   0  0  0  0  0  0  0  0  0  0  0  0
  137.7939   68.3477  219.7035 H   0  0  0  0  0  0  0  0  0  0  0  0
  139.4058   68.3829  220.5545 H   0  0  0  0  0  0  0  0  0  0  0  0
  136.6921   68.0488  221.8454 H   0  0  0  0  0  0  0  0  0  0  0  0
  137.9699   66.7657  221.5441 H   0  0  0  0  0  0  0  0  0  0  0  0
  137.6220   68.1654  223.8762 H   0  0  0  0  0  0  0  0  0  0  0  0
  139.0986   67.2978  223.3657 H   0  0  0  0  0  0  0  0  0  0  0  0
  140.0816   69.2930  222.4710 H   0  0  0  0  0  0  0  0  0  0  0  0
  138.5555   68.4877  225.4768 H   0  0  0  0  0  0  0  0  0  0  0  0
  139.3684   69.4076  227.6349 H   0  0  0  0  0  0  0  0  0  0  0  0
  141.5437   72.4304  225.5324 H   0  0  0  0  0  0  0  0  0  0  0  0
  140.7385   71.5281  223.3651 H   0  0  0  0  0  0  0  0  0  0  0  0
  132.4606   71.2955  226.8201 H   0  0  0  0  0  0  0  0  0  0  0  0
  131.1272   73.0165  227.9906 H   0  0  0  0  0  0  0  0  0  0  0  0
  130.7872   75.3119  228.5615 H   0  0  0  0  0  0  0  0  0  0  0  0
  131.5312   77.6782  228.3879 H   0  0  0  0  0  0  0  0  0  0  0  0
  133.5434   78.2899  227.0909 H   0  0  0  0  0  0  0  0  0  0  0  0
  134.8602   76.5502  225.9255 H   0  0  0  0  0  0  0  0  0  0  0  0
  1  2  2  0
  2  3  1  0
  3  4  1  0
  4  5  1  0
  5  6  2  0
  5  7  1  0
  7  8  1  0
  8  9  1  0
  9 10  1  0
 10 11  1  0
 11 12  1  0
 12 13  1  0
 13 14  2  0
 14 15  1  0
 15 16  2  0
 16 17  1  0
 17 18  1  0
 17 19  1  0
 17 20  1  0
 16 21  1  0
 21 22  2  0
  2 23  1  0
 23 24  2  0
 24 25  1  0
 25 26  2  0
 26 27  1  0
 27 28  2  0
 28 29  1  0
 29 30  2  0
 30 31  1  0
 31 32  2  0
 12  7  1  0
 22 13  1  0
 32 23  1  0
 31 26  1  0
  3 33  1  0
  4 34  1  0
  4 35  1  0
  8 36  1  0
  8 37  1  0
  9 38  1  0
  9 39  1  0
 10 40  1  0
 10 41  1  0
 11 42  1  0
 11 43  1  0
 12 44  1  6
 14 45  1  0
 15 46  1  0
 21 47  1  0
 22 48  1  0
 24 49  1  0
 25 50  1  0
 27 51  1  0
 28 52  1  0
 29 53  1  0
 30 54  1  0
M  END
>  <smiles>  (48) 
O=C(NCC(=O)N1CCCCC1c1ccc(C(F)(F)F)cc1)c1ccc2ccccc2n1

>  <score_type>  (48) 
oracle

>  <origin>  (48) 
autodockgpu

>  <m_score__min__energy>  (48) 
-8.3300000000000001

>  <m_primary>  (48) 
energy

>  <rmsd>  (48) 
8.04132126826939

>  <m_score__min__rmsd>  (48) 
8.04132126826939

>  <meeko>  (48) 
{"free_energy": -7.44, "intermolecular_energy": -9.23, "internal_energy": -2.28, "cluster_size": 1, "cluster_id": 5, "rank_in_cluster": 1}

>  <energy>  (48) 
-6.92

>  <cluster_rmsd>  (48) 
0.5

>  <cluster>  (48) 
7

$$$$

     RDKit          3D

 54 57  0  0  0  0  0  0  0  0999 V2000
  139.8910   71.0900  221.3670 O   0  0  0  0  0  0  0  0  0  0  0  0
  139.8060   71.6780  222.4710 C   0  0  0  0  0  0  0  0  0  0  0  0
  139.6580   73.0900  222.4410 N   0  0  0  0  0  0  0  0  0  0  0  0
  139.6210   73.7110  221.1200 C   0  0  0  0  0  0  0  0  0  0  0  0
  140.4410   74.9400  221.1360 C   0  0  0  0  0  0  0  0  0  0  0  0
  140.6800   75.4620  222.2520 O   0  0  0  0  0  0  0  0  0  0  0  0
  140.9010   75.4480  219.8960 N   0  0  0  0  0  0  0  0  0  0  0  0
  140.8710   74.6330  218.6630 C   0  0  0  0  0  0  0  0  0  0  0  0
  142.1540   74.9710  217.9480 C   0  0  0  0  0  0  0  0  0  0  0  0
  143.2560   75.4000  218.8840 C   0  0  0  0  0  0  0  0  0  0  0  0
  142.9300   76.6000  219.7240 C   0  0  0  0  0  0  0  0  0  0  0  0
  141.4410   76.7870  219.7180 C   0  0  2  0  0  0  0  0  0  0  0  0
  140.9380   77.7690  220.6860 C   0  0  0  0  0  0  0  0  0  0  0  0
  139.5900   78.0720  220.7510 C   0  0  0  0  0  0  0  0  0  0  0  0
  139.1250   79.0020  221.6810 C   0  0  0  0  0  0  0  0  0  0  0  0
  139.9880   79.6390  222.5550 C   0  0  0  0  0  0  0  0  0  0  0  0
  139.5060   80.6400  223.5580 C   0  0  0  0  0  0  0  0  0  0  0  0
  138.7180   80.0820  224.5310 F   0  0  0  0  0  0  0  0  0  0  0  0
  138.7690   81.6230  222.9340 F   0  0  0  0  0  0  0  0  0  0  0  0
  140.5680   81.2630  224.1850 F   0  0  0  0  0  0  0  0  0  0  0  0
  141.3300   79.3210  222.4720 C   0  0  0  0  0  0  0  0  0  0  0  0
  141.8140   78.3940  221.5480 C   0  0  0  0  0  0  0  0  0  0  0  0
  139.8560   70.9530  223.7360 C   0  0  0  0  0  0  0  0  0  0  0  0
  139.3700   69.6570  223.7670 C   0  0  0  0  0  0  0  0  0  0  0  0
  139.3830   68.9160  224.9160 C   0  0  0  0  0  0  0  0  0  0  0  0
  139.9020   69.5000  226.0640 C   0  0  0  0  0  0  0  0  0  0  0  0
  139.9180   68.7560  227.2270 C   0  0  0  0  0  0  0  0  0  0  0  0
  140.4370   69.3560  228.3540 C   0  0  0  0  0  0  0  0  0  0  0  0
  140.9280   70.6560  228.3290 C   0  0  0  0  0  0  0  0  0  0  0  0
  140.9060   71.3840  227.1680 C   0  0  0  0  0  0  0  0  0  0  0  0
  140.3900   70.8070  226.0240 C   0  0  0  0  0  0  0  0  0  0  0  0
  140.3600   71.5110  224.8660 N   0  0  0  0  0  0  0  0  0  0  0  0
  139.5820   73.6410  223.3150 H   0  0  0  0  0  0  0  0  0  0  0  0
  140.0230   73.0106  220.3731 H   0  0  0  0  0  0  0  0  0  0  0  0
  138.5825   73.9638  220.8602 H   0  0  0  0  0  0  0  0  0  0  0  0
  140.8343   73.5612  218.9076 H   0  0  0  0  0  0  0  0  0  0  0  0
  139.9841   74.8434  218.0472 H   0  0  0  0  0  0  0  0  0  0  0  0
  142.4910   74.0824  217.3941 H   0  0  0  0  0  0  0  0  0  0  0  0
  141.9436   75.8178  217.2781 H   0  0  0  0  0  0  0  0  0  0  0  0
  143.4802   74.5600  219.5579 H   0  0  0  0  0  0  0  0  0  0  0  0
  144.1094   75.6849  218.2511 H   0  0  0  0  0  0  0  0  0  0  0  0
  143.2809   76.4397  220.7541 H   0  0  0  0  0  0  0  0  0  0  0  0
  143.4265   77.4937  219.3181 H   0  0  0  0  0  0  0  0  0  0  0  0
  141.1063   77.2393  218.7728 H   0  0  0  0  0  0  0  0  0  0  0  0
  138.8830   77.5785  220.0678 H   0  0  0  0  0  0  0  0  0  0  0  0
  138.0504   79.2336  221.7203 H   0  0  0  0  0  0  0  0  0  0  0  0
  142.0382   79.8133  223.1548 H   0  0  0  0  0  0  0  0  0  0  0  0
  142.8887   78.1631  221.5076 H   0  0  0  0  0  0  0  0  0  0  0  0
  138.9640   69.2132  222.8460 H   0  0  0  0  0  0  0  0  0  0  0  0
  138.9937   67.8873  224.9306 H   0  0  0  0  0  0  0  0  0  0  0  0
  139.5322   67.7262  227.2530 H   0  0  0  0  0  0  0  0  0  0  0  0
  140.4633   68.7914  229.2977 H   0  0  0  0  0  0  0  0  0  0  0  0
  141.3369   71.1035  229.2469 H   0  0  0  0  0  0  0  0  0  0  0  0
  141.2938   72.4132  227.1475 H   0  0  0  0  0  0  0  0  0  0  0  0
  1  2  2  0
  2  3  1  0
  3  4  1  0
  4  5  1  0
  5  6  2  0
  5  7  1  0
  7  8  1  0
  8  9  1  0
  9 10  1  0
 10 11  1  0
 11 12  1  0
 12 13  1  0
 13 14  2  0
 14 15  1  0
 15 16  2  0
 16 17  1  0
 17 18  1  0
 17 19  1  0
 17 20  1  0
 16 21  1  0
 21 22  2  0
  2 23  1  0
 23 24  2  0
 24 25  1  0
 25 26  2  0
 26 27  1  0
 27 28  2  0
 28 29  1  0
 29 30  2  0
 30 31  1  0
 31 32  2  0
 12  7  1  0
 22 13  1  0
 32 23  1  0
 31 26  1  0
  3 33  1  0
  4 34  1  0
  4 35  1  0
  8 36  1  0
  8 37  1  0
  9 38  1  0
  9 39  1  0
 10 40  1  0
 10 41  1  0
 11 42  1  0
 11 43  1  0
 12 44  1  6
 14 45  1  0
 15 46  1  0
 21 47  1  0
 22 48  1  0
 24 49  1  0
 25 50  1  0
 27 51  1  0
 28 52  1  0
 29 53  1  0
 30 54  1  0
M  END
>  <smiles>  (49) 
O=C(NCC(=O)N1CCCCC1c1ccc(C(F)(F)F)cc1)c1ccc2ccccc2n1

>  <score_type>  (49) 
oracle

>  <origin>  (49) 
autodockgpu

>  <m_score__min__energy>  (49) 
-8.3300000000000001

>  <m_primary>  (49) 
energy

>  <rmsd>  (49) 
1.5188147363610087

>  <m_score__min__rmsd>  (49) 
1.5188147363610087

>  <meeko>  (49) 
{"free_energy": -8.11, "intermolecular_energy": -9.9, "internal_energy": -1.9, "cluster_size": 12, "cluster_id": 1, "rank_in_cluster": 5}

>  <energy>  (49) 
-6.91

>  <cluster_rmsd>  (49) 
0.25

>  <cluster>  (49) 
7

$$$$

     RDKit          3D

 54 57  0  0  0  0  0  0  0  0999 V2000
  139.2550   70.6820  221.4900 O   0  0  0  0  0  0  0  0  0  0  0  0
  139.5000   71.2890  222.5580 C   0  0  0  0  0  0  0  0  0  0  0  0
  139.6180   72.7030  222.4850 N   0  0  0  0  0  0  0  0  0  0  0  0
  139.4420   73.3020  221.1660 C   0  0  0  0  0  0  0  0  0  0  0  0
  139.9510   74.6890  221.1880 C   0  0  0  0  0  0  0  0  0  0  0  0
  140.3660   75.1360  222.2850 O   0  0  0  0  0  0  0  0  0  0  0  0
  139.9360   75.4220  219.9760 N   0  0  0  0  0  0  0  0  0  0  0  0
  138.9150   76.4550  219.7040 C   0  0  0  0  0  0  0  0  0  0  0  0
  138.5730   76.2860  218.2460 C   0  0  0  0  0  0  0  0  0  0  0  0
  138.7830   74.8760  217.7520 C   0  0  0  0  0  0  0  0  0  0  0  0
  140.1840   74.3620  217.9040 C   0  0  0  0  0  0  0  0  0  0  0  0
  140.8970   75.2300  218.9010 C   0  0  2  0  0  0  0  0  0  0  0  0
  142.1990   74.7180  219.3450 C   0  0  0  0  0  0  0  0  0  0  0  0
  143.1180   75.5560  219.9500 C   0  0  0  0  0  0  0  0  0  0  0  0
  144.3490   75.0540  220.3740 C   0  0  0  0  0  0  0  0  0  0  0  0
  144.6810   73.7210  220.2050 C   0  0  0  0  0  0  0  0  0  0  0  0
  145.9960   73.1670  220.6540 C   0  0  0  0  0  0  0  0  0  0  0  0
  146.3090   71.9770  220.0490 F   0  0  0  0  0  0  0  0  0  0  0  0
  145.9830   72.9540  222.0160 F   0  0  0  0  0  0  0  0  0  0  0  0
  147.0230   74.0530  220.3910 F   0  0  0  0  0  0  0  0  0  0  0  0
  143.7470   72.9040  219.5980 C   0  0  0  0  0  0  0  0  0  0  0  0
  142.5100   73.3870  219.1670 C   0  0  0  0  0  0  0  0  0  0  0  0
  139.6580   70.5850  223.8260 C   0  0  0  0  0  0  0  0  0  0  0  0
  139.2040   69.2800  223.9100 C   0  0  0  0  0  0  0  0  0  0  0  0
  139.3170   68.5570  225.0660 C   0  0  0  0  0  0  0  0  0  0  0  0
  139.9060   69.1690  226.1640 C   0  0  0  0  0  0  0  0  0  0  0  0
  140.0230   68.4440  227.3330 C   0  0  0  0  0  0  0  0  0  0  0  0
  140.6100   69.0710  228.4100 C   0  0  0  0  0  0  0  0  0  0  0  0
  141.0690   70.3800  228.3320 C   0  0  0  0  0  0  0  0  0  0  0  0
  140.9460   71.0900  227.1660 C   0  0  0  0  0  0  0  0  0  0  0  0
  140.3610   70.4850  226.0700 C   0  0  0  0  0  0  0  0  0  0  0  0
  140.2320   71.1700  224.9080 N   0  0  0  0  0  0  0  0  0  0  0  0
  139.8200   73.2700  223.3300 H   0  0  0  0  0  0  0  0  0  0  0  0
  139.9999   72.7176  220.4196 H   0  0  0  0  0  0  0  0  0  0  0  0
  138.3741   73.3054  220.9022 H   0  0  0  0  0  0  0  0  0  0  0  0
  138.0257   76.2952  220.3314 H   0  0  0  0  0  0  0  0  0  0  0  0
  139.2797   77.4680  219.9296 H   0  0  0  0  0  0  0  0  0  0  0  0
  137.5164   76.5551  218.1001 H   0  0  0  0  0  0  0  0  0  0  0  0
  139.2457   76.9400  217.6718 H   0  0  0  0  0  0  0  0  0  0  0  0
  138.1111   74.2117  218.3152 H   0  0  0  0  0  0  0  0  0  0  0  0
  138.5720   74.8898  216.6725 H   0  0  0  0  0  0  0  0  0  0  0  0
  140.1623   73.3226  218.2635 H   0  0  0  0  0  0  0  0  0  0  0  0
  140.7055   74.3884  216.9358 H   0  0  0  0  0  0  0  0  0  0  0  0
  141.1958   76.1862  218.4466 H   0  0  0  0  0  0  0  0  0  0  0  0
  142.8782   76.6194  220.0971 H   0  0  0  0  0  0  0  0  0  0  0  0
  145.0709   75.7321  220.8527 H   0  0  0  0  0  0  0  0  0  0  0  0
  143.9851   71.8404  219.4497 H   0  0  0  0  0  0  0  0  0  0  0  0
  141.7878   72.7094  218.6882 H   0  0  0  0  0  0  0  0  0  0  0  0
  138.7419   68.8137  223.0274 H   0  0  0  0  0  0  0  0  0  0  0  0
  138.9518   67.5210  225.1237 H   0  0  0  0  0  0  0  0  0  0  0  0
  139.6620   67.4072  227.4017 H   0  0  0  0  0  0  0  0  0  0  0  0
  140.7181   68.5209  229.3564 H   0  0  0  0  0  0  0  0  0  0  0  0
  141.5340   70.8495  229.2114 H   0  0  0  0  0  0  0  0  0  0  0  0
  141.3079   72.1269  227.1036 H   0  0  0  0  0  0  0  0  0  0  0  0
  1  2  2  0
  2  3  1  0
  3  4  1  0
  4  5  1  0
  5  6  2  0
  5  7  1  0
  7  8  1  0
  8  9  1  0
  9 10  1  0
 10 11  1  0
 11 12  1  0
 12 13  1  0
 13 14  2  0
 14 15  1  0
 15 16  2  0
 16 17  1  0
 17 18  1  0
 17 19  1  0
 17 20  1  0
 16 21  1  0
 21 22  2  0
  2 23  1  0
 23 24  2  0
 24 25  1  0
 25 26  2  0
 26 27  1  0
 27 28  2  0
 28 29  1  0
 29 30  2  0
 30 31  1  0
 31 32  2  0
 12  7  1  0
 22 13  1  0
 32 23  1  0
 31 26  1  0
  3 33  1  0
  4 34  1  0
  4 35  1  0
  8 36  1  0
  8 37  1  0
  9 38  1  0
  9 39  1  0
 10 40  1  0
 10 41  1  0
 11 42  1  0
 11 43  1  0
 12 44  1  6
 14 45  1  0
 15 46  1  0
 21 47  1  0
 22 48  1  0
 24 49  1  0
 25 50  1  0
 27 51  1  0
 28 52  1  0
 29 53  1  0
 30 54  1  0
M  END
>  <smiles>  (50) 
O=C(NCC(=O)N1CCCCC1c1ccc(C(F)(F)F)cc1)c1ccc2ccccc2n1

>  <score_type>  (50) 
oracle

>  <origin>  (50) 
autodockgpu

>  <m_score__min__energy>  (50) 
-8.3300000000000001

>  <m_primary>  (50) 
energy

>  <rmsd>  (50) 
1.7875940476662193

>  <m_score__min__rmsd>  (50) 
1.7875940476662193

>  <meeko>  (50) 
{"free_energy": -7.55, "intermolecular_energy": -9.34, "internal_energy": -2.3, "cluster_size": 11, "cluster_id": 4, "rank_in_cluster": 11}

>  <energy>  (50) 
-6.79

>  <cluster_rmsd>  (50) 
0.44

>  <cluster>  (50) 
7

$$$$

     RDKit          3D

 54 57  0  0  0  0  0  0  0  0999 V2000
  140.2520   70.9970  221.3020 O   0  0  0  0  0  0  0  0  0  0  0  0
  140.0130   71.6240  222.3660 C   0  0  0  0  0  0  0  0  0  0  0  0
  139.7640   73.0210  222.4160 N   0  0  0  0  0  0  0  0  0  0  0  0
  139.7730   73.8230  221.2070 C   0  0  0  0  0  0  0  0  0  0  0  0
  139.7800   75.2520  221.6060 C   0  0  0  0  0  0  0  0  0  0  0  0
  139.3000   75.5490  222.7330 O   0  0  0  0  0  0  0  0  0  0  0  0
  140.3210   76.2580  220.7240 N   0  0  0  0  0  0  0  0  0  0  0  0
  140.0730   76.1350  219.3040 C   0  0  0  0  0  0  0  0  0  0  0  0
  141.2900   76.5530  218.5410 C   0  0  0  0  0  0  0  0  0  0  0  0
  141.7870   77.9180  218.9630 C   0  0  0  0  0  0  0  0  0  0  0  0
  142.0380   78.0230  220.4270 C   0  0  0  0  0  0  0  0  0  0  0  0
  141.0800   77.3320  221.3230 C   0  0  1  0  0  0  0  0  0  0  0  0
  140.1910   78.2840  222.0620 C   0  0  0  0  0  0  0  0  0  0  0  0
  138.8740   78.4950  221.6990 C   0  0  0  0  0  0  0  0  0  0  0  0
  138.0440   79.3750  222.3800 C   0  0  0  0  0  0  0  0  0  0  0  0
  138.5180   80.0730  223.4540 C   0  0  0  0  0  0  0  0  0  0  0  0
  137.5920   81.0000  224.1480 C   0  0  0  0  0  0  0  0  0  0  0  0
  137.4090   82.1390  223.3860 F   0  0  0  0  0  0  0  0  0  0  0  0
  136.3610   80.3760  224.2130 F   0  0  0  0  0  0  0  0  0  0  0  0
  138.0050   81.3170  225.4240 F   0  0  0  0  0  0  0  0  0  0  0  0
  139.8260   79.8760  223.8310 C   0  0  0  0  0  0  0  0  0  0  0  0
  140.6430   79.0070  223.1560 C   0  0  0  0  0  0  0  0  0  0  0  0
  139.9850   70.8850  223.6430 C   0  0  0  0  0  0  0  0  0  0  0  0
  139.4610   69.5940  223.6800 C   0  0  0  0  0  0  0  0  0  0  0  0
  139.4160   68.8730  224.8510 C   0  0  0  0  0  0  0  0  0  0  0  0
  139.9100   69.4690  225.9900 C   0  0  0  0  0  0  0  0  0  0  0  0
  139.8950   68.8010  227.2010 C   0  0  0  0  0  0  0  0  0  0  0  0
  140.3940   69.4060  228.3460 C   0  0  0  0  0  0  0  0  0  0  0  0
  140.9210   70.6870  228.3370 C   0  0  0  0  0  0  0  0  0  0  0  0
  140.9210   71.3320  227.1080 C   0  0  0  0  0  0  0  0  0  0  0  0
  140.4360   70.7620  225.9610 C   0  0  0  0  0  0  0  0  0  0  0  0
  140.4540   71.4190  224.7860 N   0  0  0  0  0  0  0  0  0  0  0  0
  139.5690   73.4790  223.3540 H   0  0  0  0  0  0  0  0  0  0  0  0
  140.6719   73.5961  220.6150 H   0  0  0  0  0  0  0  0  0  0  0  0
  138.8868   73.6012  220.5942 H   0  0  0  0  0  0  0  0  0  0  0  0
  139.8327   75.0887  219.0642 H   0  0  0  0  0  0  0  0  0  0  0  0
  139.2282   76.7817  219.0246 H   0  0  0  0  0  0  0  0  0  0  0  0
  142.0878   75.8160  218.7149 H   0  0  0  0  0  0  0  0  0  0  0  0
  141.0197   76.6060  217.4760 H   0  0  0  0  0  0  0  0  0  0  0  0
  142.7267   78.1280  218.4311 H   0  0  0  0  0  0  0  0  0  0  0  0
  141.0000   78.6446  218.7129 H   0  0  0  0  0  0  0  0  0  0  0  0
  143.0368   77.6063  220.6237 H   0  0  0  0  0  0  0  0  0  0  0  0
  141.9290   79.0924  220.6607 H   0  0  0  0  0  0  0  0  0  0  0  0
  141.7361   76.8343  222.0523 H   0  0  0  0  0  0  0  0  0  0  0  0
  138.4681   77.9445  220.8375 H   0  0  0  0  0  0  0  0  0  0  0  0
  137.0022   79.5104  222.0539 H   0  0  0  0  0  0  0  0  0  0  0  0
  140.2255   80.4286  224.6941 H   0  0  0  0  0  0  0  0  0  0  0  0
  141.6832   78.8797  223.4902 H   0  0  0  0  0  0  0  0  0  0  0  0
  139.0755   69.1423  222.7540 H   0  0  0  0  0  0  0  0  0  0  0  0
  138.9996   67.8552  224.8765 H   0  0  0  0  0  0  0  0  0  0  0  0
  139.4843   67.7821  227.2570 H   0  0  0  0  0  0  0  0  0  0  0  0
  140.3702   68.8487  229.2940 H   0  0  0  0  0  0  0  0  0  0  0  0
  141.3149   71.1633  229.2470 H   0  0  0  0  0  0  0  0  0  0  0  0
  141.3308   72.3513  227.0525 H   0  0  0  0  0  0  0  0  0  0  0  0
  1  2  2  0
  2  3  1  0
  3  4  1  0
  4  5  1  0
  5  6  2  0
  5  7  1  0
  7  8  1  0
  8  9  1  0
  9 10  1  0
 10 11  1  0
 11 12  1  0
 12 13  1  0
 13 14  2  0
 14 15  1  0
 15 16  2  0
 16 17  1  0
 17 18  1  0
 17 19  1  0
 17 20  1  0
 16 21  1  0
 21 22  2  0
  2 23  1  0
 23 24  2  0
 24 25  1  0
 25 26  2  0
 26 27  1  0
 27 28  2  0
 28 29  1  0
 29 30  2  0
 30 31  1  0
 31 32  2  0
 12  7  1  0
 22 13  1  0
 32 23  1  0
 31 26  1  0
  3 33  1  0
  4 34  1  0
  4 35  1  0
  8 36  1  0
  8 37  1  0
  9 38  1  0
  9 39  1  0
 10 40  1  0
 10 41  1  0
 11 42  1  0
 11 43  1  0
 12 44  1  1
 14 45  1  0
 15 46  1  0
 21 47  1  0
 22 48  1  0
 24 49  1  0
 25 50  1  0
 27 51  1  0
 28 52  1  0
 29 53  1  0
 30 54  1  0
M  END
>  <smiles>  (51) 
O=C(NCC(=O)N1CCCCC1c1ccc(C(F)(F)F)cc1)c1ccc2ccccc2n1

>  <score_type>  (51) 
oracle

>  <origin>  (51) 
autodockgpu

>  <m_score__min__energy>  (51) 
-8.4100000000000001

>  <m_primary>  (51) 
energy

>  <rmsd>  (51) 
1.6395176277360621

>  <m_score__min__rmsd>  (51) 
1.6395176277360621

>  <meeko>  (51) 
{"free_energy": -8.21, "intermolecular_energy": -10.0, "internal_energy": -2.12, "cluster_size": 16, "cluster_id": 1, "rank_in_cluster": 8}

>  <energy>  (51) 
-8.41

>  <cluster_rmsd>  (51) 
0.0

>  <cluster>  (51) 
1

$$$$

     RDKit          3D

 54 57  0  0  0  0  0  0  0  0999 V2000
  139.7510   71.0310  221.2850 O   0  0  0  0  0  0  0  0  0  0  0  0
  139.7230   71.6830  222.3600 C   0  0  0  0  0  0  0  0  0  0  0  0
  139.5860   73.0960  222.4200 N   0  0  0  0  0  0  0  0  0  0  0  0
  139.4680   73.8840  221.2080 C   0  0  0  0  0  0  0  0  0  0  0  0
  139.8350   75.2850  221.5350 C   0  0  0  0  0  0  0  0  0  0  0  0
  139.6020   75.6940  222.7040 O   0  0  0  0  0  0  0  0  0  0  0  0
  140.4380   76.1370  220.5390 N   0  0  0  0  0  0  0  0  0  0  0  0
  140.3730   77.5700  220.7270 C   0  0  0  0  0  0  0  0  0  0  0  0
  140.1510   78.2420  219.4100 C   0  0  0  0  0  0  0  0  0  0  0  0
  141.1570   77.8030  218.3690 C   0  0  0  0  0  0  0  0  0  0  0  0
  141.2070   76.3260  218.1890 C   0  0  0  0  0  0  0  0  0  0  0  0
  141.0740   75.4970  219.4110 C   0  0  1  0  0  0  0  0  0  0  0  0
  142.3620   74.8430  219.8080 C   0  0  0  0  0  0  0  0  0  0  0  0
  143.5410   75.5540  219.9340 C   0  0  0  0  0  0  0  0  0  0  0  0
  144.7370   74.9540  220.3020 C   0  0  0  0  0  0  0  0  0  0  0  0
  144.7830   73.6120  220.5550 C   0  0  0  0  0  0  0  0  0  0  0  0
  146.0850   73.0200  220.9450 C   0  0  0  0  0  0  0  0  0  0  0  0
  147.0840   73.9690  220.8380 F   0  0  0  0  0  0  0  0  0  0  0  0
  146.0020   72.6960  222.2860 F   0  0  0  0  0  0  0  0  0  0  0  0
  146.3970   71.8850  220.2260 F   0  0  0  0  0  0  0  0  0  0  0  0
  143.6200   72.8890  220.4360 C   0  0  0  0  0  0  0  0  0  0  0  0
  142.4410   73.4830  220.0720 C   0  0  0  0  0  0  0  0  0  0  0  0
  139.8380   70.9600  223.6410 C   0  0  0  0  0  0  0  0  0  0  0  0
  139.4600   69.6200  223.7110 C   0  0  0  0  0  0  0  0  0  0  0  0
  139.5510   68.9110  224.8870 C   0  0  0  0  0  0  0  0  0  0  0  0
  140.0320   69.5700  225.9970 C   0  0  0  0  0  0  0  0  0  0  0  0
  140.1490   68.9170  227.2100 C   0  0  0  0  0  0  0  0  0  0  0  0
  140.6340   69.5850  228.3260 C   0  0  0  0  0  0  0  0  0  0  0  0
  141.0170   70.9150  228.2840 C   0  0  0  0  0  0  0  0  0  0  0  0
  140.8870   71.5430  227.0530 C   0  0  0  0  0  0  0  0  0  0  0  0
  140.4130   70.9110  225.9350 C   0  0  0  0  0  0  0  0  0  0  0  0
  140.3010   71.5540  224.7560 N   0  0  0  0  0  0  0  0  0  0  0  0
  139.5710   73.5750  223.3670 H   0  0  0  0  0  0  0  0  0  0  0  0
  140.1480   73.4897  220.4385 H   0  0  0  0  0  0  0  0  0  0  0  0
  138.4394   73.8385  220.8208 H   0  0  0  0  0  0  0  0  0  0  0  0
  139.5420   77.8123  221.4057 H   0  0  0  0  0  0  0  0  0  0  0  0
  141.3199   77.9235  221.1611 H   0  0  0  0  0  0  0  0  0  0  0  0
  139.1404   77.9957  219.0523 H   0  0  0  0  0  0  0  0  0  0  0  0
  140.2694   79.3254  219.5589 H   0  0  0  0  0  0  0  0  0  0  0  0
  140.8884   78.2637  217.4069 H   0  0  0  0  0  0  0  0  0  0  0  0
  142.1497   78.1240  218.7175 H   0  0  0  0  0  0  0  0  0  0  0  0
  140.3904   76.0464  217.5071 H   0  0  0  0  0  0  0  0  0  0  0  0
  142.2180   76.1172  217.8092 H   0  0  0  0  0  0  0  0  0  0  0  0
  140.3675   74.7121  219.1033 H   0  0  0  0  0  0  0  0  0  0  0  0
  143.5307   76.6358  219.7351 H   0  0  0  0  0  0  0  0  0  0  0  0
  145.6505   75.5604  220.3903 H   0  0  0  0  0  0  0  0  0  0  0  0
  143.6367   71.8078  220.6379 H   0  0  0  0  0  0  0  0  0  0  0  0
  141.5339   72.8666  219.9868 H   0  0  0  0  0  0  0  0  0  0  0  0
  139.0813   69.1191  222.8078 H   0  0  0  0  0  0  0  0  0  0  0  0
  139.2499   67.8543  224.9389 H   0  0  0  0  0  0  0  0  0  0  0  0
  139.8555   67.8600  227.2914 H   0  0  0  0  0  0  0  0  0  0  0  0
  140.7170   69.0386  229.2771 H   0  0  0  0  0  0  0  0  0  0  0  0
  141.4003   71.4410  229.1708 H   0  0  0  0  0  0  0  0  0  0  0  0
  141.1792   72.6004  226.9718 H   0  0  0  0  0  0  0  0  0  0  0  0
  1  2  2  0
  2  3  1  0
  3  4  1  0
  4  5  1  0
  5  6  2  0
  5  7  1  0
  7  8  1  0
  8  9  1  0
  9 10  1  0
 10 11  1  0
 11 12  1  0
 12 13  1  0
 13 14  2  0
 14 15  1  0
 15 16  2  0
 16 17  1  0
 17 18  1  0
 17 19  1  0
 17 20  1  0
 16 21  1  0
 21 22  2  0
  2 23  1  0
 23 24  2  0
 24 25  1  0
 25 26  2  0
 26 27  1  0
 27 28  2  0
 28 29  1  0
 29 30  2  0
 30 31  1  0
 31 32  2  0
 12  7  1  0
 22 13  1  0
 32 23  1  0
 31 26  1  0
  3 33  1  0
  4 34  1  0
  4 35  1  0
  8 36  1  0
  8 37  1  0
  9 38  1  0
  9 39  1  0
 10 40  1  0
 10 41  1  0
 11 42  1  0
 11 43  1  0
 12 44  1  6
 14 45  1  0
 15 46  1  0
 21 47  1  0
 22 48  1  0
 24 49  1  0
 25 50  1  0
 27 51  1  0
 28 52  1  0
 29 53  1  0
 30 54  1  0
M  END
>  <smiles>  (52) 
O=C(NCC(=O)N1CCCCC1c1ccc(C(F)(F)F)cc1)c1ccc2ccccc2n1

>  <score_type>  (52) 
oracle

>  <origin>  (52) 
autodockgpu

>  <m_score__min__energy>  (52) 
-8.4100000000000001

>  <m_primary>  (52) 
energy

>  <rmsd>  (52) 
1.9068219175732013

>  <m_score__min__rmsd>  (52) 
1.9068219175732013

>  <meeko>  (52) 
{"free_energy": -8.15, "intermolecular_energy": -9.94, "internal_energy": -2.39, "cluster_size": 18, "cluster_id": 3, "rank_in_cluster": 10}

>  <energy>  (52) 
-8.39

>  <cluster_rmsd>  (52) 
0.36

>  <cluster>  (52) 
1

$$$$

     RDKit          3D

 54 57  0  0  0  0  0  0  0  0999 V2000
  140.8130   71.5860  221.3260 O   0  0  0  0  0  0  0  0  0  0  0  0
  140.3390   72.1630  222.3370 C   0  0  0  0  0  0  0  0  0  0  0  0
  139.9150   73.5180  222.3430 N   0  0  0  0  0  0  0  0  0  0  0  0
  140.0090   74.3330  221.1460 C   0  0  0  0  0  0  0  0  0  0  0  0
  140.2350   75.7390  221.5660 C   0  0  0  0  0  0  0  0  0  0  0  0
  139.7090   76.1200  222.6450 O   0  0  0  0  0  0  0  0  0  0  0  0
  141.0330   76.6270  220.7560 N   0  0  0  0  0  0  0  0  0  0  0  0
  141.4180   77.9070  221.3100 C   0  0  0  0  0  0  0  0  0  0  0  0
  141.3630   78.9550  220.2440 C   0  0  0  0  0  0  0  0  0  0  0  0
  142.1470   78.5570  219.0130 C   0  0  0  0  0  0  0  0  0  0  0  0
  141.7360   77.2380  218.4570 C   0  0  0  0  0  0  0  0  0  0  0  0
  141.4010   76.1750  219.4330 C   0  0  1  0  0  0  0  0  0  0  0  0
  142.4400   75.0980  219.4930 C   0  0  0  0  0  0  0  0  0  0  0  0
  142.2300   73.8420  218.9550 C   0  0  0  0  0  0  0  0  0  0  0  0
  143.1890   72.8390  219.0070 C   0  0  0  0  0  0  0  0  0  0  0  0
  144.3950   73.0730  219.6050 C   0  0  0  0  0  0  0  0  0  0  0  0
  145.3850   71.9700  219.6340 C   0  0  0  0  0  0  0  0  0  0  0  0
  144.7650   70.7910  220.0030 F   0  0  0  0  0  0  0  0  0  0  0  0
  145.8280   71.7840  218.3380 F   0  0  0  0  0  0  0  0  0  0  0  0
  146.4670   72.2390  220.4450 F   0  0  0  0  0  0  0  0  0  0  0  0
  144.6220   74.3160  220.1450 C   0  0  0  0  0  0  0  0  0  0  0  0
  143.6730   75.3040  220.0930 C   0  0  0  0  0  0  0  0  0  0  0  0
  140.2080   71.4080  223.5980 C   0  0  0  0  0  0  0  0  0  0  0  0
  139.5950   70.1560  223.5890 C   0  0  0  0  0  0  0  0  0  0  0  0
  139.4530   69.4210  224.7440 C   0  0  0  0  0  0  0  0  0  0  0  0
  139.9380   69.9640  225.9140 C   0  0  0  0  0  0  0  0  0  0  0  0
  139.8280   69.2780  227.1100 C   0  0  0  0  0  0  0  0  0  0  0  0
  140.3190   69.8290  228.2860 C   0  0  0  0  0  0  0  0  0  0  0  0
  140.9320   71.0710  228.3210 C   0  0  0  0  0  0  0  0  0  0  0  0
  141.0270   71.7340  227.1060 C   0  0  0  0  0  0  0  0  0  0  0  0
  140.5530   71.2170  225.9300 C   0  0  0  0  0  0  0  0  0  0  0  0
  140.6640   71.8900  224.7690 N   0  0  0  0  0  0  0  0  0  0  0  0
  139.5240   73.9350  223.2370 H   0  0  0  0  0  0  0  0  0  0  0  0
  140.8493   73.9891  220.5250 H   0  0  0  0  0  0  0  0  0  0  0  0
  139.0841   74.2540  220.5558 H   0  0  0  0  0  0  0  0  0  0  0  0
  140.7277   78.1760  222.1231 H   0  0  0  0  0  0  0  0  0  0  0  0
  142.4434   77.8403  221.7027 H   0  0  0  0  0  0  0  0  0  0  0  0
  140.3129   79.1160  219.9589 H   0  0  0  0  0  0  0  0  0  0  0  0
  141.8123   79.8738  220.6491 H   0  0  0  0  0  0  0  0  0  0  0  0
  141.9969   79.3246  218.2395 H   0  0  0  0  0  0  0  0  0  0  0  0
  143.2024   78.4717  219.3110 H   0  0  0  0  0  0  0  0  0  0  0  0
  140.8485   77.4041  217.8286 H   0  0  0  0  0  0  0  0  0  0  0  0
  142.6199   76.8653  217.9187 H   0  0  0  0  0  0  0  0  0  0  0  0
  140.4769   75.7430  219.0213 H   0  0  0  0  0  0  0  0  0  0  0  0
  141.2672   73.6291  218.4675 H   0  0  0  0  0  0  0  0  0  0  0  0
  142.9772   71.8539  218.5658 H   0  0  0  0  0  0  0  0  0  0  0  0
  145.5873   74.5230  220.6301 H   0  0  0  0  0  0  0  0  0  0  0  0
  143.8953   76.2849  220.5385 H   0  0  0  0  0  0  0  0  0  0  0  0
  139.2173   69.7474  222.6401 H   0  0  0  0  0  0  0  0  0  0  0  0
  138.9687   68.4334  224.7335 H   0  0  0  0  0  0  0  0  0  0  0  0
  139.3479   68.2885  227.1296 H   0  0  0  0  0  0  0  0  0  0  0  0
  140.2179   69.2600  229.2219 H   0  0  0  0  0  0  0  0  0  0  0  0
  141.3195   71.5047  229.2547 H   0  0  0  0  0  0  0  0  0  0  0  0
  141.5067   72.7237  227.0864 H   0  0  0  0  0  0  0  0  0  0  0  0
  1  2  2  0
  2  3  1  0
  3  4  1  0
  4  5  1  0
  5  6  2  0
  5  7  1  0
  7  8  1  0
  8  9  1  0
  9 10  1  0
 10 11  1  0
 11 12  1  0
 12 13  1  0
 13 14  2  0
 14 15  1  0
 15 16  2  0
 16 17  1  0
 17 18  1  0
 17 19  1  0
 17 20  1  0
 16 21  1  0
 21 22  2  0
  2 23  1  0
 23 24  2  0
 24 25  1  0
 25 26  2  0
 26 27  1  0
 27 28  2  0
 28 29  1  0
 29 30  2  0
 30 31  1  0
 31 32  2  0
 12  7  1  0
 22 13  1  0
 32 23  1  0
 31 26  1  0
  3 33  1  0
  4 34  1  0
  4 35  1  0
  8 36  1  0
  8 37  1  0
  9 38  1  0
  9 39  1  0
 10 40  1  0
 10 41  1  0
 11 42  1  0
 11 43  1  0
 12 44  1  6
 14 45  1  0
 15 46  1  0
 21 47  1  0
 22 48  1  0
 24 49  1  0
 25 50  1  0
 27 51  1  0
 28 52  1  0
 29 53  1  0
 30 54  1  0
M  END
>  <smiles>  (53) 
O=C(NCC(=O)N1CCCCC1c1ccc(C(F)(F)F)cc1)c1ccc2ccccc2n1

>  <score_type>  (53) 
oracle

>  <origin>  (53) 
autodockgpu

>  <m_score__min__energy>  (53) 
-8.4100000000000001

>  <m_primary>  (53) 
energy

>  <rmsd>  (53) 
2.3674216517785647

>  <m_score__min__rmsd>  (53) 
2.3674216517785647

>  <meeko>  (53) 
{"free_energy": -8.27, "intermolecular_energy": -10.06, "internal_energy": -2.19, "cluster_size": 18, "cluster_id": 3, "rank_in_cluster": 5}

>  <energy>  (53) 
-8.29

>  <cluster_rmsd>  (53) 
1.7

>  <cluster>  (53) 
1

$$$$

     RDKit          3D

 54 57  0  0  0  0  0  0  0  0999 V2000
  140.1130   70.9670  221.2930 O   0  0  0  0  0  0  0  0  0  0  0  0
  139.9260   71.6010  222.3630 C   0  0  0  0  0  0  0  0  0  0  0  0
  139.7270   73.0060  222.4200 N   0  0  0  0  0  0  0  0  0  0  0  0
  139.7270   73.8080  221.2100 C   0  0  0  0  0  0  0  0  0  0  0  0
  139.7460   75.2380  221.6100 C   0  0  0  0  0  0  0  0  0  0  0  0
  139.2510   75.5410  222.7270 O   0  0  0  0  0  0  0  0  0  0  0  0
  140.3170   76.2360  220.7370 N   0  0  0  0  0  0  0  0  0  0  0  0
  140.0830   76.1220  219.3140 C   0  0  0  0  0  0  0  0  0  0  0  0
  141.3170   76.5180  218.5670 C   0  0  0  0  0  0  0  0  0  0  0  0
  141.8350   77.8720  218.9990 C   0  0  0  0  0  0  0  0  0  0  0  0
  142.0710   77.9680  220.4670 C   0  0  0  0  0  0  0  0  0  0  0  0
  141.0890   77.2930  221.3490 C   0  0  1  0  0  0  0  0  0  0  0  0
  140.2100   78.2590  222.0810 C   0  0  0  0  0  0  0  0  0  0  0  0
  138.8860   78.4560  221.7370 C   0  0  0  0  0  0  0  0  0  0  0  0
  138.0660   79.3490  222.4120 C   0  0  0  0  0  0  0  0  0  0  0  0
  138.5560   80.0760  223.4590 C   0  0  0  0  0  0  0  0  0  0  0  0
  137.6400   81.0170  224.1470 C   0  0  0  0  0  0  0  0  0  0  0  0
  137.4990   82.1690  223.3970 F   0  0  0  0  0  0  0  0  0  0  0  0
  136.3920   80.4220  224.1790 F   0  0  0  0  0  0  0  0  0  0  0  0
  138.0340   81.3060  225.4360 F   0  0  0  0  0  0  0  0  0  0  0  0
  139.8710   79.8940  223.8160 C   0  0  0  0  0  0  0  0  0  0  0  0
  140.6790   79.0110  223.1480 C   0  0  0  0  0  0  0  0  0  0  0  0
  139.9110   70.8630  223.6410 C   0  0  0  0  0  0  0  0  0  0  0  0
  139.4040   69.5650  223.6790 C   0  0  0  0  0  0  0  0  0  0  0  0
  139.3710   68.8450  224.8510 C   0  0  0  0  0  0  0  0  0  0  0  0
  139.8580   69.4490  225.9890 C   0  0  0  0  0  0  0  0  0  0  0  0
  139.8550   68.7800  227.2000 C   0  0  0  0  0  0  0  0  0  0  0  0
  140.3460   69.3930  228.3440 C   0  0  0  0  0  0  0  0  0  0  0  0
  140.8550   70.6820  228.3330 C   0  0  0  0  0  0  0  0  0  0  0  0
  140.8450   71.3260  227.1040 C   0  0  0  0  0  0  0  0  0  0  0  0
  140.3670   70.7480  225.9580 C   0  0  0  0  0  0  0  0  0  0  0  0
  140.3730   71.4050  224.7820 N   0  0  0  0  0  0  0  0  0  0  0  0
  139.5750   73.4700  223.3620 H   0  0  0  0  0  0  0  0  0  0  0  0
  140.6182   73.5764  220.6082 H   0  0  0  0  0  0  0  0  0  0  0  0
  138.8334   73.5909  220.6065 H   0  0  0  0  0  0  0  0  0  0  0  0
  139.8248   75.0814  219.0681 H   0  0  0  0  0  0  0  0  0  0  0  0
  139.2543   76.7859  219.0267 H   0  0  0  0  0  0  0  0  0  0  0  0
  142.0982   75.7652  218.7485 H   0  0  0  0  0  0  0  0  0  0  0  0
  141.0610   76.5788  217.4989 H   0  0  0  0  0  0  0  0  0  0  0  0
  142.7846   78.0655  218.4787 H   0  0  0  0  0  0  0  0  0  0  0  0
  141.0649   78.6143  218.7420 H   0  0  0  0  0  0  0  0  0  0  0  0
  143.0591   77.5313  220.6741 H   0  0  0  0  0  0  0  0  0  0  0  0
  141.9805   79.0386  220.7029 H   0  0  0  0  0  0  0  0  0  0  0  0
  141.7265   76.7805  222.0845 H   0  0  0  0  0  0  0  0  0  0  0  0
  138.4665   77.8834  220.8966 H   0  0  0  0  0  0  0  0  0  0  0  0
  137.0176   79.4717  222.1026 H   0  0  0  0  0  0  0  0  0  0  0  0
  140.2843   80.4702  224.6570 H   0  0  0  0  0  0  0  0  0  0  0  0
  141.7257   78.8958  223.4661 H   0  0  0  0  0  0  0  0  0  0  0  0
  139.0229   69.1075  222.7541 H   0  0  0  0  0  0  0  0  0  0  0  0
  138.9692   67.8214  224.8782 H   0  0  0  0  0  0  0  0  0  0  0  0
  139.4605   67.7547  227.2564 H   0  0  0  0  0  0  0  0  0  0  0  0
  140.3307   68.8364  229.2927 H   0  0  0  0  0  0  0  0  0  0  0  0
  141.2429   71.1646  229.2422 H   0  0  0  0  0  0  0  0  0  0  0  0
  141.2403   72.3509  227.0473 H   0  0  0  0  0  0  0  0  0  0  0  0
  1  2  2  0
  2  3  1  0
  3  4  1  0
  4  5  1  0
  5  6  2  0
  5  7  1  0
  7  8  1  0
  8  9  1  0
  9 10  1  0
 10 11  1  0
 11 12  1  0
 12 13  1  0
 13 14  2  0
 14 15  1  0
 15 16  2  0
 16 17  1  0
 17 18  1  0
 17 19  1  0
 17 20  1  0
 16 21  1  0
 21 22  2  0
  2 23  1  0
 23 24  2  0
 24 25  1  0
 25 26  2  0
 26 27  1  0
 27 28  2  0
 28 29  1  0
 29 30  2  0
 30 31  1  0
 31 32  2  0
 12  7  1  0
 22 13  1  0
 32 23  1  0
 31 26  1  0
  3 33  1  0
  4 34  1  0
  4 35  1  0
  8 36  1  0
  8 37  1  0
  9 38  1  0
  9 39  1  0
 10 40  1  0
 10 41  1  0
 11 42  1  0
 11 43  1  0
 12 44  1  1
 14 45  1  0
 15 46  1  0
 21 47  1  0
 22 48  1  0
 24 49  1  0
 25 50  1  0
 27 51  1  0
 28 52  1  0
 29 53  1  0
 30 54  1  0
M  END
>  <smiles>  (54) 
O=C(NCC(=O)N1CCCCC1c1ccc(C(F)(F)F)cc1)c1ccc2ccccc2n1

>  <score_type>  (54) 
oracle

>  <origin>  (54) 
autodockgpu

>  <m_score__min__energy>  (54) 
-8.4100000000000001

>  <m_primary>  (54) 
energy

>  <rmsd>  (54) 
1.6324252001541273

>  <m_score__min__rmsd>  (54) 
1.6324252001541273

>  <meeko>  (54) 
{"free_energy": -8.22, "intermolecular_energy": -10.01, "internal_energy": -2.13, "cluster_size": 16, "cluster_id": 1, "rank_in_cluster": 7}

>  <energy>  (54) 
-8.28

>  <cluster_rmsd>  (54) 
1.78

>  <cluster>  (54) 
1

$$$$

     RDKit          3D

 54 57  0  0  0  0  0  0  0  0999 V2000
  141.3910   71.7380  221.5510 O   0  0  0  0  0  0  0  0  0  0  0  0
  140.5850   72.1380  222.4300 C   0  0  0  0  0  0  0  0  0  0  0  0
  139.9020   73.3820  222.3640 N   0  0  0  0  0  0  0  0  0  0  0  0
  140.1040   74.2830  221.2450 C   0  0  0  0  0  0  0  0  0  0  0  0
  139.8530   75.6660  221.7210 C   0  0  0  0  0  0  0  0  0  0  0  0
  139.2060   75.8090  222.7930 O   0  0  0  0  0  0  0  0  0  0  0  0
  140.3390   76.8000  220.9720 N   0  0  0  0  0  0  0  0  0  0  0  0
  140.2230   76.7740  219.5300 C   0  0  0  0  0  0  0  0  0  0  0  0
  141.4390   77.3910  218.9150 C   0  0  0  0  0  0  0  0  0  0  0  0
  141.7330   78.7610  219.4850 C   0  0  0  0  0  0  0  0  0  0  0  0
  141.8500   78.7660  220.9700 C   0  0  0  0  0  0  0  0  0  0  0  0
  140.9130   77.8960  221.7180 C   0  0  1  0  0  0  0  0  0  0  0  0
  139.8590   78.6730  222.4450 C   0  0  0  0  0  0  0  0  0  0  0  0
  140.1480   79.4510  223.5510 C   0  0  0  0  0  0  0  0  0  0  0  0
  139.1760   80.1740  224.2280 C   0  0  0  0  0  0  0  0  0  0  0  0
  137.8760   80.1360  223.8120 C   0  0  0  0  0  0  0  0  0  0  0  0
  136.8760   80.9260  224.5690 C   0  0  0  0  0  0  0  0  0  0  0  0
  135.6830   80.2310  224.6390 F   0  0  0  0  0  0  0  0  0  0  0  0
  137.3380   81.0330  225.8680 F   0  0  0  0  0  0  0  0  0  0  0  0
  136.6870   82.1900  224.0520 F   0  0  0  0  0  0  0  0  0  0  0  0
  137.5690   79.3680  222.7130 C   0  0  0  0  0  0  0  0  0  0  0  0
  138.5300   78.6550  222.0460 C   0  0  0  0  0  0  0  0  0  0  0  0
  140.3220   71.2830  223.6040 C   0  0  0  0  0  0  0  0  0  0  0  0
  139.6220   70.0880  223.4410 C   0  0  0  0  0  0  0  0  0  0  0  0
  139.3560   69.2640  224.5110 C   0  0  0  0  0  0  0  0  0  0  0  0
  139.8050   69.6580  225.7520 C   0  0  0  0  0  0  0  0  0  0  0  0
  139.5720   68.8770  226.8680 C   0  0  0  0  0  0  0  0  0  0  0  0
  140.0260   69.2780  228.1170 C   0  0  0  0  0  0  0  0  0  0  0  0
  140.7230   70.4600  228.3060 C   0  0  0  0  0  0  0  0  0  0  0  0
  140.9420   71.2220  227.1660 C   0  0  0  0  0  0  0  0  0  0  0  0
  140.5060   70.8530  225.9220 C   0  0  0  0  0  0  0  0  0  0  0  0
  140.7370   71.6190  224.8390 N   0  0  0  0  0  0  0  0  0  0  0  0
  139.2370   73.6490  223.1460 H   0  0  0  0  0  0  0  0  0  0  0  0
  141.1370   74.1962  220.8772 H   0  0  0  0  0  0  0  0  0  0  0  0
  139.4189   74.0311  220.4221 H   0  0  0  0  0  0  0  0  0  0  0  0
  140.1296   75.7322  219.1894 H   0  0  0  0  0  0  0  0  0  0  0  0
  139.3323   77.3434  219.2259 H   0  0  0  0  0  0  0  0  0  0  0  0
  142.3025   76.7360  219.1029 H   0  0  0  0  0  0  0  0  0  0  0  0
  141.2518   77.5059  217.8371 H   0  0  0  0  0  0  0  0  0  0  0  0
  142.6808   79.1211  219.0584 H   0  0  0  0  0  0  0  0  0  0  0  0
  140.8872   79.4130  219.2216 H   0  0  0  0  0  0  0  0  0  0  0  0
  142.8724   78.4495  221.2241 H   0  0  0  0  0  0  0  0  0  0  0  0
  141.5950   79.7917  221.2748 H   0  0  0  0  0  0  0  0  0  0  0  0
  141.5636   77.4135  222.4622 H   0  0  0  0  0  0  0  0  0  0  0  0
  141.1875   79.4986  223.9076 H   0  0  0  0  0  0  0  0  0  0  0  0
  139.4538   80.7800  225.1030 H   0  0  0  0  0  0  0  0  0  0  0  0
  136.5276   79.3253  222.3615 H   0  0  0  0  0  0  0  0  0  0  0  0
  138.2408   78.0529  221.1720 H   0  0  0  0  0  0  0  0  0  0  0  0
  139.2757   69.7983  222.4379 H   0  0  0  0  0  0  0  0  0  0  0  0
  138.8032   68.3221  224.3793 H   0  0  0  0  0  0  0  0  0  0  0  0
  139.0222   67.9297  226.7657 H   0  0  0  0  0  0  0  0  0  0  0  0
  139.8253   68.6350  228.9866 H   0  0  0  0  0  0  0  0  0  0  0  0
  141.0807   70.7753  229.2973 H   0  0  0  0  0  0  0  0  0  0  0  0
  141.4929   72.1687  227.2676 H   0  0  0  0  0  0  0  0  0  0  0  0
  1  2  2  0
  2  3  1  0
  3  4  1  0
  4  5  1  0
  5  6  2  0
  5  7  1  0
  7  8  1  0
  8  9  1  0
  9 10  1  0
 10 11  1  0
 11 12  1  0
 12 13  1  0
 13 14  2  0
 14 15  1  0
 15 16  2  0
 16 17  1  0
 17 18  1  0
 17 19  1  0
 17 20  1  0
 16 21  1  0
 21 22  2  0
  2 23  1  0
 23 24  2  0
 24 25  1  0
 25 26  2  0
 26 27  1  0
 27 28  2  0
 28 29  1  0
 29 30  2  0
 30 31  1  0
 31 32  2  0
 12  7  1  0
 22 13  1  0
 32 23  1  0
 31 26  1  0
  3 33  1  0
  4 34  1  0
  4 35  1  0
  8 36  1  0
  8 37  1  0
  9 38  1  0
  9 39  1  0
 10 40  1  0
 10 41  1  0
 11 42  1  0
 11 43  1  0
 12 44  1  1
 14 45  1  0
 15 46  1  0
 21 47  1  0
 22 48  1  0
 24 49  1  0
 25 50  1  0
 27 51  1  0
 28 52  1  0
 29 53  1  0
 30 54  1  0
M  END
>  <smiles>  (55) 
O=C(NCC(=O)N1CCCCC1c1ccc(C(F)(F)F)cc1)c1ccc2ccccc2n1

>  <score_type>  (55) 
oracle

>  <origin>  (55) 
autodockgpu

>  <m_score__min__energy>  (55) 
-8.4100000000000001

>  <m_primary>  (55) 
energy

>  <rmsd>  (55) 
2.09870918627821

>  <m_score__min__rmsd>  (55) 
2.09870918627821

>  <meeko>  (55) 
{"free_energy": -8.32, "intermolecular_energy": -10.11, "internal_energy": -1.96, "cluster_size": 3, "cluster_id": 2, "rank_in_cluster": 1}

>  <energy>  (55) 
-8.27

>  <cluster_rmsd>  (55) 
1.83

>  <cluster>  (55) 
1

$$$$

     RDKit          3D

 54 57  0  0  0  0  0  0  0  0999 V2000
  137.2810   76.1730  222.4290 O   0  0  0  0  0  0  0  0  0  0  0  0
  138.5320   76.2870  222.3780 C   0  0  0  0  0  0  0  0  0  0  0  0
  139.4040   75.2250  222.0160 N   0  0  0  0  0  0  0  0  0  0  0  0
  138.8810   73.9150  221.6750 C   0  0  0  0  0  0  0  0  0  0  0  0
  139.9520   72.9180  221.9210 C   0  0  0  0  0  0  0  0  0  0  0  0
  141.0720   73.3430  222.3110 O   0  0  0  0  0  0  0  0  0  0  0  0
  139.7050   71.5100  221.7160 N   0  0  0  0  0  0  0  0  0  0  0  0
  140.4440   70.8250  220.6780 C   0  0  0  0  0  0  0  0  0  0  0  0
  139.5530   69.8360  219.9950 C   0  0  0  0  0  0  0  0  0  0  0  0
  138.8690   68.9110  220.9770 C   0  0  0  0  0  0  0  0  0  0  0  0
  138.1130   69.6360  222.0360 C   0  0  0  0  0  0  0  0  0  0  0  0
  138.7290   70.8740  222.5710 C   0  0  1  0  0  0  0  0  0  0  0  0
  139.2500   70.7050  223.9650 C   0  0  0  0  0  0  0  0  0  0  0  0
  138.7300   69.7670  224.8370 C   0  0  0  0  0  0  0  0  0  0  0  0
  139.2090   69.6050  226.1290 C   0  0  0  0  0  0  0  0  0  0  0  0
  140.2320   70.3860  226.5860 C   0  0  0  0  0  0  0  0  0  0  0  0
  140.7070   70.1740  227.9740 C   0  0  0  0  0  0  0  0  0  0  0  0
  141.4280   71.2740  228.3980 F   0  0  0  0  0  0  0  0  0  0  0  0
  139.5890   70.1080  228.7840 F   0  0  0  0  0  0  0  0  0  0  0  0
  141.4380   69.0140  228.1200 F   0  0  0  0  0  0  0  0  0  0  0  0
  140.7620   71.3240  225.7320 C   0  0  0  0  0  0  0  0  0  0  0  0
  140.2880   71.4830  224.4570 C   0  0  0  0  0  0  0  0  0  0  0  0
  139.1490   77.5860  222.7100 C   0  0  0  0  0  0  0  0  0  0  0  0
  138.3350   78.6710  223.0300 C   0  0  0  0  0  0  0  0  0  0  0  0
  138.8720   79.8990  223.3440 C   0  0  0  0  0  0  0  0  0  0  0  0
  140.2440   80.0210  223.3330 C   0  0  0  0  0  0  0  0  0  0  0  0
  140.8490   81.2270  223.6390 C   0  0  0  0  0  0  0  0  0  0  0  0
  142.2320   81.3450  223.6260 C   0  0  0  0  0  0  0  0  0  0  0  0
  143.0620   80.2820  223.3120 C   0  0  0  0  0  0  0  0  0  0  0  0
  142.4260   79.0860  223.0090 C   0  0  0  0  0  0  0  0  0  0  0  0
  141.0650   78.9380  223.0130 C   0  0  0  0  0  0  0  0  0  0  0  0
  140.4830   77.7610  222.7140 N   0  0  0  0  0  0  0  0  0  0  0  0
  140.4510   75.3990  221.9960 H   0  0  0  0  0  0  0  0  0  0  0  0
  138.0067   73.6868  222.3023 H   0  0  0  0  0  0  0  0  0  0  0  0
  138.5689   73.8897  220.6205 H   0  0  0  0  0  0  0  0  0  0  0  0
  140.8077   71.5583  219.9431 H   0  0  0  0  0  0  0  0  0  0  0  0
  141.2986   70.2972  221.1264 H   0  0  0  0  0  0  0  0  0  0  0  0
  138.7845   70.3830  219.4291 H   0  0  0  0  0  0  0  0  0  0  0  0
  140.1774   69.2212  219.3301 H   0  0  0  0  0  0  0  0  0  0  0  0
  138.1674   68.2699  220.4231 H   0  0  0  0  0  0  0  0  0  0  0  0
  139.6549   68.3266  221.4779 H   0  0  0  0  0  0  0  0  0  0  0  0
  137.1321   69.9066  221.6181 H   0  0  0  0  0  0  0  0  0  0  0  0
  138.0764   68.9420  222.8887 H   0  0  0  0  0  0  0  0  0  0  0  0
  137.8851   71.5789  222.6012 H   0  0  0  0  0  0  0  0  0  0  0  0
  137.9055   69.1249  224.4937 H   0  0  0  0  0  0  0  0  0  0  0  0
  138.7633   68.8449  226.7875 H   0  0  0  0  0  0  0  0  0  0  0  0
  141.5869   71.9624  226.0813 H   0  0  0  0  0  0  0  0  0  0  0  0
  140.7413   72.2461  223.8072 H   0  0  0  0  0  0  0  0  0  0  0  0
  137.2424   78.5437  223.0317 H   0  0  0  0  0  0  0  0  0  0  0  0
  138.2272   80.7540  223.5952 H   0  0  0  0  0  0  0  0  0  0  0  0
  140.2292   82.0991  223.8946 H   0  0  0  0  0  0  0  0  0  0  0  0
  142.6843   82.3166  223.8737 H   0  0  0  0  0  0  0  0  0  0  0  0
  144.1576   80.3794  223.3032 H   0  0  0  0  0  0  0  0  0  0  0  0
  143.0461   78.2142  222.7531 H   0  0  0  0  0  0  0  0  0  0  0  0
  1  2  2  0
  2  3  1  0
  3  4  1  0
  4  5  1  0
  5  6  2  0
  5  7  1  0
  7  8  1  0
  8  9  1  0
  9 10  1  0
 10 11  1  0
 11 12  1  0
 12 13  1  0
 13 14  2  0
 14 15  1  0
 15 16  2  0
 16 17  1  0
 17 18  1  0
 17 19  1  0
 17 20  1  0
 16 21  1  0
 21 22  2  0
  2 23  1  0
 23 24  2  0
 24 25  1  0
 25 26  2  0
 26 27  1  0
 27 28  2  0
 28 29  1  0
 29 30  2  0
 30 31  1  0
 31 32  2  0
 12  7  1  0
 22 13  1  0
 32 23  1  0
 31 26  1  0
  3 33  1  0
  4 34  1  0
  4 35  1  0
  8 36  1  0
  8 37  1  0
  9 38  1  0
  9 39  1  0
 10 40  1  0
 10 41  1  0
 11 42  1  0
 11 43  1  0
 12 44  1  1
 14 45  1  0
 15 46  1  0
 21 47  1  0
 22 48  1  0
 24 49  1  0
 25 50  1  0
 27 51  1  0
 28 52  1  0
 29 53  1  0
 30 54  1  0
M  END
>  <smiles>  (56) 
O=C(NCC(=O)N1CCCCC1c1ccc(C(F)(F)F)cc1)c1ccc2ccccc2n1

>  <score_type>  (56) 
oracle

>  <origin>  (56) 
autodockgpu

>  <m_score__min__energy>  (56) 
-8.4100000000000001

>  <m_primary>  (56) 
energy

>  <rmsd>  (56) 
8.158250193808335

>  <m_score__min__rmsd>  (56) 
8.158250193808335

>  <meeko>  (56) 
{"free_energy": -8.18, "intermolecular_energy": -9.97, "internal_energy": -2.11, "cluster_size": 11, "cluster_id": 4, "rank_in_cluster": 2}

>  <energy>  (56) 
-8.25

>  <cluster_rmsd>  (56) 
1.72

>  <cluster>  (56) 
1

$$$$

     RDKit          3D

 54 57  0  0  0  0  0  0  0  0999 V2000
  139.6370   70.9550  221.3240 O   0  0  0  0  0  0  0  0  0  0  0  0
  139.5930   71.6080  222.3980 C   0  0  0  0  0  0  0  0  0  0  0  0
  139.3860   73.0120  222.4580 N   0  0  0  0  0  0  0  0  0  0  0  0
  139.2090   73.7910  221.2460 C   0  0  0  0  0  0  0  0  0  0  0  0
  139.6760   75.1730  221.5200 C   0  0  0  0  0  0  0  0  0  0  0  0
  139.5780   75.6020  222.7000 O   0  0  0  0  0  0  0  0  0  0  0  0
  140.2200   75.9860  220.4590 N   0  0  0  0  0  0  0  0  0  0  0  0
  140.0890   77.4240  220.5560 C   0  0  0  0  0  0  0  0  0  0  0  0
  139.8120   77.9970  219.2030 C   0  0  0  0  0  0  0  0  0  0  0  0
  140.8210   77.5400  218.1730 C   0  0  0  0  0  0  0  0  0  0  0  0
  140.9400   76.0580  218.0870 C   0  0  0  0  0  0  0  0  0  0  0  0
  140.8680   75.3050  219.3620 C   0  0  1  0  0  0  0  0  0  0  0  0
  142.1930   74.7400  219.7750 C   0  0  0  0  0  0  0  0  0  0  0  0
  143.3540   75.4890  219.7470 C   0  0  0  0  0  0  0  0  0  0  0  0
  144.5840   74.9720  220.1290 C   0  0  0  0  0  0  0  0  0  0  0  0
  144.6830   73.6770  220.5520 C   0  0  0  0  0  0  0  0  0  0  0  0
  146.0190   73.1730  220.9500 C   0  0  0  0  0  0  0  0  0  0  0  0
  146.2980   71.9990  220.2750 F   0  0  0  0  0  0  0  0  0  0  0  0
  146.9510   74.0980  220.5180 F   0  0  0  0  0  0  0  0  0  0  0  0
  146.1480   73.0070  222.3120 F   0  0  0  0  0  0  0  0  0  0  0  0
  143.5380   72.9170  220.5880 C   0  0  0  0  0  0  0  0  0  0  0  0
  142.3250   73.4300  220.2100 C   0  0  0  0  0  0  0  0  0  0  0  0
  139.7630   70.8940  223.6780 C   0  0  0  0  0  0  0  0  0  0  0  0
  139.4170   69.5460  223.7660 C   0  0  0  0  0  0  0  0  0  0  0  0
  139.5600   68.8460  224.9420 C   0  0  0  0  0  0  0  0  0  0  0  0
  140.0600   69.5210  226.0330 C   0  0  0  0  0  0  0  0  0  0  0  0
  140.2290   68.8770  227.2450 C   0  0  0  0  0  0  0  0  0  0  0  0
  140.7330   69.5620  228.3430 C   0  0  0  0  0  0  0  0  0  0  0  0
  141.0850   70.9000  228.2820 C   0  0  0  0  0  0  0  0  0  0  0  0
  140.9040   71.5180  227.0530 C   0  0  0  0  0  0  0  0  0  0  0  0
  140.4090   70.8700  225.9530 C   0  0  0  0  0  0  0  0  0  0  0  0
  140.2470   71.5040  224.7760 N   0  0  0  0  0  0  0  0  0  0  0  0
  139.3600   73.4920  223.4040 H   0  0  0  0  0  0  0  0  0  0  0  0
  139.8007   73.3515  220.4294 H   0  0  0  0  0  0  0  0  0  0  0  0
  138.1510   73.7965  220.9450 H   0  0  0  0  0  0  0  0  0  0  0  0
  139.2591   77.6707  221.2345 H   0  0  0  0  0  0  0  0  0  0  0  0
  141.0248   77.8496  220.9473 H   0  0  0  0  0  0  0  0  0  0  0  0
  138.8090   77.6793  218.8820 H   0  0  0  0  0  0  0  0  0  0  0  0
  139.8789   79.0923  219.2793 H   0  0  0  0  0  0  0  0  0  0  0  0
  140.5146   77.9240  217.1888 H   0  0  0  0  0  0  0  0  0  0  0  0
  141.8025   77.9299  218.4808 H   0  0  0  0  0  0  0  0  0  0  0  0
  140.1267   75.6961  217.4408 H   0  0  0  0  0  0  0  0  0  0  0  0
  141.9535   75.8732  217.7013 H   0  0  0  0  0  0  0  0  0  0  0  0
  140.1957   74.4689  219.1192 H   0  0  0  0  0  0  0  0  0  0  0  0
  143.3013   76.5345  219.4092 H   0  0  0  0  0  0  0  0  0  0  0  0
  145.4815   75.6068  220.0910 H   0  0  0  0  0  0  0  0  0  0  0  0
  143.5970   71.8726  220.9282 H   0  0  0  0  0  0  0  0  0  0  0  0
  141.4338   72.7867  220.2527 H   0  0  0  0  0  0  0  0  0  0  0  0
  139.0218   69.0319  222.8775 H   0  0  0  0  0  0  0  0  0  0  0  0
  139.2842   67.7832  225.0083 H   0  0  0  0  0  0  0  0  0  0  0  0
  139.9622   67.8141  227.3402 H   0  0  0  0  0  0  0  0  0  0  0  0
  140.8569   69.0232  229.2940 H   0  0  0  0  0  0  0  0  0  0  0  0
  141.4834   71.4394  229.1539 H   0  0  0  0  0  0  0  0  0  0  0  0
  141.1713   72.5808  226.9576 H   0  0  0  0  0  0  0  0  0  0  0  0
  1  2  2  0
  2  3  1  0
  3  4  1  0
  4  5  1  0
  5  6  2  0
  5  7  1  0
  7  8  1  0
  8  9  1  0
  9 10  1  0
 10 11  1  0
 11 12  1  0
 12 13  1  0
 13 14  2  0
 14 15  1  0
 15 16  2  0
 16 17  1  0
 17 18  1  0
 17 19  1  0
 17 20  1  0
 16 21  1  0
 21 22  2  0
  2 23  1  0
 23 24  2  0
 24 25  1  0
 25 26  2  0
 26 27  1  0
 27 28  2  0
 28 29  1  0
 29 30  2  0
 30 31  1  0
 31 32  2  0
 12  7  1  0
 22 13  1  0
 32 23  1  0
 31 26  1  0
  3 33  1  0
  4 34  1  0
  4 35  1  0
  8 36  1  0
  8 37  1  0
  9 38  1  0
  9 39  1  0
 10 40  1  0
 10 41  1  0
 11 42  1  0
 11 43  1  0
 12 44  1  6
 14 45  1  0
 15 46  1  0
 21 47  1  0
 22 48  1  0
 24 49  1  0
 25 50  1  0
 27 51  1  0
 28 52  1  0
 29 53  1  0
 30 54  1  0
M  END
>  <smiles>  (57) 
O=C(NCC(=O)N1CCCCC1c1ccc(C(F)(F)F)cc1)c1ccc2ccccc2n1

>  <score_type>  (57) 
oracle

>  <origin>  (57) 
autodockgpu

>  <m_score__min__energy>  (57) 
-8.4100000000000001

>  <m_primary>  (57) 
energy

>  <rmsd>  (57) 
1.8216552246773934

>  <m_score__min__rmsd>  (57) 
1.8216552246773934

>  <meeko>  (57) 
{"free_energy": -8.18, "intermolecular_energy": -9.97, "internal_energy": -2.4, "cluster_size": 18, "cluster_id": 3, "rank_in_cluster": 8}

>  <energy>  (57) 
-8.22

>  <cluster_rmsd>  (57) 
1.59

>  <cluster>  (57) 
1

$$$$

     RDKit          3D

 54 57  0  0  0  0  0  0  0  0999 V2000
  140.8100   71.5960  221.3160 O   0  0  0  0  0  0  0  0  0  0  0  0
  140.3520   72.1730  222.3340 C   0  0  0  0  0  0  0  0  0  0  0  0
  139.9360   73.5320  222.3480 N   0  0  0  0  0  0  0  0  0  0  0  0
  140.0210   74.3490  221.1520 C   0  0  0  0  0  0  0  0  0  0  0  0
  140.3240   75.7400  221.5690 C   0  0  0  0  0  0  0  0  0  0  0  0
  139.8760   76.1300  222.6800 O   0  0  0  0  0  0  0  0  0  0  0  0
  141.1080   76.6060  220.7210 N   0  0  0  0  0  0  0  0  0  0  0  0
  141.5190   77.8920  221.2420 C   0  0  0  0  0  0  0  0  0  0  0  0
  141.4460   78.9210  220.1590 C   0  0  0  0  0  0  0  0  0  0  0  0
  142.1910   78.4930  218.9140 C   0  0  0  0  0  0  0  0  0  0  0  0
  141.7530   77.1690  218.3940 C   0  0  0  0  0  0  0  0  0  0  0  0
  141.4350   76.1260  219.3980 C   0  0  1  0  0  0  0  0  0  0  0  0
  142.4650   75.0400  219.4490 C   0  0  0  0  0  0  0  0  0  0  0  0
  142.5000   74.0140  218.5240 C   0  0  0  0  0  0  0  0  0  0  0  0
  143.4520   73.0050  218.5660 C   0  0  0  0  0  0  0  0  0  0  0  0
  144.4040   72.9990  219.5460 C   0  0  0  0  0  0  0  0  0  0  0  0
  145.3980   71.9000  219.5460 C   0  0  0  0  0  0  0  0  0  0  0  0
  146.4070   72.1790  220.4490 F   0  0  0  0  0  0  0  0  0  0  0  0
  144.7590   70.7690  220.0190 F   0  0  0  0  0  0  0  0  0  0  0  0
  145.9100   71.6370  218.2930 F   0  0  0  0  0  0  0  0  0  0  0  0
  144.3850   74.0120  220.4750 C   0  0  0  0  0  0  0  0  0  0  0  0
  143.4440   75.0070  220.4320 C   0  0  0  0  0  0  0  0  0  0  0  0
  140.2310   71.4160  223.5950 C   0  0  0  0  0  0  0  0  0  0  0  0
  139.6250   70.1600  223.5870 C   0  0  0  0  0  0  0  0  0  0  0  0
  139.4920   69.4240  224.7420 C   0  0  0  0  0  0  0  0  0  0  0  0
  139.9810   69.9670  225.9100 C   0  0  0  0  0  0  0  0  0  0  0  0
  139.8800   69.2800  227.1050 C   0  0  0  0  0  0  0  0  0  0  0  0
  140.3730   69.8320  228.2790 C   0  0  0  0  0  0  0  0  0  0  0  0
  140.9790   71.0770  228.3140 C   0  0  0  0  0  0  0  0  0  0  0  0
  141.0650   71.7420  227.0990 C   0  0  0  0  0  0  0  0  0  0  0  0
  140.5880   71.2240  225.9250 C   0  0  0  0  0  0  0  0  0  0  0  0
  140.6900   71.8990  224.7640 N   0  0  0  0  0  0  0  0  0  0  0  0
  139.5580   73.9480  223.2480 H   0  0  0  0  0  0  0  0  0  0  0  0
  140.8215   73.9722  220.4984 H   0  0  0  0  0  0  0  0  0  0  0  0
  139.0721   74.3142  220.5966 H   0  0  0  0  0  0  0  0  0  0  0  0
  140.8525   78.1821  222.0676 H   0  0  0  0  0  0  0  0  0  0  0  0
  142.5534   77.8226  221.6096 H   0  0  0  0  0  0  0  0  0  0  0  0
  140.3901   79.0887  219.9001 H   0  0  0  0  0  0  0  0  0  0  0  0
  141.9167   79.8414  220.5349 H   0  0  0  0  0  0  0  0  0  0  0  0
  142.0260   79.2479  218.1311 H   0  0  0  0  0  0  0  0  0  0  0  0
  143.2535   78.4026  219.1840 H   0  0  0  0  0  0  0  0  0  0  0  0
  140.8502   77.3324  217.7872 H   0  0  0  0  0  0  0  0  0  0  0  0
  142.6186   76.7783  217.8390 H   0  0  0  0  0  0  0  0  0  0  0  0
  140.4964   75.6946  219.0199 H   0  0  0  0  0  0  0  0  0  0  0  0
  141.7449   73.9963  217.7243 H   0  0  0  0  0  0  0  0  0  0  0  0
  143.4400   72.2078  217.8081 H   0  0  0  0  0  0  0  0  0  0  0  0
  145.1432   74.0241  221.2718 H   0  0  0  0  0  0  0  0  0  0  0  0
  143.4651   75.7989  221.1952 H   0  0  0  0  0  0  0  0  0  0  0  0
  139.2461   69.7498  222.6393 H   0  0  0  0  0  0  0  0  0  0  0  0
  139.0111   68.4347  224.7331 H   0  0  0  0  0  0  0  0  0  0  0  0
  139.4052   68.2880  227.1257 H   0  0  0  0  0  0  0  0  0  0  0  0
  140.2792   69.2608  229.2144 H   0  0  0  0  0  0  0  0  0  0  0  0
  141.3679   71.5115  229.2467 H   0  0  0  0  0  0  0  0  0  0  0  0
  141.5398   72.7340  227.0782 H   0  0  0  0  0  0  0  0  0  0  0  0
  1  2  2  0
  2  3  1  0
  3  4  1  0
  4  5  1  0
  5  6  2  0
  5  7  1  0
  7  8  1  0
  8  9  1  0
  9 10  1  0
 10 11  1  0
 11 12  1  0
 12 13  1  0
 13 14  2  0
 14 15  1  0
 15 16  2  0
 16 17  1  0
 17 18  1  0
 17 19  1  0
 17 20  1  0
 16 21  1  0
 21 22  2  0
  2 23  1  0
 23 24  2  0
 24 25  1  0
 25 26  2  0
 26 27  1  0
 27 28  2  0
 28 29  1  0
 29 30  2  0
 30 31  1  0
 31 32  2  0
 12  7  1  0
 22 13  1  0
 32 23  1  0
 31 26  1  0
  3 33  1  0
  4 34  1  0
  4 35  1  0
  8 36  1  0
  8 37  1  0
  9 38  1  0
  9 39  1  0
 10 40  1  0
 10 41  1  0
 11 42  1  0
 11 43  1  0
 12 44  1  6
 14 45  1  0
 15 46  1  0
 21 47  1  0
 22 48  1  0
 24 49  1  0
 25 50  1  0
 27 51  1  0
 28 52  1  0
 29 53  1  0
 30 54  1  0
M  END
>  <smiles>  (58) 
O=C(NCC(=O)N1CCCCC1c1ccc(C(F)(F)F)cc1)c1ccc2ccccc2n1

>  <score_type>  (58) 
oracle

>  <origin>  (58) 
autodockgpu

>  <m_score__min__energy>  (58) 
-8.4100000000000001

>  <m_primary>  (58) 
energy

>  <rmsd>  (58) 
2.365955321439942

>  <m_score__min__rmsd>  (58) 
2.365955321439942

>  <meeko>  (58) 
{"free_energy": -8.12, "intermolecular_energy": -9.91, "internal_energy": -2.26, "cluster_size": 18, "cluster_id": 3, "rank_in_cluster": 15}

>  <energy>  (58) 
-8.21

>  <cluster_rmsd>  (58) 
1.61

>  <cluster>  (58) 
1

$$$$

     RDKit          3D

 54 57  0  0  0  0  0  0  0  0999 V2000
  137.4430   76.1350  222.3490 O   0  0  0  0  0  0  0  0  0  0  0  0
  138.6930   76.2660  222.3610 C   0  0  0  0  0  0  0  0  0  0  0  0
  139.5980   75.2190  222.0410 N   0  0  0  0  0  0  0  0  0  0  0  0
  139.1120   73.9020  221.6740 C   0  0  0  0  0  0  0  0  0  0  0  0
  140.2500   72.9540  221.7600 C   0  0  0  0  0  0  0  0  0  0  0  0
  141.3980   73.4330  221.9630 O   0  0  0  0  0  0  0  0  0  0  0  0
  140.0360   71.5340  221.6150 N   0  0  0  0  0  0  0  0  0  0  0  0
  140.8380   70.8100  220.6530 C   0  0  0  0  0  0  0  0  0  0  0  0
  139.9990   69.7720  219.9770 C   0  0  0  0  0  0  0  0  0  0  0  0
  139.2790   68.8860  220.9680 C   0  0  0  0  0  0  0  0  0  0  0  0
  138.4580   69.6500  221.9490 C   0  0  0  0  0  0  0  0  0  0  0  0
  139.0260   70.9240  222.4500 C   0  0  1  0  0  0  0  0  0  0  0  0
  139.4760   70.8340  223.8760 C   0  0  0  0  0  0  0  0  0  0  0  0
  138.8680   69.9930  224.7890 C   0  0  0  0  0  0  0  0  0  0  0  0
  139.2810   69.9050  226.1110 C   0  0  0  0  0  0  0  0  0  0  0  0
  140.3240   70.6660  226.5570 C   0  0  0  0  0  0  0  0  0  0  0  0
  140.7270   70.5350  227.9780 C   0  0  0  0  0  0  0  0  0  0  0  0
  141.4440   71.6500  228.3680 F   0  0  0  0  0  0  0  0  0  0  0  0
  139.5690   70.5360  228.7330 F   0  0  0  0  0  0  0  0  0  0  0  0
  141.4300   69.3770  228.2330 F   0  0  0  0  0  0  0  0  0  0  0  0
  140.9420   71.5080  225.6630 C   0  0  0  0  0  0  0  0  0  0  0  0
  140.5330   71.5930  224.3580 C   0  0  0  0  0  0  0  0  0  0  0  0
  139.2740   77.5740  222.7240 C   0  0  0  0  0  0  0  0  0  0  0  0
  138.4300   78.6300  223.0640 C   0  0  0  0  0  0  0  0  0  0  0  0
  138.9320   79.8650  223.4070 C   0  0  0  0  0  0  0  0  0  0  0  0
  140.3010   80.0230  223.4060 C   0  0  0  0  0  0  0  0  0  0  0  0
  140.8710   81.2380  223.7410 C   0  0  0  0  0  0  0  0  0  0  0  0
  142.2510   81.3930  223.7370 C   0  0  0  0  0  0  0  0  0  0  0  0
  143.1100   80.3600  223.4040 C   0  0  0  0  0  0  0  0  0  0  0  0
  142.5080   79.1540  223.0720 C   0  0  0  0  0  0  0  0  0  0  0  0
  141.1510   78.9700  223.0660 C   0  0  0  0  0  0  0  0  0  0  0  0
  140.6030   77.7850  222.7390 N   0  0  0  0  0  0  0  0  0  0  0  0
  140.6420   75.4080  222.0730 H   0  0  0  0  0  0  0  0  0  0  0  0
  138.3147   73.5921  222.3655 H   0  0  0  0  0  0  0  0  0  0  0  0
  138.7023   73.9162  220.6533 H   0  0  0  0  0  0  0  0  0  0  0  0
  141.2286   71.5113  219.9009 H   0  0  0  0  0  0  0  0  0  0  0  0
  141.6756   70.3206  221.1716 H   0  0  0  0  0  0  0  0  0  0  0  0
  139.2529   70.2759  219.3450 H   0  0  0  0  0  0  0  0  0  0  0  0
  140.6667   69.1356  219.3778 H   0  0  0  0  0  0  0  0  0  0  0  0
  138.6168   68.2058  220.4123 H   0  0  0  0  0  0  0  0  0  0  0  0
  140.0464   68.3412  221.5375 H   0  0  0  0  0  0  0  0  0  0  0  0
  137.4958   69.8812  221.4686 H   0  0  0  0  0  0  0  0  0  0  0  0
  138.3884   68.9994  222.8333 H   0  0  0  0  0  0  0  0  0  0  0  0
  138.1713   71.6146  222.3997 H   0  0  0  0  0  0  0  0  0  0  0  0
  138.0251   69.3700  224.4552 H   0  0  0  0  0  0  0  0  0  0  0  0
  138.7669   69.2204  226.8017 H   0  0  0  0  0  0  0  0  0  0  0  0
  141.7845   72.1280  226.0033 H   0  0  0  0  0  0  0  0  0  0  0  0
  141.0554   72.2797  223.6757 H   0  0  0  0  0  0  0  0  0  0  0  0
  137.3412   78.4733  223.0581 H   0  0  0  0  0  0  0  0  0  0  0  0
  138.2634   80.6971  223.6727 H   0  0  0  0  0  0  0  0  0  0  0  0
  140.2267   82.0873  224.0124 H   0  0  0  0  0  0  0  0  0  0  0  0
  142.6762   82.3707  224.0079 H   0  0  0  0  0  0  0  0  0  0  0  0
  144.2027   80.4869  223.4025 H   0  0  0  0  0  0  0  0  0  0  0  0
  143.1524   78.3048  222.8005 H   0  0  0  0  0  0  0  0  0  0  0  0
  1  2  2  0
  2  3  1  0
  3  4  1  0
  4  5  1  0
  5  6  2  0
  5  7  1  0
  7  8  1  0
  8  9  1  0
  9 10  1  0
 10 11  1  0
 11 12  1  0
 12 13  1  0
 13 14  2  0
 14 15  1  0
 15 16  2  0
 16 17  1  0
 17 18  1  0
 17 19  1  0
 17 20  1  0
 16 21  1  0
 21 22  2  0
  2 23  1  0
 23 24  2  0
 24 25  1  0
 25 26  2  0
 26 27  1  0
 27 28  2  0
 28 29  1  0
 29 30  2  0
 30 31  1  0
 31 32  2  0
 12  7  1  0
 22 13  1  0
 32 23  1  0
 31 26  1  0
  3 33  1  0
  4 34  1  0
  4 35  1  0
  8 36  1  0
  8 37  1  0
  9 38  1  0
  9 39  1  0
 10 40  1  0
 10 41  1  0
 11 42  1  0
 11 43  1  0
 12 44  1  1
 14 45  1  0
 15 46  1  0
 21 47  1  0
 22 48  1  0
 24 49  1  0
 25 50  1  0
 27 51  1  0
 28 52  1  0
 29 53  1  0
 30 54  1  0
M  END
>  <smiles>  (59) 
O=C(NCC(=O)N1CCCCC1c1ccc(C(F)(F)F)cc1)c1ccc2ccccc2n1

>  <score_type>  (59) 
oracle

>  <origin>  (59) 
autodockgpu

>  <m_score__min__energy>  (59) 
-8.4100000000000001

>  <m_primary>  (59) 
energy

>  <rmsd>  (59) 
8.13243675922254

>  <m_score__min__rmsd>  (59) 
8.13243675922254

>  <meeko>  (59) 
{"free_energy": -8.11, "intermolecular_energy": -9.9, "internal_energy": -2.18, "cluster_size": 11, "cluster_id": 4, "rank_in_cluster": 5}

>  <energy>  (59) 
-8.2

>  <cluster_rmsd>  (59) 
1.56

>  <cluster>  (59) 
1

$$$$

     RDKit          3D

 54 57  0  0  0  0  0  0  0  0999 V2000
  141.0710   71.4690  221.3810 O   0  0  0  0  0  0  0  0  0  0  0  0
  140.5010   72.0180  222.3580 C   0  0  0  0  0  0  0  0  0  0  0  0
  140.0460   73.3630  222.3490 N   0  0  0  0  0  0  0  0  0  0  0  0
  140.2220   74.2010  221.1770 C   0  0  0  0  0  0  0  0  0  0  0  0
  139.9790   75.6080  221.5810 C   0  0  0  0  0  0  0  0  0  0  0  0
  139.4360   75.8130  222.6990 O   0  0  0  0  0  0  0  0  0  0  0  0
  140.3590   76.6970  220.7110 N   0  0  0  0  0  0  0  0  0  0  0  0
  140.0460   76.5940  219.3030 C   0  0  0  0  0  0  0  0  0  0  0  0
  141.1660   77.1680  218.4950 C   0  0  0  0  0  0  0  0  0  0  0  0
  141.5360   78.5650  218.9430 C   0  0  0  0  0  0  0  0  0  0  0  0
  141.8550   78.6480  220.3960 C   0  0  0  0  0  0  0  0  0  0  0  0
  141.0290   77.8270  221.3120 C   0  0  1  0  0  0  0  0  0  0  0  0
  140.0850   78.6500  222.1330 C   0  0  0  0  0  0  0  0  0  0  0  0
  138.7160   78.5960  221.9560 C   0  0  0  0  0  0  0  0  0  0  0  0
  137.8360   79.3550  222.7150 C   0  0  0  0  0  0  0  0  0  0  0  0
  138.3100   80.1980  223.6790 C   0  0  0  0  0  0  0  0  0  0  0  0
  137.3290   80.9870  224.4620 C   0  0  0  0  0  0  0  0  0  0  0  0
  136.0770   80.4090  224.3650 F   0  0  0  0  0  0  0  0  0  0  0  0
  137.6960   80.8940  225.7910 F   0  0  0  0  0  0  0  0  0  0  0  0
  137.2940   82.3160  224.0960 F   0  0  0  0  0  0  0  0  0  0  0  0
  139.6700   80.2640  223.8700 C   0  0  0  0  0  0  0  0  0  0  0  0
  140.5370   79.5140  223.1200 C   0  0  0  0  0  0  0  0  0  0  0  0
  140.2820   71.2380  223.5920 C   0  0  0  0  0  0  0  0  0  0  0  0
  139.6120   70.0180  223.5240 C   0  0  0  0  0  0  0  0  0  0  0  0
  139.3870   69.2610  224.6520 C   0  0  0  0  0  0  0  0  0  0  0  0
  139.8490   69.7500  225.8540 C   0  0  0  0  0  0  0  0  0  0  0  0
  139.6570   69.0400  227.0250 C   0  0  0  0  0  0  0  0  0  0  0  0
  140.1240   69.5370  228.2350 C   0  0  0  0  0  0  0  0  0  0  0  0
  140.7940   70.7460  228.3290 C   0  0  0  0  0  0  0  0  0  0  0  0
  140.9700   71.4340  227.1370 C   0  0  0  0  0  0  0  0  0  0  0  0
  140.5210   70.9710  225.9290 C   0  0  0  0  0  0  0  0  0  0  0  0
  140.7120   71.6670  224.7920 N   0  0  0  0  0  0  0  0  0  0  0  0
  139.5730   73.7560  223.2140 H   0  0  0  0  0  0  0  0  0  0  0  0
  141.2469   74.0945  220.7920 H   0  0  0  0  0  0  0  0  0  0  0  0
  139.5196   73.9034  220.3845 H   0  0  0  0  0  0  0  0  0  0  0  0
  139.9069   75.5361  219.0357 H   0  0  0  0  0  0  0  0  0  0  0  0
  139.1217   77.1523  219.0932 H   0  0  0  0  0  0  0  0  0  0  0  0
  142.0471   76.5177  218.5986 H   0  0  0  0  0  0  0  0  0  0  0  0
  140.8323   77.2261  217.4484 H   0  0  0  0  0  0  0  0  0  0  0  0
  142.4167   78.8939  218.3719 H   0  0  0  0  0  0  0  0  0  0  0  0
  140.6631   79.2094  218.7617 H   0  0  0  0  0  0  0  0  0  0  0  0
  142.9023   78.3372  220.5245 H   0  0  0  0  0  0  0  0  0  0  0  0
  141.6441   79.6905  220.6766 H   0  0  0  0  0  0  0  0  0  0  0  0
  141.7742   77.3806  221.9868 H   0  0  0  0  0  0  0  0  0  0  0  0
  138.3080   77.9263  221.1846 H   0  0  0  0  0  0  0  0  0  0  0  0
  136.7529   79.2772  222.5393 H   0  0  0  0  0  0  0  0  0  0  0  0
  140.0715   80.9351  224.6436 H   0  0  0  0  0  0  0  0  0  0  0  0
  141.6180   79.5989  223.3048 H   0  0  0  0  0  0  0  0  0  0  0  0
  139.2557   69.6524  222.5496 H   0  0  0  0  0  0  0  0  0  0  0  0
  138.8566   68.2990  224.5952 H   0  0  0  0  0  0  0  0  0  0  0  0
  139.1306   68.0745  226.9980 H   0  0  0  0  0  0  0  0  0  0  0  0
  139.9561   68.9504  229.1503 H   0  0  0  0  0  0  0  0  0  0  0  0
  141.1634   71.1362  229.2888 H   0  0  0  0  0  0  0  0  0  0  0  0
  141.4964   72.3995  227.1637 H   0  0  0  0  0  0  0  0  0  0  0  0
  1  2  2  0
  2  3  1  0
  3  4  1  0
  4  5  1  0
  5  6  2  0
  5  7  1  0
  7  8  1  0
  8  9  1  0
  9 10  1  0
 10 11  1  0
 11 12  1  0
 12 13  1  0
 13 14  2  0
 14 15  1  0
 15 16  2  0
 16 17  1  0
 17 18  1  0
 17 19  1  0
 17 20  1  0
 16 21  1  0
 21 22  2  0
  2 23  1  0
 23 24  2  0
 24 25  1  0
 25 26  2  0
 26 27  1  0
 27 28  2  0
 28 29  1  0
 29 30  2  0
 30 31  1  0
 31 32  2  0
 12  7  1  0
 22 13  1  0
 32 23  1  0
 31 26  1  0
  3 33  1  0
  4 34  1  0
  4 35  1  0
  8 36  1  0
  8 37  1  0
  9 38  1  0
  9 39  1  0
 10 40  1  0
 10 41  1  0
 11 42  1  0
 11 43  1  0
 12 44  1  1
 14 45  1  0
 15 46  1  0
 21 47  1  0
 22 48  1  0
 24 49  1  0
 25 50  1  0
 27 51  1  0
 28 52  1  0
 29 53  1  0
 30 54  1  0
M  END
>  <smiles>  (60) 
O=C(NCC(=O)N1CCCCC1c1ccc(C(F)(F)F)cc1)c1ccc2ccccc2n1

>  <score_type>  (60) 
oracle

>  <origin>  (60) 
autodockgpu

>  <m_score__min__energy>  (60) 
-8.4100000000000001

>  <m_primary>  (60) 
energy

>  <rmsd>  (60) 
1.8939883422125656

>  <m_score__min__rmsd>  (60) 
1.8939883422125656

>  <meeko>  (60) 
{"free_energy": -8.27, "intermolecular_energy": -10.06, "internal_energy": -2.01, "cluster_size": 16, "cluster_id": 1, "rank_in_cluster": 5}

>  <energy>  (60) 
-8.18

>  <cluster_rmsd>  (60) 
1.76

>  <cluster>  (60) 
1

$$$$

     RDKit          3D

 54 57  0  0  0  0  0  0  0  0999 V2000
  138.7780   75.1630  221.9790 O   0  0  0  0  0  0  0  0  0  0  0  0
  139.9390   75.6290  222.1090 C   0  0  0  0  0  0  0  0  0  0  0  0
  141.1200   74.8580  221.9420 N   0  0  0  0  0  0  0  0  0  0  0  0
  141.0470   73.4490  221.6040 C   0  0  0  0  0  0  0  0  0  0  0  0
  141.5320   73.2870  220.2100 C   0  0  0  0  0  0  0  0  0  0  0  0
  140.6740   73.0760  219.3120 O   0  0  0  0  0  0  0  0  0  0  0  0
  142.9410   73.3730  219.9090 N   0  0  0  0  0  0  0  0  0  0  0  0
  143.5570   72.2850  219.1810 C   0  0  0  0  0  0  0  0  0  0  0  0
  144.9310   72.0340  219.7170 C   0  0  0  0  0  0  0  0  0  0  0  0
  145.7650   73.2950  219.7630 C   0  0  0  0  0  0  0  0  0  0  0  0
  145.1140   74.4010  220.5180 C   0  0  0  0  0  0  0  0  0  0  0  0
  143.6480   74.5510  220.3570 C   0  0  1  0  0  0  0  0  0  0  0  0
  143.2760   75.7540  219.5450 C   0  0  0  0  0  0  0  0  0  0  0  0
  142.5830   76.8210  220.0840 C   0  0  0  0  0  0  0  0  0  0  0  0
  142.2350   77.9380  219.3370 C   0  0  0  0  0  0  0  0  0  0  0  0
  142.5780   78.0150  218.0180 C   0  0  0  0  0  0  0  0  0  0  0  0
  142.1840   79.2300  217.2640 C   0  0  0  0  0  0  0  0  0  0  0  0
  142.3210   79.0060  215.9070 F   0  0  0  0  0  0  0  0  0  0  0  0
  140.8350   79.4320  217.4890 F   0  0  0  0  0  0  0  0  0  0  0  0
  142.8790   80.3540  217.6560 F   0  0  0  0  0  0  0  0  0  0  0  0
  143.2690   76.9640  217.4640 C   0  0  0  0  0  0  0  0  0  0  0  0
  143.6100   75.8620  218.2020 C   0  0  0  0  0  0  0  0  0  0  0  0
  140.1050   77.0550  222.4520 C   0  0  0  0  0  0  0  0  0  0  0  0
  138.9790   77.8660  222.5850 C   0  0  0  0  0  0  0  0  0  0  0  0
  139.0920   79.2000  222.9030 C   0  0  0  0  0  0  0  0  0  0  0  0
  140.3580   79.7100  223.0890 C   0  0  0  0  0  0  0  0  0  0  0  0
  140.5420   81.0420  223.4110 C   0  0  0  0  0  0  0  0  0  0  0  0
  141.8200   81.5520  223.5970 C   0  0  0  0  0  0  0  0  0  0  0  0
  142.9550   80.7670  223.4720 C   0  0  0  0  0  0  0  0  0  0  0  0
  142.7370   79.4350  223.1480 C   0  0  0  0  0  0  0  0  0  0  0  0
  141.4900   78.9040  222.9580 C   0  0  0  0  0  0  0  0  0  0  0  0
  141.3170   77.6050  222.6450 N   0  0  0  0  0  0  0  0  0  0  0  0
  142.0650   75.3240  222.0680 H   0  0  0  0  0  0  0  0  0  0  0  0
  141.6803   72.8671  222.2898 H   0  0  0  0  0  0  0  0  0  0  0  0
  140.0121   73.0872  221.6935 H   0  0  0  0  0  0  0  0  0  0  0  0
  142.9478   71.3764  219.2966 H   0  0  0  0  0  0  0  0  0  0  0  0
  143.6245   72.5514  218.1159 H   0  0  0  0  0  0  0  0  0  0  0  0
  144.8452   71.6285  220.7359 H   0  0  0  0  0  0  0  0  0  0  0  0
  145.4314   71.3223  219.0440 H   0  0  0  0  0  0  0  0  0  0  0  0
  146.7261   73.0613  220.2444 H   0  0  0  0  0  0  0  0  0  0  0  0
  145.8953   73.6390  218.7263 H   0  0  0  0  0  0  0  0  0  0  0  0
  145.3159   74.2375  221.5869 H   0  0  0  0  0  0  0  0  0  0  0  0
  145.5441   75.3241  220.1021 H   0  0  0  0  0  0  0  0  0  0  0  0
  143.2992   74.7084  221.3883 H   0  0  0  0  0  0  0  0  0  0  0  0
  142.2962   76.7838  221.1453 H   0  0  0  0  0  0  0  0  0  0  0  0
  141.6815   78.7631  219.8091 H   0  0  0  0  0  0  0  0  0  0  0  0
  143.5549   77.0091  216.4028 H   0  0  0  0  0  0  0  0  0  0  0  0
  144.1621   75.0424  217.7188 H   0  0  0  0  0  0  0  0  0  0  0  0
  137.9803   77.4309  222.4327 H   0  0  0  0  0  0  0  0  0  0  0  0
  138.2015   79.8376  223.0052 H   0  0  0  0  0  0  0  0  0  0  0  0
  139.6694   81.7027  223.5206 H   0  0  0  0  0  0  0  0  0  0  0  0
  141.9354   82.6157  223.8524 H   0  0  0  0  0  0  0  0  0  0  0  0
  143.9661   81.1741  223.6203 H   0  0  0  0  0  0  0  0  0  0  0  0
  143.6093   78.7738  223.0386 H   0  0  0  0  0  0  0  0  0  0  0  0
  1  2  2  0
  2  3  1  0
  3  4  1  0
  4  5  1  0
  5  6  2  0
  5  7  1  0
  7  8  1  0
  8  9  1  0
  9 10  1  0
 10 11  1  0
 11 12  1  0
 12 13  1  0
 13 14  2  0
 14 15  1  0
 15 16  2  0
 16 17  1  0
 17 18  1  0
 17 19  1  0
 17 20  1  0
 16 21  1  0
 21 22  2  0
  2 23  1  0
 23 24  2  0
 24 25  1  0
 25 26  2  0
 26 27  1  0
 27 28  2  0
 28 29  1  0
 29 30  2  0
 30 31  1  0
 31 32  2  0
 12  7  1  0
 22 13  1  0
 32 23  1  0
 31 26  1  0
  3 33  1  0
  4 34  1  0
  4 35  1  0
  8 36  1  0
  8 37  1  0
  9 38  1  0
  9 39  1  0
 10 40  1  0
 10 41  1  0
 11 42  1  0
 11 43  1  0
 12 44  1  1
 14 45  1  0
 15 46  1  0
 21 47  1  0
 22 48  1  0
 24 49  1  0
 25 50  1  0
 27 51  1  0
 28 52  1  0
 29 53  1  0
 30 54  1  0
M  END
>  <smiles>  (61) 
O=C(NCC(=O)N1CCCCC1c1ccc(C(F)(F)F)cc1)c1ccc2ccccc2n1

>  <score_type>  (61) 
oracle

>  <origin>  (61) 
autodockgpu

>  <m_score__min__energy>  (61) 
-8.4100000000000001

>  <m_primary>  (61) 
energy

>  <rmsd>  (61) 
7.614830607133611

>  <m_score__min__rmsd>  (61) 
7.614830607133611

>  <meeko>  (61) 
{"free_energy": -7.53, "intermolecular_energy": -9.32, "internal_energy": -2.58, "cluster_size": 1, "cluster_id": 5, "rank_in_cluster": 1}

>  <energy>  (61) 
-8.15

>  <cluster_rmsd>  (61) 
0.84

>  <cluster>  (61) 
1

$$$$

     RDKit          3D

 54 57  0  0  0  0  0  0  0  0999 V2000
  140.0750   71.3070  221.2710 O   0  0  0  0  0  0  0  0  0  0  0  0
  139.9230   71.9420  222.3450 C   0  0  0  0  0  0  0  0  0  0  0  0
  139.6860   73.3420  222.4050 N   0  0  0  0  0  0  0  0  0  0  0  0
  139.6050   74.1350  221.1930 C   0  0  0  0  0  0  0  0  0  0  0  0
  139.9460   75.5370  221.5410 C   0  0  0  0  0  0  0  0  0  0  0  0
  139.6730   75.9360  222.7050 O   0  0  0  0  0  0  0  0  0  0  0  0
  140.5680   76.4040  220.5690 N   0  0  0  0  0  0  0  0  0  0  0  0
  140.5770   77.8290  220.8210 C   0  0  0  0  0  0  0  0  0  0  0  0
  140.3600   78.5680  219.5390 C   0  0  0  0  0  0  0  0  0  0  0  0
  141.3210   78.1290  218.4570 C   0  0  0  0  0  0  0  0  0  0  0  0
  141.2960   76.6600  218.2120 C   0  0  0  0  0  0  0  0  0  0  0  0
  141.1490   75.7850  219.3990 C   0  0  1  0  0  0  0  0  0  0  0  0
  142.4120   75.0530  219.7380 C   0  0  0  0  0  0  0  0  0  0  0  0
  143.5730   75.7130  220.0940 C   0  0  0  0  0  0  0  0  0  0  0  0
  144.7450   75.0410  220.4090 C   0  0  0  0  0  0  0  0  0  0  0  0
  144.7850   73.6770  220.3750 C   0  0  0  0  0  0  0  0  0  0  0  0
  146.0620   73.0070  220.7210 C   0  0  0  0  0  0  0  0  0  0  0  0
  146.1330   71.7780  220.0920 F   0  0  0  0  0  0  0  0  0  0  0  0
  147.0830   73.7720  220.1900 F   0  0  0  0  0  0  0  0  0  0  0  0
  146.2530   72.8820  222.0810 F   0  0  0  0  0  0  0  0  0  0  0  0
  143.6400   73.0020  220.0240 C   0  0  0  0  0  0  0  0  0  0  0  0
  142.4830   73.6680  219.7130 C   0  0  0  0  0  0  0  0  0  0  0  0
  139.9910   71.2130  223.6270 C   0  0  0  0  0  0  0  0  0  0  0  0
  139.5800   69.8820  223.6820 C   0  0  0  0  0  0  0  0  0  0  0  0
  139.6270   69.1680  224.8580 C   0  0  0  0  0  0  0  0  0  0  0  0
  140.0970   69.8120  225.9810 C   0  0  0  0  0  0  0  0  0  0  0  0
  140.1710   69.1520  227.1940 C   0  0  0  0  0  0  0  0  0  0  0  0
  140.6450   69.8050  228.3240 C   0  0  0  0  0  0  0  0  0  0  0  0
  141.0600   71.1260  228.2950 C   0  0  0  0  0  0  0  0  0  0  0  0
  140.9740   71.7610  227.0630 C   0  0  0  0  0  0  0  0  0  0  0  0
  140.5110   71.1440  225.9320 C   0  0  0  0  0  0  0  0  0  0  0  0
  140.4420   71.7920  224.7540 N   0  0  0  0  0  0  0  0  0  0  0  0
  139.5680   73.8070  223.3510 H   0  0  0  0  0  0  0  0  0  0  0  0
  140.3168   73.7514  220.4472 H   0  0  0  0  0  0  0  0  0  0  0  0
  138.5921   74.0816  220.7673 H   0  0  0  0  0  0  0  0  0  0  0  0
  139.7733   78.0804  221.5287 H   0  0  0  0  0  0  0  0  0  0  0  0
  141.5486   78.1176  221.2484 H   0  0  0  0  0  0  0  0  0  0  0  0
  139.3314   78.3855  219.1946 H   0  0  0  0  0  0  0  0  0  0  0  0
  140.5338   79.6369  219.7318 H   0  0  0  0  0  0  0  0  0  0  0  0
  141.0544   78.6441  217.5223 H   0  0  0  0  0  0  0  0  0  0  0  0
  142.3352   78.3871  218.7956 H   0  0  0  0  0  0  0  0  0  0  0  0
  140.4527   76.4498  217.5377 H   0  0  0  0  0  0  0  0  0  0  0  0
  142.2877   76.4209  217.8004 H   0  0  0  0  0  0  0  0  0  0  0  0
  140.3993   75.0489  219.0733 H   0  0  0  0  0  0  0  0  0  0  0  0
  143.5675   76.8124  220.1288 H   0  0  0  0  0  0  0  0  0  0  0  0
  145.6449   75.6091  220.6871 H   0  0  0  0  0  0  0  0  0  0  0  0
  143.6526   71.9025  219.9920 H   0  0  0  0  0  0  0  0  0  0  0  0
  141.5889   73.0899  219.4368 H   0  0  0  0  0  0  0  0  0  0  0  0
  139.2111   69.3930  222.7683 H   0  0  0  0  0  0  0  0  0  0  0  0
  139.3002   68.1185  224.8994 H   0  0  0  0  0  0  0  0  0  0  0  0
  139.8519   68.1016  227.2642 H   0  0  0  0  0  0  0  0  0  0  0  0
  140.6925   69.2542  229.2750 H   0  0  0  0  0  0  0  0  0  0  0  0
  141.4345   71.6404  229.1923 H   0  0  0  0  0  0  0  0  0  0  0  0
  141.2935   72.8112  226.9924 H   0  0  0  0  0  0  0  0  0  0  0  0
  1  2  2  0
  2  3  1  0
  3  4  1  0
  4  5  1  0
  5  6  2  0
  5  7  1  0
  7  8  1  0
  8  9  1  0
  9 10  1  0
 10 11  1  0
 11 12  1  0
 12 13  1  0
 13 14  2  0
 14 15  1  0
 15 16  2  0
 16 17  1  0
 17 18  1  0
 17 19  1  0
 17 20  1  0
 16 21  1  0
 21 22  2  0
  2 23  1  0
 23 24  2  0
 24 25  1  0
 25 26  2  0
 26 27  1  0
 27 28  2  0
 28 29  1  0
 29 30  2  0
 30 31  1  0
 31 32  2  0
 12  7  1  0
 22 13  1  0
 32 23  1  0
 31 26  1  0
  3 33  1  0
  4 34  1  0
  4 35  1  0
  8 36  1  0
  8 37  1  0
  9 38  1  0
  9 39  1  0
 10 40  1  0
 10 41  1  0
 11 42  1  0
 11 43  1  0
 12 44  1  6
 14 45  1  0
 15 46  1  0
 21 47  1  0
 22 48  1  0
 24 49  1  0
 25 50  1  0
 27 51  1  0
 28 52  1  0
 29 53  1  0
 30 54  1  0
M  END
>  <smiles>  (62) 
O=C(NCC(=O)N1CCCCC1c1ccc(C(F)(F)F)cc1)c1ccc2ccccc2n1

>  <score_type>  (62) 
oracle

>  <origin>  (62) 
autodockgpu

>  <m_score__min__energy>  (62) 
-8.4100000000000001

>  <m_primary>  (62) 
energy

>  <rmsd>  (62) 
2.0420876012832827

>  <m_score__min__rmsd>  (62) 
2.0420876012832827

>  <meeko>  (62) 
{"free_energy": -8.28, "intermolecular_energy": -10.06, "internal_energy": -2.37, "cluster_size": 18, "cluster_id": 3, "rank_in_cluster": 3}

>  <energy>  (62) 
-8.14

>  <cluster_rmsd>  (62) 
1.81

>  <cluster>  (62) 
1

$$$$

     RDKit          3D

 54 57  0  0  0  0  0  0  0  0999 V2000
  137.3530   76.2800  222.3460 O   0  0  0  0  0  0  0  0  0  0  0  0
  138.6090   76.3450  222.3610 C   0  0  0  0  0  0  0  0  0  0  0  0
  139.4580   75.2510  222.0450 N   0  0  0  0  0  0  0  0  0  0  0  0
  138.9040   73.9610  221.6790 C   0  0  0  0  0  0  0  0  0  0  0  0
  139.9420   72.9300  221.9320 C   0  0  0  0  0  0  0  0  0  0  0  0
  141.0720   73.3200  222.3270 O   0  0  0  0  0  0  0  0  0  0  0  0
  139.6510   71.5310  221.7270 N   0  0  0  0  0  0  0  0  0  0  0  0
  140.3510   70.8280  220.6730 C   0  0  0  0  0  0  0  0  0  0  0  0
  139.4210   69.8680  220.0040 C   0  0  0  0  0  0  0  0  0  0  0  0
  138.7290   68.9590  220.9950 C   0  0  0  0  0  0  0  0  0  0  0  0
  138.0130   69.7010  222.0700 C   0  0  0  0  0  0  0  0  0  0  0  0
  138.6730   70.9190  222.5970 C   0  0  1  0  0  0  0  0  0  0  0  0
  139.2140   70.7300  223.9810 C   0  0  0  0  0  0  0  0  0  0  0  0
  138.6980   69.7890  224.8510 C   0  0  0  0  0  0  0  0  0  0  0  0
  139.1950   69.6090  226.1340 C   0  0  0  0  0  0  0  0  0  0  0  0
  140.2330   70.3750  226.5830 C   0  0  0  0  0  0  0  0  0  0  0  0
  140.7280   70.1430  227.9610 C   0  0  0  0  0  0  0  0  0  0  0  0
  141.4550   71.2380  228.3890 F   0  0  0  0  0  0  0  0  0  0  0  0
  139.6210   70.0670  228.7860 F   0  0  0  0  0  0  0  0  0  0  0  0
  141.4600   68.9810  228.0810 F   0  0  0  0  0  0  0  0  0  0  0  0
  140.7600   71.3160  225.7300 C   0  0  0  0  0  0  0  0  0  0  0  0
  140.2680   71.4920  224.4640 C   0  0  0  0  0  0  0  0  0  0  0  0
  139.2560   77.6210  222.7230 C   0  0  0  0  0  0  0  0  0  0  0  0
  138.4690   78.7170  223.0710 C   0  0  0  0  0  0  0  0  0  0  0  0
  139.0350   79.9240  223.4140 C   0  0  0  0  0  0  0  0  0  0  0  0
  140.4090   80.0140  223.4030 C   0  0  0  0  0  0  0  0  0  0  0  0
  141.0420   81.1980  223.7370 C   0  0  0  0  0  0  0  0  0  0  0  0
  142.4270   81.2840  223.7240 C   0  0  0  0  0  0  0  0  0  0  0  0
  143.2320   80.2100  223.3810 C   0  0  0  0  0  0  0  0  0  0  0  0
  142.5680   79.0370  223.0510 C   0  0  0  0  0  0  0  0  0  0  0  0
  141.2040   78.9210  223.0540 C   0  0  0  0  0  0  0  0  0  0  0  0
  140.5940   77.7650  222.7280 N   0  0  0  0  0  0  0  0  0  0  0  0
  140.5100   75.3850  222.0790 H   0  0  0  0  0  0  0  0  0  0  0  0
  138.0123   73.7509  222.2879 H   0  0  0  0  0  0  0  0  0  0  0  0
  138.6104   73.9570  220.6189 H   0  0  0  0  0  0  0  0  0  0  0  0
  140.7221   71.5531  219.9337 H   0  0  0  0  0  0  0  0  0  0  0  0
  141.1978   70.2742  221.1045 H   0  0  0  0  0  0  0  0  0  0  0  0
  138.6582   70.4386  219.4540 H   0  0  0  0  0  0  0  0  0  0  0  0
  140.0158   69.2382  219.3260 H   0  0  0  0  0  0  0  0  0  0  0  0
  137.9997   68.3401  220.4518 H   0  0  0  0  0  0  0  0  0  0  0  0
  139.5069   68.3507  221.4796 H   0  0  0  0  0  0  0  0  0  0  0  0
  137.0326   70.0003  221.6711 H   0  0  0  0  0  0  0  0  0  0  0  0
  137.9725   69.0053  222.9211 H   0  0  0  0  0  0  0  0  0  0  0  0
  137.8499   71.6472  222.6438 H   0  0  0  0  0  0  0  0  0  0  0  0
  137.8618   69.1588  224.5140 H   0  0  0  0  0  0  0  0  0  0  0  0
  138.7516   68.8469  226.7917 H   0  0  0  0  0  0  0  0  0  0  0  0
  141.5968   71.9424  226.0726 H   0  0  0  0  0  0  0  0  0  0  0  0
  140.7196   72.2562  223.8143 H   0  0  0  0  0  0  0  0  0  0  0  0
  137.3737   78.6157  223.0716 H   0  0  0  0  0  0  0  0  0  0  0  0
  138.4108   80.7874  223.6876 H   0  0  0  0  0  0  0  0  0  0  0  0
  140.4430   82.0777  224.0149 H   0  0  0  0  0  0  0  0  0  0  0  0
  142.9022   82.2382  223.9955 H   0  0  0  0  0  0  0  0  0  0  0  0
  144.3296   80.2825  223.3709 H   0  0  0  0  0  0  0  0  0  0  0  0
  143.1671   78.1572  222.7734 H   0  0  0  0  0  0  0  0  0  0  0  0
  1  2  2  0
  2  3  1  0
  3  4  1  0
  4  5  1  0
  5  6  2  0
  5  7  1  0
  7  8  1  0
  8  9  1  0
  9 10  1  0
 10 11  1  0
 11 12  1  0
 12 13  1  0
 13 14  2  0
 14 15  1  0
 15 16  2  0
 16 17  1  0
 17 18  1  0
 17 19  1  0
 17 20  1  0
 16 21  1  0
 21 22  2  0
  2 23  1  0
 23 24  2  0
 24 25  1  0
 25 26  2  0
 26 27  1  0
 27 28  2  0
 28 29  1  0
 29 30  2  0
 30 31  1  0
 31 32  2  0
 12  7  1  0
 22 13  1  0
 32 23  1  0
 31 26  1  0
  3 33  1  0
  4 34  1  0
  4 35  1  0
  8 36  1  0
  8 37  1  0
  9 38  1  0
  9 39  1  0
 10 40  1  0
 10 41  1  0
 11 42  1  0
 11 43  1  0
 12 44  1  1
 14 45  1  0
 15 46  1  0
 21 47  1  0
 22 48  1  0
 24 49  1  0
 25 50  1  0
 27 51  1  0
 28 52  1  0
 29 53  1  0
 30 54  1  0
M  END
>  <smiles>  (63) 
O=C(NCC(=O)N1CCCCC1c1ccc(C(F)(F)F)cc1)c1ccc2ccccc2n1

>  <score_type>  (63) 
oracle

>  <origin>  (63) 
autodockgpu

>  <m_score__min__energy>  (63) 
-8.4100000000000001

>  <m_primary>  (63) 
energy

>  <rmsd>  (63) 
8.150209026789232

>  <m_score__min__rmsd>  (63) 
8.150209026789232

>  <meeko>  (63) 
{"free_energy": -8.18, "intermolecular_energy": -9.97, "internal_energy": -2.11, "cluster_size": 11, "cluster_id": 4, "rank_in_cluster": 1}

>  <energy>  (63) 
-8.14

>  <cluster_rmsd>  (63) 
0.68

>  <cluster>  (63) 
1

$$$$

     RDKit          3D

 54 57  0  0  0  0  0  0  0  0999 V2000
  141.2070   71.6580  221.4820 O   0  0  0  0  0  0  0  0  0  0  0  0
  140.4970   72.1130  222.4140 C   0  0  0  0  0  0  0  0  0  0  0  0
  139.8860   73.3950  222.3840 N   0  0  0  0  0  0  0  0  0  0  0  0
  140.0550   74.2730  221.2420 C   0  0  0  0  0  0  0  0  0  0  0  0
  139.7740   75.6610  221.6870 C   0  0  0  0  0  0  0  0  0  0  0  0
  139.0890   75.8140  222.7330 O   0  0  0  0  0  0  0  0  0  0  0  0
  140.2760   76.7880  220.9360 N   0  0  0  0  0  0  0  0  0  0  0  0
  140.1490   76.7680  219.4950 C   0  0  0  0  0  0  0  0  0  0  0  0
  141.3710   77.3640  218.8730 C   0  0  0  0  0  0  0  0  0  0  0  0
  141.6950   78.7270  219.4440 C   0  0  0  0  0  0  0  0  0  0  0  0
  141.8230   78.7260  220.9280 C   0  0  0  0  0  0  0  0  0  0  0  0
  140.8750   77.8710  221.6820 C   0  0  1  0  0  0  0  0  0  0  0  0
  139.8410   78.6660  222.4180 C   0  0  0  0  0  0  0  0  0  0  0  0
  140.1500   79.4270  223.5300 C   0  0  0  0  0  0  0  0  0  0  0  0
  139.1970   80.1650  224.2160 C   0  0  0  0  0  0  0  0  0  0  0  0
  137.8950   80.1600  223.8030 C   0  0  0  0  0  0  0  0  0  0  0  0
  136.9150   80.9660  224.5700 C   0  0  0  0  0  0  0  0  0  0  0  0
  136.6200   82.1270  223.8810 F   0  0  0  0  0  0  0  0  0  0  0  0
  135.7410   80.2390  224.6240 F   0  0  0  0  0  0  0  0  0  0  0  0
  137.3340   81.2410  225.8550 F   0  0  0  0  0  0  0  0  0  0  0  0
  137.5680   79.4090  222.6990 C   0  0  0  0  0  0  0  0  0  0  0  0
  138.5110   78.6810  222.0230 C   0  0  0  0  0  0  0  0  0  0  0  0
  140.2720   71.2850  223.6150 C   0  0  0  0  0  0  0  0  0  0  0  0
  139.6150   70.0610  223.4940 C   0  0  0  0  0  0  0  0  0  0  0  0
  139.3860   69.2610  224.5900 C   0  0  0  0  0  0  0  0  0  0  0  0
  139.8300   69.7080  225.8150 C   0  0  0  0  0  0  0  0  0  0  0  0
  139.6330   68.9530  226.9560 C   0  0  0  0  0  0  0  0  0  0  0  0
  140.0810   69.4080  228.1890 C   0  0  0  0  0  0  0  0  0  0  0  0
  140.7370   70.6190  228.3360 C   0  0  0  0  0  0  0  0  0  0  0  0
  140.9200   71.3540  227.1720 C   0  0  0  0  0  0  0  0  0  0  0  0
  140.4890   70.9320  225.9430 C   0  0  0  0  0  0  0  0  0  0  0  0
  140.6850   71.6730  224.8360 N   0  0  0  0  0  0  0  0  0  0  0  0
  139.2990   73.7090  223.2110 H   0  0  0  0  0  0  0  0  0  0  0  0
  141.0864   74.2028  220.8662 H   0  0  0  0  0  0  0  0  0  0  0  0
  139.3687   73.9843  220.4323 H   0  0  0  0  0  0  0  0  0  0  0  0
  140.0340   75.7290  219.1525 H   0  0  0  0  0  0  0  0  0  0  0  0
  139.2667   77.3544  219.1989 H   0  0  0  0  0  0  0  0  0  0  0  0
  142.2236   76.6926  219.0528 H   0  0  0  0  0  0  0  0  0  0  0  0
  141.1777   77.4855  217.7970 H   0  0  0  0  0  0  0  0  0  0  0  0
  142.6463   79.0702  219.0113 H   0  0  0  0  0  0  0  0  0  0  0  0
  140.8598   79.3956  219.1883 H   0  0  0  0  0  0  0  0  0  0  0  0
  142.8412   78.3900  221.1736 H   0  0  0  0  0  0  0  0  0  0  0  0
  141.5890   79.7555  221.2369 H   0  0  0  0  0  0  0  0  0  0  0  0
  141.5205   77.3745  222.4215 H   0  0  0  0  0  0  0  0  0  0  0  0
  141.1912   79.4480  223.8841 H   0  0  0  0  0  0  0  0  0  0  0  0
  139.4907   80.7564  225.0958 H   0  0  0  0  0  0  0  0  0  0  0  0
  136.5248   79.3923  222.3504 H   0  0  0  0  0  0  0  0  0  0  0  0
  138.2061   78.0933  221.1446 H   0  0  0  0  0  0  0  0  0  0  0  0
  139.2730   69.7284  222.5028 H   0  0  0  0  0  0  0  0  0  0  0  0
  138.8658   68.2968  224.4912 H   0  0  0  0  0  0  0  0  0  0  0  0
  139.1172   67.9839  226.8866 H   0  0  0  0  0  0  0  0  0  0  0  0
  139.9091   68.7855  229.0794 H   0  0  0  0  0  0  0  0  0  0  0  0
  141.0911   70.9764  229.3142 H   0  0  0  0  0  0  0  0  0  0  0  0
  141.4366   72.3227  227.2409 H   0  0  0  0  0  0  0  0  0  0  0  0
  1  2  2  0
  2  3  1  0
  3  4  1  0
  4  5  1  0
  5  6  2  0
  5  7  1  0
  7  8  1  0
  8  9  1  0
  9 10  1  0
 10 11  1  0
 11 12  1  0
 12 13  1  0
 13 14  2  0
 14 15  1  0
 15 16  2  0
 16 17  1  0
 17 18  1  0
 17 19  1  0
 17 20  1  0
 16 21  1  0
 21 22  2  0
  2 23  1  0
 23 24  2  0
 24 25  1  0
 25 26  2  0
 26 27  1  0
 27 28  2  0
 28 29  1  0
 29 30  2  0
 30 31  1  0
 31 32  2  0
 12  7  1  0
 22 13  1  0
 32 23  1  0
 31 26  1  0
  3 33  1  0
  4 34  1  0
  4 35  1  0
  8 36  1  0
  8 37  1  0
  9 38  1  0
  9 39  1  0
 10 40  1  0
 10 41  1  0
 11 42  1  0
 11 43  1  0
 12 44  1  1
 14 45  1  0
 15 46  1  0
 21 47  1  0
 22 48  1  0
 24 49  1  0
 25 50  1  0
 27 51  1  0
 28 52  1  0
 29 53  1  0
 30 54  1  0
M  END
>  <smiles>  (64) 
O=C(NCC(=O)N1CCCCC1c1ccc(C(F)(F)F)cc1)c1ccc2ccccc2n1

>  <score_type>  (64) 
oracle

>  <origin>  (64) 
autodockgpu

>  <m_score__min__energy>  (64) 
-8.4100000000000001

>  <m_primary>  (64) 
energy

>  <rmsd>  (64) 
2.0599236396092615

>  <m_score__min__rmsd>  (64) 
2.0599236396092615

>  <meeko>  (64) 
{"free_energy": -8.31, "intermolecular_energy": -10.1, "internal_energy": -1.99, "cluster_size": 3, "cluster_id": 2, "rank_in_cluster": 2}

>  <energy>  (64) 
-8.05

>  <cluster_rmsd>  (64) 
1.72

>  <cluster>  (64) 
1

$$$$

     RDKit          3D

 54 57  0  0  0  0  0  0  0  0999 V2000
  139.7000   70.9940  221.2560 O   0  0  0  0  0  0  0  0  0  0  0  0
  139.5460   71.7270  222.2660 C   0  0  0  0  0  0  0  0  0  0  0  0
  139.1630   73.0930  222.1960 N   0  0  0  0  0  0  0  0  0  0  0  0
  138.9210   73.7340  220.9170 C   0  0  0  0  0  0  0  0  0  0  0  0
  139.4170   75.1300  221.0030 C   0  0  0  0  0  0  0  0  0  0  0  0
  138.9280   75.8710  221.8970 O   0  0  0  0  0  0  0  0  0  0  0  0
  140.4250   75.6090  220.0880 N   0  0  0  0  0  0  0  0  0  0  0  0
  140.1400   75.5770  218.6700 C   0  0  0  0  0  0  0  0  0  0  0  0
  141.3740   75.1960  217.9160 C   0  0  0  0  0  0  0  0  0  0  0  0
  142.5590   76.0600  218.2860 C   0  0  0  0  0  0  0  0  0  0  0  0
  142.8370   76.0780  219.7490 C   0  0  0  0  0  0  0  0  0  0  0  0
  141.6630   76.0940  220.6540 C   0  0  1  0  0  0  0  0  0  0  0  0
  141.4730   77.4170  221.3300 C   0  0  0  0  0  0  0  0  0  0  0  0
  141.0980   77.5200  222.6570 C   0  0  0  0  0  0  0  0  0  0  0  0
  140.9210   78.7420  223.2890 C   0  0  0  0  0  0  0  0  0  0  0  0
  141.1180   79.9060  222.6010 C   0  0  0  0  0  0  0  0  0  0  0  0
  140.9170   81.1860  223.3220 C   0  0  0  0  0  0  0  0  0  0  0  0
  141.9370   81.3760  224.2350 F   0  0  0  0  0  0  0  0  0  0  0  0
  141.0350   82.2020  222.3930 F   0  0  0  0  0  0  0  0  0  0  0  0
  139.6820   81.2720  223.9290 F   0  0  0  0  0  0  0  0  0  0  0  0
  141.4930   79.8240  221.2810 C   0  0  0  0  0  0  0  0  0  0  0  0
  141.6660   78.6160  220.6590 C   0  0  0  0  0  0  0  0  0  0  0  0
  139.7720   71.1560  223.6080 C   0  0  0  0  0  0  0  0  0  0  0  0
  139.4230   69.8300  223.8590 C   0  0  0  0  0  0  0  0  0  0  0  0
  139.6170   69.2620  225.0970 C   0  0  0  0  0  0  0  0  0  0  0  0
  140.1700   70.0470  226.0840 C   0  0  0  0  0  0  0  0  0  0  0  0
  140.3920   69.5380  227.3510 C   0  0  0  0  0  0  0  0  0  0  0  0
  140.9490   70.3330  228.3420 C   0  0  0  0  0  0  0  0  0  0  0  0
  141.3040   71.6530  228.1190 C   0  0  0  0  0  0  0  0  0  0  0  0
  141.0700   72.1350  226.8390 C   0  0  0  0  0  0  0  0  0  0  0  0
  140.5210   71.3760  225.8400 C   0  0  0  0  0  0  0  0  0  0  0  0
  140.3090   71.8780  224.6090 N   0  0  0  0  0  0  0  0  0  0  0  0
  139.0520   73.6470  223.0940 H   0  0  0  0  0  0  0  0  0  0  0  0
  139.4576   73.1954  220.1220 H   0  0  0  0  0  0  0  0  0  0  0  0
  137.8466   73.7239  220.6815 H   0  0  0  0  0  0  0  0  0  0  0  0
  139.3485   74.8390  218.4727 H   0  0  0  0  0  0  0  0  0  0  0  0
  139.8064   76.5729  218.3431 H   0  0  0  0  0  0  0  0  0  0  0  0
  141.6166   74.1469  218.1406 H   0  0  0  0  0  0  0  0  0  0  0  0
  141.1728   75.3397  216.8441 H   0  0  0  0  0  0  0  0  0  0  0  0
  143.4485   75.6751  217.7657 H   0  0  0  0  0  0  0  0  0  0  0  0
  142.3189   77.0907  217.9859 H   0  0  0  0  0  0  0  0  0  0  0  0
  143.4274   75.1807  219.9862 H   0  0  0  0  0  0  0  0  0  0  0  0
  143.3530   77.0322  219.9314 H   0  0  0  0  0  0  0  0  0  0  0  0
  141.9289   75.3490  221.4184 H   0  0  0  0  0  0  0  0  0  0  0  0
  140.9338   76.5976  223.2334 H   0  0  0  0  0  0  0  0  0  0  0  0
  140.6213   78.7741  224.3469 H   0  0  0  0  0  0  0  0  0  0  0  0
  141.6580   80.7502  220.7110 H   0  0  0  0  0  0  0  0  0  0  0  0
  141.9655   78.5959  219.6007 H   0  0  0  0  0  0  0  0  0  0  0  0
  138.9839   69.2259  223.0514 H   0  0  0  0  0  0  0  0  0  0  0  0
  139.3396   68.2156  225.2919 H   0  0  0  0  0  0  0  0  0  0  0  0
  140.1247   68.4946  227.5744 H   0  0  0  0  0  0  0  0  0  0  0  0
  141.1145   69.9000  229.3395 H   0  0  0  0  0  0  0  0  0  0  0  0
  141.7443   72.2806  228.9079 H   0  0  0  0  0  0  0  0  0  0  0  0
  141.3387   73.1781  226.6158 H   0  0  0  0  0  0  0  0  0  0  0  0
  1  2  2  0
  2  3  1  0
  3  4  1  0
  4  5  1  0
  5  6  2  0
  5  7  1  0
  7  8  1  0
  8  9  1  0
  9 10  1  0
 10 11  1  0
 11 12  1  0
 12 13  1  0
 13 14  2  0
 14 15  1  0
 15 16  2  0
 16 17  1  0
 17 18  1  0
 17 19  1  0
 17 20  1  0
 16 21  1  0
 21 22  2  0
  2 23  1  0
 23 24  2  0
 24 25  1  0
 25 26  2  0
 26 27  1  0
 27 28  2  0
 28 29  1  0
 29 30  2  0
 30 31  1  0
 31 32  2  0
 12  7  1  0
 22 13  1  0
 32 23  1  0
 31 26  1  0
  3 33  1  0
  4 34  1  0
  4 35  1  0
  8 36  1  0
  8 37  1  0
  9 38  1  0
  9 39  1  0
 10 40  1  0
 10 41  1  0
 11 42  1  0
 11 43  1  0
 12 44  1  1
 14 45  1  0
 15 46  1  0
 21 47  1  0
 22 48  1  0
 24 49  1  0
 25 50  1  0
 27 51  1  0
 28 52  1  0
 29 53  1  0
 30 54  1  0
M  END
>  <smiles>  (65) 
O=C(NCC(=O)N1CCCCC1c1ccc(C(F)(F)F)cc1)c1ccc2ccccc2n1

>  <score_type>  (65) 
oracle

>  <origin>  (65) 
autodockgpu

>  <m_score__min__energy>  (65) 
-8.4100000000000001

>  <m_primary>  (65) 
energy

>  <rmsd>  (65) 
1.5465462572851385

>  <m_score__min__rmsd>  (65) 
1.5465462572851385

>  <meeko>  (65) 
{"free_energy": -8.41, "intermolecular_energy": -10.2, "internal_energy": -1.8, "cluster_size": 16, "cluster_id": 1, "rank_in_cluster": 1}

>  <energy>  (65) 
-8.01

>  <cluster_rmsd>  (65) 
1.38

>  <cluster>  (65) 
1

$$$$

     RDKit          3D

 54 57  0  0  0  0  0  0  0  0999 V2000
  137.9560   70.7110  221.9520 O   0  0  0  0  0  0  0  0  0  0  0  0
  138.6870   71.2670  222.8120 C   0  0  0  0  0  0  0  0  0  0  0  0
  139.1380   72.6100  222.7100 N   0  0  0  0  0  0  0  0  0  0  0  0
  138.7680   73.4360  221.5760 C   0  0  0  0  0  0  0  0  0  0  0  0
  139.1260   74.8400  221.8980 C   0  0  0  0  0  0  0  0  0  0  0  0
  140.2880   75.0650  222.3280 O   0  0  0  0  0  0  0  0  0  0  0  0
  138.1640   75.9010  221.7190 N   0  0  0  0  0  0  0  0  0  0  0  0
  136.8990   75.8100  222.4160 C   0  0  0  0  0  0  0  0  0  0  0  0
  135.8010   76.3170  221.5360 C   0  0  0  0  0  0  0  0  0  0  0  0
  136.1010   77.6920  220.9840 C   0  0  0  0  0  0  0  0  0  0  0  0
  137.4060   77.7650  220.2690 C   0  0  0  0  0  0  0  0  0  0  0  0
  138.5320   76.9950  220.8490 C   0  0  1  0  0  0  0  0  0  0  0  0
  139.5660   77.8730  221.4840 C   0  0  0  0  0  0  0  0  0  0  0  0
  140.7990   78.0980  220.9010 C   0  0  0  0  0  0  0  0  0  0  0  0
  141.7620   78.9110  221.4830 C   0  0  0  0  0  0  0  0  0  0  0  0
  141.5110   79.5260  222.6760 C   0  0  0  0  0  0  0  0  0  0  0  0
  142.5710   80.3850  223.2560 C   0  0  0  0  0  0  0  0  0  0  0  0
  142.2090   81.7140  223.1500 F   0  0  0  0  0  0  0  0  0  0  0  0
  142.6290   80.1070  224.6090 F   0  0  0  0  0  0  0  0  0  0  0  0
  143.8110   80.1590  222.6970 F   0  0  0  0  0  0  0  0  0  0  0  0
  140.2890   79.3150  223.2710 C   0  0  0  0  0  0  0  0  0  0  0  0
  139.3410   78.5110  222.6950 C   0  0  0  0  0  0  0  0  0  0  0  0
  139.1100   70.4980  223.9980 C   0  0  0  0  0  0  0  0  0  0  0  0
  138.9010   69.1210  224.0360 C   0  0  0  0  0  0  0  0  0  0  0  0
  139.2810   68.3690  225.1250 C   0  0  0  0  0  0  0  0  0  0  0  0
  139.8780   69.0240  226.1790 C   0  0  0  0  0  0  0  0  0  0  0  0
  140.2850   68.3290  227.3030 C   0  0  0  0  0  0  0  0  0  0  0  0
  140.8860   68.9930  228.3640 C   0  0  0  0  0  0  0  0  0  0  0  0
  141.1060   70.3610  228.3510 C   0  0  0  0  0  0  0  0  0  0  0  0
  140.6870   71.0300  227.2090 C   0  0  0  0  0  0  0  0  0  0  0  0
  140.0910   70.4030  226.1480 C   0  0  0  0  0  0  0  0  0  0  0  0
  139.6980   71.0870  225.0560 N   0  0  0  0  0  0  0  0  0  0  0  0
  139.7530   73.0090  223.4780 H   0  0  0  0  0  0  0  0  0  0  0  0
  139.3146   73.1070  220.6799 H   0  0  0  0  0  0  0  0  0  0  0  0
  137.6896   73.3518  221.3763 H   0  0  0  0  0  0  0  0  0  0  0  0
  136.7013   74.7605  222.6794 H   0  0  0  0  0  0  0  0  0  0  0  0
  136.9427   76.4186  223.3312 H   0  0  0  0  0  0  0  0  0  0  0  0
  135.6692   75.6190  220.6961 H   0  0  0  0  0  0  0  0  0  0  0  0
  134.8869   76.3889  222.1437 H   0  0  0  0  0  0  0  0  0  0  0  0
  135.3013   77.9688  220.2813 H   0  0  0  0  0  0  0  0  0  0  0  0
  136.1571   78.3824  221.8385 H   0  0  0  0  0  0  0  0  0  0  0  0
  137.2448   77.3977  219.2447 H   0  0  0  0  0  0  0  0  0  0  0  0
  137.7130   78.8190  220.3390 H   0  0  0  0  0  0  0  0  0  0  0  0
  138.9811   76.5113  219.9690 H   0  0  0  0  0  0  0  0  0  0  0  0
  141.0257   77.6144  219.9393 H   0  0  0  0  0  0  0  0  0  0  0  0
  142.7298   79.0602  220.9818 H   0  0  0  0  0  0  0  0  0  0  0  0
  140.0677   79.8031  224.2316 H   0  0  0  0  0  0  0  0  0  0  0  0
  138.3773   78.3678  223.2056 H   0  0  0  0  0  0  0  0  0  0  0  0
  138.4228   68.6246  223.1787 H   0  0  0  0  0  0  0  0  0  0  0  0
  139.1134   67.2822  225.1522 H   0  0  0  0  0  0  0  0  0  0  0  0
  140.1314   67.2411  227.3570 H   0  0  0  0  0  0  0  0  0  0  0  0
  141.1982   68.4132  229.2451 H   0  0  0  0  0  0  0  0  0  0  0  0
  141.5829   70.8842  229.1929 H   0  0  0  0  0  0  0  0  0  0  0  0
  140.8415   72.1177  227.1540 H   0  0  0  0  0  0  0  0  0  0  0  0
  1  2  2  0
  2  3  1  0
  3  4  1  0
  4  5  1  0
  5  6  2  0
  5  7  1  0
  7  8  1  0
  8  9  1  0
  9 10  1  0
 10 11  1  0
 11 12  1  0
 12 13  1  0
 13 14  2  0
 14 15  1  0
 15 16  2  0
 16 17  1  0
 17 18  1  0
 17 19  1  0
 17 20  1  0
 16 21  1  0
 21 22  2  0
  2 23  1  0
 23 24  2  0
 24 25  1  0
 25 26  2  0
 26 27  1  0
 27 28  2  0
 28 29  1  0
 29 30  2  0
 30 31  1  0
 31 32  2  0
 12  7  1  0
 22 13  1  0
 32 23  1  0
 31 26  1  0
  3 33  1  0
  4 34  1  0
  4 35  1  0
  8 36  1  0
  8 37  1  0
  9 38  1  0
  9 39  1  0
 10 40  1  0
 10 41  1  0
 11 42  1  0
 11 43  1  0
 12 44  1  6
 14 45  1  0
 15 46  1  0
 21 47  1  0
 22 48  1  0
 24 49  1  0
 25 50  1  0
 27 51  1  0
 28 52  1  0
 29 53  1  0
 30 54  1  0
M  END
>  <smiles>  (66) 
O=C(NCC(=O)N1CCCCC1c1ccc(C(F)(F)F)cc1)c1ccc2ccccc2n1

>  <score_type>  (66) 
oracle

>  <origin>  (66) 
autodockgpu

>  <m_score__min__energy>  (66) 
-8.4100000000000001

>  <m_primary>  (66) 
energy

>  <rmsd>  (66) 
2.76593054030551

>  <m_score__min__rmsd>  (66) 
2.76593054030551

>  <meeko>  (66) 
{"free_energy": -8.14, "intermolecular_energy": -9.93, "internal_energy": -2.04, "cluster_size": 16, "cluster_id": 1, "rank_in_cluster": 12}

>  <energy>  (66) 
-7.73

>  <cluster_rmsd>  (66) 
1.15

>  <cluster>  (66) 
1

$$$$

     RDKit          3D

 54 57  0  0  0  0  0  0  0  0999 V2000
  140.8830   71.5790  221.3540 O   0  0  0  0  0  0  0  0  0  0  0  0
  140.3810   72.1580  222.3520 C   0  0  0  0  0  0  0  0  0  0  0  0
  139.9470   73.5100  222.3400 N   0  0  0  0  0  0  0  0  0  0  0  0
  140.0610   74.3190  221.1410 C   0  0  0  0  0  0  0  0  0  0  0  0
  140.3470   75.7150  221.5570 C   0  0  0  0  0  0  0  0  0  0  0  0
  139.8860   76.1040  222.6630 O   0  0  0  0  0  0  0  0  0  0  0  0
  141.1290   76.5870  220.7120 N   0  0  0  0  0  0  0  0  0  0  0  0
  141.5390   77.8700  221.2390 C   0  0  0  0  0  0  0  0  0  0  0  0
  141.4630   78.9050  220.1620 C   0  0  0  0  0  0  0  0  0  0  0  0
  142.2070   78.4850  218.9140 C   0  0  0  0  0  0  0  0  0  0  0  0
  141.7680   77.1630  218.3870 C   0  0  0  0  0  0  0  0  0  0  0  0
  141.4530   76.1140  219.3860 C   0  0  1  0  0  0  0  0  0  0  0  0
  142.4850   75.0290  219.4290 C   0  0  0  0  0  0  0  0  0  0  0  0
  142.4700   73.9630  218.5490 C   0  0  0  0  0  0  0  0  0  0  0  0
  143.4230   72.9550  218.5840 C   0  0  0  0  0  0  0  0  0  0  0  0
  144.4260   72.9890  219.5110 C   0  0  0  0  0  0  0  0  0  0  0  0
  145.4190   71.8890  219.5060 C   0  0  0  0  0  0  0  0  0  0  0  0
  144.7890   70.6860  219.7650 F   0  0  0  0  0  0  0  0  0  0  0  0
  145.9190   71.7940  218.2200 F   0  0  0  0  0  0  0  0  0  0  0  0
  146.4630   72.1030  220.3800 F   0  0  0  0  0  0  0  0  0  0  0  0
  144.4570   74.0420  220.3940 C   0  0  0  0  0  0  0  0  0  0  0  0
  143.5150   75.0360  220.3580 C   0  0  0  0  0  0  0  0  0  0  0  0
  140.2280   71.4090  223.6140 C   0  0  0  0  0  0  0  0  0  0  0  0
  139.6000   70.1640  223.6020 C   0  0  0  0  0  0  0  0  0  0  0  0
  139.4360   69.4350  224.7580 C   0  0  0  0  0  0  0  0  0  0  0  0
  139.9170   69.9760  225.9310 C   0  0  0  0  0  0  0  0  0  0  0  0
  139.7850   69.2960  227.1280 C   0  0  0  0  0  0  0  0  0  0  0  0
  140.2700   69.8450  228.3070 C   0  0  0  0  0  0  0  0  0  0  0  0
  140.8990   71.0780  228.3450 C   0  0  0  0  0  0  0  0  0  0  0  0
  141.0150   71.7360  227.1280 C   0  0  0  0  0  0  0  0  0  0  0  0
  140.5460   71.2210  225.9490 C   0  0  0  0  0  0  0  0  0  0  0  0
  140.6780   71.8890  224.7870 N   0  0  0  0  0  0  0  0  0  0  0  0
  139.5330   73.9290  223.2230 H   0  0  0  0  0  0  0  0  0  0  0  0
  140.8806   73.9413  220.5120 H   0  0  0  0  0  0  0  0  0  0  0  0
  139.1279   74.2762  220.5601 H   0  0  0  0  0  0  0  0  0  0  0  0
  140.8735   78.1547  222.0673 H   0  0  0  0  0  0  0  0  0  0  0  0
  142.5742   77.7998  221.6043 H   0  0  0  0  0  0  0  0  0  0  0  0
  140.4066   79.0726  219.9054 H   0  0  0  0  0  0  0  0  0  0  0  0
  141.9326   79.8241  220.5425 H   0  0  0  0  0  0  0  0  0  0  0  0
  142.0411   79.2444  218.1357 H   0  0  0  0  0  0  0  0  0  0  0  0
  143.2700   78.3938  219.1819 H   0  0  0  0  0  0  0  0  0  0  0  0
  140.8636   77.3295  217.7835 H   0  0  0  0  0  0  0  0  0  0  0  0
  142.6323   76.7759  217.8274 H   0  0  0  0  0  0  0  0  0  0  0  0
  140.5142   75.6831  219.0079 H   0  0  0  0  0  0  0  0  0  0  0  0
  141.6728   73.9119  217.7928 H   0  0  0  0  0  0  0  0  0  0  0  0
  143.3707   72.1259  217.8630 H   0  0  0  0  0  0  0  0  0  0  0  0
  145.2572   74.0876  221.1474 H   0  0  0  0  0  0  0  0  0  0  0  0
  143.5770   75.8602  221.0839 H   0  0  0  0  0  0  0  0  0  0  0  0
  139.2285   69.7566  222.6502 H   0  0  0  0  0  0  0  0  0  0  0  0
  138.9381   68.4542  224.7461 H   0  0  0  0  0  0  0  0  0  0  0  0
  139.2920   68.3128  227.1459 H   0  0  0  0  0  0  0  0  0  0  0  0
  140.1505   69.2809  229.2438 H   0  0  0  0  0  0  0  0  0  0  0  0
  141.2829   71.5094  229.2812 H   0  0  0  0  0  0  0  0  0  0  0  0
  141.5078   72.7193  227.1099 H   0  0  0  0  0  0  0  0  0  0  0  0
  1  2  2  0
  2  3  1  0
  3  4  1  0
  4  5  1  0
  5  6  2  0
  5  7  1  0
  7  8  1  0
  8  9  1  0
  9 10  1  0
 10 11  1  0
 11 12  1  0
 12 13  1  0
 13 14  2  0
 14 15  1  0
 15 16  2  0
 16 17  1  0
 17 18  1  0
 17 19  1  0
 17 20  1  0
 16 21  1  0
 21 22  2  0
  2 23  1  0
 23 24  2  0
 24 25  1  0
 25 26  2  0
 26 27  1  0
 27 28  2  0
 28 29  1  0
 29 30  2  0
 30 31  1  0
 31 32  2  0
 12  7  1  0
 22 13  1  0
 32 23  1  0
 31 26  1  0
  3 33  1  0
  4 34  1  0
  4 35  1  0
  8 36  1  0
  8 37  1  0
  9 38  1  0
  9 39  1  0
 10 40  1  0
 10 41  1  0
 11 42  1  0
 11 43  1  0
 12 44  1  6
 14 45  1  0
 15 46  1  0
 21 47  1  0
 22 48  1  0
 24 49  1  0
 25 50  1  0
 27 51  1  0
 28 52  1  0
 29 53  1  0
 30 54  1  0
M  END
>  <smiles>  (67) 
O=C(NCC(=O)N1CCCCC1c1ccc(C(F)(F)F)cc1)c1ccc2ccccc2n1

>  <score_type>  (67) 
oracle

>  <origin>  (67) 
autodockgpu

>  <m_score__min__energy>  (67) 
-8.4100000000000001

>  <m_primary>  (67) 
energy

>  <rmsd>  (67) 
2.3715189774740177

>  <m_score__min__rmsd>  (67) 
2.3715189774740177

>  <meeko>  (67) 
{"free_energy": -8.14, "intermolecular_energy": -9.93, "internal_energy": -2.25, "cluster_size": 18, "cluster_id": 3, "rank_in_cluster": 12}

>  <energy>  (67) 
-8.32

>  <cluster_rmsd>  (67) 
0.0

>  <cluster>  (67) 
2

$$$$

     RDKit          3D

 54 57  0  0  0  0  0  0  0  0999 V2000
  140.1120   71.3150  221.3040 O   0  0  0  0  0  0  0  0  0  0  0  0
  139.9020   71.9430  222.3730 C   0  0  0  0  0  0  0  0  0  0  0  0
  139.5950   73.3290  222.4240 N   0  0  0  0  0  0  0  0  0  0  0  0
  139.5070   74.1170  221.2090 C   0  0  0  0  0  0  0  0  0  0  0  0
  139.8930   75.5110  221.5390 C   0  0  0  0  0  0  0  0  0  0  0  0
  139.6400   75.9310  222.7000 O   0  0  0  0  0  0  0  0  0  0  0  0
  140.5380   76.3470  220.5540 N   0  0  0  0  0  0  0  0  0  0  0  0
  140.5090   77.7810  220.7420 C   0  0  0  0  0  0  0  0  0  0  0  0
  140.3290   78.4590  219.4210 C   0  0  0  0  0  0  0  0  0  0  0  0
  141.3410   77.9920  218.3980 C   0  0  0  0  0  0  0  0  0  0  0  0
  141.3530   76.5140  218.2180 C   0  0  0  0  0  0  0  0  0  0  0  0
  141.1760   75.6890  219.4370 C   0  0  1  0  0  0  0  0  0  0  0  0
  142.4380   75.0000  219.8570 C   0  0  0  0  0  0  0  0  0  0  0  0
  143.6140   75.6890  220.0800 C   0  0  0  0  0  0  0  0  0  0  0  0
  144.7870   75.0560  220.4700 C   0  0  0  0  0  0  0  0  0  0  0  0
  144.8100   73.7020  220.6460 C   0  0  0  0  0  0  0  0  0  0  0  0
  146.0870   73.0740  221.0630 C   0  0  0  0  0  0  0  0  0  0  0  0
  146.0050   72.6760  222.3840 F   0  0  0  0  0  0  0  0  0  0  0  0
  146.2370   71.9190  220.3190 F   0  0  0  0  0  0  0  0  0  0  0  0
  147.1800   73.8890  220.8550 F   0  0  0  0  0  0  0  0  0  0  0  0
  143.6490   72.9990  220.4290 C   0  0  0  0  0  0  0  0  0  0  0  0
  142.4930   73.6260  220.0440 C   0  0  0  0  0  0  0  0  0  0  0  0
  139.9720   71.2180  223.6570 C   0  0  0  0  0  0  0  0  0  0  0  0
  139.5470   69.8920  223.7210 C   0  0  0  0  0  0  0  0  0  0  0  0
  139.5950   69.1820  224.8990 C   0  0  0  0  0  0  0  0  0  0  0  0
  140.0810   69.8250  226.0160 C   0  0  0  0  0  0  0  0  0  0  0  0
  140.1570   69.1700  227.2320 C   0  0  0  0  0  0  0  0  0  0  0  0
  140.6470   69.8230  228.3550 C   0  0  0  0  0  0  0  0  0  0  0  0
  141.0760   71.1390  228.3170 C   0  0  0  0  0  0  0  0  0  0  0  0
  140.9870   71.7700  227.0830 C   0  0  0  0  0  0  0  0  0  0  0  0
  140.5080   71.1530  225.9590 C   0  0  0  0  0  0  0  0  0  0  0  0
  140.4370   71.7970  224.7780 N   0  0  0  0  0  0  0  0  0  0  0  0
  139.4290   73.7880  223.3660 H   0  0  0  0  0  0  0  0  0  0  0  0
  140.1907   73.7100  220.4495 H   0  0  0  0  0  0  0  0  0  0  0  0
  138.4832   74.0883  220.8077 H   0  0  0  0  0  0  0  0  0  0  0  0
  139.6729   78.0459  221.4059 H   0  0  0  0  0  0  0  0  0  0  0  0
  141.4572   78.1085  221.1934 H   0  0  0  0  0  0  0  0  0  0  0  0
  139.3185   78.2407  219.0453 H   0  0  0  0  0  0  0  0  0  0  0  0
  140.4745   79.5388  219.5723 H   0  0  0  0  0  0  0  0  0  0  0  0
  141.1028   78.4601  217.4315 H   0  0  0  0  0  0  0  0  0  0  0  0
  142.3359   78.2850  218.7646 H   0  0  0  0  0  0  0  0  0  0  0  0
  140.5408   76.2573  217.5220 H   0  0  0  0  0  0  0  0  0  0  0  0
  142.3642   76.2772  217.8555 H   0  0  0  0  0  0  0  0  0  0  0  0
  140.4542   74.9234  219.1163 H   0  0  0  0  0  0  0  0  0  0  0  0
  143.6219   76.7805  219.9436 H   0  0  0  0  0  0  0  0  0  0  0  0
  145.6997   75.6467  220.6375 H   0  0  0  0  0  0  0  0  0  0  0  0
  143.6478   71.9078  220.5676 H   0  0  0  0  0  0  0  0  0  0  0  0
  141.5863   73.0254  219.8791 H   0  0  0  0  0  0  0  0  0  0  0  0
  139.1658   69.4035  222.8121 H   0  0  0  0  0  0  0  0  0  0  0  0
  139.2567   68.1364  224.9469 H   0  0  0  0  0  0  0  0  0  0  0  0
  139.8267   68.1237  227.3098 H   0  0  0  0  0  0  0  0  0  0  0  0
  140.6961   69.2759  229.3080 H   0  0  0  0  0  0  0  0  0  0  0  0
  141.4634   71.6529  229.2091 H   0  0  0  0  0  0  0  0  0  0  0  0
  141.3175   72.8163  227.0051 H   0  0  0  0  0  0  0  0  0  0  0  0
  1  2  2  0
  2  3  1  0
  3  4  1  0
  4  5  1  0
  5  6  2  0
  5  7  1  0
  7  8  1  0
  8  9  1  0
  9 10  1  0
 10 11  1  0
 11 12  1  0
 12 13  1  0
 13 14  2  0
 14 15  1  0
 15 16  2  0
 16 17  1  0
 17 18  1  0
 17 19  1  0
 17 20  1  0
 16 21  1  0
 21 22  2  0
  2 23  1  0
 23 24  2  0
 24 25  1  0
 25 26  2  0
 26 27  1  0
 27 28  2  0
 28 29  1  0
 29 30  2  0
 30 31  1  0
 31 32  2  0
 12  7  1  0
 22 13  1  0
 32 23  1  0
 31 26  1  0
  3 33  1  0
  4 34  1  0
  4 35  1  0
  8 36  1  0
  8 37  1  0
  9 38  1  0
  9 39  1  0
 10 40  1  0
 10 41  1  0
 11 42  1  0
 11 43  1  0
 12 44  1  6
 14 45  1  0
 15 46  1  0
 21 47  1  0
 22 48  1  0
 24 49  1  0
 25 50  1  0
 27 51  1  0
 28 52  1  0
 29 53  1  0
 30 54  1  0
M  END
>  <smiles>  (68) 
O=C(NCC(=O)N1CCCCC1c1ccc(C(F)(F)F)cc1)c1ccc2ccccc2n1

>  <score_type>  (68) 
oracle

>  <origin>  (68) 
autodockgpu

>  <m_score__min__energy>  (68) 
-8.4100000000000001

>  <m_primary>  (68) 
energy

>  <rmsd>  (68) 
2.004255999870413

>  <m_score__min__rmsd>  (68) 
2.004255999870413

>  <meeko>  (68) 
{"free_energy": -8.17, "intermolecular_energy": -9.96, "internal_energy": -2.36, "cluster_size": 18, "cluster_id": 3, "rank_in_cluster": 9}

>  <energy>  (68) 
-8.31

>  <cluster_rmsd>  (68) 
0.1

>  <cluster>  (68) 
2

$$$$

     RDKit          3D

 54 57  0  0  0  0  0  0  0  0999 V2000
  139.9070   71.1190  221.2190 O   0  0  0  0  0  0  0  0  0  0  0  0
  139.8320   71.8280  222.2540 C   0  0  0  0  0  0  0  0  0  0  0  0
  139.6970   73.2420  222.2310 N   0  0  0  0  0  0  0  0  0  0  0  0
  139.6380   73.9640  220.9740 C   0  0  0  0  0  0  0  0  0  0  0  0
  140.5280   75.1470  221.0840 C   0  0  0  0  0  0  0  0  0  0  0  0
  140.6590   75.6780  222.2190 O   0  0  0  0  0  0  0  0  0  0  0  0
  141.2130   75.6600  219.9220 N   0  0  0  0  0  0  0  0  0  0  0  0
  140.7600   75.2400  218.6130 C   0  0  0  0  0  0  0  0  0  0  0  0
  141.9380   75.0420  217.7130 C   0  0  0  0  0  0  0  0  0  0  0  0
  142.8490   76.2490  217.6910 C   0  0  0  0  0  0  0  0  0  0  0  0
  143.3040   76.6650  219.0460 C   0  0  0  0  0  0  0  0  0  0  0  0
  142.3130   76.5700  220.1440 C   0  0  1  0  0  0  0  0  0  0  0  0
  141.8300   77.9110  220.6030 C   0  0  0  0  0  0  0  0  0  0  0  0
  141.8290   78.2770  221.9360 C   0  0  0  0  0  0  0  0  0  0  0  0
  141.3820   79.5190  222.3680 C   0  0  0  0  0  0  0  0  0  0  0  0
  140.9210   80.4340  221.4660 C   0  0  0  0  0  0  0  0  0  0  0  0
  140.4560   81.7460  221.9780 C   0  0  0  0  0  0  0  0  0  0  0  0
  141.5420   82.5190  222.3430 F   0  0  0  0  0  0  0  0  0  0  0  0
  139.8490   82.4040  220.9250 F   0  0  0  0  0  0  0  0  0  0  0  0
  139.5560   81.6300  223.0160 F   0  0  0  0  0  0  0  0  0  0  0  0
  140.9150   80.0890  220.1360 C   0  0  0  0  0  0  0  0  0  0  0  0
  141.3560   78.8630  219.7120 C   0  0  0  0  0  0  0  0  0  0  0  0
  139.8840   71.1750  223.5770 C   0  0  0  0  0  0  0  0  0  0  0  0
  139.3990   69.8760  223.7220 C   0  0  0  0  0  0  0  0  0  0  0  0
  139.4300   69.2330  224.9380 C   0  0  0  0  0  0  0  0  0  0  0  0
  139.9570   69.9160  226.0120 C   0  0  0  0  0  0  0  0  0  0  0  0
  140.0180   69.3290  227.2620 C   0  0  0  0  0  0  0  0  0  0  0  0
  140.5500   70.0210  228.3410 C   0  0  0  0  0  0  0  0  0  0  0  0
  141.0390   71.3120  228.2230 C   0  0  0  0  0  0  0  0  0  0  0  0
  140.9640   71.8740  226.9570 C   0  0  0  0  0  0  0  0  0  0  0  0
  140.4440   71.2170  225.8740 C   0  0  0  0  0  0  0  0  0  0  0  0
  140.3890   71.7960  224.6590 N   0  0  0  0  0  0  0  0  0  0  0  0
  139.6390   73.7720  223.1490 H   0  0  0  0  0  0  0  0  0  0  0  0
  139.9790   73.3149  220.1540 H   0  0  0  0  0  0  0  0  0  0  0  0
  138.6059   74.2799  220.7621 H   0  0  0  0  0  0  0  0  0  0  0  0
  140.2057   74.2942  218.7037 H   0  0  0  0  0  0  0  0  0  0  0  0
  140.1027   76.0133  218.1889 H   0  0  0  0  0  0  0  0  0  0  0  0
  142.5111   74.1719  218.0658 H   0  0  0  0  0  0  0  0  0  0  0  0
  141.5604   74.8851  216.6918 H   0  0  0  0  0  0  0  0  0  0  0  0
  143.7340   76.0081  217.0837 H   0  0  0  0  0  0  0  0  0  0  0  0
  142.2732   77.0855  217.2684 H   0  0  0  0  0  0  0  0  0  0  0  0
  144.1622   76.0326  219.3172 H   0  0  0  0  0  0  0  0  0  0  0  0
  143.5306   77.7376  218.9559 H   0  0  0  0  0  0  0  0  0  0  0  0
  142.8900   76.1118  220.9608 H   0  0  0  0  0  0  0  0  0  0  0  0
  142.1960   77.5575  222.6827 H   0  0  0  0  0  0  0  0  0  0  0  0
  141.3995   79.7660  223.4398 H   0  0  0  0  0  0  0  0  0  0  0  0
  140.5477   80.8138  219.3945 H   0  0  0  0  0  0  0  0  0  0  0  0
  141.3337   78.6275  218.6377 H   0  0  0  0  0  0  0  0  0  0  0  0
  138.9834   69.3549  222.8470 H   0  0  0  0  0  0  0  0  0  0  0  0
  139.0468   68.2079  225.0489 H   0  0  0  0  0  0  0  0  0  0  0  0
  139.6418   68.3050  227.4027 H   0  0  0  0  0  0  0  0  0  0  0  0
  140.5846   69.5276  229.3235 H   0  0  0  0  0  0  0  0  0  0  0  0
  141.4606   71.8575  229.0802 H   0  0  0  0  0  0  0  0  0  0  0  0
  141.3408   72.8978  226.8162 H   0  0  0  0  0  0  0  0  0  0  0  0
  1  2  2  0
  2  3  1  0
  3  4  1  0
  4  5  1  0
  5  6  2  0
  5  7  1  0
  7  8  1  0
  8  9  1  0
  9 10  1  0
 10 11  1  0
 11 12  1  0
 12 13  1  0
 13 14  2  0
 14 15  1  0
 15 16  2  0
 16 17  1  0
 17 18  1  0
 17 19  1  0
 17 20  1  0
 16 21  1  0
 21 22  2  0
  2 23  1  0
 23 24  2  0
 24 25  1  0
 25 26  2  0
 26 27  1  0
 27 28  2  0
 28 29  1  0
 29 30  2  0
 30 31  1  0
 31 32  2  0
 12  7  1  0
 22 13  1  0
 32 23  1  0
 31 26  1  0
  3 33  1  0
  4 34  1  0
  4 35  1  0
  8 36  1  0
  8 37  1  0
  9 38  1  0
  9 39  1  0
 10 40  1  0
 10 41  1  0
 11 42  1  0
 11 43  1  0
 12 44  1  1
 14 45  1  0
 15 46  1  0
 21 47  1  0
 22 48  1  0
 24 49  1  0
 25 50  1  0
 27 51  1  0
 28 52  1  0
 29 53  1  0
 30 54  1  0
M  END
>  <smiles>  (69) 
O=C(NCC(=O)N1CCCCC1c1ccc(C(F)(F)F)cc1)c1ccc2ccccc2n1

>  <score_type>  (69) 
oracle

>  <origin>  (69) 
autodockgpu

>  <m_score__min__energy>  (69) 
-8.4100000000000001

>  <m_primary>  (69) 
energy

>  <rmsd>  (69) 
1.5927412354310466

>  <m_score__min__rmsd>  (69) 
1.5927412354310466

>  <meeko>  (69) 
{"free_energy": -8.15, "intermolecular_energy": -9.94, "internal_energy": -1.98, "cluster_size": 16, "cluster_id": 1, "rank_in_cluster": 11}

>  <energy>  (69) 
-8.3

>  <cluster_rmsd>  (69) 
0.11

>  <cluster>  (69) 
2

$$$$

     RDKit          3D

 54 57  0  0  0  0  0  0  0  0999 V2000
  141.0220   71.6910  221.4040 O   0  0  0  0  0  0  0  0  0  0  0  0
  140.3970   72.2180  222.3600 C   0  0  0  0  0  0  0  0  0  0  0  0
  139.8460   73.5260  222.3130 N   0  0  0  0  0  0  0  0  0  0  0  0
  139.9790   74.3480  221.1250 C   0  0  0  0  0  0  0  0  0  0  0  0
  140.2300   75.7440  221.5600 C   0  0  0  0  0  0  0  0  0  0  0  0
  139.7300   76.1160  222.6550 O   0  0  0  0  0  0  0  0  0  0  0  0
  141.0220   76.6360  220.7470 N   0  0  0  0  0  0  0  0  0  0  0  0
  141.4160   77.9110  221.3050 C   0  0  0  0  0  0  0  0  0  0  0  0
  141.3530   78.9660  220.2460 C   0  0  0  0  0  0  0  0  0  0  0  0
  142.1220   78.5730  219.0040 C   0  0  0  0  0  0  0  0  0  0  0  0
  141.7000   77.2590  218.4440 C   0  0  0  0  0  0  0  0  0  0  0  0
  141.3720   76.1900  219.4170 C   0  0  1  0  0  0  0  0  0  0  0  0
  142.4090   75.1100  219.4590 C   0  0  0  0  0  0  0  0  0  0  0  0
  142.2150   73.8800  218.8570 C   0  0  0  0  0  0  0  0  0  0  0  0
  143.1720   72.8750  218.8910 C   0  0  0  0  0  0  0  0  0  0  0  0
  144.3590   73.0780  219.5360 C   0  0  0  0  0  0  0  0  0  0  0  0
  145.3470   71.9730  219.5430 C   0  0  0  0  0  0  0  0  0  0  0  0
  146.3700   72.2630  220.4270 F   0  0  0  0  0  0  0  0  0  0  0  0
  144.7080   70.8550  220.0460 F   0  0  0  0  0  0  0  0  0  0  0  0
  145.8400   71.6840  218.2880 F   0  0  0  0  0  0  0  0  0  0  0  0
  144.5690   74.2950  220.1400 C   0  0  0  0  0  0  0  0  0  0  0  0
  143.6240   75.2860  220.1050 C   0  0  0  0  0  0  0  0  0  0  0  0
  140.2160   71.4510  223.6080 C   0  0  0  0  0  0  0  0  0  0  0  0
  139.5530   70.2250  223.5710 C   0  0  0  0  0  0  0  0  0  0  0  0
  139.3630   69.4810  224.7140 C   0  0  0  0  0  0  0  0  0  0  0  0
  139.8510   69.9880  225.8980 C   0  0  0  0  0  0  0  0  0  0  0  0
  139.6950   69.2910  227.0820 C   0  0  0  0  0  0  0  0  0  0  0  0
  140.1880   69.8050  228.2730 C   0  0  0  0  0  0  0  0  0  0  0  0
  140.8510   71.0200  228.3360 C   0  0  0  0  0  0  0  0  0  0  0  0
  140.9920   71.6950  227.1310 C   0  0  0  0  0  0  0  0  0  0  0  0
  140.5160   71.2140  225.9410 C   0  0  0  0  0  0  0  0  0  0  0  0
  140.6730   71.8980  224.7920 N   0  0  0  0  0  0  0  0  0  0  0  0
  139.3310   73.9010  223.1610 H   0  0  0  0  0  0  0  0  0  0  0  0
  140.8216   73.9896  220.5154 H   0  0  0  0  0  0  0  0  0  0  0  0
  139.0626   74.2952  220.5189 H   0  0  0  0  0  0  0  0  0  0  0  0
  140.7348   78.1767  222.1268 H   0  0  0  0  0  0  0  0  0  0  0  0
  142.4451   77.8392  221.6868 H   0  0  0  0  0  0  0  0  0  0  0  0
  140.3004   79.1324  219.9735 H   0  0  0  0  0  0  0  0  0  0  0  0
  141.8099   79.8806  220.6518 H   0  0  0  0  0  0  0  0  0  0  0  0
  141.9663   79.3461  218.2371 H   0  0  0  0  0  0  0  0  0  0  0  0
  143.1803   78.4818  219.2899 H   0  0  0  0  0  0  0  0  0  0  0  0
  140.8061   77.4324  217.8268 H   0  0  0  0  0  0  0  0  0  0  0  0
  142.5766   76.8868  217.8935 H   0  0  0  0  0  0  0  0  0  0  0  0
  140.4422   75.7627  219.0134 H   0  0  0  0  0  0  0  0  0  0  0  0
  141.2671   73.6911  218.3317 H   0  0  0  0  0  0  0  0  0  0  0  0
  142.9739   71.9123  218.3971 H   0  0  0  0  0  0  0  0  0  0  0  0
  145.5188   74.4773  220.6640 H   0  0  0  0  0  0  0  0  0  0  0  0
  143.8337   76.2450  220.6013 H   0  0  0  0  0  0  0  0  0  0  0  0
  139.1746   69.8449  222.6106 H   0  0  0  0  0  0  0  0  0  0  0  0
  138.8391   68.5143  224.6826 H   0  0  0  0  0  0  0  0  0  0  0  0
  139.1759   68.3212  227.0798 H   0  0  0  0  0  0  0  0  0  0  0  0
  140.0476   69.2280  229.1989 H   0  0  0  0  0  0  0  0  0  0  0  0
  141.2412   71.4245  229.2816 H   0  0  0  0  0  0  0  0  0  0  0  0
  141.5120   72.6643  227.1326 H   0  0  0  0  0  0  0  0  0  0  0  0
  1  2  2  0
  2  3  1  0
  3  4  1  0
  4  5  1  0
  5  6  2  0
  5  7  1  0
  7  8  1  0
  8  9  1  0
  9 10  1  0
 10 11  1  0
 11 12  1  0
 12 13  1  0
 13 14  2  0
 14 15  1  0
 15 16  2  0
 16 17  1  0
 17 18  1  0
 17 19  1  0
 17 20  1  0
 16 21  1  0
 21 22  2  0
  2 23  1  0
 23 24  2  0
 24 25  1  0
 25 26  2  0
 26 27  1  0
 27 28  2  0
 28 29  1  0
 29 30  2  0
 30 31  1  0
 31 32  2  0
 12  7  1  0
 22 13  1  0
 32 23  1  0
 31 26  1  0
  3 33  1  0
  4 34  1  0
  4 35  1  0
  8 36  1  0
  8 37  1  0
  9 38  1  0
  9 39  1  0
 10 40  1  0
 10 41  1  0
 11 42  1  0
 11 43  1  0
 12 44  1  6
 14 45  1  0
 15 46  1  0
 21 47  1  0
 22 48  1  0
 24 49  1  0
 25 50  1  0
 27 51  1  0
 28 52  1  0
 29 53  1  0
 30 54  1  0
M  END
>  <smiles>  (70) 
O=C(NCC(=O)N1CCCCC1c1ccc(C(F)(F)F)cc1)c1ccc2ccccc2n1

>  <score_type>  (70) 
oracle

>  <origin>  (70) 
autodockgpu

>  <m_score__min__energy>  (70) 
-8.4100000000000001

>  <m_primary>  (70) 
energy

>  <rmsd>  (70) 
2.3731457505815063

>  <m_score__min__rmsd>  (70) 
2.3731457505815063

>  <meeko>  (70) 
{"free_energy": -8.27, "intermolecular_energy": -10.06, "internal_energy": -2.15, "cluster_size": 18, "cluster_id": 3, "rank_in_cluster": 4}

>  <energy>  (70) 
-8.3

>  <cluster_rmsd>  (70) 
0.0

>  <cluster>  (70) 
3

$$$$

     RDKit          3D

 54 57  0  0  0  0  0  0  0  0999 V2000
  137.4350   76.0830  222.3300 O   0  0  0  0  0  0  0  0  0  0  0  0
  138.6840   76.2170  222.3800 C   0  0  0  0  0  0  0  0  0  0  0  0
  139.5990   75.1560  222.1450 N   0  0  0  0  0  0  0  0  0  0  0  0
  139.1260   73.8220  221.8260 C   0  0  0  0  0  0  0  0  0  0  0  0
  140.3090   72.9360  221.6960 C   0  0  0  0  0  0  0  0  0  0  0  0
  141.4480   73.4740  221.6970 O   0  0  0  0  0  0  0  0  0  0  0  0
  140.1460   71.5070  221.5740 N   0  0  0  0  0  0  0  0  0  0  0  0
  141.0060   70.7900  220.6580 C   0  0  0  0  0  0  0  0  0  0  0  0
  140.2280   69.7120  219.9740 C   0  0  0  0  0  0  0  0  0  0  0  0
  139.5000   68.8220  220.9570 C   0  0  0  0  0  0  0  0  0  0  0  0
  138.6180   69.5780  221.8900 C   0  0  0  0  0  0  0  0  0  0  0  0
  139.1250   70.8810  222.3840 C   0  0  1  0  0  0  0  0  0  0  0  0
  139.5240   70.8350  223.8270 C   0  0  0  0  0  0  0  0  0  0  0  0
  140.5690   71.5900  224.3260 C   0  0  0  0  0  0  0  0  0  0  0  0
  140.9430   71.5530  225.6630 C   0  0  0  0  0  0  0  0  0  0  0  0
  140.2730   70.7500  226.5410 C   0  0  0  0  0  0  0  0  0  0  0  0
  140.7100   70.7470  227.9580 C   0  0  0  0  0  0  0  0  0  0  0  0
  141.4960   71.8570  228.2090 F   0  0  0  0  0  0  0  0  0  0  0  0
  139.5780   70.8900  228.7370 F   0  0  0  0  0  0  0  0  0  0  0  0
  141.3600   69.5860  228.3170 F   0  0  0  0  0  0  0  0  0  0  0  0
  139.2290   69.9930  226.0630 C   0  0  0  0  0  0  0  0  0  0  0  0
  138.8620   70.0310  224.7440 C   0  0  0  0  0  0  0  0  0  0  0  0
  139.2520   77.5410  222.6990 C   0  0  0  0  0  0  0  0  0  0  0  0
  138.3980   78.6050  222.9850 C   0  0  0  0  0  0  0  0  0  0  0  0
  138.8890   79.8550  223.2860 C   0  0  0  0  0  0  0  0  0  0  0  0
  140.2560   80.0220  223.2970 C   0  0  0  0  0  0  0  0  0  0  0  0
  140.8150   81.2520  223.5910 C   0  0  0  0  0  0  0  0  0  0  0  0
  142.1930   81.4160  223.6010 C   0  0  0  0  0  0  0  0  0  0  0  0
  143.0640   80.3750  223.3200 C   0  0  0  0  0  0  0  0  0  0  0  0
  142.4730   79.1540  223.0280 C   0  0  0  0  0  0  0  0  0  0  0  0
  141.1170   78.9610  223.0110 C   0  0  0  0  0  0  0  0  0  0  0  0
  140.5800   77.7600  222.7230 N   0  0  0  0  0  0  0  0  0  0  0  0
  140.6410   75.3470  222.2050 H   0  0  0  0  0  0  0  0  0  0  0  0
  138.4715   73.4555  222.6306 H   0  0  0  0  0  0  0  0  0  0  0  0
  138.5520   73.8339  220.8877 H   0  0  0  0  0  0  0  0  0  0  0  0
  141.4019   71.4883  219.9059 H   0  0  0  0  0  0  0  0  0  0  0  0
  141.8382   70.3386  221.2180 H   0  0  0  0  0  0  0  0  0  0  0  0
  139.4903   70.1780  219.3042 H   0  0  0  0  0  0  0  0  0  0  0  0
  140.9382   69.0864  219.4135 H   0  0  0  0  0  0  0  0  0  0  0  0
  138.8819   68.1089  220.3919 H   0  0  0  0  0  0  0  0  0  0  0  0
  140.2626   68.3147  221.5662 H   0  0  0  0  0  0  0  0  0  0  0  0
  137.6676   69.7669  221.3693 H   0  0  0  0  0  0  0  0  0  0  0  0
  138.5364   68.9438  222.7851 H   0  0  0  0  0  0  0  0  0  0  0  0
  138.2507   71.5415  222.2870 H   0  0  0  0  0  0  0  0  0  0  0  0
  141.1250   72.2444  223.6385 H   0  0  0  0  0  0  0  0  0  0  0  0
  141.7811   72.1721  226.0156 H   0  0  0  0  0  0  0  0  0  0  0  0
  138.6760   69.3420  226.7560 H   0  0  0  0  0  0  0  0  0  0  0  0
  138.0215   69.4086  224.4031 H   0  0  0  0  0  0  0  0  0  0  0  0
  137.3102   78.4423  222.9698 H   0  0  0  0  0  0  0  0  0  0  0  0
  138.2122   80.6927  223.5103 H   0  0  0  0  0  0  0  0  0  0  0  0
  140.1621   82.1075  223.8188 H   0  0  0  0  0  0  0  0  0  0  0  0
  142.6083   82.4061  223.8401 H   0  0  0  0  0  0  0  0  0  0  0  0
  144.1558   80.5085  223.3280 H   0  0  0  0  0  0  0  0  0  0  0  0
  143.1257   78.2988  222.7988 H   0  0  0  0  0  0  0  0  0  0  0  0
  1  2  2  0
  2  3  1  0
  3  4  1  0
  4  5  1  0
  5  6  2  0
  5  7  1  0
  7  8  1  0
  8  9  1  0
  9 10  1  0
 10 11  1  0
 11 12  1  0
 12 13  1  0
 13 14  2  0
 14 15  1  0
 15 16  2  0
 16 17  1  0
 17 18  1  0
 17 19  1  0
 17 20  1  0
 16 21  1  0
 21 22  2  0
  2 23  1  0
 23 24  2  0
 24 25  1  0
 25 26  2  0
 26 27  1  0
 27 28  2  0
 28 29  1  0
 29 30  2  0
 30 31  1  0
 31 32  2  0
 12  7  1  0
 22 13  1  0
 32 23  1  0
 31 26  1  0
  3 33  1  0
  4 34  1  0
  4 35  1  0
  8 36  1  0
  8 37  1  0
  9 38  1  0
  9 39  1  0
 10 40  1  0
 10 41  1  0
 11 42  1  0
 11 43  1  0
 12 44  1  1
 14 45  1  0
 15 46  1  0
 21 47  1  0
 22 48  1  0
 24 49  1  0
 25 50  1  0
 27 51  1  0
 28 52  1  0
 29 53  1  0
 30 54  1  0
M  END
>  <smiles>  (71) 
O=C(NCC(=O)N1CCCCC1c1ccc(C(F)(F)F)cc1)c1ccc2ccccc2n1

>  <score_type>  (71) 
oracle

>  <origin>  (71) 
autodockgpu

>  <m_score__min__energy>  (71) 
-8.4100000000000001

>  <m_primary>  (71) 
energy

>  <rmsd>  (71) 
8.143944989118452

>  <m_score__min__rmsd>  (71) 
8.143944989118452

>  <meeko>  (71) 
{"free_energy": -7.97, "intermolecular_energy": -9.76, "internal_energy": -2.21, "cluster_size": 11, "cluster_id": 4, "rank_in_cluster": 11}

>  <energy>  (71) 
-8.28

>  <cluster_rmsd>  (71) 
0.09

>  <cluster>  (71) 
3

$$$$

     RDKit          3D

 54 57  0  0  0  0  0  0  0  0999 V2000
  137.3020   76.0950  222.3920 O   0  0  0  0  0  0  0  0  0  0  0  0
  138.5550   76.2000  222.3610 C   0  0  0  0  0  0  0  0  0  0  0  0
  139.4250   75.1300  222.0200 N   0  0  0  0  0  0  0  0  0  0  0  0
  138.8980   73.8220  221.6780 C   0  0  0  0  0  0  0  0  0  0  0  0
  139.9660   72.8210  221.9230 C   0  0  0  0  0  0  0  0  0  0  0  0
  141.0760   73.2400  222.3480 O   0  0  0  0  0  0  0  0  0  0  0  0
  139.7270   71.4180  221.6800 N   0  0  0  0  0  0  0  0  0  0  0  0
  140.4880   70.7600  220.6400 C   0  0  0  0  0  0  0  0  0  0  0  0
  139.6140   69.7850  219.9160 C   0  0  0  0  0  0  0  0  0  0  0  0
  138.9130   68.8360  220.8620 C   0  0  0  0  0  0  0  0  0  0  0  0
  138.1350   69.5330  221.9230 C   0  0  0  0  0  0  0  0  0  0  0  0
  138.7360   70.7590  222.4990 C   0  0  1  0  0  0  0  0  0  0  0  0
  139.2300   70.5580  223.8990 C   0  0  0  0  0  0  0  0  0  0  0  0
  138.9370   69.4200  224.6260 C   0  0  0  0  0  0  0  0  0  0  0  0
  139.3920   69.2270  225.9230 C   0  0  0  0  0  0  0  0  0  0  0  0
  140.1600   70.1800  226.5310 C   0  0  0  0  0  0  0  0  0  0  0  0
  140.6210   69.9250  227.9160 C   0  0  0  0  0  0  0  0  0  0  0  0
  141.4310   68.8060  227.9440 F   0  0  0  0  0  0  0  0  0  0  0  0
  141.4210   70.9910  228.2830 F   0  0  0  0  0  0  0  0  0  0  0  0
  139.5820   69.8120  228.8160 F   0  0  0  0  0  0  0  0  0  0  0  0
  140.4620   71.3180  225.8220 C   0  0  0  0  0  0  0  0  0  0  0  0
  140.0120   71.5060  224.5420 C   0  0  0  0  0  0  0  0  0  0  0  0
  139.1750   77.4960  222.6960 C   0  0  0  0  0  0  0  0  0  0  0  0
  138.3660   78.5750  223.0500 C   0  0  0  0  0  0  0  0  0  0  0  0
  138.9060   79.8000  223.3680 C   0  0  0  0  0  0  0  0  0  0  0  0
  140.2770   79.9270  223.3260 C   0  0  0  0  0  0  0  0  0  0  0  0
  140.8850   81.1300  223.6340 C   0  0  0  0  0  0  0  0  0  0  0  0
  142.2670   81.2530  223.5900 C   0  0  0  0  0  0  0  0  0  0  0  0
  143.0930   80.1970  223.2420 C   0  0  0  0  0  0  0  0  0  0  0  0
  142.4540   79.0030  222.9390 C   0  0  0  0  0  0  0  0  0  0  0  0
  141.0940   78.8510  222.9720 C   0  0  0  0  0  0  0  0  0  0  0  0
  140.5080   77.6760  222.6720 N   0  0  0  0  0  0  0  0  0  0  0  0
  140.4730   75.2960  222.0160 H   0  0  0  0  0  0  0  0  0  0  0  0
  138.0231   73.5960  222.3052 H   0  0  0  0  0  0  0  0  0  0  0  0
  138.5859   73.7987  220.6235 H   0  0  0  0  0  0  0  0  0  0  0  0
  140.8633   71.5118  219.9302 H   0  0  0  0  0  0  0  0  0  0  0  0
  141.3353   70.2238  221.0923 H   0  0  0  0  0  0  0  0  0  0  0  0
  138.8556   70.3431  219.3473 H   0  0  0  0  0  0  0  0  0  0  0  0
  140.2536   69.1874  219.2498 H   0  0  0  0  0  0  0  0  0  0  0  0
  138.2238   68.2072  220.2792 H   0  0  0  0  0  0  0  0  0  0  0  0
  139.6905   68.2416  221.3642 H   0  0  0  0  0  0  0  0  0  0  0  0
  137.1613   69.8106  221.4930 H   0  0  0  0  0  0  0  0  0  0  0  0
  138.0848   68.8186  222.7580 H   0  0  0  0  0  0  0  0  0  0  0  0
  137.8891   71.4604  222.5283 H   0  0  0  0  0  0  0  0  0  0  0  0
  138.3201   68.6378  224.1594 H   0  0  0  0  0  0  0  0  0  0  0  0
  139.1337   68.3042  226.4631 H   0  0  0  0  0  0  0  0  0  0  0  0
  141.0798   72.0964  226.2937 H   0  0  0  0  0  0  0  0  0  0  0  0
  140.2774   72.4319  224.0108 H   0  0  0  0  0  0  0  0  0  0  0  0
  137.2741   78.4443  223.0756 H   0  0  0  0  0  0  0  0  0  0  0  0
  138.2646   80.6492  223.6463 H   0  0  0  0  0  0  0  0  0  0  0  0
  140.2687   81.9964  223.9161 H   0  0  0  0  0  0  0  0  0  0  0  0
  142.7219   82.2228  223.8402 H   0  0  0  0  0  0  0  0  0  0  0  0
  144.1878   80.2985  223.2079 H   0  0  0  0  0  0  0  0  0  0  0  0
  143.0705   78.1363  222.6586 H   0  0  0  0  0  0  0  0  0  0  0  0
  1  2  2  0
  2  3  1  0
  3  4  1  0
  4  5  1  0
  5  6  2  0
  5  7  1  0
  7  8  1  0
  8  9  1  0
  9 10  1  0
 10 11  1  0
 11 12  1  0
 12 13  1  0
 13 14  2  0
 14 15  1  0
 15 16  2  0
 16 17  1  0
 17 18  1  0
 17 19  1  0
 17 20  1  0
 16 21  1  0
 21 22  2  0
  2 23  1  0
 23 24  2  0
 24 25  1  0
 25 26  2  0
 26 27  1  0
 27 28  2  0
 28 29  1  0
 29 30  2  0
 30 31  1  0
 31 32  2  0
 12  7  1  0
 22 13  1  0
 32 23  1  0
 31 26  1  0
  3 33  1  0
  4 34  1  0
  4 35  1  0
  8 36  1  0
  8 37  1  0
  9 38  1  0
  9 39  1  0
 10 40  1  0
 10 41  1  0
 11 42  1  0
 11 43  1  0
 12 44  1  1
 14 45  1  0
 15 46  1  0
 21 47  1  0
 22 48  1  0
 24 49  1  0
 25 50  1  0
 27 51  1  0
 28 52  1  0
 29 53  1  0
 30 54  1  0
M  END
>  <smiles>  (72) 
O=C(NCC(=O)N1CCCCC1c1ccc(C(F)(F)F)cc1)c1ccc2ccccc2n1

>  <score_type>  (72) 
oracle

>  <origin>  (72) 
autodockgpu

>  <m_score__min__energy>  (72) 
-8.4100000000000001

>  <m_primary>  (72) 
energy

>  <rmsd>  (72) 
8.127645855071687

>  <m_score__min__rmsd>  (72) 
8.127645855071687

>  <meeko>  (72) 
{"free_energy": -8.05, "intermolecular_energy": -9.84, "internal_energy": -2.12, "cluster_size": 11, "cluster_id": 4, "rank_in_cluster": 10}

>  <energy>  (72) 
-8.28

>  <cluster_rmsd>  (72) 
0.77

>  <cluster>  (72) 
3

$$$$

     RDKit          3D

 54 57  0  0  0  0  0  0  0  0999 V2000
  140.7090   71.6440  221.2380 O   0  0  0  0  0  0  0  0  0  0  0  0
  140.2900   72.2030  222.2830 C   0  0  0  0  0  0  0  0  0  0  0  0
  139.8960   73.5670  222.3420 N   0  0  0  0  0  0  0  0  0  0  0  0
  139.9600   74.4110  221.1640 C   0  0  0  0  0  0  0  0  0  0  0  0
  140.2370   75.7990  221.6110 C   0  0  0  0  0  0  0  0  0  0  0  0
  139.7490   76.1700  222.7120 O   0  0  0  0  0  0  0  0  0  0  0  0
  141.0420   76.6840  220.8020 N   0  0  0  0  0  0  0  0  0  0  0  0
  141.4200   77.9670  221.3520 C   0  0  0  0  0  0  0  0  0  0  0  0
  141.3740   79.0080  220.2790 C   0  0  0  0  0  0  0  0  0  0  0  0
  142.1680   78.6040  219.0570 C   0  0  0  0  0  0  0  0  0  0  0  0
  141.7630   77.2810  218.5060 C   0  0  0  0  0  0  0  0  0  0  0  0
  141.4200   76.2230  219.4860 C   0  0  1  0  0  0  0  0  0  0  0  0
  142.4600   75.1470  219.5610 C   0  0  0  0  0  0  0  0  0  0  0  0
  142.2220   73.8610  219.1160 C   0  0  0  0  0  0  0  0  0  0  0  0
  143.1810   72.8590  219.1830 C   0  0  0  0  0  0  0  0  0  0  0  0
  144.4150   73.1250  219.7030 C   0  0  0  0  0  0  0  0  0  0  0  0
  145.4040   72.0210  219.7510 C   0  0  0  0  0  0  0  0  0  0  0  0
  144.7670   70.8320  220.0490 F   0  0  0  0  0  0  0  0  0  0  0  0
  145.9180   71.8760  218.4760 F   0  0  0  0  0  0  0  0  0  0  0  0
  146.4400   72.2650  220.6280 F   0  0  0  0  0  0  0  0  0  0  0  0
  144.6710   74.3990  220.1500 C   0  0  0  0  0  0  0  0  0  0  0  0
  143.7230   75.3860  220.0830 C   0  0  0  0  0  0  0  0  0  0  0  0
  140.1930   71.4170  223.5290 C   0  0  0  0  0  0  0  0  0  0  0  0
  139.5880   70.1610  223.5040 C   0  0  0  0  0  0  0  0  0  0  0  0
  139.4780   69.3980  224.6440 C   0  0  0  0  0  0  0  0  0  0  0  0
  139.9880   69.9150  225.8140 C   0  0  0  0  0  0  0  0  0  0  0  0
  139.9100   69.2010  226.9950 C   0  0  0  0  0  0  0  0  0  0  0  0
  140.4250   69.7270  228.1720 C   0  0  0  0  0  0  0  0  0  0  0  0
  141.0310   70.9710  228.2240 C   0  0  0  0  0  0  0  0  0  0  0  0
  141.0930   71.6640  227.0230 C   0  0  0  0  0  0  0  0  0  0  0  0
  140.5940   71.1720  225.8460 C   0  0  0  0  0  0  0  0  0  0  0  0
  140.6740   71.8740  224.6990 N   0  0  0  0  0  0  0  0  0  0  0  0
  139.5520   73.9670  223.2630 H   0  0  0  0  0  0  0  0  0  0  0  0
  140.7654   74.0647  220.4996 H   0  0  0  0  0  0  0  0  0  0  0  0
  139.0101   74.3692  220.6109 H   0  0  0  0  0  0  0  0  0  0  0  0
  140.7216   78.2401  222.1568 H   0  0  0  0  0  0  0  0  0  0  0  0
  142.4414   77.9041  221.7554 H   0  0  0  0  0  0  0  0  0  0  0  0
  140.3262   79.1668  219.9841 H   0  0  0  0  0  0  0  0  0  0  0  0
  141.8202   79.9289  220.6825 H   0  0  0  0  0  0  0  0  0  0  0  0
  142.0228   79.3667  218.2777 H   0  0  0  0  0  0  0  0  0  0  0  0
  143.2213   78.5222  219.3635 H   0  0  0  0  0  0  0  0  0  0  0  0
  140.8810   77.4423  217.8688 H   0  0  0  0  0  0  0  0  0  0  0  0
  142.6522   76.9057  217.9783 H   0  0  0  0  0  0  0  0  0  0  0  0
  140.4997   75.7868  219.0703 H   0  0  0  0  0  0  0  0  0  0  0  0
  141.2354   73.6217  218.6925 H   0  0  0  0  0  0  0  0  0  0  0  0
  142.9460   71.8489  218.8164 H   0  0  0  0  0  0  0  0  0  0  0  0
  145.6600   74.6318  220.5714 H   0  0  0  0  0  0  0  0  0  0  0  0
  143.9694   76.3925  220.4521 H   0  0  0  0  0  0  0  0  0  0  0  0
  139.1909   69.7725  222.5546 H   0  0  0  0  0  0  0  0  0  0  0  0
  138.9987   68.4082  224.6214 H   0  0  0  0  0  0  0  0  0  0  0  0
  139.4362   68.2083  227.0023 H   0  0  0  0  0  0  0  0  0  0  0  0
  140.3490   69.1347  229.0958 H   0  0  0  0  0  0  0  0  0  0  0  0
  141.4379   71.3842  229.1587 H   0  0  0  0  0  0  0  0  0  0  0  0
  141.5661   72.6571  227.0160 H   0  0  0  0  0  0  0  0  0  0  0  0
  1  2  2  0
  2  3  1  0
  3  4  1  0
  4  5  1  0
  5  6  2  0
  5  7  1  0
  7  8  1  0
  8  9  1  0
  9 10  1  0
 10 11  1  0
 11 12  1  0
 12 13  1  0
 13 14  2  0
 14 15  1  0
 15 16  2  0
 16 17  1  0
 17 18  1  0
 17 19  1  0
 17 20  1  0
 16 21  1  0
 21 22  2  0
  2 23  1  0
 23 24  2  0
 24 25  1  0
 25 26  2  0
 26 27  1  0
 27 28  2  0
 28 29  1  0
 29 30  2  0
 30 31  1  0
 31 32  2  0
 12  7  1  0
 22 13  1  0
 32 23  1  0
 31 26  1  0
  3 33  1  0
  4 34  1  0
  4 35  1  0
  8 36  1  0
  8 37  1  0
  9 38  1  0
  9 39  1  0
 10 40  1  0
 10 41  1  0
 11 42  1  0
 11 43  1  0
 12 44  1  6
 14 45  1  0
 15 46  1  0
 21 47  1  0
 22 48  1  0
 24 49  1  0
 25 50  1  0
 27 51  1  0
 28 52  1  0
 29 53  1  0
 30 54  1  0
M  END
>  <smiles>  (73) 
O=C(NCC(=O)N1CCCCC1c1ccc(C(F)(F)F)cc1)c1ccc2ccccc2n1

>  <score_type>  (73) 
oracle

>  <origin>  (73) 
autodockgpu

>  <m_score__min__energy>  (73) 
-8.4100000000000001

>  <m_primary>  (73) 
energy

>  <rmsd>  (73) 
2.372230324563795

>  <m_score__min__rmsd>  (73) 
2.372230324563795

>  <meeko>  (73) 
{"free_energy": -8.26, "intermolecular_energy": -10.05, "internal_energy": -2.18, "cluster_size": 18, "cluster_id": 3, "rank_in_cluster": 6}

>  <energy>  (73) 
-8.27

>  <cluster_rmsd>  (73) 
0.1

>  <cluster>  (73) 
3

$$$$

     RDKit          3D

 54 57  0  0  0  0  0  0  0  0999 V2000
  137.2760   76.1780  222.3620 O   0  0  0  0  0  0  0  0  0  0  0  0
  138.5300   76.2790  222.3620 C   0  0  0  0  0  0  0  0  0  0  0  0
  139.4060   75.2050  222.0530 N   0  0  0  0  0  0  0  0  0  0  0  0
  138.8850   73.8940  221.7100 C   0  0  0  0  0  0  0  0  0  0  0  0
  139.9630   72.9000  221.9380 C   0  0  0  0  0  0  0  0  0  0  0  0
  141.0760   73.3250  222.3470 O   0  0  0  0  0  0  0  0  0  0  0  0
  139.7300   71.4960  221.6970 N   0  0  0  0  0  0  0  0  0  0  0  0
  140.5200   70.8300  220.6850 C   0  0  0  0  0  0  0  0  0  0  0  0
  139.6670   69.8520  219.9410 C   0  0  0  0  0  0  0  0  0  0  0  0
  138.9370   68.9090  220.8720 C   0  0  0  0  0  0  0  0  0  0  0  0
  138.1280   69.6140  221.9040 C   0  0  0  0  0  0  0  0  0  0  0  0
  138.7140   70.8430  222.4900 C   0  0  1  0  0  0  0  0  0  0  0  0
  139.1660   70.6500  223.9050 C   0  0  0  0  0  0  0  0  0  0  0  0
  140.1290   71.4530  224.4870 C   0  0  0  0  0  0  0  0  0  0  0  0
  140.5510   71.2790  225.7980 C   0  0  0  0  0  0  0  0  0  0  0  0
  140.0140   70.2870  226.5670 C   0  0  0  0  0  0  0  0  0  0  0  0
  140.4990   70.1440  227.9600 C   0  0  0  0  0  0  0  0  0  0  0  0
  141.4220   69.1180  228.0340 F   0  0  0  0  0  0  0  0  0  0  0  0
  141.1820   71.3030  228.2770 F   0  0  0  0  0  0  0  0  0  0  0  0
  139.4780   69.9600  228.8690 F   0  0  0  0  0  0  0  0  0  0  0  0
  139.0540   69.4790  226.0060 C   0  0  0  0  0  0  0  0  0  0  0  0
  138.6380   69.6520  224.7120 C   0  0  0  0  0  0  0  0  0  0  0  0
  139.1440   77.5770  222.7000 C   0  0  0  0  0  0  0  0  0  0  0  0
  138.3290   78.6650  223.0080 C   0  0  0  0  0  0  0  0  0  0  0  0
  138.8630   79.8920  223.3280 C   0  0  0  0  0  0  0  0  0  0  0  0
  140.2360   80.0110  223.3350 C   0  0  0  0  0  0  0  0  0  0  0  0
  140.8380   81.2160  223.6480 C   0  0  0  0  0  0  0  0  0  0  0  0
  142.2210   81.3320  223.6530 C   0  0  0  0  0  0  0  0  0  0  0  0
  143.0540   80.2670  223.3510 C   0  0  0  0  0  0  0  0  0  0  0  0
  142.4200   79.0720  223.0420 C   0  0  0  0  0  0  0  0  0  0  0  0
  141.0590   78.9270  223.0270 C   0  0  0  0  0  0  0  0  0  0  0  0
  140.4790   77.7500  222.7230 N   0  0  0  0  0  0  0  0  0  0  0  0
  140.4540   75.3690  222.0740 H   0  0  0  0  0  0  0  0  0  0  0  0
  138.0188   73.6582  222.3457 H   0  0  0  0  0  0  0  0  0  0  0  0
  138.5615   73.8736  220.6589 H   0  0  0  0  0  0  0  0  0  0  0  0
  140.9181   71.5766  219.9821 H   0  0  0  0  0  0  0  0  0  0  0  0
  141.3518   70.2949  221.1664 H   0  0  0  0  0  0  0  0  0  0  0  0
  138.9265   70.4075  219.3468 H   0  0  0  0  0  0  0  0  0  0  0  0
  140.3252   69.2500  219.2973 H   0  0  0  0  0  0  0  0  0  0  0  0
  138.2653   68.2766  220.2730 H   0  0  0  0  0  0  0  0  0  0  0  0
  139.6984   68.3172  221.4012 H   0  0  0  0  0  0  0  0  0  0  0  0
  137.1685   69.8905  221.4426 H   0  0  0  0  0  0  0  0  0  0  0  0
  138.0504   68.9052  222.7416 H   0  0  0  0  0  0  0  0  0  0  0  0
  137.8676   71.5456  222.4894 H   0  0  0  0  0  0  0  0  0  0  0  0
  140.5776   72.2599  223.8890 H   0  0  0  0  0  0  0  0  0  0  0  0
  141.3207   71.9427  226.2187 H   0  0  0  0  0  0  0  0  0  0  0  0
  138.6092   68.6745  226.6101 H   0  0  0  0  0  0  0  0  0  0  0  0
  137.8664   68.9833  224.3027 H   0  0  0  0  0  0  0  0  0  0  0  0
  137.2362   78.5401  222.9950 H   0  0  0  0  0  0  0  0  0  0  0  0
  138.2164   80.7484  223.5699 H   0  0  0  0  0  0  0  0  0  0  0  0
  140.2161   82.0891  223.8948 H   0  0  0  0  0  0  0  0  0  0  0  0
  142.6714   82.3033  223.9055 H   0  0  0  0  0  0  0  0  0  0  0  0
  144.1498   80.3627  223.3559 H   0  0  0  0  0  0  0  0  0  0  0  0
  143.0417   78.1982  222.7971 H   0  0  0  0  0  0  0  0  0  0  0  0
  1  2  2  0
  2  3  1  0
  3  4  1  0
  4  5  1  0
  5  6  2  0
  5  7  1  0
  7  8  1  0
  8  9  1  0
  9 10  1  0
 10 11  1  0
 11 12  1  0
 12 13  1  0
 13 14  2  0
 14 15  1  0
 15 16  2  0
 16 17  1  0
 17 18  1  0
 17 19  1  0
 17 20  1  0
 16 21  1  0
 21 22  2  0
  2 23  1  0
 23 24  2  0
 24 25  1  0
 25 26  2  0
 26 27  1  0
 27 28  2  0
 28 29  1  0
 29 30  2  0
 30 31  1  0
 31 32  2  0
 12  7  1  0
 22 13  1  0
 32 23  1  0
 31 26  1  0
  3 33  1  0
  4 34  1  0
  4 35  1  0
  8 36  1  0
  8 37  1  0
  9 38  1  0
  9 39  1  0
 10 40  1  0
 10 41  1  0
 11 42  1  0
 11 43  1  0
 12 44  1  1
 14 45  1  0
 15 46  1  0
 21 47  1  0
 22 48  1  0
 24 49  1  0
 25 50  1  0
 27 51  1  0
 28 52  1  0
 29 53  1  0
 30 54  1  0
M  END
>  <smiles>  (74) 
O=C(NCC(=O)N1CCCCC1c1ccc(C(F)(F)F)cc1)c1ccc2ccccc2n1

>  <score_type>  (74) 
oracle

>  <origin>  (74) 
autodockgpu

>  <m_score__min__energy>  (74) 
-8.4100000000000001

>  <m_primary>  (74) 
energy

>  <rmsd>  (74) 
8.143601946162697

>  <m_score__min__rmsd>  (74) 
8.143601946162697

>  <meeko>  (74) 
{"free_energy": -8.05, "intermolecular_energy": -9.84, "internal_energy": -2.13, "cluster_size": 11, "cluster_id": 4, "rank_in_cluster": 9}

>  <energy>  (74) 
-8.27

>  <cluster_rmsd>  (74) 
0.09

>  <cluster>  (74) 
3

$$$$

     RDKit          3D

 54 57  0  0  0  0  0  0  0  0999 V2000
  140.7780   71.2080  221.3410 O   0  0  0  0  0  0  0  0  0  0  0  0
  140.3360   71.7930  222.3620 C   0  0  0  0  0  0  0  0  0  0  0  0
  139.9460   73.1590  222.3790 N   0  0  0  0  0  0  0  0  0  0  0  0
  140.0400   73.9750  221.1830 C   0  0  0  0  0  0  0  0  0  0  0  0
  139.9320   75.3980  221.5910 C   0  0  0  0  0  0  0  0  0  0  0  0
  139.4600   75.6470  222.7320 O   0  0  0  0  0  0  0  0  0  0  0  0
  140.3580   76.4510  220.7000 N   0  0  0  0  0  0  0  0  0  0  0  0
  140.0560   76.3260  219.2910 C   0  0  0  0  0  0  0  0  0  0  0  0
  141.2030   76.8400  218.4810 C   0  0  0  0  0  0  0  0  0  0  0  0
  141.6190   78.2330  218.9010 C   0  0  0  0  0  0  0  0  0  0  0  0
  141.9280   78.3400  220.3540 C   0  0  0  0  0  0  0  0  0  0  0  0
  141.0640   77.5700  221.2810 C   0  0  1  0  0  0  0  0  0  0  0  0
  140.1420   78.4460  222.0730 C   0  0  0  0  0  0  0  0  0  0  0  0
  138.7890   78.5240  221.8040 C   0  0  0  0  0  0  0  0  0  0  0  0
  137.9300   79.3330  222.5350 C   0  0  0  0  0  0  0  0  0  0  0  0
  138.4100   80.0930  223.5640 C   0  0  0  0  0  0  0  0  0  0  0  0
  137.4510   80.9390  224.3130 C   0  0  0  0  0  0  0  0  0  0  0  0
  137.4130   82.2060  223.7620 F   0  0  0  0  0  0  0  0  0  0  0  0
  136.1930   80.3980  224.1260 F   0  0  0  0  0  0  0  0  0  0  0  0
  137.7220   80.9920  225.6640 F   0  0  0  0  0  0  0  0  0  0  0  0
  139.7540   80.0270  223.8470 C   0  0  0  0  0  0  0  0  0  0  0  0
  140.6000   79.2280  223.1240 C   0  0  0  0  0  0  0  0  0  0  0  0
  140.2080   71.0370  223.6230 C   0  0  0  0  0  0  0  0  0  0  0  0
  139.6030   69.7820  223.6130 C   0  0  0  0  0  0  0  0  0  0  0  0
  139.4630   69.0460  224.7680 C   0  0  0  0  0  0  0  0  0  0  0  0
  139.9440   69.5920  225.9380 C   0  0  0  0  0  0  0  0  0  0  0  0
  139.8360   68.9060  227.1340 C   0  0  0  0  0  0  0  0  0  0  0  0
  140.3220   69.4600  228.3110 C   0  0  0  0  0  0  0  0  0  0  0  0
  140.9270   70.7050  228.3470 C   0  0  0  0  0  0  0  0  0  0  0  0
  141.0200   71.3680  227.1320 C   0  0  0  0  0  0  0  0  0  0  0  0
  140.5510   70.8490  225.9550 C   0  0  0  0  0  0  0  0  0  0  0  0
  140.6600   71.5220  224.7940 N   0  0  0  0  0  0  0  0  0  0  0  0
  139.5810   73.5820  223.2810 H   0  0  0  0  0  0  0  0  0  0  0  0
  141.0062   73.8009  220.6869 H   0  0  0  0  0  0  0  0  0  0  0  0
  139.2353   73.7165  220.4789 H   0  0  0  0  0  0  0  0  0  0  0  0
  139.8817   75.2676  219.0471 H   0  0  0  0  0  0  0  0  0  0  0  0
  139.1549   76.9125  219.0587 H   0  0  0  0  0  0  0  0  0  0  0  0
  142.0591   76.1610  218.6080 H   0  0  0  0  0  0  0  0  0  0  0  0
  140.8814   76.8855  217.4301 H   0  0  0  0  0  0  0  0  0  0  0  0
  142.5160   78.5168  218.3310 H   0  0  0  0  0  0  0  0  0  0  0  0
  140.7707   78.9029  218.6970 H   0  0  0  0  0  0  0  0  0  0  0  0
  142.9624   77.9957  220.5002 H   0  0  0  0  0  0  0  0  0  0  0  0
  141.7525   79.3958  220.6080 H   0  0  0  0  0  0  0  0  0  0  0  0
  141.7870   77.1128  221.9726 H   0  0  0  0  0  0  0  0  0  0  0  0
  138.3773   77.9227  220.9800 H   0  0  0  0  0  0  0  0  0  0  0  0
  136.8592   79.3623  222.2850 H   0  0  0  0  0  0  0  0  0  0  0  0
  140.1593   80.6297  224.6731 H   0  0  0  0  0  0  0  0  0  0  0  0
  141.6689   79.2058  223.3830 H   0  0  0  0  0  0  0  0  0  0  0  0
  139.2298   69.3710  222.6634 H   0  0  0  0  0  0  0  0  0  0  0  0
  138.9836   68.0560  224.7571 H   0  0  0  0  0  0  0  0  0  0  0  0
  139.3614   67.9138  227.1531 H   0  0  0  0  0  0  0  0  0  0  0  0
  140.2230   68.8903  229.2468 H   0  0  0  0  0  0  0  0  0  0  0  0
  141.3102   71.1413  229.2812 H   0  0  0  0  0  0  0  0  0  0  0  0
  141.4943   72.3603  227.1132 H   0  0  0  0  0  0  0  0  0  0  0  0
  1  2  2  0
  2  3  1  0
  3  4  1  0
  4  5  1  0
  5  6  2  0
  5  7  1  0
  7  8  1  0
  8  9  1  0
  9 10  1  0
 10 11  1  0
 11 12  1  0
 12 13  1  0
 13 14  2  0
 14 15  1  0
 15 16  2  0
 16 17  1  0
 17 18  1  0
 17 19  1  0
 17 20  1  0
 16 21  1  0
 21 22  2  0
  2 23  1  0
 23 24  2  0
 24 25  1  0
 25 26  2  0
 26 27  1  0
 27 28  2  0
 28 29  1  0
 29 30  2  0
 30 31  1  0
 31 32  2  0
 12  7  1  0
 22 13  1  0
 32 23  1  0
 31 26  1  0
  3 33  1  0
  4 34  1  0
  4 35  1  0
  8 36  1  0
  8 37  1  0
  9 38  1  0
  9 39  1  0
 10 40  1  0
 10 41  1  0
 11 42  1  0
 11 43  1  0
 12 44  1  1
 14 45  1  0
 15 46  1  0
 21 47  1  0
 22 48  1  0
 24 49  1  0
 25 50  1  0
 27 51  1  0
 28 52  1  0
 29 53  1  0
 30 54  1  0
M  END
>  <smiles>  (75) 
O=C(NCC(=O)N1CCCCC1c1ccc(C(F)(F)F)cc1)c1ccc2ccccc2n1

>  <score_type>  (75) 
oracle

>  <origin>  (75) 
autodockgpu

>  <m_score__min__energy>  (75) 
-8.4100000000000001

>  <m_primary>  (75) 
energy

>  <rmsd>  (75) 
1.744383504993466

>  <m_score__min__rmsd>  (75) 
1.744383504993466

>  <meeko>  (75) 
{"free_energy": -8.25, "intermolecular_energy": -10.04, "internal_energy": -2.07, "cluster_size": 16, "cluster_id": 1, "rank_in_cluster": 6}

>  <energy>  (75) 
-8.26

>  <cluster_rmsd>  (75) 
0.13

>  <cluster>  (75) 
3

$$$$

     RDKit          3D

 54 57  0  0  0  0  0  0  0  0999 V2000
  139.7080   70.7080  221.2840 O   0  0  0  0  0  0  0  0  0  0  0  0
  139.7060   71.3710  222.3520 C   0  0  0  0  0  0  0  0  0  0  0  0
  139.6480   72.7900  222.3980 N   0  0  0  0  0  0  0  0  0  0  0  0
  139.5860   73.5720  221.1770 C   0  0  0  0  0  0  0  0  0  0  0  0
  139.8400   74.9910  221.5300 C   0  0  0  0  0  0  0  0  0  0  0  0
  139.5410   75.3680  222.6940 O   0  0  0  0  0  0  0  0  0  0  0  0
  140.4100   75.8970  220.5620 N   0  0  0  0  0  0  0  0  0  0  0  0
  140.1110   75.6880  219.1620 C   0  0  0  0  0  0  0  0  0  0  0  0
  141.3260   75.9770  218.3380 C   0  0  0  0  0  0  0  0  0  0  0  0
  141.9130   77.3360  218.6450 C   0  0  0  0  0  0  0  0  0  0  0  0
  142.2150   77.5320  220.0910 C   0  0  0  0  0  0  0  0  0  0  0  0
  141.2470   76.9650  221.0600 C   0  0  1  0  0  0  0  0  0  0  0  0
  140.4370   78.0180  221.7510 C   0  0  0  0  0  0  0  0  0  0  0  0
  139.2080   78.4340  221.2730 C   0  0  0  0  0  0  0  0  0  0  0  0
  138.4530   79.4090  221.9090 C   0  0  0  0  0  0  0  0  0  0  0  0
  138.9130   79.9980  223.0520 C   0  0  0  0  0  0  0  0  0  0  0  0
  138.0680   81.0340  223.6930 C   0  0  0  0  0  0  0  0  0  0  0  0
  138.1100   82.2000  222.9510 F   0  0  0  0  0  0  0  0  0  0  0  0
  136.7610   80.5870  223.6380 F   0  0  0  0  0  0  0  0  0  0  0  0
  138.4090   81.2680  225.0080 F   0  0  0  0  0  0  0  0  0  0  0  0
  140.1330   79.5970  223.5430 C   0  0  0  0  0  0  0  0  0  0  0  0
  140.8780   78.6340  222.9130 C   0  0  0  0  0  0  0  0  0  0  0  0
  139.7670   70.6550  223.6410 C   0  0  0  0  0  0  0  0  0  0  0  0
  139.2780   69.3530  223.7280 C   0  0  0  0  0  0  0  0  0  0  0  0
  139.3160   68.6520  224.9120 C   0  0  0  0  0  0  0  0  0  0  0  0
  139.8570   69.2810  226.0120 C   0  0  0  0  0  0  0  0  0  0  0  0
  139.9260   68.6330  227.2320 C   0  0  0  0  0  0  0  0  0  0  0  0
  140.4720   69.2710  228.3380 C   0  0  0  0  0  0  0  0  0  0  0  0
  140.9650   70.5640  228.2780 C   0  0  0  0  0  0  0  0  0  0  0  0
  140.8820   71.1860  227.0410 C   0  0  0  0  0  0  0  0  0  0  0  0
  140.3490   70.5840  225.9320 C   0  0  0  0  0  0  0  0  0  0  0  0
  140.2850   71.2210  224.7470 N   0  0  0  0  0  0  0  0  0  0  0  0
  139.6500   73.2790  223.3400 H   0  0  0  0  0  0  0  0  0  0  0  0
  140.3509   73.2205  220.4689 H   0  0  0  0  0  0  0  0  0  0  0  0
  138.5985   73.4659  220.7041 H   0  0  0  0  0  0  0  0  0  0  0  0
  139.8033   74.6435  219.0058 H   0  0  0  0  0  0  0  0  0  0  0  0
  139.2965   76.3624  218.8589 H   0  0  0  0  0  0  0  0  0  0  0  0
  142.0852   75.2082  218.5442 H   0  0  0  0  0  0  0  0  0  0  0  0
  141.0264   75.9693  217.2796 H   0  0  0  0  0  0  0  0  0  0  0  0
  142.8463   77.4507  218.0743 H   0  0  0  0  0  0  0  0  0  0  0  0
  141.1612   78.0880  218.3632 H   0  0  0  0  0  0  0  0  0  0  0  0
  143.1941   77.0725  220.2915 H   0  0  0  0  0  0  0  0  0  0  0  0
  142.1748   78.6200  220.2480 H   0  0  0  0  0  0  0  0  0  0  0  0
  141.8960   76.4830  221.8060 H   0  0  0  0  0  0  0  0  0  0  0  0
  138.8142   77.9748  220.3543 H   0  0  0  0  0  0  0  0  0  0  0  0
  137.4806   79.7086  221.4911 H   0  0  0  0  0  0  0  0  0  0  0  0
  140.5203   80.0597  224.4628 H   0  0  0  0  0  0  0  0  0  0  0  0
  141.8493   78.3427  223.3393 H   0  0  0  0  0  0  0  0  0  0  0  0
  138.8531   68.8759  222.8325 H   0  0  0  0  0  0  0  0  0  0  0  0
  138.9278   67.6249  224.9777 H   0  0  0  0  0  0  0  0  0  0  0  0
  139.5457   67.6052  227.3268 H   0  0  0  0  0  0  0  0  0  0  0  0
  140.5145   68.7306  229.2952 H   0  0  0  0  0  0  0  0  0  0  0  0
  141.3956   71.0664  229.1568 H   0  0  0  0  0  0  0  0  0  0  0  0
  141.2630   72.2135  226.9459 H   0  0  0  0  0  0  0  0  0  0  0  0
  1  2  2  0
  2  3  1  0
  3  4  1  0
  4  5  1  0
  5  6  2  0
  5  7  1  0
  7  8  1  0
  8  9  1  0
  9 10  1  0
 10 11  1  0
 11 12  1  0
 12 13  1  0
 13 14  2  0
 14 15  1  0
 15 16  2  0
 16 17  1  0
 17 18  1  0
 17 19  1  0
 17 20  1  0
 16 21  1  0
 21 22  2  0
  2 23  1  0
 23 24  2  0
 24 25  1  0
 25 26  2  0
 26 27  1  0
 27 28  2  0
 28 29  1  0
 29 30  2  0
 30 31  1  0
 31 32  2  0
 12  7  1  0
 22 13  1  0
 32 23  1  0
 31 26  1  0
  3 33  1  0
  4 34  1  0
  4 35  1  0
  8 36  1  0
  8 37  1  0
  9 38  1  0
  9 39  1  0
 10 40  1  0
 10 41  1  0
 11 42  1  0
 11 43  1  0
 12 44  1  1
 14 45  1  0
 15 46  1  0
 21 47  1  0
 22 48  1  0
 24 49  1  0
 25 50  1  0
 27 51  1  0
 28 52  1  0
 29 53  1  0
 30 54  1  0
M  END
>  <smiles>  (76) 
O=C(NCC(=O)N1CCCCC1c1ccc(C(F)(F)F)cc1)c1ccc2ccccc2n1

>  <score_type>  (76) 
oracle

>  <origin>  (76) 
autodockgpu

>  <m_score__min__energy>  (76) 
-8.4100000000000001

>  <m_primary>  (76) 
energy

>  <rmsd>  (76) 
1.426244132112956

>  <m_score__min__rmsd>  (76) 
1.426244132112956

>  <meeko>  (76) 
{"free_energy": -8.01, "intermolecular_energy": -9.8, "internal_energy": -2.19, "cluster_size": 16, "cluster_id": 1, "rank_in_cluster": 15}

>  <energy>  (76) 
-8.26

>  <cluster_rmsd>  (76) 
0.1

>  <cluster>  (76) 
3

$$$$

     RDKit          3D

 54 57  0  0  0  0  0  0  0  0999 V2000
  140.8670   71.6450  221.3330 O   0  0  0  0  0  0  0  0  0  0  0  0
  140.3610   72.2020  222.3400 C   0  0  0  0  0  0  0  0  0  0  0  0
  139.9060   73.5480  222.3490 N   0  0  0  0  0  0  0  0  0  0  0  0
  140.0030   74.3750  221.1610 C   0  0  0  0  0  0  0  0  0  0  0  0
  140.2580   75.7710  221.5960 C   0  0  0  0  0  0  0  0  0  0  0  0
  139.7630   76.1430  222.6930 O   0  0  0  0  0  0  0  0  0  0  0  0
  141.0470   76.6610  220.7790 N   0  0  0  0  0  0  0  0  0  0  0  0
  141.4460   77.9360  221.3350 C   0  0  0  0  0  0  0  0  0  0  0  0
  141.3800   78.9900  220.2760 C   0  0  0  0  0  0  0  0  0  0  0  0
  142.1430   78.5970  219.0300 C   0  0  0  0  0  0  0  0  0  0  0  0
  141.7170   77.2830  218.4730 C   0  0  0  0  0  0  0  0  0  0  0  0
  141.3920   76.2150  219.4480 C   0  0  1  0  0  0  0  0  0  0  0  0
  142.4270   75.1330  219.4850 C   0  0  0  0  0  0  0  0  0  0  0  0
  142.2140   73.8900  218.9190 C   0  0  0  0  0  0  0  0  0  0  0  0
  143.1700   72.8830  218.9500 C   0  0  0  0  0  0  0  0  0  0  0  0
  144.3750   73.0990  219.5550 C   0  0  0  0  0  0  0  0  0  0  0  0
  145.3610   71.9920  219.5610 C   0  0  0  0  0  0  0  0  0  0  0  0
  146.3720   72.2680  220.4620 F   0  0  0  0  0  0  0  0  0  0  0  0
  144.7130   70.8680  220.0390 F   0  0  0  0  0  0  0  0  0  0  0  0
  145.8710   71.7190  218.3090 F   0  0  0  0  0  0  0  0  0  0  0  0
  144.6050   74.3290  220.1230 C   0  0  0  0  0  0  0  0  0  0  0  0
  143.6610   75.3210  220.0920 C   0  0  0  0  0  0  0  0  0  0  0  0
  140.2250   71.4330  223.5920 C   0  0  0  0  0  0  0  0  0  0  0  0
  139.5920   70.1910  223.5710 C   0  0  0  0  0  0  0  0  0  0  0  0
  139.4450   69.4440  224.7170 C   0  0  0  0  0  0  0  0  0  0  0  0
  139.9450   69.9640  225.8910 C   0  0  0  0  0  0  0  0  0  0  0  0
  139.8300   69.2650  227.0790 C   0  0  0  0  0  0  0  0  0  0  0  0
  140.3350   69.7930  228.2590 C   0  0  0  0  0  0  0  0  0  0  0  0
  140.9680   71.0240  228.3070 C   0  0  0  0  0  0  0  0  0  0  0  0
  141.0680   71.7010  227.0990 C   0  0  0  0  0  0  0  0  0  0  0  0
  140.5790   71.2070  225.9200 C   0  0  0  0  0  0  0  0  0  0  0  0
  140.6950   71.8930  224.7660 N   0  0  0  0  0  0  0  0  0  0  0  0
  139.4900   73.9470  223.2400 H   0  0  0  0  0  0  0  0  0  0  0  0
  140.8311   74.0238  220.5278 H   0  0  0  0  0  0  0  0  0  0  0  0
  139.0715   74.3194  220.5786 H   0  0  0  0  0  0  0  0  0  0  0  0
  140.7690   78.2033  222.1598 H   0  0  0  0  0  0  0  0  0  0  0  0
  142.4766   77.8626  221.7125 H   0  0  0  0  0  0  0  0  0  0  0  0
  140.3264   79.1575  220.0081 H   0  0  0  0  0  0  0  0  0  0  0  0
  141.8406   79.9037  220.6798 H   0  0  0  0  0  0  0  0  0  0  0  0
  141.9838   79.3700  218.2638 H   0  0  0  0  0  0  0  0  0  0  0  0
  143.2029   78.5060  219.3099 H   0  0  0  0  0  0  0  0  0  0  0  0
  140.8206   77.4570  217.8596 H   0  0  0  0  0  0  0  0  0  0  0  0
  142.5909   76.9094  217.9192 H   0  0  0  0  0  0  0  0  0  0  0  0
  140.4597   75.7892  219.0487 H   0  0  0  0  0  0  0  0  0  0  0  0
  141.2513   73.6910  218.4256 H   0  0  0  0  0  0  0  0  0  0  0  0
  142.9559   71.9089  218.4860 H   0  0  0  0  0  0  0  0  0  0  0  0
  145.5702   74.5215  220.6143 H   0  0  0  0  0  0  0  0  0  0  0  0
  143.8864   76.2907  220.5598 H   0  0  0  0  0  0  0  0  0  0  0  0
  139.2023   69.8006  222.6193 H   0  0  0  0  0  0  0  0  0  0  0  0
  138.9451   68.4644  224.6967 H   0  0  0  0  0  0  0  0  0  0  0  0
  139.3344   68.2830  227.0886 H   0  0  0  0  0  0  0  0  0  0  0  0
  140.2289   69.2139  229.1882 H   0  0  0  0  0  0  0  0  0  0  0  0
  141.3668   71.4395  229.2442 H   0  0  0  0  0  0  0  0  0  0  0  0
  141.5646   72.6825  227.0890 H   0  0  0  0  0  0  0  0  0  0  0  0
  1  2  2  0
  2  3  1  0
  3  4  1  0
  4  5  1  0
  5  6  2  0
  5  7  1  0
  7  8  1  0
  8  9  1  0
  9 10  1  0
 10 11  1  0
 11 12  1  0
 12 13  1  0
 13 14  2  0
 14 15  1  0
 15 16  2  0
 16 17  1  0
 17 18  1  0
 17 19  1  0
 17 20  1  0
 16 21  1  0
 21 22  2  0
  2 23  1  0
 23 24  2  0
 24 25  1  0
 25 26  2  0
 26 27  1  0
 27 28  2  0
 28 29  1  0
 29 30  2  0
 30 31  1  0
 31 32  2  0
 12  7  1  0
 22 13  1  0
 32 23  1  0
 31 26  1  0
  3 33  1  0
  4 34  1  0
  4 35  1  0
  8 36  1  0
  8 37  1  0
  9 38  1  0
  9 39  1  0
 10 40  1  0
 10 41  1  0
 11 42  1  0
 11 43  1  0
 12 44  1  6
 14 45  1  0
 15 46  1  0
 21 47  1  0
 22 48  1  0
 24 49  1  0
 25 50  1  0
 27 51  1  0
 28 52  1  0
 29 53  1  0
 30 54  1  0
M  END
>  <smiles>  (77) 
O=C(NCC(=O)N1CCCCC1c1ccc(C(F)(F)F)cc1)c1ccc2ccccc2n1

>  <score_type>  (77) 
oracle

>  <origin>  (77) 
autodockgpu

>  <m_score__min__energy>  (77) 
-8.4100000000000001

>  <m_primary>  (77) 
energy

>  <rmsd>  (77) 
2.384664002566242

>  <m_score__min__rmsd>  (77) 
2.384664002566242

>  <meeko>  (77) 
{"free_energy": -8.28, "intermolecular_energy": -10.07, "internal_energy": -2.19, "cluster_size": 18, "cluster_id": 3, "rank_in_cluster": 2}

>  <energy>  (77) 
-8.18

>  <cluster_rmsd>  (77) 
1.06

>  <cluster>  (77) 
3

$$$$

     RDKit          3D

 54 57  0  0  0  0  0  0  0  0999 V2000
  137.2610   76.1600  222.3550 O   0  0  0  0  0  0  0  0  0  0  0  0
  138.5150   76.2590  222.3560 C   0  0  0  0  0  0  0  0  0  0  0  0
  139.3890   75.1790  222.0620 N   0  0  0  0  0  0  0  0  0  0  0  0
  138.8670   73.8650  221.7370 C   0  0  0  0  0  0  0  0  0  0  0  0
  139.9540   72.8760  221.9440 C   0  0  0  0  0  0  0  0  0  0  0  0
  141.0780   73.3090  222.3150 O   0  0  0  0  0  0  0  0  0  0  0  0
  139.7190   71.4690  221.7220 N   0  0  0  0  0  0  0  0  0  0  0  0
  140.4720   70.7990  220.6840 C   0  0  0  0  0  0  0  0  0  0  0  0
  139.5950   69.8110  219.9830 C   0  0  0  0  0  0  0  0  0  0  0  0
  138.9080   68.8720  220.9500 C   0  0  0  0  0  0  0  0  0  0  0  0
  138.1370   69.5810  222.0090 C   0  0  0  0  0  0  0  0  0  0  0  0
  138.7390   70.8180  222.5610 C   0  0  1  0  0  0  0  0  0  0  0  0
  139.2490   70.6380  223.9580 C   0  0  0  0  0  0  0  0  0  0  0  0
  138.6630   69.7580  224.8480 C   0  0  0  0  0  0  0  0  0  0  0  0
  139.1310   69.5860  226.1440 C   0  0  0  0  0  0  0  0  0  0  0  0
  140.2080   70.3000  226.5850 C   0  0  0  0  0  0  0  0  0  0  0  0
  140.6690   70.0800  227.9770 C   0  0  0  0  0  0  0  0  0  0  0  0
  139.5850   69.8340  228.7980 F   0  0  0  0  0  0  0  0  0  0  0  0
  141.4270   68.9240  227.9800 F   0  0  0  0  0  0  0  0  0  0  0  0
  141.4330   71.1210  228.4610 F   0  0  0  0  0  0  0  0  0  0  0  0
  140.8050   71.1800  225.7140 C   0  0  0  0  0  0  0  0  0  0  0  0
  140.3410   71.3480  224.4350 C   0  0  0  0  0  0  0  0  0  0  0  0
  139.1320   77.5610  222.6760 C   0  0  0  0  0  0  0  0  0  0  0  0
  138.3170   78.6560  222.9600 C   0  0  0  0  0  0  0  0  0  0  0  0
  138.8540   79.8870  223.2620 C   0  0  0  0  0  0  0  0  0  0  0  0
  140.2270   80.0020  223.2770 C   0  0  0  0  0  0  0  0  0  0  0  0
  140.8310   81.2100  223.5730 C   0  0  0  0  0  0  0  0  0  0  0  0
  142.2150   81.3210  223.5860 C   0  0  0  0  0  0  0  0  0  0  0  0
  143.0460   80.2480  223.3080 C   0  0  0  0  0  0  0  0  0  0  0  0
  142.4100   79.0500  223.0150 C   0  0  0  0  0  0  0  0  0  0  0  0
  141.0480   78.9090  222.9930 C   0  0  0  0  0  0  0  0  0  0  0  0
  140.4660   77.7300  222.7040 N   0  0  0  0  0  0  0  0  0  0  0  0
  140.4380   75.3410  222.0820 H   0  0  0  0  0  0  0  0  0  0  0  0
  138.0168   73.6282  222.3935 H   0  0  0  0  0  0  0  0  0  0  0  0
  138.5200   73.8389  220.6935 H   0  0  0  0  0  0  0  0  0  0  0  0
  140.8374   71.5420  219.9598 H   0  0  0  0  0  0  0  0  0  0  0  0
  141.3257   70.2724  221.1355 H   0  0  0  0  0  0  0  0  0  0  0  0
  138.8283   70.3581  219.4148 H   0  0  0  0  0  0  0  0  0  0  0  0
  140.2299   69.2070  219.3181 H   0  0  0  0  0  0  0  0  0  0  0  0
  138.2161   68.2315  220.3834 H   0  0  0  0  0  0  0  0  0  0  0  0
  139.6934   68.2886  221.4528 H   0  0  0  0  0  0  0  0  0  0  0  0
  137.1579   69.8483  221.5849 H   0  0  0  0  0  0  0  0  0  0  0  0
  138.0977   68.8786  222.8546 H   0  0  0  0  0  0  0  0  0  0  0  0
  137.8900   71.5168  222.5893 H   0  0  0  0  0  0  0  0  0  0  0  0
  137.7930   69.1717  224.5173 H   0  0  0  0  0  0  0  0  0  0  0  0
  138.6328   68.8727  226.8170 H   0  0  0  0  0  0  0  0  0  0  0  0
  141.6750   71.7628  226.0510 H   0  0  0  0  0  0  0  0  0  0  0  0
  140.8473   72.0636  223.7705 H   0  0  0  0  0  0  0  0  0  0  0  0
  137.2239   78.5339  222.9424 H   0  0  0  0  0  0  0  0  0  0  0  0
  138.2088   80.7498  223.4839 H   0  0  0  0  0  0  0  0  0  0  0  0
  140.2106   82.0895  223.7999 H   0  0  0  0  0  0  0  0  0  0  0  0
  142.6673   82.2947  223.8253 H   0  0  0  0  0  0  0  0  0  0  0  0
  144.1421   80.3400  223.3189 H   0  0  0  0  0  0  0  0  0  0  0  0
  143.0305   78.1702  222.7893 H   0  0  0  0  0  0  0  0  0  0  0  0
  1  2  2  0
  2  3  1  0
  3  4  1  0
  4  5  1  0
  5  6  2  0
  5  7  1  0
  7  8  1  0
  8  9  1  0
  9 10  1  0
 10 11  1  0
 11 12  1  0
 12 13  1  0
 13 14  2  0
 14 15  1  0
 15 16  2  0
 16 17  1  0
 17 18  1  0
 17 19  1  0
 17 20  1  0
 16 21  1  0
 21 22  2  0
  2 23  1  0
 23 24  2  0
 24 25  1  0
 25 26  2  0
 26 27  1  0
 27 28  2  0
 28 29  1  0
 29 30  2  0
 30 31  1  0
 31 32  2  0
 12  7  1  0
 22 13  1  0
 32 23  1  0
 31 26  1  0
  3 33  1  0
  4 34  1  0
  4 35  1  0
  8 36  1  0
  8 37  1  0
  9 38  1  0
  9 39  1  0
 10 40  1  0
 10 41  1  0
 11 42  1  0
 11 43  1  0
 12 44  1  1
 14 45  1  0
 15 46  1  0
 21 47  1  0
 22 48  1  0
 24 49  1  0
 25 50  1  0
 27 51  1  0
 28 52  1  0
 29 53  1  0
 30 54  1  0
M  END
>  <smiles>  (78) 
O=C(NCC(=O)N1CCCCC1c1ccc(C(F)(F)F)cc1)c1ccc2ccccc2n1

>  <score_type>  (78) 
oracle

>  <origin>  (78) 
autodockgpu

>  <m_score__min__energy>  (78) 
-8.4100000000000001

>  <m_primary>  (78) 
energy

>  <rmsd>  (78) 
8.157216097029506

>  <m_score__min__rmsd>  (78) 
8.157216097029506

>  <meeko>  (78) 
{"free_energy": -8.09, "intermolecular_energy": -9.88, "internal_energy": -2.14, "cluster_size": 11, "cluster_id": 4, "rank_in_cluster": 6}

>  <energy>  (78) 
-8.17

>  <cluster_rmsd>  (78) 
0.85

>  <cluster>  (78) 
3

$$$$

     RDKit          3D

 54 57  0  0  0  0  0  0  0  0999 V2000
  137.2590   76.1580  222.4060 O   0  0  0  0  0  0  0  0  0  0  0  0
  138.5130   76.2560  222.3970 C   0  0  0  0  0  0  0  0  0  0  0  0
  139.3840   75.1750  222.1000 N   0  0  0  0  0  0  0  0  0  0  0  0
  138.8580   73.8600  221.7810 C   0  0  0  0  0  0  0  0  0  0  0  0
  139.9530   72.8740  221.9610 C   0  0  0  0  0  0  0  0  0  0  0  0
  141.0810   73.3080  222.3170 O   0  0  0  0  0  0  0  0  0  0  0  0
  139.7180   71.4680  221.7320 N   0  0  0  0  0  0  0  0  0  0  0  0
  140.4720   70.8040  220.6910 C   0  0  0  0  0  0  0  0  0  0  0  0
  139.5960   69.8200  219.9840 C   0  0  0  0  0  0  0  0  0  0  0  0
  138.9100   68.8740  220.9450 C   0  0  0  0  0  0  0  0  0  0  0  0
  138.1380   69.5770  222.0070 C   0  0  0  0  0  0  0  0  0  0  0  0
  138.7390   70.8110  222.5670 C   0  0  1  0  0  0  0  0  0  0  0  0
  139.2480   70.6240  223.9630 C   0  0  0  0  0  0  0  0  0  0  0  0
  138.6520   69.7510  224.8530 C   0  0  0  0  0  0  0  0  0  0  0  0
  139.1200   69.5720  226.1480 C   0  0  0  0  0  0  0  0  0  0  0  0
  140.2060   70.2720  226.5890 C   0  0  0  0  0  0  0  0  0  0  0  0
  140.6660   70.0460  227.9800 C   0  0  0  0  0  0  0  0  0  0  0  0
  139.5800   69.8110  228.8010 F   0  0  0  0  0  0  0  0  0  0  0  0
  141.4100   68.8810  227.9800 F   0  0  0  0  0  0  0  0  0  0  0  0
  141.4430   71.0770  228.4640 F   0  0  0  0  0  0  0  0  0  0  0  0
  140.8130   71.1450  225.7170 C   0  0  0  0  0  0  0  0  0  0  0  0
  140.3500   71.3200  224.4390 C   0  0  0  0  0  0  0  0  0  0  0  0
  139.1330   77.5580  222.7100 C   0  0  0  0  0  0  0  0  0  0  0  0
  138.3220   78.6550  222.9980 C   0  0  0  0  0  0  0  0  0  0  0  0
  138.8620   79.8860  223.2940 C   0  0  0  0  0  0  0  0  0  0  0  0
  140.2340   80.0000  223.2980 C   0  0  0  0  0  0  0  0  0  0  0  0
  140.8420   81.2080  223.5880 C   0  0  0  0  0  0  0  0  0  0  0  0
  142.2260   81.3180  223.5900 C   0  0  0  0  0  0  0  0  0  0  0  0
  143.0540   80.2440  223.3080 C   0  0  0  0  0  0  0  0  0  0  0  0
  142.4150   79.0460  223.0220 C   0  0  0  0  0  0  0  0  0  0  0  0
  141.0530   78.9060  223.0110 C   0  0  0  0  0  0  0  0  0  0  0  0
  140.4680   77.7260  222.7290 N   0  0  0  0  0  0  0  0  0  0  0  0
  140.4330   75.3360  222.1120 H   0  0  0  0  0  0  0  0  0  0  0  0
  138.0229   73.6181  222.4548 H   0  0  0  0  0  0  0  0  0  0  0  0
  138.4879   73.8365  220.7454 H   0  0  0  0  0  0  0  0  0  0  0  0
  140.8378   71.5511  219.9712 H   0  0  0  0  0  0  0  0  0  0  0  0
  141.3255   70.2750  221.1402 H   0  0  0  0  0  0  0  0  0  0  0  0
  138.8286   70.3700  219.4195 H   0  0  0  0  0  0  0  0  0  0  0  0
  140.2314   69.2209  219.3151 H   0  0  0  0  0  0  0  0  0  0  0  0
  138.2192   68.2358  220.3745 H   0  0  0  0  0  0  0  0  0  0  0  0
  139.6955   68.2879  221.4445 H   0  0  0  0  0  0  0  0  0  0  0  0
  137.1594   69.8466  221.5832 H   0  0  0  0  0  0  0  0  0  0  0  0
  138.0982   68.8698  222.8486 H   0  0  0  0  0  0  0  0  0  0  0  0
  137.8892   71.5087  222.5997 H   0  0  0  0  0  0  0  0  0  0  0  0
  137.7739   69.1763  224.5232 H   0  0  0  0  0  0  0  0  0  0  0  0
  138.6141   68.8639  226.8208 H   0  0  0  0  0  0  0  0  0  0  0  0
  141.6908   71.7163  226.0531 H   0  0  0  0  0  0  0  0  0  0  0  0
  140.8646   72.0295  223.7743 H   0  0  0  0  0  0  0  0  0  0  0  0
  137.2287   78.5343  222.9885 H   0  0  0  0  0  0  0  0  0  0  0  0
  138.2190   80.7495  223.5197 H   0  0  0  0  0  0  0  0  0  0  0  0
  140.2242   82.0884  223.8188 H   0  0  0  0  0  0  0  0  0  0  0  0
  142.6808   82.2919  223.8237 H   0  0  0  0  0  0  0  0  0  0  0  0
  144.1502   80.3352  223.3106 H   0  0  0  0  0  0  0  0  0  0  0  0
  143.0331   78.1654  222.7928 H   0  0  0  0  0  0  0  0  0  0  0  0
  1  2  2  0
  2  3  1  0
  3  4  1  0
  4  5  1  0
  5  6  2  0
  5  7  1  0
  7  8  1  0
  8  9  1  0
  9 10  1  0
 10 11  1  0
 11 12  1  0
 12 13  1  0
 13 14  2  0
 14 15  1  0
 15 16  2  0
 16 17  1  0
 17 18  1  0
 17 19  1  0
 17 20  1  0
 16 21  1  0
 21 22  2  0
  2 23  1  0
 23 24  2  0
 24 25  1  0
 25 26  2  0
 26 27  1  0
 27 28  2  0
 28 29  1  0
 29 30  2  0
 30 31  1  0
 31 32  2  0
 12  7  1  0
 22 13  1  0
 32 23  1  0
 31 26  1  0
  3 33  1  0
  4 34  1  0
  4 35  1  0
  8 36  1  0
  8 37  1  0
  9 38  1  0
  9 39  1  0
 10 40  1  0
 10 41  1  0
 11 42  1  0
 11 43  1  0
 12 44  1  1
 14 45  1  0
 15 46  1  0
 21 47  1  0
 22 48  1  0
 24 49  1  0
 25 50  1  0
 27 51  1  0
 28 52  1  0
 29 53  1  0
 30 54  1  0
M  END
>  <smiles>  (79) 
O=C(NCC(=O)N1CCCCC1c1ccc(C(F)(F)F)cc1)c1ccc2ccccc2n1

>  <score_type>  (79) 
oracle

>  <origin>  (79) 
autodockgpu

>  <m_score__min__energy>  (79) 
-8.4100000000000001

>  <m_primary>  (79) 
energy

>  <rmsd>  (79) 
8.156375795340008

>  <m_score__min__rmsd>  (79) 
8.156375795340008

>  <meeko>  (79) 
{"free_energy": -8.08, "intermolecular_energy": -9.87, "internal_energy": -2.14, "cluster_size": 11, "cluster_id": 4, "rank_in_cluster": 7}

>  <energy>  (79) 
-8.15

>  <cluster_rmsd>  (79) 
0.92

>  <cluster>  (79) 
3

$$$$

     RDKit          3D

 54 57  0  0  0  0  0  0  0  0999 V2000
  140.9810   71.6980  221.3590 O   0  0  0  0  0  0  0  0  0  0  0  0
  140.3810   72.2110  222.3370 C   0  0  0  0  0  0  0  0  0  0  0  0
  139.8280   73.5200  222.3220 N   0  0  0  0  0  0  0  0  0  0  0  0
  139.9300   74.3580  221.1420 C   0  0  0  0  0  0  0  0  0  0  0  0
  140.2510   75.7370  221.5880 C   0  0  0  0  0  0  0  0  0  0  0  0
  139.8000   76.1130  222.7020 O   0  0  0  0  0  0  0  0  0  0  0  0
  141.0540   76.6070  220.7610 N   0  0  0  0  0  0  0  0  0  0  0  0
  141.4590   77.8870  221.2990 C   0  0  0  0  0  0  0  0  0  0  0  0
  141.4100   78.9240  220.2220 C   0  0  0  0  0  0  0  0  0  0  0  0
  142.1780   78.5030  218.9890 C   0  0  0  0  0  0  0  0  0  0  0  0
  141.7450   77.1840  218.4510 C   0  0  0  0  0  0  0  0  0  0  0  0
  141.4040   76.1350  219.4410 C   0  0  1  0  0  0  0  0  0  0  0  0
  142.4300   75.0450  219.5040 C   0  0  0  0  0  0  0  0  0  0  0  0
  142.1990   73.7850  218.9850 C   0  0  0  0  0  0  0  0  0  0  0  0
  143.1450   72.7720  219.0400 C   0  0  0  0  0  0  0  0  0  0  0  0
  144.3600   72.9970  219.6230 C   0  0  0  0  0  0  0  0  0  0  0  0
  145.3360   71.8810  219.6550 C   0  0  0  0  0  0  0  0  0  0  0  0
  145.9230   71.7340  218.4130 F   0  0  0  0  0  0  0  0  0  0  0  0
  146.3490   72.2490  220.5210 F   0  0  0  0  0  0  0  0  0  0  0  0
  144.7820   70.6950  220.0880 F   0  0  0  0  0  0  0  0  0  0  0  0
  144.6080   74.2440  220.1440 C   0  0  0  0  0  0  0  0  0  0  0  0
  143.6720   75.2430  220.0900 C   0  0  0  0  0  0  0  0  0  0  0  0
  140.2310   71.4280  223.5790 C   0  0  0  0  0  0  0  0  0  0  0  0
  139.5870   70.1930  223.5390 C   0  0  0  0  0  0  0  0  0  0  0  0
  139.4270   69.4320  224.6750 C   0  0  0  0  0  0  0  0  0  0  0  0
  139.9280   69.9320  225.8570 C   0  0  0  0  0  0  0  0  0  0  0  0
  139.8010   69.2190  227.0350 C   0  0  0  0  0  0  0  0  0  0  0  0
  140.3070   69.7280  228.2240 C   0  0  0  0  0  0  0  0  0  0  0  0
  140.9520   70.9520  228.2900 C   0  0  0  0  0  0  0  0  0  0  0  0
  141.0630   71.6430  227.0920 C   0  0  0  0  0  0  0  0  0  0  0  0
  140.5740   71.1690  225.9040 C   0  0  0  0  0  0  0  0  0  0  0  0
  140.7010   71.8680  224.7600 N   0  0  0  0  0  0  0  0  0  0  0  0
  139.3340   73.8830  223.1890 H   0  0  0  0  0  0  0  0  0  0  0  0
  140.7281   73.9825  220.4848 H   0  0  0  0  0  0  0  0  0  0  0  0
  138.9836   74.3472  220.5814 H   0  0  0  0  0  0  0  0  0  0  0  0
  140.7778   78.1734  222.1138 H   0  0  0  0  0  0  0  0  0  0  0  0
  142.4859   77.8114  221.6859 H   0  0  0  0  0  0  0  0  0  0  0  0
  140.3599   79.0965  219.9437 H   0  0  0  0  0  0  0  0  0  0  0  0
  141.8757   79.8403  220.6137 H   0  0  0  0  0  0  0  0  0  0  0  0
  142.0312   79.2642  218.2086 H   0  0  0  0  0  0  0  0  0  0  0  0
  143.2348   78.4072  219.2787 H   0  0  0  0  0  0  0  0  0  0  0  0
  140.8545   77.3552  217.8283 H   0  0  0  0  0  0  0  0  0  0  0  0
  142.6197   76.7940  217.9099 H   0  0  0  0  0  0  0  0  0  0  0  0
  140.4714   75.7095  219.0421 H   0  0  0  0  0  0  0  0  0  0  0  0
  141.2285   73.5777  218.5105 H   0  0  0  0  0  0  0  0  0  0  0  0
  142.9163   71.7844  218.6129 H   0  0  0  0  0  0  0  0  0  0  0  0
  145.5812   74.4450  220.6157 H   0  0  0  0  0  0  0  0  0  0  0  0
  143.9110   76.2261  220.5218 H   0  0  0  0  0  0  0  0  0  0  0  0
  139.1986   69.8186  222.5804 H   0  0  0  0  0  0  0  0  0  0  0  0
  138.9167   68.4582  224.6402 H   0  0  0  0  0  0  0  0  0  0  0  0
  139.2957   68.2419  227.0303 H   0  0  0  0  0  0  0  0  0  0  0  0
  140.1915   69.1385  229.1455 H   0  0  0  0  0  0  0  0  0  0  0  0
  141.3515   71.3515  229.2338 H   0  0  0  0  0  0  0  0  0  0  0  0
  141.5688   72.6198  227.0967 H   0  0  0  0  0  0  0  0  0  0  0  0
  1  2  2  0
  2  3  1  0
  3  4  1  0
  4  5  1  0
  5  6  2  0
  5  7  1  0
  7  8  1  0
  8  9  1  0
  9 10  1  0
 10 11  1  0
 11 12  1  0
 12 13  1  0
 13 14  2  0
 14 15  1  0
 15 16  2  0
 16 17  1  0
 17 18  1  0
 17 19  1  0
 17 20  1  0
 16 21  1  0
 21 22  2  0
  2 23  1  0
 23 24  2  0
 24 25  1  0
 25 26  2  0
 26 27  1  0
 27 28  2  0
 28 29  1  0
 29 30  2  0
 30 31  1  0
 31 32  2  0
 12  7  1  0
 22 13  1  0
 32 23  1  0
 31 26  1  0
  3 33  1  0
  4 34  1  0
  4 35  1  0
  8 36  1  0
  8 37  1  0
  9 38  1  0
  9 39  1  0
 10 40  1  0
 10 41  1  0
 11 42  1  0
 11 43  1  0
 12 44  1  6
 14 45  1  0
 15 46  1  0
 21 47  1  0
 22 48  1  0
 24 49  1  0
 25 50  1  0
 27 51  1  0
 28 52  1  0
 29 53  1  0
 30 54  1  0
M  END
>  <smiles>  (80) 
O=C(NCC(=O)N1CCCCC1c1ccc(C(F)(F)F)cc1)c1ccc2ccccc2n1

>  <score_type>  (80) 
oracle

>  <origin>  (80) 
autodockgpu

>  <m_score__min__energy>  (80) 
-8.4100000000000001

>  <m_primary>  (80) 
energy

>  <rmsd>  (80) 
2.3562590580274456

>  <m_score__min__rmsd>  (80) 
2.3562590580274456

>  <meeko>  (80) 
{"free_energy": -8.3, "intermolecular_energy": -10.09, "internal_energy": -2.15, "cluster_size": 18, "cluster_id": 3, "rank_in_cluster": 1}

>  <energy>  (80) 
-8.15

>  <cluster_rmsd>  (80) 
0.25

>  <cluster>  (80) 
3

$$$$

     RDKit          3D

 54 57  0  0  0  0  0  0  0  0999 V2000
  139.2380   74.1220  221.0880 O   0  0  0  0  0  0  0  0  0  0  0  0
  140.3630   74.6130  221.3600 C   0  0  0  0  0  0  0  0  0  0  0  0
  140.5390   75.8480  222.0400 N   0  0  0  0  0  0  0  0  0  0  0  0
  139.3960   76.6320  222.4680 C   0  0  0  0  0  0  0  0  0  0  0  0
  139.5660   78.0110  221.9460 C   0  0  0  0  0  0  0  0  0  0  0  0
  138.6010   78.5240  221.3200 O   0  0  0  0  0  0  0  0  0  0  0  0
  140.8010   78.7280  222.1570 N   0  0  0  0  0  0  0  0  0  0  0  0
  141.4740   78.5820  223.4300 C   0  0  0  0  0  0  0  0  0  0  0  0
  142.0600   79.8950  223.8430 C   0  0  0  0  0  0  0  0  0  0  0  0
  142.9210   80.5020  222.7570 C   0  0  0  0  0  0  0  0  0  0  0  0
  142.2100   80.6440  221.4560 C   0  0  0  0  0  0  0  0  0  0  0  0
  141.2890   79.5480  221.0720 C   0  0  1  0  0  0  0  0  0  0  0  0
  141.8230   78.7110  219.9510 C   0  0  0  0  0  0  0  0  0  0  0  0
  141.8470   79.1600  218.6440 C   0  0  0  0  0  0  0  0  0  0  0  0
  142.3420   78.3890  217.6010 C   0  0  0  0  0  0  0  0  0  0  0  0
  142.8290   77.1360  217.8430 C   0  0  0  0  0  0  0  0  0  0  0  0
  143.3460   76.3540  216.6950 C   0  0  0  0  0  0  0  0  0  0  0  0
  144.0490   75.2560  217.1530 F   0  0  0  0  0  0  0  0  0  0  0  0
  142.2520   75.8560  216.0130 F   0  0  0  0  0  0  0  0  0  0  0  0
  144.1100   77.1090  215.8300 F   0  0  0  0  0  0  0  0  0  0  0  0
  142.8150   76.6740  219.1370 C   0  0  0  0  0  0  0  0  0  0  0  0
  142.3260   77.4360  220.1660 C   0  0  0  0  0  0  0  0  0  0  0  0
  141.5810   73.8810  220.9610 C   0  0  0  0  0  0  0  0  0  0  0  0
  141.4710   72.5820  220.4680 C   0  0  0  0  0  0  0  0  0  0  0  0
  142.5830   71.8660  220.0860 C   0  0  0  0  0  0  0  0  0  0  0  0
  143.8120   72.4770  220.2050 C   0  0  0  0  0  0  0  0  0  0  0  0
  144.9690   71.8140  219.8390 C   0  0  0  0  0  0  0  0  0  0  0  0
  146.2050   72.4340  219.9620 C   0  0  0  0  0  0  0  0  0  0  0  0
  146.3410   73.7230  220.4480 C   0  0  0  0  0  0  0  0  0  0  0  0
  145.1620   74.3620  220.8070 C   0  0  0  0  0  0  0  0  0  0  0  0
  143.9290   73.7770  220.6990 C   0  0  0  0  0  0  0  0  0  0  0  0
  142.8060   74.4290  221.0570 N   0  0  0  0  0  0  0  0  0  0  0  0
  141.5230   76.1960  222.2350 H   0  0  0  0  0  0  0  0  0  0  0  0
  138.4705   76.1925  222.0676 H   0  0  0  0  0  0  0  0  0  0  0  0
  139.3296   76.6439  223.5659 H   0  0  0  0  0  0  0  0  0  0  0  0
  140.7516   78.2487  224.1896 H   0  0  0  0  0  0  0  0  0  0  0  0
  142.2783   77.8377  223.3340 H   0  0  0  0  0  0  0  0  0  0  0  0
  141.2408   80.5910  224.0765 H   0  0  0  0  0  0  0  0  0  0  0  0
  142.6979   79.7193  224.7218 H   0  0  0  0  0  0  0  0  0  0  0  0
  143.2489   81.4988  223.0869 H   0  0  0  0  0  0  0  0  0  0  0  0
  143.7695   79.8213  222.5935 H   0  0  0  0  0  0  0  0  0  0  0  0
  141.6220   81.5727  221.4983 H   0  0  0  0  0  0  0  0  0  0  0  0
  143.0026   80.6329  220.6933 H   0  0  0  0  0  0  0  0  0  0  0  0
  140.4003   80.0852  220.7092 H   0  0  0  0  0  0  0  0  0  0  0  0
  141.4596   80.1653  218.4221 H   0  0  0  0  0  0  0  0  0  0  0  0
  142.3420   78.7885  216.5761 H   0  0  0  0  0  0  0  0  0  0  0  0
  143.2056   75.6685  219.3522 H   0  0  0  0  0  0  0  0  0  0  0  0
  142.3325   77.0267  221.1870 H   0  0  0  0  0  0  0  0  0  0  0  0
  140.4764   72.1200  220.3825 H   0  0  0  0  0  0  0  0  0  0  0  0
  142.4932   70.8404  219.6987 H   0  0  0  0  0  0  0  0  0  0  0  0
  144.9096   70.7878  219.4475 H   0  0  0  0  0  0  0  0  0  0  0  0
  147.1080   71.8816  219.6628 H   0  0  0  0  0  0  0  0  0  0  0  0
  147.3223   74.2107  220.5438 H   0  0  0  0  0  0  0  0  0  0  0  0
  145.2214   75.3887  221.1974 H   0  0  0  0  0  0  0  0  0  0  0  0
  1  2  2  0
  2  3  1  0
  3  4  1  0
  4  5  1  0
  5  6  2  0
  5  7  1  0
  7  8  1  0
  8  9  1  0
  9 10  1  0
 10 11  1  0
 11 12  1  0
 12 13  1  0
 13 14  2  0
 14 15  1  0
 15 16  2  0
 16 17  1  0
 17 18  1  0
 17 19  1  0
 17 20  1  0
 16 21  1  0
 21 22  2  0
  2 23  1  0
 23 24  2  0
 24 25  1  0
 25 26  2  0
 26 27  1  0
 27 28  2  0
 28 29  1  0
 29 30  2  0
 30 31  1  0
 31 32  2  0
 12  7  1  0
 22 13  1  0
 32 23  1  0
 31 26  1  0
  3 33  1  0
  4 34  1  0
  4 35  1  0
  8 36  1  0
  8 37  1  0
  9 38  1  0
  9 39  1  0
 10 40  1  0
 10 41  1  0
 11 42  1  0
 11 43  1  0
 12 44  1  6
 14 45  1  0
 15 46  1  0
 21 47  1  0
 22 48  1  0
 24 49  1  0
 25 50  1  0
 27 51  1  0
 28 52  1  0
 29 53  1  0
 30 54  1  0
M  END
>  <smiles>  (81) 
O=C(NCC(=O)N1CCCCC1c1ccc(C(F)(F)F)cc1)c1ccc2ccccc2n1

>  <score_type>  (81) 
oracle

>  <origin>  (81) 
autodockgpu

>  <m_score__min__energy>  (81) 
-8.4100000000000001

>  <m_primary>  (81) 
energy

>  <rmsd>  (81) 
6.308294438883071

>  <m_score__min__rmsd>  (81) 
6.308294438883071

>  <meeko>  (81) 
{"free_energy": -7.05, "intermolecular_energy": -8.84, "internal_energy": -2.73, "cluster_size": 1, "cluster_id": 6, "rank_in_cluster": 1}

>  <energy>  (81) 
-8.14

>  <cluster_rmsd>  (81) 
0.21

>  <cluster>  (81) 
3

$$$$

     RDKit          3D

 54 57  0  0  0  0  0  0  0  0999 V2000
  140.8780   71.6280  221.3360 O   0  0  0  0  0  0  0  0  0  0  0  0
  140.3770   72.1930  222.3410 C   0  0  0  0  0  0  0  0  0  0  0  0
  139.9210   73.5390  222.3420 N   0  0  0  0  0  0  0  0  0  0  0  0
  140.0130   74.3570  221.1470 C   0  0  0  0  0  0  0  0  0  0  0  0
  140.3270   75.7450  221.5660 C   0  0  0  0  0  0  0  0  0  0  0  0
  139.8880   76.1340  222.6820 O   0  0  0  0  0  0  0  0  0  0  0  0
  141.1090   76.6100  220.7150 N   0  0  0  0  0  0  0  0  0  0  0  0
  141.5270   77.8940  221.2350 C   0  0  0  0  0  0  0  0  0  0  0  0
  141.4510   78.9240  220.1530 C   0  0  0  0  0  0  0  0  0  0  0  0
  142.1890   78.4950  218.9040 C   0  0  0  0  0  0  0  0  0  0  0  0
  141.7440   77.1720  218.3850 C   0  0  0  0  0  0  0  0  0  0  0  0
  141.4280   76.1300  219.3900 C   0  0  1  0  0  0  0  0  0  0  0  0
  142.4550   75.0410  219.4360 C   0  0  0  0  0  0  0  0  0  0  0  0
  143.3910   74.9520  220.4500 C   0  0  0  0  0  0  0  0  0  0  0  0
  144.3450   73.9450  220.4980 C   0  0  0  0  0  0  0  0  0  0  0  0
  144.3870   72.9920  219.5220 C   0  0  0  0  0  0  0  0  0  0  0  0
  145.4240   71.9370  219.6190 C   0  0  0  0  0  0  0  0  0  0  0  0
  144.8420   70.7370  219.9810 F   0  0  0  0  0  0  0  0  0  0  0  0
  145.9390   71.7510  218.3500 F   0  0  0  0  0  0  0  0  0  0  0  0
  146.4510   72.2710  220.4770 F   0  0  0  0  0  0  0  0  0  0  0  0
  143.4640   73.0630  218.5050 C   0  0  0  0  0  0  0  0  0  0  0  0
  142.5230   74.0580  218.4590 C   0  0  0  0  0  0  0  0  0  0  0  0
  140.2460   71.4340  223.6000 C   0  0  0  0  0  0  0  0  0  0  0  0
  139.6330   70.1820  223.5870 C   0  0  0  0  0  0  0  0  0  0  0  0
  139.4910   69.4430  224.7400 C   0  0  0  0  0  0  0  0  0  0  0  0
  139.9770   69.9820  225.9100 C   0  0  0  0  0  0  0  0  0  0  0  0
  139.8670   69.2930  227.1040 C   0  0  0  0  0  0  0  0  0  0  0  0
  140.3570   69.8400  228.2820 C   0  0  0  0  0  0  0  0  0  0  0  0
  140.9700   71.0820  228.3210 C   0  0  0  0  0  0  0  0  0  0  0  0
  141.0650   71.7490  227.1080 C   0  0  0  0  0  0  0  0  0  0  0  0
  140.5910   71.2360  225.9310 C   0  0  0  0  0  0  0  0  0  0  0  0
  140.7020   71.9120  224.7720 N   0  0  0  0  0  0  0  0  0  0  0  0
  139.5090   73.9450  223.2310 H   0  0  0  0  0  0  0  0  0  0  0  0
  140.8107   73.9747  220.4932 H   0  0  0  0  0  0  0  0  0  0  0  0
  139.0641   74.3305  220.5912 H   0  0  0  0  0  0  0  0  0  0  0  0
  140.8661   78.1854  222.0646 H   0  0  0  0  0  0  0  0  0  0  0  0
  142.5632   77.8211  221.5970 H   0  0  0  0  0  0  0  0  0  0  0  0
  140.3943   79.0943  219.8994 H   0  0  0  0  0  0  0  0  0  0  0  0
  141.9256   79.8431  220.5272 H   0  0  0  0  0  0  0  0  0  0  0  0
  142.0226   79.2511  218.1225 H   0  0  0  0  0  0  0  0  0  0  0  0
  143.2526   78.4014  219.1686 H   0  0  0  0  0  0  0  0  0  0  0  0
  140.8386   77.3386  217.7829 H   0  0  0  0  0  0  0  0  0  0  0  0
  142.6054   76.7789  217.8251 H   0  0  0  0  0  0  0  0  0  0  0  0
  140.4863   75.7020  219.0158 H   0  0  0  0  0  0  0  0  0  0  0  0
  143.3791   75.7080  221.2489 H   0  0  0  0  0  0  0  0  0  0  0  0
  145.0694   73.9150  221.3252 H   0  0  0  0  0  0  0  0  0  0  0  0
  143.4816   72.3032  217.7098 H   0  0  0  0  0  0  0  0  0  0  0  0
  141.8037   74.0780  217.6270 H   0  0  0  0  0  0  0  0  0  0  0  0
  139.2553   69.7765  222.6368 H   0  0  0  0  0  0  0  0  0  0  0  0
  139.0059   68.4558  224.7269 H   0  0  0  0  0  0  0  0  0  0  0  0
  139.3872   68.3033  227.1204 H   0  0  0  0  0  0  0  0  0  0  0  0
  140.2552   69.2681  229.2161 H   0  0  0  0  0  0  0  0  0  0  0  0
  141.3575   71.5127  229.2561 H   0  0  0  0  0  0  0  0  0  0  0  0
  141.5448   72.7387  227.0915 H   0  0  0  0  0  0  0  0  0  0  0  0
  1  2  2  0
  2  3  1  0
  3  4  1  0
  4  5  1  0
  5  6  2  0
  5  7  1  0
  7  8  1  0
  8  9  1  0
  9 10  1  0
 10 11  1  0
 11 12  1  0
 12 13  1  0
 13 14  2  0
 14 15  1  0
 15 16  2  0
 16 17  1  0
 17 18  1  0
 17 19  1  0
 17 20  1  0
 16 21  1  0
 21 22  2  0
  2 23  1  0
 23 24  2  0
 24 25  1  0
 25 26  2  0
 26 27  1  0
 27 28  2  0
 28 29  1  0
 29 30  2  0
 30 31  1  0
 31 32  2  0
 12  7  1  0
 22 13  1  0
 32 23  1  0
 31 26  1  0
  3 33  1  0
  4 34  1  0
  4 35  1  0
  8 36  1  0
  8 37  1  0
  9 38  1  0
  9 39  1  0
 10 40  1  0
 10 41  1  0
 11 42  1  0
 11 43  1  0
 12 44  1  6
 14 45  1  0
 15 46  1  0
 21 47  1  0
 22 48  1  0
 24 49  1  0
 25 50  1  0
 27 51  1  0
 28 52  1  0
 29 53  1  0
 30 54  1  0
M  END
>  <smiles>  (82) 
O=C(NCC(=O)N1CCCCC1c1ccc(C(F)(F)F)cc1)c1ccc2ccccc2n1

>  <score_type>  (82) 
oracle

>  <origin>  (82) 
autodockgpu

>  <m_score__min__energy>  (82) 
-8.4100000000000001

>  <m_primary>  (82) 
energy

>  <rmsd>  (82) 
2.370020361342446

>  <m_score__min__rmsd>  (82) 
2.370020361342446

>  <meeko>  (82) 
{"free_energy": -8.13, "intermolecular_energy": -9.92, "internal_energy": -2.24, "cluster_size": 18, "cluster_id": 3, "rank_in_cluster": 13}

>  <energy>  (82) 
-8.13

>  <cluster_rmsd>  (82) 
0.23

>  <cluster>  (82) 
3

$$$$

     RDKit          3D

 54 57  0  0  0  0  0  0  0  0999 V2000
  138.0950   70.3670  221.8670 O   0  0  0  0  0  0  0  0  0  0  0  0
  138.6700   71.0280  222.7700 C   0  0  0  0  0  0  0  0  0  0  0  0
  138.9490   72.4170  222.6710 N   0  0  0  0  0  0  0  0  0  0  0  0
  138.5750   73.1690  221.4880 C   0  0  0  0  0  0  0  0  0  0  0  0
  139.5370   74.2890  221.3360 C   0  0  0  0  0  0  0  0  0  0  0  0
  140.3270   74.5180  222.2900 O   0  0  0  0  0  0  0  0  0  0  0  0
  139.5560   75.0800  220.1280 N   0  0  0  0  0  0  0  0  0  0  0  0
  138.4160   75.0110  219.2400 C   0  0  0  0  0  0  0  0  0  0  0  0
  138.8810   75.0460  217.8190 C   0  0  0  0  0  0  0  0  0  0  0  0
  139.8020   76.2150  217.5490 C   0  0  0  0  0  0  0  0  0  0  0  0
  140.9700   76.2670  218.4720 C   0  0  0  0  0  0  0  0  0  0  0  0
  140.7230   75.8980  219.8860 C   0  0  1  0  0  0  0  0  0  0  0  0
  140.7640   77.0790  220.8070 C   0  0  0  0  0  0  0  0  0  0  0  0
  141.8400   77.9450  220.8460 C   0  0  0  0  0  0  0  0  0  0  0  0
  141.8840   79.0410  221.6960 C   0  0  0  0  0  0  0  0  0  0  0  0
  140.8400   79.3000  222.5380 C   0  0  0  0  0  0  0  0  0  0  0  0
  140.9360   80.4830  223.4260 C   0  0  0  0  0  0  0  0  0  0  0  0
  139.8070   80.5670  224.2200 F   0  0  0  0  0  0  0  0  0  0  0  0
  141.9970   80.2650  224.2850 F   0  0  0  0  0  0  0  0  0  0  0  0
  141.1480   81.6570  222.7360 F   0  0  0  0  0  0  0  0  0  0  0  0
  139.7600   78.4490  222.5130 C   0  0  0  0  0  0  0  0  0  0  0  0
  139.7190   77.3680  221.6730 C   0  0  0  0  0  0  0  0  0  0  0  0
  139.0850   70.3400  224.0080 C   0  0  0  0  0  0  0  0  0  0  0  0
  138.8440   68.9750  224.1500 C   0  0  0  0  0  0  0  0  0  0  0  0
  139.2160   68.2980  225.2900 C   0  0  0  0  0  0  0  0  0  0  0  0
  139.8370   69.0160  226.2880 C   0  0  0  0  0  0  0  0  0  0  0  0
  140.2360   68.3970  227.4590 C   0  0  0  0  0  0  0  0  0  0  0  0
  140.8610   69.1250  228.4630 C   0  0  0  0  0  0  0  0  0  0  0  0
  141.1120   70.4820  228.3460 C   0  0  0  0  0  0  0  0  0  0  0  0
  140.7000   71.0730  227.1600 C   0  0  0  0  0  0  0  0  0  0  0  0
  140.0810   70.3830  226.1520 C   0  0  0  0  0  0  0  0  0  0  0  0
  139.6950   70.9920  225.0150 N   0  0  0  0  0  0  0  0  0  0  0  0
  139.4380   72.9050  223.4760 H   0  0  0  0  0  0  0  0  0  0  0  0
  138.6168   72.5177  220.6025 H   0  0  0  0  0  0  0  0  0  0  0  0
  137.5499   73.5554  221.5879 H   0  0  0  0  0  0  0  0  0  0  0  0
  137.8668   74.0755  219.4221 H   0  0  0  0  0  0  0  0  0  0  0  0
  137.7551   75.8700  219.4283 H   0  0  0  0  0  0  0  0  0  0  0  0
  139.4195   74.1124  217.5992 H   0  0  0  0  0  0  0  0  0  0  0  0
  137.9955   75.1576  217.1761 H   0  0  0  0  0  0  0  0  0  0  0  0
  140.1750   76.1352  216.5172 H   0  0  0  0  0  0  0  0  0  0  0  0
  139.2188   77.1341  217.7075 H   0  0  0  0  0  0  0  0  0  0  0  0
  141.7355   75.5821  218.0785 H   0  0  0  0  0  0  0  0  0  0  0  0
  141.2676   77.3256  218.4992 H   0  0  0  0  0  0  0  0  0  0  0  0
  141.5744   75.2437  220.1247 H   0  0  0  0  0  0  0  0  0  0  0  0
  142.6939   77.7586  220.1781 H   0  0  0  0  0  0  0  0  0  0  0  0
  142.7623   79.7033  221.6917 H   0  0  0  0  0  0  0  0  0  0  0  0
  138.9092   78.6410  223.1833 H   0  0  0  0  0  0  0  0  0  0  0  0
  138.8357   76.7126  221.6852 H   0  0  0  0  0  0  0  0  0  0  0  0
  138.3469   68.4275  223.3356 H   0  0  0  0  0  0  0  0  0  0  0  0
  139.0238   67.2205  225.3999 H   0  0  0  0  0  0  0  0  0  0  0  0
  140.0569   67.3203  227.5959 H   0  0  0  0  0  0  0  0  0  0  0  0
  141.1673   68.6058  229.3831 H   0  0  0  0  0  0  0  0  0  0  0  0
  141.6071   71.0555  229.1435 H   0  0  0  0  0  0  0  0  0  0  0  0
  140.8796   72.1495  227.0227 H   0  0  0  0  0  0  0  0  0  0  0  0
  1  2  2  0
  2  3  1  0
  3  4  1  0
  4  5  1  0
  5  6  2  0
  5  7  1  0
  7  8  1  0
  8  9  1  0
  9 10  1  0
 10 11  1  0
 11 12  1  0
 12 13  1  0
 13 14  2  0
 14 15  1  0
 15 16  2  0
 16 17  1  0
 17 18  1  0
 17 19  1  0
 17 20  1  0
 16 21  1  0
 21 22  2  0
  2 23  1  0
 23 24  2  0
 24 25  1  0
 25 26  2  0
 26 27  1  0
 27 28  2  0
 28 29  1  0
 29 30  2  0
 30 31  1  0
 31 32  2  0
 12  7  1  0
 22 13  1  0
 32 23  1  0
 31 26  1  0
  3 33  1  0
  4 34  1  0
  4 35  1  0
  8 36  1  0
  8 37  1  0
  9 38  1  0
  9 39  1  0
 10 40  1  0
 10 41  1  0
 11 42  1  0
 11 43  1  0
 12 44  1  1
 14 45  1  0
 15 46  1  0
 21 47  1  0
 22 48  1  0
 24 49  1  0
 25 50  1  0
 27 51  1  0
 28 52  1  0
 29 53  1  0
 30 54  1  0
M  END
>  <smiles>  (83) 
O=C(NCC(=O)N1CCCCC1c1ccc(C(F)(F)F)cc1)c1ccc2ccccc2n1

>  <score_type>  (83) 
oracle

>  <origin>  (83) 
autodockgpu

>  <m_score__min__energy>  (83) 
-8.4100000000000001

>  <m_primary>  (83) 
energy

>  <rmsd>  (83) 
1.1318173961129467

>  <m_score__min__rmsd>  (83) 
1.1318173961129467

>  <meeko>  (83) 
{"free_energy": -7.73, "intermolecular_energy": -9.52, "internal_energy": -2.2, "cluster_size": 16, "cluster_id": 1, "rank_in_cluster": 16}

>  <energy>  (83) 
-8.13

>  <cluster_rmsd>  (83) 
0.71

>  <cluster>  (83) 
3

$$$$

     RDKit          3D

 54 57  0  0  0  0  0  0  0  0999 V2000
  141.5910   72.6660  221.4570 O   0  0  0  0  0  0  0  0  0  0  0  0
  140.6620   72.8820  222.2770 C   0  0  0  0  0  0  0  0  0  0  0  0
  139.9220   74.0940  222.3270 N   0  0  0  0  0  0  0  0  0  0  0  0
  140.2090   75.1800  221.4090 C   0  0  0  0  0  0  0  0  0  0  0  0
  139.8340   76.4520  222.0740 C   0  0  0  0  0  0  0  0  0  0  0  0
  138.7390   76.4870  222.6980 O   0  0  0  0  0  0  0  0  0  0  0  0
  140.7030   77.6020  222.0010 N   0  0  0  0  0  0  0  0  0  0  0  0
  141.4260   77.9960  223.1910 C   0  0  0  0  0  0  0  0  0  0  0  0
  141.4750   79.4880  223.2800 C   0  0  0  0  0  0  0  0  0  0  0  0
  141.9930   80.1200  222.0070 C   0  0  0  0  0  0  0  0  0  0  0  0
  141.2340   79.7030  220.7950 C   0  0  0  0  0  0  0  0  0  0  0  0
  140.7950   78.2890  220.7330 C   0  0  1  0  0  0  0  0  0  0  0  0
  141.5690   77.4870  219.7320 C   0  0  0  0  0  0  0  0  0  0  0  0
  142.6580   76.7150  220.0910 C   0  0  0  0  0  0  0  0  0  0  0  0
  143.3790   75.9700  219.1680 C   0  0  0  0  0  0  0  0  0  0  0  0
  143.0230   75.9790  217.8490 C   0  0  0  0  0  0  0  0  0  0  0  0
  143.8250   75.1660  216.9040 C   0  0  0  0  0  0  0  0  0  0  0  0
  144.3710   74.0800  217.5640 F   0  0  0  0  0  0  0  0  0  0  0  0
  142.9510   74.6490  215.9660 F   0  0  0  0  0  0  0  0  0  0  0  0
  144.7990   75.8970  216.2580 F   0  0  0  0  0  0  0  0  0  0  0  0
  141.9420   76.7410  217.4740 C   0  0  0  0  0  0  0  0  0  0  0  0
  141.2320   77.4760  218.3860 C   0  0  0  0  0  0  0  0  0  0  0  0
  140.3040   71.8300  223.2480 C   0  0  0  0  0  0  0  0  0  0  0  0
  139.5390   70.7410  222.8320 C   0  0  0  0  0  0  0  0  0  0  0  0
  139.1840   69.7410  223.7080 C   0  0  0  0  0  0  0  0  0  0  0  0
  139.6120   69.8480  225.0130 C   0  0  0  0  0  0  0  0  0  0  0  0
  139.2910   68.8780  225.9440 C   0  0  0  0  0  0  0  0  0  0  0  0
  139.7240   68.9910  227.2580 C   0  0  0  0  0  0  0  0  0  0  0  0
  140.4860   70.0620  227.6960 C   0  0  0  0  0  0  0  0  0  0  0  0
  140.7910   71.0190  226.7380 C   0  0  0  0  0  0  0  0  0  0  0  0
  140.3780   70.9360  225.4360 C   0  0  0  0  0  0  0  0  0  0  0  0
  140.6950   71.8840  224.5340 N   0  0  0  0  0  0  0  0  0  0  0  0
  139.1510   74.2000  223.0490 H   0  0  0  0  0  0  0  0  0  0  0  0
  141.2814   75.1885  221.1641 H   0  0  0  0  0  0  0  0  0  0  0  0
  139.6395   75.0534  220.4765 H   0  0  0  0  0  0  0  0  0  0  0  0
  140.9163   77.5933  224.0787 H   0  0  0  0  0  0  0  0  0  0  0  0
  142.4511   77.6001  223.1423 H   0  0  0  0  0  0  0  0  0  0  0  0
  140.4601   79.8647  223.4749 H   0  0  0  0  0  0  0  0  0  0  0  0
  142.1646   79.7551  224.0943 H   0  0  0  0  0  0  0  0  0  0  0  0
  141.9220   81.2133  222.1052 H   0  0  0  0  0  0  0  0  0  0  0  0
  143.0320   79.7842  221.8741 H   0  0  0  0  0  0  0  0  0  0  0  0
  140.3346   80.3333  220.7328 H   0  0  0  0  0  0  0  0  0  0  0  0
  141.9398   79.8213  219.9596 H   0  0  0  0  0  0  0  0  0  0  0  0
  139.7547   78.3675  220.3843 H   0  0  0  0  0  0  0  0  0  0  0  0
  142.9646   76.6901  221.1471 H   0  0  0  0  0  0  0  0  0  0  0  0
  144.2396   75.3705  219.4996 H   0  0  0  0  0  0  0  0  0  0  0  0
  141.6401   76.7609  216.4164 H   0  0  0  0  0  0  0  0  0  0  0  0
  140.3736   78.0722  218.0430 H   0  0  0  0  0  0  0  0  0  0  0  0
  139.2130   70.6801  221.7832 H   0  0  0  0  0  0  0  0  0  0  0  0
  138.5784   68.8844  223.3771 H   0  0  0  0  0  0  0  0  0  0  0  0
  138.6876   68.0096  225.6412 H   0  0  0  0  0  0  0  0  0  0  0  0
  139.4528   68.2032  227.9762 H   0  0  0  0  0  0  0  0  0  0  0  0
  140.8279   70.1485  228.7379 H   0  0  0  0  0  0  0  0  0  0  0  0
  141.3947   71.8873  227.0404 H   0  0  0  0  0  0  0  0  0  0  0  0
  1  2  2  0
  2  3  1  0
  3  4  1  0
  4  5  1  0
  5  6  2  0
  5  7  1  0
  7  8  1  0
  8  9  1  0
  9 10  1  0
 10 11  1  0
 11 12  1  0
 12 13  1  0
 13 14  2  0
 14 15  1  0
 15 16  2  0
 16 17  1  0
 17 18  1  0
 17 19  1  0
 17 20  1  0
 16 21  1  0
 21 22  2  0
  2 23  1  0
 23 24  2  0
 24 25  1  0
 25 26  2  0
 26 27  1  0
 27 28  2  0
 28 29  1  0
 29 30  2  0
 30 31  1  0
 31 32  2  0
 12  7  1  0
 22 13  1  0
 32 23  1  0
 31 26  1  0
  3 33  1  0
  4 34  1  0
  4 35  1  0
  8 36  1  0
  8 37  1  0
  9 38  1  0
  9 39  1  0
 10 40  1  0
 10 41  1  0
 11 42  1  0
 11 43  1  0
 12 44  1  6
 14 45  1  0
 15 46  1  0
 21 47  1  0
 22 48  1  0
 24 49  1  0
 25 50  1  0
 27 51  1  0
 28 52  1  0
 29 53  1  0
 30 54  1  0
M  END
>  <smiles>  (84) 
O=C(NCC(=O)N1CCCCC1c1ccc(C(F)(F)F)cc1)c1ccc2ccccc2n1

>  <score_type>  (84) 
oracle

>  <origin>  (84) 
autodockgpu

>  <m_score__min__energy>  (84) 
-8.4100000000000001

>  <m_primary>  (84) 
energy

>  <rmsd>  (84) 
3.3821564133553084

>  <m_score__min__rmsd>  (84) 
3.3821564133553084

>  <meeko>  (84) 
{"free_energy": -7.97, "intermolecular_energy": -9.76, "internal_energy": -1.86, "cluster_size": 18, "cluster_id": 3, "rank_in_cluster": 18}

>  <energy>  (84) 
-8.12

>  <cluster_rmsd>  (84) 
0.21

>  <cluster>  (84) 
3

$$$$

     RDKit          3D

 54 57  0  0  0  0  0  0  0  0999 V2000
  140.6900   71.3330  221.2910 O   0  0  0  0  0  0  0  0  0  0  0  0
  140.2620   71.9360  222.3080 C   0  0  0  0  0  0  0  0  0  0  0  0
  139.8900   73.3070  222.3100 N   0  0  0  0  0  0  0  0  0  0  0  0
  139.9870   74.1070  221.1040 C   0  0  0  0  0  0  0  0  0  0  0  0
  140.0470   75.5350  221.5060 C   0  0  0  0  0  0  0  0  0  0  0  0
  139.8180   75.8150  222.7130 O   0  0  0  0  0  0  0  0  0  0  0  0
  140.3600   76.5580  220.5370 N   0  0  0  0  0  0  0  0  0  0  0  0
  139.9730   76.3430  219.1590 C   0  0  0  0  0  0  0  0  0  0  0  0
  141.0380   76.8670  218.2490 C   0  0  0  0  0  0  0  0  0  0  0  0
  141.4080   78.2990  218.5690 C   0  0  0  0  0  0  0  0  0  0  0  0
  141.8050   78.4980  219.9900 C   0  0  0  0  0  0  0  0  0  0  0  0
  141.0440   77.7390  221.0110 C   0  0  1  0  0  0  0  0  0  0  0  0
  140.1320   78.6110  221.8180 C   0  0  0  0  0  0  0  0  0  0  0  0
  138.9140   79.0510  221.3350 C   0  0  0  0  0  0  0  0  0  0  0  0
  138.0650   79.8580  222.0780 C   0  0  0  0  0  0  0  0  0  0  0  0
  138.4170   80.2500  223.3380 C   0  0  0  0  0  0  0  0  0  0  0  0
  137.4750   81.1120  224.0910 C   0  0  0  0  0  0  0  0  0  0  0  0
  138.0430   81.4940  225.2910 F   0  0  0  0  0  0  0  0  0  0  0  0
  137.3050   82.2710  223.3570 F   0  0  0  0  0  0  0  0  0  0  0  0
  136.2450   80.5200  224.2880 F   0  0  0  0  0  0  0  0  0  0  0  0
  139.6240   79.8220  223.8370 C   0  0  0  0  0  0  0  0  0  0  0  0
  140.4620   79.0250  223.1010 C   0  0  0  0  0  0  0  0  0  0  0  0
  140.1310   71.1970  223.5790 C   0  0  0  0  0  0  0  0  0  0  0  0
  139.5820   69.9160  223.5760 C   0  0  0  0  0  0  0  0  0  0  0  0
  139.4430   69.1950  224.7400 C   0  0  0  0  0  0  0  0  0  0  0  0
  139.8650   69.7820  225.9120 C   0  0  0  0  0  0  0  0  0  0  0  0
  139.7530   69.1130  227.1170 C   0  0  0  0  0  0  0  0  0  0  0  0
  140.1800   69.7080  228.2960 C   0  0  0  0  0  0  0  0  0  0  0  0
  140.7290   70.9800  228.3260 C   0  0  0  0  0  0  0  0  0  0  0  0
  140.8270   71.6260  227.1020 C   0  0  0  0  0  0  0  0  0  0  0  0
  140.4150   71.0650  225.9230 C   0  0  0  0  0  0  0  0  0  0  0  0
  140.5270   71.7230  224.7530 N   0  0  0  0  0  0  0  0  0  0  0  0
  139.5360   73.7460  223.2100 H   0  0  0  0  0  0  0  0  0  0  0  0
  140.8972   73.8367  220.5486 H   0  0  0  0  0  0  0  0  0  0  0  0
  139.1169   73.9283  220.4552 H   0  0  0  0  0  0  0  0  0  0  0  0
  139.8373   75.2660  218.9810 H   0  0  0  0  0  0  0  0  0  0  0  0
  139.0297   76.8721  218.9586 H   0  0  0  0  0  0  0  0  0  0  0  0
  141.9342   76.2377  218.3529 H   0  0  0  0  0  0  0  0  0  0  0  0
  140.6477   76.8402  217.2209 H   0  0  0  0  0  0  0  0  0  0  0  0
  142.2501   78.5947  217.9259 H   0  0  0  0  0  0  0  0  0  0  0  0
  140.5150   78.9156  218.3894 H   0  0  0  0  0  0  0  0  0  0  0  0
  142.8629   78.2114  220.0828 H   0  0  0  0  0  0  0  0  0  0  0  0
  141.5927   79.5563  220.2018 H   0  0  0  0  0  0  0  0  0  0  0  0
  141.8333   77.3551  221.6741 H   0  0  0  0  0  0  0  0  0  0  0  0
  138.6062   78.7497  220.3228 H   0  0  0  0  0  0  0  0  0  0  0  0
  137.1049   80.1833  221.6509 H   0  0  0  0  0  0  0  0  0  0  0  0
  139.9245   80.1261  224.8505 H   0  0  0  0  0  0  0  0  0  0  0  0
  141.4196   78.7057  223.5380 H   0  0  0  0  0  0  0  0  0  0  0  0
  139.2533   69.4725  222.6245 H   0  0  0  0  0  0  0  0  0  0  0  0
  139.0095   68.1841  224.7343 H   0  0  0  0  0  0  0  0  0  0  0  0
  139.3221   68.1012  227.1414 H   0  0  0  0  0  0  0  0  0  0  0  0
  140.0791   69.1507  229.2390 H   0  0  0  0  0  0  0  0  0  0  0  0
  141.0663   71.4486  229.2623 H   0  0  0  0  0  0  0  0  0  0  0  0
  141.2567   72.6383  227.0777 H   0  0  0  0  0  0  0  0  0  0  0  0
  1  2  2  0
  2  3  1  0
  3  4  1  0
  4  5  1  0
  5  6  2  0
  5  7  1  0
  7  8  1  0
  8  9  1  0
  9 10  1  0
 10 11  1  0
 11 12  1  0
 12 13  1  0
 13 14  2  0
 14 15  1  0
 15 16  2  0
 16 17  1  0
 17 18  1  0
 17 19  1  0
 17 20  1  0
 16 21  1  0
 21 22  2  0
  2 23  1  0
 23 24  2  0
 24 25  1  0
 25 26  2  0
 26 27  1  0
 27 28  2  0
 28 29  1  0
 29 30  2  0
 30 31  1  0
 31 32  2  0
 12  7  1  0
 22 13  1  0
 32 23  1  0
 31 26  1  0
  3 33  1  0
  4 34  1  0
  4 35  1  0
  8 36  1  0
  8 37  1  0
  9 38  1  0
  9 39  1  0
 10 40  1  0
 10 41  1  0
 11 42  1  0
 11 43  1  0
 12 44  1  1
 14 45  1  0
 15 46  1  0
 21 47  1  0
 22 48  1  0
 24 49  1  0
 25 50  1  0
 27 51  1  0
 28 52  1  0
 29 53  1  0
 30 54  1  0
M  END
>  <smiles>  (85) 
O=C(NCC(=O)N1CCCCC1c1ccc(C(F)(F)F)cc1)c1ccc2ccccc2n1

>  <score_type>  (85) 
oracle

>  <origin>  (85) 
autodockgpu

>  <m_score__min__energy>  (85) 
-8.4100000000000001

>  <m_primary>  (85) 
energy

>  <rmsd>  (85) 
1.674311224027945

>  <m_score__min__rmsd>  (85) 
1.674311224027945

>  <meeko>  (85) 
{"free_energy": -8.05, "intermolecular_energy": -9.84, "internal_energy": -2.11, "cluster_size": 16, "cluster_id": 1, "rank_in_cluster": 14}

>  <energy>  (85) 
-8.09

>  <cluster_rmsd>  (85) 
1.14

>  <cluster>  (85) 
3

$$$$

     RDKit          3D

 54 57  0  0  0  0  0  0  0  0999 V2000
  139.5230   70.9770  221.2900 O   0  0  0  0  0  0  0  0  0  0  0  0
  139.6120   71.7380  222.2870 C   0  0  0  0  0  0  0  0  0  0  0  0
  139.4890   73.1510  222.2120 N   0  0  0  0  0  0  0  0  0  0  0  0
  139.2460   73.8110  220.9430 C   0  0  0  0  0  0  0  0  0  0  0  0
  139.6950   75.2200  221.0660 C   0  0  0  0  0  0  0  0  0  0  0  0
  139.3790   75.8460  222.1130 O   0  0  0  0  0  0  0  0  0  0  0  0
  140.4670   75.8390  220.0160 N   0  0  0  0  0  0  0  0  0  0  0  0
  139.8990   75.9000  218.6870 C   0  0  0  0  0  0  0  0  0  0  0  0
  140.9700   75.6670  217.6690 C   0  0  0  0  0  0  0  0  0  0  0  0
  142.1580   76.5800  217.8720 C   0  0  0  0  0  0  0  0  0  0  0  0
  142.7290   76.5020  219.2460 C   0  0  0  0  0  0  0  0  0  0  0  0
  141.7670   76.3650  220.3650 C   0  0  1  0  0  0  0  0  0  0  0  0
  141.6510   77.6140  221.1830 C   0  0  0  0  0  0  0  0  0  0  0  0
  141.7690   78.8730  220.6260 C   0  0  0  0  0  0  0  0  0  0  0  0
  141.6620   80.0340  221.3790 C   0  0  0  0  0  0  0  0  0  0  0  0
  141.4300   79.9620  222.7230 C   0  0  0  0  0  0  0  0  0  0  0  0
  141.3230   81.2310  223.4820 C   0  0  0  0  0  0  0  0  0  0  0  0
  141.3070   82.3020  222.6070 F   0  0  0  0  0  0  0  0  0  0  0  0
  140.0930   81.2290  224.1120 F   0  0  0  0  0  0  0  0  0  0  0  0
  142.3150   81.3770  224.4290 F   0  0  0  0  0  0  0  0  0  0  0  0
  141.3090   78.7180  223.2950 C   0  0  0  0  0  0  0  0  0  0  0  0
  141.4160   77.5730  222.5500 C   0  0  0  0  0  0  0  0  0  0  0  0
  139.8590   71.1500  223.6180 C   0  0  0  0  0  0  0  0  0  0  0  0
  139.5440   69.8120  223.8480 C   0  0  0  0  0  0  0  0  0  0  0  0
  139.7580   69.2280  225.0760 C   0  0  0  0  0  0  0  0  0  0  0  0
  140.2980   70.0100  226.0730 C   0  0  0  0  0  0  0  0  0  0  0  0
  140.5390   69.4860  227.3300 C   0  0  0  0  0  0  0  0  0  0  0  0
  141.0830   70.2780  228.3320 C   0  0  0  0  0  0  0  0  0  0  0  0
  141.4060   71.6090  228.1280 C   0  0  0  0  0  0  0  0  0  0  0  0
  141.1520   72.1060  226.8580 C   0  0  0  0  0  0  0  0  0  0  0  0
  140.6160   71.3510  225.8500 C   0  0  0  0  0  0  0  0  0  0  0  0
  140.3850   71.8680  224.6280 N   0  0  0  0  0  0  0  0  0  0  0  0
  139.5770   73.7270  223.0990 H   0  0  0  0  0  0  0  0  0  0  0  0
  139.8119   73.3070  220.1457 H   0  0  0  0  0  0  0  0  0  0  0  0
  138.1762   73.7714  220.6902 H   0  0  0  0  0  0  0  0  0  0  0  0
  139.1234   75.1266  218.5851 H   0  0  0  0  0  0  0  0  0  0  0  0
  139.4542   76.8932  218.5265 H   0  0  0  0  0  0  0  0  0  0  0  0
  141.3085   74.6230  217.7433 H   0  0  0  0  0  0  0  0  0  0  0  0
  140.5455   75.8800  216.6768 H   0  0  0  0  0  0  0  0  0  0  0  0
  142.9409   76.3008  217.1515 H   0  0  0  0  0  0  0  0  0  0  0  0
  141.8074   77.6117  217.7213 H   0  0  0  0  0  0  0  0  0  0  0  0
  143.4015   75.6321  219.2775 H   0  0  0  0  0  0  0  0  0  0  0  0
  143.2207   77.4726  219.4077 H   0  0  0  0  0  0  0  0  0  0  0  0
  142.2226   75.5834  220.9907 H   0  0  0  0  0  0  0  0  0  0  0  0
  141.9547   78.9583  219.5452 H   0  0  0  0  0  0  0  0  0  0  0  0
  141.7644   81.0150  220.8919 H   0  0  0  0  0  0  0  0  0  0  0  0
  141.1219   78.6398  224.3761 H   0  0  0  0  0  0  0  0  0  0  0  0
  141.3131   76.5975  223.0477 H   0  0  0  0  0  0  0  0  0  0  0  0
  139.1160   69.2109  223.0323 H   0  0  0  0  0  0  0  0  0  0  0  0
  139.5062   68.1723  225.2551 H   0  0  0  0  0  0  0  0  0  0  0  0
  140.2977   68.4331  227.5375 H   0  0  0  0  0  0  0  0  0  0  0  0
  141.2636   69.8331  229.3217 H   0  0  0  0  0  0  0  0  0  0  0  0
  141.8374   72.2337  228.9240 H   0  0  0  0  0  0  0  0  0  0  0  0
  141.3933   73.1590  226.6508 H   0  0  0  0  0  0  0  0  0  0  0  0
  1  2  2  0
  2  3  1  0
  3  4  1  0
  4  5  1  0
  5  6  2  0
  5  7  1  0
  7  8  1  0
  8  9  1  0
  9 10  1  0
 10 11  1  0
 11 12  1  0
 12 13  1  0
 13 14  2  0
 14 15  1  0
 15 16  2  0
 16 17  1  0
 17 18  1  0
 17 19  1  0
 17 20  1  0
 16 21  1  0
 21 22  2  0
  2 23  1  0
 23 24  2  0
 24 25  1  0
 25 26  2  0
 26 27  1  0
 27 28  2  0
 28 29  1  0
 29 30  2  0
 30 31  1  0
 31 32  2  0
 12  7  1  0
 22 13  1  0
 32 23  1  0
 31 26  1  0
  3 33  1  0
  4 34  1  0
  4 35  1  0
  8 36  1  0
  8 37  1  0
  9 38  1  0
  9 39  1  0
 10 40  1  0
 10 41  1  0
 11 42  1  0
 11 43  1  0
 12 44  1  1
 14 45  1  0
 15 46  1  0
 21 47  1  0
 22 48  1  0
 24 49  1  0
 25 50  1  0
 27 51  1  0
 28 52  1  0
 29 53  1  0
 30 54  1  0
M  END
>  <smiles>  (86) 
O=C(NCC(=O)N1CCCCC1c1ccc(C(F)(F)F)cc1)c1ccc2ccccc2n1

>  <score_type>  (86) 
oracle

>  <origin>  (86) 
autodockgpu

>  <m_score__min__energy>  (86) 
-8.4100000000000001

>  <m_primary>  (86) 
energy

>  <rmsd>  (86) 
1.4473528349942806

>  <m_score__min__rmsd>  (86) 
1.4473528349942806

>  <meeko>  (86) 
{"free_energy": -8.39, "intermolecular_energy": -10.18, "internal_energy": -1.93, "cluster_size": 16, "cluster_id": 1, "rank_in_cluster": 2}

>  <energy>  (86) 
-8.03

>  <cluster_rmsd>  (86) 
0.81

>  <cluster>  (86) 
3

$$$$

     RDKit          3D

 54 57  0  0  0  0  0  0  0  0999 V2000
  140.9420   71.3630  221.3840 O   0  0  0  0  0  0  0  0  0  0  0  0
  140.3860   71.9100  222.3690 C   0  0  0  0  0  0  0  0  0  0  0  0
  139.8980   73.2440  222.3570 N   0  0  0  0  0  0  0  0  0  0  0  0
  140.0200   74.0700  221.1700 C   0  0  0  0  0  0  0  0  0  0  0  0
  139.9080   75.4900  221.5880 C   0  0  0  0  0  0  0  0  0  0  0  0
  139.4630   75.7290  222.7420 O   0  0  0  0  0  0  0  0  0  0  0  0
  140.3010   76.5520  220.6920 N   0  0  0  0  0  0  0  0  0  0  0  0
  139.9770   76.4240  219.2880 C   0  0  0  0  0  0  0  0  0  0  0  0
  141.1020   76.9590  218.4600 C   0  0  0  0  0  0  0  0  0  0  0  0
  141.5000   78.3580  218.8750 C   0  0  0  0  0  0  0  0  0  0  0  0
  141.8310   78.4680  220.3230 C   0  0  0  0  0  0  0  0  0  0  0  0
  140.9970   77.6820  221.2630 C   0  0  1  0  0  0  0  0  0  0  0  0
  140.0730   78.5410  222.0720 C   0  0  0  0  0  0  0  0  0  0  0  0
  138.7140   78.5930  221.8290 C   0  0  0  0  0  0  0  0  0  0  0  0
  137.8530   79.3850  222.5750 C   0  0  0  0  0  0  0  0  0  0  0  0
  138.3370   80.1540  223.5940 C   0  0  0  0  0  0  0  0  0  0  0  0
  137.3770   80.9830  224.3610 C   0  0  0  0  0  0  0  0  0  0  0  0
  137.3070   82.2500  223.8140 F   0  0  0  0  0  0  0  0  0  0  0  0
  136.1250   80.4200  224.1930 F   0  0  0  0  0  0  0  0  0  0  0  0
  137.6690   81.0370  225.7080 F   0  0  0  0  0  0  0  0  0  0  0  0
  139.6870   80.1150  223.8520 C   0  0  0  0  0  0  0  0  0  0  0  0
  140.5350   79.3320  223.1140 C   0  0  0  0  0  0  0  0  0  0  0  0
  140.2200   71.1410  223.6180 C   0  0  0  0  0  0  0  0  0  0  0  0
  139.5820   69.9030  223.5840 C   0  0  0  0  0  0  0  0  0  0  0  0
  139.4070   69.1560  224.7270 C   0  0  0  0  0  0  0  0  0  0  0  0
  139.8880   69.6730  225.9100 C   0  0  0  0  0  0  0  0  0  0  0  0
  139.7460   68.9740  227.0950 C   0  0  0  0  0  0  0  0  0  0  0  0
  140.2320   69.4990  228.2850 C   0  0  0  0  0  0  0  0  0  0  0  0
  140.8710   70.7270  228.3460 C   0  0  0  0  0  0  0  0  0  0  0  0
  140.9970   71.4030  227.1410 C   0  0  0  0  0  0  0  0  0  0  0  0
  140.5290   70.9120  225.9520 C   0  0  0  0  0  0  0  0  0  0  0  0
  140.6700   71.5980  224.8010 N   0  0  0  0  0  0  0  0  0  0  0  0
  139.4390   73.6360  223.2300 H   0  0  0  0  0  0  0  0  0  0  0  0
  140.9959   73.8968  220.6930 H   0  0  0  0  0  0  0  0  0  0  0  0
  139.2297   73.8203  220.4468 H   0  0  0  0  0  0  0  0  0  0  0  0
  139.8165   75.3632  219.0450 H   0  0  0  0  0  0  0  0  0  0  0  0
  139.0621   76.9951  219.0718 H   0  0  0  0  0  0  0  0  0  0  0  0
  141.9718   76.2950  218.5723 H   0  0  0  0  0  0  0  0  0  0  0  0
  140.7628   76.9999  217.4144 H   0  0  0  0  0  0  0  0  0  0  0  0
  142.3823   78.6584  218.2908 H   0  0  0  0  0  0  0  0  0  0  0  0
  140.6370   79.0133  218.6860 H   0  0  0  0  0  0  0  0  0  0  0  0
  142.8736   78.1418  220.4513 H   0  0  0  0  0  0  0  0  0  0  0  0
  141.6406   79.5201  220.5816 H   0  0  0  0  0  0  0  0  0  0  0  0
  141.7394   77.2366  221.9416 H   0  0  0  0  0  0  0  0  0  0  0  0
  138.2987   77.9833  221.0130 H   0  0  0  0  0  0  0  0  0  0  0  0
  136.7774   79.3933  222.3448 H   0  0  0  0  0  0  0  0  0  0  0  0
  140.0956   80.7266  224.6699 H   0  0  0  0  0  0  0  0  0  0  0  0
  141.6086   79.3304  223.3535 H   0  0  0  0  0  0  0  0  0  0  0  0
  139.2105   69.5145  222.6243 H   0  0  0  0  0  0  0  0  0  0  0  0
  138.9006   68.1800  224.6968 H   0  0  0  0  0  0  0  0  0  0  0  0
  139.2444   67.9950  227.0947 H   0  0  0  0  0  0  0  0  0  0  0  0
  140.1053   68.9199  229.2116 H   0  0  0  0  0  0  0  0  0  0  0  0
  141.2544   71.1400  229.2907 H   0  0  0  0  0  0  0  0  0  0  0  0
  141.4979   72.3823  227.1411 H   0  0  0  0  0  0  0  0  0  0  0  0
  1  2  2  0
  2  3  1  0
  3  4  1  0
  4  5  1  0
  5  6  2  0
  5  7  1  0
  7  8  1  0
  8  9  1  0
  9 10  1  0
 10 11  1  0
 11 12  1  0
 12 13  1  0
 13 14  2  0
 14 15  1  0
 15 16  2  0
 16 17  1  0
 17 18  1  0
 17 19  1  0
 17 20  1  0
 16 21  1  0
 21 22  2  0
  2 23  1  0
 23 24  2  0
 24 25  1  0
 25 26  2  0
 26 27  1  0
 27 28  2  0
 28 29  1  0
 29 30  2  0
 30 31  1  0
 31 32  2  0
 12  7  1  0
 22 13  1  0
 32 23  1  0
 31 26  1  0
  3 33  1  0
  4 34  1  0
  4 35  1  0
  8 36  1  0
  8 37  1  0
  9 38  1  0
  9 39  1  0
 10 40  1  0
 10 41  1  0
 11 42  1  0
 11 43  1  0
 12 44  1  1
 14 45  1  0
 15 46  1  0
 21 47  1  0
 22 48  1  0
 24 49  1  0
 25 50  1  0
 27 51  1  0
 28 52  1  0
 29 53  1  0
 30 54  1  0
M  END
>  <smiles>  (87) 
O=C(NCC(=O)N1CCCCC1c1ccc(C(F)(F)F)cc1)c1ccc2ccccc2n1

>  <score_type>  (87) 
oracle

>  <origin>  (87) 
autodockgpu

>  <m_score__min__energy>  (87) 
-8.4100000000000001

>  <m_primary>  (87) 
energy

>  <rmsd>  (87) 
1.7692143010457384

>  <m_score__min__rmsd>  (87) 
1.7692143010457384

>  <meeko>  (87) 
{"free_energy": -8.28, "intermolecular_energy": -10.07, "internal_energy": -2.04, "cluster_size": 16, "cluster_id": 1, "rank_in_cluster": 4}

>  <energy>  (87) 
-7.97

>  <cluster_rmsd>  (87) 
1.96

>  <cluster>  (87) 
3

$$$$

     RDKit          3D

 54 57  0  0  0  0  0  0  0  0999 V2000
  141.0690   71.5670  221.3970 O   0  0  0  0  0  0  0  0  0  0  0  0
  140.4500   72.0580  222.3750 C   0  0  0  0  0  0  0  0  0  0  0  0
  139.9240   73.3770  222.3910 N   0  0  0  0  0  0  0  0  0  0  0  0
  140.0790   74.2550  221.2460 C   0  0  0  0  0  0  0  0  0  0  0  0
  139.7920   75.6410  221.6900 C   0  0  0  0  0  0  0  0  0  0  0  0
  139.1020   75.7920  222.7340 O   0  0  0  0  0  0  0  0  0  0  0  0
  140.2930   76.7700  220.9420 N   0  0  0  0  0  0  0  0  0  0  0  0
  140.1780   76.7470  219.5000 C   0  0  0  0  0  0  0  0  0  0  0  0
  141.4020   77.3500  218.8870 C   0  0  0  0  0  0  0  0  0  0  0  0
  141.7120   78.7160  219.4590 C   0  0  0  0  0  0  0  0  0  0  0  0
  141.8280   78.7180  220.9430 C   0  0  0  0  0  0  0  0  0  0  0  0
  140.8790   77.8580  221.6910 C   0  0  1  0  0  0  0  0  0  0  0  0
  139.8340   78.6470  222.4170 C   0  0  0  0  0  0  0  0  0  0  0  0
  140.1290   79.4100  223.5320 C   0  0  0  0  0  0  0  0  0  0  0  0
  139.1650   80.1440  224.2090 C   0  0  0  0  0  0  0  0  0  0  0  0
  137.8680   80.1320  223.7830 C   0  0  0  0  0  0  0  0  0  0  0  0
  136.8770   80.9330  224.5410 C   0  0  0  0  0  0  0  0  0  0  0  0
  135.6710   80.2610  224.5930 F   0  0  0  0  0  0  0  0  0  0  0  0
  137.3300   81.0180  225.8440 F   0  0  0  0  0  0  0  0  0  0  0  0
  136.7160   82.2060  224.0360 F   0  0  0  0  0  0  0  0  0  0  0  0
  137.5550   79.3800  222.6760 C   0  0  0  0  0  0  0  0  0  0  0  0
  138.5080   78.6560  222.0090 C   0  0  0  0  0  0  0  0  0  0  0  0
  140.2470   71.2340  223.5830 C   0  0  0  0  0  0  0  0  0  0  0  0
  139.5840   70.0120  223.4780 C   0  0  0  0  0  0  0  0  0  0  0  0
  139.3750   69.2160  224.5810 C   0  0  0  0  0  0  0  0  0  0  0  0
  139.8450   69.6650  225.7950 C   0  0  0  0  0  0  0  0  0  0  0  0
  139.6680   68.9140  226.9430 C   0  0  0  0  0  0  0  0  0  0  0  0
  140.1430   69.3720  228.1650 C   0  0  0  0  0  0  0  0  0  0  0  0
  140.8050   70.5810  228.2950 C   0  0  0  0  0  0  0  0  0  0  0  0
  140.9660   71.3120  227.1260 C   0  0  0  0  0  0  0  0  0  0  0  0
  140.5090   70.8880  225.9070 C   0  0  0  0  0  0  0  0  0  0  0  0
  140.6850   71.6250  224.7940 N   0  0  0  0  0  0  0  0  0  0  0  0
  139.4120   73.7200  223.2550 H   0  0  0  0  0  0  0  0  0  0  0  0
  141.1082   74.1911  220.8630 H   0  0  0  0  0  0  0  0  0  0  0  0
  139.3887   73.9603  220.4418 H   0  0  0  0  0  0  0  0  0  0  0  0
  140.0724   75.7068  219.1581 H   0  0  0  0  0  0  0  0  0  0  0  0
  139.2945   77.3273  219.1957 H   0  0  0  0  0  0  0  0  0  0  0  0
  142.2574   76.6844  219.0750 H   0  0  0  0  0  0  0  0  0  0  0  0
  141.2174   77.4684  217.8091 H   0  0  0  0  0  0  0  0  0  0  0  0
  142.6643   79.0653  219.0335 H   0  0  0  0  0  0  0  0  0  0  0  0
  140.8741   79.3783  219.1958 H   0  0  0  0  0  0  0  0  0  0  0  0
  142.8463   78.3887  221.1972 H   0  0  0  0  0  0  0  0  0  0  0  0
  141.5851   79.7465  221.2484 H   0  0  0  0  0  0  0  0  0  0  0  0
  141.5218   77.3673  222.4366 H   0  0  0  0  0  0  0  0  0  0  0  0
  141.1667   79.4362  223.8960 H   0  0  0  0  0  0  0  0  0  0  0  0
  139.4469   80.7372  225.0914 H   0  0  0  0  0  0  0  0  0  0  0  0
  136.5154   79.3589  222.3172 H   0  0  0  0  0  0  0  0  0  0  0  0
  138.2143   78.0669  221.1277 H   0  0  0  0  0  0  0  0  0  0  0  0
  139.2211   69.6778  222.4948 H   0  0  0  0  0  0  0  0  0  0  0  0
  138.8500   68.2531  224.4957 H   0  0  0  0  0  0  0  0  0  0  0  0
  139.1471   67.9467  226.8876 H   0  0  0  0  0  0  0  0  0  0  0  0
  139.9879   68.7527  229.0607 H   0  0  0  0  0  0  0  0  0  0  0  0
  141.1802   70.9401  229.2647 H   0  0  0  0  0  0  0  0  0  0  0  0
  141.4864   72.2795  227.1817 H   0  0  0  0  0  0  0  0  0  0  0  0
  1  2  2  0
  2  3  1  0
  3  4  1  0
  4  5  1  0
  5  6  2  0
  5  7  1  0
  7  8  1  0
  8  9  1  0
  9 10  1  0
 10 11  1  0
 11 12  1  0
 12 13  1  0
 13 14  2  0
 14 15  1  0
 15 16  2  0
 16 17  1  0
 17 18  1  0
 17 19  1  0
 17 20  1  0
 16 21  1  0
 21 22  2  0
  2 23  1  0
 23 24  2  0
 24 25  1  0
 25 26  2  0
 26 27  1  0
 27 28  2  0
 28 29  1  0
 29 30  2  0
 30 31  1  0
 31 32  2  0
 12  7  1  0
 22 13  1  0
 32 23  1  0
 31 26  1  0
  3 33  1  0
  4 34  1  0
  4 35  1  0
  8 36  1  0
  8 37  1  0
  9 38  1  0
  9 39  1  0
 10 40  1  0
 10 41  1  0
 11 42  1  0
 11 43  1  0
 12 44  1  1
 14 45  1  0
 15 46  1  0
 21 47  1  0
 22 48  1  0
 24 49  1  0
 25 50  1  0
 27 51  1  0
 28 52  1  0
 29 53  1  0
 30 54  1  0
M  END
>  <smiles>  (88) 
O=C(NCC(=O)N1CCCCC1c1ccc(C(F)(F)F)cc1)c1ccc2ccccc2n1

>  <score_type>  (88) 
oracle

>  <origin>  (88) 
autodockgpu

>  <m_score__min__energy>  (88) 
-8.4100000000000001

>  <m_primary>  (88) 
energy

>  <rmsd>  (88) 
2.050406105199202

>  <m_score__min__rmsd>  (88) 
2.050406105199202

>  <meeko>  (88) 
{"free_energy": -8.3, "intermolecular_energy": -10.09, "internal_energy": -2.01, "cluster_size": 3, "cluster_id": 2, "rank_in_cluster": 3}

>  <energy>  (88) 
-8.18

>  <cluster_rmsd>  (88) 
0.0

>  <cluster>  (88) 
4

$$$$

     RDKit          3D

 54 57  0  0  0  0  0  0  0  0999 V2000
  137.4350   76.0220  222.4770 O   0  0  0  0  0  0  0  0  0  0  0  0
  138.6770   76.1950  222.3770 C   0  0  0  0  0  0  0  0  0  0  0  0
  139.5790   75.1860  221.9480 N   0  0  0  0  0  0  0  0  0  0  0  0
  139.1030   73.8630  221.5930 C   0  0  0  0  0  0  0  0  0  0  0  0
  140.2380   72.9160  221.7290 C   0  0  0  0  0  0  0  0  0  0  0  0
  141.3760   73.3970  221.9720 O   0  0  0  0  0  0  0  0  0  0  0  0
  140.0290   71.4950  221.5860 N   0  0  0  0  0  0  0  0  0  0  0  0
  140.8440   70.7710  220.6340 C   0  0  0  0  0  0  0  0  0  0  0  0
  140.0160   69.7290  219.9520 C   0  0  0  0  0  0  0  0  0  0  0  0
  139.2880   68.8430  220.9380 C   0  0  0  0  0  0  0  0  0  0  0  0
  138.4540   69.6070  221.9080 C   0  0  0  0  0  0  0  0  0  0  0  0
  139.0120   70.8840  222.4110 C   0  0  1  0  0  0  0  0  0  0  0  0
  139.4470   70.8000  223.8420 C   0  0  0  0  0  0  0  0  0  0  0  0
  138.8360   69.9550  224.7490 C   0  0  0  0  0  0  0  0  0  0  0  0
  139.2350   69.8720  226.0760 C   0  0  0  0  0  0  0  0  0  0  0  0
  140.2670   70.6420  226.5320 C   0  0  0  0  0  0  0  0  0  0  0  0
  140.6540   70.5160  227.9580 C   0  0  0  0  0  0  0  0  0  0  0  0
  139.5270   70.3370  228.7380 F   0  0  0  0  0  0  0  0  0  0  0  0
  141.3960   69.3560  228.0790 F   0  0  0  0  0  0  0  0  0  0  0  0
  141.4070   71.5810  228.4070 F   0  0  0  0  0  0  0  0  0  0  0  0
  140.8870   71.4880  225.6440 C   0  0  0  0  0  0  0  0  0  0  0  0
  140.4920   71.5680  224.3350 C   0  0  0  0  0  0  0  0  0  0  0  0
  139.2470   77.5130  222.7190 C   0  0  0  0  0  0  0  0  0  0  0  0
  138.3950   78.5720  223.0280 C   0  0  0  0  0  0  0  0  0  0  0  0
  138.8880   79.8150  223.3510 C   0  0  0  0  0  0  0  0  0  0  0  0
  140.2560   79.9800  223.3610 C   0  0  0  0  0  0  0  0  0  0  0  0
  140.8170   81.2040  223.6770 C   0  0  0  0  0  0  0  0  0  0  0  0
  142.1960   81.3660  223.6850 C   0  0  0  0  0  0  0  0  0  0  0  0
  143.0640   80.3300  223.3830 C   0  0  0  0  0  0  0  0  0  0  0  0
  142.4700   79.1150  223.0690 C   0  0  0  0  0  0  0  0  0  0  0  0
  141.1150   78.9240  223.0520 C   0  0  0  0  0  0  0  0  0  0  0  0
  140.5750   77.7300  222.7440 N   0  0  0  0  0  0  0  0  0  0  0  0
  140.6150   75.4090  221.8890 H   0  0  0  0  0  0  0  0  0  0  0  0
  138.2864   73.5665  222.2677 H   0  0  0  0  0  0  0  0  0  0  0  0
  138.7222   73.8578  220.5610 H   0  0  0  0  0  0  0  0  0  0  0  0
  141.2402   71.4717  219.8843 H   0  0  0  0  0  0  0  0  0  0  0  0
  141.6776   70.2857  221.1627 H   0  0  0  0  0  0  0  0  0  0  0  0
  139.2752   70.2289  219.3107 H   0  0  0  0  0  0  0  0  0  0  0  0
  140.6921   69.0932  219.3616 H   0  0  0  0  0  0  0  0  0  0  0  0
  138.6340   68.1592  220.3771 H   0  0  0  0  0  0  0  0  0  0  0  0
  140.0509   68.3023  221.5173 H   0  0  0  0  0  0  0  0  0  0  0  0
  137.4962   69.8334  221.4168 H   0  0  0  0  0  0  0  0  0  0  0  0
  138.3774   68.9588  222.7934 H   0  0  0  0  0  0  0  0  0  0  0  0
  138.1552   71.5710  222.3487 H   0  0  0  0  0  0  0  0  0  0  0  0
  138.0022   69.3245  224.4065 H   0  0  0  0  0  0  0  0  0  0  0  0
  138.7188   69.1844  226.7621 H   0  0  0  0  0  0  0  0  0  0  0  0
  141.7202   72.1158  225.9928 H   0  0  0  0  0  0  0  0  0  0  0  0
  141.0163   72.2583  223.6578 H   0  0  0  0  0  0  0  0  0  0  0  0
  137.3070   78.4106  223.0133 H   0  0  0  0  0  0  0  0  0  0  0  0
  138.2129   80.6491  223.5931 H   0  0  0  0  0  0  0  0  0  0  0  0
  140.1659   82.0555  223.9238 H   0  0  0  0  0  0  0  0  0  0  0  0
  142.6134   82.3512  223.9400 H   0  0  0  0  0  0  0  0  0  0  0  0
  144.1561   80.4616  223.3914 H   0  0  0  0  0  0  0  0  0  0  0  0
  143.1210   78.2635  222.8216 H   0  0  0  0  0  0  0  0  0  0  0  0
  1  2  2  0
  2  3  1  0
  3  4  1  0
  4  5  1  0
  5  6  2  0
  5  7  1  0
  7  8  1  0
  8  9  1  0
  9 10  1  0
 10 11  1  0
 11 12  1  0
 12 13  1  0
 13 14  2  0
 14 15  1  0
 15 16  2  0
 16 17  1  0
 17 18  1  0
 17 19  1  0
 17 20  1  0
 16 21  1  0
 21 22  2  0
  2 23  1  0
 23 24  2  0
 24 25  1  0
 25 26  2  0
 26 27  1  0
 27 28  2  0
 28 29  1  0
 29 30  2  0
 30 31  1  0
 31 32  2  0
 12  7  1  0
 22 13  1  0
 32 23  1  0
 31 26  1  0
  3 33  1  0
  4 34  1  0
  4 35  1  0
  8 36  1  0
  8 37  1  0
  9 38  1  0
  9 39  1  0
 10 40  1  0
 10 41  1  0
 11 42  1  0
 11 43  1  0
 12 44  1  1
 14 45  1  0
 15 46  1  0
 21 47  1  0
 22 48  1  0
 24 49  1  0
 25 50  1  0
 27 51  1  0
 28 52  1  0
 29 53  1  0
 30 54  1  0
M  END
>  <smiles>  (89) 
O=C(NCC(=O)N1CCCCC1c1ccc(C(F)(F)F)cc1)c1ccc2ccccc2n1

>  <score_type>  (89) 
oracle

>  <origin>  (89) 
autodockgpu

>  <m_score__min__energy>  (89) 
-8.4100000000000001

>  <m_primary>  (89) 
energy

>  <rmsd>  (89) 
8.117002777768729

>  <m_score__min__rmsd>  (89) 
8.117002777768729

>  <meeko>  (89) 
{"free_energy": -8.07, "intermolecular_energy": -9.86, "internal_energy": -2.18, "cluster_size": 11, "cluster_id": 4, "rank_in_cluster": 8}

>  <energy>  (89) 
-8.18

>  <cluster_rmsd>  (89) 
0.11

>  <cluster>  (89) 
4

$$$$

     RDKit          3D

 54 57  0  0  0  0  0  0  0  0999 V2000
  140.8900   71.6060  221.3370 O   0  0  0  0  0  0  0  0  0  0  0  0
  140.3750   72.1690  222.3370 C   0  0  0  0  0  0  0  0  0  0  0  0
  139.9090   73.5110  222.3290 N   0  0  0  0  0  0  0  0  0  0  0  0
  140.0050   74.3270  221.1340 C   0  0  0  0  0  0  0  0  0  0  0  0
  140.2330   75.7310  221.5550 C   0  0  0  0  0  0  0  0  0  0  0  0
  139.6960   76.1160  222.6270 O   0  0  0  0  0  0  0  0  0  0  0  0
  141.0470   76.6150  220.7540 N   0  0  0  0  0  0  0  0  0  0  0  0
  141.4840   77.8660  221.3360 C   0  0  0  0  0  0  0  0  0  0  0  0
  141.4460   78.9440  220.2990 C   0  0  0  0  0  0  0  0  0  0  0  0
  142.1930   78.5540  219.0440 C   0  0  0  0  0  0  0  0  0  0  0  0
  141.7280   77.2650  218.4600 C   0  0  0  0  0  0  0  0  0  0  0  0
  141.3750   76.1870  219.4140 C   0  0  1  0  0  0  0  0  0  0  0  0
  142.3780   75.0750  219.4250 C   0  0  0  0  0  0  0  0  0  0  0  0
  143.2990   74.9240  220.4450 C   0  0  0  0  0  0  0  0  0  0  0  0
  144.2300   73.8950  220.4610 C   0  0  0  0  0  0  0  0  0  0  0  0
  144.2630   72.9820  219.4460 C   0  0  0  0  0  0  0  0  0  0  0  0
  145.2770   71.9020  219.5110 C   0  0  0  0  0  0  0  0  0  0  0  0
  145.8280   71.6990  218.2600 F   0  0  0  0  0  0  0  0  0  0  0  0
  146.3050   72.3530  220.3170 F   0  0  0  0  0  0  0  0  0  0  0  0
  144.7790   70.7270  220.0320 F   0  0  0  0  0  0  0  0  0  0  0  0
  143.3540   73.1150  218.4240 C   0  0  0  0  0  0  0  0  0  0  0  0
  142.4360   74.1320  218.4090 C   0  0  0  0  0  0  0  0  0  0  0  0
  140.2380   71.4120  223.5960 C   0  0  0  0  0  0  0  0  0  0  0  0
  139.6210   70.1620  223.5830 C   0  0  0  0  0  0  0  0  0  0  0  0
  139.4730   69.4250  224.7360 C   0  0  0  0  0  0  0  0  0  0  0  0
  139.9580   69.9640  225.9070 C   0  0  0  0  0  0  0  0  0  0  0  0
  139.8420   69.2770  227.1020 C   0  0  0  0  0  0  0  0  0  0  0  0
  140.3320   69.8240  228.2800 C   0  0  0  0  0  0  0  0  0  0  0  0
  140.9490   71.0630  228.3200 C   0  0  0  0  0  0  0  0  0  0  0  0
  141.0490   71.7280  227.1060 C   0  0  0  0  0  0  0  0  0  0  0  0
  140.5770   71.2150  225.9280 C   0  0  0  0  0  0  0  0  0  0  0  0
  140.6930   71.8900  224.7680 N   0  0  0  0  0  0  0  0  0  0  0  0
  139.4840   73.9160  223.2140 H   0  0  0  0  0  0  0  0  0  0  0  0
  140.8450   73.9823  220.5131 H   0  0  0  0  0  0  0  0  0  0  0  0
  139.0801   74.2504  220.5436 H   0  0  0  0  0  0  0  0  0  0  0  0
  140.8168   78.1352  222.1681 H   0  0  0  0  0  0  0  0  0  0  0  0
  142.5128   77.7550  221.7091 H   0  0  0  0  0  0  0  0  0  0  0  0
  140.3970   79.1481  220.0382 H   0  0  0  0  0  0  0  0  0  0  0  0
  141.9340   79.8355  220.7198 H   0  0  0  0  0  0  0  0  0  0  0  0
  142.0550   79.3472  218.2945 H   0  0  0  0  0  0  0  0  0  0  0  0
  143.2500   78.4250  219.3199 H   0  0  0  0  0  0  0  0  0  0  0  0
  140.8355   77.4775  217.8531 H   0  0  0  0  0  0  0  0  0  0  0  0
  142.5889   76.8783  217.8949 H   0  0  0  0  0  0  0  0  0  0  0  0
  140.4295   75.7967  219.0093 H   0  0  0  0  0  0  0  0  0  0  0  0
  143.2936   75.6463  221.2746 H   0  0  0  0  0  0  0  0  0  0  0  0
  144.9438   73.8145  221.2941 H   0  0  0  0  0  0  0  0  0  0  0  0
  143.3636   72.3879  217.5986 H   0  0  0  0  0  0  0  0  0  0  0  0
  141.7274   74.2026  217.5706 H   0  0  0  0  0  0  0  0  0  0  0  0
  139.2449   69.7565  222.6322 H   0  0  0  0  0  0  0  0  0  0  0  0
  138.9843   68.4396  224.7227 H   0  0  0  0  0  0  0  0  0  0  0  0
  139.3577   68.2895  227.1190 H   0  0  0  0  0  0  0  0  0  0  0  0
  140.2265   69.2532  229.2144 H   0  0  0  0  0  0  0  0  0  0  0  0
  141.3357   71.4933  229.2556 H   0  0  0  0  0  0  0  0  0  0  0  0
  141.5315   72.7164  227.0896 H   0  0  0  0  0  0  0  0  0  0  0  0
  1  2  2  0
  2  3  1  0
  3  4  1  0
  4  5  1  0
  5  6  2  0
  5  7  1  0
  7  8  1  0
  8  9  1  0
  9 10  1  0
 10 11  1  0
 11 12  1  0
 12 13  1  0
 13 14  2  0
 14 15  1  0
 15 16  2  0
 16 17  1  0
 17 18  1  0
 17 19  1  0
 17 20  1  0
 16 21  1  0
 21 22  2  0
  2 23  1  0
 23 24  2  0
 24 25  1  0
 25 26  2  0
 26 27  1  0
 27 28  2  0
 28 29  1  0
 29 30  2  0
 30 31  1  0
 31 32  2  0
 12  7  1  0
 22 13  1  0
 32 23  1  0
 31 26  1  0
  3 33  1  0
  4 34  1  0
  4 35  1  0
  8 36  1  0
  8 37  1  0
  9 38  1  0
  9 39  1  0
 10 40  1  0
 10 41  1  0
 11 42  1  0
 11 43  1  0
 12 44  1  6
 14 45  1  0
 15 46  1  0
 21 47  1  0
 22 48  1  0
 24 49  1  0
 25 50  1  0
 27 51  1  0
 28 52  1  0
 29 53  1  0
 30 54  1  0
M  END
>  <smiles>  (90) 
O=C(NCC(=O)N1CCCCC1c1ccc(C(F)(F)F)cc1)c1ccc2ccccc2n1

>  <score_type>  (90) 
oracle

>  <origin>  (90) 
autodockgpu

>  <m_score__min__energy>  (90) 
-8.4100000000000001

>  <m_primary>  (90) 
energy

>  <rmsd>  (90) 
2.380628590666446

>  <m_score__min__rmsd>  (90) 
2.380628590666446

>  <meeko>  (90) 
{"free_energy": -8.15, "intermolecular_energy": -9.94, "internal_energy": -2.22, "cluster_size": 18, "cluster_id": 3, "rank_in_cluster": 11}

>  <energy>  (90) 
-8.16

>  <cluster_rmsd>  (90) 
0.15

>  <cluster>  (90) 
4

$$$$

     RDKit          3D

 54 57  0  0  0  0  0  0  0  0999 V2000
  137.2960   76.1760  222.4080 O   0  0  0  0  0  0  0  0  0  0  0  0
  138.5500   76.2720  222.3820 C   0  0  0  0  0  0  0  0  0  0  0  0
  139.4150   75.1960  222.0510 N   0  0  0  0  0  0  0  0  0  0  0  0
  138.8830   73.8890  221.7150 C   0  0  0  0  0  0  0  0  0  0  0  0
  139.9510   72.8860  221.9500 C   0  0  0  0  0  0  0  0  0  0  0  0
  141.0730   73.3050  222.3440 O   0  0  0  0  0  0  0  0  0  0  0  0
  139.7010   71.4810  221.7310 N   0  0  0  0  0  0  0  0  0  0  0  0
  140.4570   70.7980  220.7040 C   0  0  0  0  0  0  0  0  0  0  0  0
  139.5760   69.8190  219.9960 C   0  0  0  0  0  0  0  0  0  0  0  0
  138.8650   68.8920  220.9570 C   0  0  0  0  0  0  0  0  0  0  0  0
  138.0910   69.6140  222.0040 C   0  0  0  0  0  0  0  0  0  0  0  0
  138.7020   70.8450  222.5600 C   0  0  1  0  0  0  0  0  0  0  0  0
  139.1920   70.6640  223.9630 C   0  0  0  0  0  0  0  0  0  0  0  0
  138.7320   69.6470  224.7790 C   0  0  0  0  0  0  0  0  0  0  0  0
  139.1830   69.4740  226.0800 C   0  0  0  0  0  0  0  0  0  0  0  0
  140.1150   70.3240  226.6030 C   0  0  0  0  0  0  0  0  0  0  0  0
  140.5640   70.0950  227.9980 C   0  0  0  0  0  0  0  0  0  0  0  0
  141.4110   71.1140  228.3920 F   0  0  0  0  0  0  0  0  0  0  0  0
  139.4470   70.1850  228.8070 F   0  0  0  0  0  0  0  0  0  0  0  0
  141.1520   68.8610  228.1780 F   0  0  0  0  0  0  0  0  0  0  0  0
  140.5860   71.3400  225.8070 C   0  0  0  0  0  0  0  0  0  0  0  0
  140.1390   71.5100  224.5230 C   0  0  0  0  0  0  0  0  0  0  0  0
  139.1760   77.5680  222.7110 C   0  0  0  0  0  0  0  0  0  0  0  0
  138.3700   78.6620  223.0210 C   0  0  0  0  0  0  0  0  0  0  0  0
  138.9160   79.8870  223.3320 C   0  0  0  0  0  0  0  0  0  0  0  0
  140.2890   79.9960  223.3290 C   0  0  0  0  0  0  0  0  0  0  0  0
  140.9030   81.1980  223.6330 C   0  0  0  0  0  0  0  0  0  0  0  0
  142.2870   81.3040  223.6280 C   0  0  0  0  0  0  0  0  0  0  0  0
  143.1090   80.2320  223.3240 C   0  0  0  0  0  0  0  0  0  0  0  0
  142.4650   79.0400  223.0230 C   0  0  0  0  0  0  0  0  0  0  0  0
  141.1020   78.9050  223.0200 C   0  0  0  0  0  0  0  0  0  0  0  0
  140.5120   77.7310  222.7230 N   0  0  0  0  0  0  0  0  0  0  0  0
  140.4640   75.3560  222.0510 H   0  0  0  0  0  0  0  0  0  0  0  0
  138.0137   73.6649  222.3508 H   0  0  0  0  0  0  0  0  0  0  0  0
  138.5611   73.8658  220.6634 H   0  0  0  0  0  0  0  0  0  0  0  0
  140.8402   71.5339  219.9817 H   0  0  0  0  0  0  0  0  0  0  0  0
  141.2985   70.2619  221.1671 H   0  0  0  0  0  0  0  0  0  0  0  0
  138.8234   70.3740  219.4167 H   0  0  0  0  0  0  0  0  0  0  0  0
  140.2114   69.2045  219.3413 H   0  0  0  0  0  0  0  0  0  0  0  0
  138.1716   68.2590  220.3838 H   0  0  0  0  0  0  0  0  0  0  0  0
  139.6364   68.2997  221.4709 H   0  0  0  0  0  0  0  0  0  0  0  0
  137.1207   69.8926  221.5672 H   0  0  0  0  0  0  0  0  0  0  0  0
  138.0327   68.9147  222.8511 H   0  0  0  0  0  0  0  0  0  0  0  0
  137.8612   71.5541  222.5757 H   0  0  0  0  0  0  0  0  0  0  0  0
  137.9803   68.9488  224.3821 H   0  0  0  0  0  0  0  0  0  0  0  0
  138.7884   68.6495  226.6919 H   0  0  0  0  0  0  0  0  0  0  0  0
  141.3393   72.0330  226.2099 H   0  0  0  0  0  0  0  0  0  0  0  0
  140.5410   72.3381  223.9207 H   0  0  0  0  0  0  0  0  0  0  0  0
  137.2763   78.5444  223.0171 H   0  0  0  0  0  0  0  0  0  0  0  0
  138.2775   80.7492  223.5746 H   0  0  0  0  0  0  0  0  0  0  0  0
  140.2894   82.0767  223.8806 H   0  0  0  0  0  0  0  0  0  0  0  0
  142.7465   82.2727  223.8740 H   0  0  0  0  0  0  0  0  0  0  0  0
  144.2055   80.3198  223.3212 H   0  0  0  0  0  0  0  0  0  0  0  0
  143.0787   78.1615  222.7749 H   0  0  0  0  0  0  0  0  0  0  0  0
  1  2  2  0
  2  3  1  0
  3  4  1  0
  4  5  1  0
  5  6  2  0
  5  7  1  0
  7  8  1  0
  8  9  1  0
  9 10  1  0
 10 11  1  0
 11 12  1  0
 12 13  1  0
 13 14  2  0
 14 15  1  0
 15 16  2  0
 16 17  1  0
 17 18  1  0
 17 19  1  0
 17 20  1  0
 16 21  1  0
 21 22  2  0
  2 23  1  0
 23 24  2  0
 24 25  1  0
 25 26  2  0
 26 27  1  0
 27 28  2  0
 28 29  1  0
 29 30  2  0
 30 31  1  0
 31 32  2  0
 12  7  1  0
 22 13  1  0
 32 23  1  0
 31 26  1  0
  3 33  1  0
  4 34  1  0
  4 35  1  0
  8 36  1  0
  8 37  1  0
  9 38  1  0
  9 39  1  0
 10 40  1  0
 10 41  1  0
 11 42  1  0
 11 43  1  0
 12 44  1  1
 14 45  1  0
 15 46  1  0
 21 47  1  0
 22 48  1  0
 24 49  1  0
 25 50  1  0
 27 51  1  0
 28 52  1  0
 29 53  1  0
 30 54  1  0
M  END
>  <smiles>  (91) 
O=C(NCC(=O)N1CCCCC1c1ccc(C(F)(F)F)cc1)c1ccc2ccccc2n1

>  <score_type>  (91) 
oracle

>  <origin>  (91) 
autodockgpu

>  <m_score__min__energy>  (91) 
-8.4100000000000001

>  <m_primary>  (91) 
energy

>  <rmsd>  (91) 
8.151711176631405

>  <m_score__min__rmsd>  (91) 
8.151711176631405

>  <meeko>  (91) 
{"free_energy": -8.15, "intermolecular_energy": -9.94, "internal_energy": -2.11, "cluster_size": 11, "cluster_id": 4, "rank_in_cluster": 4}

>  <energy>  (91) 
-8.15

>  <cluster_rmsd>  (91) 
0.14

>  <cluster>  (91) 
4

$$$$

     RDKit          3D

 54 57  0  0  0  0  0  0  0  0999 V2000
  140.6210   71.1680  221.3230 O   0  0  0  0  0  0  0  0  0  0  0  0
  140.2430   71.7640  222.3640 C   0  0  0  0  0  0  0  0  0  0  0  0
  139.8850   73.1380  222.3990 N   0  0  0  0  0  0  0  0  0  0  0  0
  139.9380   73.9520  221.1990 C   0  0  0  0  0  0  0  0  0  0  0  0
  139.8430   75.3750  221.6080 C   0  0  0  0  0  0  0  0  0  0  0  0
  139.3200   75.6310  222.7250 O   0  0  0  0  0  0  0  0  0  0  0  0
  140.3360   76.4210  220.7440 N   0  0  0  0  0  0  0  0  0  0  0  0
  140.0780   76.3220  219.3240 C   0  0  0  0  0  0  0  0  0  0  0  0
  141.2700   76.8030  218.5600 C   0  0  0  0  0  0  0  0  0  0  0  0
  141.7200   78.1760  219.0100 C   0  0  0  0  0  0  0  0  0  0  0  0
  141.9810   78.2570  220.4740 C   0  0  0  0  0  0  0  0  0  0  0  0
  141.0600   77.5090  221.3620 C   0  0  1  0  0  0  0  0  0  0  0  0
  140.1430   78.4090  222.1310 C   0  0  0  0  0  0  0  0  0  0  0  0
  138.7800   78.4400  221.9040 C   0  0  0  0  0  0  0  0  0  0  0  0
  137.9240   79.2710  222.6140 C   0  0  0  0  0  0  0  0  0  0  0  0
  138.4180   80.1010  223.5800 C   0  0  0  0  0  0  0  0  0  0  0  0
  137.4630   80.9680  224.3110 C   0  0  0  0  0  0  0  0  0  0  0  0
  137.4700   82.2380  223.7660 F   0  0  0  0  0  0  0  0  0  0  0  0
  136.1970   80.4600  224.0900 F   0  0  0  0  0  0  0  0  0  0  0  0
  137.7020   81.0070  225.6680 F   0  0  0  0  0  0  0  0  0  0  0  0
  139.7710   80.0820  223.8220 C   0  0  0  0  0  0  0  0  0  0  0  0
  140.6140   79.2620  223.1190 C   0  0  0  0  0  0  0  0  0  0  0  0
  140.1600   71.0100  223.6310 C   0  0  0  0  0  0  0  0  0  0  0  0
  139.5880   69.7400  223.6390 C   0  0  0  0  0  0  0  0  0  0  0  0
  139.4910   69.0060  224.7990 C   0  0  0  0  0  0  0  0  0  0  0  0
  139.9810   69.5700  225.9570 C   0  0  0  0  0  0  0  0  0  0  0  0
  139.9160   68.8870  227.1580 C   0  0  0  0  0  0  0  0  0  0  0  0
  140.4100   69.4590  228.3220 C   0  0  0  0  0  0  0  0  0  0  0  0
  140.9840   70.7190  228.3400 C   0  0  0  0  0  0  0  0  0  0  0  0
  141.0350   71.3790  227.1210 C   0  0  0  0  0  0  0  0  0  0  0  0
  140.5550   70.8420  225.9560 C   0  0  0  0  0  0  0  0  0  0  0  0
  140.6230   71.5130  224.7900 N   0  0  0  0  0  0  0  0  0  0  0  0
  139.5750   73.5690  223.3180 H   0  0  0  0  0  0  0  0  0  0  0  0
  140.8870   73.7776  220.6708 H   0  0  0  0  0  0  0  0  0  0  0  0
  139.1102   73.6918  220.5229 H   0  0  0  0  0  0  0  0  0  0  0  0
  139.8745   75.2733  219.0617 H   0  0  0  0  0  0  0  0  0  0  0  0
  139.2067   76.9428  219.0681 H   0  0  0  0  0  0  0  0  0  0  0  0
  142.0966   76.0927  218.7087 H   0  0  0  0  0  0  0  0  0  0  0  0
  140.9870   76.8707  217.4992 H   0  0  0  0  0  0  0  0  0  0  0  0
  142.6461   78.4332  218.4750 H   0  0  0  0  0  0  0  0  0  0  0  0
  140.9038   78.8780  218.7840 H   0  0  0  0  0  0  0  0  0  0  0  0
  142.9972   77.8753  220.6519 H   0  0  0  0  0  0  0  0  0  0  0  0
  141.8325   79.3156  220.7334 H   0  0  0  0  0  0  0  0  0  0  0  0
  141.7416   77.0195  222.0732 H   0  0  0  0  0  0  0  0  0  0  0  0
  138.3573   77.7811  221.1313 H   0  0  0  0  0  0  0  0  0  0  0  0
  136.8454   79.2611  222.3982 H   0  0  0  0  0  0  0  0  0  0  0  0
  140.1868   80.7408  224.5986 H   0  0  0  0  0  0  0  0  0  0  0  0
  141.6907   79.2803  223.3433 H   0  0  0  0  0  0  0  0  0  0  0  0
  139.2060   69.3151  222.6990 H   0  0  0  0  0  0  0  0  0  0  0  0
  139.0379   68.0036  224.8018 H   0  0  0  0  0  0  0  0  0  0  0  0
  139.4692   67.8824  227.1908 H   0  0  0  0  0  0  0  0  0  0  0  0
  140.3433   68.8921  229.2623 H   0  0  0  0  0  0  0  0  0  0  0  0
  141.3755   71.1690  229.2643 H   0  0  0  0  0  0  0  0  0  0  0  0
  141.4830   72.3831  227.0884 H   0  0  0  0  0  0  0  0  0  0  0  0
  1  2  2  0
  2  3  1  0
  3  4  1  0
  4  5  1  0
  5  6  2  0
  5  7  1  0
  7  8  1  0
  8  9  1  0
  9 10  1  0
 10 11  1  0
 11 12  1  0
 12 13  1  0
 13 14  2  0
 14 15  1  0
 15 16  2  0
 16 17  1  0
 17 18  1  0
 17 19  1  0
 17 20  1  0
 16 21  1  0
 21 22  2  0
  2 23  1  0
 23 24  2  0
 24 25  1  0
 25 26  2  0
 26 27  1  0
 27 28  2  0
 28 29  1  0
 29 30  2  0
 30 31  1  0
 31 32  2  0
 12  7  1  0
 22 13  1  0
 32 23  1  0
 31 26  1  0
  3 33  1  0
  4 34  1  0
  4 35  1  0
  8 36  1  0
  8 37  1  0
  9 38  1  0
  9 39  1  0
 10 40  1  0
 10 41  1  0
 11 42  1  0
 11 43  1  0
 12 44  1  1
 14 45  1  0
 15 46  1  0
 21 47  1  0
 22 48  1  0
 24 49  1  0
 25 50  1  0
 27 51  1  0
 28 52  1  0
 29 53  1  0
 30 54  1  0
M  END
>  <smiles>  (92) 
O=C(NCC(=O)N1CCCCC1c1ccc(C(F)(F)F)cc1)c1ccc2ccccc2n1

>  <score_type>  (92) 
oracle

>  <origin>  (92) 
autodockgpu

>  <m_score__min__energy>  (92) 
-8.4100000000000001

>  <m_primary>  (92) 
energy

>  <rmsd>  (92) 
1.7478728304690887

>  <m_score__min__rmsd>  (92) 
1.7478728304690887

>  <meeko>  (92) 
{"free_energy": -8.29, "intermolecular_energy": -10.08, "internal_energy": -2.05, "cluster_size": 16, "cluster_id": 1, "rank_in_cluster": 3}

>  <energy>  (92) 
-8.11

>  <cluster_rmsd>  (92) 
0.32

>  <cluster>  (92) 
4

$$$$

     RDKit          3D

 54 57  0  0  0  0  0  0  0  0999 V2000
  137.3220   76.0540  222.5310 O   0  0  0  0  0  0  0  0  0  0  0  0
  138.5640   76.2000  222.3960 C   0  0  0  0  0  0  0  0  0  0  0  0
  139.4320   75.1720  221.9420 N   0  0  0  0  0  0  0  0  0  0  0  0
  138.9170   73.8600  221.6000 C   0  0  0  0  0  0  0  0  0  0  0  0
  139.9720   72.8610  221.9030 C   0  0  0  0  0  0  0  0  0  0  0  0
  141.0780   73.2880  222.3300 O   0  0  0  0  0  0  0  0  0  0  0  0
  139.7260   71.4520  221.7110 N   0  0  0  0  0  0  0  0  0  0  0  0
  140.4740   70.7540  220.6880 C   0  0  0  0  0  0  0  0  0  0  0  0
  139.5900   69.7590  220.0070 C   0  0  0  0  0  0  0  0  0  0  0  0
  138.8950   68.8450  220.9920 C   0  0  0  0  0  0  0  0  0  0  0  0
  138.1290   69.5820  222.0360 C   0  0  0  0  0  0  0  0  0  0  0  0
  138.7410   70.8250  222.5630 C   0  0  1  0  0  0  0  0  0  0  0  0
  139.2470   70.6710  223.9640 C   0  0  0  0  0  0  0  0  0  0  0  0
  138.7350   69.7260  224.8320 C   0  0  0  0  0  0  0  0  0  0  0  0
  139.2010   69.5780  226.1320 C   0  0  0  0  0  0  0  0  0  0  0  0
  140.2020   70.3810  226.5980 C   0  0  0  0  0  0  0  0  0  0  0  0
  140.6640   70.1820  227.9930 C   0  0  0  0  0  0  0  0  0  0  0  0
  139.5800   69.9500  228.8180 F   0  0  0  0  0  0  0  0  0  0  0  0
  141.4200   69.0250  228.0130 F   0  0  0  0  0  0  0  0  0  0  0  0
  141.4300   71.2290  228.4600 F   0  0  0  0  0  0  0  0  0  0  0  0
  140.7250   71.3260  225.7480 C   0  0  0  0  0  0  0  0  0  0  0  0
  140.2630   71.4710  224.4660 C   0  0  0  0  0  0  0  0  0  0  0  0
  139.1720   77.5050  222.7220 C   0  0  0  0  0  0  0  0  0  0  0  0
  138.3510   78.5900  223.0230 C   0  0  0  0  0  0  0  0  0  0  0  0
  138.8800   79.8230  223.3320 C   0  0  0  0  0  0  0  0  0  0  0  0
  140.2510   79.9500  223.3350 C   0  0  0  0  0  0  0  0  0  0  0  0
  140.8480   81.1610  223.6360 C   0  0  0  0  0  0  0  0  0  0  0  0
  142.2310   81.2840  223.6370 C   0  0  0  0  0  0  0  0  0  0  0  0
  143.0680   80.2210  223.3420 C   0  0  0  0  0  0  0  0  0  0  0  0
  142.4400   79.0200  223.0440 C   0  0  0  0  0  0  0  0  0  0  0  0
  141.0800   78.8670  223.0340 C   0  0  0  0  0  0  0  0  0  0  0  0
  140.5050   77.6850  222.7400 N   0  0  0  0  0  0  0  0  0  0  0  0
  140.4710   75.3730  221.8540 H   0  0  0  0  0  0  0  0  0  0  0  0
  138.0172   73.6452  222.1952 H   0  0  0  0  0  0  0  0  0  0  0  0
  138.6477   73.8207  220.5342 H   0  0  0  0  0  0  0  0  0  0  0  0
  140.8461   71.4786  219.9488 H   0  0  0  0  0  0  0  0  0  0  0  0
  141.3227   70.2297  221.1515 H   0  0  0  0  0  0  0  0  0  0  0  0
  138.8279   70.3004  219.4273 H   0  0  0  0  0  0  0  0  0  0  0  0
  140.2208   69.1366  219.3553 H   0  0  0  0  0  0  0  0  0  0  0  0
  138.1983   68.1988  220.4379 H   0  0  0  0  0  0  0  0  0  0  0  0
  139.6752   68.2652  221.5069 H   0  0  0  0  0  0  0  0  0  0  0  0
  137.1524   69.8487  221.6057 H   0  0  0  0  0  0  0  0  0  0  0  0
  138.0833   68.8974  222.8958 H   0  0  0  0  0  0  0  0  0  0  0  0
  137.8975   71.5309  222.5761 H   0  0  0  0  0  0  0  0  0  0  0  0
  137.9282   69.0662  224.4804 H   0  0  0  0  0  0  0  0  0  0  0  0
  138.7623   68.8117  226.7880 H   0  0  0  0  0  0  0  0  0  0  0  0
  141.5332   71.9812  226.1051 H   0  0  0  0  0  0  0  0  0  0  0  0
  140.7089   72.2408  223.8190 H   0  0  0  0  0  0  0  0  0  0  0  0
  137.2589   78.4588  223.0135 H   0  0  0  0  0  0  0  0  0  0  0  0
  138.2293   80.6778  223.5685 H   0  0  0  0  0  0  0  0  0  0  0  0
  140.2223   82.0332  223.8764 H   0  0  0  0  0  0  0  0  0  0  0  0
  142.6772   82.2595  223.8805 H   0  0  0  0  0  0  0  0  0  0  0  0
  144.1633   80.3224  223.3438 H   0  0  0  0  0  0  0  0  0  0  0  0
  143.0661   78.1480  222.8040 H   0  0  0  0  0  0  0  0  0  0  0  0
  1  2  2  0
  2  3  1  0
  3  4  1  0
  4  5  1  0
  5  6  2  0
  5  7  1  0
  7  8  1  0
  8  9  1  0
  9 10  1  0
 10 11  1  0
 11 12  1  0
 12 13  1  0
 13 14  2  0
 14 15  1  0
 15 16  2  0
 16 17  1  0
 17 18  1  0
 17 19  1  0
 17 20  1  0
 16 21  1  0
 21 22  2  0
  2 23  1  0
 23 24  2  0
 24 25  1  0
 25 26  2  0
 26 27  1  0
 27 28  2  0
 28 29  1  0
 29 30  2  0
 30 31  1  0
 31 32  2  0
 12  7  1  0
 22 13  1  0
 32 23  1  0
 31 26  1  0
  3 33  1  0
  4 34  1  0
  4 35  1  0
  8 36  1  0
  8 37  1  0
  9 38  1  0
  9 39  1  0
 10 40  1  0
 10 41  1  0
 11 42  1  0
 11 43  1  0
 12 44  1  1
 14 45  1  0
 15 46  1  0
 21 47  1  0
 22 48  1  0
 24 49  1  0
 25 50  1  0
 27 51  1  0
 28 52  1  0
 29 53  1  0
 30 54  1  0
M  END
>  <smiles>  (93) 
O=C(NCC(=O)N1CCCCC1c1ccc(C(F)(F)F)cc1)c1ccc2ccccc2n1

>  <score_type>  (93) 
oracle

>  <origin>  (93) 
autodockgpu

>  <m_score__min__energy>  (93) 
-8.4100000000000001

>  <m_primary>  (93) 
energy

>  <rmsd>  (93) 
8.132790860956659

>  <m_score__min__rmsd>  (93) 
8.132790860956659

>  <meeko>  (93) 
{"free_energy": -8.16, "intermolecular_energy": -9.95, "internal_energy": -2.07, "cluster_size": 11, "cluster_id": 4, "rank_in_cluster": 3}

>  <energy>  (93) 
-8.09

>  <cluster_rmsd>  (93) 
0.16

>  <cluster>  (93) 
4

$$$$

     RDKit          3D

 54 57  0  0  0  0  0  0  0  0999 V2000
  140.2110   70.9720  221.2990 O   0  0  0  0  0  0  0  0  0  0  0  0
  140.0010   71.6040  222.3660 C   0  0  0  0  0  0  0  0  0  0  0  0
  139.7690   73.0050  222.4170 N   0  0  0  0  0  0  0  0  0  0  0  0
  139.7620   73.8030  221.2060 C   0  0  0  0  0  0  0  0  0  0  0  0
  139.8080   75.2330  221.6000 C   0  0  0  0  0  0  0  0  0  0  0  0
  139.3300   75.5470  222.7230 O   0  0  0  0  0  0  0  0  0  0  0  0
  140.3840   76.2200  220.7180 N   0  0  0  0  0  0  0  0  0  0  0  0
  140.1600   76.0870  219.2950 C   0  0  0  0  0  0  0  0  0  0  0  0
  141.3980   76.4740  218.5510 C   0  0  0  0  0  0  0  0  0  0  0  0
  141.9130   77.8340  218.9690 C   0  0  0  0  0  0  0  0  0  0  0  0
  142.1390   77.9500  220.4360 C   0  0  0  0  0  0  0  0  0  0  0  0
  141.1520   77.2850  221.3210 C   0  0  1  0  0  0  0  0  0  0  0  0
  140.2670   78.2610  222.0340 C   0  0  0  0  0  0  0  0  0  0  0  0
  138.9750   78.5230  221.6190 C   0  0  0  0  0  0  0  0  0  0  0  0
  138.1500   79.4250  222.2760 C   0  0  0  0  0  0  0  0  0  0  0  0
  138.6030   80.0950  223.3770 C   0  0  0  0  0  0  0  0  0  0  0  0
  137.6830   81.0480  224.0420 C   0  0  0  0  0  0  0  0  0  0  0  0
  136.4090   80.5130  224.0940 F   0  0  0  0  0  0  0  0  0  0  0  0
  138.1030   81.1740  225.3530 F   0  0  0  0  0  0  0  0  0  0  0  0
  137.6760   82.2930  223.4500 F   0  0  0  0  0  0  0  0  0  0  0  0
  139.8860   79.8470  223.8040 C   0  0  0  0  0  0  0  0  0  0  0  0
  140.6990   78.9560  223.1540 C   0  0  0  0  0  0  0  0  0  0  0  0
  139.9900   70.8690  223.6460 C   0  0  0  0  0  0  0  0  0  0  0  0
  139.4560   69.5830  223.6950 C   0  0  0  0  0  0  0  0  0  0  0  0
  139.4270   68.8660  224.8700 C   0  0  0  0  0  0  0  0  0  0  0  0
  139.9460   69.4610  225.9980 C   0  0  0  0  0  0  0  0  0  0  0  0
  139.9490   68.7960  227.2100 C   0  0  0  0  0  0  0  0  0  0  0  0
  140.4730   69.4000  228.3450 C   0  0  0  0  0  0  0  0  0  0  0  0
  141.0100   70.6760  228.3220 C   0  0  0  0  0  0  0  0  0  0  0  0
  140.9930   71.3180  227.0910 C   0  0  0  0  0  0  0  0  0  0  0  0
  140.4830   70.7490  225.9550 C   0  0  0  0  0  0  0  0  0  0  0  0
  140.4840   71.4030  224.7780 N   0  0  0  0  0  0  0  0  0  0  0  0
  139.5980   73.4670  223.3570 H   0  0  0  0  0  0  0  0  0  0  0  0
  140.6403   73.5566  220.5912 H   0  0  0  0  0  0  0  0  0  0  0  0
  138.8557   73.5973  220.6176 H   0  0  0  0  0  0  0  0  0  0  0  0
  139.9044   75.0430  219.0612 H   0  0  0  0  0  0  0  0  0  0  0  0
  139.3329   76.7466  218.9935 H   0  0  0  0  0  0  0  0  0  0  0  0
  142.1784   75.7239  218.7469 H   0  0  0  0  0  0  0  0  0  0  0  0
  141.1485   76.5211  217.4807 H   0  0  0  0  0  0  0  0  0  0  0  0
  142.8661   78.0208  218.4526 H   0  0  0  0  0  0  0  0  0  0  0  0
  141.1442   78.5723  218.6973 H   0  0  0  0  0  0  0  0  0  0  0  0
  143.1265   77.5178  220.6554 H   0  0  0  0  0  0  0  0  0  0  0  0
  142.0451   79.0235  220.6569 H   0  0  0  0  0  0  0  0  0  0  0  0
  141.7851   76.7821  222.0668 H   0  0  0  0  0  0  0  0  0  0  0  0
  138.5860   77.9968  220.7348 H   0  0  0  0  0  0  0  0  0  0  0  0
  137.1280   79.6010  221.9091 H   0  0  0  0  0  0  0  0  0  0  0  0
  140.2691   80.3766  224.6887 H   0  0  0  0  0  0  0  0  0  0  0  0
  141.7191   78.7877  223.5295 H   0  0  0  0  0  0  0  0  0  0  0  0
  139.0499   69.1321  222.7776 H   0  0  0  0  0  0  0  0  0  0  0  0
  139.0033   67.8515  224.9064 H   0  0  0  0  0  0  0  0  0  0  0  0
  139.5328   67.7799  227.2757 H   0  0  0  0  0  0  0  0  0  0  0  0
  140.4611   68.8458  229.2951 H   0  0  0  0  0  0  0  0  0  0  0  0
  141.4244   71.1516  229.2231 H   0  0  0  0  0  0  0  0  0  0  0  0
  141.4098   72.3338  227.0252 H   0  0  0  0  0  0  0  0  0  0  0  0
  1  2  2  0
  2  3  1  0
  3  4  1  0
  4  5  1  0
  5  6  2  0
  5  7  1  0
  7  8  1  0
  8  9  1  0
  9 10  1  0
 10 11  1  0
 11 12  1  0
 12 13  1  0
 13 14  2  0
 14 15  1  0
 15 16  2  0
 16 17  1  0
 17 18  1  0
 17 19  1  0
 17 20  1  0
 16 21  1  0
 21 22  2  0
  2 23  1  0
 23 24  2  0
 24 25  1  0
 25 26  2  0
 26 27  1  0
 27 28  2  0
 28 29  1  0
 29 30  2  0
 30 31  1  0
 31 32  2  0
 12  7  1  0
 22 13  1  0
 32 23  1  0
 31 26  1  0
  3 33  1  0
  4 34  1  0
  4 35  1  0
  8 36  1  0
  8 37  1  0
  9 38  1  0
  9 39  1  0
 10 40  1  0
 10 41  1  0
 11 42  1  0
 11 43  1  0
 12 44  1  1
 14 45  1  0
 15 46  1  0
 21 47  1  0
 22 48  1  0
 24 49  1  0
 25 50  1  0
 27 51  1  0
 28 52  1  0
 29 53  1  0
 30 54  1  0
M  END
>  <smiles>  (94) 
O=C(NCC(=O)N1CCCCC1c1ccc(C(F)(F)F)cc1)c1ccc2ccccc2n1

>  <score_type>  (94) 
oracle

>  <origin>  (94) 
autodockgpu

>  <m_score__min__energy>  (94) 
-8.4100000000000001

>  <m_primary>  (94) 
energy

>  <rmsd>  (94) 
1.643703287167159

>  <m_score__min__rmsd>  (94) 
1.643703287167159

>  <meeko>  (94) 
{"free_energy": -8.2, "intermolecular_energy": -9.99, "internal_energy": -2.12, "cluster_size": 16, "cluster_id": 1, "rank_in_cluster": 9}

>  <energy>  (94) 
-8.08

>  <cluster_rmsd>  (94) 
0.16

>  <cluster>  (94) 
4

$$$$

     RDKit          3D

 54 57  0  0  0  0  0  0  0  0999 V2000
  139.9320   71.2950  221.2670 O   0  0  0  0  0  0  0  0  0  0  0  0
  139.8090   71.9320  222.3450 C   0  0  0  0  0  0  0  0  0  0  0  0
  139.5780   73.3320  222.4100 N   0  0  0  0  0  0  0  0  0  0  0  0
  139.4690   74.1250  221.2000 C   0  0  0  0  0  0  0  0  0  0  0  0
  139.6960   75.5460  221.5630 C   0  0  0  0  0  0  0  0  0  0  0  0
  139.3680   75.9150  222.7220 O   0  0  0  0  0  0  0  0  0  0  0  0
  140.2740   76.4640  220.6100 N   0  0  0  0  0  0  0  0  0  0  0  0
  140.2800   77.8750  220.9280 C   0  0  0  0  0  0  0  0  0  0  0  0
  140.0080   78.6720  219.6920 C   0  0  0  0  0  0  0  0  0  0  0  0
  140.9310   78.2940  218.5550 C   0  0  0  0  0  0  0  0  0  0  0  0
  140.9090   76.8380  218.2420 C   0  0  0  0  0  0  0  0  0  0  0  0
  140.8150   75.9070  219.3920 C   0  0  1  0  0  0  0  0  0  0  0  0
  142.0950   75.1730  219.6470 C   0  0  0  0  0  0  0  0  0  0  0  0
  142.1710   73.7930  219.6260 C   0  0  0  0  0  0  0  0  0  0  0  0
  143.3550   73.1080  219.8610 C   0  0  0  0  0  0  0  0  0  0  0  0
  144.5050   73.7940  220.1270 C   0  0  0  0  0  0  0  0  0  0  0  0
  145.7420   73.0160  220.3710 C   0  0  0  0  0  0  0  0  0  0  0  0
  146.0540   73.0380  221.7170 F   0  0  0  0  0  0  0  0  0  0  0  0
  145.4650   71.6980  220.0600 F   0  0  0  0  0  0  0  0  0  0  0  0
  146.8070   73.4440  219.6060 F   0  0  0  0  0  0  0  0  0  0  0  0
  144.4490   75.1680  220.1520 C   0  0  0  0  0  0  0  0  0  0  0  0
  143.2800   75.8420  219.9200 C   0  0  0  0  0  0  0  0  0  0  0  0
  139.9070   71.2020  223.6240 C   0  0  0  0  0  0  0  0  0  0  0  0
  139.5120   69.8670  223.6860 C   0  0  0  0  0  0  0  0  0  0  0  0
  139.5870   69.1530  224.8600 C   0  0  0  0  0  0  0  0  0  0  0  0
  140.0670   69.8020  225.9760 C   0  0  0  0  0  0  0  0  0  0  0  0
  140.1690   69.1430  227.1870 C   0  0  0  0  0  0  0  0  0  0  0  0
  140.6530   69.8010  228.3100 C   0  0  0  0  0  0  0  0  0  0  0  0
  141.0520   71.1270  228.2740 C   0  0  0  0  0  0  0  0  0  0  0  0
  140.9380   71.7610  227.0450 C   0  0  0  0  0  0  0  0  0  0  0  0
  140.4640   71.1390  225.9210 C   0  0  0  0  0  0  0  0  0  0  0  0
  140.3680   71.7870  224.7450 N   0  0  0  0  0  0  0  0  0  0  0  0
  139.4850   73.7980  223.3590 H   0  0  0  0  0  0  0  0  0  0  0  0
  140.2259   73.8001  220.4709 H   0  0  0  0  0  0  0  0  0  0  0  0
  138.4739   73.9995  220.7483 H   0  0  0  0  0  0  0  0  0  0  0  0
  139.5017   78.0843  221.6766 H   0  0  0  0  0  0  0  0  0  0  0  0
  141.2650   78.1531  221.3311 H   0  0  0  0  0  0  0  0  0  0  0  0
  138.9685   78.4958  219.3782 H   0  0  0  0  0  0  0  0  0  0  0  0
  140.1799   79.7324  219.9288 H   0  0  0  0  0  0  0  0  0  0  0  0
  140.6248   78.8496  217.6564 H   0  0  0  0  0  0  0  0  0  0  0  0
  141.9552   78.5463  218.8671 H   0  0  0  0  0  0  0  0  0  0  0  0
  140.0423   76.6509  217.5910 H   0  0  0  0  0  0  0  0  0  0  0  0
  141.8859   76.6284  217.7819 H   0  0  0  0  0  0  0  0  0  0  0  0
  140.0592   75.1794  219.0613 H   0  0  0  0  0  0  0  0  0  0  0  0
  141.2586   73.2159  219.4151 H   0  0  0  0  0  0  0  0  0  0  0  0
  143.3668   72.0084  219.8328 H   0  0  0  0  0  0  0  0  0  0  0  0
  145.3651   75.7390  220.3634 H   0  0  0  0  0  0  0  0  0  0  0  0
  143.2800   76.9416  219.9508 H   0  0  0  0  0  0  0  0  0  0  0  0
  139.1328   69.3743  222.7786 H   0  0  0  0  0  0  0  0  0  0  0  0
  139.2742   68.0994  224.9056 H   0  0  0  0  0  0  0  0  0  0  0  0
  139.8643   68.0887  227.2616 H   0  0  0  0  0  0  0  0  0  0  0  0
  140.7218   69.2508  229.2600 H   0  0  0  0  0  0  0  0  0  0  0  0
  141.4357   71.6456  229.1650 H   0  0  0  0  0  0  0  0  0  0  0  0
  141.2434   72.8151  226.9700 H   0  0  0  0  0  0  0  0  0  0  0  0
  1  2  2  0
  2  3  1  0
  3  4  1  0
  4  5  1  0
  5  6  2  0
  5  7  1  0
  7  8  1  0
  8  9  1  0
  9 10  1  0
 10 11  1  0
 11 12  1  0
 12 13  1  0
 13 14  2  0
 14 15  1  0
 15 16  2  0
 16 17  1  0
 17 18  1  0
 17 19  1  0
 17 20  1  0
 16 21  1  0
 21 22  2  0
  2 23  1  0
 23 24  2  0
 24 25  1  0
 25 26  2  0
 26 27  1  0
 27 28  2  0
 28 29  1  0
 29 30  2  0
 30 31  1  0
 31 32  2  0
 12  7  1  0
 22 13  1  0
 32 23  1  0
 31 26  1  0
  3 33  1  0
  4 34  1  0
  4 35  1  0
  8 36  1  0
  8 37  1  0
  9 38  1  0
  9 39  1  0
 10 40  1  0
 10 41  1  0
 11 42  1  0
 11 43  1  0
 12 44  1  6
 14 45  1  0
 15 46  1  0
 21 47  1  0
 22 48  1  0
 24 49  1  0
 25 50  1  0
 27 51  1  0
 28 52  1  0
 29 53  1  0
 30 54  1  0
M  END
>  <smiles>  (95) 
O=C(NCC(=O)N1CCCCC1c1ccc(C(F)(F)F)cc1)c1ccc2ccccc2n1

>  <score_type>  (95) 
oracle

>  <origin>  (95) 
autodockgpu

>  <m_score__min__energy>  (95) 
-8.4100000000000001

>  <m_primary>  (95) 
energy

>  <rmsd>  (95) 
2.0401470224221794

>  <m_score__min__rmsd>  (95) 
2.0401470224221794

>  <meeko>  (95) 
{"free_energy": -8.03, "intermolecular_energy": -9.82, "internal_energy": -2.33, "cluster_size": 18, "cluster_id": 3, "rank_in_cluster": 17}

>  <energy>  (95) 
-8.07

>  <cluster_rmsd>  (95) 
0.32

>  <cluster>  (95) 
4

$$$$

     RDKit          3D

 54 57  0  0  0  0  0  0  0  0999 V2000
  140.5260   71.3790  221.2840 O   0  0  0  0  0  0  0  0  0  0  0  0
  140.1250   71.9880  222.3080 C   0  0  0  0  0  0  0  0  0  0  0  0
  139.6820   73.3380  222.2970 N   0  0  0  0  0  0  0  0  0  0  0  0
  139.6680   74.1070  221.0670 C   0  0  0  0  0  0  0  0  0  0  0  0
  139.9750   75.5190  221.4070 C   0  0  0  0  0  0  0  0  0  0  0  0
  139.7100   75.9120  222.5740 O   0  0  0  0  0  0  0  0  0  0  0  0
  140.5590   76.4000  220.4240 N   0  0  0  0  0  0  0  0  0  0  0  0
  140.5900   77.8190  220.7030 C   0  0  0  0  0  0  0  0  0  0  0  0
  140.3180   78.5860  219.4470 C   0  0  0  0  0  0  0  0  0  0  0  0
  141.2250   78.1610  218.3130 C   0  0  0  0  0  0  0  0  0  0  0  0
  141.1770   76.6980  218.0410 C   0  0  0  0  0  0  0  0  0  0  0  0
  141.0790   75.8000  219.2170 C   0  0  1  0  0  0  0  0  0  0  0  0
  142.3510   75.0540  219.4810 C   0  0  0  0  0  0  0  0  0  0  0  0
  143.4330   75.6420  220.1070 C   0  0  0  0  0  0  0  0  0  0  0  0
  144.6140   74.9560  220.3560 C   0  0  0  0  0  0  0  0  0  0  0  0
  144.7410   73.6490  219.9800 C   0  0  0  0  0  0  0  0  0  0  0  0
  146.0220   72.9610  220.2680 C   0  0  0  0  0  0  0  0  0  0  0  0
  147.0770   73.7030  219.7710 F   0  0  0  0  0  0  0  0  0  0  0  0
  146.1760   72.9420  221.6420 F   0  0  0  0  0  0  0  0  0  0  0  0
  146.0560   71.6670  219.7930 F   0  0  0  0  0  0  0  0  0  0  0  0
  143.6740   73.0470  219.3560 C   0  0  0  0  0  0  0  0  0  0  0  0
  142.5100   73.7260  219.1110 C   0  0  0  0  0  0  0  0  0  0  0  0
  140.1060   71.2800  223.6030 C   0  0  0  0  0  0  0  0  0  0  0  0
  139.5830   69.9900  223.6730 C   0  0  0  0  0  0  0  0  0  0  0  0
  139.5470   69.2970  224.8620 C   0  0  0  0  0  0  0  0  0  0  0  0
  140.0470   69.9210  225.9830 C   0  0  0  0  0  0  0  0  0  0  0  0
  140.0420   69.2810  227.2090 C   0  0  0  0  0  0  0  0  0  0  0  0
  140.5460   69.9140  228.3370 C   0  0  0  0  0  0  0  0  0  0  0  0
  141.0710   71.1950  228.2930 C   0  0  0  0  0  0  0  0  0  0  0  0
  141.0630   71.8110  227.0500 C   0  0  0  0  0  0  0  0  0  0  0  0
  140.5720   71.2130  225.9200 C   0  0  0  0  0  0  0  0  0  0  0  0
  140.5810   71.8420  224.7290 N   0  0  0  0  0  0  0  0  0  0  0  0
  139.3570   73.7840  223.2040 H   0  0  0  0  0  0  0  0  0  0  0  0
  140.4271   73.7162  220.3735 H   0  0  0  0  0  0  0  0  0  0  0  0
  138.6832   74.0355  220.5821 H   0  0  0  0  0  0  0  0  0  0  0  0
  139.8224   78.0611  221.4528 H   0  0  0  0  0  0  0  0  0  0  0  0
  141.5829   78.0928  221.0893 H   0  0  0  0  0  0  0  0  0  0  0  0
  139.2730   78.4174  219.1477 H   0  0  0  0  0  0  0  0  0  0  0  0
  140.5077   79.6500  219.6520 H   0  0  0  0  0  0  0  0  0  0  0  0
  140.9199   78.6963  217.4018 H   0  0  0  0  0  0  0  0  0  0  0  0
  142.2558   78.4049  218.6096 H   0  0  0  0  0  0  0  0  0  0  0  0
  140.3014   76.5071  217.4032 H   0  0  0  0  0  0  0  0  0  0  0  0
  142.1464   76.4603  217.5786 H   0  0  0  0  0  0  0  0  0  0  0  0
  140.3092   75.0751  218.9139 H   0  0  0  0  0  0  0  0  0  0  0  0
  143.3559   76.6937  220.4200 H   0  0  0  0  0  0  0  0  0  0  0  0
  145.4496   75.4663  220.8574 H   0  0  0  0  0  0  0  0  0  0  0  0
  143.7571   71.9948  219.0461 H   0  0  0  0  0  0  0  0  0  0  0  0
  141.6810   73.2060  218.6087 H   0  0  0  0  0  0  0  0  0  0  0  0
  139.1914   69.5165  222.7606 H   0  0  0  0  0  0  0  0  0  0  0  0
  139.1329   68.2793  224.9147 H   0  0  0  0  0  0  0  0  0  0  0  0
  139.6354   68.2622  227.2910 H   0  0  0  0  0  0  0  0  0  0  0  0
  140.5278   69.3801  229.2986 H   0  0  0  0  0  0  0  0  0  0  0  0
  141.4699   71.6934  229.1888 H   0  0  0  0  0  0  0  0  0  0  0  0
  141.4709   72.8293  226.9680 H   0  0  0  0  0  0  0  0  0  0  0  0
  1  2  2  0
  2  3  1  0
  3  4  1  0
  4  5  1  0
  5  6  2  0
  5  7  1  0
  7  8  1  0
  8  9  1  0
  9 10  1  0
 10 11  1  0
 11 12  1  0
 12 13  1  0
 13 14  2  0
 14 15  1  0
 15 16  2  0
 16 17  1  0
 17 18  1  0
 17 19  1  0
 17 20  1  0
 16 21  1  0
 21 22  2  0
  2 23  1  0
 23 24  2  0
 24 25  1  0
 25 26  2  0
 26 27  1  0
 27 28  2  0
 28 29  1  0
 29 30  2  0
 30 31  1  0
 31 32  2  0
 12  7  1  0
 22 13  1  0
 32 23  1  0
 31 26  1  0
  3 33  1  0
  4 34  1  0
  4 35  1  0
  8 36  1  0
  8 37  1  0
  9 38  1  0
  9 39  1  0
 10 40  1  0
 10 41  1  0
 11 42  1  0
 11 43  1  0
 12 44  1  6
 14 45  1  0
 15 46  1  0
 21 47  1  0
 22 48  1  0
 24 49  1  0
 25 50  1  0
 27 51  1  0
 28 52  1  0
 29 53  1  0
 30 54  1  0
M  END
>  <smiles>  (96) 
O=C(NCC(=O)N1CCCCC1c1ccc(C(F)(F)F)cc1)c1ccc2ccccc2n1

>  <score_type>  (96) 
oracle

>  <origin>  (96) 
autodockgpu

>  <m_score__min__energy>  (96) 
-8.4100000000000001

>  <m_primary>  (96) 
energy

>  <rmsd>  (96) 
2.057364829361608

>  <m_score__min__rmsd>  (96) 
2.057364829361608

>  <meeko>  (96) 
{"free_energy": -8.13, "intermolecular_energy": -9.92, "internal_energy": -2.29, "cluster_size": 18, "cluster_id": 3, "rank_in_cluster": 14}

>  <energy>  (96) 
-8.05

>  <cluster_rmsd>  (96) 
0.18

>  <cluster>  (96) 
4

$$$$

     RDKit          3D

 54 57  0  0  0  0  0  0  0  0999 V2000
  140.7460   71.6000  221.2870 O   0  0  0  0  0  0  0  0  0  0  0  0
  140.3150   72.1750  222.3190 C   0  0  0  0  0  0  0  0  0  0  0  0
  139.9190   73.5390  222.3520 N   0  0  0  0  0  0  0  0  0  0  0  0
  139.9940   74.3650  221.1610 C   0  0  0  0  0  0  0  0  0  0  0  0
  140.2520   75.7630  221.5900 C   0  0  0  0  0  0  0  0  0  0  0  0
  139.7430   76.1460  222.6770 O   0  0  0  0  0  0  0  0  0  0  0  0
  141.0600   76.6410  220.7780 N   0  0  0  0  0  0  0  0  0  0  0  0
  141.4530   77.9200  221.3290 C   0  0  0  0  0  0  0  0  0  0  0  0
  141.4110   78.9640  220.2580 C   0  0  0  0  0  0  0  0  0  0  0  0
  142.1950   78.5550  219.0310 C   0  0  0  0  0  0  0  0  0  0  0  0
  141.7750   77.2370  218.4800 C   0  0  0  0  0  0  0  0  0  0  0  0
  141.4280   76.1800  219.4590 C   0  0  1  0  0  0  0  0  0  0  0  0
  142.4580   75.0950  219.5270 C   0  0  0  0  0  0  0  0  0  0  0  0
  142.2280   73.8280  219.0240 C   0  0  0  0  0  0  0  0  0  0  0  0
  143.1780   72.8180  219.0840 C   0  0  0  0  0  0  0  0  0  0  0  0
  144.3960   73.0540  219.6550 C   0  0  0  0  0  0  0  0  0  0  0  0
  145.3770   71.9430  219.6930 C   0  0  0  0  0  0  0  0  0  0  0  0
  144.7430   70.7690  220.0540 F   0  0  0  0  0  0  0  0  0  0  0  0
  145.8330   71.7550  218.4020 F   0  0  0  0  0  0  0  0  0  0  0  0
  146.4510   72.2020  220.5180 F   0  0  0  0  0  0  0  0  0  0  0  0
  144.6440   74.3090  220.1600 C   0  0  0  0  0  0  0  0  0  0  0  0
  143.7040   75.3040  220.1010 C   0  0  0  0  0  0  0  0  0  0  0  0
  140.2060   71.4090  223.5750 C   0  0  0  0  0  0  0  0  0  0  0  0
  139.6170   70.1460  223.5610 C   0  0  0  0  0  0  0  0  0  0  0  0
  139.4970   69.4000  224.7120 C   0  0  0  0  0  0  0  0  0  0  0  0
  139.9800   69.9440  225.8820 C   0  0  0  0  0  0  0  0  0  0  0  0
  139.8910   69.2480  227.0730 C   0  0  0  0  0  0  0  0  0  0  0  0
  140.3790   69.7990  228.2500 C   0  0  0  0  0  0  0  0  0  0  0  0
  140.9690   71.0520  228.2900 C   0  0  0  0  0  0  0  0  0  0  0  0
  141.0430   71.7250  227.0790 C   0  0  0  0  0  0  0  0  0  0  0  0
  140.5710   71.2080  225.9030 C   0  0  0  0  0  0  0  0  0  0  0  0
  140.6610   71.8910  224.7460 N   0  0  0  0  0  0  0  0  0  0  0  0
  139.5640   73.9540  223.2620 H   0  0  0  0  0  0  0  0  0  0  0  0
  140.8126   74.0154  220.5147 H   0  0  0  0  0  0  0  0  0  0  0  0
  139.0532   74.3058  220.5941 H   0  0  0  0  0  0  0  0  0  0  0  0
  140.7614   78.1978  222.1380 H   0  0  0  0  0  0  0  0  0  0  0  0
  142.4759   77.8468  221.7269 H   0  0  0  0  0  0  0  0  0  0  0  0
  140.3632   79.1331  219.9689 H   0  0  0  0  0  0  0  0  0  0  0  0
  141.8677   79.8800  220.6610 H   0  0  0  0  0  0  0  0  0  0  0  0
  142.0528   79.3204  218.2539 H   0  0  0  0  0  0  0  0  0  0  0  0
  143.2491   78.4631  219.3318 H   0  0  0  0  0  0  0  0  0  0  0  0
  140.8909   77.4077  217.8481 H   0  0  0  0  0  0  0  0  0  0  0  0
  142.6581   76.8549  217.9469 H   0  0  0  0  0  0  0  0  0  0  0  0
  140.5022   75.7529  219.0460 H   0  0  0  0  0  0  0  0  0  0  0  0
  141.2550   73.6122  218.5585 H   0  0  0  0  0  0  0  0  0  0  0  0
  142.9493   71.8247  218.6705 H   0  0  0  0  0  0  0  0  0  0  0  0
  145.6199   74.5188  220.6221 H   0  0  0  0  0  0  0  0  0  0  0  0
  143.9429   76.2930  220.5190 H   0  0  0  0  0  0  0  0  0  0  0  0
  139.2406   69.7371  222.6117 H   0  0  0  0  0  0  0  0  0  0  0  0
  139.0313   68.4035  224.6979 H   0  0  0  0  0  0  0  0  0  0  0  0
  139.4298   68.2495  227.0882 H   0  0  0  0  0  0  0  0  0  0  0  0
  140.2944   69.2214  229.1823 H   0  0  0  0  0  0  0  0  0  0  0  0
  141.3548   71.4863  229.2241 H   0  0  0  0  0  0  0  0  0  0  0  0
  141.5039   72.7237  227.0633 H   0  0  0  0  0  0  0  0  0  0  0  0
  1  2  2  0
  2  3  1  0
  3  4  1  0
  4  5  1  0
  5  6  2  0
  5  7  1  0
  7  8  1  0
  8  9  1  0
  9 10  1  0
 10 11  1  0
 11 12  1  0
 12 13  1  0
 13 14  2  0
 14 15  1  0
 15 16  2  0
 16 17  1  0
 17 18  1  0
 17 19  1  0
 17 20  1  0
 16 21  1  0
 21 22  2  0
  2 23  1  0
 23 24  2  0
 24 25  1  0
 25 26  2  0
 26 27  1  0
 27 28  2  0
 28 29  1  0
 29 30  2  0
 30 31  1  0
 31 32  2  0
 12  7  1  0
 22 13  1  0
 32 23  1  0
 31 26  1  0
  3 33  1  0
  4 34  1  0
  4 35  1  0
  8 36  1  0
  8 37  1  0
  9 38  1  0
  9 39  1  0
 10 40  1  0
 10 41  1  0
 11 42  1  0
 11 43  1  0
 12 44  1  6
 14 45  1  0
 15 46  1  0
 21 47  1  0
 22 48  1  0
 24 49  1  0
 25 50  1  0
 27 51  1  0
 28 52  1  0
 29 53  1  0
 30 54  1  0
M  END
>  <smiles>  (97) 
O=C(NCC(=O)N1CCCCC1c1ccc(C(F)(F)F)cc1)c1ccc2ccccc2n1

>  <score_type>  (97) 
oracle

>  <origin>  (97) 
autodockgpu

>  <m_score__min__energy>  (97) 
-8.4100000000000001

>  <m_primary>  (97) 
energy

>  <rmsd>  (97) 
2.3731117766582046

>  <m_score__min__rmsd>  (97) 
2.3731117766582046

>  <meeko>  (97) 
{"free_energy": -8.26, "intermolecular_energy": -10.05, "internal_energy": -2.2, "cluster_size": 18, "cluster_id": 3, "rank_in_cluster": 7}

>  <energy>  (97) 
-8.05

>  <cluster_rmsd>  (97) 
0.23

>  <cluster>  (97) 
4

$$$$

     RDKit          3D

 54 57  0  0  0  0  0  0  0  0999 V2000
  140.7370   71.3090  221.3150 O   0  0  0  0  0  0  0  0  0  0  0  0
  140.3050   71.8960  222.3390 C   0  0  0  0  0  0  0  0  0  0  0  0
  139.9080   73.2600  222.3560 N   0  0  0  0  0  0  0  0  0  0  0  0
  139.9830   74.0720  221.1550 C   0  0  0  0  0  0  0  0  0  0  0  0
  139.9220   75.4980  221.5630 C   0  0  0  0  0  0  0  0  0  0  0  0
  139.5170   75.7580  222.7270 O   0  0  0  0  0  0  0  0  0  0  0  0
  140.3150   76.5400  220.6460 N   0  0  0  0  0  0  0  0  0  0  0  0
  140.0090   76.3750  219.2410 C   0  0  0  0  0  0  0  0  0  0  0  0
  141.1380   76.9010  218.4140 C   0  0  0  0  0  0  0  0  0  0  0  0
  141.5180   78.3130  218.7990 C   0  0  0  0  0  0  0  0  0  0  0  0
  141.8320   78.4620  220.2470 C   0  0  0  0  0  0  0  0  0  0  0  0
  140.9940   77.6910  221.1960 C   0  0  1  0  0  0  0  0  0  0  0  0
  140.0530   78.5600  221.9730 C   0  0  0  0  0  0  0  0  0  0  0  0
  140.4490   79.2450  223.1070 C   0  0  0  0  0  0  0  0  0  0  0  0
  139.5820   80.0520  223.8310 C   0  0  0  0  0  0  0  0  0  0  0  0
  138.2840   80.1950  223.4330 C   0  0  0  0  0  0  0  0  0  0  0  0
  137.3990   81.0690  224.2400 C   0  0  0  0  0  0  0  0  0  0  0  0
  138.0580   81.4770  225.3850 F   0  0  0  0  0  0  0  0  0  0  0  0
  137.1670   82.2130  223.5000 F   0  0  0  0  0  0  0  0  0  0  0  0
  136.1910   80.4770  224.5450 F   0  0  0  0  0  0  0  0  0  0  0  0
  137.8720   79.5230  222.3070 C   0  0  0  0  0  0  0  0  0  0  0  0
  138.7290   78.7260  221.5950 C   0  0  0  0  0  0  0  0  0  0  0  0
  140.1960   71.1450  223.6050 C   0  0  0  0  0  0  0  0  0  0  0  0
  139.5840   69.8920  223.6100 C   0  0  0  0  0  0  0  0  0  0  0  0
  139.4630   69.1610  224.7700 C   0  0  0  0  0  0  0  0  0  0  0  0
  139.9680   69.7080  225.9290 C   0  0  0  0  0  0  0  0  0  0  0  0
  139.8790   69.0260  227.1290 C   0  0  0  0  0  0  0  0  0  0  0  0
  140.3890   69.5810  228.2940 C   0  0  0  0  0  0  0  0  0  0  0  0
  141.0020   70.8230  228.3160 C   0  0  0  0  0  0  0  0  0  0  0  0
  141.0750   71.4830  227.0970 C   0  0  0  0  0  0  0  0  0  0  0  0
  140.5810   70.9620  225.9310 C   0  0  0  0  0  0  0  0  0  0  0  0
  140.6720   71.6310  224.7660 N   0  0  0  0  0  0  0  0  0  0  0  0
  139.5530   73.6850  223.2610 H   0  0  0  0  0  0  0  0  0  0  0  0
  140.9284   73.8741  220.6286 H   0  0  0  0  0  0  0  0  0  0  0  0
  139.1503   73.8316  220.4776 H   0  0  0  0  0  0  0  0  0  0  0  0
  139.8618   75.3072  219.0218 H   0  0  0  0  0  0  0  0  0  0  0  0
  139.0912   76.9315  219.0004 H   0  0  0  0  0  0  0  0  0  0  0  0
  142.0126   76.2484  218.5524 H   0  0  0  0  0  0  0  0  0  0  0  0
  140.8104   76.9137  217.3640 H   0  0  0  0  0  0  0  0  0  0  0  0
  142.4038   78.6076  218.2171 H   0  0  0  0  0  0  0  0  0  0  0  0
  140.6507   78.9548  218.5849 H   0  0  0  0  0  0  0  0  0  0  0  0
  142.8761   78.1488  220.3949 H   0  0  0  0  0  0  0  0  0  0  0  0
  141.6301   79.5184  220.4778 H   0  0  0  0  0  0  0  0  0  0  0  0
  141.7333   77.2695  221.8930 H   0  0  0  0  0  0  0  0  0  0  0  0
  141.4901   79.1468  223.4482 H   0  0  0  0  0  0  0  0  0  0  0  0
  139.9418   80.5776  224.7278 H   0  0  0  0  0  0  0  0  0  0  0  0
  136.8302   79.6276  221.9698 H   0  0  0  0  0  0  0  0  0  0  0  0
  138.3575   78.2044  220.7006 H   0  0  0  0  0  0  0  0  0  0  0  0
  139.1905   69.4800  222.6691 H   0  0  0  0  0  0  0  0  0  0  0  0
  138.9792   68.1731  224.7715 H   0  0  0  0  0  0  0  0  0  0  0  0
  139.4003   68.0361  227.1600 H   0  0  0  0  0  0  0  0  0  0  0  0
  140.3035   69.0148  229.2332 H   0  0  0  0  0  0  0  0  0  0  0  0
  141.4057   71.2590  229.2417 H   0  0  0  0  0  0  0  0  0  0  0  0
  141.5532   72.4732  227.0662 H   0  0  0  0  0  0  0  0  0  0  0  0
  1  2  2  0
  2  3  1  0
  3  4  1  0
  4  5  1  0
  5  6  2  0
  5  7  1  0
  7  8  1  0
  8  9  1  0
  9 10  1  0
 10 11  1  0
 11 12  1  0
 12 13  1  0
 13 14  2  0
 14 15  1  0
 15 16  2  0
 16 17  1  0
 17 18  1  0
 17 19  1  0
 17 20  1  0
 16 21  1  0
 21 22  2  0
  2 23  1  0
 23 24  2  0
 24 25  1  0
 25 26  2  0
 26 27  1  0
 27 28  2  0
 28 29  1  0
 29 30  2  0
 30 31  1  0
 31 32  2  0
 12  7  1  0
 22 13  1  0
 32 23  1  0
 31 26  1  0
  3 33  1  0
  4 34  1  0
  4 35  1  0
  8 36  1  0
  8 37  1  0
  9 38  1  0
  9 39  1  0
 10 40  1  0
 10 41  1  0
 11 42  1  0
 11 43  1  0
 12 44  1  1
 14 45  1  0
 15 46  1  0
 21 47  1  0
 22 48  1  0
 24 49  1  0
 25 50  1  0
 27 51  1  0
 28 52  1  0
 29 53  1  0
 30 54  1  0
M  END
>  <smiles>  (98) 
O=C(NCC(=O)N1CCCCC1c1ccc(C(F)(F)F)cc1)c1ccc2ccccc2n1

>  <score_type>  (98) 
oracle

>  <origin>  (98) 
autodockgpu

>  <m_score__min__energy>  (98) 
-8.4100000000000001

>  <m_primary>  (98) 
energy

>  <rmsd>  (98) 
1.736495321465042

>  <m_score__min__rmsd>  (98) 
1.736495321465042

>  <meeko>  (98) 
{"free_energy": -8.18, "intermolecular_energy": -9.97, "internal_energy": -2.08, "cluster_size": 16, "cluster_id": 1, "rank_in_cluster": 10}

>  <energy>  (98) 
-7.97

>  <cluster_rmsd>  (98) 
0.45

>  <cluster>  (98) 
4

$$$$

     RDKit          3D

 54 57  0  0  0  0  0  0  0  0999 V2000
  139.4910   70.7370  221.2650 O   0  0  0  0  0  0  0  0  0  0  0  0
  139.5590   71.4520  222.2980 C   0  0  0  0  0  0  0  0  0  0  0  0
  139.5210   72.8710  222.2760 N   0  0  0  0  0  0  0  0  0  0  0  0
  139.3970   73.5940  221.0240 C   0  0  0  0  0  0  0  0  0  0  0  0
  140.0610   74.9110  221.1890 C   0  0  0  0  0  0  0  0  0  0  0  0
  139.9530   75.4860  222.3040 O   0  0  0  0  0  0  0  0  0  0  0  0
  140.8010   75.5020  220.0990 N   0  0  0  0  0  0  0  0  0  0  0  0
  140.3740   75.2230  218.7450 C   0  0  0  0  0  0  0  0  0  0  0  0
  141.5710   75.0610  217.8630 C   0  0  0  0  0  0  0  0  0  0  0  0
  142.5270   76.2270  217.9790 C   0  0  0  0  0  0  0  0  0  0  0  0
  142.9550   76.4970  219.3790 C   0  0  0  0  0  0  0  0  0  0  0  0
  141.9280   76.3410  220.4360 C   0  0  1  0  0  0  0  0  0  0  0  0
  141.4810   77.6530  221.0060 C   0  0  0  0  0  0  0  0  0  0  0  0
  141.4350   77.8870  222.3670 C   0  0  0  0  0  0  0  0  0  0  0  0
  141.0230   79.1000  222.9010 C   0  0  0  0  0  0  0  0  0  0  0  0
  140.6430   80.1200  222.0760 C   0  0  0  0  0  0  0  0  0  0  0  0
  140.2120   81.3960  222.6950 C   0  0  0  0  0  0  0  0  0  0  0  0
  139.0540   81.8460  222.0880 F   0  0  0  0  0  0  0  0  0  0  0  0
  139.8780   81.1210  224.0080 F   0  0  0  0  0  0  0  0  0  0  0  0
  141.1940   82.3630  222.6730 F   0  0  0  0  0  0  0  0  0  0  0  0
  140.6840   79.9060  220.7180 C   0  0  0  0  0  0  0  0  0  0  0  0
  141.0900   78.7070  220.1930 C   0  0  0  0  0  0  0  0  0  0  0  0
  139.6870   70.7980  223.6150 C   0  0  0  0  0  0  0  0  0  0  0  0
  139.2360   69.4900  223.7800 C   0  0  0  0  0  0  0  0  0  0  0  0
  139.3360   68.8460  224.9920 C   0  0  0  0  0  0  0  0  0  0  0  0
  139.9000   69.5390  226.0410 C   0  0  0  0  0  0  0  0  0  0  0  0
  140.0320   68.9510  227.2860 C   0  0  0  0  0  0  0  0  0  0  0  0
  140.6000   69.6530  228.3400 C   0  0  0  0  0  0  0  0  0  0  0  0
  141.0570   70.9530  228.2020 C   0  0  0  0  0  0  0  0  0  0  0  0
  140.9110   71.5150  226.9410 C   0  0  0  0  0  0  0  0  0  0  0  0
  140.3540   70.8490  225.8830 C   0  0  0  0  0  0  0  0  0  0  0  0
  140.2300   71.4280  224.6730 N   0  0  0  0  0  0  0  0  0  0  0  0
  139.5840   73.4050  223.1910 H   0  0  0  0  0  0  0  0  0  0  0  0
  139.8844   73.0285  220.2162 H   0  0  0  0  0  0  0  0  0  0  0  0
  138.3369   73.7297  220.7637 H   0  0  0  0  0  0  0  0  0  0  0  0
  139.7818   74.2961  218.7319 H   0  0  0  0  0  0  0  0  0  0  0  0
  139.7602   76.0583  218.3768 H   0  0  0  0  0  0  0  0  0  0  0  0
  142.0996   74.1396  218.1486 H   0  0  0  0  0  0  0  0  0  0  0  0
  141.2198   75.0141  216.8216 H   0  0  0  0  0  0  0  0  0  0  0  0
  143.4207   76.0077  217.3763 H   0  0  0  0  0  0  0  0  0  0  0  0
  141.9966   77.1216  217.6209 H   0  0  0  0  0  0  0  0  0  0  0  0
  143.7800   75.8081  219.6130 H   0  0  0  0  0  0  0  0  0  0  0  0
  143.2242   77.5634  219.3959 H   0  0  0  0  0  0  0  0  0  0  0  0
  142.4624   75.7862  221.2212 H   0  0  0  0  0  0  0  0  0  0  0  0
  141.7362   77.0816  223.0531 H   0  0  0  0  0  0  0  0  0  0  0  0
  141.0024   79.2403  223.9918 H   0  0  0  0  0  0  0  0  0  0  0  0
  140.3839   80.7163  220.0373 H   0  0  0  0  0  0  0  0  0  0  0  0
  141.1062   78.5772  219.1008 H   0  0  0  0  0  0  0  0  0  0  0  0
  138.7910   68.9615  222.9241 H   0  0  0  0  0  0  0  0  0  0  0  0
  138.9781   67.8137  225.1190 H   0  0  0  0  0  0  0  0  0  0  0  0
  139.6842   67.9192  227.4419 H   0  0  0  0  0  0  0  0  0  0  0  0
  140.6903   69.1596  229.3190 H   0  0  0  0  0  0  0  0  0  0  0  0
  141.5076   71.5059  229.0394 H   0  0  0  0  0  0  0  0  0  0  0  0
  141.2601   72.5463  226.7845 H   0  0  0  0  0  0  0  0  0  0  0  0
  1  2  2  0
  2  3  1  0
  3  4  1  0
  4  5  1  0
  5  6  2  0
  5  7  1  0
  7  8  1  0
  8  9  1  0
  9 10  1  0
 10 11  1  0
 11 12  1  0
 12 13  1  0
 13 14  2  0
 14 15  1  0
 15 16  2  0
 16 17  1  0
 17 18  1  0
 17 19  1  0
 17 20  1  0
 16 21  1  0
 21 22  2  0
  2 23  1  0
 23 24  2  0
 24 25  1  0
 25 26  2  0
 26 27  1  0
 27 28  2  0
 28 29  1  0
 29 30  2  0
 30 31  1  0
 31 32  2  0
 12  7  1  0
 22 13  1  0
 32 23  1  0
 31 26  1  0
  3 33  1  0
  4 34  1  0
  4 35  1  0
  8 36  1  0
  8 37  1  0
  9 38  1  0
  9 39  1  0
 10 40  1  0
 10 41  1  0
 11 42  1  0
 11 43  1  0
 12 44  1  1
 14 45  1  0
 15 46  1  0
 21 47  1  0
 22 48  1  0
 24 49  1  0
 25 50  1  0
 27 51  1  0
 28 52  1  0
 29 53  1  0
 30 54  1  0
M  END
>  <smiles>  (99) 
O=C(NCC(=O)N1CCCCC1c1ccc(C(F)(F)F)cc1)c1ccc2ccccc2n1

>  <score_type>  (99) 
oracle

>  <origin>  (99) 
autodockgpu

>  <m_score__min__energy>  (99) 
-8.4100000000000001

>  <m_primary>  (99) 
energy

>  <rmsd>  (99) 
1.396000904039899

>  <m_score__min__rmsd>  (99) 
1.396000904039899

>  <meeko>  (99) 
{"free_energy": -8.14, "intermolecular_energy": -9.93, "internal_energy": -2.05, "cluster_size": 16, "cluster_id": 1, "rank_in_cluster": 13}

>  <energy>  (99) 
-7.53

>  <cluster_rmsd>  (99) 
0.0

>  <cluster>  (99) 
5

$$$$

     RDKit          3D

 54 57  0  0  0  0  0  0  0  0999 V2000
  139.4370   70.8360  221.3240 O   0  0  0  0  0  0  0  0  0  0  0  0
  139.4450   71.5110  222.3850 C   0  0  0  0  0  0  0  0  0  0  0  0
  139.2720   72.9200  222.4230 N   0  0  0  0  0  0  0  0  0  0  0  0
  139.0710   73.6790  221.2020 C   0  0  0  0  0  0  0  0  0  0  0  0
  139.6200   75.0410  221.4140 C   0  0  0  0  0  0  0  0  0  0  0  0
  139.6420   75.4880  222.5920 O   0  0  0  0  0  0  0  0  0  0  0  0
  140.1100   75.8160  220.3000 N   0  0  0  0  0  0  0  0  0  0  0  0
  139.9090   77.2490  220.3150 C   0  0  0  0  0  0  0  0  0  0  0  0
  139.5880   77.7280  218.9350 C   0  0  0  0  0  0  0  0  0  0  0  0
  140.6040   77.2600  217.9180 C   0  0  0  0  0  0  0  0  0  0  0  0
  140.7960   75.7830  217.9170 C   0  0  0  0  0  0  0  0  0  0  0  0
  140.7770   75.1040  219.2340 C   0  0  1  0  0  0  0  0  0  0  0  0
  142.1330   74.6290  219.6590 C   0  0  0  0  0  0  0  0  0  0  0  0
  142.3870   73.3060  219.9670 C   0  0  0  0  0  0  0  0  0  0  0  0
  143.6410   72.8600  220.3610 C   0  0  0  0  0  0  0  0  0  0  0  0
  144.6840   73.7380  220.4560 C   0  0  0  0  0  0  0  0  0  0  0  0
  146.0030   73.2110  220.8800 C   0  0  0  0  0  0  0  0  0  0  0  0
  146.2730   72.0290  220.2160 F   0  0  0  0  0  0  0  0  0  0  0  0
  146.9590   74.1170  220.4600 F   0  0  0  0  0  0  0  0  0  0  0  0
  146.1040   73.0500  222.2450 F   0  0  0  0  0  0  0  0  0  0  0  0
  144.4500   75.0580  220.1520 C   0  0  0  0  0  0  0  0  0  0  0  0
  143.2120   75.4960  219.7640 C   0  0  0  0  0  0  0  0  0  0  0  0
  139.6440   70.8190  223.6740 C   0  0  0  0  0  0  0  0  0  0  0  0
  139.3110   69.4710  223.7890 C   0  0  0  0  0  0  0  0  0  0  0  0
  139.4810   68.7910  224.9730 C   0  0  0  0  0  0  0  0  0  0  0  0
  139.9940   69.4870  226.0450 C   0  0  0  0  0  0  0  0  0  0  0  0
  140.1900   68.8640  227.2640 C   0  0  0  0  0  0  0  0  0  0  0  0
  140.7070   69.5700  228.3410 C   0  0  0  0  0  0  0  0  0  0  0  0
  141.0470   70.9100  228.2530 C   0  0  0  0  0  0  0  0  0  0  0  0
  140.8380   71.5070  227.0170 C   0  0  0  0  0  0  0  0  0  0  0  0
  140.3300   70.8380  225.9370 C   0  0  0  0  0  0  0  0  0  0  0  0
  140.1420   71.4510  224.7520 N   0  0  0  0  0  0  0  0  0  0  0  0
  139.2910   73.4200  223.3590 H   0  0  0  0  0  0  0  0  0  0  0  0
  139.5960   73.1904  220.3679 H   0  0  0  0  0  0  0  0  0  0  0  0
  138.0000   73.7323  220.9567 H   0  0  0  0  0  0  0  0  0  0  0  0
  139.0759   77.4942  220.9901 H   0  0  0  0  0  0  0  0  0  0  0  0
  140.8273   77.7418  220.6670 H   0  0  0  0  0  0  0  0  0  0  0  0
  138.5974   77.3450  218.6484 H   0  0  0  0  0  0  0  0  0  0  0  0
  139.6036   78.8278  218.9468 H   0  0  0  0  0  0  0  0  0  0  0  0
  140.2657   77.5692  216.9180 H   0  0  0  0  0  0  0  0  0  0  0  0
  141.5688   77.7148  218.1868 H   0  0  0  0  0  0  0  0  0  0  0  0
  139.9942   75.3440  217.3051 H   0  0  0  0  0  0  0  0  0  0  0  0
  141.8129   75.6261  217.5279 H   0  0  0  0  0  0  0  0  0  0  0  0
  140.1435   74.2238  219.0499 H   0  0  0  0  0  0  0  0  0  0  0  0
  141.5644   72.5790  219.8973 H   0  0  0  0  0  0  0  0  0  0  0  0
  143.7957   71.7969  220.5974 H   0  0  0  0  0  0  0  0  0  0  0  0
  145.2771   75.7798  220.2221 H   0  0  0  0  0  0  0  0  0  0  0  0
  143.0690   76.5612  219.5298 H   0  0  0  0  0  0  0  0  0  0  0  0
  138.9041   68.9398  222.9159 H   0  0  0  0  0  0  0  0  0  0  0  0
  139.2160   67.7270  225.0604 H   0  0  0  0  0  0  0  0  0  0  0  0
  139.9341   67.8006  227.3808 H   0  0  0  0  0  0  0  0  0  0  0  0
  140.8519   69.0473  229.2980 H   0  0  0  0  0  0  0  0  0  0  0  0
  141.4569   71.4663  229.1089 H   0  0  0  0  0  0  0  0  0  0  0  0
  141.0935   72.5705  226.9003 H   0  0  0  0  0  0  0  0  0  0  0  0
  1  2  2  0
  2  3  1  0
  3  4  1  0
  4  5  1  0
  5  6  2  0
  5  7  1  0
  7  8  1  0
  8  9  1  0
  9 10  1  0
 10 11  1  0
 11 12  1  0
 12 13  1  0
 13 14  2  0
 14 15  1  0
 15 16  2  0
 16 17  1  0
 17 18  1  0
 17 19  1  0
 17 20  1  0
 16 21  1  0
 21 22  2  0
  2 23  1  0
 23 24  2  0
 24 25  1  0
 25 26  2  0
 26 27  1  0
 27 28  2  0
 28 29  1  0
 29 30  2  0
 30 31  1  0
 31 32  2  0
 12  7  1  0
 22 13  1  0
 32 23  1  0
 31 26  1  0
  3 33  1  0
  4 34  1  0
  4 35  1  0
  8 36  1  0
  8 37  1  0
  9 38  1  0
  9 39  1  0
 10 40  1  0
 10 41  1  0
 11 42  1  0
 11 43  1  0
 12 44  1  6
 14 45  1  0
 15 46  1  0
 21 47  1  0
 22 48  1  0
 24 49  1  0
 25 50  1  0
 27 51  1  0
 28 52  1  0
 29 53  1  0
 30 54  1  0
M  END
>  <smiles>  (100) 
O=C(NCC(=O)N1CCCCC1c1ccc(C(F)(F)F)cc1)c1ccc2ccccc2n1

>  <score_type>  (100) 
oracle

>  <origin>  (100) 
autodockgpu

>  <m_score__min__energy>  (100) 
-8.4100000000000001

>  <m_primary>  (100) 
energy

>  <rmsd>  (100) 
1.7505069833180662

>  <m_score__min__rmsd>  (100) 
1.7505069833180662

>  <meeko>  (100) 
{"free_energy": -8.09, "intermolecular_energy": -9.88, "internal_energy": -2.41, "cluster_size": 18, "cluster_id": 3, "rank_in_cluster": 16}

>  <energy>  (100) 
-7.05

>  <cluster_rmsd>  (100) 
0.0

>  <cluster>  (100) 
6

$$$$
