
     RDKit          3D

 59 62  0  0  0  0  0  0  0  0999 V2000
  140.6050   72.0670  221.0210 O   0  0  0  0  0  0  0  0  0  0  0  0
  140.0340   72.3580  222.1120 C   0  0  0  0  0  0  0  0  0  0  0  0
  139.3240   73.5910  222.1430 N   0  0  0  0  0  0  0  0  0  0  0  0
  139.2630   74.4630  220.9890 C   0  0  0  0  0  0  0  0  0  0  0  0
  140.3470   75.4780  221.0060 C   0  0  0  0  0  0  0  0  0  0  0  0
  141.2410   75.4430  221.8920 O   0  0  0  0  0  0  0  0  0  0  0  0
  140.3220   76.4710  219.9890 N   0  0  0  0  0  0  0  0  0  0  0  0
  139.6310   76.2990  218.7260 C   0  0  0  0  0  0  0  0  0  0  0  0
  140.5510   76.5060  217.5490 C   0  0  0  0  0  0  0  0  0  0  0  0
  141.6220   77.5110  217.8000 C   0  0  0  0  0  0  0  0  0  0  0  0
  141.3670   78.4310  218.9540 C   0  0  0  0  0  0  0  0  0  0  0  0
  141.0240   77.7170  220.2320 C   0  0  1  0  0  0  0  0  0  0  0  0
  140.0670   78.5980  221.0070 C   0  0  0  0  0  0  0  0  0  0  0  0
  140.7490   79.3240  222.0890 N   0  0  0  0  0  0  0  0  0  0  0  0
  141.4440   78.3940  222.9610 C   0  0  0  0  0  0  0  0  0  0  0  0
  141.8310   79.1360  224.2260 C   0  0  0  0  0  0  0  0  0  0  0  0
  142.3940   80.5100  223.9000 C   0  0  0  0  0  0  0  0  0  0  0  0
  142.8340   80.4640  222.4510 C   0  0  0  0  0  0  0  0  0  0  0  0
  141.6170   80.3390  221.5710 C   0  0  0  0  0  0  0  0  0  0  0  0
  140.0870   71.4860  223.2850 C   0  0  0  0  0  0  0  0  0  0  0  0
  139.6060   70.1990  223.1560 C   0  0  0  0  0  0  0  0  0  0  0  0
  139.6110   69.3010  224.2000 C   0  0  0  0  0  0  0  0  0  0  0  0
  140.1210   69.7300  225.4070 C   0  0  0  0  0  0  0  0  0  0  0  0
  140.1440   68.8620  226.4750 C   0  0  0  0  0  0  0  0  0  0  0  0
  140.6490   69.2690  227.6910 C   0  0  0  0  0  0  0  0  0  0  0  0
  140.6680   68.1490  229.0310 Cl  0  0  0  0  0  0  0  0  0  0  0  0
  141.1250   70.5600  227.7980 C   0  0  0  0  0  0  0  0  0  0  0  0
  141.1040   71.4320  226.7290 C   0  0  0  0  0  0  0  0  0  0  0  0
  140.5970   71.0280  225.5080 C   0  0  0  0  0  0  0  0  0  0  0  0
  140.5810   71.8860  224.4700 N   0  0  0  0  0  0  0  0  0  0  0  0
  138.8400   73.8450  223.0550 H   0  0  0  0  0  0  0  0  0  0  0  0
  139.3593   73.8546  220.0777 H   0  0  0  0  0  0  0  0  0  0  0  0
  138.2990   74.9923  221.0113 H   0  0  0  0  0  0  0  0  0  0  0  0
  139.2202   75.2796  218.6813 H   0  0  0  0  0  0  0  0  0  0  0  0
  138.8309   77.0517  218.6698 H   0  0  0  0  0  0  0  0  0  0  0  0
  141.0263   75.5443  217.3055 H   0  0  0  0  0  0  0  0  0  0  0  0
  139.9358   76.8892  216.7215 H   0  0  0  0  0  0  0  0  0  0  0  0
  142.5593   76.9696  217.9956 H   0  0  0  0  0  0  0  0  0  0  0  0
  141.6645   78.1464  216.9031 H   0  0  0  0  0  0  0  0  0  0  0  0
  142.2717   79.0330  219.1246 H   0  0  0  0  0  0  0  0  0  0  0  0
  140.4964   79.0480  218.6869 H   0  0  0  0  0  0  0  0  0  0  0  0
  141.9624   77.5080  220.7665 H   0  0  0  0  0  0  0  0  0  0  0  0
  139.6163   79.3271  220.3176 H   0  0  0  0  0  0  0  0  0  0  0  0
  139.2981   77.9539  221.4585 H   0  0  0  0  0  0  0  0  0  0  0  0
  140.7827   77.5511  223.2104 H   0  0  0  0  0  0  0  0  0  0  0  0
  142.3405   77.9990  222.4608 H   0  0  0  0  0  0  0  0  0  0  0  0
  140.9405   79.2534  224.8611 H   0  0  0  0  0  0  0  0  0  0  0  0
  142.6042   78.5555  224.7506 H   0  0  0  0  0  0  0  0  0  0  0  0
  141.6203   81.2797  224.0376 H   0  0  0  0  0  0  0  0  0  0  0  0
  143.2352   80.7618  224.5625 H   0  0  0  0  0  0  0  0  0  0  0  0
  143.3763   81.3878  222.2010 H   0  0  0  0  0  0  0  0  0  0  0  0
  143.4972   79.6010  222.2918 H   0  0  0  0  0  0  0  0  0  0  0  0
  141.0825   81.3001  221.5474 H   0  0  0  0  0  0  0  0  0  0  0  0
  141.9303   80.0656  220.5526 H   0  0  0  0  0  0  0  0  0  0  0  0
  139.2038   69.8787  222.1836 H   0  0  0  0  0  0  0  0  0  0  0  0
  139.2225   68.2794  224.0756 H   0  0  0  0  0  0  0  0  0  0  0  0
  139.7575   67.8389  226.3574 H   0  0  0  0  0  0  0  0  0  0  0  0
  141.5318   70.9027  228.7608 H   0  0  0  0  0  0  0  0  0  0  0  0
  141.4927   72.4540  226.8489 H   0  0  0  0  0  0  0  0  0  0  0  0
  1  2  2  0
  2  3  1  0
  3  4  1  0
  4  5  1  0
  5  6  2  0
  5  7  1  0
  7  8  1  0
  8  9  1  0
  9 10  1  0
 10 11  1  0
 11 12  1  0
 12 13  1  0
 13 14  1  0
 14 15  1  0
 15 16  1  0
 16 17  1  0
 17 18  1  0
 18 19  1  0
  2 20  1  0
 20 21  2  0
 21 22  1  0
 22 23  2  0
 23 24  1  0
 24 25  2  0
 25 26  1  0
 25 27  1  0
 27 28  2  0
 28 29  1  0
 29 30  2  0
 12  7  1  0
 19 14  1  0
 30 20  1  0
 29 23  1  0
  3 31  1  0
  4 32  1  0
  4 33  1  0
  8 34  1  0
  8 35  1  0
  9 36  1  0
  9 37  1  0
 10 38  1  0
 10 39  1  0
 11 40  1  0
 11 41  1  0
 12 42  1  1
 13 43  1  0
 13 44  1  0
 15 45  1  0
 15 46  1  0
 16 47  1  0
 16 48  1  0
 17 49  1  0
 17 50  1  0
 18 51  1  0
 18 52  1  0
 19 53  1  0
 19 54  1  0
 21 55  1  0
 22 56  1  0
 24 57  1  0
 27 58  1  0
 28 59  1  0
M  END
>  <smiles>  (1) 
O=C(NCC(=O)N1CCCC[C@H]1CN1CCCCC1)c1ccc2cc(Cl)ccc2n1

>  <score_type>  (1) 
oracle

>  <origin>  (1) 
autodockgpu

>  <m_score__min__energy>  (1) 
-8.6699999999999999

>  <m_primary>  (1) 
energy

>  <rmsd>  (1) 
1.8577803723969109

>  <m_score__min__rmsd>  (1) 
1.8577803723969109

>  <meeko>  (1) 
{"free_energy": -8.33, "intermolecular_energy": -10.12, "internal_energy": -1.54, "cluster_size": 34, "cluster_id": 1, "rank_in_cluster": 13}

>  <energy>  (1) 
-8.67

>  <cluster_rmsd>  (1) 
0.0

>  <cluster>  (1) 
1

$$$$

     RDKit          3D

 59 62  0  0  0  0  0  0  0  0999 V2000
  134.7260   68.6730  225.5200 O   0  0  0  0  0  0  0  0  0  0  0  0
  134.9120   69.8590  225.1220 C   0  0  0  0  0  0  0  0  0  0  0  0
  135.8390   70.0280  224.0550 N   0  0  0  0  0  0  0  0  0  0  0  0
  136.5290   68.9020  223.4610 C   0  0  0  0  0  0  0  0  0  0  0  0
  137.9990   68.9930  223.6520 C   0  0  0  0  0  0  0  0  0  0  0  0
  138.6500   68.0030  224.0780 O   0  0  0  0  0  0  0  0  0  0  0  0
  138.6190   70.2320  223.3340 N   0  0  0  0  0  0  0  0  0  0  0  0
  138.0340   71.2070  222.4330 C   0  0  0  0  0  0  0  0  0  0  0  0
  138.9710   71.5630  221.3060 C   0  0  0  0  0  0  0  0  0  0  0  0
  140.4090   71.5190  221.6900 C   0  0  0  0  0  0  0  0  0  0  0  0
  140.6700   71.5610  223.1650 C   0  0  0  0  0  0  0  0  0  0  0  0
  139.9000   70.5330  223.9460 C   0  0  1  0  0  0  0  0  0  0  0  0
  139.5930   71.1240  225.3050 C   0  0  0  0  0  0  0  0  0  0  0  0
  139.7480   70.1300  226.3780 N   0  0  0  0  0  0  0  0  0  0  0  0
  140.6290   69.0580  225.9510 C   0  0  0  0  0  0  0  0  0  0  0  0
  140.4840   67.9130  226.9340 C   0  0  0  0  0  0  0  0  0  0  0  0
  140.4710   68.4220  228.3650 C   0  0  0  0  0  0  0  0  0  0  0  0
  141.0980   69.8020  228.3390 C   0  0  0  0  0  0  0  0  0  0  0  0
  140.1850   70.7430  227.5980 C   0  0  0  0  0  0  0  0  0  0  0  0
  134.2220   71.0060  225.7120 C   0  0  0  0  0  0  0  0  0  0  0  0
  133.1800   70.7550  226.5810 C   0  0  0  0  0  0  0  0  0  0  0  0
  132.4670   71.7630  227.1890 C   0  0  0  0  0  0  0  0  0  0  0  0
  132.8290   73.0630  226.9010 C   0  0  0  0  0  0  0  0  0  0  0  0
  132.1400   74.1000  227.4890 C   0  0  0  0  0  0  0  0  0  0  0  0
  132.4850   75.4060  227.2170 C   0  0  0  0  0  0  0  0  0  0  0  0
  131.5970   76.7040  227.9760 Cl  0  0  0  0  0  0  0  0  0  0  0  0
  133.5300   75.6340  226.3460 C   0  0  0  0  0  0  0  0  0  0  0  0
  134.2220   74.5970  225.7550 C   0  0  0  0  0  0  0  0  0  0  0  0
  133.8800   73.2850  226.0250 C   0  0  0  0  0  0  0  0  0  0  0  0
  134.5610   72.2790  225.4440 N   0  0  0  0  0  0  0  0  0  0  0  0
  136.0030   71.0220  223.7120 H   0  0  0  0  0  0  0  0  0  0  0  0
  136.1659   67.9749  223.9286 H   0  0  0  0  0  0  0  0  0  0  0  0
  136.3236   68.9064  222.3804 H   0  0  0  0  0  0  0  0  0  0  0  0
  137.1093   70.7892  222.0084 H   0  0  0  0  0  0  0  0  0  0  0  0
  137.8278   72.1221  223.0075 H   0  0  0  0  0  0  0  0  0  0  0  0
  138.8093   70.8528  220.4817 H   0  0  0  0  0  0  0  0  0  0  0  0
  138.7464   72.5998  221.0150 H   0  0  0  0  0  0  0  0  0  0  0  0
  140.8403   70.5882  221.2931 H   0  0  0  0  0  0  0  0  0  0  0  0
  140.8683   72.4258  221.2696 H   0  0  0  0  0  0  0  0  0  0  0  0
  141.7438   71.3911  223.3323 H   0  0  0  0  0  0  0  0  0  0  0  0
  140.3398   72.5480  223.5212 H   0  0  0  0  0  0  0  0  0  0  0  0
  140.5062   69.6163  223.9918 H   0  0  0  0  0  0  0  0  0  0  0  0
  140.2807   71.9617  225.4930 H   0  0  0  0  0  0  0  0  0  0  0  0
  138.5473   71.4654  225.3022 H   0  0  0  0  0  0  0  0  0  0  0  0
  140.3466   68.7221  224.9423 H   0  0  0  0  0  0  0  0  0  0  0  0
  141.6714   69.4082  225.9232 H   0  0  0  0  0  0  0  0  0  0  0  0
  139.5415   67.3830  226.7322 H   0  0  0  0  0  0  0  0  0  0  0  0
  141.3415   67.2351  226.8111 H   0  0  0  0  0  0  0  0  0  0  0  0
  139.4377   68.4815  228.7374 H   0  0  0  0  0  0  0  0  0  0  0  0
  141.0266   67.7461  229.0317 H   0  0  0  0  0  0  0  0  0  0  0  0
  141.2407   70.1615  229.3688 H   0  0  0  0  0  0  0  0  0  0  0  0
  142.0738   69.7567  227.8333 H   0  0  0  0  0  0  0  0  0  0  0  0
  139.3111   70.9741  228.2248 H   0  0  0  0  0  0  0  0  0  0  0  0
  140.7282   71.6709  227.3658 H   0  0  0  0  0  0  0  0  0  0  0  0
  132.9092   69.7107  226.7957 H   0  0  0  0  0  0  0  0  0  0  0  0
  131.6395   71.5406  227.8788 H   0  0  0  0  0  0  0  0  0  0  0  0
  131.3106   73.8850  228.1788 H   0  0  0  0  0  0  0  0  0  0  0  0
  133.8193   76.6702  226.1165 H   0  0  0  0  0  0  0  0  0  0  0  0
  135.0505   74.8154  225.0651 H   0  0  0  0  0  0  0  0  0  0  0  0
  1  2  2  0
  2  3  1  0
  3  4  1  0
  4  5  1  0
  5  6  2  0
  5  7  1  0
  7  8  1  0
  8  9  1  0
  9 10  1  0
 10 11  1  0
 11 12  1  0
 12 13  1  0
 13 14  1  0
 14 15  1  0
 15 16  1  0
 16 17  1  0
 17 18  1  0
 18 19  1  0
  2 20  1  0
 20 21  2  0
 21 22  1  0
 22 23  2  0
 23 24  1  0
 24 25  2  0
 25 26  1  0
 25 27  1  0
 27 28  2  0
 28 29  1  0
 29 30  2  0
 12  7  1  0
 19 14  1  0
 30 20  1  0
 29 23  1  0
  3 31  1  0
  4 32  1  0
  4 33  1  0
  8 34  1  0
  8 35  1  0
  9 36  1  0
  9 37  1  0
 10 38  1  0
 10 39  1  0
 11 40  1  0
 11 41  1  0
 12 42  1  1
 13 43  1  0
 13 44  1  0
 15 45  1  0
 15 46  1  0
 16 47  1  0
 16 48  1  0
 17 49  1  0
 17 50  1  0
 18 51  1  0
 18 52  1  0
 19 53  1  0
 19 54  1  0
 21 55  1  0
 22 56  1  0
 24 57  1  0
 27 58  1  0
 28 59  1  0
M  END
>  <smiles>  (2) 
O=C(NCC(=O)N1CCCC[C@H]1CN1CCCCC1)c1ccc2cc(Cl)ccc2n1

>  <score_type>  (2) 
oracle

>  <origin>  (2) 
autodockgpu

>  <m_score__min__energy>  (2) 
-8.6699999999999999

>  <m_primary>  (2) 
energy

>  <rmsd>  (2) 
8.80376941625613

>  <m_score__min__rmsd>  (2) 
8.80376941625613

>  <meeko>  (2) 
{"free_energy": -7.86, "intermolecular_energy": -9.65, "internal_energy": -1.9, "cluster_size": 2, "cluster_id": 4, "rank_in_cluster": 1}

>  <energy>  (2) 
-8.63

>  <cluster_rmsd>  (2) 
0.54

>  <cluster>  (2) 
1

$$$$

     RDKit          3D

 59 62  0  0  0  0  0  0  0  0999 V2000
  136.0700   71.5560  222.9590 O   0  0  0  0  0  0  0  0  0  0  0  0
  136.1670   72.7740  223.2880 C   0  0  0  0  0  0  0  0  0  0  0  0
  137.2090   73.5140  222.6630 N   0  0  0  0  0  0  0  0  0  0  0  0
  138.1070   72.9040  221.7040 C   0  0  0  0  0  0  0  0  0  0  0  0
  139.3320   72.3750  222.3550 C   0  0  0  0  0  0  0  0  0  0  0  0
  140.3840   73.0660  222.3960 O   0  0  0  0  0  0  0  0  0  0  0  0
  139.2560   71.0710  222.9190 N   0  0  0  0  0  0  0  0  0  0  0  0
  139.5930   69.8670  222.1850 C   0  0  0  0  0  0  0  0  0  0  0  0
  138.4580   68.8730  222.1850 C   0  0  0  0  0  0  0  0  0  0  0  0
  137.6350   68.9080  223.4260 C   0  0  0  0  0  0  0  0  0  0  0  0
  138.2890   69.5730  224.5980 C   0  0  0  0  0  0  0  0  0  0  0  0
  138.8210   70.9460  224.2970 C   0  0  1  0  0  0  0  0  0  0  0  0
  140.0520   71.1600  225.1520 C   0  0  0  0  0  0  0  0  0  0  0  0
  140.1390   70.1720  226.2380 N   0  0  0  0  0  0  0  0  0  0  0  0
  141.1750   69.1960  225.9510 C   0  0  0  0  0  0  0  0  0  0  0  0
  140.9950   68.0290  226.9020 C   0  0  0  0  0  0  0  0  0  0  0  0
  140.7160   68.5150  228.3150 C   0  0  0  0  0  0  0  0  0  0  0  0
  141.2030   69.9490  228.3820 C   0  0  0  0  0  0  0  0  0  0  0  0
  140.3250   70.8080  227.5090 C   0  0  0  0  0  0  0  0  0  0  0  0
  135.2680   73.4030  224.2540 C   0  0  0  0  0  0  0  0  0  0  0  0
  134.5190   72.5810  225.0710 C   0  0  0  0  0  0  0  0  0  0  0  0
  133.6430   73.0740  226.0120 C   0  0  0  0  0  0  0  0  0  0  0  0
  133.5310   74.4440  226.1220 C   0  0  0  0  0  0  0  0  0  0  0  0
  132.6660   74.9760  227.0520 C   0  0  0  0  0  0  0  0  0  0  0  0
  132.5380   76.3420  227.1790 C   0  0  0  0  0  0  0  0  0  0  0  0
  131.4350   76.9940  228.3660 Cl  0  0  0  0  0  0  0  0  0  0  0  0
  133.2970   77.1470  226.3530 C   0  0  0  0  0  0  0  0  0  0  0  0
  134.1640   76.6160  225.4210 C   0  0  0  0  0  0  0  0  0  0  0  0
  134.2950   75.2460  225.2890 C   0  0  0  0  0  0  0  0  0  0  0  0
  135.1450   74.7370  224.3760 N   0  0  0  0  0  0  0  0  0  0  0  0
  137.3000   74.5390  222.9320 H   0  0  0  0  0  0  0  0  0  0  0  0
  137.5840   72.0760  221.2031 H   0  0  0  0  0  0  0  0  0  0  0  0
  138.4100   73.6753  220.9806 H   0  0  0  0  0  0  0  0  0  0  0  0
  139.8284   70.1383  221.1453 H   0  0  0  0  0  0  0  0  0  0  0  0
  140.4576   69.3978  222.6773 H   0  0  0  0  0  0  0  0  0  0  0  0
  137.8042   69.0916  221.3278 H   0  0  0  0  0  0  0  0  0  0  0  0
  138.9069   67.8706  222.1237 H   0  0  0  0  0  0  0  0  0  0  0  0
  136.7031   69.4482  223.2029 H   0  0  0  0  0  0  0  0  0  0  0  0
  137.4718   67.8600  223.7175 H   0  0  0  0  0  0  0  0  0  0  0  0
  137.5481   69.6577  225.4067 H   0  0  0  0  0  0  0  0  0  0  0  0
  139.1507   68.9502  224.8801 H   0  0  0  0  0  0  0  0  0  0  0  0
  138.0180   71.6718  224.4928 H   0  0  0  0  0  0  0  0  0  0  0  0
  140.9463   71.0719  224.5176 H   0  0  0  0  0  0  0  0  0  0  0  0
  139.9858   72.1608  225.6037 H   0  0  0  0  0  0  0  0  0  0  0  0
  141.0827   68.8482  224.9115 H   0  0  0  0  0  0  0  0  0  0  0  0
  142.1705   69.6455  226.0815 H   0  0  0  0  0  0  0  0  0  0  0  0
  140.1499   67.4135  226.5600 H   0  0  0  0  0  0  0  0  0  0  0  0
  141.9231   67.4387  226.9116 H   0  0  0  0  0  0  0  0  0  0  0  0
  139.6374   68.4699  228.5262 H   0  0  0  0  0  0  0  0  0  0  0  0
  141.2268   67.8866  229.0595 H   0  0  0  0  0  0  0  0  0  0  0  0
  141.1529   70.3071  229.4209 H   0  0  0  0  0  0  0  0  0  0  0  0
  142.2438   70.0043  228.0302 H   0  0  0  0  0  0  0  0  0  0  0  0
  139.3481   70.9458  227.9956 H   0  0  0  0  0  0  0  0  0  0  0  0
  140.8044   71.7868  227.3604 H   0  0  0  0  0  0  0  0  0  0  0  0
  134.6257   71.4912  224.9666 H   0  0  0  0  0  0  0  0  0  0  0  0
  133.0545   72.4002  226.6521 H   0  0  0  0  0  0  0  0  0  0  0  0
  132.0751   74.3080  227.6959 H   0  0  0  0  0  0  0  0  0  0  0  0
  133.2079   78.2399  226.4405 H   0  0  0  0  0  0  0  0  0  0  0  0
  134.7546   77.2862  224.7791 H   0  0  0  0  0  0  0  0  0  0  0  0
  1  2  2  0
  2  3  1  0
  3  4  1  0
  4  5  1  0
  5  6  2  0
  5  7  1  0
  7  8  1  0
  8  9  1  0
  9 10  1  0
 10 11  1  0
 11 12  1  0
 12 13  1  0
 13 14  1  0
 14 15  1  0
 15 16  1  0
 16 17  1  0
 17 18  1  0
 18 19  1  0
  2 20  1  0
 20 21  2  0
 21 22  1  0
 22 23  2  0
 23 24  1  0
 24 25  2  0
 25 26  1  0
 25 27  1  0
 27 28  2  0
 28 29  1  0
 29 30  2  0
 12  7  1  0
 19 14  1  0
 30 20  1  0
 29 23  1  0
  3 31  1  0
  4 32  1  0
  4 33  1  0
  8 34  1  0
  8 35  1  0
  9 36  1  0
  9 37  1  0
 10 38  1  0
 10 39  1  0
 11 40  1  0
 11 41  1  0
 12 42  1  1
 13 43  1  0
 13 44  1  0
 15 45  1  0
 15 46  1  0
 16 47  1  0
 16 48  1  0
 17 49  1  0
 17 50  1  0
 18 51  1  0
 18 52  1  0
 19 53  1  0
 19 54  1  0
 21 55  1  0
 22 56  1  0
 24 57  1  0
 27 58  1  0
 28 59  1  0
M  END
>  <smiles>  (3) 
O=C(NCC(=O)N1CCCC[C@H]1CN1CCCCC1)c1ccc2cc(Cl)ccc2n1

>  <score_type>  (3) 
oracle

>  <origin>  (3) 
autodockgpu

>  <m_score__min__energy>  (3) 
-8.6699999999999999

>  <m_primary>  (3) 
energy

>  <rmsd>  (3) 
8.881123922857672

>  <m_score__min__rmsd>  (3) 
8.881123922857672

>  <meeko>  (3) 
{"free_energy": -7.57, "intermolecular_energy": -9.36, "internal_energy": -2.1, "cluster_size": 2, "cluster_id": 4, "rank_in_cluster": 2}

>  <energy>  (3) 
-8.63

>  <cluster_rmsd>  (3) 
0.39

>  <cluster>  (3) 
1

$$$$

     RDKit          3D

 59 62  0  0  0  0  0  0  0  0999 V2000
  140.4890   72.0410  221.0010 O   0  0  0  0  0  0  0  0  0  0  0  0
  139.9570   72.3440  222.1090 C   0  0  0  0  0  0  0  0  0  0  0  0
  139.2710   73.5890  222.1600 N   0  0  0  0  0  0  0  0  0  0  0  0
  139.1890   74.4610  221.0060 C   0  0  0  0  0  0  0  0  0  0  0  0
  139.9050   75.7420  221.2310 C   0  0  0  0  0  0  0  0  0  0  0  0
  139.8830   76.2960  222.3620 O   0  0  0  0  0  0  0  0  0  0  0  0
  140.6020   76.3000  220.1240 N   0  0  0  0  0  0  0  0  0  0  0  0
  140.3810   75.8820  218.7540 C   0  0  0  0  0  0  0  0  0  0  0  0
  141.6610   75.4390  218.0890 C   0  0  0  0  0  0  0  0  0  0  0  0
  142.8660   76.1710  218.5690 C   0  0  0  0  0  0  0  0  0  0  0  0
  142.5810   77.4640  219.2710 C   0  0  0  0  0  0  0  0  0  0  0  0
  141.5790   77.3400  220.3850 C   0  0  1  0  0  0  0  0  0  0  0  0
  140.8070   78.6400  220.4540 C   0  0  0  0  0  0  0  0  0  0  0  0
  141.1350   79.4050  221.6670 N   0  0  0  0  0  0  0  0  0  0  0  0
  141.4390   78.5050  222.7640 C   0  0  0  0  0  0  0  0  0  0  0  0
  141.4290   79.3110  224.0490 C   0  0  0  0  0  0  0  0  0  0  0  0
  142.1560   80.6340  223.8660 C   0  0  0  0  0  0  0  0  0  0  0  0
  143.0490   80.4720  222.6530 C   0  0  0  0  0  0  0  0  0  0  0  0
  142.1900   80.3440  221.4220 C   0  0  0  0  0  0  0  0  0  0  0  0
  140.0310   71.4730  223.2820 C   0  0  0  0  0  0  0  0  0  0  0  0
  139.5690   70.1790  223.1560 C   0  0  0  0  0  0  0  0  0  0  0  0
  139.5940   69.2810  224.1990 C   0  0  0  0  0  0  0  0  0  0  0  0
  140.1060   69.7180  225.4030 C   0  0  0  0  0  0  0  0  0  0  0  0
  140.1490   68.8500  226.4710 C   0  0  0  0  0  0  0  0  0  0  0  0
  140.6570   69.2640  227.6830 C   0  0  0  0  0  0  0  0  0  0  0  0
  140.7010   68.1450  229.0230 Cl  0  0  0  0  0  0  0  0  0  0  0  0
  141.1140   70.5620  227.7870 C   0  0  0  0  0  0  0  0  0  0  0  0
  141.0720   71.4340  226.7190 C   0  0  0  0  0  0  0  0  0  0  0  0
  140.5630   71.0220  225.5010 C   0  0  0  0  0  0  0  0  0  0  0  0
  140.5270   71.8810  224.4640 N   0  0  0  0  0  0  0  0  0  0  0  0
  138.8200   73.8530  223.0860 H   0  0  0  0  0  0  0  0  0  0  0  0
  139.6368   73.9499  220.1410 H   0  0  0  0  0  0  0  0  0  0  0  0
  138.1284   74.6894  220.8247 H   0  0  0  0  0  0  0  0  0  0  0  0
  139.6684   75.0441  218.7481 H   0  0  0  0  0  0  0  0  0  0  0  0
  139.9852   76.7421  218.1941 H   0  0  0  0  0  0  0  0  0  0  0  0
  141.8033   74.3665  218.2880 H   0  0  0  0  0  0  0  0  0  0  0  0
  141.5585   75.6550  217.0153 H   0  0  0  0  0  0  0  0  0  0  0  0
  143.4084   75.5158  219.2665 H   0  0  0  0  0  0  0  0  0  0  0  0
  143.4479   76.4289  217.6719 H   0  0  0  0  0  0  0  0  0  0  0  0
  143.5229   77.8452  219.6922 H   0  0  0  0  0  0  0  0  0  0  0  0
  142.1481   78.1460  218.5243 H   0  0  0  0  0  0  0  0  0  0  0  0
  142.1253   77.1028  221.3098 H   0  0  0  0  0  0  0  0  0  0  0  0
  141.0540   79.2483  219.5714 H   0  0  0  0  0  0  0  0  0  0  0  0
  139.7338   78.4000  220.4802 H   0  0  0  0  0  0  0  0  0  0  0  0
  140.6801   77.7104  222.8160 H   0  0  0  0  0  0  0  0  0  0  0  0
  142.4237   78.0385  222.6135 H   0  0  0  0  0  0  0  0  0  0  0  0
  140.3873   79.5100  224.3411 H   0  0  0  0  0  0  0  0  0  0  0  0
  141.9436   78.7326  224.8304 H   0  0  0  0  0  0  0  0  0  0  0  0
  141.4320   81.4451  223.6989 H   0  0  0  0  0  0  0  0  0  0  0  0
  142.7433   80.8913  224.7598 H   0  0  0  0  0  0  0  0  0  0  0  0
  143.7023   81.3517  222.5564 H   0  0  0  0  0  0  0  0  0  0  0  0
  143.6694   79.5709  222.7673 H   0  0  0  0  0  0  0  0  0  0  0  0
  141.7572   81.3244  221.1741 H   0  0  0  0  0  0  0  0  0  0  0  0
  142.8059   79.9903  220.5821 H   0  0  0  0  0  0  0  0  0  0  0  0
  139.1657   69.8528  222.1860 H   0  0  0  0  0  0  0  0  0  0  0  0
  139.2198   68.2538  224.0770 H   0  0  0  0  0  0  0  0  0  0  0  0
  139.7762   67.8215  226.3561 H   0  0  0  0  0  0  0  0  0  0  0  0
  141.5226   70.9105  228.7470 H   0  0  0  0  0  0  0  0  0  0  0  0
  141.4452   72.4620  226.8367 H   0  0  0  0  0  0  0  0  0  0  0  0
  1  2  2  0
  2  3  1  0
  3  4  1  0
  4  5  1  0
  5  6  2  0
  5  7  1  0
  7  8  1  0
  8  9  1  0
  9 10  1  0
 10 11  1  0
 11 12  1  0
 12 13  1  0
 13 14  1  0
 14 15  1  0
 15 16  1  0
 16 17  1  0
 17 18  1  0
 18 19  1  0
  2 20  1  0
 20 21  2  0
 21 22  1  0
 22 23  2  0
 23 24  1  0
 24 25  2  0
 25 26  1  0
 25 27  1  0
 27 28  2  0
 28 29  1  0
 29 30  2  0
 12  7  1  0
 19 14  1  0
 30 20  1  0
 29 23  1  0
  3 31  1  0
  4 32  1  0
  4 33  1  0
  8 34  1  0
  8 35  1  0
  9 36  1  0
  9 37  1  0
 10 38  1  0
 10 39  1  0
 11 40  1  0
 11 41  1  0
 12 42  1  1
 13 43  1  0
 13 44  1  0
 15 45  1  0
 15 46  1  0
 16 47  1  0
 16 48  1  0
 17 49  1  0
 17 50  1  0
 18 51  1  0
 18 52  1  0
 19 53  1  0
 19 54  1  0
 21 55  1  0
 22 56  1  0
 24 57  1  0
 27 58  1  0
 28 59  1  0
M  END
>  <smiles>  (4) 
O=C(NCC(=O)N1CCCC[C@H]1CN1CCCCC1)c1ccc2cc(Cl)ccc2n1

>  <score_type>  (4) 
oracle

>  <origin>  (4) 
autodockgpu

>  <m_score__min__energy>  (4) 
-8.6699999999999999

>  <m_primary>  (4) 
energy

>  <rmsd>  (4) 
1.9494351349529653

>  <m_score__min__rmsd>  (4) 
1.9494351349529653

>  <meeko>  (4) 
{"free_energy": -8.67, "intermolecular_energy": -10.46, "internal_energy": -1.57, "cluster_size": 34, "cluster_id": 1, "rank_in_cluster": 1}

>  <energy>  (4) 
-8.62

>  <cluster_rmsd>  (4) 
0.57

>  <cluster>  (4) 
1

$$$$

     RDKit          3D

 59 62  0  0  0  0  0  0  0  0999 V2000
  136.6730   77.5010  222.7590 O   0  0  0  0  0  0  0  0  0  0  0  0
  136.8790   76.2930  223.0720 C   0  0  0  0  0  0  0  0  0  0  0  0
  138.1190   75.7350  222.6510 N   0  0  0  0  0  0  0  0  0  0  0  0
  139.0890   76.5110  221.9060 C   0  0  0  0  0  0  0  0  0  0  0  0
  140.2240   75.6740  221.4410 C   0  0  0  0  0  0  0  0  0  0  0  0
  140.5460   74.6290  222.0670 O   0  0  0  0  0  0  0  0  0  0  0  0
  140.9150   76.1070  220.2760 N   0  0  0  0  0  0  0  0  0  0  0  0
  140.6180   75.6100  218.9460 C   0  0  0  0  0  0  0  0  0  0  0  0
  141.8420   75.0390  218.2750 C   0  0  0  0  0  0  0  0  0  0  0  0
  143.1080   75.7210  218.6630 C   0  0  0  0  0  0  0  0  0  0  0  0
  142.9320   77.0750  219.2790 C   0  0  0  0  0  0  0  0  0  0  0  0
  141.9650   77.0950  220.4310 C   0  0  1  0  0  0  0  0  0  0  0  0
  141.2810   78.4450  220.4310 C   0  0  0  0  0  0  0  0  0  0  0  0
  141.7810   79.3090  221.5120 N   0  0  0  0  0  0  0  0  0  0  0  0
  141.0450   80.5600  221.5400 C   0  0  0  0  0  0  0  0  0  0  0  0
  141.8080   81.5330  222.4190 C   0  0  0  0  0  0  0  0  0  0  0  0
  142.2910   80.8540  223.6890 C   0  0  0  0  0  0  0  0  0  0  0  0
  141.4360   79.6160  223.8700 C   0  0  0  0  0  0  0  0  0  0  0  0
  141.7560   78.6330  222.7750 C   0  0  0  0  0  0  0  0  0  0  0  0
  135.9100   75.4980  223.8240 C   0  0  0  0  0  0  0  0  0  0  0  0
  135.7670   74.1660  223.4900 C   0  0  0  0  0  0  0  0  0  0  0  0
  134.8840   73.3320  224.1360 C   0  0  0  0  0  0  0  0  0  0  0  0
  134.1250   73.8740  225.1530 C   0  0  0  0  0  0  0  0  0  0  0  0
  133.2290   73.0730  225.8250 C   0  0  0  0  0  0  0  0  0  0  0  0
  132.4610   73.5920  226.8440 C   0  0  0  0  0  0  0  0  0  0  0  0
  131.3320   72.5550  227.6820 Cl  0  0  0  0  0  0  0  0  0  0  0  0
  132.6190   74.9250  227.1630 C   0  0  0  0  0  0  0  0  0  0  0  0
  133.5160   75.7300  226.4910 C   0  0  0  0  0  0  0  0  0  0  0  0
  134.2880   75.2130  225.4680 C   0  0  0  0  0  0  0  0  0  0  0  0
  135.1610   76.0070  224.8190 N   0  0  0  0  0  0  0  0  0  0  0  0
  138.3020   74.7200  222.9090 H   0  0  0  0  0  0  0  0  0  0  0  0
  138.5928   76.9561  221.0310 H   0  0  0  0  0  0  0  0  0  0  0  0
  139.4886   77.2898  222.5722 H   0  0  0  0  0  0  0  0  0  0  0  0
  139.8539   74.8224  219.0226 H   0  0  0  0  0  0  0  0  0  0  0  0
  140.2572   76.4532  218.3387 H   0  0  0  0  0  0  0  0  0  0  0  0
  141.9227   73.9759  218.5456 H   0  0  0  0  0  0  0  0  0  0  0  0
  141.7148   75.1869  217.1924 H   0  0  0  0  0  0  0  0  0  0  0  0
  143.6324   75.0813  219.3881 H   0  0  0  0  0  0  0  0  0  0  0  0
  143.6723   75.8768  217.7317 H   0  0  0  0  0  0  0  0  0  0  0  0
  143.9111   77.4213  219.6416 H   0  0  0  0  0  0  0  0  0  0  0  0
  142.5166   77.7308  218.4997 H   0  0  0  0  0  0  0  0  0  0  0  0
  142.5281   76.8865  221.3527 H   0  0  0  0  0  0  0  0  0  0  0  0
  141.4666   78.9385  219.4656 H   0  0  0  0  0  0  0  0  0  0  0  0
  140.2047   78.2838  220.5912 H   0  0  0  0  0  0  0  0  0  0  0  0
  140.9593   80.9656  220.5211 H   0  0  0  0  0  0  0  0  0  0  0  0
  140.0322   80.3988  221.9379 H   0  0  0  0  0  0  0  0  0  0  0  0
  142.6765   81.9156  221.8628 H   0  0  0  0  0  0  0  0  0  0  0  0
  141.1348   82.3576  222.6962 H   0  0  0  0  0  0  0  0  0  0  0  0
  143.3498   80.5729  223.5899 H   0  0  0  0  0  0  0  0  0  0  0  0
  142.2046   81.5260  224.5556 H   0  0  0  0  0  0  0  0  0  0  0  0
  141.6495   79.1604  224.8482 H   0  0  0  0  0  0  0  0  0  0  0  0
  140.3717   79.8900  223.8232 H   0  0  0  0  0  0  0  0  0  0  0  0
  142.7397   78.1795  222.9666 H   0  0  0  0  0  0  0  0  0  0  0  0
  140.9856   77.8482  222.7531 H   0  0  0  0  0  0  0  0  0  0  0  0
  136.3828   73.7558  222.6760 H   0  0  0  0  0  0  0  0  0  0  0  0
  134.7867   72.2736  223.8527 H   0  0  0  0  0  0  0  0  0  0  0  0
  133.1260   72.0137  225.5468 H   0  0  0  0  0  0  0  0  0  0  0  0
  132.0143   75.3572  227.9739 H   0  0  0  0  0  0  0  0  0  0  0  0
  133.6171   76.7889  226.7711 H   0  0  0  0  0  0  0  0  0  0  0  0
  1  2  2  0
  2  3  1  0
  3  4  1  0
  4  5  1  0
  5  6  2  0
  5  7  1  0
  7  8  1  0
  8  9  1  0
  9 10  1  0
 10 11  1  0
 11 12  1  0
 12 13  1  0
 13 14  1  0
 14 15  1  0
 15 16  1  0
 16 17  1  0
 17 18  1  0
 18 19  1  0
  2 20  1  0
 20 21  2  0
 21 22  1  0
 22 23  2  0
 23 24  1  0
 24 25  2  0
 25 26  1  0
 25 27  1  0
 27 28  2  0
 28 29  1  0
 29 30  2  0
 12  7  1  0
 19 14  1  0
 30 20  1  0
 29 23  1  0
  3 31  1  0
  4 32  1  0
  4 33  1  0
  8 34  1  0
  8 35  1  0
  9 36  1  0
  9 37  1  0
 10 38  1  0
 10 39  1  0
 11 40  1  0
 11 41  1  0
 12 42  1  1
 13 43  1  0
 13 44  1  0
 15 45  1  0
 15 46  1  0
 16 47  1  0
 16 48  1  0
 17 49  1  0
 17 50  1  0
 18 51  1  0
 18 52  1  0
 19 53  1  0
 19 54  1  0
 21 55  1  0
 22 56  1  0
 24 57  1  0
 27 58  1  0
 28 59  1  0
M  END
>  <smiles>  (5) 
O=C(NCC(=O)N1CCCC[C@H]1CN1CCCCC1)c1ccc2cc(Cl)ccc2n1

>  <score_type>  (5) 
oracle

>  <origin>  (5) 
autodockgpu

>  <m_score__min__energy>  (5) 
-8.6699999999999999

>  <m_primary>  (5) 
energy

>  <rmsd>  (5) 
5.182052024750395

>  <m_score__min__rmsd>  (5) 
5.182052024750395

>  <meeko>  (5) 
{"free_energy": -7.7, "intermolecular_energy": -9.49, "internal_energy": -1.76, "cluster_size": 5, "cluster_id": 5, "rank_in_cluster": 1}

>  <energy>  (5) 
-8.53

>  <cluster_rmsd>  (5) 
1.08

>  <cluster>  (5) 
1

$$$$

     RDKit          3D

 59 62  0  0  0  0  0  0  0  0999 V2000
  138.5820   71.7340  221.1320 O   0  0  0  0  0  0  0  0  0  0  0  0
  139.3420   72.0950  222.0770 C   0  0  0  0  0  0  0  0  0  0  0  0
  139.9500   73.3750  221.9430 N   0  0  0  0  0  0  0  0  0  0  0  0
  139.7110   74.2140  220.7870 C   0  0  0  0  0  0  0  0  0  0  0  0
  140.0870   75.6270  221.0440 C   0  0  0  0  0  0  0  0  0  0  0  0
  139.9380   76.1300  222.1900 O   0  0  0  0  0  0  0  0  0  0  0  0
  140.6140   76.3680  219.9510 N   0  0  0  0  0  0  0  0  0  0  0  0
  140.3620   76.0270  218.5650 C   0  0  0  0  0  0  0  0  0  0  0  0
  141.6430   75.8370  217.7910 C   0  0  0  0  0  0  0  0  0  0  0  0
  142.7570   76.7060  218.2610 C   0  0  0  0  0  0  0  0  0  0  0  0
  142.3350   77.8830  219.0880 C   0  0  0  0  0  0  0  0  0  0  0  0
  141.4430   77.5220  220.2430 C   0  0  1  0  0  0  0  0  0  0  0  0
  140.4940   78.6800  220.4690 C   0  0  0  0  0  0  0  0  0  0  0  0
  140.7950   79.3940  221.7200 N   0  0  0  0  0  0  0  0  0  0  0  0
  141.8040   78.6780  222.4800 C   0  0  0  0  0  0  0  0  0  0  0  0
  141.8260   79.2510  223.8840 C   0  0  0  0  0  0  0  0  0  0  0  0
  141.7670   80.7690  223.8540 C   0  0  0  0  0  0  0  0  0  0  0  0
  142.2050   81.1910  222.4660 C   0  0  0  0  0  0  0  0  0  0  0  0
  141.1650   80.7550  221.4670 C   0  0  0  0  0  0  0  0  0  0  0  0
  139.5930   71.2590  223.2500 C   0  0  0  0  0  0  0  0  0  0  0  0
  139.2540   69.9230  223.1750 C   0  0  0  0  0  0  0  0  0  0  0  0
  139.4490   69.0520  224.2230 C   0  0  0  0  0  0  0  0  0  0  0  0
  140.0060   69.5600  225.3780 C   0  0  0  0  0  0  0  0  0  0  0  0
  140.2170   68.7210  226.4500 C   0  0  0  0  0  0  0  0  0  0  0  0
  140.7730   69.2060  227.6130 C   0  0  0  0  0  0  0  0  0  0  0  0
  141.0320   68.1220  228.9580 Cl  0  0  0  0  0  0  0  0  0  0  0  0
  141.1050   70.5440  227.6670 C   0  0  0  0  0  0  0  0  0  0  0  0
  140.8940   71.3880  226.5950 C   0  0  0  0  0  0  0  0  0  0  0  0
  140.3370   70.9050  225.4260 C   0  0  0  0  0  0  0  0  0  0  0  0
  140.1350   71.7350  224.3850 N   0  0  0  0  0  0  0  0  0  0  0  0
  140.5910   73.6880  222.7320 H   0  0  0  0  0  0  0  0  0  0  0  0
  140.3060   73.8351  219.9429 H   0  0  0  0  0  0  0  0  0  0  0  0
  138.6355   74.1826  220.5583 H   0  0  0  0  0  0  0  0  0  0  0  0
  139.7823   75.0929  218.5282 H   0  0  0  0  0  0  0  0  0  0  0  0
  139.8056   76.8571  218.1052 H   0  0  0  0  0  0  0  0  0  0  0  0
  141.9559   74.7870  217.8885 H   0  0  0  0  0  0  0  0  0  0  0  0
  141.4342   76.1157  216.7476 H   0  0  0  0  0  0  0  0  0  0  0  0
  143.4385   76.0902  218.8662 H   0  0  0  0  0  0  0  0  0  0  0  0
  143.2287   77.1182  217.3568 H   0  0  0  0  0  0  0  0  0  0  0  0
  143.2379   78.3696  219.4855 H   0  0  0  0  0  0  0  0  0  0  0  0
  141.7554   78.5469  218.4297 H   0  0  0  0  0  0  0  0  0  0  0  0
  142.0825   77.3007  221.1102 H   0  0  0  0  0  0  0  0  0  0  0  0
  140.5822   79.3827  219.6273 H   0  0  0  0  0  0  0  0  0  0  0  0
  139.4728   78.2775  220.5410 H   0  0  0  0  0  0  0  0  0  0  0  0
  141.5537   77.6075  222.5174 H   0  0  0  0  0  0  0  0  0  0  0  0
  142.7904   78.7891  222.0060 H   0  0  0  0  0  0  0  0  0  0  0  0
  140.9589   78.8683  224.4422 H   0  0  0  0  0  0  0  0  0  0  0  0
  142.7636   78.9465  224.3720 H   0  0  0  0  0  0  0  0  0  0  0  0
  140.7406   81.1130  224.0493 H   0  0  0  0  0  0  0  0  0  0  0  0
  142.4170   81.2070  224.6258 H   0  0  0  0  0  0  0  0  0  0  0  0
  142.3137   82.2850  222.4308 H   0  0  0  0  0  0  0  0  0  0  0  0
  143.1706   80.7230  222.2238 H   0  0  0  0  0  0  0  0  0  0  0  0
  140.2775   81.3985  221.5582 H   0  0  0  0  0  0  0  0  0  0  0  0
  141.5777   80.8381  220.4507 H   0  0  0  0  0  0  0  0  0  0  0  0
  138.8117   69.5402  222.2434 H   0  0  0  0  0  0  0  0  0  0  0  0
  139.1711   67.9908  224.1423 H   0  0  0  0  0  0  0  0  0  0  0  0
  139.9402   67.6589  226.3768 H   0  0  0  0  0  0  0  0  0  0  0  0
  141.5494   70.9489  228.5882 H   0  0  0  0  0  0  0  0  0  0  0  0
  141.1705   72.4499  226.6717 H   0  0  0  0  0  0  0  0  0  0  0  0
  1  2  2  0
  2  3  1  0
  3  4  1  0
  4  5  1  0
  5  6  2  0
  5  7  1  0
  7  8  1  0
  8  9  1  0
  9 10  1  0
 10 11  1  0
 11 12  1  0
 12 13  1  0
 13 14  1  0
 14 15  1  0
 15 16  1  0
 16 17  1  0
 17 18  1  0
 18 19  1  0
  2 20  1  0
 20 21  2  0
 21 22  1  0
 22 23  2  0
 23 24  1  0
 24 25  2  0
 25 26  1  0
 25 27  1  0
 27 28  2  0
 28 29  1  0
 29 30  2  0
 12  7  1  0
 19 14  1  0
 30 20  1  0
 29 23  1  0
  3 31  1  0
  4 32  1  0
  4 33  1  0
  8 34  1  0
  8 35  1  0
  9 36  1  0
  9 37  1  0
 10 38  1  0
 10 39  1  0
 11 40  1  0
 11 41  1  0
 12 42  1  1
 13 43  1  0
 13 44  1  0
 15 45  1  0
 15 46  1  0
 16 47  1  0
 16 48  1  0
 17 49  1  0
 17 50  1  0
 18 51  1  0
 18 52  1  0
 19 53  1  0
 19 54  1  0
 21 55  1  0
 22 56  1  0
 24 57  1  0
 27 58  1  0
 28 59  1  0
M  END
>  <smiles>  (6) 
O=C(NCC(=O)N1CCCC[C@H]1CN1CCCCC1)c1ccc2cc(Cl)ccc2n1

>  <score_type>  (6) 
oracle

>  <origin>  (6) 
autodockgpu

>  <m_score__min__energy>  (6) 
-8.6699999999999999

>  <m_primary>  (6) 
energy

>  <rmsd>  (6) 
1.812386001298925

>  <m_score__min__rmsd>  (6) 
1.812386001298925

>  <meeko>  (6) 
{"free_energy": -7.78, "intermolecular_energy": -9.57, "internal_energy": -1.8, "cluster_size": 34, "cluster_id": 1, "rank_in_cluster": 29}

>  <energy>  (6) 
-8.52

>  <cluster_rmsd>  (6) 
1.08

>  <cluster>  (6) 
1

$$$$

     RDKit          3D

 59 62  0  0  0  0  0  0  0  0999 V2000
  137.4870   77.4260  222.7020 O   0  0  0  0  0  0  0  0  0  0  0  0
  138.2410   77.5930  221.7000 C   0  0  0  0  0  0  0  0  0  0  0  0
  137.8960   78.6580  220.8220 N   0  0  0  0  0  0  0  0  0  0  0  0
  136.7440   79.5020  221.0640 C   0  0  0  0  0  0  0  0  0  0  0  0
  137.0990   80.7030  221.8610 C   0  0  0  0  0  0  0  0  0  0  0  0
  137.5050   81.7510  221.2920 O   0  0  0  0  0  0  0  0  0  0  0  0
  136.9590   80.6100  223.2730 N   0  0  0  0  0  0  0  0  0  0  0  0
  135.7570   80.1260  223.9230 C   0  0  0  0  0  0  0  0  0  0  0  0
  135.2120   81.1250  224.9130 C   0  0  0  0  0  0  0  0  0  0  0  0
  136.2660   81.9400  225.5780 C   0  0  0  0  0  0  0  0  0  0  0  0
  137.6490   81.3700  225.4980 C   0  0  0  0  0  0  0  0  0  0  0  0
  138.0790   81.0190  224.1000 C   0  0  1  0  0  0  0  0  0  0  0  0
  139.0000   79.8210  224.1910 C   0  0  0  0  0  0  0  0  0  0  0  0
  140.0270   79.8430  223.1380 N   0  0  0  0  0  0  0  0  0  0  0  0
  140.4160   81.2100  222.8410 C   0  0  0  0  0  0  0  0  0  0  0  0
  141.1990   81.2030  221.5420 C   0  0  0  0  0  0  0  0  0  0  0  0
  142.1960   80.0560  221.5140 C   0  0  0  0  0  0  0  0  0  0  0  0
  142.4140   79.6380  222.9540 C   0  0  0  0  0  0  0  0  0  0  0  0
  141.1470   79.0190  223.4840 C   0  0  0  0  0  0  0  0  0  0  0  0
  139.4080   76.7490  221.4430 C   0  0  0  0  0  0  0  0  0  0  0  0
  139.3850   75.4530  221.9170 C   0  0  0  0  0  0  0  0  0  0  0  0
  140.4310   74.5790  221.7280 C   0  0  0  0  0  0  0  0  0  0  0  0
  141.5300   75.0420  221.0350 C   0  0  0  0  0  0  0  0  0  0  0  0
  142.5980   74.1980  220.8250 C   0  0  0  0  0  0  0  0  0  0  0  0
  143.7070   74.6390  220.1350 C   0  0  0  0  0  0  0  0  0  0  0  0
  145.0480   73.5500  219.8810 Cl  0  0  0  0  0  0  0  0  0  0  0  0
  143.7090   75.9380  219.6690 C   0  0  0  0  0  0  0  0  0  0  0  0
  142.6400   76.7850  219.8790 C   0  0  0  0  0  0  0  0  0  0  0  0
  141.5260   76.3470  220.5700 C   0  0  0  0  0  0  0  0  0  0  0  0
  140.4880   77.1820  220.7690 N   0  0  0  0  0  0  0  0  0  0  0  0
  138.5240   78.8070  219.9760 H   0  0  0  0  0  0  0  0  0  0  0  0
  136.3301   79.8255  220.0975 H   0  0  0  0  0  0  0  0  0  0  0  0
  136.0062   78.9186  221.6343 H   0  0  0  0  0  0  0  0  0  0  0  0
  134.9922   79.9311  223.1568 H   0  0  0  0  0  0  0  0  0  0  0  0
  136.0122   79.2071  224.4712 H   0  0  0  0  0  0  0  0  0  0  0  0
  134.5301   81.8050  224.3814 H   0  0  0  0  0  0  0  0  0  0  0  0
  134.7011   80.5526  225.7012 H   0  0  0  0  0  0  0  0  0  0  0  0
  136.2782   82.9335  225.1060 H   0  0  0  0  0  0  0  0  0  0  0  0
  136.0056   81.9683  226.6464 H   0  0  0  0  0  0  0  0  0  0  0  0
  138.3540   82.1114  225.9022 H   0  0  0  0  0  0  0  0  0  0  0  0
  137.6450   80.4348  226.0772 H   0  0  0  0  0  0  0  0  0  0  0  0
  138.5539   81.9066  223.6566 H   0  0  0  0  0  0  0  0  0  0  0  0
  139.4960   79.8264  225.1728 H   0  0  0  0  0  0  0  0  0  0  0  0
  138.3943   78.9121  224.0603 H   0  0  0  0  0  0  0  0  0  0  0  0
  139.5195   81.8381  222.7330 H   0  0  0  0  0  0  0  0  0  0  0  0
  141.0319   81.6176  223.6562 H   0  0  0  0  0  0  0  0  0  0  0  0
  140.4992   81.0921  220.7006 H   0  0  0  0  0  0  0  0  0  0  0  0
  141.7519   82.1504  221.4606 H   0  0  0  0  0  0  0  0  0  0  0  0
  141.7912   79.2152  220.9317 H   0  0  0  0  0  0  0  0  0  0  0  0
  143.1411   80.3628  221.0421 H   0  0  0  0  0  0  0  0  0  0  0  0
  143.2319   78.9042  223.0049 H   0  0  0  0  0  0  0  0  0  0  0  0
  142.6786   80.5174  223.5595 H   0  0  0  0  0  0  0  0  0  0  0  0
  141.0159   78.0196  223.0435 H   0  0  0  0  0  0  0  0  0  0  0  0
  141.2128   78.9337  224.5787 H   0  0  0  0  0  0  0  0  0  0  0  0
  138.4975   75.1058  222.4663 H   0  0  0  0  0  0  0  0  0  0  0  0
  140.3921   73.5500  222.1150 H   0  0  0  0  0  0  0  0  0  0  0  0
  142.5659   73.1679  221.2094 H   0  0  0  0  0  0  0  0  0  0  0  0
  144.5851   76.3077  219.1161 H   0  0  0  0  0  0  0  0  0  0  0  0
  142.6747   77.8149  219.4941 H   0  0  0  0  0  0  0  0  0  0  0  0
  1  2  2  0
  2  3  1  0
  3  4  1  0
  4  5  1  0
  5  6  2  0
  5  7  1  0
  7  8  1  0
  8  9  1  0
  9 10  1  0
 10 11  1  0
 11 12  1  0
 12 13  1  0
 13 14  1  0
 14 15  1  0
 15 16  1  0
 16 17  1  0
 17 18  1  0
 18 19  1  0
  2 20  1  0
 20 21  2  0
 21 22  1  0
 22 23  2  0
 23 24  1  0
 24 25  2  0
 25 26  1  0
 25 27  1  0
 27 28  2  0
 28 29  1  0
 29 30  2  0
 12  7  1  0
 19 14  1  0
 30 20  1  0
 29 23  1  0
  3 31  1  0
  4 32  1  0
  4 33  1  0
  8 34  1  0
  8 35  1  0
  9 36  1  0
  9 37  1  0
 10 38  1  0
 10 39  1  0
 11 40  1  0
 11 41  1  0
 12 42  1  6
 13 43  1  0
 13 44  1  0
 15 45  1  0
 15 46  1  0
 16 47  1  0
 16 48  1  0
 17 49  1  0
 17 50  1  0
 18 51  1  0
 18 52  1  0
 19 53  1  0
 19 54  1  0
 21 55  1  0
 22 56  1  0
 24 57  1  0
 27 58  1  0
 28 59  1  0
M  END
>  <smiles>  (7) 
O=C(NCC(=O)N1CCCC[C@H]1CN1CCCCC1)c1ccc2cc(Cl)ccc2n1

>  <score_type>  (7) 
oracle

>  <origin>  (7) 
autodockgpu

>  <m_score__min__energy>  (7) 
-8.6699999999999999

>  <m_primary>  (7) 
energy

>  <rmsd>  (7) 
7.368246711666845

>  <m_score__min__rmsd>  (7) 
7.368246711666845

>  <meeko>  (7) 
{"free_energy": -6.19, "intermolecular_energy": -7.98, "internal_energy": -3.1, "cluster_size": 1, "cluster_id": 7, "rank_in_cluster": 1}

>  <energy>  (7) 
-8.49

>  <cluster_rmsd>  (7) 
0.5

>  <cluster>  (7) 
1

$$$$

     RDKit          3D

 59 62  0  0  0  0  0  0  0  0999 V2000
  140.1230   71.9260  220.8640 O   0  0  0  0  0  0  0  0  0  0  0  0
  139.7220   72.2740  222.0120 C   0  0  0  0  0  0  0  0  0  0  0  0
  139.1190   73.5600  222.1060 N   0  0  0  0  0  0  0  0  0  0  0  0
  138.9760   74.4200  220.9490 C   0  0  0  0  0  0  0  0  0  0  0  0
  139.6920   75.7080  221.1280 C   0  0  0  0  0  0  0  0  0  0  0  0
  139.4090   76.4690  222.0910 O   0  0  0  0  0  0  0  0  0  0  0  0
  140.6950   76.0310  220.1730 N   0  0  0  0  0  0  0  0  0  0  0  0
  140.7330   75.4660  218.8380 C   0  0  0  0  0  0  0  0  0  0  0  0
  142.0520   74.7940  218.5500 C   0  0  0  0  0  0  0  0  0  0  0  0
  143.2100   75.4360  219.2320 C   0  0  0  0  0  0  0  0  0  0  0  0
  142.9630   76.8340  219.7120 C   0  0  0  0  0  0  0  0  0  0  0  0
  141.7270   76.9750  220.5570 C   0  0  1  0  0  0  0  0  0  0  0  0
  141.1550   78.3540  220.3080 C   0  0  0  0  0  0  0  0  0  0  0  0
  141.2260   79.1990  221.5100 N   0  0  0  0  0  0  0  0  0  0  0  0
  141.4520   78.3820  222.6890 C   0  0  0  0  0  0  0  0  0  0  0  0
  141.1760   79.2350  223.9110 C   0  0  0  0  0  0  0  0  0  0  0  0
  141.7890   80.6180  223.7590 C   0  0  0  0  0  0  0  0  0  0  0  0
  142.8620   80.5000  222.6960 C   0  0  0  0  0  0  0  0  0  0  0  0
  142.2080   80.2320  221.3650 C   0  0  0  0  0  0  0  0  0  0  0  0
  139.8590   71.4170  223.1890 C   0  0  0  0  0  0  0  0  0  0  0  0
  139.4560   70.1010  223.0800 C   0  0  0  0  0  0  0  0  0  0  0  0
  139.5440   69.2130  224.1280 C   0  0  0  0  0  0  0  0  0  0  0  0
  140.0580   69.6820  225.3200 C   0  0  0  0  0  0  0  0  0  0  0  0
  140.1610   68.8250  226.3920 C   0  0  0  0  0  0  0  0  0  0  0  0
  140.6720   69.2710  227.5920 C   0  0  0  0  0  0  0  0  0  0  0  0
  140.7940   68.1650  228.9380 Cl  0  0  0  0  0  0  0  0  0  0  0  0
  141.0690   70.5900  227.6790 C   0  0  0  0  0  0  0  0  0  0  0  0
  140.9650   71.4520  226.6060 C   0  0  0  0  0  0  0  0  0  0  0  0
  140.4540   71.0080  225.4010 C   0  0  0  0  0  0  0  0  0  0  0  0
  140.3570   71.8560  224.3590 N   0  0  0  0  0  0  0  0  0  0  0  0
  138.7780   73.8640  223.0670 H   0  0  0  0  0  0  0  0  0  0  0  0
  139.3864   73.9037  220.0686 H   0  0  0  0  0  0  0  0  0  0  0  0
  137.9063   74.6390  220.8157 H   0  0  0  0  0  0  0  0  0  0  0  0
  139.9271   74.7234  218.7429 H   0  0  0  0  0  0  0  0  0  0  0  0
  140.6031   76.2861  218.1165 H   0  0  0  0  0  0  0  0  0  0  0  0
  141.9890   73.7474  218.8828 H   0  0  0  0  0  0  0  0  0  0  0  0
  142.2277   74.8791  217.4675 H   0  0  0  0  0  0  0  0  0  0  0  0
  143.4798   74.8187  220.1016 H   0  0  0  0  0  0  0  0  0  0  0  0
  144.0113   75.5043  218.4815 H   0  0  0  0  0  0  0  0  0  0  0  0
  143.8298   77.1542  220.3088 H   0  0  0  0  0  0  0  0  0  0  0  0
  142.8139   77.4583  218.8187 H   0  0  0  0  0  0  0  0  0  0  0  0
  142.0100   76.7989  221.6053 H   0  0  0  0  0  0  0  0  0  0  0  0
  141.7251   78.8355  219.4998 H   0  0  0  0  0  0  0  0  0  0  0  0
  140.0964   78.2407  220.0312 H   0  0  0  0  0  0  0  0  0  0  0  0
  140.7744   77.5155  222.6780 H   0  0  0  0  0  0  0  0  0  0  0  0
  142.4888   78.0149  222.7060 H   0  0  0  0  0  0  0  0  0  0  0  0
  140.0884   79.3358  224.0413 H   0  0  0  0  0  0  0  0  0  0  0  0
  141.6253   78.7467  224.7883 H   0  0  0  0  0  0  0  0  0  0  0  0
  141.0217   81.3411  223.4455 H   0  0  0  0  0  0  0  0  0  0  0  0
  142.2105   80.9725  224.7112 H   0  0  0  0  0  0  0  0  0  0  0  0
  143.4337   81.4383  222.6435 H   0  0  0  0  0  0  0  0  0  0  0  0
  143.5443   79.6746  222.9473 H   0  0  0  0  0  0  0  0  0  0  0  0
  141.7221   81.1507  221.0045 H   0  0  0  0  0  0  0  0  0  0  0  0
  142.9716   79.9104  220.6415 H   0  0  0  0  0  0  0  0  0  0  0  0
  139.0496   69.7492  222.1203 H   0  0  0  0  0  0  0  0  0  0  0  0
  139.2169   68.1684  224.0196 H   0  0  0  0  0  0  0  0  0  0  0  0
  139.8341   67.7796  226.2907 H   0  0  0  0  0  0  0  0  0  0  0  0
  141.4792   70.9642  228.6286 H   0  0  0  0  0  0  0  0  0  0  0  0
  141.2904   72.4976  226.7104 H   0  0  0  0  0  0  0  0  0  0  0  0
  1  2  2  0
  2  3  1  0
  3  4  1  0
  4  5  1  0
  5  6  2  0
  5  7  1  0
  7  8  1  0
  8  9  1  0
  9 10  1  0
 10 11  1  0
 11 12  1  0
 12 13  1  0
 13 14  1  0
 14 15  1  0
 15 16  1  0
 16 17  1  0
 17 18  1  0
 18 19  1  0
  2 20  1  0
 20 21  2  0
 21 22  1  0
 22 23  2  0
 23 24  1  0
 24 25  2  0
 25 26  1  0
 25 27  1  0
 27 28  2  0
 28 29  1  0
 29 30  2  0
 12  7  1  0
 19 14  1  0
 30 20  1  0
 29 23  1  0
  3 31  1  0
  4 32  1  0
  4 33  1  0
  8 34  1  0
  8 35  1  0
  9 36  1  0
  9 37  1  0
 10 38  1  0
 10 39  1  0
 11 40  1  0
 11 41  1  0
 12 42  1  1
 13 43  1  0
 13 44  1  0
 15 45  1  0
 15 46  1  0
 16 47  1  0
 16 48  1  0
 17 49  1  0
 17 50  1  0
 18 51  1  0
 18 52  1  0
 19 53  1  0
 19 54  1  0
 21 55  1  0
 22 56  1  0
 24 57  1  0
 27 58  1  0
 28 59  1  0
M  END
>  <smiles>  (8) 
O=C(NCC(=O)N1CCCC[C@H]1CN1CCCCC1)c1ccc2cc(Cl)ccc2n1

>  <score_type>  (8) 
oracle

>  <origin>  (8) 
autodockgpu

>  <m_score__min__energy>  (8) 
-8.6699999999999999

>  <m_primary>  (8) 
energy

>  <rmsd>  (8) 
2.0070572467849677

>  <m_score__min__rmsd>  (8) 
2.0070572467849677

>  <meeko>  (8) 
{"free_energy": -8.63, "intermolecular_energy": -10.42, "internal_energy": -1.69, "cluster_size": 34, "cluster_id": 1, "rank_in_cluster": 3}

>  <energy>  (8) 
-8.47

>  <cluster_rmsd>  (8) 
0.56

>  <cluster>  (8) 
1

$$$$

     RDKit          3D

 59 62  0  0  0  0  0  0  0  0999 V2000
  139.0750   72.0010  220.7950 O   0  0  0  0  0  0  0  0  0  0  0  0
  139.7120   72.3420  221.8330 C   0  0  0  0  0  0  0  0  0  0  0  0
  140.3220   73.6270  221.8060 N   0  0  0  0  0  0  0  0  0  0  0  0
  140.2170   74.4940  220.6500 C   0  0  0  0  0  0  0  0  0  0  0  0
  140.9590   75.7660  220.8460 C   0  0  0  0  0  0  0  0  0  0  0  0
  141.3790   76.0910  221.9880 O   0  0  0  0  0  0  0  0  0  0  0  0
  141.1660   76.5800  219.6990 N   0  0  0  0  0  0  0  0  0  0  0  0
  140.8230   76.1600  218.3540 C   0  0  0  0  0  0  0  0  0  0  0  0
  142.0070   76.2420  217.4220 C   0  0  0  0  0  0  0  0  0  0  0  0
  142.9490   77.3470  217.7520 C   0  0  0  0  0  0  0  0  0  0  0  0
  142.3820   78.4190  218.6320 C   0  0  0  0  0  0  0  0  0  0  0  0
  141.7460   77.8960  219.8900 C   0  0  1  0  0  0  0  0  0  0  0  0
  140.5990   78.8190  220.2420 C   0  0  0  0  0  0  0  0  0  0  0  0
  140.8790   79.5960  221.4590 N   0  0  0  0  0  0  0  0  0  0  0  0
  140.6060   78.7980  222.6410 C   0  0  0  0  0  0  0  0  0  0  0  0
  140.5750   79.7290  223.8380 C   0  0  0  0  0  0  0  0  0  0  0  0
  141.7220   80.7240  223.7840 C   0  0  0  0  0  0  0  0  0  0  0  0
  142.7620   80.1350  222.8520 C   0  0  0  0  0  0  0  0  0  0  0  0
  142.2130   80.1200  221.4490 C   0  0  0  0  0  0  0  0  0  0  0  0
  139.8250   71.4770  223.0080 C   0  0  0  0  0  0  0  0  0  0  0  0
  139.3420   70.1880  222.9100 C   0  0  0  0  0  0  0  0  0  0  0  0
  139.4010   69.2960  223.9560 C   0  0  0  0  0  0  0  0  0  0  0  0
  139.9700   69.7330  225.1350 C   0  0  0  0  0  0  0  0  0  0  0  0
  140.0470   68.8710  226.2050 C   0  0  0  0  0  0  0  0  0  0  0  0
  140.6110   69.2850  227.3920 C   0  0  0  0  0  0  0  0  0  0  0  0
  140.6990   68.1730  228.7360 Cl  0  0  0  0  0  0  0  0  0  0  0  0
  141.0890   70.5780  227.4690 C   0  0  0  0  0  0  0  0  0  0  0  0
  141.0120   71.4440  226.3970 C   0  0  0  0  0  0  0  0  0  0  0  0
  140.4470   71.0320  225.2050 C   0  0  0  0  0  0  0  0  0  0  0  0
  140.3770   71.8850  224.1650 N   0  0  0  0  0  0  0  0  0  0  0  0
  140.8600   73.9240  222.6740 H   0  0  0  0  0  0  0  0  0  0  0  0
  140.6302   73.9719  219.7744 H   0  0  0  0  0  0  0  0  0  0  0  0
  139.1547   74.7371  220.4999 H   0  0  0  0  0  0  0  0  0  0  0  0
  140.4664   75.1199  218.3859 H   0  0  0  0  0  0  0  0  0  0  0  0
  140.0416   76.8346  217.9741 H   0  0  0  0  0  0  0  0  0  0  0  0
  142.5560   75.2901  217.4724 H   0  0  0  0  0  0  0  0  0  0  0  0
  141.6122   76.4440  216.4154 H   0  0  0  0  0  0  0  0  0  0  0  0
  143.8207   76.9116  218.2625 H   0  0  0  0  0  0  0  0  0  0  0  0
  143.2004   77.8328  216.7977 H   0  0  0  0  0  0  0  0  0  0  0  0
  143.1957   79.1037  218.9132 H   0  0  0  0  0  0  0  0  0  0  0  0
  141.5902   78.9211  218.0568 H   0  0  0  0  0  0  0  0  0  0  0  0
  142.5222   77.8427  220.6676 H   0  0  0  0  0  0  0  0  0  0  0  0
  140.4315   79.5141  219.4061 H   0  0  0  0  0  0  0  0  0  0  0  0
  139.7072   78.2022  220.4269 H   0  0  0  0  0  0  0  0  0  0  0  0
  139.6341   78.2939  222.5348 H   0  0  0  0  0  0  0  0  0  0  0  0
  141.3841   78.0317  222.7729 H   0  0  0  0  0  0  0  0  0  0  0  0
  139.6221   80.2785  223.8417 H   0  0  0  0  0  0  0  0  0  0  0  0
  140.6763   79.1268  224.7529 H   0  0  0  0  0  0  0  0  0  0  0  0
  141.3682   81.6905  223.3958 H   0  0  0  0  0  0  0  0  0  0  0  0
  142.1413   80.9011  224.7854 H   0  0  0  0  0  0  0  0  0  0  0  0
  143.6749   80.7479  222.8840 H   0  0  0  0  0  0  0  0  0  0  0  0
  143.0039   79.1091  223.1668 H   0  0  0  0  0  0  0  0  0  0  0  0
  142.2004   81.1450  221.0501 H   0  0  0  0  0  0  0  0  0  0  0  0
  142.8495   79.4852  220.8150 H   0  0  0  0  0  0  0  0  0  0  0  0
  138.8931   69.8615  221.9603 H   0  0  0  0  0  0  0  0  0  0  0  0
  139.0093   68.2729  223.8563 H   0  0  0  0  0  0  0  0  0  0  0  0
  139.6565   67.8468  226.1122 H   0  0  0  0  0  0  0  0  0  0  0  0
  141.5427   70.9268  228.4084 H   0  0  0  0  0  0  0  0  0  0  0  0
  141.4026   72.4679  226.4920 H   0  0  0  0  0  0  0  0  0  0  0  0
  1  2  2  0
  2  3  1  0
  3  4  1  0
  4  5  1  0
  5  6  2  0
  5  7  1  0
  7  8  1  0
  8  9  1  0
  9 10  1  0
 10 11  1  0
 11 12  1  0
 12 13  1  0
 13 14  1  0
 14 15  1  0
 15 16  1  0
 16 17  1  0
 17 18  1  0
 18 19  1  0
  2 20  1  0
 20 21  2  0
 21 22  1  0
 22 23  2  0
 23 24  1  0
 24 25  2  0
 25 26  1  0
 25 27  1  0
 27 28  2  0
 28 29  1  0
 29 30  2  0
 12  7  1  0
 19 14  1  0
 30 20  1  0
 29 23  1  0
  3 31  1  0
  4 32  1  0
  4 33  1  0
  8 34  1  0
  8 35  1  0
  9 36  1  0
  9 37  1  0
 10 38  1  0
 10 39  1  0
 11 40  1  0
 11 41  1  0
 12 42  1  1
 13 43  1  0
 13 44  1  0
 15 45  1  0
 15 46  1  0
 16 47  1  0
 16 48  1  0
 17 49  1  0
 17 50  1  0
 18 51  1  0
 18 52  1  0
 19 53  1  0
 19 54  1  0
 21 55  1  0
 22 56  1  0
 24 57  1  0
 27 58  1  0
 28 59  1  0
M  END
>  <smiles>  (9) 
O=C(NCC(=O)N1CCCC[C@H]1CN1CCCCC1)c1ccc2cc(Cl)ccc2n1

>  <score_type>  (9) 
oracle

>  <origin>  (9) 
autodockgpu

>  <m_score__min__energy>  (9) 
-8.6699999999999999

>  <m_primary>  (9) 
energy

>  <rmsd>  (9) 
2.0988742280948274

>  <m_score__min__rmsd>  (9) 
2.0988742280948274

>  <meeko>  (9) 
{"free_energy": -7.79, "intermolecular_energy": -9.58, "internal_energy": -2.08, "cluster_size": 34, "cluster_id": 1, "rank_in_cluster": 28}

>  <energy>  (9) 
-8.46

>  <cluster_rmsd>  (9) 
1.06

>  <cluster>  (9) 
1

$$$$

     RDKit          3D

 59 62  0  0  0  0  0  0  0  0999 V2000
  140.9480   72.6580  221.1300 O   0  0  0  0  0  0  0  0  0  0  0  0
  140.2280   72.8300  222.1560 C   0  0  0  0  0  0  0  0  0  0  0  0
  139.4250   74.0040  222.1740 N   0  0  0  0  0  0  0  0  0  0  0  0
  139.4350   74.9500  221.0780 C   0  0  0  0  0  0  0  0  0  0  0  0
  140.6760   75.7670  221.0660 C   0  0  0  0  0  0  0  0  0  0  0  0
  141.3840   75.8700  222.1020 O   0  0  0  0  0  0  0  0  0  0  0  0
  141.0160   76.4130  219.8450 N   0  0  0  0  0  0  0  0  0  0  0  0
  140.6990   75.8640  218.5410 C   0  0  0  0  0  0  0  0  0  0  0  0
  141.9280   75.7240  217.6770 C   0  0  0  0  0  0  0  0  0  0  0  0
  142.9570   76.7710  217.9310 C   0  0  0  0  0  0  0  0  0  0  0  0
  142.4550   77.9890  218.6440 C   0  0  0  0  0  0  0  0  0  0  0  0
  141.7120   77.6840  219.9140 C   0  0  1  0  0  0  0  0  0  0  0  0
  140.6440   78.7430  220.0880 C   0  0  0  0  0  0  0  0  0  0  0  0
  140.8420   79.5190  221.3220 N   0  0  0  0  0  0  0  0  0  0  0  0
  139.8880   79.1070  222.3360 C   0  0  0  0  0  0  0  0  0  0  0  0
  139.8990   80.1460  223.4400 C   0  0  0  0  0  0  0  0  0  0  0  0
  141.3210   80.5540  223.7890 C   0  0  0  0  0  0  0  0  0  0  0  0
  142.2240   79.4460  223.2860 C   0  0  0  0  0  0  0  0  0  0  0  0
  142.1970   79.4350  221.7800 C   0  0  0  0  0  0  0  0  0  0  0  0
  140.2060   71.8830  223.2710 C   0  0  0  0  0  0  0  0  0  0  0  0
  139.6730   70.6300  223.0440 C   0  0  0  0  0  0  0  0  0  0  0  0
  139.6070   69.6670  224.0260 C   0  0  0  0  0  0  0  0  0  0  0  0
  140.0990   69.9930  225.2720 C   0  0  0  0  0  0  0  0  0  0  0  0
  140.0510   69.0580  226.2810 C   0  0  0  0  0  0  0  0  0  0  0  0
  140.5370   69.3610  227.5340 C   0  0  0  0  0  0  0  0  0  0  0  0
  140.4660   68.1570  228.7980 Cl  0  0  0  0  0  0  0  0  0  0  0  0
  141.0670   70.6190  227.7390 C   0  0  0  0  0  0  0  0  0  0  0  0
  141.1160   71.5590  226.7300 C   0  0  0  0  0  0  0  0  0  0  0  0
  140.6290   71.2580  225.4720 C   0  0  0  0  0  0  0  0  0  0  0  0
  140.6820   72.1820  224.4930 N   0  0  0  0  0  0  0  0  0  0  0  0
  138.8150   74.1580  223.0330 H   0  0  0  0  0  0  0  0  0  0  0  0
  139.3634   74.3971  220.1297 H   0  0  0  0  0  0  0  0  0  0  0  0
  138.5793   75.6295  221.2049 H   0  0  0  0  0  0  0  0  0  0  0  0
  140.2426   74.8720  218.6739 H   0  0  0  0  0  0  0  0  0  0  0  0
  140.0056   76.5548  218.0390 H   0  0  0  0  0  0  0  0  0  0  0  0
  142.3786   74.7393  217.8700 H   0  0  0  0  0  0  0  0  0  0  0  0
  141.6029   75.8374  216.6323 H   0  0  0  0  0  0  0  0  0  0  0  0
  143.7564   76.3238  218.5400 H   0  0  0  0  0  0  0  0  0  0  0  0
  143.3008   77.1116  216.9432 H   0  0  0  0  0  0  0  0  0  0  0  0
  143.3168   78.6265  218.8907 H   0  0  0  0  0  0  0  0  0  0  0  0
  141.7440   78.4863  217.9679 H   0  0  0  0  0  0  0  0  0  0  0  0
  142.4422   77.6562  220.7363 H   0  0  0  0  0  0  0  0  0  0  0  0
  140.6773   79.4274  219.2275 H   0  0  0  0  0  0  0  0  0  0  0  0
  139.6687   78.2384  220.1534 H   0  0  0  0  0  0  0  0  0  0  0  0
  138.8818   79.0400  221.8965 H   0  0  0  0  0  0  0  0  0  0  0  0
  140.1601   78.1199  222.7378 H   0  0  0  0  0  0  0  0  0  0  0  0
  139.3421   81.0333  223.1046 H   0  0  0  0  0  0  0  0  0  0  0  0
  139.4290   79.7119  224.3348 H   0  0  0  0  0  0  0  0  0  0  0  0
  141.5752   81.5041  223.2964 H   0  0  0  0  0  0  0  0  0  0  0  0
  141.4375   80.7000  224.8730 H   0  0  0  0  0  0  0  0  0  0  0  0
  143.2523   79.6217  223.6349 H   0  0  0  0  0  0  0  0  0  0  0  0
  141.8721   78.4773  223.6705 H   0  0  0  0  0  0  0  0  0  0  0  0
  142.7665   80.2949  221.3975 H   0  0  0  0  0  0  0  0  0  0  0  0
  142.6487   78.5013  221.4138 H   0  0  0  0  0  0  0  0  0  0  0  0
  139.2868   70.3921  222.0419 H   0  0  0  0  0  0  0  0  0  0  0  0
  139.1777   68.6746  223.8239 H   0  0  0  0  0  0  0  0  0  0  0  0
  139.6224   68.0639  226.0859 H   0  0  0  0  0  0  0  0  0  0  0  0
  141.4606   70.8789  228.7327 H   0  0  0  0  0  0  0  0  0  0  0  0
  141.5447   72.5525  226.9278 H   0  0  0  0  0  0  0  0  0  0  0  0
  1  2  2  0
  2  3  1  0
  3  4  1  0
  4  5  1  0
  5  6  2  0
  5  7  1  0
  7  8  1  0
  8  9  1  0
  9 10  1  0
 10 11  1  0
 11 12  1  0
 12 13  1  0
 13 14  1  0
 14 15  1  0
 15 16  1  0
 16 17  1  0
 17 18  1  0
 18 19  1  0
  2 20  1  0
 20 21  2  0
 21 22  1  0
 22 23  2  0
 23 24  1  0
 24 25  2  0
 25 26  1  0
 25 27  1  0
 27 28  2  0
 28 29  1  0
 29 30  2  0
 12  7  1  0
 19 14  1  0
 30 20  1  0
 29 23  1  0
  3 31  1  0
  4 32  1  0
  4 33  1  0
  8 34  1  0
  8 35  1  0
  9 36  1  0
  9 37  1  0
 10 38  1  0
 10 39  1  0
 11 40  1  0
 11 41  1  0
 12 42  1  1
 13 43  1  0
 13 44  1  0
 15 45  1  0
 15 46  1  0
 16 47  1  0
 16 48  1  0
 17 49  1  0
 17 50  1  0
 18 51  1  0
 18 52  1  0
 19 53  1  0
 19 54  1  0
 21 55  1  0
 22 56  1  0
 24 57  1  0
 27 58  1  0
 28 59  1  0
M  END
>  <smiles>  (10) 
O=C(NCC(=O)N1CCCC[C@H]1CN1CCCCC1)c1ccc2cc(Cl)ccc2n1

>  <score_type>  (10) 
oracle

>  <origin>  (10) 
autodockgpu

>  <m_score__min__energy>  (10) 
-8.6699999999999999

>  <m_primary>  (10) 
energy

>  <rmsd>  (10) 
2.1692552578918267

>  <m_score__min__rmsd>  (10) 
2.1692552578918267

>  <meeko>  (10) 
{"free_energy": -8.23, "intermolecular_energy": -10.02, "internal_energy": -1.7, "cluster_size": 34, "cluster_id": 1, "rank_in_cluster": 18}

>  <energy>  (10) 
-8.45

>  <cluster_rmsd>  (10) 
0.54

>  <cluster>  (10) 
1

$$$$

     RDKit          3D

 59 62  0  0  0  0  0  0  0  0999 V2000
  140.0860   72.1910  220.7610 O   0  0  0  0  0  0  0  0  0  0  0  0
  139.9340   72.5830  221.9540 C   0  0  0  0  0  0  0  0  0  0  0  0
  139.6830   73.9720  222.1350 N   0  0  0  0  0  0  0  0  0  0  0  0
  139.6080   74.8840  221.0130 C   0  0  0  0  0  0  0  0  0  0  0  0
  140.7090   75.8810  221.0380 C   0  0  0  0  0  0  0  0  0  0  0  0
  141.3970   76.0470  222.0800 O   0  0  0  0  0  0  0  0  0  0  0  0
  140.9390   76.6240  219.8480 N   0  0  0  0  0  0  0  0  0  0  0  0
  140.5390   76.1630  218.5330 C   0  0  0  0  0  0  0  0  0  0  0  0
  141.7020   76.1230  217.5730 C   0  0  0  0  0  0  0  0  0  0  0  0
  142.7210   77.1800  217.8280 C   0  0  0  0  0  0  0  0  0  0  0  0
  142.2440   78.3270  218.6660 C   0  0  0  0  0  0  0  0  0  0  0  0
  141.6060   77.9080  219.9610 C   0  0  1  0  0  0  0  0  0  0  0  0
  140.5280   78.9180  220.2910 C   0  0  0  0  0  0  0  0  0  0  0  0
  140.8900   79.7400  221.4550 N   0  0  0  0  0  0  0  0  0  0  0  0
  139.8750   79.6300  222.4870 C   0  0  0  0  0  0  0  0  0  0  0  0
  140.1100   80.7360  223.4970 C   0  0  0  0  0  0  0  0  0  0  0  0
  141.5870   80.8640  223.8300 C   0  0  0  0  0  0  0  0  0  0  0  0
  142.2340   79.5510  223.4390 C   0  0  0  0  0  0  0  0  0  0  0  0
  142.1990   79.4120  221.9390 C   0  0  0  0  0  0  0  0  0  0  0  0
  140.0060   71.6730  223.0970 C   0  0  0  0  0  0  0  0  0  0  0  0
  139.5450   70.3840  222.9270 C   0  0  0  0  0  0  0  0  0  0  0  0
  139.5690   69.4510  223.9390 C   0  0  0  0  0  0  0  0  0  0  0  0
  140.0790   69.8470  225.1580 C   0  0  0  0  0  0  0  0  0  0  0  0
  140.1200   68.9430  226.1960 C   0  0  0  0  0  0  0  0  0  0  0  0
  140.6250   69.3160  227.4230 C   0  0  0  0  0  0  0  0  0  0  0  0
  140.6680   68.1520  228.7240 Cl  0  0  0  0  0  0  0  0  0  0  0  0
  141.0810   70.6100  227.5720 C   0  0  0  0  0  0  0  0  0  0  0  0
  141.0410   71.5180  226.5330 C   0  0  0  0  0  0  0  0  0  0  0  0
  140.5350   71.1480  225.3010 C   0  0  0  0  0  0  0  0  0  0  0  0
  140.5000   72.0410  224.2930 N   0  0  0  0  0  0  0  0  0  0  0  0
  139.5530   74.3120  223.1350 H   0  0  0  0  0  0  0  0  0  0  0  0
  139.6722   74.3059  220.0793 H   0  0  0  0  0  0  0  0  0  0  0  0
  138.6535   75.4270  221.0769 H   0  0  0  0  0  0  0  0  0  0  0  0
  140.1179   75.1509  218.6239 H   0  0  0  0  0  0  0  0  0  0  0  0
  139.7939   76.8684  218.1366 H   0  0  0  0  0  0  0  0  0  0  0  0
  142.1903   75.1410  217.6586 H   0  0  0  0  0  0  0  0  0  0  0  0
  141.2963   76.3014  216.5662 H   0  0  0  0  0  0  0  0  0  0  0  0
  143.5755   76.7143  218.3408 H   0  0  0  0  0  0  0  0  0  0  0  0
  142.9800   77.6022  216.8458 H   0  0  0  0  0  0  0  0  0  0  0  0
  143.1060   78.9704  218.8963 H   0  0  0  0  0  0  0  0  0  0  0  0
  141.4719   78.8504  218.0830 H   0  0  0  0  0  0  0  0  0  0  0  0
  142.3961   77.8432  220.7236 H   0  0  0  0  0  0  0  0  0  0  0  0
  140.3785   79.5763  219.4225 H   0  0  0  0  0  0  0  0  0  0  0  0
  139.6062   78.3686  220.5329 H   0  0  0  0  0  0  0  0  0  0  0  0
  138.8756   79.7388  222.0404 H   0  0  0  0  0  0  0  0  0  0  0  0
  139.9341   78.6469  222.9770 H   0  0  0  0  0  0  0  0  0  0  0  0
  139.7518   81.6879  223.0780 H   0  0  0  0  0  0  0  0  0  0  0  0
  139.5626   80.4908  224.4191 H   0  0  0  0  0  0  0  0  0  0  0  0
  142.0342   81.6920  223.2604 H   0  0  0  0  0  0  0  0  0  0  0  0
  141.7358   81.0768  224.8989 H   0  0  0  0  0  0  0  0  0  0  0  0
  143.2777   79.5368  223.7861 H   0  0  0  0  0  0  0  0  0  0  0  0
  141.6873   78.7160  223.9016 H   0  0  0  0  0  0  0  0  0  0  0  0
  142.9364   80.0944  221.4910 H   0  0  0  0  0  0  0  0  0  0  0  0
  142.4408   78.3750  221.6629 H   0  0  0  0  0  0  0  0  0  0  0  0
  139.1431   70.0906  221.9460 H   0  0  0  0  0  0  0  0  0  0  0  0
  139.1956   68.4284  223.7815 H   0  0  0  0  0  0  0  0  0  0  0  0
  139.7481   67.9188  226.0452 H   0  0  0  0  0  0  0  0  0  0  0  0
  141.4870   70.9262  228.5442 H   0  0  0  0  0  0  0  0  0  0  0  0
  141.4138   72.5415  226.6863 H   0  0  0  0  0  0  0  0  0  0  0  0
  1  2  2  0
  2  3  1  0
  3  4  1  0
  4  5  1  0
  5  6  2  0
  5  7  1  0
  7  8  1  0
  8  9  1  0
  9 10  1  0
 10 11  1  0
 11 12  1  0
 12 13  1  0
 13 14  1  0
 14 15  1  0
 15 16  1  0
 16 17  1  0
 17 18  1  0
 18 19  1  0
  2 20  1  0
 20 21  2  0
 21 22  1  0
 22 23  2  0
 23 24  1  0
 24 25  2  0
 25 26  1  0
 25 27  1  0
 27 28  2  0
 28 29  1  0
 29 30  2  0
 12  7  1  0
 19 14  1  0
 30 20  1  0
 29 23  1  0
  3 31  1  0
  4 32  1  0
  4 33  1  0
  8 34  1  0
  8 35  1  0
  9 36  1  0
  9 37  1  0
 10 38  1  0
 10 39  1  0
 11 40  1  0
 11 41  1  0
 12 42  1  1
 13 43  1  0
 13 44  1  0
 15 45  1  0
 15 46  1  0
 16 47  1  0
 16 48  1  0
 17 49  1  0
 17 50  1  0
 18 51  1  0
 18 52  1  0
 19 53  1  0
 19 54  1  0
 21 55  1  0
 22 56  1  0
 24 57  1  0
 27 58  1  0
 28 59  1  0
M  END
>  <smiles>  (11) 
O=C(NCC(=O)N1CCCC[C@H]1CN1CCCCC1)c1ccc2cc(Cl)ccc2n1

>  <score_type>  (11) 
oracle

>  <origin>  (11) 
autodockgpu

>  <m_score__min__energy>  (11) 
-8.6699999999999999

>  <m_primary>  (11) 
energy

>  <rmsd>  (11) 
2.1539361292014587

>  <m_score__min__rmsd>  (11) 
2.1539361292014587

>  <meeko>  (11) 
{"free_energy": -8.27, "intermolecular_energy": -10.06, "internal_energy": -1.76, "cluster_size": 34, "cluster_id": 1, "rank_in_cluster": 17}

>  <energy>  (11) 
-8.43

>  <cluster_rmsd>  (11) 
1.11

>  <cluster>  (11) 
1

$$$$

     RDKit          3D

 59 62  0  0  0  0  0  0  0  0999 V2000
  138.9610   71.8500  220.8560 O   0  0  0  0  0  0  0  0  0  0  0  0
  139.1490   72.3000  222.0230 C   0  0  0  0  0  0  0  0  0  0  0  0
  139.0650   73.7130  222.1750 N   0  0  0  0  0  0  0  0  0  0  0  0
  138.7800   74.5830  221.0530 C   0  0  0  0  0  0  0  0  0  0  0  0
  138.6290   75.9980  221.4770 C   0  0  0  0  0  0  0  0  0  0  0  0
  137.6730   76.3440  222.2200 O   0  0  0  0  0  0  0  0  0  0  0  0
  139.6030   76.9230  221.0090 N   0  0  0  0  0  0  0  0  0  0  0  0
  139.2920   78.0170  220.1100 C   0  0  0  0  0  0  0  0  0  0  0  0
  140.1460   77.9830  218.8670 C   0  0  0  0  0  0  0  0  0  0  0  0
  141.5120   77.4360  219.0970 C   0  0  0  0  0  0  0  0  0  0  0  0
  141.9520   77.4220  220.5290 C   0  0  0  0  0  0  0  0  0  0  0  0
  140.9730   76.7600  221.4580 C   0  0  1  0  0  0  0  0  0  0  0  0
  141.0660   77.4590  222.7980 C   0  0  0  0  0  0  0  0  0  0  0  0
  141.1810   78.9170  222.6450 N   0  0  0  0  0  0  0  0  0  0  0  0
  140.0720   79.5830  223.3050 C   0  0  0  0  0  0  0  0  0  0  0  0
  140.0440   81.0250  222.8350 C   0  0  0  0  0  0  0  0  0  0  0  0
  141.4430   81.6180  222.8140 C   0  0  0  0  0  0  0  0  0  0  0  0
  142.2930   80.7540  223.7240 C   0  0  0  0  0  0  0  0  0  0  0  0
  142.4530   79.3920  223.1010 C   0  0  0  0  0  0  0  0  0  0  0  0
  139.4370   71.4340  223.1660 C   0  0  0  0  0  0  0  0  0  0  0  0
  139.1030   70.0990  223.0640 C   0  0  0  0  0  0  0  0  0  0  0  0
  139.3330   69.2000  224.0820 C   0  0  0  0  0  0  0  0  0  0  0  0
  139.9190   69.6800  225.2340 C   0  0  0  0  0  0  0  0  0  0  0  0
  140.1640   68.8130  226.2760 C   0  0  0  0  0  0  0  0  0  0  0  0
  140.7500   69.2700  227.4370 C   0  0  0  0  0  0  0  0  0  0  0  0
  141.0520   68.1510  228.7440 Cl  0  0  0  0  0  0  0  0  0  0  0  0
  141.0760   70.6090  227.5180 C   0  0  0  0  0  0  0  0  0  0  0  0
  140.8310   71.4790  226.4750 C   0  0  0  0  0  0  0  0  0  0  0  0
  140.2440   71.0250  225.3090 C   0  0  0  0  0  0  0  0  0  0  0  0
  140.0080   71.8830  224.2970 N   0  0  0  0  0  0  0  0  0  0  0  0
  139.2210   74.1030  223.1520 H   0  0  0  0  0  0  0  0  0  0  0  0
  139.6063   74.5141  220.3301 H   0  0  0  0  0  0  0  0  0  0  0  0
  137.8312   74.2584  220.6009 H   0  0  0  0  0  0  0  0  0  0  0  0
  138.2341   77.9468  219.8168 H   0  0  0  0  0  0  0  0  0  0  0  0
  139.4951   78.9605  220.6378 H   0  0  0  0  0  0  0  0  0  0  0  0
  139.6424   77.3565  218.1161 H   0  0  0  0  0  0  0  0  0  0  0  0
  140.2675   79.0232  218.5305 H   0  0  0  0  0  0  0  0  0  0  0  0
  141.5337   76.4019  218.7226 H   0  0  0  0  0  0  0  0  0  0  0  0
  142.2059   78.1051  218.5671 H   0  0  0  0  0  0  0  0  0  0  0  0
  142.9090   76.8834  220.5925 H   0  0  0  0  0  0  0  0  0  0  0  0
  142.0374   78.4712  220.8482 H   0  0  0  0  0  0  0  0  0  0  0  0
  141.2176   75.6885  221.5029 H   0  0  0  0  0  0  0  0  0  0  0  0
  140.1616   77.2322  223.3817 H   0  0  0  0  0  0  0  0  0  0  0  0
  141.9685   77.0962  223.3117 H   0  0  0  0  0  0  0  0  0  0  0  0
  139.1272   79.0858  223.0404 H   0  0  0  0  0  0  0  0  0  0  0  0
  140.1957   79.5395  224.3972 H   0  0  0  0  0  0  0  0  0  0  0  0
  139.6212   81.0645  221.8203 H   0  0  0  0  0  0  0  0  0  0  0  0
  139.4261   81.6092  223.5328 H   0  0  0  0  0  0  0  0  0  0  0  0
  141.8463   81.6029  221.7907 H   0  0  0  0  0  0  0  0  0  0  0  0
  141.4356   82.6643  223.1535 H   0  0  0  0  0  0  0  0  0  0  0  0
  143.2818   81.2179  223.8546 H   0  0  0  0  0  0  0  0  0  0  0  0
  141.8059   80.6580  224.7056 H   0  0  0  0  0  0  0  0  0  0  0  0
  143.1452   79.4588  222.2487 H   0  0  0  0  0  0  0  0  0  0  0  0
  142.8553   78.6939  223.8499 H   0  0  0  0  0  0  0  0  0  0  0  0
  138.6358   69.7394  222.1353 H   0  0  0  0  0  0  0  0  0  0  0  0
  139.0595   68.1395  223.9797 H   0  0  0  0  0  0  0  0  0  0  0  0
  139.8909   67.7517  226.1812 H   0  0  0  0  0  0  0  0  0  0  0  0
  141.5429   70.9923  228.4373 H   0  0  0  0  0  0  0  0  0  0  0  0
  141.1045   72.5400  226.5723 H   0  0  0  0  0  0  0  0  0  0  0  0
  1  2  2  0
  2  3  1  0
  3  4  1  0
  4  5  1  0
  5  6  2  0
  5  7  1  0
  7  8  1  0
  8  9  1  0
  9 10  1  0
 10 11  1  0
 11 12  1  0
 12 13  1  0
 13 14  1  0
 14 15  1  0
 15 16  1  0
 16 17  1  0
 17 18  1  0
 18 19  1  0
  2 20  1  0
 20 21  2  0
 21 22  1  0
 22 23  2  0
 23 24  1  0
 24 25  2  0
 25 26  1  0
 25 27  1  0
 27 28  2  0
 28 29  1  0
 29 30  2  0
 12  7  1  0
 19 14  1  0
 30 20  1  0
 29 23  1  0
  3 31  1  0
  4 32  1  0
  4 33  1  0
  8 34  1  0
  8 35  1  0
  9 36  1  0
  9 37  1  0
 10 38  1  0
 10 39  1  0
 11 40  1  0
 11 41  1  0
 12 42  1  1
 13 43  1  0
 13 44  1  0
 15 45  1  0
 15 46  1  0
 16 47  1  0
 16 48  1  0
 17 49  1  0
 17 50  1  0
 18 51  1  0
 18 52  1  0
 19 53  1  0
 19 54  1  0
 21 55  1  0
 22 56  1  0
 24 57  1  0
 27 58  1  0
 28 59  1  0
M  END
>  <smiles>  (12) 
O=C(NCC(=O)N1CCCC[C@H]1CN1CCCCC1)c1ccc2cc(Cl)ccc2n1

>  <score_type>  (12) 
oracle

>  <origin>  (12) 
autodockgpu

>  <m_score__min__energy>  (12) 
-8.6699999999999999

>  <m_primary>  (12) 
energy

>  <rmsd>  (12) 
2.2907819992292624

>  <m_score__min__rmsd>  (12) 
2.2907819992292624

>  <meeko>  (12) 
{"free_energy": -8.43, "intermolecular_energy": -10.22, "internal_energy": -1.86, "cluster_size": 34, "cluster_id": 1, "rank_in_cluster": 11}

>  <energy>  (12) 
-8.34

>  <cluster_rmsd>  (12) 
0.74

>  <cluster>  (12) 
1

$$$$

     RDKit          3D

 59 62  0  0  0  0  0  0  0  0999 V2000
  141.5630   73.4040  221.1320 O   0  0  0  0  0  0  0  0  0  0  0  0
  140.7410   74.2310  221.6220 C   0  0  0  0  0  0  0  0  0  0  0  0
  139.5980   73.6780  222.2640 N   0  0  0  0  0  0  0  0  0  0  0  0
  139.3890   72.2470  222.3480 C   0  0  0  0  0  0  0  0  0  0  0  0
  137.9480   71.9050  222.4460 C   0  0  0  0  0  0  0  0  0  0  0  0
  137.0670   72.7870  222.2620 O   0  0  0  0  0  0  0  0  0  0  0  0
  137.6200   70.5550  222.7510 N   0  0  0  0  0  0  0  0  0  0  0  0
  137.2650   69.5760  221.7420 C   0  0  0  0  0  0  0  0  0  0  0  0
  135.9260   68.9410  222.0220 C   0  0  0  0  0  0  0  0  0  0  0  0
  135.6190   68.8130  223.4740 C   0  0  0  0  0  0  0  0  0  0  0  0
  136.8070   68.9180  224.3810 C   0  0  0  0  0  0  0  0  0  0  0  0
  137.6460   70.1420  224.1410 C   0  0  1  0  0  0  0  0  0  0  0  0
  139.0830   69.7820  224.4500 C   0  0  0  0  0  0  0  0  0  0  0  0
  139.5430   70.4000  225.7030 N   0  0  0  0  0  0  0  0  0  0  0  0
  140.1490   69.4020  226.5660 C   0  0  0  0  0  0  0  0  0  0  0  0
  140.2860   70.0020  227.9520 C   0  0  0  0  0  0  0  0  0  0  0  0
  140.8080   71.4270  227.8790 C   0  0  0  0  0  0  0  0  0  0  0  0
  141.4710   71.5760  226.5240 C   0  0  0  0  0  0  0  0  0  0  0  0
  140.4170   71.5070  225.4500 C   0  0  0  0  0  0  0  0  0  0  0  0
  140.9390   75.6780  221.5450 C   0  0  0  0  0  0  0  0  0  0  0  0
  141.5760   76.1840  220.4310 C   0  0  0  0  0  0  0  0  0  0  0  0
  141.8100   77.5300  220.2630 C   0  0  0  0  0  0  0  0  0  0  0  0
  141.3810   78.3810  221.2590 C   0  0  0  0  0  0  0  0  0  0  0  0
  141.5970   79.7350  221.1280 C   0  0  0  0  0  0  0  0  0  0  0  0
  141.1760   80.6040  222.1110 C   0  0  0  0  0  0  0  0  0  0  0  0
  141.4600   82.3170  221.9220 Cl  0  0  0  0  0  0  0  0  0  0  0  0
  140.5400   80.0770  223.2170 C   0  0  0  0  0  0  0  0  0  0  0  0
  140.3230   78.7200  223.3510 C   0  0  0  0  0  0  0  0  0  0  0  0
  140.7440   77.8460  222.3670 C   0  0  0  0  0  0  0  0  0  0  0  0
  140.5270   76.5230  222.5070 N   0  0  0  0  0  0  0  0  0  0  0  0
  138.9000   74.3650  222.6800 H   0  0  0  0  0  0  0  0  0  0  0  0
  139.8071   71.7727  221.4479 H   0  0  0  0  0  0  0  0  0  0  0  0
  139.8897   71.8812  223.2566 H   0  0  0  0  0  0  0  0  0  0  0  0
  137.2247   70.0738  220.7619 H   0  0  0  0  0  0  0  0  0  0  0  0
  138.0275   68.7832  221.7526 H   0  0  0  0  0  0  0  0  0  0  0  0
  135.1441   69.5573  221.5542 H   0  0  0  0  0  0  0  0  0  0  0  0
  135.9590   67.9224  221.6081 H   0  0  0  0  0  0  0  0  0  0  0  0
  134.9105   69.6096  223.7451 H   0  0  0  0  0  0  0  0  0  0  0  0
  135.2111   67.8013  223.6153 H   0  0  0  0  0  0  0  0  0  0  0  0
  136.4488   68.9413  225.4208 H   0  0  0  0  0  0  0  0  0  0  0  0
  137.4455   68.0461  224.1756 H   0  0  0  0  0  0  0  0  0  0  0  0
  137.2510   70.9535  224.7698 H   0  0  0  0  0  0  0  0  0  0  0  0
  139.1646   68.6888  224.5411 H   0  0  0  0  0  0  0  0  0  0  0  0
  139.7137   70.1584  223.6311 H   0  0  0  0  0  0  0  0  0  0  0  0
  139.5103   68.5074  226.6079 H   0  0  0  0  0  0  0  0  0  0  0  0
  141.1354   69.1089  226.1773 H   0  0  0  0  0  0  0  0  0  0  0  0
  139.3012   70.0043  228.4420 H   0  0  0  0  0  0  0  0  0  0  0  0
  141.0011   69.3957  228.5273 H   0  0  0  0  0  0  0  0  0  0  0  0
  139.9769   72.1411  227.9756 H   0  0  0  0  0  0  0  0  0  0  0  0
  141.5188   71.6315  228.6932 H   0  0  0  0  0  0  0  0  0  0  0  0
  141.9878   72.5456  226.4713 H   0  0  0  0  0  0  0  0  0  0  0  0
  142.2025   70.7676  226.3782 H   0  0  0  0  0  0  0  0  0  0  0  0
  139.8345   72.4401  225.4485 H   0  0  0  0  0  0  0  0  0  0  0  0
  140.9015   71.3731  224.4715 H   0  0  0  0  0  0  0  0  0  0  0  0
  141.9091   75.4864  219.6484 H   0  0  0  0  0  0  0  0  0  0  0  0
  142.3206   77.9125  219.3669 H   0  0  0  0  0  0  0  0  0  0  0  0
  142.1077   80.1243  220.2349 H   0  0  0  0  0  0  0  0  0  0  0  0
  140.1972   80.7556  224.0120 H   0  0  0  0  0  0  0  0  0  0  0  0
  139.8126   78.3329  224.2452 H   0  0  0  0  0  0  0  0  0  0  0  0
  1  2  2  0
  2  3  1  0
  3  4  1  0
  4  5  1  0
  5  6  2  0
  5  7  1  0
  7  8  1  0
  8  9  1  0
  9 10  1  0
 10 11  1  0
 11 12  1  0
 12 13  1  0
 13 14  1  0
 14 15  1  0
 15 16  1  0
 16 17  1  0
 17 18  1  0
 18 19  1  0
  2 20  1  0
 20 21  2  0
 21 22  1  0
 22 23  2  0
 23 24  1  0
 24 25  2  0
 25 26  1  0
 25 27  1  0
 27 28  2  0
 28 29  1  0
 29 30  2  0
 12  7  1  0
 19 14  1  0
 30 20  1  0
 29 23  1  0
  3 31  1  0
  4 32  1  0
  4 33  1  0
  8 34  1  0
  8 35  1  0
  9 36  1  0
  9 37  1  0
 10 38  1  0
 10 39  1  0
 11 40  1  0
 11 41  1  0
 12 42  1  1
 13 43  1  0
 13 44  1  0
 15 45  1  0
 15 46  1  0
 16 47  1  0
 16 48  1  0
 17 49  1  0
 17 50  1  0
 18 51  1  0
 18 52  1  0
 19 53  1  0
 19 54  1  0
 21 55  1  0
 22 56  1  0
 24 57  1  0
 27 58  1  0
 28 59  1  0
M  END
>  <smiles>  (13) 
O=C(NCC(=O)N1CCCC[C@H]1CN1CCCCC1)c1ccc2cc(Cl)ccc2n1

>  <score_type>  (13) 
oracle

>  <origin>  (13) 
autodockgpu

>  <m_score__min__energy>  (13) 
-8.6699999999999999

>  <m_primary>  (13) 
energy

>  <rmsd>  (13) 
9.177178023660444

>  <m_score__min__rmsd>  (13) 
9.177178023660444

>  <meeko>  (13) 
{"free_energy": -7.76, "intermolecular_energy": -9.55, "internal_energy": -1.82, "cluster_size": 4, "cluster_id": 2, "rank_in_cluster": 3}

>  <energy>  (13) 
-8.33

>  <cluster_rmsd>  (13) 
0.67

>  <cluster>  (13) 
1

$$$$

     RDKit          3D

 59 62  0  0  0  0  0  0  0  0999 V2000
  141.6610   73.3720  221.0280 O   0  0  0  0  0  0  0  0  0  0  0  0
  140.8720   74.1860  221.5880 C   0  0  0  0  0  0  0  0  0  0  0  0
  139.7790   73.6180  222.3010 N   0  0  0  0  0  0  0  0  0  0  0  0
  139.5840   72.1850  222.3770 C   0  0  0  0  0  0  0  0  0  0  0  0
  138.1440   71.8260  222.4100 C   0  0  0  0  0  0  0  0  0  0  0  0
  137.2770   72.6140  221.9460 O   0  0  0  0  0  0  0  0  0  0  0  0
  137.8010   70.5700  222.9820 N   0  0  0  0  0  0  0  0  0  0  0  0
  137.1110   69.5250  222.2500 C   0  0  0  0  0  0  0  0  0  0  0  0
  135.8480   69.0890  222.9500 C   0  0  0  0  0  0  0  0  0  0  0  0
  135.9300   69.1720  224.4350 C   0  0  0  0  0  0  0  0  0  0  0  0
  137.3220   69.2460  224.9870 C   0  0  0  0  0  0  0  0  0  0  0  0
  138.1630   70.3260  224.3660 C   0  0  1  0  0  0  0  0  0  0  0  0
  139.5960   69.8400  224.3500 C   0  0  0  0  0  0  0  0  0  0  0  0
  140.2860   70.1360  225.6140 N   0  0  0  0  0  0  0  0  0  0  0  0
  140.0350   71.5080  226.0170 C   0  0  0  0  0  0  0  0  0  0  0  0
  141.0230   71.8640  227.1110 C   0  0  0  0  0  0  0  0  0  0  0  0
  141.1440   70.7370  228.1230 C   0  0  0  0  0  0  0  0  0  0  0  0
  139.8990   69.8850  227.9730 C   0  0  0  0  0  0  0  0  0  0  0  0
  139.9340   69.1940  226.6350 C   0  0  0  0  0  0  0  0  0  0  0  0
  141.0570   75.6360  221.5200 C   0  0  0  0  0  0  0  0  0  0  0  0
  141.7930   76.1440  220.4700 C   0  0  0  0  0  0  0  0  0  0  0  0
  142.0250   77.4920  220.3150 C   0  0  0  0  0  0  0  0  0  0  0  0
  141.4890   78.3440  221.2590 C   0  0  0  0  0  0  0  0  0  0  0  0
  141.6990   79.6990  221.1390 C   0  0  0  0  0  0  0  0  0  0  0  0
  141.1720   80.5680  222.0700 C   0  0  0  0  0  0  0  0  0  0  0  0
  141.4510   82.2840  221.8960 Cl  0  0  0  0  0  0  0  0  0  0  0  0
  140.4380   80.0390  223.1120 C   0  0  0  0  0  0  0  0  0  0  0  0
  140.2270   78.6810  223.2340 C   0  0  0  0  0  0  0  0  0  0  0  0
  140.7540   77.8060  222.3020 C   0  0  0  0  0  0  0  0  0  0  0  0
  140.5420   76.4810  222.4300 N   0  0  0  0  0  0  0  0  0  0  0  0
  139.1100   74.2940  222.7760 H   0  0  0  0  0  0  0  0  0  0  0  0
  140.0481   71.7153  221.4972 H   0  0  0  0  0  0  0  0  0  0  0  0
  140.0476   71.8255  223.3075 H   0  0  0  0  0  0  0  0  0  0  0  0
  136.8513   69.9030  221.2502 H   0  0  0  0  0  0  0  0  0  0  0  0
  137.7815   68.6556  222.1829 H   0  0  0  0  0  0  0  0  0  0  0  0
  135.0227   69.7323  222.6108 H   0  0  0  0  0  0  0  0  0  0  0  0
  135.6864   68.0313  222.6945 H   0  0  0  0  0  0  0  0  0  0  0  0
  135.3862   70.0721  224.7575 H   0  0  0  0  0  0  0  0  0  0  0  0
  135.4943   68.2386  224.8208 H   0  0  0  0  0  0  0  0  0  0  0  0
  137.2568   69.4357  226.0686 H   0  0  0  0  0  0  0  0  0  0  0  0
  137.8098   68.2873  224.7570 H   0  0  0  0  0  0  0  0  0  0  0  0
  138.0171   71.2475  224.9487 H   0  0  0  0  0  0  0  0  0  0  0  0
  139.6014   68.7521  224.1875 H   0  0  0  0  0  0  0  0  0  0  0  0
  140.1258   70.3629  223.5401 H   0  0  0  0  0  0  0  0  0  0  0  0
  140.1719   72.1804  225.1573 H   0  0  0  0  0  0  0  0  0  0  0  0
  139.0037   71.6156  226.3841 H   0  0  0  0  0  0  0  0  0  0  0  0
  142.0087   72.0492  226.6592 H   0  0  0  0  0  0  0  0  0  0  0  0
  140.6619   72.7640  227.6301 H   0  0  0  0  0  0  0  0  0  0  0  0
  142.0421   70.1364  227.9167 H   0  0  0  0  0  0  0  0  0  0  0  0
  141.2346   71.1305  229.1462 H   0  0  0  0  0  0  0  0  0  0  0  0
  139.8681   69.1331  228.7754 H   0  0  0  0  0  0  0  0  0  0  0  0
  139.0040   70.5211  228.0387 H   0  0  0  0  0  0  0  0  0  0  0  0
  140.6801   68.3861  226.6601 H   0  0  0  0  0  0  0  0  0  0  0  0
  138.9414   68.7734  226.4161 H   0  0  0  0  0  0  0  0  0  0  0  0
  142.2100   75.4462  219.7290 H   0  0  0  0  0  0  0  0  0  0  0  0
  142.6157   77.8757  219.4701 H   0  0  0  0  0  0  0  0  0  0  0  0
  142.2895   80.0897  220.2972 H   0  0  0  0  0  0  0  0  0  0  0  0
  140.0101   80.7175  223.8647 H   0  0  0  0  0  0  0  0  0  0  0  0
  139.6366   78.2924  224.0769 H   0  0  0  0  0  0  0  0  0  0  0  0
  1  2  2  0
  2  3  1  0
  3  4  1  0
  4  5  1  0
  5  6  2  0
  5  7  1  0
  7  8  1  0
  8  9  1  0
  9 10  1  0
 10 11  1  0
 11 12  1  0
 12 13  1  0
 13 14  1  0
 14 15  1  0
 15 16  1  0
 16 17  1  0
 17 18  1  0
 18 19  1  0
  2 20  1  0
 20 21  2  0
 21 22  1  0
 22 23  2  0
 23 24  1  0
 24 25  2  0
 25 26  1  0
 25 27  1  0
 27 28  2  0
 28 29  1  0
 29 30  2  0
 12  7  1  0
 19 14  1  0
 30 20  1  0
 29 23  1  0
  3 31  1  0
  4 32  1  0
  4 33  1  0
  8 34  1  0
  8 35  1  0
  9 36  1  0
  9 37  1  0
 10 38  1  0
 10 39  1  0
 11 40  1  0
 11 41  1  0
 12 42  1  1
 13 43  1  0
 13 44  1  0
 15 45  1  0
 15 46  1  0
 16 47  1  0
 16 48  1  0
 17 49  1  0
 17 50  1  0
 18 51  1  0
 18 52  1  0
 19 53  1  0
 19 54  1  0
 21 55  1  0
 22 56  1  0
 24 57  1  0
 27 58  1  0
 28 59  1  0
M  END
>  <smiles>  (14) 
O=C(NCC(=O)N1CCCC[C@H]1CN1CCCCC1)c1ccc2cc(Cl)ccc2n1

>  <score_type>  (14) 
oracle

>  <origin>  (14) 
autodockgpu

>  <m_score__min__energy>  (14) 
-8.6699999999999999

>  <m_primary>  (14) 
energy

>  <rmsd>  (14) 
9.372583925834661

>  <m_score__min__rmsd>  (14) 
9.372583925834661

>  <meeko>  (14) 
{"free_energy": -7.89, "intermolecular_energy": -9.68, "internal_energy": -1.65, "cluster_size": 4, "cluster_id": 2, "rank_in_cluster": 2}

>  <energy>  (14) 
-8.32

>  <cluster_rmsd>  (14) 
0.68

>  <cluster>  (14) 
1

$$$$

     RDKit          3D

 59 62  0  0  0  0  0  0  0  0999 V2000
  141.0970   71.2740  221.6380 O   0  0  0  0  0  0  0  0  0  0  0  0
  140.8020   72.3990  222.1340 C   0  0  0  0  0  0  0  0  0  0  0  0
  140.1490   72.3790  223.3990 N   0  0  0  0  0  0  0  0  0  0  0  0
  139.8400   71.1370  224.0760 C   0  0  0  0  0  0  0  0  0  0  0  0
  140.3730   71.1180  225.4620 C   0  0  0  0  0  0  0  0  0  0  0  0
  141.0650   72.0780  225.8940 O   0  0  0  0  0  0  0  0  0  0  0  0
  140.0660   69.9810  226.2600 N   0  0  0  0  0  0  0  0  0  0  0  0
  140.0080   70.0190  227.7080 C   0  0  0  0  0  0  0  0  0  0  0  0
  140.9240   68.9970  228.3340 C   0  0  0  0  0  0  0  0  0  0  0  0
  141.0740   67.7570  227.5230 C   0  0  0  0  0  0  0  0  0  0  0  0
  140.0090   67.5440  226.4910 C   0  0  0  0  0  0  0  0  0  0  0  0
  139.7980   68.7250  225.5860 C   0  0  1  0  0  0  0  0  0  0  0  0
  138.3340   68.7540  225.2020 C   0  0  0  0  0  0  0  0  0  0  0  0
  138.1540   68.8240  223.7440 N   0  0  0  0  0  0  0  0  0  0  0  0
  138.8350   67.7180  223.0970 C   0  0  0  0  0  0  0  0  0  0  0  0
  138.9150   68.0190  221.6130 C   0  0  0  0  0  0  0  0  0  0  0  0
  137.5940   68.5650  221.0970 C   0  0  0  0  0  0  0  0  0  0  0  0
  136.5350   68.1540  222.1000 C   0  0  0  0  0  0  0  0  0  0  0  0
  136.7670   68.8930  223.3920 C   0  0  0  0  0  0  0  0  0  0  0  0
  141.1080   73.6610  221.4620 C   0  0  0  0  0  0  0  0  0  0  0  0
  141.7770   73.6050  220.2560 C   0  0  0  0  0  0  0  0  0  0  0  0
  142.1110   74.7350  219.5440 C   0  0  0  0  0  0  0  0  0  0  0  0
  141.7520   75.9550  220.0790 C   0  0  0  0  0  0  0  0  0  0  0  0
  142.0690   77.1080  219.3970 C   0  0  0  0  0  0  0  0  0  0  0  0
  141.7200   78.3380  219.9120 C   0  0  0  0  0  0  0  0  0  0  0  0
  142.1320   79.7870  219.0280 Cl  0  0  0  0  0  0  0  0  0  0  0  0
  141.0510   78.3710  221.1180 C   0  0  0  0  0  0  0  0  0  0  0  0
  140.7330   77.2170  221.8040 C   0  0  0  0  0  0  0  0  0  0  0  0
  141.0810   75.9810  221.2910 C   0  0  0  0  0  0  0  0  0  0  0  0
  140.7660   74.8600  221.9670 N   0  0  0  0  0  0  0  0  0  0  0  0
  139.8960   73.3200  223.8250 H   0  0  0  0  0  0  0  0  0  0  0  0
  138.7476   71.0135  224.1127 H   0  0  0  0  0  0  0  0  0  0  0  0
  140.3117   70.3157  223.5166 H   0  0  0  0  0  0  0  0  0  0  0  0
  140.3065   71.0210  228.0498 H   0  0  0  0  0  0  0  0  0  0  0  0
  138.9774   69.7866  228.0144 H   0  0  0  0  0  0  0  0  0  0  0  0
  141.9174   69.4518  228.4615 H   0  0  0  0  0  0  0  0  0  0  0  0
  140.4730   68.7033  229.2933 H   0  0  0  0  0  0  0  0  0  0  0  0
  142.0448   67.8014  227.0077 H   0  0  0  0  0  0  0  0  0  0  0  0
  140.9924   66.9164  228.2278 H   0  0  0  0  0  0  0  0  0  0  0  0
  140.2927   66.6795  225.8729 H   0  0  0  0  0  0  0  0  0  0  0  0
  139.0653   67.3821  227.0325 H   0  0  0  0  0  0  0  0  0  0  0  0
  140.4764   68.6201  224.7265 H   0  0  0  0  0  0  0  0  0  0  0  0
  137.8491   67.8408  225.5774 H   0  0  0  0  0  0  0  0  0  0  0  0
  137.8813   69.6527  225.6463 H   0  0  0  0  0  0  0  0  0  0  0  0
  139.8484   67.6103  223.5110 H   0  0  0  0  0  0  0  0  0  0  0  0
  138.2863   66.7799  223.2671 H   0  0  0  0  0  0  0  0  0  0  0  0
  139.7050   68.7644  221.4390 H   0  0  0  0  0  0  0  0  0  0  0  0
  139.1419   67.0854  221.0774 H   0  0  0  0  0  0  0  0  0  0  0  0
  137.6400   69.6614  221.0213 H   0  0  0  0  0  0  0  0  0  0  0  0
  137.3660   68.1716  220.0954 H   0  0  0  0  0  0  0  0  0  0  0  0
  135.5385   68.4035  221.7067 H   0  0  0  0  0  0  0  0  0  0  0  0
  136.5932   67.0700  222.2774 H   0  0  0  0  0  0  0  0  0  0  0  0
  136.4726   69.9457  223.2693 H   0  0  0  0  0  0  0  0  0  0  0  0
  136.1650   68.4322  224.1890 H   0  0  0  0  0  0  0  0  0  0  0  0
  142.0535   72.6213  219.8488 H   0  0  0  0  0  0  0  0  0  0  0  0
  142.6443   74.6677  218.5843 H   0  0  0  0  0  0  0  0  0  0  0  0
  142.6030   77.0475  218.4372 H   0  0  0  0  0  0  0  0  0  0  0  0
  140.7634   79.3435  221.5441 H   0  0  0  0  0  0  0  0  0  0  0  0
  140.1999   77.2805  222.7641 H   0  0  0  0  0  0  0  0  0  0  0  0
  1  2  2  0
  2  3  1  0
  3  4  1  0
  4  5  1  0
  5  6  2  0
  5  7  1  0
  7  8  1  0
  8  9  1  0
  9 10  1  0
 10 11  1  0
 11 12  1  0
 12 13  1  0
 13 14  1  0
 14 15  1  0
 15 16  1  0
 16 17  1  0
 17 18  1  0
 18 19  1  0
  2 20  1  0
 20 21  2  0
 21 22  1  0
 22 23  2  0
 23 24  1  0
 24 25  2  0
 25 26  1  0
 25 27  1  0
 27 28  2  0
 28 29  1  0
 29 30  2  0
 12  7  1  0
 19 14  1  0
 30 20  1  0
 29 23  1  0
  3 31  1  0
  4 32  1  0
  4 33  1  0
  8 34  1  0
  8 35  1  0
  9 36  1  0
  9 37  1  0
 10 38  1  0
 10 39  1  0
 11 40  1  0
 11 41  1  0
 12 42  1  6
 13 43  1  0
 13 44  1  0
 15 45  1  0
 15 46  1  0
 16 47  1  0
 16 48  1  0
 17 49  1  0
 17 50  1  0
 18 51  1  0
 18 52  1  0
 19 53  1  0
 19 54  1  0
 21 55  1  0
 22 56  1  0
 24 57  1  0
 27 58  1  0
 28 59  1  0
M  END
>  <smiles>  (15) 
O=C(NCC(=O)N1CCCC[C@H]1CN1CCCCC1)c1ccc2cc(Cl)ccc2n1

>  <score_type>  (15) 
oracle

>  <origin>  (15) 
autodockgpu

>  <m_score__min__energy>  (15) 
-8.6699999999999999

>  <m_primary>  (15) 
energy

>  <rmsd>  (15) 
9.946681215768216

>  <m_score__min__rmsd>  (15) 
9.946681215768216

>  <meeko>  (15) 
{"free_energy": -7.62, "intermolecular_energy": -9.41, "internal_energy": -1.84, "cluster_size": 4, "cluster_id": 2, "rank_in_cluster": 4}

>  <energy>  (15) 
-8.32

>  <cluster_rmsd>  (15) 
1.15

>  <cluster>  (15) 
1

$$$$

     RDKit          3D

 59 62  0  0  0  0  0  0  0  0999 V2000
  140.7710   72.5940  221.0250 O   0  0  0  0  0  0  0  0  0  0  0  0
  140.1160   72.7920  222.0890 C   0  0  0  0  0  0  0  0  0  0  0  0
  139.3560   73.9940  222.1470 N   0  0  0  0  0  0  0  0  0  0  0  0
  139.3380   74.9360  221.0480 C   0  0  0  0  0  0  0  0  0  0  0  0
  140.4580   75.9080  221.1360 C   0  0  0  0  0  0  0  0  0  0  0  0
  140.9240   76.2460  222.2560 O   0  0  0  0  0  0  0  0  0  0  0  0
  140.9660   76.4260  219.9130 N   0  0  0  0  0  0  0  0  0  0  0  0
  140.6730   75.8400  218.6190 C   0  0  0  0  0  0  0  0  0  0  0  0
  141.9310   75.4890  217.8640 C   0  0  0  0  0  0  0  0  0  0  0  0
  143.0680   76.4100  218.1400 C   0  0  0  0  0  0  0  0  0  0  0  0
  142.6820   77.7260  218.7450 C   0  0  0  0  0  0  0  0  0  0  0  0
  141.8160   77.6000  219.9670 C   0  0  1  0  0  0  0  0  0  0  0  0
  140.8880   78.7950  219.9990 C   0  0  0  0  0  0  0  0  0  0  0  0
  140.9570   79.5050  221.2850 N   0  0  0  0  0  0  0  0  0  0  0  0
  139.8140   79.1640  222.1120 C   0  0  0  0  0  0  0  0  0  0  0  0
  139.7470   80.1600  223.2530 C   0  0  0  0  0  0  0  0  0  0  0  0
  141.1250   80.4020  223.8450 C   0  0  0  0  0  0  0  0  0  0  0  0
  141.9840   79.2220  223.4390 C   0  0  0  0  0  0  0  0  0  0  0  0
  142.2030   79.2620  221.9490 C   0  0  0  0  0  0  0  0  0  0  0  0
  140.1240   71.8490  223.2060 C   0  0  0  0  0  0  0  0  0  0  0  0
  139.6210   70.5820  222.9870 C   0  0  0  0  0  0  0  0  0  0  0  0
  139.5840   69.6210  223.9720 C   0  0  0  0  0  0  0  0  0  0  0  0
  140.0750   69.9640  225.2150 C   0  0  0  0  0  0  0  0  0  0  0  0
  140.0550   69.0310  226.2270 C   0  0  0  0  0  0  0  0  0  0  0  0
  140.5400   69.3500  227.4760 C   0  0  0  0  0  0  0  0  0  0  0  0
  140.5050   68.1490  228.7440 Cl  0  0  0  0  0  0  0  0  0  0  0  0
  141.0390   70.6220  227.6740 C   0  0  0  0  0  0  0  0  0  0  0  0
  141.0590   71.5590  226.6620 C   0  0  0  0  0  0  0  0  0  0  0  0
  140.5730   71.2420  225.4070 C   0  0  0  0  0  0  0  0  0  0  0  0
  140.5980   72.1640  224.4250 N   0  0  0  0  0  0  0  0  0  0  0  0
  138.8010   74.1700  223.0370 H   0  0  0  0  0  0  0  0  0  0  0  0
  139.4217   74.3810  220.1020 H   0  0  0  0  0  0  0  0  0  0  0  0
  138.3934   75.4977  221.0946 H   0  0  0  0  0  0  0  0  0  0  0  0
  140.0808   74.9252  218.7685 H   0  0  0  0  0  0  0  0  0  0  0  0
  140.1150   76.5806  218.0272 H   0  0  0  0  0  0  0  0  0  0  0  0
  142.2329   74.4695  218.1459 H   0  0  0  0  0  0  0  0  0  0  0  0
  141.6988   75.5750  216.7922 H   0  0  0  0  0  0  0  0  0  0  0  0
  143.7568   75.9044  218.8328 H   0  0  0  0  0  0  0  0  0  0  0  0
  143.5221   76.6402  217.1649 H   0  0  0  0  0  0  0  0  0  0  0  0
  143.6009   78.2622  219.0246 H   0  0  0  0  0  0  0  0  0  0  0  0
  142.0934   78.2664  217.9890 H   0  0  0  0  0  0  0  0  0  0  0  0
  142.4756   77.5322  220.8447 H   0  0  0  0  0  0  0  0  0  0  0  0
  141.1722   79.4883  219.1937 H   0  0  0  0  0  0  0  0  0  0  0  0
  139.8584   78.4324  219.8631 H   0  0  0  0  0  0  0  0  0  0  0  0
  138.8918   79.2180  221.5148 H   0  0  0  0  0  0  0  0  0  0  0  0
  139.9173   78.1412  222.5034 H   0  0  0  0  0  0  0  0  0  0  0  0
  139.3448   81.1121  222.8764 H   0  0  0  0  0  0  0  0  0  0  0  0
  139.0948   79.7504  224.0384 H   0  0  0  0  0  0  0  0  0  0  0  0
  141.5502   81.3355  223.4477 H   0  0  0  0  0  0  0  0  0  0  0  0
  141.0751   80.4982  224.9396 H   0  0  0  0  0  0  0  0  0  0  0  0
  142.9536   79.2771  223.9555 H   0  0  0  0  0  0  0  0  0  0  0  0
  141.4798   78.2840  223.7147 H   0  0  0  0  0  0  0  0  0  0  0  0
  142.9109   80.0678  221.7048 H   0  0  0  0  0  0  0  0  0  0  0  0
  142.6124   78.2973  221.6146 H   0  0  0  0  0  0  0  0  0  0  0  0
  139.2353   70.3310  221.9879 H   0  0  0  0  0  0  0  0  0  0  0  0
  139.1783   68.6176  223.7755 H   0  0  0  0  0  0  0  0  0  0  0  0
  139.6498   68.0261  226.0373 H   0  0  0  0  0  0  0  0  0  0  0  0
  141.4309   70.8954  228.6648 H   0  0  0  0  0  0  0  0  0  0  0  0
  141.4637   72.5636  226.8544 H   0  0  0  0  0  0  0  0  0  0  0  0
  1  2  2  0
  2  3  1  0
  3  4  1  0
  4  5  1  0
  5  6  2  0
  5  7  1  0
  7  8  1  0
  8  9  1  0
  9 10  1  0
 10 11  1  0
 11 12  1  0
 12 13  1  0
 13 14  1  0
 14 15  1  0
 15 16  1  0
 16 17  1  0
 17 18  1  0
 18 19  1  0
  2 20  1  0
 20 21  2  0
 21 22  1  0
 22 23  2  0
 23 24  1  0
 24 25  2  0
 25 26  1  0
 25 27  1  0
 27 28  2  0
 28 29  1  0
 29 30  2  0
 12  7  1  0
 19 14  1  0
 30 20  1  0
 29 23  1  0
  3 31  1  0
  4 32  1  0
  4 33  1  0
  8 34  1  0
  8 35  1  0
  9 36  1  0
  9 37  1  0
 10 38  1  0
 10 39  1  0
 11 40  1  0
 11 41  1  0
 12 42  1  1
 13 43  1  0
 13 44  1  0
 15 45  1  0
 15 46  1  0
 16 47  1  0
 16 48  1  0
 17 49  1  0
 17 50  1  0
 18 51  1  0
 18 52  1  0
 19 53  1  0
 19 54  1  0
 21 55  1  0
 22 56  1  0
 24 57  1  0
 27 58  1  0
 28 59  1  0
M  END
>  <smiles>  (16) 
O=C(NCC(=O)N1CCCC[C@H]1CN1CCCCC1)c1ccc2cc(Cl)ccc2n1

>  <score_type>  (16) 
oracle

>  <origin>  (16) 
autodockgpu

>  <m_score__min__energy>  (16) 
-8.6699999999999999

>  <m_primary>  (16) 
energy

>  <rmsd>  (16) 
2.2101891286129063

>  <m_score__min__rmsd>  (16) 
2.2101891286129063

>  <meeko>  (16) 
{"free_energy": -8.27, "intermolecular_energy": -10.06, "internal_energy": -1.77, "cluster_size": 34, "cluster_id": 1, "rank_in_cluster": 16}

>  <energy>  (16) 
-8.27

>  <cluster_rmsd>  (16) 
0.73

>  <cluster>  (16) 
1

$$$$

     RDKit          3D

 59 62  0  0  0  0  0  0  0  0999 V2000
  141.7690   72.8900  221.0840 O   0  0  0  0  0  0  0  0  0  0  0  0
  140.9700   73.7270  221.5960 C   0  0  0  0  0  0  0  0  0  0  0  0
  139.8890   73.1890  222.3480 N   0  0  0  0  0  0  0  0  0  0  0  0
  139.7160   71.7610  222.5160 C   0  0  0  0  0  0  0  0  0  0  0  0
  138.3730   71.3120  222.0690 C   0  0  0  0  0  0  0  0  0  0  0  0
  137.7890   71.8920  221.1150 O   0  0  0  0  0  0  0  0  0  0  0  0
  137.7920   70.2130  222.7600 N   0  0  0  0  0  0  0  0  0  0  0  0
  137.1700   69.0890  222.0870 C   0  0  0  0  0  0  0  0  0  0  0  0
  135.7500   68.8740  222.5490 C   0  0  0  0  0  0  0  0  0  0  0  0
  135.5260   69.2380  223.9760 C   0  0  0  0  0  0  0  0  0  0  0  0
  136.7690   69.3350  224.8060 C   0  0  0  0  0  0  0  0  0  0  0  0
  137.8270   70.2220  224.2110 C   0  0  1  0  0  0  0  0  0  0  0  0
  139.1750   69.6570  224.6050 C   0  0  0  0  0  0  0  0  0  0  0  0
  139.6650   70.2440  225.8620 N   0  0  0  0  0  0  0  0  0  0  0  0
  140.5430   69.3120  226.5470 C   0  0  0  0  0  0  0  0  0  0  0  0
  140.7380   69.8090  227.9660 C   0  0  0  0  0  0  0  0  0  0  0  0
  140.9810   71.3090  227.9890 C   0  0  0  0  0  0  0  0  0  0  0  0
  141.4350   71.6950  226.5950 C   0  0  0  0  0  0  0  0  0  0  0  0
  140.2880   71.5150  225.6360 C   0  0  0  0  0  0  0  0  0  0  0  0
  141.1330   75.1720  221.4350 C   0  0  0  0  0  0  0  0  0  0  0  0
  141.8300   75.6250  220.3330 C   0  0  0  0  0  0  0  0  0  0  0  0
  142.0380   76.9640  220.0900 C   0  0  0  0  0  0  0  0  0  0  0  0
  141.5190   77.8640  220.9980 C   0  0  0  0  0  0  0  0  0  0  0  0
  141.7060   79.2120  220.7910 C   0  0  0  0  0  0  0  0  0  0  0  0
  141.1960   80.1300  221.6830 C   0  0  0  0  0  0  0  0  0  0  0  0
  141.4460   81.8350  221.3990 Cl  0  0  0  0  0  0  0  0  0  0  0  0
  140.5020   79.6560  222.7780 C   0  0  0  0  0  0  0  0  0  0  0  0
  140.3140   78.3050  222.9880 C   0  0  0  0  0  0  0  0  0  0  0  0
  140.8230   77.3810  222.0950 C   0  0  0  0  0  0  0  0  0  0  0  0
  140.6340   76.0650  222.3080 N   0  0  0  0  0  0  0  0  0  0  0  0
  139.2110   73.8840  222.7830 H   0  0  0  0  0  0  0  0  0  0  0  0
  140.4816   71.2375  221.9245 H   0  0  0  0  0  0  0  0  0  0  0  0
  139.8157   71.5280  223.5864 H   0  0  0  0  0  0  0  0  0  0  0  0
  137.1667   69.2803  221.0038 H   0  0  0  0  0  0  0  0  0  0  0  0
  137.7480   68.1845  222.3276 H   0  0  0  0  0  0  0  0  0  0  0  0
  135.0844   69.4882  221.9247 H   0  0  0  0  0  0  0  0  0  0  0  0
  135.5387   67.7987  222.4532 H   0  0  0  0  0  0  0  0  0  0  0  0
  135.0197   70.2142  224.0040 H   0  0  0  0  0  0  0  0  0  0  0  0
  134.9279   68.4238  224.4112 H   0  0  0  0  0  0  0  0  0  0  0  0
  136.4963   69.7348  225.7938 H   0  0  0  0  0  0  0  0  0  0  0  0
  137.1951   68.3226  224.8651 H   0  0  0  0  0  0  0  0  0  0  0  0
  137.6552   71.2461  224.5740 H   0  0  0  0  0  0  0  0  0  0  0  0
  139.0817   68.5684  224.7325 H   0  0  0  0  0  0  0  0  0  0  0  0
  139.8946   69.9006  223.8095 H   0  0  0  0  0  0  0  0  0  0  0  0
  140.0869   68.3111  226.5613 H   0  0  0  0  0  0  0  0  0  0  0  0
  141.5109   69.2471  226.0283 H   0  0  0  0  0  0  0  0  0  0  0  0
  139.8365   69.5815  228.5539 H   0  0  0  0  0  0  0  0  0  0  0  0
  141.6160   69.3051  228.3963 H   0  0  0  0  0  0  0  0  0  0  0  0
  140.0528   71.8401  228.2466 H   0  0  0  0  0  0  0  0  0  0  0  0
  141.7374   71.5771  228.7413 H   0  0  0  0  0  0  0  0  0  0  0  0
  141.7573   72.7467  226.5906 H   0  0  0  0  0  0  0  0  0  0  0  0
  142.2773   71.0569  226.2895 H   0  0  0  0  0  0  0  0  0  0  0  0
  139.5511   72.3165  225.7926 H   0  0  0  0  0  0  0  0  0  0  0  0
  140.6658   71.5574  224.6038 H   0  0  0  0  0  0  0  0  0  0  0  0
  142.2342   74.8888  219.6226 H   0  0  0  0  0  0  0  0  0  0  0  0
  142.5968   77.3035  219.2054 H   0  0  0  0  0  0  0  0  0  0  0  0
  142.2653   79.5580  219.9092 H   0  0  0  0  0  0  0  0  0  0  0  0
  140.0882   80.3735  223.5018 H   0  0  0  0  0  0  0  0  0  0  0  0
  139.7557   77.9615  223.8714 H   0  0  0  0  0  0  0  0  0  0  0  0
  1  2  2  0
  2  3  1  0
  3  4  1  0
  4  5  1  0
  5  6  2  0
  5  7  1  0
  7  8  1  0
  8  9  1  0
  9 10  1  0
 10 11  1  0
 11 12  1  0
 12 13  1  0
 13 14  1  0
 14 15  1  0
 15 16  1  0
 16 17  1  0
 17 18  1  0
 18 19  1  0
  2 20  1  0
 20 21  2  0
 21 22  1  0
 22 23  2  0
 23 24  1  0
 24 25  2  0
 25 26  1  0
 25 27  1  0
 27 28  2  0
 28 29  1  0
 29 30  2  0
 12  7  1  0
 19 14  1  0
 30 20  1  0
 29 23  1  0
  3 31  1  0
  4 32  1  0
  4 33  1  0
  8 34  1  0
  8 35  1  0
  9 36  1  0
  9 37  1  0
 10 38  1  0
 10 39  1  0
 11 40  1  0
 11 41  1  0
 12 42  1  1
 13 43  1  0
 13 44  1  0
 15 45  1  0
 15 46  1  0
 16 47  1  0
 16 48  1  0
 17 49  1  0
 17 50  1  0
 18 51  1  0
 18 52  1  0
 19 53  1  0
 19 54  1  0
 21 55  1  0
 22 56  1  0
 24 57  1  0
 27 58  1  0
 28 59  1  0
M  END
>  <smiles>  (17) 
O=C(NCC(=O)N1CCCC[C@H]1CN1CCCCC1)c1ccc2cc(Cl)ccc2n1

>  <score_type>  (17) 
oracle

>  <origin>  (17) 
autodockgpu

>  <m_score__min__energy>  (17) 
-8.6699999999999999

>  <m_primary>  (17) 
energy

>  <rmsd>  (17) 
9.165349391899172

>  <m_score__min__rmsd>  (17) 
9.165349391899172

>  <meeko>  (17) 
{"free_energy": -7.94, "intermolecular_energy": -9.73, "internal_energy": -1.5, "cluster_size": 4, "cluster_id": 2, "rank_in_cluster": 1}

>  <energy>  (17) 
-8.27

>  <cluster_rmsd>  (17) 
0.82

>  <cluster>  (17) 
1

$$$$

     RDKit          3D

 59 62  0  0  0  0  0  0  0  0999 V2000
  136.6000   77.6030  222.7070 O   0  0  0  0  0  0  0  0  0  0  0  0
  136.6590   76.3980  223.0870 C   0  0  0  0  0  0  0  0  0  0  0  0
  137.7780   75.6470  222.6290 N   0  0  0  0  0  0  0  0  0  0  0  0
  138.7900   76.2330  221.7760 C   0  0  0  0  0  0  0  0  0  0  0  0
  139.9350   75.3110  221.5660 C   0  0  0  0  0  0  0  0  0  0  0  0
  140.0950   74.3100  222.3130 O   0  0  0  0  0  0  0  0  0  0  0  0
  140.8240   75.6130  220.4970 N   0  0  0  0  0  0  0  0  0  0  0  0
  140.8260   74.8930  219.2380 C   0  0  0  0  0  0  0  0  0  0  0  0
  142.1870   74.3260  218.9180 C   0  0  0  0  0  0  0  0  0  0  0  0
  143.3130   75.1620  219.4200 C   0  0  0  0  0  0  0  0  0  0  0  0
  142.9500   76.5760  219.7540 C   0  0  0  0  0  0  0  0  0  0  0  0
  141.7720   76.6960  220.6800 C   0  0  1  0  0  0  0  0  0  0  0  0
  141.0340   77.9690  220.3230 C   0  0  0  0  0  0  0  0  0  0  0  0
  141.0430   78.9330  221.4340 N   0  0  0  0  0  0  0  0  0  0  0  0
  141.4140   78.2730  222.6730 C   0  0  0  0  0  0  0  0  0  0  0  0
  141.0780   79.2060  223.8200 C   0  0  0  0  0  0  0  0  0  0  0  0
  141.5050   80.6300  223.5070 C   0  0  0  0  0  0  0  0  0  0  0  0
  142.5440   80.5370  222.4080 C   0  0  0  0  0  0  0  0  0  0  0  0
  141.8810   80.0580  221.1430 C   0  0  0  0  0  0  0  0  0  0  0  0
  135.6440   75.7930  223.9490 C   0  0  0  0  0  0  0  0  0  0  0  0
  134.7310   76.6300  224.5570 C   0  0  0  0  0  0  0  0  0  0  0  0
  133.7370   76.1600  225.3860 C   0  0  0  0  0  0  0  0  0  0  0  0
  133.6750   74.7990  225.5980 C   0  0  0  0  0  0  0  0  0  0  0  0
  132.6950   74.2900  226.4210 C   0  0  0  0  0  0  0  0  0  0  0  0
  132.6140   72.9330  226.6480 C   0  0  0  0  0  0  0  0  0  0  0  0
  131.3620   72.3110  227.6950 Cl  0  0  0  0  0  0  0  0  0  0  0  0
  133.5360   72.1140  226.0290 C   0  0  0  0  0  0  0  0  0  0  0  0
  134.5190   72.6220  225.2040 C   0  0  0  0  0  0  0  0  0  0  0  0
  134.6040   73.9820  224.9750 C   0  0  0  0  0  0  0  0  0  0  0  0
  135.5670   74.4680  224.1680 N   0  0  0  0  0  0  0  0  0  0  0  0
  137.8370   74.6320  222.9430 H   0  0  0  0  0  0  0  0  0  0  0  0
  138.3400   76.4700  220.8006 H   0  0  0  0  0  0  0  0  0  0  0  0
  139.1680   77.1414  222.2679 H   0  0  0  0  0  0  0  0  0  0  0  0
  140.1018   74.0673  219.2991 H   0  0  0  0  0  0  0  0  0  0  0  0
  140.5542   75.5996  218.4400 H   0  0  0  0  0  0  0  0  0  0  0  0
  142.2642   73.3280  219.3741 H   0  0  0  0  0  0  0  0  0  0  0  0
  142.2734   74.2921  217.8219 H   0  0  0  0  0  0  0  0  0  0  0  0
  143.7114   74.6879  220.3291 H   0  0  0  0  0  0  0  0  0  0  0  0
  144.0447   75.2173  218.6005 H   0  0  0  0  0  0  0  0  0  0  0  0
  143.8178   77.0533  220.2327 H   0  0  0  0  0  0  0  0  0  0  0  0
  142.6679   77.0664  218.8106 H   0  0  0  0  0  0  0  0  0  0  0  0
  142.1493   76.6807  221.7131 H   0  0  0  0  0  0  0  0  0  0  0  0
  141.5180   78.4284  219.4485 H   0  0  0  0  0  0  0  0  0  0  0  0
  139.9880   77.7088  220.1033 H   0  0  0  0  0  0  0  0  0  0  0  0
  140.8512   77.3338  222.7787 H   0  0  0  0  0  0  0  0  0  0  0  0
  142.4886   78.0382  222.6738 H   0  0  0  0  0  0  0  0  0  0  0  0
  139.9919   79.1861  223.9935 H   0  0  0  0  0  0  0  0  0  0  0  0
  141.6179   78.8675  224.7166 H   0  0  0  0  0  0  0  0  0  0  0  0
  140.6414   81.2189  223.1644 H   0  0  0  0  0  0  0  0  0  0  0  0
  141.9135   81.1275  224.3990 H   0  0  0  0  0  0  0  0  0  0  0  0
  142.9900   81.5280  222.2378 H   0  0  0  0  0  0  0  0  0  0  0  0
  143.3338   79.8306  222.7032 H   0  0  0  0  0  0  0  0  0  0  0  0
  141.2703   80.8694  220.7203 H   0  0  0  0  0  0  0  0  0  0  0  0
  142.6522   79.7601  220.4174 H   0  0  0  0  0  0  0  0  0  0  0  0
  134.7997   77.7123  224.3728 H   0  0  0  0  0  0  0  0  0  0  0  0
  133.0192   76.8448  225.8613 H   0  0  0  0  0  0  0  0  0  0  0  0
  131.9740   74.9693  226.8991 H   0  0  0  0  0  0  0  0  0  0  0  0
  133.4863   71.0281  226.1974 H   0  0  0  0  0  0  0  0  0  0  0  0
  135.2385   71.9407  224.7263 H   0  0  0  0  0  0  0  0  0  0  0  0
  1  2  2  0
  2  3  1  0
  3  4  1  0
  4  5  1  0
  5  6  2  0
  5  7  1  0
  7  8  1  0
  8  9  1  0
  9 10  1  0
 10 11  1  0
 11 12  1  0
 12 13  1  0
 13 14  1  0
 14 15  1  0
 15 16  1  0
 16 17  1  0
 17 18  1  0
 18 19  1  0
  2 20  1  0
 20 21  2  0
 21 22  1  0
 22 23  2  0
 23 24  1  0
 24 25  2  0
 25 26  1  0
 25 27  1  0
 27 28  2  0
 28 29  1  0
 29 30  2  0
 12  7  1  0
 19 14  1  0
 30 20  1  0
 29 23  1  0
  3 31  1  0
  4 32  1  0
  4 33  1  0
  8 34  1  0
  8 35  1  0
  9 36  1  0
  9 37  1  0
 10 38  1  0
 10 39  1  0
 11 40  1  0
 11 41  1  0
 12 42  1  1
 13 43  1  0
 13 44  1  0
 15 45  1  0
 15 46  1  0
 16 47  1  0
 16 48  1  0
 17 49  1  0
 17 50  1  0
 18 51  1  0
 18 52  1  0
 19 53  1  0
 19 54  1  0
 21 55  1  0
 22 56  1  0
 24 57  1  0
 27 58  1  0
 28 59  1  0
M  END
>  <smiles>  (18) 
O=C(NCC(=O)N1CCCC[C@H]1CN1CCCCC1)c1ccc2cc(Cl)ccc2n1

>  <score_type>  (18) 
oracle

>  <origin>  (18) 
autodockgpu

>  <m_score__min__energy>  (18) 
-8.6699999999999999

>  <m_primary>  (18) 
energy

>  <rmsd>  (18) 
5.39399472039867

>  <m_score__min__rmsd>  (18) 
5.39399472039867

>  <meeko>  (18) 
{"free_energy": -7.5, "intermolecular_energy": -9.29, "internal_energy": -2.11, "cluster_size": 5, "cluster_id": 5, "rank_in_cluster": 5}

>  <energy>  (18) 
-8.23

>  <cluster_rmsd>  (18) 
0.76

>  <cluster>  (18) 
1

$$$$

     RDKit          3D

 59 62  0  0  0  0  0  0  0  0999 V2000
  140.2810   71.9980  220.8260 O   0  0  0  0  0  0  0  0  0  0  0  0
  140.0320   72.4080  221.9960 C   0  0  0  0  0  0  0  0  0  0  0  0
  139.7050   73.7870  222.1250 N   0  0  0  0  0  0  0  0  0  0  0  0
  139.6620   74.6690  220.9780 C   0  0  0  0  0  0  0  0  0  0  0  0
  140.7380   75.6920  221.0270 C   0  0  0  0  0  0  0  0  0  0  0  0
  141.3910   75.8820  222.0870 O   0  0  0  0  0  0  0  0  0  0  0  0
  140.9870   76.4300  219.8370 N   0  0  0  0  0  0  0  0  0  0  0  0
  140.5880   75.9720  218.5200 C   0  0  0  0  0  0  0  0  0  0  0  0
  141.7570   75.9140  217.5680 C   0  0  0  0  0  0  0  0  0  0  0  0
  142.7900   76.9560  217.8280 C   0  0  0  0  0  0  0  0  0  0  0  0
  142.3240   78.1110  218.6610 C   0  0  0  0  0  0  0  0  0  0  0  0
  141.6720   77.7030  219.9530 C   0  0  1  0  0  0  0  0  0  0  0  0
  140.6070   78.7300  220.2740 C   0  0  0  0  0  0  0  0  0  0  0  0
  140.9300   79.4850  221.4950 N   0  0  0  0  0  0  0  0  0  0  0  0
  140.8720   78.6150  222.6560 C   0  0  0  0  0  0  0  0  0  0  0  0
  140.8670   79.4890  223.8960 C   0  0  0  0  0  0  0  0  0  0  0  0
  141.8880   80.6080  223.7770 C   0  0  0  0  0  0  0  0  0  0  0  0
  142.8800   80.1770  222.7160 C   0  0  0  0  0  0  0  0  0  0  0  0
  142.1900   80.1560  221.3770 C   0  0  0  0  0  0  0  0  0  0  0  0
  140.0720   71.5290  223.1640 C   0  0  0  0  0  0  0  0  0  0  0  0
  139.5780   70.2480  223.0260 C   0  0  0  0  0  0  0  0  0  0  0  0
  139.5700   69.3430  224.0630 C   0  0  0  0  0  0  0  0  0  0  0  0
  140.0810   69.7590  225.2750 C   0  0  0  0  0  0  0  0  0  0  0  0
  140.0900   68.8830  226.3380 C   0  0  0  0  0  0  0  0  0  0  0  0
  140.5960   69.2770  227.5580 C   0  0  0  0  0  0  0  0  0  0  0  0
  140.5980   68.1480  228.8910 Cl  0  0  0  0  0  0  0  0  0  0  0  0
  141.0850   70.5620  227.6750 C   0  0  0  0  0  0  0  0  0  0  0  0
  141.0760   71.4410  226.6110 C   0  0  0  0  0  0  0  0  0  0  0  0
  140.5700   71.0500  225.3860 C   0  0  0  0  0  0  0  0  0  0  0  0
  140.5660   71.9160  224.3540 N   0  0  0  0  0  0  0  0  0  0  0  0
  139.4950   74.1430  223.1050 H   0  0  0  0  0  0  0  0  0  0  0  0
  139.7821   74.0696  220.0635 H   0  0  0  0  0  0  0  0  0  0  0  0
  138.6938   75.1911  220.9847 H   0  0  0  0  0  0  0  0  0  0  0  0
  140.1521   74.9661  218.6100 H   0  0  0  0  0  0  0  0  0  0  0  0
  139.8549   76.6866  218.1175 H   0  0  0  0  0  0  0  0  0  0  0  0
  142.2302   74.9251  217.6581 H   0  0  0  0  0  0  0  0  0  0  0  0
  141.3605   76.0975  216.5585 H   0  0  0  0  0  0  0  0  0  0  0  0
  143.6341   76.4786  218.3472 H   0  0  0  0  0  0  0  0  0  0  0  0
  143.0623   77.3726  216.8470 H   0  0  0  0  0  0  0  0  0  0  0  0
  143.1935   78.7426  218.8956 H   0  0  0  0  0  0  0  0  0  0  0  0
  141.5630   78.6443  218.0724 H   0  0  0  0  0  0  0  0  0  0  0  0
  142.4558   77.6270  220.7210 H   0  0  0  0  0  0  0  0  0  0  0  0
  140.5239   79.4327  219.4318 H   0  0  0  0  0  0  0  0  0  0  0  0
  139.6577   78.1995  220.4397 H   0  0  0  0  0  0  0  0  0  0  0  0
  139.9548   78.0086  222.6228 H   0  0  0  0  0  0  0  0  0  0  0  0
  141.7381   77.9370  222.6695 H   0  0  0  0  0  0  0  0  0  0  0  0
  139.8661   79.9272  224.0233 H   0  0  0  0  0  0  0  0  0  0  0  0
  141.1284   78.8668  224.7646 H   0  0  0  0  0  0  0  0  0  0  0  0
  141.3930   81.5432  223.4764 H   0  0  0  0  0  0  0  0  0  0  0  0
  142.3898   80.7914  224.7385 H   0  0  0  0  0  0  0  0  0  0  0  0
  143.7199   80.8867  222.6867 H   0  0  0  0  0  0  0  0  0  0  0  0
  143.2628   79.1731  222.9519 H   0  0  0  0  0  0  0  0  0  0  0  0
  142.0242   81.1881  221.0346 H   0  0  0  0  0  0  0  0  0  0  0  0
  142.8205   79.6231  220.6500 H   0  0  0  0  0  0  0  0  0  0  0  0
  139.1753   69.9384  222.0503 H   0  0  0  0  0  0  0  0  0  0  0  0
  139.1712   68.3264  223.9304 H   0  0  0  0  0  0  0  0  0  0  0  0
  139.6919   67.8653  226.2127 H   0  0  0  0  0  0  0  0  0  0  0  0
  141.4925   70.8943  228.6412 H   0  0  0  0  0  0  0  0  0  0  0  0
  141.4739   72.4585  226.7388 H   0  0  0  0  0  0  0  0  0  0  0  0
  1  2  2  0
  2  3  1  0
  3  4  1  0
  4  5  1  0
  5  6  2  0
  5  7  1  0
  7  8  1  0
  8  9  1  0
  9 10  1  0
 10 11  1  0
 11 12  1  0
 12 13  1  0
 13 14  1  0
 14 15  1  0
 15 16  1  0
 16 17  1  0
 17 18  1  0
 18 19  1  0
  2 20  1  0
 20 21  2  0
 21 22  1  0
 22 23  2  0
 23 24  1  0
 24 25  2  0
 25 26  1  0
 25 27  1  0
 27 28  2  0
 28 29  1  0
 29 30  2  0
 12  7  1  0
 19 14  1  0
 30 20  1  0
 29 23  1  0
  3 31  1  0
  4 32  1  0
  4 33  1  0
  8 34  1  0
  8 35  1  0
  9 36  1  0
  9 37  1  0
 10 38  1  0
 10 39  1  0
 11 40  1  0
 11 41  1  0
 12 42  1  1
 13 43  1  0
 13 44  1  0
 15 45  1  0
 15 46  1  0
 16 47  1  0
 16 48  1  0
 17 49  1  0
 17 50  1  0
 18 51  1  0
 18 52  1  0
 19 53  1  0
 19 54  1  0
 21 55  1  0
 22 56  1  0
 24 57  1  0
 27 58  1  0
 28 59  1  0
M  END
>  <smiles>  (19) 
O=C(NCC(=O)N1CCCC[C@H]1CN1CCCCC1)c1ccc2cc(Cl)ccc2n1

>  <score_type>  (19) 
oracle

>  <origin>  (19) 
autodockgpu

>  <m_score__min__energy>  (19) 
-8.6699999999999999

>  <m_primary>  (19) 
energy

>  <rmsd>  (19) 
1.9837040774804848

>  <m_score__min__rmsd>  (19) 
1.9837040774804848

>  <meeko>  (19) 
{"free_energy": -8.45, "intermolecular_energy": -10.24, "internal_energy": -1.67, "cluster_size": 34, "cluster_id": 1, "rank_in_cluster": 10}

>  <energy>  (19) 
-8.21

>  <cluster_rmsd>  (19) 
1.96

>  <cluster>  (19) 
1

$$$$

     RDKit          3D

 59 62  0  0  0  0  0  0  0  0999 V2000
  140.5140   72.5190  220.8480 O   0  0  0  0  0  0  0  0  0  0  0  0
  140.1280   72.8500  222.0060 C   0  0  0  0  0  0  0  0  0  0  0  0
  139.6770   74.1910  222.1600 N   0  0  0  0  0  0  0  0  0  0  0  0
  139.6630   75.1220  221.0510 C   0  0  0  0  0  0  0  0  0  0  0  0
  138.3980   75.8990  220.9990 C   0  0  0  0  0  0  0  0  0  0  0  0
  137.3390   75.3680  220.5720 O   0  0  0  0  0  0  0  0  0  0  0  0
  138.4460   77.2470  221.4490 N   0  0  0  0  0  0  0  0  0  0  0  0
  138.0180   77.6590  222.7720 C   0  0  0  0  0  0  0  0  0  0  0  0
  136.9680   78.7400  222.7110 C   0  0  0  0  0  0  0  0  0  0  0  0
  137.1220   79.6550  221.5460 C   0  0  0  0  0  0  0  0  0  0  0  0
  138.4750   79.6340  220.9020 C   0  0  0  0  0  0  0  0  0  0  0  0
  138.9500   78.2550  220.5370 C   0  0  1  0  0  0  0  0  0  0  0  0
  140.4580   78.2370  220.6760 C   0  0  0  0  0  0  0  0  0  0  0  0
  140.9090   79.0440  221.8200 N   0  0  0  0  0  0  0  0  0  0  0  0
  141.4120   78.1850  222.8770 C   0  0  0  0  0  0  0  0  0  0  0  0
  141.5360   79.0170  224.1380 C   0  0  0  0  0  0  0  0  0  0  0  0
  142.1560   80.3720  223.8380 C   0  0  0  0  0  0  0  0  0  0  0  0
  142.8790   80.2320  222.5140 C   0  0  0  0  0  0  0  0  0  0  0  0
  141.8650   80.0320  221.4180 C   0  0  0  0  0  0  0  0  0  0  0  0
  140.1360   71.9210  223.1350 C   0  0  0  0  0  0  0  0  0  0  0  0
  139.6170   70.6580  222.9360 C   0  0  0  0  0  0  0  0  0  0  0  0
  139.5790   69.7100  223.9340 C   0  0  0  0  0  0  0  0  0  0  0  0
  140.0840   70.0620  225.1670 C   0  0  0  0  0  0  0  0  0  0  0  0
  140.0640   69.1420  226.1920 C   0  0  0  0  0  0  0  0  0  0  0  0
  140.5640   69.4720  227.4320 C   0  0  0  0  0  0  0  0  0  0  0  0
  140.5270   68.2870  228.7160 Cl  0  0  0  0  0  0  0  0  0  0  0  0
  141.0780   70.7400  227.6100 C   0  0  0  0  0  0  0  0  0  0  0  0
  141.1000   71.6640  226.5850 C   0  0  0  0  0  0  0  0  0  0  0  0
  140.5990   71.3370  225.3390 C   0  0  0  0  0  0  0  0  0  0  0  0
  140.6250   72.2460  224.3450 N   0  0  0  0  0  0  0  0  0  0  0  0
  139.3500   74.4810  223.1300 H   0  0  0  0  0  0  0  0  0  0  0  0
  140.5056   75.8204  221.1618 H   0  0  0  0  0  0  0  0  0  0  0  0
  139.7481   74.5445  220.1187 H   0  0  0  0  0  0  0  0  0  0  0  0
  137.6015   76.7877  223.2986 H   0  0  0  0  0  0  0  0  0  0  0  0
  138.8926   78.0622  223.3036 H   0  0  0  0  0  0  0  0  0  0  0  0
  135.9794   78.2616  222.6493 H   0  0  0  0  0  0  0  0  0  0  0  0
  137.0808   79.3512  223.6186 H   0  0  0  0  0  0  0  0  0  0  0  0
  136.3780   79.3706  220.7874 H   0  0  0  0  0  0  0  0  0  0  0  0
  136.9805   80.6747  221.9336 H   0  0  0  0  0  0  0  0  0  0  0  0
  138.4326   80.2405  219.9853 H   0  0  0  0  0  0  0  0  0  0  0  0
  139.1874   80.0347  221.6382 H   0  0  0  0  0  0  0  0  0  0  0  0
  138.5989   78.0330  219.5184 H   0  0  0  0  0  0  0  0  0  0  0  0
  140.7903   77.1983  220.8195 H   0  0  0  0  0  0  0  0  0  0  0  0
  140.8916   78.6670  219.7611 H   0  0  0  0  0  0  0  0  0  0  0  0
  140.7128   77.3528  223.0461 H   0  0  0  0  0  0  0  0  0  0  0  0
  142.3905   77.7677  222.5969 H   0  0  0  0  0  0  0  0  0  0  0  0
  140.5355   79.1669  224.5698 H   0  0  0  0  0  0  0  0  0  0  0  0
  142.1859   78.4836  224.8472 H   0  0  0  0  0  0  0  0  0  0  0  0
  141.3722   81.1402  223.7633 H   0  0  0  0  0  0  0  0  0  0  0  0
  142.8467   80.6786  224.6373 H   0  0  0  0  0  0  0  0  0  0  0  0
  143.4623   81.1431  222.3146 H   0  0  0  0  0  0  0  0  0  0  0  0
  143.5589   79.3681  222.5523 H   0  0  0  0  0  0  0  0  0  0  0  0
  141.3477   80.9824  221.2204 H   0  0  0  0  0  0  0  0  0  0  0  0
  142.3769   79.6937  220.5050 H   0  0  0  0  0  0  0  0  0  0  0  0
  139.2191   70.3990  221.9438 H   0  0  0  0  0  0  0  0  0  0  0  0
  139.1609   68.7086  223.7537 H   0  0  0  0  0  0  0  0  0  0  0  0
  139.6467   68.1390  226.0193 H   0  0  0  0  0  0  0  0  0  0  0  0
  141.4806   71.0217  228.5941 H   0  0  0  0  0  0  0  0  0  0  0  0
  141.5185   72.6660  226.7606 H   0  0  0  0  0  0  0  0  0  0  0  0
  1  2  2  0
  2  3  1  0
  3  4  1  0
  4  5  1  0
  5  6  2  0
  5  7  1  0
  7  8  1  0
  8  9  1  0
  9 10  1  0
 10 11  1  0
 11 12  1  0
 12 13  1  0
 13 14  1  0
 14 15  1  0
 15 16  1  0
 16 17  1  0
 17 18  1  0
 18 19  1  0
  2 20  1  0
 20 21  2  0
 21 22  1  0
 22 23  2  0
 23 24  1  0
 24 25  2  0
 25 26  1  0
 25 27  1  0
 27 28  2  0
 28 29  1  0
 29 30  2  0
 12  7  1  0
 19 14  1  0
 30 20  1  0
 29 23  1  0
  3 31  1  0
  4 32  1  0
  4 33  1  0
  8 34  1  0
  8 35  1  0
  9 36  1  0
  9 37  1  0
 10 38  1  0
 10 39  1  0
 11 40  1  0
 11 41  1  0
 12 42  1  6
 13 43  1  0
 13 44  1  0
 15 45  1  0
 15 46  1  0
 16 47  1  0
 16 48  1  0
 17 49  1  0
 17 50  1  0
 18 51  1  0
 18 52  1  0
 19 53  1  0
 19 54  1  0
 21 55  1  0
 22 56  1  0
 24 57  1  0
 27 58  1  0
 28 59  1  0
M  END
>  <smiles>  (20) 
O=C(NCC(=O)N1CCCC[C@H]1CN1CCCCC1)c1ccc2cc(Cl)ccc2n1

>  <score_type>  (20) 
oracle

>  <origin>  (20) 
autodockgpu

>  <m_score__min__energy>  (20) 
-8.6699999999999999

>  <m_primary>  (20) 
energy

>  <rmsd>  (20) 
3.3217135954497854

>  <m_score__min__rmsd>  (20) 
3.3217135954497854

>  <meeko>  (20) 
{"free_energy": -7.86, "intermolecular_energy": -9.65, "internal_energy": -1.69, "cluster_size": 34, "cluster_id": 1, "rank_in_cluster": 26}

>  <energy>  (20) 
-8.2

>  <cluster_rmsd>  (20) 
1.04

>  <cluster>  (20) 
1

$$$$

     RDKit          3D

 59 62  0  0  0  0  0  0  0  0999 V2000
  136.7610   77.6670  222.7150 O   0  0  0  0  0  0  0  0  0  0  0  0
  136.8020   76.4670  223.1140 C   0  0  0  0  0  0  0  0  0  0  0  0
  137.9360   75.7070  222.7120 N   0  0  0  0  0  0  0  0  0  0  0  0
  138.9830   76.2790  221.8910 C   0  0  0  0  0  0  0  0  0  0  0  0
  139.9910   75.2630  221.4960 C   0  0  0  0  0  0  0  0  0  0  0  0
  140.0350   74.1460  222.0770 O   0  0  0  0  0  0  0  0  0  0  0  0
  140.8860   75.6110  220.4480 N   0  0  0  0  0  0  0  0  0  0  0  0
  140.9200   74.9240  219.1700 C   0  0  0  0  0  0  0  0  0  0  0  0
  142.2960   74.3940  218.8530 C   0  0  0  0  0  0  0  0  0  0  0  0
  143.3980   75.2390  219.3910 C   0  0  0  0  0  0  0  0  0  0  0  0
  143.0010   76.6360  219.7580 C   0  0  0  0  0  0  0  0  0  0  0  0
  141.8090   76.7080  220.6710 C   0  0  1  0  0  0  0  0  0  0  0  0
  141.0500   77.9740  220.3380 C   0  0  0  0  0  0  0  0  0  0  0  0
  141.0520   78.9220  221.4620 N   0  0  0  0  0  0  0  0  0  0  0  0
  141.4540   78.2530  222.6860 C   0  0  0  0  0  0  0  0  0  0  0  0
  141.1130   79.1620  223.8510 C   0  0  0  0  0  0  0  0  0  0  0  0
  141.5040   80.5990  223.5530 C   0  0  0  0  0  0  0  0  0  0  0  0
  142.5300   80.5460  222.4390 C   0  0  0  0  0  0  0  0  0  0  0  0
  141.8610   80.0700  221.1760 C   0  0  0  0  0  0  0  0  0  0  0  0
  135.7530   75.8760  223.9440 C   0  0  0  0  0  0  0  0  0  0  0  0
  134.7780   76.7140  224.4470 C   0  0  0  0  0  0  0  0  0  0  0  0
  133.7480   76.2570  225.2380 C   0  0  0  0  0  0  0  0  0  0  0  0
  133.7130   74.9080  225.5220 C   0  0  0  0  0  0  0  0  0  0  0  0
  132.6980   74.4120  226.3100 C   0  0  0  0  0  0  0  0  0  0  0  0
  132.6430   73.0680  226.6070 C   0  0  0  0  0  0  0  0  0  0  0  0
  131.3460   72.4620  227.6080 Cl  0  0  0  0  0  0  0  0  0  0  0  0
  133.6270   72.2480  226.0940 C   0  0  0  0  0  0  0  0  0  0  0  0
  134.6450   72.7420  225.3040 C   0  0  0  0  0  0  0  0  0  0  0  0
  134.7040   74.0900  225.0040 C   0  0  0  0  0  0  0  0  0  0  0  0
  135.7010   74.5630  224.2320 N   0  0  0  0  0  0  0  0  0  0  0  0
  137.9810   74.6970  223.0420 H   0  0  0  0  0  0  0  0  0  0  0  0
  138.5310   76.7040  220.9827 H   0  0  0  0  0  0  0  0  0  0  0  0
  139.4930   77.0558  222.4795 H   0  0  0  0  0  0  0  0  0  0  0  0
  140.2127   74.0820  219.1999 H   0  0  0  0  0  0  0  0  0  0  0  0
  140.6440   75.6460  218.3873 H   0  0  0  0  0  0  0  0  0  0  0  0
  142.3884   73.3861  219.2838 H   0  0  0  0  0  0  0  0  0  0  0  0
  142.3965   74.3911  217.7576 H   0  0  0  0  0  0  0  0  0  0  0  0
  143.7954   74.7490  220.2921 H   0  0  0  0  0  0  0  0  0  0  0  0
  144.1383   75.3313  218.5827 H   0  0  0  0  0  0  0  0  0  0  0  0
  143.8525   77.1178  220.2608 H   0  0  0  0  0  0  0  0  0  0  0  0
  142.7205   77.1451  218.8241 H   0  0  0  0  0  0  0  0  0  0  0  0
  142.1735   76.6735  221.7083 H   0  0  0  0  0  0  0  0  0  0  0  0
  141.5209   78.4531  219.4670 H   0  0  0  0  0  0  0  0  0  0  0  0
  140.0065   77.7010  220.1221 H   0  0  0  0  0  0  0  0  0  0  0  0
  140.9134   77.3002  222.7854 H   0  0  0  0  0  0  0  0  0  0  0  0
  142.5335   78.0421  222.6693 H   0  0  0  0  0  0  0  0  0  0  0  0
  140.0301   79.1154  224.0386 H   0  0  0  0  0  0  0  0  0  0  0  0
  141.6724   78.8229  224.7354 H   0  0  0  0  0  0  0  0  0  0  0  0
  140.6228   81.1731  223.2305 H   0  0  0  0  0  0  0  0  0  0  0  0
  141.9137   81.0923  224.4467 H   0  0  0  0  0  0  0  0  0  0  0  0
  142.9507   81.5494  222.2775 H   0  0  0  0  0  0  0  0  0  0  0  0
  143.3399   79.8540  222.7132 H   0  0  0  0  0  0  0  0  0  0  0  0
  141.2267   80.8733  220.7729 H   0  0  0  0  0  0  0  0  0  0  0  0
  142.6289   79.7998  220.4361 H   0  0  0  0  0  0  0  0  0  0  0  0
  134.8258   77.7864  224.2069 H   0  0  0  0  0  0  0  0  0  0  0  0
  132.9815   76.9424  225.6289 H   0  0  0  0  0  0  0  0  0  0  0  0
  131.9281   75.0919  226.7038 H   0  0  0  0  0  0  0  0  0  0  0  0
  133.5993   71.1720  226.3207 H   0  0  0  0  0  0  0  0  0  0  0  0
  135.4132   72.0597  224.9112 H   0  0  0  0  0  0  0  0  0  0  0  0
  1  2  2  0
  2  3  1  0
  3  4  1  0
  4  5  1  0
  5  6  2  0
  5  7  1  0
  7  8  1  0
  8  9  1  0
  9 10  1  0
 10 11  1  0
 11 12  1  0
 12 13  1  0
 13 14  1  0
 14 15  1  0
 15 16  1  0
 16 17  1  0
 17 18  1  0
 18 19  1  0
  2 20  1  0
 20 21  2  0
 21 22  1  0
 22 23  2  0
 23 24  1  0
 24 25  2  0
 25 26  1  0
 25 27  1  0
 27 28  2  0
 28 29  1  0
 29 30  2  0
 12  7  1  0
 19 14  1  0
 30 20  1  0
 29 23  1  0
  3 31  1  0
  4 32  1  0
  4 33  1  0
  8 34  1  0
  8 35  1  0
  9 36  1  0
  9 37  1  0
 10 38  1  0
 10 39  1  0
 11 40  1  0
 11 41  1  0
 12 42  1  1
 13 43  1  0
 13 44  1  0
 15 45  1  0
 15 46  1  0
 16 47  1  0
 16 48  1  0
 17 49  1  0
 17 50  1  0
 18 51  1  0
 18 52  1  0
 19 53  1  0
 19 54  1  0
 21 55  1  0
 22 56  1  0
 24 57  1  0
 27 58  1  0
 28 59  1  0
M  END
>  <smiles>  (21) 
O=C(NCC(=O)N1CCCC[C@H]1CN1CCCCC1)c1ccc2cc(Cl)ccc2n1

>  <score_type>  (21) 
oracle

>  <origin>  (21) 
autodockgpu

>  <m_score__min__energy>  (21) 
-8.6699999999999999

>  <m_primary>  (21) 
energy

>  <rmsd>  (21) 
5.410133389837304

>  <m_score__min__rmsd>  (21) 
5.410133389837304

>  <meeko>  (21) 
{"free_energy": -7.5, "intermolecular_energy": -9.29, "internal_energy": -2.1, "cluster_size": 5, "cluster_id": 5, "rank_in_cluster": 4}

>  <energy>  (21) 
-8.11

>  <cluster_rmsd>  (21) 
0.69

>  <cluster>  (21) 
1

$$$$

     RDKit          3D

 59 62  0  0  0  0  0  0  0  0999 V2000
  140.1180   72.4260  220.7840 O   0  0  0  0  0  0  0  0  0  0  0  0
  139.8750   72.7800  221.9740 C   0  0  0  0  0  0  0  0  0  0  0  0
  139.4970   74.1390  222.1640 N   0  0  0  0  0  0  0  0  0  0  0  0
  139.3990   75.0630  221.0530 C   0  0  0  0  0  0  0  0  0  0  0  0
  139.2570   76.4670  221.5150 C   0  0  0  0  0  0  0  0  0  0  0  0
  138.8470   76.7180  222.6800 O   0  0  0  0  0  0  0  0  0  0  0  0
  139.6020   77.4920  220.5930 N   0  0  0  0  0  0  0  0  0  0  0  0
  138.7810   78.6650  220.3640 C   0  0  0  0  0  0  0  0  0  0  0  0
  138.4200   78.8230  218.9080 C   0  0  0  0  0  0  0  0  0  0  0  0
  139.4720   78.3290  217.9760 C   0  0  0  0  0  0  0  0  0  0  0  0
  140.8320   78.1730  218.5860 C   0  0  0  0  0  0  0  0  0  0  0  0
  140.8390   77.3540  219.8470 C   0  0  1  0  0  0  0  0  0  0  0  0
  141.9350   77.8960  220.7400 C   0  0  0  0  0  0  0  0  0  0  0  0
  141.4330   78.9400  221.6470 N   0  0  0  0  0  0  0  0  0  0  0  0
  141.4620   78.4720  223.0210 C   0  0  0  0  0  0  0  0  0  0  0  0
  140.6310   79.4250  223.8580 C   0  0  0  0  0  0  0  0  0  0  0  0
  140.9270   80.8700  223.4920 C   0  0  0  0  0  0  0  0  0  0  0  0
  142.2740   80.8740  222.7990 C   0  0  0  0  0  0  0  0  0  0  0  0
  142.1470   80.1700  221.4730 C   0  0  0  0  0  0  0  0  0  0  0  0
  139.9690   71.8570  223.1050 C   0  0  0  0  0  0  0  0  0  0  0  0
  139.5390   70.5590  222.9170 C   0  0  0  0  0  0  0  0  0  0  0  0
  139.5860   69.6140  223.9170 C   0  0  0  0  0  0  0  0  0  0  0  0
  140.0860   70.0060  225.1420 C   0  0  0  0  0  0  0  0  0  0  0  0
  140.1490   69.0900  226.1680 C   0  0  0  0  0  0  0  0  0  0  0  0
  140.6450   69.4590  227.3990 C   0  0  0  0  0  0  0  0  0  0  0  0
  140.7160   68.2790  228.6850 Cl  0  0  0  0  0  0  0  0  0  0  0  0
  141.0700   70.7620  227.5650 C   0  0  0  0  0  0  0  0  0  0  0  0
  141.0080   71.6820  226.5380 C   0  0  0  0  0  0  0  0  0  0  0  0
  140.5110   71.3150  225.3020 C   0  0  0  0  0  0  0  0  0  0  0  0
  140.4540   72.2210  224.3060 N   0  0  0  0  0  0  0  0  0  0  0  0
  139.2900   74.4470  223.1600 H   0  0  0  0  0  0  0  0  0  0  0  0
  140.3083   74.9802  220.4396 H   0  0  0  0  0  0  0  0  0  0  0  0
  138.5037   74.8026  220.4694 H   0  0  0  0  0  0  0  0  0  0  0  0
  137.8559   78.5719  220.9518 H   0  0  0  0  0  0  0  0  0  0  0  0
  139.3579   79.5501  220.6703 H   0  0  0  0  0  0  0  0  0  0  0  0
  137.4939   78.2612  218.7163 H   0  0  0  0  0  0  0  0  0  0  0  0
  138.3022   79.9004  218.7198 H   0  0  0  0  0  0  0  0  0  0  0  0
  139.1551   77.3482  217.5919 H   0  0  0  0  0  0  0  0  0  0  0  0
  139.5717   79.0925  217.1904 H   0  0  0  0  0  0  0  0  0  0  0  0
  141.4882   77.6842  217.8509 H   0  0  0  0  0  0  0  0  0  0  0  0
  141.1807   79.1808  218.8555 H   0  0  0  0  0  0  0  0  0  0  0  0
  140.9798   76.2997  219.5667 H   0  0  0  0  0  0  0  0  0  0  0  0
  142.3466   77.0708  221.3397 H   0  0  0  0  0  0  0  0  0  0  0  0
  142.7094   78.3427  220.0990 H   0  0  0  0  0  0  0  0  0  0  0  0
  141.0391   77.4582  223.0791 H   0  0  0  0  0  0  0  0  0  0  0  0
  142.4970   78.4403  223.3922 H   0  0  0  0  0  0  0  0  0  0  0  0
  139.5643   79.2208  223.6834 H   0  0  0  0  0  0  0  0  0  0  0  0
  140.8837   79.2727  224.9177 H   0  0  0  0  0  0  0  0  0  0  0  0
  140.1509   81.2567  222.8152 H   0  0  0  0  0  0  0  0  0  0  0  0
  140.9390   81.5110  224.3858 H   0  0  0  0  0  0  0  0  0  0  0  0
  142.6014   81.9114  222.6356 H   0  0  0  0  0  0  0  0  0  0  0  0
  143.0149   80.3553  223.4251 H   0  0  0  0  0  0  0  0  0  0  0  0
  141.6006   80.8136  220.7679 H   0  0  0  0  0  0  0  0  0  0  0  0
  143.1503   79.9563  221.0759 H   0  0  0  0  0  0  0  0  0  0  0  0
  139.1443   70.2690  221.9321 H   0  0  0  0  0  0  0  0  0  0  0  0
  139.2379   68.5847  223.7459 H   0  0  0  0  0  0  0  0  0  0  0  0
  139.8018   68.0592  226.0040 H   0  0  0  0  0  0  0  0  0  0  0  0
  141.4685   71.0752  228.5413 H   0  0  0  0  0  0  0  0  0  0  0  0
  141.3559   72.7122  226.7042 H   0  0  0  0  0  0  0  0  0  0  0  0
  1  2  2  0
  2  3  1  0
  3  4  1  0
  4  5  1  0
  5  6  2  0
  5  7  1  0
  7  8  1  0
  8  9  1  0
  9 10  1  0
 10 11  1  0
 11 12  1  0
 12 13  1  0
 13 14  1  0
 14 15  1  0
 15 16  1  0
 16 17  1  0
 17 18  1  0
 18 19  1  0
  2 20  1  0
 20 21  2  0
 21 22  1  0
 22 23  2  0
 23 24  1  0
 24 25  2  0
 25 26  1  0
 25 27  1  0
 27 28  2  0
 28 29  1  0
 29 30  2  0
 12  7  1  0
 19 14  1  0
 30 20  1  0
 29 23  1  0
  3 31  1  0
  4 32  1  0
  4 33  1  0
  8 34  1  0
  8 35  1  0
  9 36  1  0
  9 37  1  0
 10 38  1  0
 10 39  1  0
 11 40  1  0
 11 41  1  0
 12 42  1  6
 13 43  1  0
 13 44  1  0
 15 45  1  0
 15 46  1  0
 16 47  1  0
 16 48  1  0
 17 49  1  0
 17 50  1  0
 18 51  1  0
 18 52  1  0
 19 53  1  0
 19 54  1  0
 21 55  1  0
 22 56  1  0
 24 57  1  0
 27 58  1  0
 28 59  1  0
M  END
>  <smiles>  (22) 
O=C(NCC(=O)N1CCCC[C@H]1CN1CCCCC1)c1ccc2cc(Cl)ccc2n1

>  <score_type>  (22) 
oracle

>  <origin>  (22) 
autodockgpu

>  <m_score__min__energy>  (22) 
-8.6699999999999999

>  <m_primary>  (22) 
energy

>  <rmsd>  (22) 
2.3845663648377884

>  <m_score__min__rmsd>  (22) 
2.3845663648377884

>  <meeko>  (22) 
{"free_energy": -7.91, "intermolecular_energy": -9.7, "internal_energy": -2.2, "cluster_size": 34, "cluster_id": 1, "rank_in_cluster": 22}

>  <energy>  (22) 
-7.91

>  <cluster_rmsd>  (22) 
1.09

>  <cluster>  (22) 
1

$$$$

     RDKit          3D

 59 62  0  0  0  0  0  0  0  0999 V2000
  139.2010   71.9690  220.8080 O   0  0  0  0  0  0  0  0  0  0  0  0
  139.3220   72.4000  221.9920 C   0  0  0  0  0  0  0  0  0  0  0  0
  139.1930   73.8070  222.1660 N   0  0  0  0  0  0  0  0  0  0  0  0
  138.9400   74.6920  221.0480 C   0  0  0  0  0  0  0  0  0  0  0  0
  138.8980   76.1150  221.4710 C   0  0  0  0  0  0  0  0  0  0  0  0
  137.8110   76.6470  221.8200 O   0  0  0  0  0  0  0  0  0  0  0  0
  140.1260   76.8310  221.4620 N   0  0  0  0  0  0  0  0  0  0  0  0
  141.0660   76.8130  222.5660 C   0  0  0  0  0  0  0  0  0  0  0  0
  141.3830   78.2030  223.0570 C   0  0  0  0  0  0  0  0  0  0  0  0
  141.3560   79.2350  221.9830 C   0  0  0  0  0  0  0  0  0  0  0  0
  141.4530   78.6960  220.5880 C   0  0  0  0  0  0  0  0  0  0  0  0
  140.4520   77.6160  220.2860 C   0  0  1  0  0  0  0  0  0  0  0  0
  141.0920   76.6600  219.3010 C   0  0  0  0  0  0  0  0  0  0  0  0
  141.9710   75.6920  219.9750 N   0  0  0  0  0  0  0  0  0  0  0  0
  141.6220   74.3370  219.5870 C   0  0  0  0  0  0  0  0  0  0  0  0
  142.3050   73.3840  220.5480 C   0  0  0  0  0  0  0  0  0  0  0  0
  143.7440   73.8040  220.8010 C   0  0  0  0  0  0  0  0  0  0  0  0
  144.1390   74.7070  219.6510 C   0  0  0  0  0  0  0  0  0  0  0  0
  143.3530   75.9900  219.7380 C   0  0  0  0  0  0  0  0  0  0  0  0
  139.5770   71.5180  223.1300 C   0  0  0  0  0  0  0  0  0  0  0  0
  139.2510   70.1840  222.9990 C   0  0  0  0  0  0  0  0  0  0  0  0
  139.4510   69.2710  224.0100 C   0  0  0  0  0  0  0  0  0  0  0  0
  140.0020   69.7360  225.1870 C   0  0  0  0  0  0  0  0  0  0  0  0
  140.2180   68.8550  226.2230 C   0  0  0  0  0  0  0  0  0  0  0  0
  140.7670   69.2960  227.4070 C   0  0  0  0  0  0  0  0  0  0  0  0
  141.0330   68.1590  228.7060 Cl  0  0  0  0  0  0  0  0  0  0  0  0
  141.0870   70.6340  227.5170 C   0  0  0  0  0  0  0  0  0  0  0  0
  140.8710   71.5190  226.4800 C   0  0  0  0  0  0  0  0  0  0  0  0
  140.3200   71.0800  225.2900 C   0  0  0  0  0  0  0  0  0  0  0  0
  140.1130   71.9520  224.2840 N   0  0  0  0  0  0  0  0  0  0  0  0
  139.2930   74.1800  223.1570 H   0  0  0  0  0  0  0  0  0  0  0  0
  139.7408   74.5648  220.3046 H   0  0  0  0  0  0  0  0  0  0  0  0
  137.9600   74.4327  220.6209 H   0  0  0  0  0  0  0  0  0  0  0  0
  140.6311   76.2339  223.3940 H   0  0  0  0  0  0  0  0  0  0  0  0
  142.0010   76.3555  222.2103 H   0  0  0  0  0  0  0  0  0  0  0  0
  140.6430   78.4786  223.8229 H   0  0  0  0  0  0  0  0  0  0  0  0
  142.4080   78.1786  223.4555 H   0  0  0  0  0  0  0  0  0  0  0  0
  140.4120   79.7931  222.0689 H   0  0  0  0  0  0  0  0  0  0  0  0
  142.2473   79.8616  222.1345 H   0  0  0  0  0  0  0  0  0  0  0  0
  141.2922   79.5253  219.8834 H   0  0  0  0  0  0  0  0  0  0  0  0
  142.4516   78.2460  220.4862 H   0  0  0  0  0  0  0  0  0  0  0  0
  139.5387   78.0957  219.9043 H   0  0  0  0  0  0  0  0  0  0  0  0
  140.2997   76.1123  218.7697 H   0  0  0  0  0  0  0  0  0  0  0  0
  141.7029   77.2479  218.6002 H   0  0  0  0  0  0  0  0  0  0  0  0
  140.5315   74.2027  219.6399 H   0  0  0  0  0  0  0  0  0  0  0  0
  141.9485   74.1387  218.5555 H   0  0  0  0  0  0  0  0  0  0  0  0
  141.7578   73.3818  221.5022 H   0  0  0  0  0  0  0  0  0  0  0  0
  142.3066   72.3783  220.1025 H   0  0  0  0  0  0  0  0  0  0  0  0
  143.8187   74.3482  221.7540 H   0  0  0  0  0  0  0  0  0  0  0  0
  144.4076   72.9290  220.8647 H   0  0  0  0  0  0  0  0  0  0  0  0
  145.2147   74.9294  219.7102 H   0  0  0  0  0  0  0  0  0  0  0  0
  143.9245   74.2054  218.6958 H   0  0  0  0  0  0  0  0  0  0  0  0
  143.7424   76.6026  220.5645 H   0  0  0  0  0  0  0  0  0  0  0  0
  143.4505   76.5431  218.7922 H   0  0  0  0  0  0  0  0  0  0  0  0
  138.8147   69.8365  222.0509 H   0  0  0  0  0  0  0  0  0  0  0  0
  139.1820   68.2118  223.8845 H   0  0  0  0  0  0  0  0  0  0  0  0
  139.9510   67.7945  226.1047 H   0  0  0  0  0  0  0  0  0  0  0  0
  141.5255   71.0047  228.4552 H   0  0  0  0  0  0  0  0  0  0  0  0
  141.1386   72.5791  226.6008 H   0  0  0  0  0  0  0  0  0  0  0  0
  1  2  2  0
  2  3  1  0
  3  4  1  0
  4  5  1  0
  5  6  2  0
  5  7  1  0
  7  8  1  0
  8  9  1  0
  9 10  1  0
 10 11  1  0
 11 12  1  0
 12 13  1  0
 13 14  1  0
 14 15  1  0
 15 16  1  0
 16 17  1  0
 17 18  1  0
 18 19  1  0
  2 20  1  0
 20 21  2  0
 21 22  1  0
 22 23  2  0
 23 24  1  0
 24 25  2  0
 25 26  1  0
 25 27  1  0
 27 28  2  0
 28 29  1  0
 29 30  2  0
 12  7  1  0
 19 14  1  0
 30 20  1  0
 29 23  1  0
  3 31  1  0
  4 32  1  0
  4 33  1  0
  8 34  1  0
  8 35  1  0
  9 36  1  0
  9 37  1  0
 10 38  1  0
 10 39  1  0
 11 40  1  0
 11 41  1  0
 12 42  1  6
 13 43  1  0
 13 44  1  0
 15 45  1  0
 15 46  1  0
 16 47  1  0
 16 48  1  0
 17 49  1  0
 17 50  1  0
 18 51  1  0
 18 52  1  0
 19 53  1  0
 19 54  1  0
 21 55  1  0
 22 56  1  0
 24 57  1  0
 27 58  1  0
 28 59  1  0
M  END
>  <smiles>  (23) 
O=C(NCC(=O)N1CCCC[C@H]1CN1CCCCC1)c1ccc2cc(Cl)ccc2n1

>  <score_type>  (23) 
oracle

>  <origin>  (23) 
autodockgpu

>  <m_score__min__energy>  (23) 
-8.6699999999999999

>  <m_primary>  (23) 
energy

>  <rmsd>  (23) 
4.071020204206258

>  <m_score__min__rmsd>  (23) 
4.071020204206258

>  <meeko>  (23) 
{"free_energy": -7.82, "intermolecular_energy": -9.61, "internal_energy": -2.21, "cluster_size": 34, "cluster_id": 1, "rank_in_cluster": 27}

>  <energy>  (23) 
-7.91

>  <cluster_rmsd>  (23) 
1.1

>  <cluster>  (23) 
1

$$$$

     RDKit          3D

 59 62  0  0  0  0  0  0  0  0999 V2000
  139.2640   72.0260  220.7640 O   0  0  0  0  0  0  0  0  0  0  0  0
  139.4460   72.4570  221.9390 C   0  0  0  0  0  0  0  0  0  0  0  0
  139.4130   73.8700  222.1050 N   0  0  0  0  0  0  0  0  0  0  0  0
  139.1850   74.7620  220.9880 C   0  0  0  0  0  0  0  0  0  0  0  0
  140.2890   74.7000  219.9970 C   0  0  0  0  0  0  0  0  0  0  0  0
  140.3270   73.7790  219.1380 O   0  0  0  0  0  0  0  0  0  0  0  0
  141.2830   75.7140  220.0680 N   0  0  0  0  0  0  0  0  0  0  0  0
  141.0700   76.9900  220.7240 C   0  0  0  0  0  0  0  0  0  0  0  0
  141.3410   78.1500  219.7980 C   0  0  0  0  0  0  0  0  0  0  0  0
  142.4120   77.8770  218.7990 C   0  0  0  0  0  0  0  0  0  0  0  0
  143.3100   76.7250  219.1350 C   0  0  0  0  0  0  0  0  0  0  0  0
  142.5710   75.4550  219.4540 C   0  0  1  0  0  0  0  0  0  0  0  0
  143.3850   74.6960  220.4800 C   0  0  0  0  0  0  0  0  0  0  0  0
  143.9070   73.4330  219.9350 N   0  0  0  0  0  0  0  0  0  0  0  0
  145.1910   73.1170  220.5330 C   0  0  0  0  0  0  0  0  0  0  0  0
  145.8370   72.0210  219.7080 C   0  0  0  0  0  0  0  0  0  0  0  0
  144.8270   70.9430  219.3510 C   0  0  0  0  0  0  0  0  0  0  0  0
  143.6860   71.0750  220.3390 C   0  0  0  0  0  0  0  0  0  0  0  0
  142.9590   72.3690  220.0820 C   0  0  0  0  0  0  0  0  0  0  0  0
  139.6770   71.5680  223.0770 C   0  0  0  0  0  0  0  0  0  0  0  0
  139.3380   70.2370  222.9370 C   0  0  0  0  0  0  0  0  0  0  0  0
  139.5160   69.3190  223.9470 C   0  0  0  0  0  0  0  0  0  0  0  0
  140.0560   69.7730  225.1320 C   0  0  0  0  0  0  0  0  0  0  0  0
  140.2490   68.8860  226.1680 C   0  0  0  0  0  0  0  0  0  0  0  0
  140.7870   69.3170  227.3610 C   0  0  0  0  0  0  0  0  0  0  0  0
  141.0240   68.1730  228.6590 Cl  0  0  0  0  0  0  0  0  0  0  0  0
  141.1200   70.6510  227.4800 C   0  0  0  0  0  0  0  0  0  0  0  0
  140.9260   71.5420  226.4440 C   0  0  0  0  0  0  0  0  0  0  0  0
  140.3870   71.1140  225.2460 C   0  0  0  0  0  0  0  0  0  0  0  0
  140.2020   71.9910  224.2400 N   0  0  0  0  0  0  0  0  0  0  0  0
  139.5650   74.2430  223.0890 H   0  0  0  0  0  0  0  0  0  0  0  0
  138.2452   74.4780  220.4919 H   0  0  0  0  0  0  0  0  0  0  0  0
  139.1327   75.7896  221.3769 H   0  0  0  0  0  0  0  0  0  0  0  0
  140.0260   77.0443  221.0661 H   0  0  0  0  0  0  0  0  0  0  0  0
  141.7685   77.0591  221.5709 H   0  0  0  0  0  0  0  0  0  0  0  0
  140.4131   78.3876  219.2571 H   0  0  0  0  0  0  0  0  0  0  0  0
  141.6871   78.9872  220.4219 H   0  0  0  0  0  0  0  0  0  0  0  0
  141.9316   77.6651  217.8324 H   0  0  0  0  0  0  0  0  0  0  0  0
  143.0518   78.7716  218.7806 H   0  0  0  0  0  0  0  0  0  0  0  0
  143.9693   76.5364  218.2749 H   0  0  0  0  0  0  0  0  0  0  0  0
  143.8695   77.0069  220.0392 H   0  0  0  0  0  0  0  0  0  0  0  0
  142.4219   74.9033  218.5141 H   0  0  0  0  0  0  0  0  0  0  0  0
  144.2306   75.3231  220.7988 H   0  0  0  0  0  0  0  0  0  0  0  0
  142.7286   74.4572  221.3298 H   0  0  0  0  0  0  0  0  0  0  0  0
  145.8323   74.0107  220.5335 H   0  0  0  0  0  0  0  0  0  0  0  0
  145.0558   72.7827  221.5722 H   0  0  0  0  0  0  0  0  0  0  0  0
  146.2401   72.4574  218.7822 H   0  0  0  0  0  0  0  0  0  0  0  0
  146.6433   71.5643  220.3008 H   0  0  0  0  0  0  0  0  0  0  0  0
  144.4597   71.0918  218.3249 H   0  0  0  0  0  0  0  0  0  0  0  0
  145.2807   69.9422  219.4002 H   0  0  0  0  0  0  0  0  0  0  0  0
  142.9914   70.2312  220.2145 H   0  0  0  0  0  0  0  0  0  0  0  0
  144.0819   71.0697  221.3653 H   0  0  0  0  0  0  0  0  0  0  0  0
  142.3651   72.2782  219.1606 H   0  0  0  0  0  0  0  0  0  0  0  0
  142.2932   72.5881  220.9298 H   0  0  0  0  0  0  0  0  0  0  0  0
  138.9096   69.8974  221.9825 H   0  0  0  0  0  0  0  0  0  0  0  0
  139.2380   68.2630  223.8140 H   0  0  0  0  0  0  0  0  0  0  0  0
  139.9723   67.8288  226.0423 H   0  0  0  0  0  0  0  0  0  0  0  0
  141.5511   71.0135  228.4249 H   0  0  0  0  0  0  0  0  0  0  0  0
  141.2021   72.5990  226.5728 H   0  0  0  0  0  0  0  0  0  0  0  0
  1  2  2  0
  2  3  1  0
  3  4  1  0
  4  5  1  0
  5  6  2  0
  5  7  1  0
  7  8  1  0
  8  9  1  0
  9 10  1  0
 10 11  1  0
 11 12  1  0
 12 13  1  0
 13 14  1  0
 14 15  1  0
 15 16  1  0
 16 17  1  0
 17 18  1  0
 18 19  1  0
  2 20  1  0
 20 21  2  0
 21 22  1  0
 22 23  2  0
 23 24  1  0
 24 25  2  0
 25 26  1  0
 25 27  1  0
 27 28  2  0
 28 29  1  0
 29 30  2  0
 12  7  1  0
 19 14  1  0
 30 20  1  0
 29 23  1  0
  3 31  1  0
  4 32  1  0
  4 33  1  0
  8 34  1  0
  8 35  1  0
  9 36  1  0
  9 37  1  0
 10 38  1  0
 10 39  1  0
 11 40  1  0
 11 41  1  0
 12 42  1  6
 13 43  1  0
 13 44  1  0
 15 45  1  0
 15 46  1  0
 16 47  1  0
 16 48  1  0
 17 49  1  0
 17 50  1  0
 18 51  1  0
 18 52  1  0
 19 53  1  0
 19 54  1  0
 21 55  1  0
 22 56  1  0
 24 57  1  0
 27 58  1  0
 28 59  1  0
M  END
>  <smiles>  (24) 
O=C(NCC(=O)N1CCCC[C@H]1CN1CCCCC1)c1ccc2cc(Cl)ccc2n1

>  <score_type>  (24) 
oracle

>  <origin>  (24) 
autodockgpu

>  <m_score__min__energy>  (24) 
-8.6699999999999999

>  <m_primary>  (24) 
energy

>  <rmsd>  (24) 
4.901213617673418

>  <m_score__min__rmsd>  (24) 
4.901213617673418

>  <meeko>  (24) 
{"free_energy": -7.64, "intermolecular_energy": -9.43, "internal_energy": -1.94, "cluster_size": 2, "cluster_id": 3, "rank_in_cluster": 2}

>  <energy>  (24) 
-7.88

>  <cluster_rmsd>  (24) 
1.63

>  <cluster>  (24) 
1

$$$$

     RDKit          3D

 59 62  0  0  0  0  0  0  0  0999 V2000
  138.1980   75.6160  222.7200 O   0  0  0  0  0  0  0  0  0  0  0  0
  139.1920   76.0170  222.0500 C   0  0  0  0  0  0  0  0  0  0  0  0
  139.2290   77.4070  221.7470 N   0  0  0  0  0  0  0  0  0  0  0  0
  138.1830   78.3090  222.1830 C   0  0  0  0  0  0  0  0  0  0  0  0
  138.7200   79.4140  223.0170 C   0  0  0  0  0  0  0  0  0  0  0  0
  138.0190   79.9230  223.9310 O   0  0  0  0  0  0  0  0  0  0  0  0
  140.0420   79.8570  222.7360 N   0  0  0  0  0  0  0  0  0  0  0  0
  141.2200   79.0470  222.9790 C   0  0  0  0  0  0  0  0  0  0  0  0
  142.2150   79.7570  223.8640 C   0  0  0  0  0  0  0  0  0  0  0  0
  142.2240   81.2350  223.6840 C   0  0  0  0  0  0  0  0  0  0  0  0
  141.5980   81.7200  222.4120 C   0  0  0  0  0  0  0  0  0  0  0  0
  140.2140   81.1840  222.1750 C   0  0  1  0  0  0  0  0  0  0  0  0
  140.0270   81.0400  220.6800 C   0  0  0  0  0  0  0  0  0  0  0  0
  140.5190   79.7430  220.1910 N   0  0  0  0  0  0  0  0  0  0  0  0
  139.6920   79.2690  219.0960 C   0  0  0  0  0  0  0  0  0  0  0  0
  140.0160   77.8060  218.8630 C   0  0  0  0  0  0  0  0  0  0  0  0
  141.5160   77.5680  218.9010 C   0  0  0  0  0  0  0  0  0  0  0  0
  142.1730   78.9120  218.6600 C   0  0  0  0  0  0  0  0  0  0  0  0
  141.9060   79.8100  219.8390 C   0  0  0  0  0  0  0  0  0  0  0  0
  140.2560   75.1180  221.6030 C   0  0  0  0  0  0  0  0  0  0  0  0
  140.0580   73.7600  221.7480 C   0  0  0  0  0  0  0  0  0  0  0  0
  140.9970   72.8310  221.3600 C   0  0  0  0  0  0  0  0  0  0  0  0
  142.1690   73.3030  220.8070 C   0  0  0  0  0  0  0  0  0  0  0  0
  143.1330   72.4060  220.4060 C   0  0  0  0  0  0  0  0  0  0  0  0
  144.3120   72.8540  219.8510 C   0  0  0  0  0  0  0  0  0  0  0  0
  145.5200   71.6960  219.3490 Cl  0  0  0  0  0  0  0  0  0  0  0  0
  144.4900   74.2160  219.7140 C   0  0  0  0  0  0  0  0  0  0  0  0
  143.5250   75.1170  220.1160 C   0  0  0  0  0  0  0  0  0  0  0  0
  142.3410   74.6710  220.6730 C   0  0  0  0  0  0  0  0  0  0  0  0
  141.4060   75.5590  221.0620 N   0  0  0  0  0  0  0  0  0  0  0  0
  140.0610   77.7560  221.1830 H   0  0  0  0  0  0  0  0  0  0  0  0
  137.6908   78.7379  221.2977 H   0  0  0  0  0  0  0  0  0  0  0  0
  137.4695   77.7357  222.7932 H   0  0  0  0  0  0  0  0  0  0  0  0
  140.9136   78.1104  223.4677 H   0  0  0  0  0  0  0  0  0  0  0  0
  141.7038   78.8479  222.0114 H   0  0  0  0  0  0  0  0  0  0  0  0
  141.9675   79.5358  224.9127 H   0  0  0  0  0  0  0  0  0  0  0  0
  143.2141   79.3917  223.5841 H   0  0  0  0  0  0  0  0  0  0  0  0
  141.6784   81.6850  224.5265 H   0  0  0  0  0  0  0  0  0  0  0  0
  143.2817   81.5338  223.6405 H   0  0  0  0  0  0  0  0  0  0  0  0
  141.5432   82.8180  222.4490 H   0  0  0  0  0  0  0  0  0  0  0  0
  142.2279   81.3578  221.5862 H   0  0  0  0  0  0  0  0  0  0  0  0
  139.4969   81.8740  222.6435 H   0  0  0  0  0  0  0  0  0  0  0  0
  138.9558   81.1261  220.4451 H   0  0  0  0  0  0  0  0  0  0  0  0
  140.6051   81.8341  220.1848 H   0  0  0  0  0  0  0  0  0  0  0  0
  138.6289   79.3790  219.3564 H   0  0  0  0  0  0  0  0  0  0  0  0
  139.8910   79.8540  218.1860 H   0  0  0  0  0  0  0  0  0  0  0  0
  139.5359   77.2019  219.6470 H   0  0  0  0  0  0  0  0  0  0  0  0
  139.6404   77.5176  217.8702 H   0  0  0  0  0  0  0  0  0  0  0  0
  141.8127   77.1710  219.8830 H   0  0  0  0  0  0  0  0  0  0  0  0
  141.8211   76.8348  218.1399 H   0  0  0  0  0  0  0  0  0  0  0  0
  143.2578   78.7753  218.5394 H   0  0  0  0  0  0  0  0  0  0  0  0
  141.7614   79.3671  217.7471 H   0  0  0  0  0  0  0  0  0  0  0  0
  142.5166   79.4831  220.6936 H   0  0  0  0  0  0  0  0  0  0  0  0
  142.1658   80.8458  219.5750 H   0  0  0  0  0  0  0  0  0  0  0  0
  139.1148   73.4067  222.1901 H   0  0  0  0  0  0  0  0  0  0  0  0
  140.8192   71.7528  221.4863 H   0  0  0  0  0  0  0  0  0  0  0  0
  142.9614   71.3265  220.5292 H   0  0  0  0  0  0  0  0  0  0  0  0
  145.4248   74.5928  219.2732 H   0  0  0  0  0  0  0  0  0  0  0  0
  143.6989   76.1961  219.9925 H   0  0  0  0  0  0  0  0  0  0  0  0
  1  2  2  0
  2  3  1  0
  3  4  1  0
  4  5  1  0
  5  6  2  0
  5  7  1  0
  7  8  1  0
  8  9  1  0
  9 10  1  0
 10 11  1  0
 11 12  1  0
 12 13  1  0
 13 14  1  0
 14 15  1  0
 15 16  1  0
 16 17  1  0
 17 18  1  0
 18 19  1  0
  2 20  1  0
 20 21  2  0
 21 22  1  0
 22 23  2  0
 23 24  1  0
 24 25  2  0
 25 26  1  0
 25 27  1  0
 27 28  2  0
 28 29  1  0
 29 30  2  0
 12  7  1  0
 19 14  1  0
 30 20  1  0
 29 23  1  0
  3 31  1  0
  4 32  1  0
  4 33  1  0
  8 34  1  0
  8 35  1  0
  9 36  1  0
  9 37  1  0
 10 38  1  0
 10 39  1  0
 11 40  1  0
 11 41  1  0
 12 42  1  1
 13 43  1  0
 13 44  1  0
 15 45  1  0
 15 46  1  0
 16 47  1  0
 16 48  1  0
 17 49  1  0
 17 50  1  0
 18 51  1  0
 18 52  1  0
 19 53  1  0
 19 54  1  0
 21 55  1  0
 22 56  1  0
 24 57  1  0
 27 58  1  0
 28 59  1  0
M  END
>  <smiles>  (25) 
O=C(NCC(=O)N1CCCC[C@H]1CN1CCCCC1)c1ccc2cc(Cl)ccc2n1

>  <score_type>  (25) 
oracle

>  <origin>  (25) 
autodockgpu

>  <m_score__min__energy>  (25) 
-8.6699999999999999

>  <m_primary>  (25) 
energy

>  <rmsd>  (25) 
6.1671975351533295

>  <m_score__min__rmsd>  (25) 
6.1671975351533295

>  <meeko>  (25) 
{"free_energy": -6.23, "intermolecular_energy": -8.02, "internal_energy": -3.33, "cluster_size": 2, "cluster_id": 6, "rank_in_cluster": 1}

>  <energy>  (25) 
-7.86

>  <cluster_rmsd>  (25) 
1.13

>  <cluster>  (25) 
1

$$$$

     RDKit          3D

 59 62  0  0  0  0  0  0  0  0999 V2000
  141.0290   72.9560  221.5900 O   0  0  0  0  0  0  0  0  0  0  0  0
  140.0540   72.7560  222.3700 C   0  0  0  0  0  0  0  0  0  0  0  0
  138.8710   73.5020  222.1070 N   0  0  0  0  0  0  0  0  0  0  0  0
  138.7920   74.4390  221.0050 C   0  0  0  0  0  0  0  0  0  0  0  0
  139.5680   75.6760  221.2760 C   0  0  0  0  0  0  0  0  0  0  0  0
  139.3900   76.3210  222.3430 O   0  0  0  0  0  0  0  0  0  0  0  0
  140.5030   76.0850  220.2870 N   0  0  0  0  0  0  0  0  0  0  0  0
  140.5520   75.5140  218.9540 C   0  0  0  0  0  0  0  0  0  0  0  0
  141.9200   74.9690  218.6270 C   0  0  0  0  0  0  0  0  0  0  0  0
  143.0320   75.7260  219.2670 C   0  0  0  0  0  0  0  0  0  0  0  0
  142.6680   77.0980  219.7470 C   0  0  0  0  0  0  0  0  0  0  0  0
  141.4520   77.1270  220.6310 C   0  0  1  0  0  0  0  0  0  0  0  0
  140.7430   78.4430  220.3930 C   0  0  0  0  0  0  0  0  0  0  0  0
  140.9700   79.3910  221.4950 N   0  0  0  0  0  0  0  0  0  0  0  0
  140.9410   78.6990  222.7710 C   0  0  0  0  0  0  0  0  0  0  0  0
  140.8330   79.7410  223.8670 C   0  0  0  0  0  0  0  0  0  0  0  0
  141.7710   80.9080  223.6030 C   0  0  0  0  0  0  0  0  0  0  0  0
  142.8240   80.4060  222.6370 C   0  0  0  0  0  0  0  0  0  0  0  0
  142.1790   80.1340  221.3030 C   0  0  0  0  0  0  0  0  0  0  0  0
  140.1190   71.8130  223.4860 C   0  0  0  0  0  0  0  0  0  0  0  0
  139.6970   70.5180  223.2640 C   0  0  0  0  0  0  0  0  0  0  0  0
  139.7180   69.5550  224.2470 C   0  0  0  0  0  0  0  0  0  0  0  0
  140.1840   69.9250  225.4910 C   0  0  0  0  0  0  0  0  0  0  0  0
  140.2200   68.9910  226.5020 C   0  0  0  0  0  0  0  0  0  0  0  0
  140.6820   69.3380  227.7530 C   0  0  0  0  0  0  0  0  0  0  0  0
  140.7190   68.1350  229.0190 Cl  0  0  0  0  0  0  0  0  0  0  0  0
  141.0990   70.6380  227.9540 C   0  0  0  0  0  0  0  0  0  0  0  0
  141.0630   71.5770  226.9430 C   0  0  0  0  0  0  0  0  0  0  0  0
  140.6010   71.2320  225.6870 C   0  0  0  0  0  0  0  0  0  0  0  0
  140.5700   72.1550  224.7070 N   0  0  0  0  0  0  0  0  0  0  0  0
  138.0450   73.3420  222.7570 H   0  0  0  0  0  0  0  0  0  0  0  0
  139.1922   73.9587  220.0999 H   0  0  0  0  0  0  0  0  0  0  0  0
  137.7371   74.7199  220.8700 H   0  0  0  0  0  0  0  0  0  0  0  0
  139.8186   74.6967  218.8898 H   0  0  0  0  0  0  0  0  0  0  0  0
  140.3205   76.3112  218.2323 H   0  0  0  0  0  0  0  0  0  0  0  0
  141.9689   73.9244  218.9682 H   0  0  0  0  0  0  0  0  0  0  0  0
  142.0520   75.0602  217.5388 H   0  0  0  0  0  0  0  0  0  0  0  0
  143.3878   75.1452  220.1308 H   0  0  0  0  0  0  0  0  0  0  0  0
  143.7978   75.8646  218.4896 H   0  0  0  0  0  0  0  0  0  0  0  0
  143.5187   77.5047  220.3134 H   0  0  0  0  0  0  0  0  0  0  0  0
  142.4315   77.6978  218.8558 H   0  0  0  0  0  0  0  0  0  0  0  0
  141.7841   76.9875  221.6703 H   0  0  0  0  0  0  0  0  0  0  0  0
  141.1182   78.8861  219.4587 H   0  0  0  0  0  0  0  0  0  0  0  0
  139.6631   78.2438  220.3293 H   0  0  0  0  0  0  0  0  0  0  0  0
  140.0728   78.0246  222.8102 H   0  0  0  0  0  0  0  0  0  0  0  0
  141.8545   78.1003  222.9017 H   0  0  0  0  0  0  0  0  0  0  0  0
  139.7987   80.1131  223.9090 H   0  0  0  0  0  0  0  0  0  0  0  0
  141.1137   79.2748  224.8230 H   0  0  0  0  0  0  0  0  0  0  0  0
  141.2167   81.7474  223.1578 H   0  0  0  0  0  0  0  0  0  0  0  0
  142.2281   81.2688  224.5362 H   0  0  0  0  0  0  0  0  0  0  0  0
  143.6084   81.1680  222.5184 H   0  0  0  0  0  0  0  0  0  0  0  0
  143.2739   79.4810  223.0268 H   0  0  0  0  0  0  0  0  0  0  0  0
  141.9471   81.0883  220.8074 H   0  0  0  0  0  0  0  0  0  0  0  0
  142.8697   79.5510  220.6761 H   0  0  0  0  0  0  0  0  0  0  0  0
  139.3300   70.2451  222.2636 H   0  0  0  0  0  0  0  0  0  0  0  0
  139.3759   68.5287  224.0478 H   0  0  0  0  0  0  0  0  0  0  0  0
  139.8784   67.9631  226.3102 H   0  0  0  0  0  0  0  0  0  0  0  0
  141.4700   70.9338  228.9464 H   0  0  0  0  0  0  0  0  0  0  0  0
  141.4036   72.6046  227.1379 H   0  0  0  0  0  0  0  0  0  0  0  0
  1  2  2  0
  2  3  1  0
  3  4  1  0
  4  5  1  0
  5  6  2  0
  5  7  1  0
  7  8  1  0
  8  9  1  0
  9 10  1  0
 10 11  1  0
 11 12  1  0
 12 13  1  0
 13 14  1  0
 14 15  1  0
 15 16  1  0
 16 17  1  0
 17 18  1  0
 18 19  1  0
  2 20  1  0
 20 21  2  0
 21 22  1  0
 22 23  2  0
 23 24  1  0
 24 25  2  0
 25 26  1  0
 25 27  1  0
 27 28  2  0
 28 29  1  0
 29 30  2  0
 12  7  1  0
 19 14  1  0
 30 20  1  0
 29 23  1  0
  3 31  1  0
  4 32  1  0
  4 33  1  0
  8 34  1  0
  8 35  1  0
  9 36  1  0
  9 37  1  0
 10 38  1  0
 10 39  1  0
 11 40  1  0
 11 41  1  0
 12 42  1  1
 13 43  1  0
 13 44  1  0
 15 45  1  0
 15 46  1  0
 16 47  1  0
 16 48  1  0
 17 49  1  0
 17 50  1  0
 18 51  1  0
 18 52  1  0
 19 53  1  0
 19 54  1  0
 21 55  1  0
 22 56  1  0
 24 57  1  0
 27 58  1  0
 28 59  1  0
M  END
>  <smiles>  (26) 
O=C(NCC(=O)N1CCCC[C@H]1CN1CCCCC1)c1ccc2cc(Cl)ccc2n1

>  <score_type>  (26) 
oracle

>  <origin>  (26) 
autodockgpu

>  <m_score__min__energy>  (26) 
-8.6699999999999999

>  <m_primary>  (26) 
energy

>  <rmsd>  (26) 
2.025021208377455

>  <m_score__min__rmsd>  (26) 
2.025021208377455

>  <meeko>  (26) 
{"free_energy": -8.49, "intermolecular_energy": -10.28, "internal_energy": -1.65, "cluster_size": 34, "cluster_id": 1, "rank_in_cluster": 7}

>  <energy>  (26) 
-7.86

>  <cluster_rmsd>  (26) 
1.61

>  <cluster>  (26) 
1

$$$$

     RDKit          3D

 59 62  0  0  0  0  0  0  0  0999 V2000
  139.3970   71.7920  220.5900 O   0  0  0  0  0  0  0  0  0  0  0  0
  139.2720   72.2460  221.7640 C   0  0  0  0  0  0  0  0  0  0  0  0
  138.8630   73.6050  221.8740 N   0  0  0  0  0  0  0  0  0  0  0  0
  138.6070   74.4200  220.7040 C   0  0  0  0  0  0  0  0  0  0  0  0
  139.8510   74.7010  219.9450 C   0  0  0  0  0  0  0  0  0  0  0  0
  140.0760   74.1220  218.8480 O   0  0  0  0  0  0  0  0  0  0  0  0
  140.7590   75.6390  220.5090 N   0  0  0  0  0  0  0  0  0  0  0  0
  141.0940   75.6700  221.9200 C   0  0  0  0  0  0  0  0  0  0  0  0
  140.8360   77.0260  222.5280 C   0  0  0  0  0  0  0  0  0  0  0  0
  141.0480   78.1550  221.5800 C   0  0  0  0  0  0  0  0  0  0  0  0
  141.8670   77.8190  220.3720 C   0  0  0  0  0  0  0  0  0  0  0  0
  141.3780   76.6090  219.6260 C   0  0  1  0  0  0  0  0  0  0  0  0
  142.5850   75.9230  219.0210 C   0  0  0  0  0  0  0  0  0  0  0  0
  142.9490   74.7070  219.7650 N   0  0  0  0  0  0  0  0  0  0  0  0
  142.8870   73.5460  218.8960 C   0  0  0  0  0  0  0  0  0  0  0  0
  142.9290   72.3050  219.7680 C   0  0  0  0  0  0  0  0  0  0  0  0
  143.9790   72.4410  220.8580 C   0  0  0  0  0  0  0  0  0  0  0  0
  144.9400   73.5200  220.4010 C   0  0  0  0  0  0  0  0  0  0  0  0
  144.2260   74.8470  220.4000 C   0  0  0  0  0  0  0  0  0  0  0  0
  139.5260   71.4360  222.9540 C   0  0  0  0  0  0  0  0  0  0  0  0
  139.1650   70.1040  222.9180 C   0  0  0  0  0  0  0  0  0  0  0  0
  139.3620   69.2560  223.9850 C   0  0  0  0  0  0  0  0  0  0  0  0
  139.9450   69.7840  225.1180 C   0  0  0  0  0  0  0  0  0  0  0  0
  140.1580   68.9680  226.2070 C   0  0  0  0  0  0  0  0  0  0  0  0
  140.7390   69.4730  227.3500 C   0  0  0  0  0  0  0  0  0  0  0  0
  141.0000   68.4190  228.7180 Cl  0  0  0  0  0  0  0  0  0  0  0  0
  141.0930   70.8070  227.3650 C   0  0  0  0  0  0  0  0  0  0  0  0
  140.8790   71.6260  226.2750 C   0  0  0  0  0  0  0  0  0  0  0  0
  140.2970   71.1240  225.1270 C   0  0  0  0  0  0  0  0  0  0  0  0
  140.0930   71.9310  224.0690 N   0  0  0  0  0  0  0  0  0  0  0  0
  138.7540   73.9980  222.8570 H   0  0  0  0  0  0  0  0  0  0  0  0
  137.9017   73.8891  220.0477 H   0  0  0  0  0  0  0  0  0  0  0  0
  138.1879   75.3796  221.0409 H   0  0  0  0  0  0  0  0  0  0  0  0
  140.4840   74.9217  222.4472 H   0  0  0  0  0  0  0  0  0  0  0  0
  142.1667   75.4487  222.0214 H   0  0  0  0  0  0  0  0  0  0  0  0
  139.7938   77.0573  222.8785 H   0  0  0  0  0  0  0  0  0  0  0  0
  141.5575   77.1541  223.3484 H   0  0  0  0  0  0  0  0  0  0  0  0
  140.0623   78.5039  221.2383 H   0  0  0  0  0  0  0  0  0  0  0  0
  141.6132   78.9199  222.1328 H   0  0  0  0  0  0  0  0  0  0  0  0
  141.8460   78.6802  219.6880 H   0  0  0  0  0  0  0  0  0  0  0  0
  142.8824   77.5884  220.7268 H   0  0  0  0  0  0  0  0  0  0  0  0
  140.6425   76.9440  218.8799 H   0  0  0  0  0  0  0  0  0  0  0  0
  142.3553   75.6492  217.9807 H   0  0  0  0  0  0  0  0  0  0  0  0
  143.4346   76.6203  219.0664 H   0  0  0  0  0  0  0  0  0  0  0  0
  141.9525   73.5633  218.3160 H   0  0  0  0  0  0  0  0  0  0  0  0
  143.7337   73.5485  218.1938 H   0  0  0  0  0  0  0  0  0  0  0  0
  141.9433   72.1593  220.2341 H   0  0  0  0  0  0  0  0  0  0  0  0
  143.1882   71.4419  219.1372 H   0  0  0  0  0  0  0  0  0  0  0  0
  143.5053   72.7318  221.8072 H   0  0  0  0  0  0  0  0  0  0  0  0
  144.5027   71.4883  221.0255 H   0  0  0  0  0  0  0  0  0  0  0  0
  145.7983   73.5639  221.0876 H   0  0  0  0  0  0  0  0  0  0  0  0
  145.2993   73.2914  219.3868 H   0  0  0  0  0  0  0  0  0  0  0  0
  144.0838   75.1867  221.4365 H   0  0  0  0  0  0  0  0  0  0  0  0
  144.8282   75.5846  219.8493 H   0  0  0  0  0  0  0  0  0  0  0  0
  138.7028   69.7052  222.0030 H   0  0  0  0  0  0  0  0  0  0  0  0
  139.0657   68.1978  223.9356 H   0  0  0  0  0  0  0  0  0  0  0  0
  139.8632   67.9091  226.1642 H   0  0  0  0  0  0  0  0  0  0  0  0
  141.5576   71.2281  228.2688 H   0  0  0  0  0  0  0  0  0  0  0  0
  141.1736   72.6848  226.3205 H   0  0  0  0  0  0  0  0  0  0  0  0
  1  2  2  0
  2  3  1  0
  3  4  1  0
  4  5  1  0
  5  6  2  0
  5  7  1  0
  7  8  1  0
  8  9  1  0
  9 10  1  0
 10 11  1  0
 11 12  1  0
 12 13  1  0
 13 14  1  0
 14 15  1  0
 15 16  1  0
 16 17  1  0
 17 18  1  0
 18 19  1  0
  2 20  1  0
 20 21  2  0
 21 22  1  0
 22 23  2  0
 23 24  1  0
 24 25  2  0
 25 26  1  0
 25 27  1  0
 27 28  2  0
 28 29  1  0
 29 30  2  0
 12  7  1  0
 19 14  1  0
 30 20  1  0
 29 23  1  0
  3 31  1  0
  4 32  1  0
  4 33  1  0
  8 34  1  0
  8 35  1  0
  9 36  1  0
  9 37  1  0
 10 38  1  0
 10 39  1  0
 11 40  1  0
 11 41  1  0
 12 42  1  6
 13 43  1  0
 13 44  1  0
 15 45  1  0
 15 46  1  0
 16 47  1  0
 16 48  1  0
 17 49  1  0
 17 50  1  0
 18 51  1  0
 18 52  1  0
 19 53  1  0
 19 54  1  0
 21 55  1  0
 22 56  1  0
 24 57  1  0
 27 58  1  0
 28 59  1  0
M  END
>  <smiles>  (27) 
O=C(NCC(=O)N1CCCC[C@H]1CN1CCCCC1)c1ccc2cc(Cl)ccc2n1

>  <score_type>  (27) 
oracle

>  <origin>  (27) 
autodockgpu

>  <m_score__min__energy>  (27) 
-8.6699999999999999

>  <m_primary>  (27) 
energy

>  <rmsd>  (27) 
4.393090982271777

>  <m_score__min__rmsd>  (27) 
4.393090982271777

>  <meeko>  (27) 
{"free_energy": -7.59, "intermolecular_energy": -9.38, "internal_energy": -2.26, "cluster_size": 34, "cluster_id": 1, "rank_in_cluster": 34}

>  <energy>  (27) 
-7.82

>  <cluster_rmsd>  (27) 
1.47

>  <cluster>  (27) 
1

$$$$

     RDKit          3D

 59 62  0  0  0  0  0  0  0  0999 V2000
  139.7530   72.1740  220.8140 O   0  0  0  0  0  0  0  0  0  0  0  0
  139.7260   72.5780  222.0120 C   0  0  0  0  0  0  0  0  0  0  0  0
  139.5580   73.9790  222.2020 N   0  0  0  0  0  0  0  0  0  0  0  0
  139.4270   74.8880  221.0820 C   0  0  0  0  0  0  0  0  0  0  0  0
  140.3370   76.0540  221.2090 C   0  0  0  0  0  0  0  0  0  0  0  0
  140.6400   76.5090  222.3440 O   0  0  0  0  0  0  0  0  0  0  0  0
  140.8410   76.6180  220.0050 N   0  0  0  0  0  0  0  0  0  0  0  0
  140.5400   76.0840  218.6900 C   0  0  0  0  0  0  0  0  0  0  0  0
  141.7940   75.7600  217.9160 C   0  0  0  0  0  0  0  0  0  0  0  0
  142.9350   76.6670  218.2220 C   0  0  0  0  0  0  0  0  0  0  0  0
  142.5560   77.9580  218.8800 C   0  0  0  0  0  0  0  0  0  0  0  0
  141.6950   77.7870  220.1010 C   0  0  1  0  0  0  0  0  0  0  0  0
  140.7710   78.9820  220.1840 C   0  0  0  0  0  0  0  0  0  0  0  0
  141.0310   79.7900  221.3850 N   0  0  0  0  0  0  0  0  0  0  0  0
  139.8990   79.7280  222.2910 C   0  0  0  0  0  0  0  0  0  0  0  0
  140.0640   80.8260  223.3240 C   0  0  0  0  0  0  0  0  0  0  0  0
  141.4970   80.8880  223.8270 C   0  0  0  0  0  0  0  0  0  0  0  0
  142.1260   79.5470  223.5100 C   0  0  0  0  0  0  0  0  0  0  0  0
  142.2590   79.4070  222.0160 C   0  0  0  0  0  0  0  0  0  0  0  0
  139.8570   71.6720  223.1520 C   0  0  0  0  0  0  0  0  0  0  0  0
  139.4430   70.3660  222.9900 C   0  0  0  0  0  0  0  0  0  0  0  0
  139.5240   69.4340  224.0000 C   0  0  0  0  0  0  0  0  0  0  0  0
  140.0430   69.8490  225.2090 C   0  0  0  0  0  0  0  0  0  0  0  0
  140.1410   68.9470  226.2450 C   0  0  0  0  0  0  0  0  0  0  0  0
  140.6560   69.3400  227.4610 C   0  0  0  0  0  0  0  0  0  0  0  0
  140.7700   68.1770  228.7600 Cl  0  0  0  0  0  0  0  0  0  0  0  0
  141.0640   70.6500  227.6020 C   0  0  0  0  0  0  0  0  0  0  0  0
  140.9670   71.5560  226.5660 C   0  0  0  0  0  0  0  0  0  0  0  0
  140.4510   71.1660  225.3440 C   0  0  0  0  0  0  0  0  0  0  0  0
  140.3600   72.0580  224.3380 N   0  0  0  0  0  0  0  0  0  0  0  0
  139.5340   74.3290  223.2060 H   0  0  0  0  0  0  0  0  0  0  0  0
  139.6680   74.3476  220.1547 H   0  0  0  0  0  0  0  0  0  0  0  0
  138.3926   75.2619  221.0642 H   0  0  0  0  0  0  0  0  0  0  0  0
  139.9460   75.1655  218.8062 H   0  0  0  0  0  0  0  0  0  0  0  0
  139.9809   76.8484  218.1305 H   0  0  0  0  0  0  0  0  0  0  0  0
  142.0947   74.7296  218.1567 H   0  0  0  0  0  0  0  0  0  0  0  0
  141.5569   75.8886  216.8496 H   0  0  0  0  0  0  0  0  0  0  0  0
  143.6262   76.1329  218.8905 H   0  0  0  0  0  0  0  0  0  0  0  0
  143.3843   76.9345  217.2542 H   0  0  0  0  0  0  0  0  0  0  0  0
  143.4778   78.4801  219.1760 H   0  0  0  0  0  0  0  0  0  0  0  0
  141.9651   78.5290  218.1487 H   0  0  0  0  0  0  0  0  0  0  0  0
  142.3584   77.6834  220.9723 H   0  0  0  0  0  0  0  0  0  0  0  0
  140.9198   79.6099  219.2932 H   0  0  0  0  0  0  0  0  0  0  0  0
  139.7366   78.6117  220.2379 H   0  0  0  0  0  0  0  0  0  0  0  0
  138.9643   79.8796  221.7313 H   0  0  0  0  0  0  0  0  0  0  0  0
  139.8565   78.7447  222.7823 H   0  0  0  0  0  0  0  0  0  0  0  0
  139.8004   81.7917  222.8681 H   0  0  0  0  0  0  0  0  0  0  0  0
  139.4022   80.6092  224.1755 H   0  0  0  0  0  0  0  0  0  0  0  0
  142.0440   81.6940  223.3159 H   0  0  0  0  0  0  0  0  0  0  0  0
  141.5295   81.0958  224.9067 H   0  0  0  0  0  0  0  0  0  0  0  0
  143.1207   79.4872  223.9758 H   0  0  0  0  0  0  0  0  0  0  0  0
  141.4931   78.7380  223.9036 H   0  0  0  0  0  0  0  0  0  0  0  0
  143.0720   80.0561  221.6586 H   0  0  0  0  0  0  0  0  0  0  0  0
  142.4863   78.3600  221.7665 H   0  0  0  0  0  0  0  0  0  0  0  0
  139.0327   70.0577  222.0171 H   0  0  0  0  0  0  0  0  0  0  0  0
  139.1877   68.3977  223.8487 H   0  0  0  0  0  0  0  0  0  0  0  0
  139.8069   67.9089  226.1011 H   0  0  0  0  0  0  0  0  0  0  0  0
  141.4777   70.9812  228.5660 H   0  0  0  0  0  0  0  0  0  0  0  0
  141.3017   72.5935  226.7129 H   0  0  0  0  0  0  0  0  0  0  0  0
  1  2  2  0
  2  3  1  0
  3  4  1  0
  4  5  1  0
  5  6  2  0
  5  7  1  0
  7  8  1  0
  8  9  1  0
  9 10  1  0
 10 11  1  0
 11 12  1  0
 12 13  1  0
 13 14  1  0
 14 15  1  0
 15 16  1  0
 16 17  1  0
 17 18  1  0
 18 19  1  0
  2 20  1  0
 20 21  2  0
 21 22  1  0
 22 23  2  0
 23 24  1  0
 24 25  2  0
 25 26  1  0
 25 27  1  0
 27 28  2  0
 28 29  1  0
 29 30  2  0
 12  7  1  0
 19 14  1  0
 30 20  1  0
 29 23  1  0
  3 31  1  0
  4 32  1  0
  4 33  1  0
  8 34  1  0
  8 35  1  0
  9 36  1  0
  9 37  1  0
 10 38  1  0
 10 39  1  0
 11 40  1  0
 11 41  1  0
 12 42  1  1
 13 43  1  0
 13 44  1  0
 15 45  1  0
 15 46  1  0
 16 47  1  0
 16 48  1  0
 17 49  1  0
 17 50  1  0
 18 51  1  0
 18 52  1  0
 19 53  1  0
 19 54  1  0
 21 55  1  0
 22 56  1  0
 24 57  1  0
 27 58  1  0
 28 59  1  0
M  END
>  <smiles>  (28) 
O=C(NCC(=O)N1CCCC[C@H]1CN1CCCCC1)c1ccc2cc(Cl)ccc2n1

>  <score_type>  (28) 
oracle

>  <origin>  (28) 
autodockgpu

>  <m_score__min__energy>  (28) 
-8.6699999999999999

>  <m_primary>  (28) 
energy

>  <rmsd>  (28) 
2.1623583477895796

>  <m_score__min__rmsd>  (28) 
2.1623583477895796

>  <meeko>  (28) 
{"free_energy": -8.34, "intermolecular_energy": -10.13, "internal_energy": -1.89, "cluster_size": 34, "cluster_id": 1, "rank_in_cluster": 12}

>  <energy>  (28) 
-7.79

>  <cluster_rmsd>  (28) 
0.85

>  <cluster>  (28) 
1

$$$$

     RDKit          3D

 59 62  0  0  0  0  0  0  0  0999 V2000
  141.0170   73.3500  221.9380 O   0  0  0  0  0  0  0  0  0  0  0  0
  139.9870   72.7860  222.4080 C   0  0  0  0  0  0  0  0  0  0  0  0
  138.7490   73.1150  221.7880 N   0  0  0  0  0  0  0  0  0  0  0  0
  138.6760   74.0450  220.6800 C   0  0  0  0  0  0  0  0  0  0  0  0
  139.1180   75.4070  221.0740 C   0  0  0  0  0  0  0  0  0  0  0  0
  138.6530   75.9560  222.1080 O   0  0  0  0  0  0  0  0  0  0  0  0
  140.0750   76.0460  220.2380 N   0  0  0  0  0  0  0  0  0  0  0  0
  140.1730   75.8020  218.8120 C   0  0  0  0  0  0  0  0  0  0  0  0
  141.5600   75.3630  218.4120 C   0  0  0  0  0  0  0  0  0  0  0  0
  142.6390   75.9620  219.2470 C   0  0  0  0  0  0  0  0  0  0  0  0
  142.2350   77.1800  220.0210 C   0  0  0  0  0  0  0  0  0  0  0  0
  140.9940   76.9890  220.8470 C   0  0  1  0  0  0  0  0  0  0  0  0
  140.2670   78.3160  220.8990 C   0  0  0  0  0  0  0  0  0  0  0  0
  140.7950   79.1850  221.9620 N   0  0  0  0  0  0  0  0  0  0  0  0
  141.3890   78.3860  223.0180 C   0  0  0  0  0  0  0  0  0  0  0  0
  141.6000   79.2830  224.2230 C   0  0  0  0  0  0  0  0  0  0  0  0
  142.1760   80.6260  223.8070 C   0  0  0  0  0  0  0  0  0  0  0  0
  142.7970   80.4250  222.4390 C   0  0  0  0  0  0  0  0  0  0  0  0
  141.7040   80.1600  221.4370 C   0  0  0  0  0  0  0  0  0  0  0  0
  140.0450   71.8440  223.5260 C   0  0  0  0  0  0  0  0  0  0  0  0
  139.5740   70.5640  223.3170 C   0  0  0  0  0  0  0  0  0  0  0  0
  139.5850   69.6030  224.3030 C   0  0  0  0  0  0  0  0  0  0  0  0
  140.0910   69.9610  225.5350 C   0  0  0  0  0  0  0  0  0  0  0  0
  140.1190   69.0290  226.5480 C   0  0  0  0  0  0  0  0  0  0  0  0
  140.6210   69.3630  227.7870 C   0  0  0  0  0  0  0  0  0  0  0  0
  140.6470   68.1630  229.0560 Cl  0  0  0  0  0  0  0  0  0  0  0  0
  141.0880   70.6480  227.9740 C   0  0  0  0  0  0  0  0  0  0  0  0
  141.0610   71.5850  226.9610 C   0  0  0  0  0  0  0  0  0  0  0  0
  140.5580   71.2530  225.7170 C   0  0  0  0  0  0  0  0  0  0  0  0
  140.5360   72.1740  224.7340 N   0  0  0  0  0  0  0  0  0  0  0  0
  137.8770   72.6460  222.1760 H   0  0  0  0  0  0  0  0  0  0  0  0
  139.3222   73.6820  219.8672 H   0  0  0  0  0  0  0  0  0  0  0  0
  137.6274   74.1066  220.3534 H   0  0  0  0  0  0  0  0  0  0  0  0
  139.4568   75.0142  218.5356 H   0  0  0  0  0  0  0  0  0  0  0  0
  139.9481   76.7428  218.2882 H   0  0  0  0  0  0  0  0  0  0  0  0
  141.6178   74.2682  218.5020 H   0  0  0  0  0  0  0  0  0  0  0  0
  141.7222   75.7069  217.3798 H   0  0  0  0  0  0  0  0  0  0  0  0
  142.9801   75.1997  219.9629 H   0  0  0  0  0  0  0  0  0  0  0  0
  143.4250   76.2865  218.5492 H   0  0  0  0  0  0  0  0  0  0  0  0
  143.0611   77.4532  220.6940 H   0  0  0  0  0  0  0  0  0  0  0  0
  142.0130   77.9679  219.2862 H   0  0  0  0  0  0  0  0  0  0  0  0
  141.2985   76.6151  221.8357 H   0  0  0  0  0  0  0  0  0  0  0  0
  140.3849   78.8251  219.9311 H   0  0  0  0  0  0  0  0  0  0  0  0
  139.2066   78.1176  221.1138 H   0  0  0  0  0  0  0  0  0  0  0  0
  140.7156   77.5575  223.2828 H   0  0  0  0  0  0  0  0  0  0  0  0
  142.3481   77.9636  222.6838 H   0  0  0  0  0  0  0  0  0  0  0  0
  140.6344   79.4453  224.7243 H   0  0  0  0  0  0  0  0  0  0  0  0
  142.3103   78.7928  224.9051 H   0  0  0  0  0  0  0  0  0  0  0  0
  141.3782   81.3814  223.7545 H   0  0  0  0  0  0  0  0  0  0  0  0
  142.9221   80.9802  224.5335 H   0  0  0  0  0  0  0  0  0  0  0  0
  143.3512   81.3300  222.1492 H   0  0  0  0  0  0  0  0  0  0  0  0
  143.4893   79.5707  222.4676 H   0  0  0  0  0  0  0  0  0  0  0  0
  141.1605   81.0943  221.2328 H   0  0  0  0  0  0  0  0  0  0  0  0
  142.1479   79.7802  220.5049 H   0  0  0  0  0  0  0  0  0  0  0  0
  139.1750   70.3016  222.3261 H   0  0  0  0  0  0  0  0  0  0  0  0
  139.2046   68.5881  224.1152 H   0  0  0  0  0  0  0  0  0  0  0  0
  139.7388   68.0127  226.3674 H   0  0  0  0  0  0  0  0  0  0  0  0
  141.4925   70.9331  228.9564 H   0  0  0  0  0  0  0  0  0  0  0  0
  141.4415   72.6007  227.1444 H   0  0  0  0  0  0  0  0  0  0  0  0
  1  2  2  0
  2  3  1  0
  3  4  1  0
  4  5  1  0
  5  6  2  0
  5  7  1  0
  7  8  1  0
  8  9  1  0
  9 10  1  0
 10 11  1  0
 11 12  1  0
 12 13  1  0
 13 14  1  0
 14 15  1  0
 15 16  1  0
 16 17  1  0
 17 18  1  0
 18 19  1  0
  2 20  1  0
 20 21  2  0
 21 22  1  0
 22 23  2  0
 23 24  1  0
 24 25  2  0
 25 26  1  0
 25 27  1  0
 27 28  2  0
 28 29  1  0
 29 30  2  0
 12  7  1  0
 19 14  1  0
 30 20  1  0
 29 23  1  0
  3 31  1  0
  4 32  1  0
  4 33  1  0
  8 34  1  0
  8 35  1  0
  9 36  1  0
  9 37  1  0
 10 38  1  0
 10 39  1  0
 11 40  1  0
 11 41  1  0
 12 42  1  1
 13 43  1  0
 13 44  1  0
 15 45  1  0
 15 46  1  0
 16 47  1  0
 16 48  1  0
 17 49  1  0
 17 50  1  0
 18 51  1  0
 18 52  1  0
 19 53  1  0
 19 54  1  0
 21 55  1  0
 22 56  1  0
 24 57  1  0
 27 58  1  0
 28 59  1  0
M  END
>  <smiles>  (29) 
O=C(NCC(=O)N1CCCC[C@H]1CN1CCCCC1)c1ccc2cc(Cl)ccc2n1

>  <score_type>  (29) 
oracle

>  <origin>  (29) 
autodockgpu

>  <m_score__min__energy>  (29) 
-8.6699999999999999

>  <m_primary>  (29) 
energy

>  <rmsd>  (29) 
2.0071145760930276

>  <m_score__min__rmsd>  (29) 
2.0071145760930276

>  <meeko>  (29) 
{"free_energy": -8.11, "intermolecular_energy": -9.9, "internal_energy": -1.61, "cluster_size": 34, "cluster_id": 1, "rank_in_cluster": 21}

>  <energy>  (29) 
-7.78

>  <cluster_rmsd>  (29) 
0.67

>  <cluster>  (29) 
1

$$$$

     RDKit          3D

 59 62  0  0  0  0  0  0  0  0999 V2000
  140.4480   72.7670  221.1010 O   0  0  0  0  0  0  0  0  0  0  0  0
  139.7170   72.8080  222.1330 C   0  0  0  0  0  0  0  0  0  0  0  0
  138.7280   73.8310  222.1660 N   0  0  0  0  0  0  0  0  0  0  0  0
  138.5720   74.7730  221.0780 C   0  0  0  0  0  0  0  0  0  0  0  0
  138.5370   76.1760  221.5640 C   0  0  0  0  0  0  0  0  0  0  0  0
  137.6540   76.5470  222.3820 O   0  0  0  0  0  0  0  0  0  0  0  0
  139.5340   77.0600  221.0670 N   0  0  0  0  0  0  0  0  0  0  0  0
  139.2360   78.1920  220.2100 C   0  0  0  0  0  0  0  0  0  0  0  0
  140.0230   78.1440  218.9230 C   0  0  0  0  0  0  0  0  0  0  0  0
  141.3680   77.5210  219.0700 C   0  0  0  0  0  0  0  0  0  0  0  0
  141.8790   77.4480  220.4760 C   0  0  0  0  0  0  0  0  0  0  0  0
  140.9140   76.8150  221.4400 C   0  0  1  0  0  0  0  0  0  0  0  0
  141.1120   77.4740  222.7880 C   0  0  0  0  0  0  0  0  0  0  0  0
  141.2420   78.9340  222.6680 N   0  0  0  0  0  0  0  0  0  0  0  0
  140.1860   79.5970  223.4110 C   0  0  0  0  0  0  0  0  0  0  0  0
  140.1540   81.0520  222.9820 C   0  0  0  0  0  0  0  0  0  0  0  0
  141.5580   81.6240  222.8920 C   0  0  0  0  0  0  0  0  0  0  0  0
  142.4460   80.7230  223.7270 C   0  0  0  0  0  0  0  0  0  0  0  0
  142.5470   79.3760  223.0590 C   0  0  0  0  0  0  0  0  0  0  0  0
  139.8630   71.8620  223.2390 C   0  0  0  0  0  0  0  0  0  0  0  0
  139.4690   70.5560  223.0290 C   0  0  0  0  0  0  0  0  0  0  0  0
  139.5650   69.5900  224.0050 C   0  0  0  0  0  0  0  0  0  0  0  0
  140.0780   69.9690  225.2280 C   0  0  0  0  0  0  0  0  0  0  0  0
  140.1900   69.0310  226.2310 C   0  0  0  0  0  0  0  0  0  0  0  0
  140.7010   69.3870  227.4600 C   0  0  0  0  0  0  0  0  0  0  0  0
  140.8340   68.1800  228.7160 Cl  0  0  0  0  0  0  0  0  0  0  0  0
  141.0890   70.6980  227.6490 C   0  0  0  0  0  0  0  0  0  0  0  0
  140.9770   71.6390  226.6460 C   0  0  0  0  0  0  0  0  0  0  0  0
  140.4660   71.2860  225.4110 C   0  0  0  0  0  0  0  0  0  0  0  0
  140.3610   72.2120  224.4380 N   0  0  0  0  0  0  0  0  0  0  0  0
  138.1080   73.8740  223.0290 H   0  0  0  0  0  0  0  0  0  0  0  0
  139.4171   74.6578  220.3833 H   0  0  0  0  0  0  0  0  0  0  0  0
  137.6162   74.5609  220.5765 H   0  0  0  0  0  0  0  0  0  0  0  0
  138.1623   78.1846  219.9711 H   0  0  0  0  0  0  0  0  0  0  0  0
  139.5155   79.1102  220.7473 H   0  0  0  0  0  0  0  0  0  0  0  0
  139.4492   77.5631  218.1859 H   0  0  0  0  0  0  0  0  0  0  0  0
  140.1823   79.1843  218.6030 H   0  0  0  0  0  0  0  0  0  0  0  0
  141.3156   76.4969  218.6719 H   0  0  0  0  0  0  0  0  0  0  0  0
  142.0687   78.1666  218.5203 H   0  0  0  0  0  0  0  0  0  0  0  0
  142.8076   76.8584  220.4774 H   0  0  0  0  0  0  0  0  0  0  0  0
  142.0370   78.4829  220.8137 H   0  0  0  0  0  0  0  0  0  0  0  0
  141.1031   75.7314  221.4480 H   0  0  0  0  0  0  0  0  0  0  0  0
  140.2464   77.2449  223.4270 H   0  0  0  0  0  0  0  0  0  0  0  0
  142.0417   77.0827  223.2268 H   0  0  0  0  0  0  0  0  0  0  0  0
  139.2190   79.1213  223.1905 H   0  0  0  0  0  0  0  0  0  0  0  0
  140.3736   79.5212  224.4922 H   0  0  0  0  0  0  0  0  0  0  0  0
  139.6717   81.1258  221.9962 H   0  0  0  0  0  0  0  0  0  0  0  0
  139.5892   81.6259  223.7314 H   0  0  0  0  0  0  0  0  0  0  0  0
  141.8993   81.6300  221.8463 H   0  0  0  0  0  0  0  0  0  0  0  0
  141.5885   82.6610  223.2577 H   0  0  0  0  0  0  0  0  0  0  0  0
  143.4481   81.1687  223.8113 H   0  0  0  0  0  0  0  0  0  0  0  0
  142.0161   80.6071  224.7328 H   0  0  0  0  0  0  0  0  0  0  0  0
  143.1883   79.4561  222.1688 H   0  0  0  0  0  0  0  0  0  0  0  0
  142.9823   78.6512  223.7627 H   0  0  0  0  0  0  0  0  0  0  0  0
  139.0633   70.2768  222.0454 H   0  0  0  0  0  0  0  0  0  0  0  0
  139.2446   68.5547  223.8167 H   0  0  0  0  0  0  0  0  0  0  0  0
  139.8703   67.9942  226.0499 H   0  0  0  0  0  0  0  0  0  0  0  0
  141.4980   71.0005  228.6243 H   0  0  0  0  0  0  0  0  0  0  0  0
  141.2960   72.6755  226.8301 H   0  0  0  0  0  0  0  0  0  0  0  0
  1  2  2  0
  2  3  1  0
  3  4  1  0
  4  5  1  0
  5  6  2  0
  5  7  1  0
  7  8  1  0
  8  9  1  0
  9 10  1  0
 10 11  1  0
 11 12  1  0
 12 13  1  0
 13 14  1  0
 14 15  1  0
 15 16  1  0
 16 17  1  0
 17 18  1  0
 18 19  1  0
  2 20  1  0
 20 21  2  0
 21 22  1  0
 22 23  2  0
 23 24  1  0
 24 25  2  0
 25 26  1  0
 25 27  1  0
 27 28  2  0
 28 29  1  0
 29 30  2  0
 12  7  1  0
 19 14  1  0
 30 20  1  0
 29 23  1  0
  3 31  1  0
  4 32  1  0
  4 33  1  0
  8 34  1  0
  8 35  1  0
  9 36  1  0
  9 37  1  0
 10 38  1  0
 10 39  1  0
 11 40  1  0
 11 41  1  0
 12 42  1  1
 13 43  1  0
 13 44  1  0
 15 45  1  0
 15 46  1  0
 16 47  1  0
 16 48  1  0
 17 49  1  0
 17 50  1  0
 18 51  1  0
 18 52  1  0
 19 53  1  0
 19 54  1  0
 21 55  1  0
 22 56  1  0
 24 57  1  0
 27 58  1  0
 28 59  1  0
M  END
>  <smiles>  (30) 
O=C(NCC(=O)N1CCCC[C@H]1CN1CCCCC1)c1ccc2cc(Cl)ccc2n1

>  <score_type>  (30) 
oracle

>  <origin>  (30) 
autodockgpu

>  <m_score__min__energy>  (30) 
-8.6699999999999999

>  <m_primary>  (30) 
energy

>  <rmsd>  (30) 
2.4112270260806166

>  <m_score__min__rmsd>  (30) 
2.4112270260806166

>  <meeko>  (30) 
{"free_energy": -8.53, "intermolecular_energy": -10.32, "internal_energy": -1.83, "cluster_size": 34, "cluster_id": 1, "rank_in_cluster": 5}

>  <energy>  (30) 
-7.77

>  <cluster_rmsd>  (30) 
1.55

>  <cluster>  (30) 
1

$$$$

     RDKit          3D

 59 62  0  0  0  0  0  0  0  0999 V2000
  136.7010   77.5860  222.7150 O   0  0  0  0  0  0  0  0  0  0  0  0
  136.7610   76.3840  223.1040 C   0  0  0  0  0  0  0  0  0  0  0  0
  137.8950   75.6390  222.6750 N   0  0  0  0  0  0  0  0  0  0  0  0
  138.9200   76.2270  221.8390 C   0  0  0  0  0  0  0  0  0  0  0  0
  139.9960   75.2550  221.5200 C   0  0  0  0  0  0  0  0  0  0  0  0
  140.1080   74.1860  222.1770 O   0  0  0  0  0  0  0  0  0  0  0  0
  140.8750   75.5870  220.4530 N   0  0  0  0  0  0  0  0  0  0  0  0
  140.8870   74.8840  219.1840 C   0  0  0  0  0  0  0  0  0  0  0  0
  142.2570   74.3470  218.8520 C   0  0  0  0  0  0  0  0  0  0  0  0
  143.3690   75.1960  219.3620 C   0  0  0  0  0  0  0  0  0  0  0  0
  142.9810   76.5990  219.7160 C   0  0  0  0  0  0  0  0  0  0  0  0
  141.8040   76.6850  220.6470 C   0  0  1  0  0  0  0  0  0  0  0  0
  141.0420   77.9490  220.3100 C   0  0  0  0  0  0  0  0  0  0  0  0
  141.0520   78.9050  221.4270 N   0  0  0  0  0  0  0  0  0  0  0  0
  141.4140   78.2340  222.6630 C   0  0  0  0  0  0  0  0  0  0  0  0
  141.0780   79.1610  223.8150 C   0  0  0  0  0  0  0  0  0  0  0  0
  141.5150   80.5850  223.5140 C   0  0  0  0  0  0  0  0  0  0  0  0
  142.5570   80.4940  222.4180 C   0  0  0  0  0  0  0  0  0  0  0  0
  141.8970   80.0280  221.1470 C   0  0  0  0  0  0  0  0  0  0  0  0
  135.7330   75.7770  223.9490 C   0  0  0  0  0  0  0  0  0  0  0  0
  134.7870   76.6080  224.5140 C   0  0  0  0  0  0  0  0  0  0  0  0
  133.7780   76.1360  225.3230 C   0  0  0  0  0  0  0  0  0  0  0  0
  133.7360   74.7780  225.5620 C   0  0  0  0  0  0  0  0  0  0  0  0
  132.7420   74.2670  226.3670 C   0  0  0  0  0  0  0  0  0  0  0  0
  132.6800   72.9130  226.6180 C   0  0  0  0  0  0  0  0  0  0  0  0
  131.4100   72.2880  227.6420 Cl  0  0  0  0  0  0  0  0  0  0  0  0
  133.6350   72.1000  226.0440 C   0  0  0  0  0  0  0  0  0  0  0  0
  134.6320   72.6100  225.2370 C   0  0  0  0  0  0  0  0  0  0  0  0
  134.6980   73.9670  224.9820 C   0  0  0  0  0  0  0  0  0  0  0  0
  135.6750   74.4550  224.1930 N   0  0  0  0  0  0  0  0  0  0  0  0
  137.9550   74.6260  222.9970 H   0  0  0  0  0  0  0  0  0  0  0  0
  138.4604   76.5702  220.9004 H   0  0  0  0  0  0  0  0  0  0  0  0
  139.3698   77.0667  222.3891 H   0  0  0  0  0  0  0  0  0  0  0  0
  140.1787   74.0440  219.2360 H   0  0  0  0  0  0  0  0  0  0  0  0
  140.5998   75.5964  218.3966 H   0  0  0  0  0  0  0  0  0  0  0  0
  142.3541   73.3443  219.2938 H   0  0  0  0  0  0  0  0  0  0  0  0
  142.3403   74.3304  217.7553 H   0  0  0  0  0  0  0  0  0  0  0  0
  143.7786   74.7171  220.2636 H   0  0  0  0  0  0  0  0  0  0  0  0
  144.0974   75.2754  218.5416 H   0  0  0  0  0  0  0  0  0  0  0  0
  143.8414   77.0858  220.1984 H   0  0  0  0  0  0  0  0  0  0  0  0
  142.6869   77.0965  218.7801 H   0  0  0  0  0  0  0  0  0  0  0  0
  142.1851   76.6626  221.6786 H   0  0  0  0  0  0  0  0  0  0  0  0
  141.5066   78.4218  219.4321 H   0  0  0  0  0  0  0  0  0  0  0  0
  139.9971   77.6743  220.1035 H   0  0  0  0  0  0  0  0  0  0  0  0
  140.8455   77.2972  222.7596 H   0  0  0  0  0  0  0  0  0  0  0  0
  142.4873   77.9930  222.6669 H   0  0  0  0  0  0  0  0  0  0  0  0
  139.9910   79.1463  223.9832 H   0  0  0  0  0  0  0  0  0  0  0  0
  141.6116   78.8130  224.7117 H   0  0  0  0  0  0  0  0  0  0  0  0
  140.6562   81.1818  223.1729 H   0  0  0  0  0  0  0  0  0  0  0  0
  141.9236   81.0732  224.4111 H   0  0  0  0  0  0  0  0  0  0  0  0
  143.0091   81.4837  222.2567 H   0  0  0  0  0  0  0  0  0  0  0  0
  143.3413   79.7806  222.7111 H   0  0  0  0  0  0  0  0  0  0  0  0
  141.2922   80.8455  220.7277 H   0  0  0  0  0  0  0  0  0  0  0  0
  142.6695   79.7317  220.4221 H   0  0  0  0  0  0  0  0  0  0  0  0
  134.8412   77.6876  224.3104 H   0  0  0  0  0  0  0  0  0  0  0  0
  133.0333   76.8161  225.7623 H   0  0  0  0  0  0  0  0  0  0  0  0
  131.9952   74.9416  226.8111 H   0  0  0  0  0  0  0  0  0  0  0  0
  133.6012   71.0171  226.2343 H   0  0  0  0  0  0  0  0  0  0  0  0
  135.3778   71.9332  224.7946 H   0  0  0  0  0  0  0  0  0  0  0  0
  1  2  2  0
  2  3  1  0
  3  4  1  0
  4  5  1  0
  5  6  2  0
  5  7  1  0
  7  8  1  0
  8  9  1  0
  9 10  1  0
 10 11  1  0
 11 12  1  0
 12 13  1  0
 13 14  1  0
 14 15  1  0
 15 16  1  0
 16 17  1  0
 17 18  1  0
 18 19  1  0
  2 20  1  0
 20 21  2  0
 21 22  1  0
 22 23  2  0
 23 24  1  0
 24 25  2  0
 25 26  1  0
 25 27  1  0
 27 28  2  0
 28 29  1  0
 29 30  2  0
 12  7  1  0
 19 14  1  0
 30 20  1  0
 29 23  1  0
  3 31  1  0
  4 32  1  0
  4 33  1  0
  8 34  1  0
  8 35  1  0
  9 36  1  0
  9 37  1  0
 10 38  1  0
 10 39  1  0
 11 40  1  0
 11 41  1  0
 12 42  1  1
 13 43  1  0
 13 44  1  0
 15 45  1  0
 15 46  1  0
 16 47  1  0
 16 48  1  0
 17 49  1  0
 17 50  1  0
 18 51  1  0
 18 52  1  0
 19 53  1  0
 19 54  1  0
 21 55  1  0
 22 56  1  0
 24 57  1  0
 27 58  1  0
 28 59  1  0
M  END
>  <smiles>  (31) 
O=C(NCC(=O)N1CCCC[C@H]1CN1CCCCC1)c1ccc2cc(Cl)ccc2n1

>  <score_type>  (31) 
oracle

>  <origin>  (31) 
autodockgpu

>  <m_score__min__energy>  (31) 
-8.6699999999999999

>  <m_primary>  (31) 
energy

>  <rmsd>  (31) 
5.362005552228817

>  <m_score__min__rmsd>  (31) 
5.362005552228817

>  <meeko>  (31) 
{"free_energy": -7.53, "intermolecular_energy": -9.32, "internal_energy": -2.11, "cluster_size": 5, "cluster_id": 5, "rank_in_cluster": 2}

>  <energy>  (31) 
-7.69

>  <cluster_rmsd>  (31) 
1.2

>  <cluster>  (31) 
1

$$$$

     RDKit          3D

 59 62  0  0  0  0  0  0  0  0999 V2000
  136.6830   77.6350  222.6910 O   0  0  0  0  0  0  0  0  0  0  0  0
  136.7670   76.4440  223.1090 C   0  0  0  0  0  0  0  0  0  0  0  0
  137.9290   75.7200  222.7220 N   0  0  0  0  0  0  0  0  0  0  0  0
  138.9570   76.3170  221.8950 C   0  0  0  0  0  0  0  0  0  0  0  0
  139.9820   75.3230  221.4870 C   0  0  0  0  0  0  0  0  0  0  0  0
  140.0590   74.2080  222.0690 O   0  0  0  0  0  0  0  0  0  0  0  0
  140.8550   75.6890  220.4260 N   0  0  0  0  0  0  0  0  0  0  0  0
  140.8600   75.0270  219.1360 C   0  0  0  0  0  0  0  0  0  0  0  0
  142.2280   74.5020  218.7790 C   0  0  0  0  0  0  0  0  0  0  0  0
  143.3430   75.3350  219.3090 C   0  0  0  0  0  0  0  0  0  0  0  0
  142.9560   76.7260  219.7100 C   0  0  0  0  0  0  0  0  0  0  0  0
  141.7840   76.7810  220.6500 C   0  0  1  0  0  0  0  0  0  0  0  0
  141.0200   78.0550  220.3570 C   0  0  0  0  0  0  0  0  0  0  0  0
  141.0330   78.9740  221.5050 N   0  0  0  0  0  0  0  0  0  0  0  0
  141.3970   78.2630  222.7170 C   0  0  0  0  0  0  0  0  0  0  0  0
  141.0650   79.1530  223.9000 C   0  0  0  0  0  0  0  0  0  0  0  0
  141.5030   80.5850  223.6430 C   0  0  0  0  0  0  0  0  0  0  0  0
  142.5430   80.5290  222.5430 C   0  0  0  0  0  0  0  0  0  0  0  0
  141.8790   80.1040  221.2590 C   0  0  0  0  0  0  0  0  0  0  0  0
  135.7370   75.8280  223.9450 C   0  0  0  0  0  0  0  0  0  0  0  0
  134.7810   76.6520  224.5040 C   0  0  0  0  0  0  0  0  0  0  0  0
  133.7700   76.1720  225.3050 C   0  0  0  0  0  0  0  0  0  0  0  0
  133.7340   74.8140  225.5410 C   0  0  0  0  0  0  0  0  0  0  0  0
  132.7390   74.2940  226.3380 C   0  0  0  0  0  0  0  0  0  0  0  0
  132.6830   72.9400  226.5880 C   0  0  0  0  0  0  0  0  0  0  0  0
  131.4100   72.3050  227.6010 Cl  0  0  0  0  0  0  0  0  0  0  0  0
  133.6480   72.1340  226.0190 C   0  0  0  0  0  0  0  0  0  0  0  0
  134.6480   72.6520  225.2200 C   0  0  0  0  0  0  0  0  0  0  0  0
  134.7060   74.0100  224.9680 C   0  0  0  0  0  0  0  0  0  0  0  0
  135.6860   74.5060  224.1870 N   0  0  0  0  0  0  0  0  0  0  0  0
  138.0100   74.7170  223.0680 H   0  0  0  0  0  0  0  0  0  0  0  0
  138.4889   76.7368  220.9925 H   0  0  0  0  0  0  0  0  0  0  0  0
  139.4561   77.1016  222.4826 H   0  0  0  0  0  0  0  0  0  0  0  0
  140.1525   74.1852  219.1655 H   0  0  0  0  0  0  0  0  0  0  0  0
  140.5678   75.7639  218.3734 H   0  0  0  0  0  0  0  0  0  0  0  0
  142.3282   73.4858  219.1880 H   0  0  0  0  0  0  0  0  0  0  0  0
  142.3046   74.5206  217.6818 H   0  0  0  0  0  0  0  0  0  0  0  0
  143.7584   74.8278  220.1923 H   0  0  0  0  0  0  0  0  0  0  0  0
  144.0665   75.4409  218.4872 H   0  0  0  0  0  0  0  0  0  0  0  0
  143.8188   77.1978  220.2030 H   0  0  0  0  0  0  0  0  0  0  0  0
  142.6564   77.2531  218.7922 H   0  0  0  0  0  0  0  0  0  0  0  0
  142.1700   76.7257  221.6786 H   0  0  0  0  0  0  0  0  0  0  0  0
  141.4815   78.5567  219.4937 H   0  0  0  0  0  0  0  0  0  0  0  0
  139.9746   77.7865  220.1449 H   0  0  0  0  0  0  0  0  0  0  0  0
  140.8275   77.3243  222.7845 H   0  0  0  0  0  0  0  0  0  0  0  0
  142.4699   78.0205  222.7103 H   0  0  0  0  0  0  0  0  0  0  0  0
  139.9785   79.1342  224.0707 H   0  0  0  0  0  0  0  0  0  0  0  0
  141.6002   78.7758  224.7838 H   0  0  0  0  0  0  0  0  0  0  0  0
  140.6440   81.1929  223.3226 H   0  0  0  0  0  0  0  0  0  0  0  0
  141.9141   81.0436  224.5544 H   0  0  0  0  0  0  0  0  0  0  0  0
  142.9952   81.5232  222.4125 H   0  0  0  0  0  0  0  0  0  0  0  0
  143.3281   79.8068  222.8113 H   0  0  0  0  0  0  0  0  0  0  0  0
  141.2744   80.9352  220.8672 H   0  0  0  0  0  0  0  0  0  0  0  0
  142.6494   79.8295  220.5234 H   0  0  0  0  0  0  0  0  0  0  0  0
  134.8290   77.7322  224.3018 H   0  0  0  0  0  0  0  0  0  0  0  0
  133.0185   76.8468  225.7408 H   0  0  0  0  0  0  0  0  0  0  0  0
  131.9846   74.9630  226.7776 H   0  0  0  0  0  0  0  0  0  0  0  0
  133.6198   71.0505  226.2069 H   0  0  0  0  0  0  0  0  0  0  0  0
  135.4018   71.9811  224.7821 H   0  0  0  0  0  0  0  0  0  0  0  0
  1  2  2  0
  2  3  1  0
  3  4  1  0
  4  5  1  0
  5  6  2  0
  5  7  1  0
  7  8  1  0
  8  9  1  0
  9 10  1  0
 10 11  1  0
 11 12  1  0
 12 13  1  0
 13 14  1  0
 14 15  1  0
 15 16  1  0
 16 17  1  0
 17 18  1  0
 18 19  1  0
  2 20  1  0
 20 21  2  0
 21 22  1  0
 22 23  2  0
 23 24  1  0
 24 25  2  0
 25 26  1  0
 25 27  1  0
 27 28  2  0
 28 29  1  0
 29 30  2  0
 12  7  1  0
 19 14  1  0
 30 20  1  0
 29 23  1  0
  3 31  1  0
  4 32  1  0
  4 33  1  0
  8 34  1  0
  8 35  1  0
  9 36  1  0
  9 37  1  0
 10 38  1  0
 10 39  1  0
 11 40  1  0
 11 41  1  0
 12 42  1  1
 13 43  1  0
 13 44  1  0
 15 45  1  0
 15 46  1  0
 16 47  1  0
 16 48  1  0
 17 49  1  0
 17 50  1  0
 18 51  1  0
 18 52  1  0
 19 53  1  0
 19 54  1  0
 21 55  1  0
 22 56  1  0
 24 57  1  0
 27 58  1  0
 28 59  1  0
M  END
>  <smiles>  (32) 
O=C(NCC(=O)N1CCCC[C@H]1CN1CCCCC1)c1ccc2cc(Cl)ccc2n1

>  <score_type>  (32) 
oracle

>  <origin>  (32) 
autodockgpu

>  <m_score__min__energy>  (32) 
-8.6699999999999999

>  <m_primary>  (32) 
energy

>  <rmsd>  (32) 
5.380771413784287

>  <m_score__min__rmsd>  (32) 
5.380771413784287

>  <meeko>  (32) 
{"free_energy": -7.52, "intermolecular_energy": -9.31, "internal_energy": -2.09, "cluster_size": 5, "cluster_id": 5, "rank_in_cluster": 3}

>  <energy>  (32) 
-7.65

>  <cluster_rmsd>  (32) 
1.55

>  <cluster>  (32) 
1

$$$$

     RDKit          3D

 59 62  0  0  0  0  0  0  0  0999 V2000
  138.8260   71.3900  220.8880 O   0  0  0  0  0  0  0  0  0  0  0  0
  138.6690   71.9090  222.0310 C   0  0  0  0  0  0  0  0  0  0  0  0
  137.8920   73.1000  222.0810 N   0  0  0  0  0  0  0  0  0  0  0  0
  137.3140   73.6820  220.8870 C   0  0  0  0  0  0  0  0  0  0  0  0
  137.6000   75.1360  220.7890 C   0  0  0  0  0  0  0  0  0  0  0  0
  136.6580   75.9700  220.7320 O   0  0  0  0  0  0  0  0  0  0  0  0
  138.9660   75.5290  220.7650 N   0  0  0  0  0  0  0  0  0  0  0  0
  139.8000   75.4320  219.5820 C   0  0  0  0  0  0  0  0  0  0  0  0
  141.0470   74.6230  219.8390 C   0  0  0  0  0  0  0  0  0  0  0  0
  141.5610   74.7480  221.2320 C   0  0  0  0  0  0  0  0  0  0  0  0
  141.0480   75.9340  221.9900 C   0  0  0  0  0  0  0  0  0  0  0  0
  139.5500   76.0540  221.9850 C   0  0  1  0  0  0  0  0  0  0  0  0
  139.2070   77.5280  222.0190 C   0  0  0  0  0  0  0  0  0  0  0  0
  140.2900   78.3250  222.6130 N   0  0  0  0  0  0  0  0  0  0  0  0
  141.0770   78.9630  221.5730 C   0  0  0  0  0  0  0  0  0  0  0  0
  142.3580   79.4760  222.2030 C   0  0  0  0  0  0  0  0  0  0  0  0
  142.0770   80.1560  223.5320 C   0  0  0  0  0  0  0  0  0  0  0  0
  140.6080   80.5260  223.5260 C   0  0  0  0  0  0  0  0  0  0  0  0
  139.7830   79.2650  223.5690 C   0  0  0  0  0  0  0  0  0  0  0  0
  139.2460   71.3320  223.2440 C   0  0  0  0  0  0  0  0  0  0  0  0
  140.3260   71.9750  223.8160 C   0  0  0  0  0  0  0  0  0  0  0  0
  140.9400   71.5140  224.9580 C   0  0  0  0  0  0  0  0  0  0  0  0
  140.4380   70.3650  225.5320 C   0  0  0  0  0  0  0  0  0  0  0  0
  141.0250   69.8710  226.6750 C   0  0  0  0  0  0  0  0  0  0  0  0
  140.5400   68.7250  227.2660 C   0  0  0  0  0  0  0  0  0  0  0  0
  141.3010   68.1180  228.7170 Cl  0  0  0  0  0  0  0  0  0  0  0  0
  139.4590   68.0980  226.6790 C   0  0  0  0  0  0  0  0  0  0  0  0
  138.8690   68.5900  225.5330 C   0  0  0  0  0  0  0  0  0  0  0  0
  139.3530   69.7400  224.9370 C   0  0  0  0  0  0  0  0  0  0  0  0
  138.7700   70.2130  223.8190 N   0  0  0  0  0  0  0  0  0  0  0  0
  137.7540   73.5450  223.0370 H   0  0  0  0  0  0  0  0  0  0  0  0
  137.7339   73.1762  220.0050 H   0  0  0  0  0  0  0  0  0  0  0  0
  136.2230   73.5504  220.9358 H   0  0  0  0  0  0  0  0  0  0  0  0
  139.2231   74.9510  218.7784 H   0  0  0  0  0  0  0  0  0  0  0  0
  140.1059   76.4491  219.2956 H   0  0  0  0  0  0  0  0  0  0  0  0
  140.8209   73.5641  219.6452 H   0  0  0  0  0  0  0  0  0  0  0  0
  141.8285   75.0125  219.1700 H   0  0  0  0  0  0  0  0  0  0  0  0
  141.2759   73.8403  221.7841 H   0  0  0  0  0  0  0  0  0  0  0  0
  142.6495   74.8830  221.1480 H   0  0  0  0  0  0  0  0  0  0  0  0
  141.3861   75.8516  223.0335 H   0  0  0  0  0  0  0  0  0  0  0  0
  141.4434   76.8302  221.4895 H   0  0  0  0  0  0  0  0  0  0  0  0
  139.1613   75.4915  222.8467 H   0  0  0  0  0  0  0  0  0  0  0  0
  139.0306   77.8767  220.9908 H   0  0  0  0  0  0  0  0  0  0  0  0
  138.3073   77.6564  222.6388 H   0  0  0  0  0  0  0  0  0  0  0  0
  141.3147   78.2339  220.7844 H   0  0  0  0  0  0  0  0  0  0  0  0
  140.5135   79.7933  221.1223 H   0  0  0  0  0  0  0  0  0  0  0  0
  143.0410   78.6299  222.3692 H   0  0  0  0  0  0  0  0  0  0  0  0
  142.8131   80.2109  221.5227 H   0  0  0  0  0  0  0  0  0  0  0  0
  142.2919   79.4684  224.3632 H   0  0  0  0  0  0  0  0  0  0  0  0
  142.7100   81.0459  223.6643 H   0  0  0  0  0  0  0  0  0  0  0  0
  140.3804   81.1456  224.4059 H   0  0  0  0  0  0  0  0  0  0  0  0
  140.3718   81.0932  222.6136 H   0  0  0  0  0  0  0  0  0  0  0  0
  139.8363   78.8270  224.5766 H   0  0  0  0  0  0  0  0  0  0  0  0
  138.7373   79.5046  223.3261 H   0  0  0  0  0  0  0  0  0  0  0  0
  140.7098   72.8899  223.3410 H   0  0  0  0  0  0  0  0  0  0  0  0
  141.7993   72.0424  225.3967 H   0  0  0  0  0  0  0  0  0  0  0  0
  141.8853   70.3937  227.1185 H   0  0  0  0  0  0  0  0  0  0  0  0
  139.0576   67.1820  227.1371 H   0  0  0  0  0  0  0  0  0  0  0  0
  138.0093   68.0648  225.0913 H   0  0  0  0  0  0  0  0  0  0  0  0
  1  2  2  0
  2  3  1  0
  3  4  1  0
  4  5  1  0
  5  6  2  0
  5  7  1  0
  7  8  1  0
  8  9  1  0
  9 10  1  0
 10 11  1  0
 11 12  1  0
 12 13  1  0
 13 14  1  0
 14 15  1  0
 15 16  1  0
 16 17  1  0
 17 18  1  0
 18 19  1  0
  2 20  1  0
 20 21  2  0
 21 22  1  0
 22 23  2  0
 23 24  1  0
 24 25  2  0
 25 26  1  0
 25 27  1  0
 27 28  2  0
 28 29  1  0
 29 30  2  0
 12  7  1  0
 19 14  1  0
 30 20  1  0
 29 23  1  0
  3 31  1  0
  4 32  1  0
  4 33  1  0
  8 34  1  0
  8 35  1  0
  9 36  1  0
  9 37  1  0
 10 38  1  0
 10 39  1  0
 11 40  1  0
 11 41  1  0
 12 42  1  1
 13 43  1  0
 13 44  1  0
 15 45  1  0
 15 46  1  0
 16 47  1  0
 16 48  1  0
 17 49  1  0
 17 50  1  0
 18 51  1  0
 18 52  1  0
 19 53  1  0
 19 54  1  0
 21 55  1  0
 22 56  1  0
 24 57  1  0
 27 58  1  0
 28 59  1  0
M  END
>  <smiles>  (33) 
O=C(NCC(=O)N1CCCC[C@H]1CN1CCCCC1)c1ccc2cc(Cl)ccc2n1

>  <score_type>  (33) 
oracle

>  <origin>  (33) 
autodockgpu

>  <m_score__min__energy>  (33) 
-8.6699999999999999

>  <m_primary>  (33) 
energy

>  <rmsd>  (33) 
3.093783804134085

>  <m_score__min__rmsd>  (33) 
3.093783804134085

>  <meeko>  (33) 
{"free_energy": -7.77, "intermolecular_energy": -9.56, "internal_energy": -1.8, "cluster_size": 34, "cluster_id": 1, "rank_in_cluster": 30}

>  <energy>  (33) 
-7.64

>  <cluster_rmsd>  (33) 
1.22

>  <cluster>  (33) 
1

$$$$

     RDKit          3D

 59 62  0  0  0  0  0  0  0  0999 V2000
  140.5090   72.5920  221.0010 O   0  0  0  0  0  0  0  0  0  0  0  0
  139.8470   72.7440  222.0690 C   0  0  0  0  0  0  0  0  0  0  0  0
  138.9980   73.8840  222.1290 N   0  0  0  0  0  0  0  0  0  0  0  0
  138.9000   74.8180  221.0270 C   0  0  0  0  0  0  0  0  0  0  0  0
  139.7890   75.9920  221.2180 C   0  0  0  0  0  0  0  0  0  0  0  0
  139.7410   76.6630  222.2840 O   0  0  0  0  0  0  0  0  0  0  0  0
  140.6780   76.3140  220.1570 N   0  0  0  0  0  0  0  0  0  0  0  0
  140.5100   75.8230  218.8030 C   0  0  0  0  0  0  0  0  0  0  0  0
  141.7380   75.0970  218.3120 C   0  0  0  0  0  0  0  0  0  0  0  0
  143.0100   75.6370  218.8660 C   0  0  0  0  0  0  0  0  0  0  0  0
  142.9130   77.0170  219.4410 C   0  0  0  0  0  0  0  0  0  0  0  0
  141.8070   77.1770  220.4470 C   0  0  1  0  0  0  0  0  0  0  0  0
  141.2930   78.5970  220.3430 C   0  0  0  0  0  0  0  0  0  0  0  0
  141.7540   79.4270  221.4660 N   0  0  0  0  0  0  0  0  0  0  0  0
  140.9120   80.6020  221.6040 C   0  0  0  0  0  0  0  0  0  0  0  0
  141.6170   81.5780  222.5260 C   0  0  0  0  0  0  0  0  0  0  0  0
  142.2040   80.8610  223.7310 C   0  0  0  0  0  0  0  0  0  0  0  0
  141.4690   79.5410  223.8490 C   0  0  0  0  0  0  0  0  0  0  0  0
  141.8340   78.6670  222.6780 C   0  0  0  0  0  0  0  0  0  0  0  0
  139.9360   71.8080  223.1890 C   0  0  0  0  0  0  0  0  0  0  0  0
  139.4940   70.5160  222.9890 C   0  0  0  0  0  0  0  0  0  0  0  0
  139.5340   69.5600  223.9790 C   0  0  0  0  0  0  0  0  0  0  0  0
  140.0410   69.9340  225.2060 C   0  0  0  0  0  0  0  0  0  0  0  0
  140.0980   69.0060  226.2220 C   0  0  0  0  0  0  0  0  0  0  0  0
  140.6010   69.3570  227.4550 C   0  0  0  0  0  0  0  0  0  0  0  0
  140.6640   68.1630  228.7280 Cl  0  0  0  0  0  0  0  0  0  0  0  0
  141.0390   70.6540  227.6340 C   0  0  0  0  0  0  0  0  0  0  0  0
  140.9820   71.5860  226.6180 C   0  0  0  0  0  0  0  0  0  0  0  0
  140.4780   71.2370  225.3790 C   0  0  0  0  0  0  0  0  0  0  0  0
  140.4270   72.1540  224.3930 N   0  0  0  0  0  0  0  0  0  0  0  0
  138.4380   74.0210  223.0220 H   0  0  0  0  0  0  0  0  0  0  0  0
  139.1849   74.3032  220.0976 H   0  0  0  0  0  0  0  0  0  0  0  0
  137.8624   75.1796  220.9767 H   0  0  0  0  0  0  0  0  0  0  0  0
  139.6546   75.1318  218.7788 H   0  0  0  0  0  0  0  0  0  0  0  0
  140.3392   76.6879  218.1452 H   0  0  0  0  0  0  0  0  0  0  0  0
  141.6548   74.0386  218.5998 H   0  0  0  0  0  0  0  0  0  0  0  0
  141.7781   75.2315  217.2210 H   0  0  0  0  0  0  0  0  0  0  0  0
  143.3511   74.9586  219.6619 H   0  0  0  0  0  0  0  0  0  0  0  0
  143.7104   75.7041  218.0205 H   0  0  0  0  0  0  0  0  0  0  0  0
  143.8673   77.2558  219.9333 H   0  0  0  0  0  0  0  0  0  0  0  0
  142.6889   77.6976  218.6064 H   0  0  0  0  0  0  0  0  0  0  0  0
  142.2115   76.9267  221.4388 H   0  0  0  0  0  0  0  0  0  0  0  0
  141.6536   79.0384  219.4022 H   0  0  0  0  0  0  0  0  0  0  0  0
  140.1937   78.5660  220.3687 H   0  0  0  0  0  0  0  0  0  0  0  0
  140.7544   81.0661  220.6192 H   0  0  0  0  0  0  0  0  0  0  0  0
  139.9323   80.3234  222.0195 H   0  0  0  0  0  0  0  0  0  0  0  0
  142.4277   82.0744  221.9725 H   0  0  0  0  0  0  0  0  0  0  0  0
  140.8839   82.3175  222.8806 H   0  0  0  0  0  0  0  0  0  0  0  0
  143.2794   80.6847  223.5812 H   0  0  0  0  0  0  0  0  0  0  0  0
  142.0897   81.4621  224.6451 H   0  0  0  0  0  0  0  0  0  0  0  0
  141.7574   79.0413  224.7855 H   0  0  0  0  0  0  0  0  0  0  0  0
  140.3837   79.7204  223.8533 H   0  0  0  0  0  0  0  0  0  0  0  0
  142.8598   78.2916  222.8074 H   0  0  0  0  0  0  0  0  0  0  0  0
  141.1351   77.8193  222.6237 H   0  0  0  0  0  0  0  0  0  0  0  0
  139.0949   70.2397  222.0019 H   0  0  0  0  0  0  0  0  0  0  0  0
  139.1750   68.5361  223.7982 H   0  0  0  0  0  0  0  0  0  0  0  0
  139.7404   67.9804  226.0480 H   0  0  0  0  0  0  0  0  0  0  0  0
  141.4441   70.9523  228.6122 H   0  0  0  0  0  0  0  0  0  0  0  0
  141.3392   72.6113  226.7948 H   0  0  0  0  0  0  0  0  0  0  0  0
  1  2  2  0
  2  3  1  0
  3  4  1  0
  4  5  1  0
  5  6  2  0
  5  7  1  0
  7  8  1  0
  8  9  1  0
  9 10  1  0
 10 11  1  0
 11 12  1  0
 12 13  1  0
 13 14  1  0
 14 15  1  0
 15 16  1  0
 16 17  1  0
 17 18  1  0
 18 19  1  0
  2 20  1  0
 20 21  2  0
 21 22  1  0
 22 23  2  0
 23 24  1  0
 24 25  2  0
 25 26  1  0
 25 27  1  0
 27 28  2  0
 28 29  1  0
 29 30  2  0
 12  7  1  0
 19 14  1  0
 30 20  1  0
 29 23  1  0
  3 31  1  0
  4 32  1  0
  4 33  1  0
  8 34  1  0
  8 35  1  0
  9 36  1  0
  9 37  1  0
 10 38  1  0
 10 39  1  0
 11 40  1  0
 11 41  1  0
 12 42  1  1
 13 43  1  0
 13 44  1  0
 15 45  1  0
 15 46  1  0
 16 47  1  0
 16 48  1  0
 17 49  1  0
 17 50  1  0
 18 51  1  0
 18 52  1  0
 19 53  1  0
 19 54  1  0
 21 55  1  0
 22 56  1  0
 24 57  1  0
 27 58  1  0
 28 59  1  0
M  END
>  <smiles>  (34) 
O=C(NCC(=O)N1CCCC[C@H]1CN1CCCCC1)c1ccc2cc(Cl)ccc2n1

>  <score_type>  (34) 
oracle

>  <origin>  (34) 
autodockgpu

>  <m_score__min__energy>  (34) 
-8.6699999999999999

>  <m_primary>  (34) 
energy

>  <rmsd>  (34) 
2.300271226148999

>  <m_score__min__rmsd>  (34) 
2.300271226148999

>  <meeko>  (34) 
{"free_energy": -8.63, "intermolecular_energy": -10.42, "internal_energy": -1.64, "cluster_size": 34, "cluster_id": 1, "rank_in_cluster": 2}

>  <energy>  (34) 
-7.59

>  <cluster_rmsd>  (34) 
1.91

>  <cluster>  (34) 
1

$$$$

     RDKit          3D

 59 62  0  0  0  0  0  0  0  0999 V2000
  140.3150   72.3570  220.6920 O   0  0  0  0  0  0  0  0  0  0  0  0
  139.9590   72.7340  221.8460 C   0  0  0  0  0  0  0  0  0  0  0  0
  139.4980   74.0760  221.9580 N   0  0  0  0  0  0  0  0  0  0  0  0
  139.4410   74.9580  220.8110 C   0  0  0  0  0  0  0  0  0  0  0  0
  138.1850   75.7500  220.7860 C   0  0  0  0  0  0  0  0  0  0  0  0
  137.4510   75.7520  219.7620 O   0  0  0  0  0  0  0  0  0  0  0  0
  137.8600   76.4890  221.9560 N   0  0  0  0  0  0  0  0  0  0  0  0
  137.0120   75.9730  223.0140 C   0  0  0  0  0  0  0  0  0  0  0  0
  135.8440   76.8860  223.2930 C   0  0  0  0  0  0  0  0  0  0  0  0
  136.1500   78.3270  223.0780 C   0  0  0  0  0  0  0  0  0  0  0  0
  137.6090   78.6660  223.0520 C   0  0  0  0  0  0  0  0  0  0  0  0
  138.4090   77.8250  222.0960 C   0  0  1  0  0  0  0  0  0  0  0  0
  139.7940   77.6560  222.6810 C   0  0  0  0  0  0  0  0  0  0  0  0
  140.4970   78.9430  222.7980 N   0  0  0  0  0  0  0  0  0  0  0  0
  141.7560   78.7680  223.5000 C   0  0  0  0  0  0  0  0  0  0  0  0
  142.2670   80.1410  223.8940 C   0  0  0  0  0  0  0  0  0  0  0  0
  142.1120   81.1290  222.7500 C   0  0  0  0  0  0  0  0  0  0  0  0
  141.9760   80.3070  221.4840 C   0  0  0  0  0  0  0  0  0  0  0  0
  140.6660   79.5630  221.5180 C   0  0  0  0  0  0  0  0  0  0  0  0
  140.0110   71.8540  223.0130 C   0  0  0  0  0  0  0  0  0  0  0  0
  139.5050   70.5760  222.8810 C   0  0  0  0  0  0  0  0  0  0  0  0
  139.5060   69.6710  223.9180 C   0  0  0  0  0  0  0  0  0  0  0  0
  140.0390   70.0820  225.1220 C   0  0  0  0  0  0  0  0  0  0  0  0
  140.0590   69.2060  226.1840 C   0  0  0  0  0  0  0  0  0  0  0  0
  140.5870   69.5940  227.3960 C   0  0  0  0  0  0  0  0  0  0  0  0
  140.6010   68.4650  228.7280 Cl  0  0  0  0  0  0  0  0  0  0  0  0
  141.0880   70.8760  227.5060 C   0  0  0  0  0  0  0  0  0  0  0  0
  141.0690   71.7560  226.4440 C   0  0  0  0  0  0  0  0  0  0  0  0
  140.5400   71.3700  225.2260 C   0  0  0  0  0  0  0  0  0  0  0  0
  140.5270   72.2360  224.1950 N   0  0  0  0  0  0  0  0  0  0  0  0
  139.1960   74.4030  222.9240 H   0  0  0  0  0  0  0  0  0  0  0  0
  140.2965   75.6484  220.8499 H   0  0  0  0  0  0  0  0  0  0  0  0
  139.4731   74.3393  219.9021 H   0  0  0  0  0  0  0  0  0  0  0  0
  136.6288   74.9866  222.7137 H   0  0  0  0  0  0  0  0  0  0  0  0
  137.6156   75.9010  223.9308 H   0  0  0  0  0  0  0  0  0  0  0  0
  135.0149   76.6034  222.6276 H   0  0  0  0  0  0  0  0  0  0  0  0
  135.5868   76.7657  224.3557 H   0  0  0  0  0  0  0  0  0  0  0  0
  135.7120   78.6292  222.1153 H   0  0  0  0  0  0  0  0  0  0  0  0
  135.7243   78.8640  223.9384 H   0  0  0  0  0  0  0  0  0  0  0  0
  137.7151   79.7209  222.7588 H   0  0  0  0  0  0  0  0  0  0  0  0
  138.0025   78.4685  224.0600 H   0  0  0  0  0  0  0  0  0  0  0  0
  138.4036   78.3254  221.1164 H   0  0  0  0  0  0  0  0  0  0  0  0
  139.7060   77.2059  223.6808 H   0  0  0  0  0  0  0  0  0  0  0  0
  140.3741   77.0090  222.0066 H   0  0  0  0  0  0  0  0  0  0  0  0
  141.5997   78.1553  224.4001 H   0  0  0  0  0  0  0  0  0  0  0  0
  142.4865   78.2589  222.8541 H   0  0  0  0  0  0  0  0  0  0  0  0
  141.6950   80.5024  224.7613 H   0  0  0  0  0  0  0  0  0  0  0  0
  143.3351   80.0589  224.1437 H   0  0  0  0  0  0  0  0  0  0  0  0
  141.2138   81.7460  222.9003 H   0  0  0  0  0  0  0  0  0  0  0  0
  142.9759   81.8075  222.6918 H   0  0  0  0  0  0  0  0  0  0  0  0
  141.9991   80.9724  220.6084 H   0  0  0  0  0  0  0  0  0  0  0  0
  142.8077   79.5903  221.4161 H   0  0  0  0  0  0  0  0  0  0  0  0
  139.8403   80.2679  221.3411 H   0  0  0  0  0  0  0  0  0  0  0  0
  140.6653   78.7900  220.7354 H   0  0  0  0  0  0  0  0  0  0  0  0
  139.0856   70.2699  221.9112 H   0  0  0  0  0  0  0  0  0  0  0  0
  139.0970   68.6578  223.7913 H   0  0  0  0  0  0  0  0  0  0  0  0
  139.6514   68.1913  226.0643 H   0  0  0  0  0  0  0  0  0  0  0  0
  141.5135   71.2042  228.4658 H   0  0  0  0  0  0  0  0  0  0  0  0
  141.4768   72.7702  226.5666 H   0  0  0  0  0  0  0  0  0  0  0  0
  1  2  2  0
  2  3  1  0
  3  4  1  0
  4  5  1  0
  5  6  2  0
  5  7  1  0
  7  8  1  0
  8  9  1  0
  9 10  1  0
 10 11  1  0
 11 12  1  0
 12 13  1  0
 13 14  1  0
 14 15  1  0
 15 16  1  0
 16 17  1  0
 17 18  1  0
 18 19  1  0
  2 20  1  0
 20 21  2  0
 21 22  1  0
 22 23  2  0
 23 24  1  0
 24 25  2  0
 25 26  1  0
 25 27  1  0
 27 28  2  0
 28 29  1  0
 29 30  2  0
 12  7  1  0
 19 14  1  0
 30 20  1  0
 29 23  1  0
  3 31  1  0
  4 32  1  0
  4 33  1  0
  8 34  1  0
  8 35  1  0
  9 36  1  0
  9 37  1  0
 10 38  1  0
 10 39  1  0
 11 40  1  0
 11 41  1  0
 12 42  1  6
 13 43  1  0
 13 44  1  0
 15 45  1  0
 15 46  1  0
 16 47  1  0
 16 48  1  0
 17 49  1  0
 17 50  1  0
 18 51  1  0
 18 52  1  0
 19 53  1  0
 19 54  1  0
 21 55  1  0
 22 56  1  0
 24 57  1  0
 27 58  1  0
 28 59  1  0
M  END
>  <smiles>  (35) 
O=C(NCC(=O)N1CCCC[C@H]1CN1CCCCC1)c1ccc2cc(Cl)ccc2n1

>  <score_type>  (35) 
oracle

>  <origin>  (35) 
autodockgpu

>  <m_score__min__energy>  (35) 
-8.6699999999999999

>  <m_primary>  (35) 
energy

>  <rmsd>  (35) 
3.482602402891024

>  <m_score__min__rmsd>  (35) 
3.482602402891024

>  <meeko>  (35) 
{"free_energy": -8.21, "intermolecular_energy": -10.0, "internal_energy": -1.52, "cluster_size": 34, "cluster_id": 1, "rank_in_cluster": 19}

>  <energy>  (35) 
-7.94

>  <cluster_rmsd>  (35) 
0.0

>  <cluster>  (35) 
2

$$$$

     RDKit          3D

 59 62  0  0  0  0  0  0  0  0999 V2000
  139.2130   71.6710  220.8940 O   0  0  0  0  0  0  0  0  0  0  0  0
  139.4180   72.1500  222.0470 C   0  0  0  0  0  0  0  0  0  0  0  0
  139.4190   73.5700  222.1480 N   0  0  0  0  0  0  0  0  0  0  0  0
  139.1980   74.4150  220.9930 C   0  0  0  0  0  0  0  0  0  0  0  0
  140.4600   75.0340  220.5140 C   0  0  0  0  0  0  0  0  0  0  0  0
  141.5090   74.3460  220.4060 O   0  0  0  0  0  0  0  0  0  0  0  0
  140.4210   76.4180  220.1890 N   0  0  0  0  0  0  0  0  0  0  0  0
  139.3700   77.0180  219.3900 C   0  0  0  0  0  0  0  0  0  0  0  0
  139.9240   77.7510  218.1930 C   0  0  0  0  0  0  0  0  0  0  0  0
  141.2600   78.3620  218.4340 C   0  0  0  0  0  0  0  0  0  0  0  0
  141.6270   78.5270  219.8780 C   0  0  0  0  0  0  0  0  0  0  0  0
  141.4870   77.2680  220.6860 C   0  0  1  0  0  0  0  0  0  0  0  0
  141.0920   77.6660  222.0920 C   0  0  0  0  0  0  0  0  0  0  0  0
  141.3330   79.0950  222.3420 N   0  0  0  0  0  0  0  0  0  0  0  0
  140.3020   79.6380  223.2080 C   0  0  0  0  0  0  0  0  0  0  0  0
  140.3930   81.1510  223.1550 C   0  0  0  0  0  0  0  0  0  0  0  0
  141.8390   81.6120  223.2360 C   0  0  0  0  0  0  0  0  0  0  0  0
  142.6260   80.4640  223.8340 C   0  0  0  0  0  0  0  0  0  0  0  0
  142.6520   79.3210  222.8540 C   0  0  0  0  0  0  0  0  0  0  0  0
  139.6420   71.3090  223.2220 C   0  0  0  0  0  0  0  0  0  0  0  0
  139.2960   69.9760  223.1380 C   0  0  0  0  0  0  0  0  0  0  0  0
  139.4660   69.1010  224.1870 C   0  0  0  0  0  0  0  0  0  0  0  0
  140.0070   69.6020  225.3530 C   0  0  0  0  0  0  0  0  0  0  0  0
  140.1930   68.7580  226.4250 C   0  0  0  0  0  0  0  0  0  0  0  0
  140.7320   69.2360  227.6000 C   0  0  0  0  0  0  0  0  0  0  0  0
  140.9600   68.1470  228.9460 Cl  0  0  0  0  0  0  0  0  0  0  0  0
  141.0720   70.5720  227.6630 C   0  0  0  0  0  0  0  0  0  0  0  0
  140.8860   71.4200  226.5890 C   0  0  0  0  0  0  0  0  0  0  0  0
  140.3460   70.9440  225.4090 C   0  0  0  0  0  0  0  0  0  0  0  0
  140.1680   71.7790  224.3670 N   0  0  0  0  0  0  0  0  0  0  0  0
  139.5910   73.9840  223.1130 H   0  0  0  0  0  0  0  0  0  0  0  0
  138.7700   73.8062  220.1829 H   0  0  0  0  0  0  0  0  0  0  0  0
  138.5105   75.2222  221.2859 H   0  0  0  0  0  0  0  0  0  0  0  0
  138.6927   76.2252  219.0397 H   0  0  0  0  0  0  0  0  0  0  0  0
  138.8360   77.7455  220.0189 H   0  0  0  0  0  0  0  0  0  0  0  0
  140.0126   77.0387  217.3595 H   0  0  0  0  0  0  0  0  0  0  0  0
  139.2290   78.5735  217.9684 H   0  0  0  0  0  0  0  0  0  0  0  0
  142.0189   77.7226  217.9594 H   0  0  0  0  0  0  0  0  0  0  0  0
  141.2171   79.3755  218.0087 H   0  0  0  0  0  0  0  0  0  0  0  0
  142.6737   78.8607  219.9341 H   0  0  0  0  0  0  0  0  0  0  0  0
  140.9281   79.2614  220.3047 H   0  0  0  0  0  0  0  0  0  0  0  0
  142.4413   76.7232  220.6346 H   0  0  0  0  0  0  0  0  0  0  0  0
  140.0219   77.4549  222.2347 H   0  0  0  0  0  0  0  0  0  0  0  0
  141.7062   77.0867  222.7971 H   0  0  0  0  0  0  0  0  0  0  0  0
  139.3113   79.3113  222.8589 H   0  0  0  0  0  0  0  0  0  0  0  0
  140.4438   79.2830  224.2394 H   0  0  0  0  0  0  0  0  0  0  0  0
  139.9548   81.5050  222.2102 H   0  0  0  0  0  0  0  0  0  0  0  0
  139.8440   81.5657  224.0132 H   0  0  0  0  0  0  0  0  0  0  0  0
  142.2185   81.8497  222.2313 H   0  0  0  0  0  0  0  0  0  0  0  0
  141.9323   82.5197  223.8503 H   0  0  0  0  0  0  0  0  0  0  0  0
  143.6546   80.7925  224.0441 H   0  0  0  0  0  0  0  0  0  0  0  0
  142.1514   80.1378  224.7712 H   0  0  0  0  0  0  0  0  0  0  0  0
  143.3298   79.5668  222.0232 H   0  0  0  0  0  0  0  0  0  0  0  0
  143.0064   78.4124  223.3628 H   0  0  0  0  0  0  0  0  0  0  0  0
  138.8683   69.5983  222.1976 H   0  0  0  0  0  0  0  0  0  0  0  0
  139.1812   68.0422  224.0989 H   0  0  0  0  0  0  0  0  0  0  0  0
  139.9103   67.6981  226.3433 H   0  0  0  0  0  0  0  0  0  0  0  0
  141.5024   70.9719  228.5930 H   0  0  0  0  0  0  0  0  0  0  0  0
  141.1690   72.4796  226.6730 H   0  0  0  0  0  0  0  0  0  0  0  0
  1  2  2  0
  2  3  1  0
  3  4  1  0
  4  5  1  0
  5  6  2  0
  5  7  1  0
  7  8  1  0
  8  9  1  0
  9 10  1  0
 10 11  1  0
 11 12  1  0
 12 13  1  0
 13 14  1  0
 14 15  1  0
 15 16  1  0
 16 17  1  0
 17 18  1  0
 18 19  1  0
  2 20  1  0
 20 21  2  0
 21 22  1  0
 22 23  2  0
 23 24  1  0
 24 25  2  0
 25 26  1  0
 25 27  1  0
 27 28  2  0
 28 29  1  0
 29 30  2  0
 12  7  1  0
 19 14  1  0
 30 20  1  0
 29 23  1  0
  3 31  1  0
  4 32  1  0
  4 33  1  0
  8 34  1  0
  8 35  1  0
  9 36  1  0
  9 37  1  0
 10 38  1  0
 10 39  1  0
 11 40  1  0
 11 41  1  0
 12 42  1  1
 13 43  1  0
 13 44  1  0
 15 45  1  0
 15 46  1  0
 16 47  1  0
 16 48  1  0
 17 49  1  0
 17 50  1  0
 18 51  1  0
 18 52  1  0
 19 53  1  0
 19 54  1  0
 21 55  1  0
 22 56  1  0
 24 57  1  0
 27 58  1  0
 28 59  1  0
M  END
>  <smiles>  (36) 
O=C(NCC(=O)N1CCCC[C@H]1CN1CCCCC1)c1ccc2cc(Cl)ccc2n1

>  <score_type>  (36) 
oracle

>  <origin>  (36) 
autodockgpu

>  <m_score__min__energy>  (36) 
-8.6699999999999999

>  <m_primary>  (36) 
energy

>  <rmsd>  (36) 
2.1043693633667546

>  <m_score__min__rmsd>  (36) 
2.1043693633667546

>  <meeko>  (36) 
{"free_energy": -8.2, "intermolecular_energy": -9.99, "internal_energy": -1.57, "cluster_size": 34, "cluster_id": 1, "rank_in_cluster": 20}

>  <energy>  (36) 
-7.89

>  <cluster_rmsd>  (36) 
0.58

>  <cluster>  (36) 
2

$$$$

     RDKit          3D

 59 62  0  0  0  0  0  0  0  0999 V2000
  139.2410   71.8510  220.7290 O   0  0  0  0  0  0  0  0  0  0  0  0
  139.0260   72.2240  221.9190 C   0  0  0  0  0  0  0  0  0  0  0  0
  138.4620   73.5200  222.0820 N   0  0  0  0  0  0  0  0  0  0  0  0
  138.1530   74.3630  220.9460 C   0  0  0  0  0  0  0  0  0  0  0  0
  139.1110   75.4910  220.8190 C   0  0  0  0  0  0  0  0  0  0  0  0
  138.8010   76.6420  221.2260 O   0  0  0  0  0  0  0  0  0  0  0  0
  140.3730   75.2080  220.2270 N   0  0  0  0  0  0  0  0  0  0  0  0
  140.5320   74.3540  219.0660 C   0  0  0  0  0  0  0  0  0  0  0  0
  141.4960   73.2240  219.3280 C   0  0  0  0  0  0  0  0  0  0  0  0
  142.5890   73.5810  220.2750 C   0  0  0  0  0  0  0  0  0  0  0  0
  142.8060   75.0510  220.4630 C   0  0  0  0  0  0  0  0  0  0  0  0
  141.5550   75.8070  220.8160 C   0  0  1  0  0  0  0  0  0  0  0  0
  141.6720   77.1930  220.2170 C   0  0  0  0  0  0  0  0  0  0  0  0
  141.1410   78.2240  221.1210 N   0  0  0  0  0  0  0  0  0  0  0  0
  141.1810   77.7590  222.4960 C   0  0  0  0  0  0  0  0  0  0  0  0
  140.3240   78.6900  223.3310 C   0  0  0  0  0  0  0  0  0  0  0  0
  140.5810   80.1420  222.9640 C   0  0  0  0  0  0  0  0  0  0  0  0
  141.9280   80.1810  222.2720 C   0  0  0  0  0  0  0  0  0  0  0  0
  141.8220   79.4720  220.9460 C   0  0  0  0  0  0  0  0  0  0  0  0
  139.3320   71.3830  223.0760 C   0  0  0  0  0  0  0  0  0  0  0  0
  138.9630   70.0540  223.0240 C   0  0  0  0  0  0  0  0  0  0  0  0
  139.2050   69.1790  224.0600 C   0  0  0  0  0  0  0  0  0  0  0  0
  139.8430   69.6760  225.1770 C   0  0  0  0  0  0  0  0  0  0  0  0
  140.1040   68.8330  226.2340 C   0  0  0  0  0  0  0  0  0  0  0  0
  140.7410   69.3070  227.3600 C   0  0  0  0  0  0  0  0  0  0  0  0
  141.0610   68.2190  228.6880 Cl  0  0  0  0  0  0  0  0  0  0  0  0
  141.1020   70.6390  227.3910 C   0  0  0  0  0  0  0  0  0  0  0  0
  140.8420   71.4860  226.3330 C   0  0  0  0  0  0  0  0  0  0  0  0
  140.2030   71.0140  225.2010 C   0  0  0  0  0  0  0  0  0  0  0  0
  139.9540   71.8480  224.1740 N   0  0  0  0  0  0  0  0  0  0  0  0
  138.2780   73.8440  223.0780 H   0  0  0  0  0  0  0  0  0  0  0  0
  138.1950   73.7554  220.0300 H   0  0  0  0  0  0  0  0  0  0  0  0
  137.1477   74.7836  221.0959 H   0  0  0  0  0  0  0  0  0  0  0  0
  139.5524   73.9312  218.7985 H   0  0  0  0  0  0  0  0  0  0  0  0
  140.9370   74.9649  218.2458 H   0  0  0  0  0  0  0  0  0  0  0  0
  140.9336   72.3775  219.7490 H   0  0  0  0  0  0  0  0  0  0  0  0
  141.9699   72.9745  218.3672 H   0  0  0  0  0  0  0  0  0  0  0  0
  142.3485   73.1431  221.2550 H   0  0  0  0  0  0  0  0  0  0  0  0
  143.5175   73.1858  219.8372 H   0  0  0  0  0  0  0  0  0  0  0  0
  143.5376   75.1933  221.2721 H   0  0  0  0  0  0  0  0  0  0  0  0
  143.1611   75.4489  219.5009 H   0  0  0  0  0  0  0  0  0  0  0  0
  141.4555   75.8077  221.9115 H   0  0  0  0  0  0  0  0  0  0  0  0
  142.7324   77.4063  220.0171 H   0  0  0  0  0  0  0  0  0  0  0  0
  141.0828   77.2155  219.2883 H   0  0  0  0  0  0  0  0  0  0  0  0
  140.7855   76.7342  222.5551 H   0  0  0  0  0  0  0  0  0  0  0  0
  142.2161   77.7560  222.8682 H   0  0  0  0  0  0  0  0  0  0  0  0
  139.2634   78.4569  223.1556 H   0  0  0  0  0  0  0  0  0  0  0  0
  140.5799   78.5457  224.3910 H   0  0  0  0  0  0  0  0  0  0  0  0
  139.7953   80.5071  222.2862 H   0  0  0  0  0  0  0  0  0  0  0  0
  140.5748   80.7842  223.8570 H   0  0  0  0  0  0  0  0  0  0  0  0
  142.2276   81.2266  222.1077 H   0  0  0  0  0  0  0  0  0  0  0  0
  142.6816   79.6826  222.8995 H   0  0  0  0  0  0  0  0  0  0  0  0
  141.2597   80.0998  220.2392 H   0  0  0  0  0  0  0  0  0  0  0  0
  142.8312   79.2849  220.5503 H   0  0  0  0  0  0  0  0  0  0  0  0
  138.4569   69.6797  222.1219 H   0  0  0  0  0  0  0  0  0  0  0  0
  138.9008   68.1237  223.9986 H   0  0  0  0  0  0  0  0  0  0  0  0
  139.8026   67.7765  226.1792 H   0  0  0  0  0  0  0  0  0  0  0  0
  141.6102   71.0356  228.2823 H   0  0  0  0  0  0  0  0  0  0  0  0
  141.1446   72.5420  226.3903 H   0  0  0  0  0  0  0  0  0  0  0  0
  1  2  2  0
  2  3  1  0
  3  4  1  0
  4  5  1  0
  5  6  2  0
  5  7  1  0
  7  8  1  0
  8  9  1  0
  9 10  1  0
 10 11  1  0
 11 12  1  0
 12 13  1  0
 13 14  1  0
 14 15  1  0
 15 16  1  0
 16 17  1  0
 17 18  1  0
 18 19  1  0
  2 20  1  0
 20 21  2  0
 21 22  1  0
 22 23  2  0
 23 24  1  0
 24 25  2  0
 25 26  1  0
 25 27  1  0
 27 28  2  0
 28 29  1  0
 29 30  2  0
 12  7  1  0
 19 14  1  0
 30 20  1  0
 29 23  1  0
  3 31  1  0
  4 32  1  0
  4 33  1  0
  8 34  1  0
  8 35  1  0
  9 36  1  0
  9 37  1  0
 10 38  1  0
 10 39  1  0
 11 40  1  0
 11 41  1  0
 12 42  1  1
 13 43  1  0
 13 44  1  0
 15 45  1  0
 15 46  1  0
 16 47  1  0
 16 48  1  0
 17 49  1  0
 17 50  1  0
 18 51  1  0
 18 52  1  0
 19 53  1  0
 19 54  1  0
 21 55  1  0
 22 56  1  0
 24 57  1  0
 27 58  1  0
 28 59  1  0
M  END
>  <smiles>  (37) 
O=C(NCC(=O)N1CCCC[C@H]1CN1CCCCC1)c1ccc2cc(Cl)ccc2n1

>  <score_type>  (37) 
oracle

>  <origin>  (37) 
autodockgpu

>  <m_score__min__energy>  (37) 
-8.6699999999999999

>  <m_primary>  (37) 
energy

>  <rmsd>  (37) 
2.134145858973161

>  <m_score__min__rmsd>  (37) 
2.134145858973161

>  <meeko>  (37) 
{"free_energy": -7.64, "intermolecular_energy": -9.43, "internal_energy": -1.94, "cluster_size": 34, "cluster_id": 1, "rank_in_cluster": 33}

>  <energy>  (37) 
-7.76

>  <cluster_rmsd>  (37) 
0.6

>  <cluster>  (37) 
2

$$$$

     RDKit          3D

 59 62  0  0  0  0  0  0  0  0999 V2000
  140.1120   72.3990  220.7530 O   0  0  0  0  0  0  0  0  0  0  0  0
  139.9410   72.7880  221.9440 C   0  0  0  0  0  0  0  0  0  0  0  0
  139.6680   74.1730  222.1220 N   0  0  0  0  0  0  0  0  0  0  0  0
  139.5930   75.0840  220.9990 C   0  0  0  0  0  0  0  0  0  0  0  0
  138.3290   75.8650  221.0060 C   0  0  0  0  0  0  0  0  0  0  0  0
  137.2520   75.3400  220.6190 O   0  0  0  0  0  0  0  0  0  0  0  0
  138.4000   77.2090  221.4650 N   0  0  0  0  0  0  0  0  0  0  0  0
  137.9620   77.6220  222.7840 C   0  0  0  0  0  0  0  0  0  0  0  0
  136.9360   78.7270  222.7150 C   0  0  0  0  0  0  0  0  0  0  0  0
  137.1270   79.6450  221.5580 C   0  0  0  0  0  0  0  0  0  0  0  0
  138.4870   79.5980  220.9320 C   0  0  0  0  0  0  0  0  0  0  0  0
  138.9380   78.2120  220.5660 C   0  0  1  0  0  0  0  0  0  0  0  0
  140.4430   78.1610  220.7250 C   0  0  0  0  0  0  0  0  0  0  0  0
  140.9010   79.0020  221.8420 N   0  0  0  0  0  0  0  0  0  0  0  0
  141.3800   78.1750  222.9340 C   0  0  0  0  0  0  0  0  0  0  0  0
  141.5110   79.0520  224.1640 C   0  0  0  0  0  0  0  0  0  0  0  0
  142.1580   80.3820  223.8170 C   0  0  0  0  0  0  0  0  0  0  0  0
  142.8880   80.1790  222.5050 C   0  0  0  0  0  0  0  0  0  0  0  0
  141.8780   79.9560  221.4090 C   0  0  0  0  0  0  0  0  0  0  0  0
  140.0130   71.8790  223.0880 C   0  0  0  0  0  0  0  0  0  0  0  0
  139.5630   70.5860  222.9150 C   0  0  0  0  0  0  0  0  0  0  0  0
  139.5880   69.6530  223.9270 C   0  0  0  0  0  0  0  0  0  0  0  0
  140.0870   70.0530  225.1490 C   0  0  0  0  0  0  0  0  0  0  0  0
  140.1290   69.1500  226.1880 C   0  0  0  0  0  0  0  0  0  0  0  0
  140.6240   69.5270  227.4170 C   0  0  0  0  0  0  0  0  0  0  0  0
  140.6680   68.3630  228.7190 Cl  0  0  0  0  0  0  0  0  0  0  0  0
  141.0690   70.8240  227.5680 C   0  0  0  0  0  0  0  0  0  0  0  0
  141.0280   71.7320  226.5290 C   0  0  0  0  0  0  0  0  0  0  0  0
  140.5320   71.3570  225.2950 C   0  0  0  0  0  0  0  0  0  0  0  0
  140.4970   72.2500  224.2860 N   0  0  0  0  0  0  0  0  0  0  0  0
  139.5220   74.5110  223.1200 H   0  0  0  0  0  0  0  0  0  0  0  0
  140.4426   75.7810  221.0485 H   0  0  0  0  0  0  0  0  0  0  0  0
  139.6228   74.4897  220.0738 H   0  0  0  0  0  0  0  0  0  0  0  0
  137.5190   76.7568  223.2989 H   0  0  0  0  0  0  0  0  0  0  0  0
  138.8374   78.0027  223.3307 H   0  0  0  0  0  0  0  0  0  0  0  0
  135.9381   78.2709  222.6363 H   0  0  0  0  0  0  0  0  0  0  0  0
  137.0488   79.3301  223.6280 H   0  0  0  0  0  0  0  0  0  0  0  0
  136.3872   79.3819  220.7876 H   0  0  0  0  0  0  0  0  0  0  0  0
  137.0038   80.6651  221.9506 H   0  0  0  0  0  0  0  0  0  0  0  0
  138.4695   80.2098  220.0180 H   0  0  0  0  0  0  0  0  0  0  0  0
  139.1976   79.9794  221.6800 H   0  0  0  0  0  0  0  0  0  0  0  0
  138.5964   78.0035  219.5414 H   0  0  0  0  0  0  0  0  0  0  0  0
  140.7464   77.1208  220.9143 H   0  0  0  0  0  0  0  0  0  0  0  0
  140.8987   78.5424  219.7993 H   0  0  0  0  0  0  0  0  0  0  0  0
  140.6640   77.3630  223.1291 H   0  0  0  0  0  0  0  0  0  0  0  0
  142.3524   77.7292  222.6774 H   0  0  0  0  0  0  0  0  0  0  0  0
  140.5106   79.2368  224.5824 H   0  0  0  0  0  0  0  0  0  0  0  0
  142.1457   78.5341  224.8981 H   0  0  0  0  0  0  0  0  0  0  0  0
  141.3891   81.1609  223.7069 H   0  0  0  0  0  0  0  0  0  0  0  0
  142.8489   80.7058  224.6094 H   0  0  0  0  0  0  0  0  0  0  0  0
  143.4893   81.0712  222.2760 H   0  0  0  0  0  0  0  0  0  0  0  0
  143.5517   79.3051  222.5812 H   0  0  0  0  0  0  0  0  0  0  0  0
  141.3800   80.9075  221.1710 H   0  0  0  0  0  0  0  0  0  0  0  0
  142.3896   79.5738  220.5133 H   0  0  0  0  0  0  0  0  0  0  0  0
  139.1695   70.2896  221.9315 H   0  0  0  0  0  0  0  0  0  0  0  0
  139.2238   68.6274  223.7671 H   0  0  0  0  0  0  0  0  0  0  0  0
  139.7656   68.1230  226.0358 H   0  0  0  0  0  0  0  0  0  0  0  0
  141.4672   71.1432  228.5424 H   0  0  0  0  0  0  0  0  0  0  0  0
  141.3917   72.7585  226.6841 H   0  0  0  0  0  0  0  0  0  0  0  0
  1  2  2  0
  2  3  1  0
  3  4  1  0
  4  5  1  0
  5  6  2  0
  5  7  1  0
  7  8  1  0
  8  9  1  0
  9 10  1  0
 10 11  1  0
 11 12  1  0
 12 13  1  0
 13 14  1  0
 14 15  1  0
 15 16  1  0
 16 17  1  0
 17 18  1  0
 18 19  1  0
  2 20  1  0
 20 21  2  0
 21 22  1  0
 22 23  2  0
 23 24  1  0
 24 25  2  0
 25 26  1  0
 25 27  1  0
 27 28  2  0
 28 29  1  0
 29 30  2  0
 12  7  1  0
 19 14  1  0
 30 20  1  0
 29 23  1  0
  3 31  1  0
  4 32  1  0
  4 33  1  0
  8 34  1  0
  8 35  1  0
  9 36  1  0
  9 37  1  0
 10 38  1  0
 10 39  1  0
 11 40  1  0
 11 41  1  0
 12 42  1  6
 13 43  1  0
 13 44  1  0
 15 45  1  0
 15 46  1  0
 16 47  1  0
 16 48  1  0
 17 49  1  0
 17 50  1  0
 18 51  1  0
 18 52  1  0
 19 53  1  0
 19 54  1  0
 21 55  1  0
 22 56  1  0
 24 57  1  0
 27 58  1  0
 28 59  1  0
M  END
>  <smiles>  (38) 
O=C(NCC(=O)N1CCCC[C@H]1CN1CCCCC1)c1ccc2cc(Cl)ccc2n1

>  <score_type>  (38) 
oracle

>  <origin>  (38) 
autodockgpu

>  <m_score__min__energy>  (38) 
-8.6699999999999999

>  <m_primary>  (38) 
energy

>  <rmsd>  (38) 
3.308774121417437

>  <m_score__min__rmsd>  (38) 
3.308774121417437

>  <meeko>  (38) 
{"free_energy": -7.88, "intermolecular_energy": -9.67, "internal_energy": -1.73, "cluster_size": 34, "cluster_id": 1, "rank_in_cluster": 24}

>  <energy>  (38) 
-7.62

>  <cluster_rmsd>  (38) 
1.9

>  <cluster>  (38) 
2

$$$$

     RDKit          3D

 59 62  0  0  0  0  0  0  0  0999 V2000
  139.8970   72.3110  220.6850 O   0  0  0  0  0  0  0  0  0  0  0  0
  139.5480   72.6390  221.8560 C   0  0  0  0  0  0  0  0  0  0  0  0
  138.9410   73.9190  221.9970 N   0  0  0  0  0  0  0  0  0  0  0  0
  138.7370   74.7940  220.8620 C   0  0  0  0  0  0  0  0  0  0  0  0
  138.6110   76.2140  221.2760 C   0  0  0  0  0  0  0  0  0  0  0  0
  137.6200   76.5980  221.9520 O   0  0  0  0  0  0  0  0  0  0  0  0
  139.6490   77.1010  220.8770 N   0  0  0  0  0  0  0  0  0  0  0  0
  139.4250   78.2590  220.0350 C   0  0  0  0  0  0  0  0  0  0  0  0
  140.3010   78.2390  218.8070 C   0  0  0  0  0  0  0  0  0  0  0  0
  141.6260   77.5970  219.0310 C   0  0  0  0  0  0  0  0  0  0  0  0
  142.0350   77.4780  220.4680 C   0  0  0  0  0  0  0  0  0  0  0  0
  140.9970   76.8290  221.3410 C   0  0  1  0  0  0  0  0  0  0  0  0
  141.1040   77.4470  222.7190 C   0  0  0  0  0  0  0  0  0  0  0  0
  141.2270   78.9110  222.6510 N   0  0  0  0  0  0  0  0  0  0  0  0
  140.1760   79.5430  223.4280 C   0  0  0  0  0  0  0  0  0  0  0  0
  140.1340   81.0110  223.0530 C   0  0  0  0  0  0  0  0  0  0  0  0
  141.5360   81.5930  222.9720 C   0  0  0  0  0  0  0  0  0  0  0  0
  142.4340   80.6650  223.7650 C   0  0  0  0  0  0  0  0  0  0  0  0
  142.5340   79.3440  223.0470 C   0  0  0  0  0  0  0  0  0  0  0  0
  139.7480   71.7660  223.0110 C   0  0  0  0  0  0  0  0  0  0  0  0
  139.4020   70.4360  222.8840 C   0  0  0  0  0  0  0  0  0  0  0  0
  139.5500   69.5320  223.9110 C   0  0  0  0  0  0  0  0  0  0  0  0
  140.0680   70.0000  225.1010 C   0  0  0  0  0  0  0  0  0  0  0  0
  140.2320   69.1270  226.1540 C   0  0  0  0  0  0  0  0  0  0  0  0
  140.7470   69.5720  227.3520 C   0  0  0  0  0  0  0  0  0  0  0  0
  140.9470   68.4460  228.6720 Cl  0  0  0  0  0  0  0  0  0  0  0  0
  141.0870   70.9050  227.4580 C   0  0  0  0  0  0  0  0  0  0  0  0
  140.9230   71.7820  226.4050 C   0  0  0  0  0  0  0  0  0  0  0  0
  140.4070   71.3390  225.2020 C   0  0  0  0  0  0  0  0  0  0  0  0
  140.2510   72.2030  224.1800 N   0  0  0  0  0  0  0  0  0  0  0  0
  138.6440   74.2050  222.9780 H   0  0  0  0  0  0  0  0  0  0  0  0
  139.5939   74.6970  220.1791 H   0  0  0  0  0  0  0  0  0  0  0  0
  137.8007   74.4981  220.3662 H   0  0  0  0  0  0  0  0  0  0  0  0
  138.3711   78.2712  219.7200 H   0  0  0  0  0  0  0  0  0  0  0  0
  139.6750   79.1579  220.6177 H   0  0  0  0  0  0  0  0  0  0  0  0
  139.7760   77.6859  218.0142 H   0  0  0  0  0  0  0  0  0  0  0  0
  140.4923   79.2862  218.5298 H   0  0  0  0  0  0  0  0  0  0  0  0
  141.5926   76.5853  218.6004 H   0  0  0  0  0  0  0  0  0  0  0  0
  142.3701   78.2501  218.5517 H   0  0  0  0  0  0  0  0  0  0  0  0
  142.9554   76.8778  220.5184 H   0  0  0  0  0  0  0  0  0  0  0  0
  142.1791   78.5007  220.8466 H   0  0  0  0  0  0  0  0  0  0  0  0
  141.1743   75.7434  221.3306 H   0  0  0  0  0  0  0  0  0  0  0  0
  140.2025   77.1915  223.2952 H   0  0  0  0  0  0  0  0  0  0  0  0
  142.0078   77.0493  223.2037 H   0  0  0  0  0  0  0  0  0  0  0  0
  139.2085   79.0717  223.2001 H   0  0  0  0  0  0  0  0  0  0  0  0
  140.3752   79.4291  224.5038 H   0  0  0  0  0  0  0  0  0  0  0  0
  139.6429   81.1184  222.0746 H   0  0  0  0  0  0  0  0  0  0  0  0
  139.5731   81.5546  223.8275 H   0  0  0  0  0  0  0  0  0  0  0  0
  141.8681   81.6396  221.9244 H   0  0  0  0  0  0  0  0  0  0  0  0
  141.5658   82.6159  223.3754 H   0  0  0  0  0  0  0  0  0  0  0  0
  143.4353   81.1110  223.8571 H   0  0  0  0  0  0  0  0  0  0  0  0
  142.0129   80.5102  224.7694 H   0  0  0  0  0  0  0  0  0  0  0  0
  143.1671   79.4594  222.1549 H   0  0  0  0  0  0  0  0  0  0  0  0
  142.9780   78.5956  223.7199 H   0  0  0  0  0  0  0  0  0  0  0  0
  138.9923   70.0852  221.9253 H   0  0  0  0  0  0  0  0  0  0  0  0
  139.2661   68.4764  223.7878 H   0  0  0  0  0  0  0  0  0  0  0  0
  139.9505   68.0700  226.0379 H   0  0  0  0  0  0  0  0  0  0  0  0
  141.4997   71.2786  228.4068 H   0  0  0  0  0  0  0  0  0  0  0  0
  141.2044   72.8387  226.5239 H   0  0  0  0  0  0  0  0  0  0  0  0
  1  2  2  0
  2  3  1  0
  3  4  1  0
  4  5  1  0
  5  6  2  0
  5  7  1  0
  7  8  1  0
  8  9  1  0
  9 10  1  0
 10 11  1  0
 11 12  1  0
 12 13  1  0
 13 14  1  0
 14 15  1  0
 15 16  1  0
 16 17  1  0
 17 18  1  0
 18 19  1  0
  2 20  1  0
 20 21  2  0
 21 22  1  0
 22 23  2  0
 23 24  1  0
 24 25  2  0
 25 26  1  0
 25 27  1  0
 27 28  2  0
 28 29  1  0
 29 30  2  0
 12  7  1  0
 19 14  1  0
 30 20  1  0
 29 23  1  0
  3 31  1  0
  4 32  1  0
  4 33  1  0
  8 34  1  0
  8 35  1  0
  9 36  1  0
  9 37  1  0
 10 38  1  0
 10 39  1  0
 11 40  1  0
 11 41  1  0
 12 42  1  1
 13 43  1  0
 13 44  1  0
 15 45  1  0
 15 46  1  0
 16 47  1  0
 16 48  1  0
 17 49  1  0
 17 50  1  0
 18 51  1  0
 18 52  1  0
 19 53  1  0
 19 54  1  0
 21 55  1  0
 22 56  1  0
 24 57  1  0
 27 58  1  0
 28 59  1  0
M  END
>  <smiles>  (39) 
O=C(NCC(=O)N1CCCC[C@H]1CN1CCCCC1)c1ccc2cc(Cl)ccc2n1

>  <score_type>  (39) 
oracle

>  <origin>  (39) 
autodockgpu

>  <m_score__min__energy>  (39) 
-8.6699999999999999

>  <m_primary>  (39) 
energy

>  <rmsd>  (39) 
2.4110534297452606

>  <m_score__min__rmsd>  (39) 
2.4110534297452606

>  <meeko>  (39) 
{"free_energy": -8.46, "intermolecular_energy": -10.25, "internal_energy": -1.83, "cluster_size": 34, "cluster_id": 1, "rank_in_cluster": 9}

>  <energy>  (39) 
-7.87

>  <cluster_rmsd>  (39) 
0.0

>  <cluster>  (39) 
3

$$$$

     RDKit          3D

 59 62  0  0  0  0  0  0  0  0999 V2000
  139.3920   71.9370  220.8470 O   0  0  0  0  0  0  0  0  0  0  0  0
  139.5110   72.3750  222.0290 C   0  0  0  0  0  0  0  0  0  0  0  0
  139.4330   73.7870  222.1890 N   0  0  0  0  0  0  0  0  0  0  0  0
  139.2280   74.6710  221.0600 C   0  0  0  0  0  0  0  0  0  0  0  0
  138.8710   76.0450  221.4940 C   0  0  0  0  0  0  0  0  0  0  0  0
  138.6840   76.3030  222.7130 O   0  0  0  0  0  0  0  0  0  0  0  0
  138.7550   77.0360  220.4810 N   0  0  0  0  0  0  0  0  0  0  0  0
  137.6190   77.1250  219.5840 C   0  0  0  0  0  0  0  0  0  0  0  0
  138.0420   77.0880  218.1360 C   0  0  0  0  0  0  0  0  0  0  0  0
  139.3710   77.7140  217.8880 C   0  0  0  0  0  0  0  0  0  0  0  0
  139.8520   78.6260  218.9750 C   0  0  0  0  0  0  0  0  0  0  0  0
  139.8260   78.0040  220.3430 C   0  0  1  0  0  0  0  0  0  0  0  0
  139.5360   79.1030  221.3430 C   0  0  0  0  0  0  0  0  0  0  0  0
  140.7450   79.5010  222.0810 N   0  0  0  0  0  0  0  0  0  0  0  0
  140.4890   80.6980  222.8620 C   0  0  0  0  0  0  0  0  0  0  0  0
  141.8240   81.2550  223.3170 C   0  0  0  0  0  0  0  0  0  0  0  0
  142.7340   80.1460  223.8180 C   0  0  0  0  0  0  0  0  0  0  0  0
  141.8390   78.9700  224.1540 C   0  0  0  0  0  0  0  0  0  0  0  0
  141.2460   78.4230  222.8810 C   0  0  0  0  0  0  0  0  0  0  0  0
  139.7170   71.4940  223.1780 C   0  0  0  0  0  0  0  0  0  0  0  0
  139.3590   70.1680  223.0480 C   0  0  0  0  0  0  0  0  0  0  0  0
  139.5120   69.2580  224.0690 C   0  0  0  0  0  0  0  0  0  0  0  0
  140.0470   69.7160  225.2550 C   0  0  0  0  0  0  0  0  0  0  0  0
  140.2160   68.8370  226.3020 C   0  0  0  0  0  0  0  0  0  0  0  0
  140.7490   69.2720  227.4960 C   0  0  0  0  0  0  0  0  0  0  0  0
  140.9550   68.1380  228.8080 Cl  0  0  0  0  0  0  0  0  0  0  0  0
  141.1010   70.6020  227.6040 C   0  0  0  0  0  0  0  0  0  0  0  0
  140.9320   71.4850  226.5570 C   0  0  0  0  0  0  0  0  0  0  0  0
  140.3980   71.0520  225.3580 C   0  0  0  0  0  0  0  0  0  0  0  0
  140.2370   71.9220  224.3420 N   0  0  0  0  0  0  0  0  0  0  0  0
  139.5310   74.1650  223.1780 H   0  0  0  0  0  0  0  0  0  0  0  0
  140.1543   74.7138  220.4684 H   0  0  0  0  0  0  0  0  0  0  0  0
  138.3949   74.2740  220.4614 H   0  0  0  0  0  0  0  0  0  0  0  0
  136.9444   76.2784  219.7793 H   0  0  0  0  0  0  0  0  0  0  0  0
  137.1138   78.0847  219.7674 H   0  0  0  0  0  0  0  0  0  0  0  0
  138.0865   76.0374  217.8132 H   0  0  0  0  0  0  0  0  0  0  0  0
  137.3003   77.6685  217.5677 H   0  0  0  0  0  0  0  0  0  0  0  0
  140.1104   76.9088  217.7656 H   0  0  0  0  0  0  0  0  0  0  0  0
  139.2547   78.3389  216.9903 H   0  0  0  0  0  0  0  0  0  0  0  0
  140.8870   78.9212  218.7476 H   0  0  0  0  0  0  0  0  0  0  0  0
  139.1656   79.4852  219.0001 H   0  0  0  0  0  0  0  0  0  0  0  0
  140.7921   77.5041  220.5065 H   0  0  0  0  0  0  0  0  0  0  0  0
  139.1419   79.9784  220.8061 H   0  0  0  0  0  0  0  0  0  0  0  0
  138.8020   78.7215  222.0681 H   0  0  0  0  0  0  0  0  0  0  0  0
  139.9652   81.4421  222.2440 H   0  0  0  0  0  0  0  0  0  0  0  0
  139.8582   80.4596  223.7311 H   0  0  0  0  0  0  0  0  0  0  0  0
  142.3089   81.7636  222.4707 H   0  0  0  0  0  0  0  0  0  0  0  0
  141.6465   81.9620  224.1408 H   0  0  0  0  0  0  0  0  0  0  0  0
  143.4541   79.8636  223.0359 H   0  0  0  0  0  0  0  0  0  0  0  0
  143.3085   80.4714  224.6978 H   0  0  0  0  0  0  0  0  0  0  0  0
  142.4305   78.1871  224.6512 H   0  0  0  0  0  0  0  0  0  0  0  0
  141.0334   79.2976  224.8276 H   0  0  0  0  0  0  0  0  0  0  0  0
  142.0211   77.8805  222.3199 H   0  0  0  0  0  0  0  0  0  0  0  0
  140.4216   77.7378  223.1275 H   0  0  0  0  0  0  0  0  0  0  0  0
  138.9354   69.8253  222.0925 H   0  0  0  0  0  0  0  0  0  0  0  0
  139.2187   68.2052  223.9440 H   0  0  0  0  0  0  0  0  0  0  0  0
  139.9242   67.7830  226.1845 H   0  0  0  0  0  0  0  0  0  0  0  0
  141.5275   70.9679  228.5496 H   0  0  0  0  0  0  0  0  0  0  0  0
  141.2238   72.5388  226.6773 H   0  0  0  0  0  0  0  0  0  0  0  0
  1  2  2  0
  2  3  1  0
  3  4  1  0
  4  5  1  0
  5  6  2  0
  5  7  1  0
  7  8  1  0
  8  9  1  0
  9 10  1  0
 10 11  1  0
 11 12  1  0
 12 13  1  0
 13 14  1  0
 14 15  1  0
 15 16  1  0
 16 17  1  0
 17 18  1  0
 18 19  1  0
  2 20  1  0
 20 21  2  0
 21 22  1  0
 22 23  2  0
 23 24  1  0
 24 25  2  0
 25 26  1  0
 25 27  1  0
 27 28  2  0
 28 29  1  0
 29 30  2  0
 12  7  1  0
 19 14  1  0
 30 20  1  0
 29 23  1  0
  3 31  1  0
  4 32  1  0
  4 33  1  0
  8 34  1  0
  8 35  1  0
  9 36  1  0
  9 37  1  0
 10 38  1  0
 10 39  1  0
 11 40  1  0
 11 41  1  0
 12 42  1  1
 13 43  1  0
 13 44  1  0
 15 45  1  0
 15 46  1  0
 16 47  1  0
 16 48  1  0
 17 49  1  0
 17 50  1  0
 18 51  1  0
 18 52  1  0
 19 53  1  0
 19 54  1  0
 21 55  1  0
 22 56  1  0
 24 57  1  0
 27 58  1  0
 28 59  1  0
M  END
>  <smiles>  (40) 
O=C(NCC(=O)N1CCCC[C@H]1CN1CCCCC1)c1ccc2cc(Cl)ccc2n1

>  <score_type>  (40) 
oracle

>  <origin>  (40) 
autodockgpu

>  <m_score__min__energy>  (40) 
-8.6699999999999999

>  <m_primary>  (40) 
energy

>  <rmsd>  (40) 
2.474885457553654

>  <m_score__min__rmsd>  (40) 
2.474885457553654

>  <meeko>  (40) 
{"free_energy": -7.69, "intermolecular_energy": -9.48, "internal_energy": -1.97, "cluster_size": 34, "cluster_id": 1, "rank_in_cluster": 31}

>  <energy>  (40) 
-7.64

>  <cluster_rmsd>  (40) 
0.87

>  <cluster>  (40) 
3

$$$$

     RDKit          3D

 59 62  0  0  0  0  0  0  0  0999 V2000
  140.9220   72.7210  221.4160 O   0  0  0  0  0  0  0  0  0  0  0  0
  140.0780   72.7350  222.3580 C   0  0  0  0  0  0  0  0  0  0  0  0
  139.0560   73.7200  222.2740 N   0  0  0  0  0  0  0  0  0  0  0  0
  138.9880   74.6550  221.1710 C   0  0  0  0  0  0  0  0  0  0  0  0
  138.4950   75.9870  221.6050 C   0  0  0  0  0  0  0  0  0  0  0  0
  137.5050   76.0810  222.3790 O   0  0  0  0  0  0  0  0  0  0  0  0
  139.1860   77.1280  221.1120 N   0  0  0  0  0  0  0  0  0  0  0  0
  138.5110   78.3070  220.6050 C   0  0  0  0  0  0  0  0  0  0  0  0
  138.9500   78.6450  219.2020 C   0  0  0  0  0  0  0  0  0  0  0  0
  140.3690   78.2920  218.9190 C   0  0  0  0  0  0  0  0  0  0  0  0
  141.2200   78.0800  220.1340 C   0  0  0  0  0  0  0  0  0  0  0  0
  140.6360   77.1060  221.1190 C   0  0  1  0  0  0  0  0  0  0  0  0
  141.0600   77.5450  222.5050 C   0  0  0  0  0  0  0  0  0  0  0  0
  141.2910   78.9960  222.5690 N   0  0  0  0  0  0  0  0  0  0  0  0
  140.2480   79.6400  223.3460 C   0  0  0  0  0  0  0  0  0  0  0  0
  140.3330   81.1340  223.0980 C   0  0  0  0  0  0  0  0  0  0  0  0
  141.7750   81.6110  223.1340 C   0  0  0  0  0  0  0  0  0  0  0  0
  142.5610   80.5550  223.8860 C   0  0  0  0  0  0  0  0  0  0  0  0
  142.6030   79.2940  223.0630 C   0  0  0  0  0  0  0  0  0  0  0  0
  140.1330   71.7960  223.4790 C   0  0  0  0  0  0  0  0  0  0  0  0
  139.6960   70.5050  223.2620 C   0  0  0  0  0  0  0  0  0  0  0  0
  139.7070   69.5470  224.2500 C   0  0  0  0  0  0  0  0  0  0  0  0
  140.1780   69.9180  225.4930 C   0  0  0  0  0  0  0  0  0  0  0  0
  140.2040   68.9880  226.5080 C   0  0  0  0  0  0  0  0  0  0  0  0
  140.6710   69.3350  227.7570 C   0  0  0  0  0  0  0  0  0  0  0  0
  140.6960   68.1380  229.0280 Cl  0  0  0  0  0  0  0  0  0  0  0  0
  141.1040   70.6310  227.9520 C   0  0  0  0  0  0  0  0  0  0  0  0
  141.0780   71.5650  226.9360 C   0  0  0  0  0  0  0  0  0  0  0  0
  140.6100   71.2200  225.6820 C   0  0  0  0  0  0  0  0  0  0  0  0
  140.5890   72.1390  224.6970 N   0  0  0  0  0  0  0  0  0  0  0  0
  138.3400   73.7410  223.0620 H   0  0  0  0  0  0  0  0  0  0  0  0
  139.9935   74.7708  220.7402 H   0  0  0  0  0  0  0  0  0  0  0  0
  138.2824   74.2554  220.4278 H   0  0  0  0  0  0  0  0  0  0  0  0
  137.4264   78.1234  220.6040 H   0  0  0  0  0  0  0  0  0  0  0  0
  138.7683   79.1548  221.2570 H   0  0  0  0  0  0  0  0  0  0  0  0
  138.3082   78.0980  218.4957 H   0  0  0  0  0  0  0  0  0  0  0  0
  138.8609   79.7357  219.0905 H   0  0  0  0  0  0  0  0  0  0  0  0
  140.3792   77.3641  218.3284 H   0  0  0  0  0  0  0  0  0  0  0  0
  140.8007   79.1518  218.3858 H   0  0  0  0  0  0  0  0  0  0  0  0
  142.2000   77.7001  219.8095 H   0  0  0  0  0  0  0  0  0  0  0  0
  141.2946   79.0501  220.6472 H   0  0  0  0  0  0  0  0  0  0  0  0
  140.9863   76.0988  220.8493 H   0  0  0  0  0  0  0  0  0  0  0  0
  140.2688   77.2780  223.2211 H   0  0  0  0  0  0  0  0  0  0  0  0
  142.0035   77.0363  222.7522 H   0  0  0  0  0  0  0  0  0  0  0  0
  139.2629   79.2649  223.0316 H   0  0  0  0  0  0  0  0  0  0  0  0
  140.3794   79.4224  224.4162 H   0  0  0  0  0  0  0  0  0  0  0  0
  139.9041   81.3597  222.1105 H   0  0  0  0  0  0  0  0  0  0  0  0
  139.7725   81.6530  223.8895 H   0  0  0  0  0  0  0  0  0  0  0  0
  142.1651   81.7181  222.1111 H   0  0  0  0  0  0  0  0  0  0  0  0
  141.8566   82.5917  223.6254 H   0  0  0  0  0  0  0  0  0  0  0  0
  143.5856   80.9142  224.0624 H   0  0  0  0  0  0  0  0  0  0  0  0
  142.0777   80.3511  224.8529 H   0  0  0  0  0  0  0  0  0  0  0  0
  143.2900   79.4333  222.2153 H   0  0  0  0  0  0  0  0  0  0  0  0
  142.9542   78.4612  223.6900 H   0  0  0  0  0  0  0  0  0  0  0  0
  139.3254   70.2318  222.2630 H   0  0  0  0  0  0  0  0  0  0  0  0
  139.3535   68.5235  224.0561 H   0  0  0  0  0  0  0  0  0  0  0  0
  139.8503   67.9633  226.3209 H   0  0  0  0  0  0  0  0  0  0  0  0
  141.4795   70.9272  228.9426 H   0  0  0  0  0  0  0  0  0  0  0  0
  141.4316   72.5893  227.1253 H   0  0  0  0  0  0  0  0  0  0  0  0
  1  2  2  0
  2  3  1  0
  3  4  1  0
  4  5  1  0
  5  6  2  0
  5  7  1  0
  7  8  1  0
  8  9  1  0
  9 10  1  0
 10 11  1  0
 11 12  1  0
 12 13  1  0
 13 14  1  0
 14 15  1  0
 15 16  1  0
 16 17  1  0
 17 18  1  0
 18 19  1  0
  2 20  1  0
 20 21  2  0
 21 22  1  0
 22 23  2  0
 23 24  1  0
 24 25  2  0
 25 26  1  0
 25 27  1  0
 27 28  2  0
 28 29  1  0
 29 30  2  0
 12  7  1  0
 19 14  1  0
 30 20  1  0
 29 23  1  0
  3 31  1  0
  4 32  1  0
  4 33  1  0
  8 34  1  0
  8 35  1  0
  9 36  1  0
  9 37  1  0
 10 38  1  0
 10 39  1  0
 11 40  1  0
 11 41  1  0
 12 42  1  6
 13 43  1  0
 13 44  1  0
 15 45  1  0
 15 46  1  0
 16 47  1  0
 16 48  1  0
 17 49  1  0
 17 50  1  0
 18 51  1  0
 18 52  1  0
 19 53  1  0
 19 54  1  0
 21 55  1  0
 22 56  1  0
 24 57  1  0
 27 58  1  0
 28 59  1  0
M  END
>  <smiles>  (41) 
O=C(NCC(=O)N1CCCC[C@H]1CN1CCCCC1)c1ccc2cc(Cl)ccc2n1

>  <score_type>  (41) 
oracle

>  <origin>  (41) 
autodockgpu

>  <m_score__min__energy>  (41) 
-8.6699999999999999

>  <m_primary>  (41) 
energy

>  <rmsd>  (41) 
2.5404509193981437

>  <m_score__min__rmsd>  (41) 
2.5404509193981437

>  <meeko>  (41) 
{"free_energy": -8.32, "intermolecular_energy": -10.11, "internal_energy": -1.83, "cluster_size": 34, "cluster_id": 1, "rank_in_cluster": 15}

>  <energy>  (41) 
-7.86

>  <cluster_rmsd>  (41) 
0.0

>  <cluster>  (41) 
4

$$$$

     RDKit          3D

 59 62  0  0  0  0  0  0  0  0999 V2000
  140.5200   72.2950  220.6170 O   0  0  0  0  0  0  0  0  0  0  0  0
  140.2690   72.7330  221.7770 C   0  0  0  0  0  0  0  0  0  0  0  0
  140.0420   74.1330  221.8870 N   0  0  0  0  0  0  0  0  0  0  0  0
  140.0970   75.0060  220.7330 C   0  0  0  0  0  0  0  0  0  0  0  0
  140.7380   76.3060  221.0550 C   0  0  0  0  0  0  0  0  0  0  0  0
  140.5130   76.8750  222.1560 O   0  0  0  0  0  0  0  0  0  0  0  0
  141.6030   76.8640  220.0740 N   0  0  0  0  0  0  0  0  0  0  0  0
  141.7260   78.2900  219.8410 C   0  0  0  0  0  0  0  0  0  0  0  0
  141.4580   78.6480  218.4000 C   0  0  0  0  0  0  0  0  0  0  0  0
  141.8730   77.5920  217.4360 C   0  0  0  0  0  0  0  0  0  0  0  0
  142.8430   76.5870  217.9790 C   0  0  0  0  0  0  0  0  0  0  0  0
  142.4020   75.9570  219.2710 C   0  0  1  0  0  0  0  0  0  0  0  0
  143.6440   75.6540  220.0820 C   0  0  0  0  0  0  0  0  0  0  0  0
  144.1580   74.3040  219.8060 N   0  0  0  0  0  0  0  0  0  0  0  0
  145.2230   73.9700  220.7350 C   0  0  0  0  0  0  0  0  0  0  0  0
  145.9400   72.7430  220.2040 C   0  0  0  0  0  0  0  0  0  0  0  0
  144.9480   71.7050  219.7080 C   0  0  0  0  0  0  0  0  0  0  0  0
  143.6190   72.0290  220.3610 C   0  0  0  0  0  0  0  0  0  0  0  0
  143.1050   73.3330  219.8100 C   0  0  0  0  0  0  0  0  0  0  0  0
  140.2100   71.8640  222.9520 C   0  0  0  0  0  0  0  0  0  0  0  0
  139.6210   70.6230  222.8080 C   0  0  0  0  0  0  0  0  0  0  0  0
  139.5160   69.7310  223.8510 C   0  0  0  0  0  0  0  0  0  0  0  0
  140.0260   70.1160  225.0730 C   0  0  0  0  0  0  0  0  0  0  0  0
  139.9400   69.2520  226.1420 C   0  0  0  0  0  0  0  0  0  0  0  0
  140.4430   69.6150  227.3720 C   0  0  0  0  0  0  0  0  0  0  0  0
  140.3230   68.5010  228.7120 Cl  0  0  0  0  0  0  0  0  0  0  0  0
  141.0280   70.8590  227.4930 C   0  0  0  0  0  0  0  0  0  0  0  0
  141.1160   71.7270  226.4240 C   0  0  0  0  0  0  0  0  0  0  0  0
  140.6120   71.3670  225.1890 C   0  0  0  0  0  0  0  0  0  0  0  0
  140.7020   72.2210  224.1510 N   0  0  0  0  0  0  0  0  0  0  0  0
  139.8300   74.5120  222.8590 H   0  0  0  0  0  0  0  0  0  0  0  0
  140.6754   74.5108  219.9392 H   0  0  0  0  0  0  0  0  0  0  0  0
  139.0659   75.2051  220.4055 H   0  0  0  0  0  0  0  0  0  0  0  0
  141.0030   78.8187  220.4795 H   0  0  0  0  0  0  0  0  0  0  0  0
  142.7574   78.5877  220.0809 H   0  0  0  0  0  0  0  0  0  0  0  0
  140.3787   78.8233  218.2802 H   0  0  0  0  0  0  0  0  0  0  0  0
  142.0552   79.5437  218.1739 H   0  0  0  0  0  0  0  0  0  0  0  0
  140.9708   77.0541  217.1093 H   0  0  0  0  0  0  0  0  0  0  0  0
  142.3924   78.1099  216.6162 H   0  0  0  0  0  0  0  0  0  0  0  0
  142.9730   75.7908  217.2312 H   0  0  0  0  0  0  0  0  0  0  0  0
  143.7797   77.1248  218.1873 H   0  0  0  0  0  0  0  0  0  0  0  0
  141.8065   75.0646  219.0280 H   0  0  0  0  0  0  0  0  0  0  0  0
  144.4220   76.3899  219.8309 H   0  0  0  0  0  0  0  0  0  0  0  0
  143.3791   75.7087  221.1482 H   0  0  0  0  0  0  0  0  0  0  0  0
  145.9284   74.8105  220.8121 H   0  0  0  0  0  0  0  0  0  0  0  0
  144.8095   73.7687  221.7343 H   0  0  0  0  0  0  0  0  0  0  0  0
  146.5950   73.0410  219.3720 H   0  0  0  0  0  0  0  0  0  0  0  0
  146.5306   72.3015  221.0203 H   0  0  0  0  0  0  0  0  0  0  0  0
  144.8564   71.7603  218.6132 H   0  0  0  0  0  0  0  0  0  0  0  0
  145.2778   70.6872  219.9636 H   0  0  0  0  0  0  0  0  0  0  0  0
  142.8972   71.2276  220.1449 H   0  0  0  0  0  0  0  0  0  0  0  0
  143.7514   72.1128  221.4498 H   0  0  0  0  0  0  0  0  0  0  0  0
  142.7456   73.1792  218.7818 H   0  0  0  0  0  0  0  0  0  0  0  0
  142.2788   73.6942  220.4400 H   0  0  0  0  0  0  0  0  0  0  0  0
  139.2212   70.3371  221.8239 H   0  0  0  0  0  0  0  0  0  0  0  0
  139.0428   68.7474  223.7148 H   0  0  0  0  0  0  0  0  0  0  0  0
  139.4673   68.2671  226.0130 H   0  0  0  0  0  0  0  0  0  0  0  0
  141.4349   71.1668  228.4675 H   0  0  0  0  0  0  0  0  0  0  0  0
  141.5900   72.7109  226.5558 H   0  0  0  0  0  0  0  0  0  0  0  0
  1  2  2  0
  2  3  1  0
  3  4  1  0
  4  5  1  0
  5  6  2  0
  5  7  1  0
  7  8  1  0
  8  9  1  0
  9 10  1  0
 10 11  1  0
 11 12  1  0
 12 13  1  0
 13 14  1  0
 14 15  1  0
 15 16  1  0
 16 17  1  0
 17 18  1  0
 18 19  1  0
  2 20  1  0
 20 21  2  0
 21 22  1  0
 22 23  2  0
 23 24  1  0
 24 25  2  0
 25 26  1  0
 25 27  1  0
 27 28  2  0
 28 29  1  0
 29 30  2  0
 12  7  1  0
 19 14  1  0
 30 20  1  0
 29 23  1  0
  3 31  1  0
  4 32  1  0
  4 33  1  0
  8 34  1  0
  8 35  1  0
  9 36  1  0
  9 37  1  0
 10 38  1  0
 10 39  1  0
 11 40  1  0
 11 41  1  0
 12 42  1  6
 13 43  1  0
 13 44  1  0
 15 45  1  0
 15 46  1  0
 16 47  1  0
 16 48  1  0
 17 49  1  0
 17 50  1  0
 18 51  1  0
 18 52  1  0
 19 53  1  0
 19 54  1  0
 21 55  1  0
 22 56  1  0
 24 57  1  0
 27 58  1  0
 28 59  1  0
M  END
>  <smiles>  (42) 
O=C(NCC(=O)N1CCCC[C@H]1CN1CCCCC1)c1ccc2cc(Cl)ccc2n1

>  <score_type>  (42) 
oracle

>  <origin>  (42) 
autodockgpu

>  <m_score__min__energy>  (42) 
-8.6699999999999999

>  <m_primary>  (42) 
energy

>  <rmsd>  (42) 
4.682153090045505

>  <m_score__min__rmsd>  (42) 
4.682153090045505

>  <meeko>  (42) 
{"free_energy": -7.87, "intermolecular_energy": -9.66, "internal_energy": -2.15, "cluster_size": 2, "cluster_id": 3, "rank_in_cluster": 1}

>  <energy>  (42) 
-7.57

>  <cluster_rmsd>  (42) 
1.97

>  <cluster>  (42) 
4

$$$$

     RDKit          3D

 59 62  0  0  0  0  0  0  0  0999 V2000
  140.2620   72.4530  220.7780 O   0  0  0  0  0  0  0  0  0  0  0  0
  139.9940   72.8080  221.9630 C   0  0  0  0  0  0  0  0  0  0  0  0
  139.6240   74.1690  222.1450 N   0  0  0  0  0  0  0  0  0  0  0  0
  139.5590   75.0960  221.0340 C   0  0  0  0  0  0  0  0  0  0  0  0
  139.1300   76.4490  221.4690 C   0  0  0  0  0  0  0  0  0  0  0  0
  138.5050   76.6050  222.5510 O   0  0  0  0  0  0  0  0  0  0  0  0
  139.4570   77.5390  220.6160 N   0  0  0  0  0  0  0  0  0  0  0  0
  138.6560   78.7440  220.5230 C   0  0  0  0  0  0  0  0  0  0  0  0
  138.2310   79.0280  219.1040 C   0  0  0  0  0  0  0  0  0  0  0  0
  139.2250   78.5900  218.0850 C   0  0  0  0  0  0  0  0  0  0  0  0
  140.6070   78.3550  218.6130 C   0  0  0  0  0  0  0  0  0  0  0  0
  140.6540   77.4360  219.8020 C   0  0  1  0  0  0  0  0  0  0  0  0
  141.8040   77.8790  220.6800 C   0  0  0  0  0  0  0  0  0  0  0  0
  141.4020   78.9510  221.6040 N   0  0  0  0  0  0  0  0  0  0  0  0
  141.4400   78.4760  222.9750 C   0  0  0  0  0  0  0  0  0  0  0  0
  140.7020   79.4790  223.8400 C   0  0  0  0  0  0  0  0  0  0  0  0
  141.0850   80.9020  223.4690 C   0  0  0  0  0  0  0  0  0  0  0  0
  142.4080   80.8170  222.7360 C   0  0  0  0  0  0  0  0  0  0  0  0
  142.1930   80.1300  221.4120 C   0  0  0  0  0  0  0  0  0  0  0  0
  140.0550   71.8830  223.0940 C   0  0  0  0  0  0  0  0  0  0  0  0
  139.5970   70.5960  222.9020 C   0  0  0  0  0  0  0  0  0  0  0  0
  139.6110   69.6500  223.9020 C   0  0  0  0  0  0  0  0  0  0  0  0
  140.1070   70.0300  225.1320 C   0  0  0  0  0  0  0  0  0  0  0  0
  140.1380   69.1130  226.1590 C   0  0  0  0  0  0  0  0  0  0  0  0
  140.6290   69.4700  227.3950 C   0  0  0  0  0  0  0  0  0  0  0  0
  140.6590   68.2890  228.6810 Cl  0  0  0  0  0  0  0  0  0  0  0  0
  141.0830   70.7620  227.5660 C   0  0  0  0  0  0  0  0  0  0  0  0
  141.0530   71.6840  226.5390 C   0  0  0  0  0  0  0  0  0  0  0  0
  140.5600   71.3290  225.2970 C   0  0  0  0  0  0  0  0  0  0  0  0
  140.5350   72.2350  224.3000 N   0  0  0  0  0  0  0  0  0  0  0  0
  139.3970   74.4780  223.1370 H   0  0  0  0  0  0  0  0  0  0  0  0
  140.5550   75.1694  220.5729 H   0  0  0  0  0  0  0  0  0  0  0  0
  138.8175   74.7169  220.3154 H   0  0  0  0  0  0  0  0  0  0  0  0
  137.7575   78.6229  221.1460 H   0  0  0  0  0  0  0  0  0  0  0  0
  139.2687   79.5886  220.8712 H   0  0  0  0  0  0  0  0  0  0  0  0
  137.2832   78.5034  218.9132 H   0  0  0  0  0  0  0  0  0  0  0  0
  138.1314   80.1194  219.0093 H   0  0  0  0  0  0  0  0  0  0  0  0
  138.8656   77.6512  217.6383 H   0  0  0  0  0  0  0  0  0  0  0  0
  139.3073   79.4133  217.3602 H   0  0  0  0  0  0  0  0  0  0  0  0
  141.2149   77.9138  217.8094 H   0  0  0  0  0  0  0  0  0  0  0  0
  140.9929   79.3298  218.9460 H   0  0  0  0  0  0  0  0  0  0  0  0
  140.7556   76.4052  219.4316 H   0  0  0  0  0  0  0  0  0  0  0  0
  142.1576   77.0176  221.2657 H   0  0  0  0  0  0  0  0  0  0  0  0
  142.6015   78.2680  220.0299 H   0  0  0  0  0  0  0  0  0  0  0  0
  140.9507   77.4932  223.0431 H   0  0  0  0  0  0  0  0  0  0  0  0
  142.4812   78.3724  223.3144 H   0  0  0  0  0  0  0  0  0  0  0  0
  139.6190   79.3490  223.6977 H   0  0  0  0  0  0  0  0  0  0  0  0
  140.9756   79.3045  224.8910 H   0  0  0  0  0  0  0  0  0  0  0  0
  140.3174   81.3438  222.8167 H   0  0  0  0  0  0  0  0  0  0  0  0
  141.1672   81.5367  224.3636 H   0  0  0  0  0  0  0  0  0  0  0  0
  142.8011   81.8302  222.5660 H   0  0  0  0  0  0  0  0  0  0  0  0
  143.1299   80.2456  223.3379 H   0  0  0  0  0  0  0  0  0  0  0  0
  141.6709   80.8131  220.7258 H   0  0  0  0  0  0  0  0  0  0  0  0
  143.1668   79.8503  220.9837 H   0  0  0  0  0  0  0  0  0  0  0  0
  139.2060   70.3152  221.9129 H   0  0  0  0  0  0  0  0  0  0  0  0
  139.2405   68.6292  223.7269 H   0  0  0  0  0  0  0  0  0  0  0  0
  139.7688   68.0905  225.9912 H   0  0  0  0  0  0  0  0  0  0  0  0
  141.4792   71.0651  228.5464 H   0  0  0  0  0  0  0  0  0  0  0  0
  141.4230   72.7058  226.7096 H   0  0  0  0  0  0  0  0  0  0  0  0
  1  2  2  0
  2  3  1  0
  3  4  1  0
  4  5  1  0
  5  6  2  0
  5  7  1  0
  7  8  1  0
  8  9  1  0
  9 10  1  0
 10 11  1  0
 11 12  1  0
 12 13  1  0
 13 14  1  0
 14 15  1  0
 15 16  1  0
 16 17  1  0
 17 18  1  0
 18 19  1  0
  2 20  1  0
 20 21  2  0
 21 22  1  0
 22 23  2  0
 23 24  1  0
 24 25  2  0
 25 26  1  0
 25 27  1  0
 27 28  2  0
 28 29  1  0
 29 30  2  0
 12  7  1  0
 19 14  1  0
 30 20  1  0
 29 23  1  0
  3 31  1  0
  4 32  1  0
  4 33  1  0
  8 34  1  0
  8 35  1  0
  9 36  1  0
  9 37  1  0
 10 38  1  0
 10 39  1  0
 11 40  1  0
 11 41  1  0
 12 42  1  6
 13 43  1  0
 13 44  1  0
 15 45  1  0
 15 46  1  0
 16 47  1  0
 16 48  1  0
 17 49  1  0
 17 50  1  0
 18 51  1  0
 18 52  1  0
 19 53  1  0
 19 54  1  0
 21 55  1  0
 22 56  1  0
 24 57  1  0
 27 58  1  0
 28 59  1  0
M  END
>  <smiles>  (43) 
O=C(NCC(=O)N1CCCC[C@H]1CN1CCCCC1)c1ccc2cc(Cl)ccc2n1

>  <score_type>  (43) 
oracle

>  <origin>  (43) 
autodockgpu

>  <m_score__min__energy>  (43) 
-8.6699999999999999

>  <m_primary>  (43) 
energy

>  <rmsd>  (43) 
2.478219444059282

>  <m_score__min__rmsd>  (43) 
2.478219444059282

>  <meeko>  (43) 
{"free_energy": -7.86, "intermolecular_energy": -9.65, "internal_energy": -2.18, "cluster_size": 34, "cluster_id": 1, "rank_in_cluster": 25}

>  <energy>  (43) 
-7.7

>  <cluster_rmsd>  (43) 
0.0

>  <cluster>  (43) 
5

$$$$

     RDKit          3D

 59 62  0  0  0  0  0  0  0  0999 V2000
  140.1960   72.3170  220.8480 O   0  0  0  0  0  0  0  0  0  0  0  0
  139.7200   72.5790  221.9910 C   0  0  0  0  0  0  0  0  0  0  0  0
  139.0340   73.8190  222.1190 N   0  0  0  0  0  0  0  0  0  0  0  0
  138.8910   74.7290  221.0010 C   0  0  0  0  0  0  0  0  0  0  0  0
  139.7250   75.9460  221.1710 C   0  0  0  0  0  0  0  0  0  0  0  0
  139.5380   76.7170  222.1500 O   0  0  0  0  0  0  0  0  0  0  0  0
  140.7260   76.1890  220.1910 N   0  0  0  0  0  0  0  0  0  0  0  0
  140.6690   75.6490  218.8460 C   0  0  0  0  0  0  0  0  0  0  0  0
  141.9080   74.8590  218.5060 C   0  0  0  0  0  0  0  0  0  0  0  0
  143.1420   75.3730  219.1620 C   0  0  0  0  0  0  0  0  0  0  0  0
  143.0460   76.7790  219.6730 C   0  0  0  0  0  0  0  0  0  0  0  0
  141.8560   77.0210  220.5580 C   0  0  1  0  0  0  0  0  0  0  0  0
  141.4130   78.4540  220.3500 C   0  0  0  0  0  0  0  0  0  0  0  0
  141.8420   79.3230  221.4570 N   0  0  0  0  0  0  0  0  0  0  0  0
  141.0390   80.5320  221.4900 C   0  0  0  0  0  0  0  0  0  0  0  0
  141.7280   81.5270  222.4030 C   0  0  0  0  0  0  0  0  0  0  0  0
  142.2200   80.8520  223.6730 C   0  0  0  0  0  0  0  0  0  0  0  0
  141.4290   79.5660  223.8120 C   0  0  0  0  0  0  0  0  0  0  0  0
  141.8260   78.6220  222.7070 C   0  0  0  0  0  0  0  0  0  0  0  0
  139.8550   71.6690  223.1280 C   0  0  0  0  0  0  0  0  0  0  0  0
  139.4250   70.3680  222.9690 C   0  0  0  0  0  0  0  0  0  0  0  0
  139.5090   69.4340  223.9770 C   0  0  0  0  0  0  0  0  0  0  0  0
  140.0470   69.8420  225.1800 C   0  0  0  0  0  0  0  0  0  0  0  0
  140.1480   68.9380  226.2140 C   0  0  0  0  0  0  0  0  0  0  0  0
  140.6830   69.3220  227.4240 C   0  0  0  0  0  0  0  0  0  0  0  0
  140.8010   68.1570  228.7200 Cl  0  0  0  0  0  0  0  0  0  0  0  0
  141.1070   70.6280  227.5620 C   0  0  0  0  0  0  0  0  0  0  0  0
  141.0070   71.5370  226.5270 C   0  0  0  0  0  0  0  0  0  0  0  0
  140.4710   71.1540  225.3120 C   0  0  0  0  0  0  0  0  0  0  0  0
  140.3780   72.0480  224.3080 N   0  0  0  0  0  0  0  0  0  0  0  0
  138.6290   74.0490  223.0750 H   0  0  0  0  0  0  0  0  0  0  0  0
  139.1984   74.2124  220.0798 H   0  0  0  0  0  0  0  0  0  0  0  0
  137.8376   75.0410  220.9464 H   0  0  0  0  0  0  0  0  0  0  0  0
  139.7926   74.9893  218.7641 H   0  0  0  0  0  0  0  0  0  0  0  0
  140.5972   76.4915  218.1424 H   0  0  0  0  0  0  0  0  0  0  0  0
  141.7539   73.8171  218.8232 H   0  0  0  0  0  0  0  0  0  0  0  0
  142.0592   74.9480  217.4201 H   0  0  0  0  0  0  0  0  0  0  0  0
  143.3762   74.7156  220.0123 H   0  0  0  0  0  0  0  0  0  0  0  0
  143.9235   75.3786  218.3880 H   0  0  0  0  0  0  0  0  0  0  0  0
  143.9570   77.0025  220.2475 H   0  0  0  0  0  0  0  0  0  0  0  0
  142.9318   77.4325  218.7955 H   0  0  0  0  0  0  0  0  0  0  0  0
  142.1517   76.7972  221.5936 H   0  0  0  0  0  0  0  0  0  0  0  0
  141.8493   78.8294  219.4126 H   0  0  0  0  0  0  0  0  0  0  0  0
  140.3139   78.4702  220.3079 H   0  0  0  0  0  0  0  0  0  0  0  0
  140.9542   80.9516  220.4767 H   0  0  0  0  0  0  0  0  0  0  0  0
  140.0278   80.3092  221.8613 H   0  0  0  0  0  0  0  0  0  0  0  0
  142.5863   81.9663  221.8736 H   0  0  0  0  0  0  0  0  0  0  0  0
  141.0044   82.3080  222.6793 H   0  0  0  0  0  0  0  0  0  0  0  0
  143.2945   80.6304  223.5936 H   0  0  0  0  0  0  0  0  0  0  0  0
  142.0789   81.5021  224.5490 H   0  0  0  0  0  0  0  0  0  0  0  0
  141.6450   79.1040  224.7866 H   0  0  0  0  0  0  0  0  0  0  0  0
  140.3528   79.7835  223.7452 H   0  0  0  0  0  0  0  0  0  0  0  0
  142.8283   78.2184  222.9130 H   0  0  0  0  0  0  0  0  0  0  0  0
  141.1002   77.7971  222.6535 H   0  0  0  0  0  0  0  0  0  0  0  0
  138.9992   70.0655  222.0009 H   0  0  0  0  0  0  0  0  0  0  0  0
  139.1603   68.4013  223.8287 H   0  0  0  0  0  0  0  0  0  0  0  0
  139.7997   67.9042  226.0730 H   0  0  0  0  0  0  0  0  0  0  0  0
  141.5357   70.9535  228.5213 H   0  0  0  0  0  0  0  0  0  0  0  0
  141.3555   72.5704  226.6703 H   0  0  0  0  0  0  0  0  0  0  0  0
  1  2  2  0
  2  3  1  0
  3  4  1  0
  4  5  1  0
  5  6  2  0
  5  7  1  0
  7  8  1  0
  8  9  1  0
  9 10  1  0
 10 11  1  0
 11 12  1  0
 12 13  1  0
 13 14  1  0
 14 15  1  0
 15 16  1  0
 16 17  1  0
 17 18  1  0
 18 19  1  0
  2 20  1  0
 20 21  2  0
 21 22  1  0
 22 23  2  0
 23 24  1  0
 24 25  2  0
 25 26  1  0
 25 27  1  0
 27 28  2  0
 28 29  1  0
 29 30  2  0
 12  7  1  0
 19 14  1  0
 30 20  1  0
 29 23  1  0
  3 31  1  0
  4 32  1  0
  4 33  1  0
  8 34  1  0
  8 35  1  0
  9 36  1  0
  9 37  1  0
 10 38  1  0
 10 39  1  0
 11 40  1  0
 11 41  1  0
 12 42  1  1
 13 43  1  0
 13 44  1  0
 15 45  1  0
 15 46  1  0
 16 47  1  0
 16 48  1  0
 17 49  1  0
 17 50  1  0
 18 51  1  0
 18 52  1  0
 19 53  1  0
 19 54  1  0
 21 55  1  0
 22 56  1  0
 24 57  1  0
 27 58  1  0
 28 59  1  0
M  END
>  <smiles>  (44) 
O=C(NCC(=O)N1CCCC[C@H]1CN1CCCCC1)c1ccc2cc(Cl)ccc2n1

>  <score_type>  (44) 
oracle

>  <origin>  (44) 
autodockgpu

>  <m_score__min__energy>  (44) 
-8.6699999999999999

>  <m_primary>  (44) 
energy

>  <rmsd>  (44) 
2.3157289937888885

>  <m_score__min__rmsd>  (44) 
2.3157289937888885

>  <meeko>  (44) 
{"free_energy": -8.62, "intermolecular_energy": -10.41, "internal_energy": -1.69, "cluster_size": 34, "cluster_id": 1, "rank_in_cluster": 4}

>  <energy>  (44) 
-7.53

>  <cluster_rmsd>  (44) 
0.84

>  <cluster>  (44) 
5

$$$$

     RDKit          3D

 59 62  0  0  0  0  0  0  0  0999 V2000
  139.2180   72.9170  220.6910 O   0  0  0  0  0  0  0  0  0  0  0  0
  140.1920   72.7440  221.4800 C   0  0  0  0  0  0  0  0  0  0  0  0
  141.4110   73.3870  221.1280 N   0  0  0  0  0  0  0  0  0  0  0  0
  141.5280   74.1950  219.9320 C   0  0  0  0  0  0  0  0  0  0  0  0
  141.9650   75.5800  220.2420 C   0  0  0  0  0  0  0  0  0  0  0  0
  143.1170   75.9740  219.9190 O   0  0  0  0  0  0  0  0  0  0  0  0
  141.0330   76.4210  220.9100 N   0  0  0  0  0  0  0  0  0  0  0  0
  140.6190   76.2150  222.2850 C   0  0  0  0  0  0  0  0  0  0  0  0
  139.1210   76.0960  222.4090 C   0  0  0  0  0  0  0  0  0  0  0  0
  138.3740   76.9130  221.4120 C   0  0  0  0  0  0  0  0  0  0  0  0
  139.1710   78.0060  220.7670 C   0  0  0  0  0  0  0  0  0  0  0  0
  140.4720   77.5390  220.1760 C   0  0  1  0  0  0  0  0  0  0  0  0
  141.4670   78.6720  220.3040 C   0  0  0  0  0  0  0  0  0  0  0  0
  141.2650   79.4380  221.5430 N   0  0  0  0  0  0  0  0  0  0  0  0
  142.2950   79.1110  222.5130 C   0  0  0  0  0  0  0  0  0  0  0  0
  141.8550   79.6460  223.8620 C   0  0  0  0  0  0  0  0  0  0  0  0
  141.2880   81.0500  223.7320 C   0  0  0  0  0  0  0  0  0  0  0  0
  141.8080   81.6070  222.4230 C   0  0  0  0  0  0  0  0  0  0  0  0
  141.1880   80.8450  221.2810 C   0  0  0  0  0  0  0  0  0  0  0  0
  140.0880   71.9310  222.6910 C   0  0  0  0  0  0  0  0  0  0  0  0
  139.3500   70.7670  222.6280 C   0  0  0  0  0  0  0  0  0  0  0  0
  139.1910   69.9330  223.7110 C   0  0  0  0  0  0  0  0  0  0  0  0
  139.8050   70.2980  224.8910 C   0  0  0  0  0  0  0  0  0  0  0  0
  139.6700   69.4900  225.9980 C   0  0  0  0  0  0  0  0  0  0  0  0
  140.2750   69.8350  227.1880 C   0  0  0  0  0  0  0  0  0  0  0  0
  140.0900   68.7940  228.5780 Cl  0  0  0  0  0  0  0  0  0  0  0  0
  141.0090   71.0020  227.2300 C   0  0  0  0  0  0  0  0  0  0  0  0
  141.1450   71.8140  226.1220 C   0  0  0  0  0  0  0  0  0  0  0  0
  140.5400   71.4720  224.9270 C   0  0  0  0  0  0  0  0  0  0  0  0
  140.6800   72.2700  223.8510 N   0  0  0  0  0  0  0  0  0  0  0  0
  142.2360   73.2480  221.7850 H   0  0  0  0  0  0  0  0  0  0  0  0
  142.2650   73.7313  219.2598 H   0  0  0  0  0  0  0  0  0  0  0  0
  140.5373   74.2476  219.4570 H   0  0  0  0  0  0  0  0  0  0  0  0
  141.0816   75.2905  222.6610 H   0  0  0  0  0  0  0  0  0  0  0  0
  140.9416   77.0871  222.8726 H   0  0  0  0  0  0  0  0  0  0  0  0
  138.8433   75.0405  222.2720 H   0  0  0  0  0  0  0  0  0  0  0  0
  138.8484   76.4739  223.4054 H   0  0  0  0  0  0  0  0  0  0  0  0
  138.0136   76.2400  220.6200 H   0  0  0  0  0  0  0  0  0  0  0  0
  137.5626   77.4085  221.9653 H   0  0  0  0  0  0  0  0  0  0  0  0
  138.5646   78.4500  219.9638 H   0  0  0  0  0  0  0  0  0  0  0  0
  139.4190   78.7309  221.5563 H   0  0  0  0  0  0  0  0  0  0  0  0
  140.2829   77.2341  219.1361 H   0  0  0  0  0  0  0  0  0  0  0  0
  142.4845   78.2540  220.3055 H   0  0  0  0  0  0  0  0  0  0  0  0
  141.3211   79.3533  219.4528 H   0  0  0  0  0  0  0  0  0  0  0  0
  142.4232   78.0199  222.5679 H   0  0  0  0  0  0  0  0  0  0  0  0
  143.2545   79.5608  222.2179 H   0  0  0  0  0  0  0  0  0  0  0  0
  141.0819   78.9828  224.2773 H   0  0  0  0  0  0  0  0  0  0  0  0
  142.7301   79.6815  224.5275 H   0  0  0  0  0  0  0  0  0  0  0  0
  140.1886   81.0158  223.7199 H   0  0  0  0  0  0  0  0  0  0  0  0
  141.5920   81.6808  224.5803 H   0  0  0  0  0  0  0  0  0  0  0  0
  141.5408   82.6711  222.3437 H   0  0  0  0  0  0  0  0  0  0  0  0
  142.9025   81.5041  222.3857 H   0  0  0  0  0  0  0  0  0  0  0  0
  140.1338   81.1401  221.1737 H   0  0  0  0  0  0  0  0  0  0  0  0
  141.7311   81.0736  220.3521 H   0  0  0  0  0  0  0  0  0  0  0  0
  138.8705   70.4953  221.6760 H   0  0  0  0  0  0  0  0  0  0  0  0
  138.5967   69.0102  223.6384 H   0  0  0  0  0  0  0  0  0  0  0  0
  139.0772   68.5657  225.9326 H   0  0  0  0  0  0  0  0  0  0  0  0
  141.4988   71.2932  228.1709 H   0  0  0  0  0  0  0  0  0  0  0  0
  141.7379   72.7380  226.1903 H   0  0  0  0  0  0  0  0  0  0  0  0
  1  2  2  0
  2  3  1  0
  3  4  1  0
  4  5  1  0
  5  6  2  0
  5  7  1  0
  7  8  1  0
  8  9  1  0
  9 10  1  0
 10 11  1  0
 11 12  1  0
 12 13  1  0
 13 14  1  0
 14 15  1  0
 15 16  1  0
 16 17  1  0
 17 18  1  0
 18 19  1  0
  2 20  1  0
 20 21  2  0
 21 22  1  0
 22 23  2  0
 23 24  1  0
 24 25  2  0
 25 26  1  0
 25 27  1  0
 27 28  2  0
 28 29  1  0
 29 30  2  0
 12  7  1  0
 19 14  1  0
 30 20  1  0
 29 23  1  0
  3 31  1  0
  4 32  1  0
  4 33  1  0
  8 34  1  0
  8 35  1  0
  9 36  1  0
  9 37  1  0
 10 38  1  0
 10 39  1  0
 11 40  1  0
 11 41  1  0
 12 42  1  6
 13 43  1  0
 13 44  1  0
 15 45  1  0
 15 46  1  0
 16 47  1  0
 16 48  1  0
 17 49  1  0
 17 50  1  0
 18 51  1  0
 18 52  1  0
 19 53  1  0
 19 54  1  0
 21 55  1  0
 22 56  1  0
 24 57  1  0
 27 58  1  0
 28 59  1  0
M  END
>  <smiles>  (45) 
O=C(NCC(=O)N1CCCC[C@H]1CN1CCCCC1)c1ccc2cc(Cl)ccc2n1

>  <score_type>  (45) 
oracle

>  <origin>  (45) 
autodockgpu

>  <m_score__min__energy>  (45) 
-8.6699999999999999

>  <m_primary>  (45) 
energy

>  <rmsd>  (45) 
2.9268242849533914

>  <m_score__min__rmsd>  (45) 
2.9268242849533914

>  <meeko>  (45) 
{"free_energy": -7.65, "intermolecular_energy": -9.44, "internal_energy": -2.09, "cluster_size": 34, "cluster_id": 1, "rank_in_cluster": 32}

>  <energy>  (45) 
-7.52

>  <cluster_rmsd>  (45) 
0.81

>  <cluster>  (45) 
5

$$$$

     RDKit          3D

 59 62  0  0  0  0  0  0  0  0999 V2000
  138.2210   75.6420  222.7420 O   0  0  0  0  0  0  0  0  0  0  0  0
  139.2010   76.0360  222.0450 C   0  0  0  0  0  0  0  0  0  0  0  0
  139.2220   77.4180  221.7100 N   0  0  0  0  0  0  0  0  0  0  0  0
  138.1760   78.3220  222.1430 C   0  0  0  0  0  0  0  0  0  0  0  0
  138.7080   79.4090  223.0030 C   0  0  0  0  0  0  0  0  0  0  0  0
  138.0060   79.8930  223.9300 O   0  0  0  0  0  0  0  0  0  0  0  0
  140.0270   79.8660  222.7310 N   0  0  0  0  0  0  0  0  0  0  0  0
  141.2120   79.0660  222.9760 C   0  0  0  0  0  0  0  0  0  0  0  0
  142.1960   79.7790  223.8690 C   0  0  0  0  0  0  0  0  0  0  0  0
  142.1920   81.2590  223.6990 C   0  0  0  0  0  0  0  0  0  0  0  0
  141.5680   81.7460  222.4260 C   0  0  0  0  0  0  0  0  0  0  0  0
  140.1900   81.1980  222.1790 C   0  0  1  0  0  0  0  0  0  0  0  0
  140.0120   81.0610  220.6820 C   0  0  0  0  0  0  0  0  0  0  0  0
  140.5000   79.7640  220.1910 N   0  0  0  0  0  0  0  0  0  0  0  0
  139.6900   79.3090  219.0750 C   0  0  0  0  0  0  0  0  0  0  0  0
  140.0030   77.8450  218.8350 C   0  0  0  0  0  0  0  0  0  0  0  0
  141.5000   77.5900  218.9010 C   0  0  0  0  0  0  0  0  0  0  0  0
  142.1760   78.9290  218.6860 C   0  0  0  0  0  0  0  0  0  0  0  0
  141.8940   79.8190  219.8680 C   0  0  0  0  0  0  0  0  0  0  0  0
  140.2640   75.1350  221.6020 C   0  0  0  0  0  0  0  0  0  0  0  0
  140.0670   73.7770  221.7570 C   0  0  0  0  0  0  0  0  0  0  0  0
  141.0050   72.8460  221.3720 C   0  0  0  0  0  0  0  0  0  0  0  0
  142.1760   73.3150  220.8130 C   0  0  0  0  0  0  0  0  0  0  0  0
  143.1400   72.4160  220.4150 C   0  0  0  0  0  0  0  0  0  0  0  0
  144.3170   72.8610  219.8540 C   0  0  0  0  0  0  0  0  0  0  0  0
  145.5240   71.7010  219.3560 Cl  0  0  0  0  0  0  0  0  0  0  0  0
  144.4930   74.2220  219.7070 C   0  0  0  0  0  0  0  0  0  0  0  0
  143.5290   75.1260  220.1060 C   0  0  0  0  0  0  0  0  0  0  0  0
  142.3470   74.6830  220.6690 C   0  0  0  0  0  0  0  0  0  0  0  0
  141.4120   75.5720  221.0550 N   0  0  0  0  0  0  0  0  0  0  0  0
  140.0420   77.7600  221.1250 H   0  0  0  0  0  0  0  0  0  0  0  0
  137.7021   78.7689  221.2566 H   0  0  0  0  0  0  0  0  0  0  0  0
  137.4478   77.7452  222.7321 H   0  0  0  0  0  0  0  0  0  0  0  0
  140.9119   78.1239  223.4581 H   0  0  0  0  0  0  0  0  0  0  0  0
  141.7025   78.8777  222.0096 H   0  0  0  0  0  0  0  0  0  0  0  0
  141.9465   79.5485  224.9152 H   0  0  0  0  0  0  0  0  0  0  0  0
  143.1996   79.4251  223.5904 H   0  0  0  0  0  0  0  0  0  0  0  0
  141.6375   81.6983  224.5413 H   0  0  0  0  0  0  0  0  0  0  0  0
  143.2470   81.5685  223.6638 H   0  0  0  0  0  0  0  0  0  0  0  0
  141.5026   82.8432  222.4691 H   0  0  0  0  0  0  0  0  0  0  0  0
  142.2056   81.3951  221.6012 H   0  0  0  0  0  0  0  0  0  0  0  0
  139.4644   81.8785  222.6484 H   0  0  0  0  0  0  0  0  0  0  0  0
  138.9428   81.1538  220.4405 H   0  0  0  0  0  0  0  0  0  0  0  0
  140.5977   81.8539  220.1939 H   0  0  0  0  0  0  0  0  0  0  0  0
  138.6231   79.4281  219.3150 H   0  0  0  0  0  0  0  0  0  0  0  0
  139.9135   79.9001  218.1746 H   0  0  0  0  0  0  0  0  0  0  0  0
  139.5007   77.2391  219.6035 H   0  0  0  0  0  0  0  0  0  0  0  0
  139.6446   77.5699  217.8321 H   0  0  0  0  0  0  0  0  0  0  0  0
  141.7725   77.1807  219.8850 H   0  0  0  0  0  0  0  0  0  0  0  0
  141.8126   76.8605  218.1394 H   0  0  0  0  0  0  0  0  0  0  0  0
  143.2615   78.7818  218.5865 H   0  0  0  0  0  0  0  0  0  0  0  0
  141.7883   79.3968  217.7690 H   0  0  0  0  0  0  0  0  0  0  0  0
  142.4834   79.4776  220.7318 H   0  0  0  0  0  0  0  0  0  0  0  0
  142.1700   80.8543  219.6189 H   0  0  0  0  0  0  0  0  0  0  0  0
  139.1255   73.4262  222.2048 H   0  0  0  0  0  0  0  0  0  0  0  0
  140.8276   71.7686  221.5050 H   0  0  0  0  0  0  0  0  0  0  0  0
  142.9695   71.3372  220.5456 H   0  0  0  0  0  0  0  0  0  0  0  0
  145.4259   74.5962  219.2602 H   0  0  0  0  0  0  0  0  0  0  0  0
  143.7025   76.2043  219.9752 H   0  0  0  0  0  0  0  0  0  0  0  0
  1  2  2  0
  2  3  1  0
  3  4  1  0
  4  5  1  0
  5  6  2  0
  5  7  1  0
  7  8  1  0
  8  9  1  0
  9 10  1  0
 10 11  1  0
 11 12  1  0
 12 13  1  0
 13 14  1  0
 14 15  1  0
 15 16  1  0
 16 17  1  0
 17 18  1  0
 18 19  1  0
  2 20  1  0
 20 21  2  0
 21 22  1  0
 22 23  2  0
 23 24  1  0
 24 25  2  0
 25 26  1  0
 25 27  1  0
 27 28  2  0
 28 29  1  0
 29 30  2  0
 12  7  1  0
 19 14  1  0
 30 20  1  0
 29 23  1  0
  3 31  1  0
  4 32  1  0
  4 33  1  0
  8 34  1  0
  8 35  1  0
  9 36  1  0
  9 37  1  0
 10 38  1  0
 10 39  1  0
 11 40  1  0
 11 41  1  0
 12 42  1  1
 13 43  1  0
 13 44  1  0
 15 45  1  0
 15 46  1  0
 16 47  1  0
 16 48  1  0
 17 49  1  0
 17 50  1  0
 18 51  1  0
 18 52  1  0
 19 53  1  0
 19 54  1  0
 21 55  1  0
 22 56  1  0
 24 57  1  0
 27 58  1  0
 28 59  1  0
M  END
>  <smiles>  (46) 
O=C(NCC(=O)N1CCCC[C@H]1CN1CCCCC1)c1ccc2cc(Cl)ccc2n1

>  <score_type>  (46) 
oracle

>  <origin>  (46) 
autodockgpu

>  <m_score__min__energy>  (46) 
-8.6699999999999999

>  <m_primary>  (46) 
energy

>  <rmsd>  (46) 
6.176135875194406

>  <m_score__min__rmsd>  (46) 
6.176135875194406

>  <meeko>  (46) 
{"free_energy": -6.22, "intermolecular_energy": -8.01, "internal_energy": -3.34, "cluster_size": 2, "cluster_id": 6, "rank_in_cluster": 2}

>  <energy>  (46) 
-7.5

>  <cluster_rmsd>  (46) 
0.83

>  <cluster>  (46) 
5

$$$$

     RDKit          3D

 59 62  0  0  0  0  0  0  0  0999 V2000
  139.7060   71.9440  220.8290 O   0  0  0  0  0  0  0  0  0  0  0  0
  139.6970   72.3790  222.0170 C   0  0  0  0  0  0  0  0  0  0  0  0
  139.5450   73.7850  222.1720 N   0  0  0  0  0  0  0  0  0  0  0  0
  139.4110   74.6670  221.0320 C   0  0  0  0  0  0  0  0  0  0  0  0
  140.2120   75.9070  221.1950 C   0  0  0  0  0  0  0  0  0  0  0  0
  140.3820   76.4120  222.3360 O   0  0  0  0  0  0  0  0  0  0  0  0
  140.7660   76.4810  220.0190 N   0  0  0  0  0  0  0  0  0  0  0  0
  140.4640   76.0050  218.6830 C   0  0  0  0  0  0  0  0  0  0  0  0
  141.7130   75.6400  217.9200 C   0  0  0  0  0  0  0  0  0  0  0  0
  142.8930   76.4760  218.2750 C   0  0  0  0  0  0  0  0  0  0  0  0
  142.5690   77.7650  218.9680 C   0  0  0  0  0  0  0  0  0  0  0  0
  141.6780   77.6000  220.1670 C   0  0  1  0  0  0  0  0  0  0  0  0
  140.8150   78.8390  220.2720 C   0  0  0  0  0  0  0  0  0  0  0  0
  140.9610   79.4950  221.5800 N   0  0  0  0  0  0  0  0  0  0  0  0
  142.1690   79.0390  222.2430 C   0  0  0  0  0  0  0  0  0  0  0  0
  142.0980   79.4650  223.6960 C   0  0  0  0  0  0  0  0  0  0  0  0
  141.6040   80.8970  223.8190 C   0  0  0  0  0  0  0  0  0  0  0  0
  141.8320   81.5510  222.4710 C   0  0  0  0  0  0  0  0  0  0  0  0
  140.9110   80.9220  221.4570 C   0  0  0  0  0  0  0  0  0  0  0  0
  139.8320   71.5010  223.1780 C   0  0  0  0  0  0  0  0  0  0  0  0
  139.4220   70.1890  223.0470 C   0  0  0  0  0  0  0  0  0  0  0  0
  139.5070   69.2820  224.0790 C   0  0  0  0  0  0  0  0  0  0  0  0
  140.0250   69.7280  225.2780 C   0  0  0  0  0  0  0  0  0  0  0  0
  140.1250   68.8510  226.3350 C   0  0  0  0  0  0  0  0  0  0  0  0
  140.6400   69.2740  227.5410 C   0  0  0  0  0  0  0  0  0  0  0  0
  140.7590   68.1440  228.8670 Cl  0  0  0  0  0  0  0  0  0  0  0  0
  141.0440   70.5890  227.6510 C   0  0  0  0  0  0  0  0  0  0  0  0
  140.9430   71.4700  226.5930 C   0  0  0  0  0  0  0  0  0  0  0  0
  140.4280   71.0490  225.3810 C   0  0  0  0  0  0  0  0  0  0  0  0
  140.3340   71.9160  224.3540 N   0  0  0  0  0  0  0  0  0  0  0  0
  139.5360   74.1620  223.1670 H   0  0  0  0  0  0  0  0  0  0  0  0
  139.7538   74.1379  220.1306 H   0  0  0  0  0  0  0  0  0  0  0  0
  138.3525   74.9535  220.9447 H   0  0  0  0  0  0  0  0  0  0  0  0
  139.8212   75.1156  218.7592 H   0  0  0  0  0  0  0  0  0  0  0  0
  139.9569   76.8155  218.1390 H   0  0  0  0  0  0  0  0  0  0  0  0
  141.9553   74.5882  218.1320 H   0  0  0  0  0  0  0  0  0  0  0  0
  141.5029   75.8138  216.8543 H   0  0  0  0  0  0  0  0  0  0  0  0
  143.5427   75.8857  218.9380 H   0  0  0  0  0  0  0  0  0  0  0  0
  143.3738   76.7498  217.3243 H   0  0  0  0  0  0  0  0  0  0  0  0
  143.5108   78.2287  219.2966 H   0  0  0  0  0  0  0  0  0  0  0  0
  142.0228   78.3894  218.2456 H   0  0  0  0  0  0  0  0  0  0  0  0
  142.3188   77.4336  221.0455 H   0  0  0  0  0  0  0  0  0  0  0  0
  141.1102   79.5468  219.4834 H   0  0  0  0  0  0  0  0  0  0  0  0
  139.7641   78.5354  220.1564 H   0  0  0  0  0  0  0  0  0  0  0  0
  142.2386   77.9431  222.1787 H   0  0  0  0  0  0  0  0  0  0  0  0
  143.0563   79.4752  221.7608 H   0  0  0  0  0  0  0  0  0  0  0  0
  141.4071   78.7985  224.2331 H   0  0  0  0  0  0  0  0  0  0  0  0
  143.1071   79.4034  224.1295 H   0  0  0  0  0  0  0  0  0  0  0  0
  140.5332   80.9088  224.0703 H   0  0  0  0  0  0  0  0  0  0  0  0
  142.1390   81.4341  224.6160 H   0  0  0  0  0  0  0  0  0  0  0  0
  141.6201   82.6280  222.5433 H   0  0  0  0  0  0  0  0  0  0  0  0
  142.8778   81.4082  222.1614 H   0  0  0  0  0  0  0  0  0  0  0  0
  139.8819   81.2685  221.6330 H   0  0  0  0  0  0  0  0  0  0  0  0
  141.2301   81.2122  220.4451 H   0  0  0  0  0  0  0  0  0  0  0  0
  139.0122   69.8562  222.0820 H   0  0  0  0  0  0  0  0  0  0  0  0
  139.1746   68.2410  223.9528 H   0  0  0  0  0  0  0  0  0  0  0  0
  139.7926   67.8092  226.2161 H   0  0  0  0  0  0  0  0  0  0  0  0
  141.4572   70.9444  228.6065 H   0  0  0  0  0  0  0  0  0  0  0  0
  141.2738   72.5120  226.7149 H   0  0  0  0  0  0  0  0  0  0  0  0
  1  2  2  0
  2  3  1  0
  3  4  1  0
  4  5  1  0
  5  6  2  0
  5  7  1  0
  7  8  1  0
  8  9  1  0
  9 10  1  0
 10 11  1  0
 11 12  1  0
 12 13  1  0
 13 14  1  0
 14 15  1  0
 15 16  1  0
 16 17  1  0
 17 18  1  0
 18 19  1  0
  2 20  1  0
 20 21  2  0
 21 22  1  0
 22 23  2  0
 23 24  1  0
 24 25  2  0
 25 26  1  0
 25 27  1  0
 27 28  2  0
 28 29  1  0
 29 30  2  0
 12  7  1  0
 19 14  1  0
 30 20  1  0
 29 23  1  0
  3 31  1  0
  4 32  1  0
  4 33  1  0
  8 34  1  0
  8 35  1  0
  9 36  1  0
  9 37  1  0
 10 38  1  0
 10 39  1  0
 11 40  1  0
 11 41  1  0
 12 42  1  1
 13 43  1  0
 13 44  1  0
 15 45  1  0
 15 46  1  0
 16 47  1  0
 16 48  1  0
 17 49  1  0
 17 50  1  0
 18 51  1  0
 18 52  1  0
 19 53  1  0
 19 54  1  0
 21 55  1  0
 22 56  1  0
 24 57  1  0
 27 58  1  0
 28 59  1  0
M  END
>  <smiles>  (47) 
O=C(NCC(=O)N1CCCC[C@H]1CN1CCCCC1)c1ccc2cc(Cl)ccc2n1

>  <score_type>  (47) 
oracle

>  <origin>  (47) 
autodockgpu

>  <m_score__min__energy>  (47) 
-8.6699999999999999

>  <m_primary>  (47) 
energy

>  <rmsd>  (47) 
1.835432038603674

>  <m_score__min__rmsd>  (47) 
1.835432038603674

>  <meeko>  (47) 
{"free_energy": -8.47, "intermolecular_energy": -10.26, "internal_energy": -1.84, "cluster_size": 34, "cluster_id": 1, "rank_in_cluster": 8}

>  <energy>  (47) 
-7.5

>  <cluster_rmsd>  (47) 
0.84

>  <cluster>  (47) 
5

$$$$

     RDKit          3D

 59 62  0  0  0  0  0  0  0  0999 V2000
  139.1960   71.8640  220.7610 O   0  0  0  0  0  0  0  0  0  0  0  0
  139.2930   72.3120  221.9400 C   0  0  0  0  0  0  0  0  0  0  0  0
  139.1510   73.7200  222.0930 N   0  0  0  0  0  0  0  0  0  0  0  0
  138.9090   74.5880  220.9600 C   0  0  0  0  0  0  0  0  0  0  0  0
  138.6530   75.9880  221.3830 C   0  0  0  0  0  0  0  0  0  0  0  0
  137.6580   76.2660  222.1040 O   0  0  0  0  0  0  0  0  0  0  0  0
  139.5710   76.9790  220.9400 N   0  0  0  0  0  0  0  0  0  0  0  0
  139.1840   78.1150  220.1270 C   0  0  0  0  0  0  0  0  0  0  0  0
  139.9880   78.1940  218.8530 C   0  0  0  0  0  0  0  0  0  0  0  0
  141.3820   77.6890  218.9960 C   0  0  0  0  0  0  0  0  0  0  0  0
  141.8800   77.6010  220.4070 C   0  0  0  0  0  0  0  0  0  0  0  0
  140.9630   76.8430  221.3260 C   0  0  1  0  0  0  0  0  0  0  0  0
  141.0830   77.4590  222.7040 C   0  0  0  0  0  0  0  0  0  0  0  0
  141.2100   78.9230  222.6380 N   0  0  0  0  0  0  0  0  0  0  0  0
  140.1540   79.5560  223.4070 C   0  0  0  0  0  0  0  0  0  0  0  0
  140.1180   81.0250  223.0320 C   0  0  0  0  0  0  0  0  0  0  0  0
  141.5210   81.6030  222.9620 C   0  0  0  0  0  0  0  0  0  0  0  0
  142.4120   80.6740  223.7610 C   0  0  0  0  0  0  0  0  0  0  0  0
  142.5150   79.3530  223.0440 C   0  0  0  0  0  0  0  0  0  0  0  0
  139.5360   71.4470  223.0940 C   0  0  0  0  0  0  0  0  0  0  0  0
  139.1650   70.1220  222.9970 C   0  0  0  0  0  0  0  0  0  0  0  0
  139.3500   69.2260  224.0260 C   0  0  0  0  0  0  0  0  0  0  0  0
  139.9310   69.6970  225.1840 C   0  0  0  0  0  0  0  0  0  0  0  0
  140.1330   68.8320  226.2370 C   0  0  0  0  0  0  0  0  0  0  0  0
  140.7120   69.2810  227.4030 C   0  0  0  0  0  0  0  0  0  0  0  0
  140.9590   68.1650  228.7240 Cl  0  0  0  0  0  0  0  0  0  0  0  0
  141.0760   70.6100  227.4790 C   0  0  0  0  0  0  0  0  0  0  0  0
  140.8740   71.4790  226.4260 C   0  0  0  0  0  0  0  0  0  0  0  0
  140.2940   71.0330  225.2540 C   0  0  0  0  0  0  0  0  0  0  0  0
  140.1010   71.8880  224.2320 N   0  0  0  0  0  0  0  0  0  0  0  0
  139.2300   74.1070  223.0810 H   0  0  0  0  0  0  0  0  0  0  0  0
  139.7910   74.5701  220.3030 H   0  0  0  0  0  0  0  0  0  0  0  0
  138.0159   74.2213  220.4328 H   0  0  0  0  0  0  0  0  0  0  0  0
  138.1185   78.0221  219.8701 H   0  0  0  0  0  0  0  0  0  0  0  0
  139.3733   79.0301  220.7072 H   0  0  0  0  0  0  0  0  0  0  0  0
  139.4788   77.5963  218.0827 H   0  0  0  0  0  0  0  0  0  0  0  0
  140.0563   79.2573  218.5797 H   0  0  0  0  0  0  0  0  0  0  0  0
  141.4278   76.6827  218.5541 H   0  0  0  0  0  0  0  0  0  0  0  0
  142.0281   78.4186  218.4859 H   0  0  0  0  0  0  0  0  0  0  0  0
  142.8578   77.0972  220.3992 H   0  0  0  0  0  0  0  0  0  0  0  0
  141.9407   78.6300  220.7909 H   0  0  0  0  0  0  0  0  0  0  0  0
  141.2485   75.7813  221.2914 H   0  0  0  0  0  0  0  0  0  0  0  0
  140.1853   77.2053  223.2870 H   0  0  0  0  0  0  0  0  0  0  0  0
  141.9898   77.0580  223.1803 H   0  0  0  0  0  0  0  0  0  0  0  0
  139.1876   79.0866  223.1711 H   0  0  0  0  0  0  0  0  0  0  0  0
  140.3440   79.4410  224.4843 H   0  0  0  0  0  0  0  0  0  0  0  0
  139.6346   81.1339  222.0499 H   0  0  0  0  0  0  0  0  0  0  0  0
  139.5523   81.5698  223.8022 H   0  0  0  0  0  0  0  0  0  0  0  0
  141.8608   81.6491  221.9168 H   0  0  0  0  0  0  0  0  0  0  0  0
  141.5495   82.6255  223.3667 H   0  0  0  0  0  0  0  0  0  0  0  0
  143.4133   81.1186  223.8599 H   0  0  0  0  0  0  0  0  0  0  0  0
  141.9838   80.5199  224.7625 H   0  0  0  0  0  0  0  0  0  0  0  0
  143.1553   79.4670  222.1568 H   0  0  0  0  0  0  0  0  0  0  0  0
  142.9524   78.6037  223.7202 H   0  0  0  0  0  0  0  0  0  0  0  0
  138.7042   69.7680  222.0630 H   0  0  0  0  0  0  0  0  0  0  0  0
  139.0455   68.1736  223.9277 H   0  0  0  0  0  0  0  0  0  0  0  0
  139.8305   67.7783  226.1460 H   0  0  0  0  0  0  0  0  0  0  0  0
  141.5392   70.9865  228.4029 H   0  0  0  0  0  0  0  0  0  0  0  0
  141.1764   72.5324  226.5203 H   0  0  0  0  0  0  0  0  0  0  0  0
  1  2  2  0
  2  3  1  0
  3  4  1  0
  4  5  1  0
  5  6  2  0
  5  7  1  0
  7  8  1  0
  8  9  1  0
  9 10  1  0
 10 11  1  0
 11 12  1  0
 12 13  1  0
 13 14  1  0
 14 15  1  0
 15 16  1  0
 16 17  1  0
 17 18  1  0
 18 19  1  0
  2 20  1  0
 20 21  2  0
 21 22  1  0
 22 23  2  0
 23 24  1  0
 24 25  2  0
 25 26  1  0
 25 27  1  0
 27 28  2  0
 28 29  1  0
 29 30  2  0
 12  7  1  0
 19 14  1  0
 30 20  1  0
 29 23  1  0
  3 31  1  0
  4 32  1  0
  4 33  1  0
  8 34  1  0
  8 35  1  0
  9 36  1  0
  9 37  1  0
 10 38  1  0
 10 39  1  0
 11 40  1  0
 11 41  1  0
 12 42  1  1
 13 43  1  0
 13 44  1  0
 15 45  1  0
 15 46  1  0
 16 47  1  0
 16 48  1  0
 17 49  1  0
 17 50  1  0
 18 51  1  0
 18 52  1  0
 19 53  1  0
 19 54  1  0
 21 55  1  0
 22 56  1  0
 24 57  1  0
 27 58  1  0
 28 59  1  0
M  END
>  <smiles>  (48) 
O=C(NCC(=O)N1CCCC[C@H]1CN1CCCCC1)c1ccc2cc(Cl)ccc2n1

>  <score_type>  (48) 
oracle

>  <origin>  (48) 
autodockgpu

>  <m_score__min__energy>  (48) 
-8.6699999999999999

>  <m_primary>  (48) 
energy

>  <rmsd>  (48) 
2.325984655358057

>  <m_score__min__rmsd>  (48) 
2.325984655358057

>  <meeko>  (48) 
{"free_energy": -8.52, "intermolecular_energy": -10.31, "internal_energy": -1.82, "cluster_size": 34, "cluster_id": 1, "rank_in_cluster": 6}

>  <energy>  (48) 
-6.23

>  <cluster_rmsd>  (48) 
0.0

>  <cluster>  (48) 
6

$$$$

     RDKit          3D

 59 62  0  0  0  0  0  0  0  0999 V2000
  140.0500   72.4410  220.7610 O   0  0  0  0  0  0  0  0  0  0  0  0
  139.8280   72.7960  221.9540 C   0  0  0  0  0  0  0  0  0  0  0  0
  139.4580   74.1570  222.1490 N   0  0  0  0  0  0  0  0  0  0  0  0
  139.3440   75.0810  221.0390 C   0  0  0  0  0  0  0  0  0  0  0  0
  139.2410   76.4880  221.5020 C   0  0  0  0  0  0  0  0  0  0  0  0
  138.8550   76.7490  222.6720 O   0  0  0  0  0  0  0  0  0  0  0  0
  139.5940   77.5040  220.5720 N   0  0  0  0  0  0  0  0  0  0  0  0
  138.7760   78.6770  220.3280 C   0  0  0  0  0  0  0  0  0  0  0  0
  138.4250   78.8220  218.8680 C   0  0  0  0  0  0  0  0  0  0  0  0
  139.4830   78.3180  217.9480 C   0  0  0  0  0  0  0  0  0  0  0  0
  140.8380   78.1650  218.5680 C   0  0  0  0  0  0  0  0  0  0  0  0
  140.8360   77.3580  219.8360 C   0  0  1  0  0  0  0  0  0  0  0  0
  141.9270   77.9050  220.7320 C   0  0  0  0  0  0  0  0  0  0  0  0
  141.4180   78.9480  221.6350 N   0  0  0  0  0  0  0  0  0  0  0  0
  141.4480   78.4850  223.0100 C   0  0  0  0  0  0  0  0  0  0  0  0
  140.6110   79.4350  223.8440 C   0  0  0  0  0  0  0  0  0  0  0  0
  140.8980   80.8810  223.4750 C   0  0  0  0  0  0  0  0  0  0  0  0
  142.2450   80.8910  222.7830 C   0  0  0  0  0  0  0  0  0  0  0  0
  142.1240   80.1830  221.4580 C   0  0  0  0  0  0  0  0  0  0  0  0
  139.9380   71.8750  223.0840 C   0  0  0  0  0  0  0  0  0  0  0  0
  139.5240   70.5710  222.8980 C   0  0  0  0  0  0  0  0  0  0  0  0
  139.5860   69.6260  223.8970 C   0  0  0  0  0  0  0  0  0  0  0  0
  140.0860   70.0240  225.1190 C   0  0  0  0  0  0  0  0  0  0  0  0
  140.1640   69.1090  226.1450 C   0  0  0  0  0  0  0  0  0  0  0  0
  140.6600   69.4830  227.3740 C   0  0  0  0  0  0  0  0  0  0  0  0
  140.7510   68.3040  228.6590 Cl  0  0  0  0  0  0  0  0  0  0  0  0
  141.0690   70.7910  227.5400 C   0  0  0  0  0  0  0  0  0  0  0  0
  140.9910   71.7110  226.5140 C   0  0  0  0  0  0  0  0  0  0  0  0
  140.4940   71.3390  225.2790 C   0  0  0  0  0  0  0  0  0  0  0  0
  140.4220   72.2440  224.2830 N   0  0  0  0  0  0  0  0  0  0  0  0
  139.2690   74.4660  223.1490 H   0  0  0  0  0  0  0  0  0  0  0  0
  140.2332   74.9807  220.3993 H   0  0  0  0  0  0  0  0  0  0  0  0
  138.4274   74.8359  220.4825 H   0  0  0  0  0  0  0  0  0  0  0  0
  137.8470   78.5906  220.9106 H   0  0  0  0  0  0  0  0  0  0  0  0
  139.3517   79.5641  220.6308 H   0  0  0  0  0  0  0  0  0  0  0  0
  137.4995   78.2596  218.6752 H   0  0  0  0  0  0  0  0  0  0  0  0
  138.3096   79.8977  218.6689 H   0  0  0  0  0  0  0  0  0  0  0  0
  139.1671   77.3344  217.5703 H   0  0  0  0  0  0  0  0  0  0  0  0
  139.5896   79.0747  217.1568 H   0  0  0  0  0  0  0  0  0  0  0  0
  141.4979   77.6683  217.8415 H   0  0  0  0  0  0  0  0  0  0  0  0
  141.1865   79.1747  218.8308 H   0  0  0  0  0  0  0  0  0  0  0  0
  140.9778   76.3012  219.5658 H   0  0  0  0  0  0  0  0  0  0  0  0
  142.3393   77.0822  221.3345 H   0  0  0  0  0  0  0  0  0  0  0  0
  142.7023   78.3532  220.0933 H   0  0  0  0  0  0  0  0  0  0  0  0
  141.0310   77.4689  223.0707 H   0  0  0  0  0  0  0  0  0  0  0  0
  142.4829   78.4611  223.3821 H   0  0  0  0  0  0  0  0  0  0  0  0
  139.5457   79.2238  223.6693 H   0  0  0  0  0  0  0  0  0  0  0  0
  140.8644   79.2869  224.9041 H   0  0  0  0  0  0  0  0  0  0  0  0
  140.1199   81.2614  222.7968 H   0  0  0  0  0  0  0  0  0  0  0  0
  140.9052   81.5244  224.3672 H   0  0  0  0  0  0  0  0  0  0  0  0
  142.5664   81.9299  222.6175 H   0  0  0  0  0  0  0  0  0  0  0  0
  142.9881   80.3777  223.4110 H   0  0  0  0  0  0  0  0  0  0  0  0
  141.5737   80.8211  220.7509 H   0  0  0  0  0  0  0  0  0  0  0  0
  143.1289   79.9756  221.0617 H   0  0  0  0  0  0  0  0  0  0  0  0
  139.1297   70.2761  221.9143 H   0  0  0  0  0  0  0  0  0  0  0  0
  139.2495   68.5926  223.7270 H   0  0  0  0  0  0  0  0  0  0  0  0
  139.8285   68.0742  225.9821 H   0  0  0  0  0  0  0  0  0  0  0  0
  141.4673   71.1082  228.5150 H   0  0  0  0  0  0  0  0  0  0  0  0
  141.3260   72.7455  226.6800 H   0  0  0  0  0  0  0  0  0  0  0  0
  1  2  2  0
  2  3  1  0
  3  4  1  0
  4  5  1  0
  5  6  2  0
  5  7  1  0
  7  8  1  0
  8  9  1  0
  9 10  1  0
 10 11  1  0
 11 12  1  0
 12 13  1  0
 13 14  1  0
 14 15  1  0
 15 16  1  0
 16 17  1  0
 17 18  1  0
 18 19  1  0
  2 20  1  0
 20 21  2  0
 21 22  1  0
 22 23  2  0
 23 24  1  0
 24 25  2  0
 25 26  1  0
 25 27  1  0
 27 28  2  0
 28 29  1  0
 29 30  2  0
 12  7  1  0
 19 14  1  0
 30 20  1  0
 29 23  1  0
  3 31  1  0
  4 32  1  0
  4 33  1  0
  8 34  1  0
  8 35  1  0
  9 36  1  0
  9 37  1  0
 10 38  1  0
 10 39  1  0
 11 40  1  0
 11 41  1  0
 12 42  1  6
 13 43  1  0
 13 44  1  0
 15 45  1  0
 15 46  1  0
 16 47  1  0
 16 48  1  0
 17 49  1  0
 17 50  1  0
 18 51  1  0
 18 52  1  0
 19 53  1  0
 19 54  1  0
 21 55  1  0
 22 56  1  0
 24 57  1  0
 27 58  1  0
 28 59  1  0
M  END
>  <smiles>  (49) 
O=C(NCC(=O)N1CCCC[C@H]1CN1CCCCC1)c1ccc2cc(Cl)ccc2n1

>  <score_type>  (49) 
oracle

>  <origin>  (49) 
autodockgpu

>  <m_score__min__energy>  (49) 
-8.6699999999999999

>  <m_primary>  (49) 
energy

>  <rmsd>  (49) 
2.3766948927231923

>  <m_score__min__rmsd>  (49) 
2.3766948927231923

>  <meeko>  (49) 
{"free_energy": -7.91, "intermolecular_energy": -9.7, "internal_energy": -2.19, "cluster_size": 34, "cluster_id": 1, "rank_in_cluster": 23}

>  <energy>  (49) 
-6.22

>  <cluster_rmsd>  (49) 
0.03

>  <cluster>  (49) 
6

$$$$

     RDKit          3D

 59 62  0  0  0  0  0  0  0  0999 V2000
  141.1730   72.7780  221.4670 O   0  0  0  0  0  0  0  0  0  0  0  0
  140.2790   72.8070  222.3630 C   0  0  0  0  0  0  0  0  0  0  0  0
  139.2890   73.8200  222.2320 N   0  0  0  0  0  0  0  0  0  0  0  0
  139.3060   74.7640  221.1330 C   0  0  0  0  0  0  0  0  0  0  0  0
  140.4520   75.7040  221.2320 C   0  0  0  0  0  0  0  0  0  0  0  0
  140.9610   75.9760  222.3510 O   0  0  0  0  0  0  0  0  0  0  0  0
  140.9340   76.2680  220.0190 N   0  0  0  0  0  0  0  0  0  0  0  0
  140.6820   75.6840  218.7150 C   0  0  0  0  0  0  0  0  0  0  0  0
  141.9620   75.4180  217.9620 C   0  0  0  0  0  0  0  0  0  0  0  0
  143.0420   76.4000  218.2580 C   0  0  0  0  0  0  0  0  0  0  0  0
  142.5780   77.6820  218.8790 C   0  0  0  0  0  0  0  0  0  0  0  0
  141.7150   77.4880  220.0950 C   0  0  1  0  0  0  0  0  0  0  0  0
  140.7190   78.6270  220.1370 C   0  0  0  0  0  0  0  0  0  0  0  0
  140.8390   79.4090  221.3770 N   0  0  0  0  0  0  0  0  0  0  0  0
  139.9350   78.8930  222.3890 C   0  0  0  0  0  0  0  0  0  0  0  0
  139.8420   79.9190  223.5020 C   0  0  0  0  0  0  0  0  0  0  0  0
  141.2150   80.4690  223.8520 C   0  0  0  0  0  0  0  0  0  0  0  0
  142.2260   79.4640  223.3380 C   0  0  0  0  0  0  0  0  0  0  0  0
  142.1970   79.4620  221.8320 C   0  0  0  0  0  0  0  0  0  0  0  0
  140.2490   71.8610  223.4770 C   0  0  0  0  0  0  0  0  0  0  0  0
  139.7290   70.6040  223.2430 C   0  0  0  0  0  0  0  0  0  0  0  0
  139.6550   69.6410  224.2230 C   0  0  0  0  0  0  0  0  0  0  0  0
  140.1270   69.9710  225.4770 C   0  0  0  0  0  0  0  0  0  0  0  0
  140.0710   69.0350  226.4850 C   0  0  0  0  0  0  0  0  0  0  0  0
  140.5360   69.3420  227.7450 C   0  0  0  0  0  0  0  0  0  0  0  0
  140.4560   68.1370  229.0080 Cl  0  0  0  0  0  0  0  0  0  0  0  0
  141.0530   70.6040  227.9580 C   0  0  0  0  0  0  0  0  0  0  0  0
  141.1100   71.5440  226.9490 C   0  0  0  0  0  0  0  0  0  0  0  0
  140.6440   71.2390  225.6840 C   0  0  0  0  0  0  0  0  0  0  0  0
  140.7040   72.1640  224.7060 N   0  0  0  0  0  0  0  0  0  0  0  0
  138.5330   73.8540  222.9790 H   0  0  0  0  0  0  0  0  0  0  0  0
  139.3821   74.2080  220.1869 H   0  0  0  0  0  0  0  0  0  0  0  0
  138.3769   75.3516  221.1721 H   0  0  0  0  0  0  0  0  0  0  0  0
  140.1438   74.7340  218.8486 H   0  0  0  0  0  0  0  0  0  0  0  0
  140.0844   76.3990  218.1305 H   0  0  0  0  0  0  0  0  0  0  0  0
  142.3216   74.4138  218.2309 H   0  0  0  0  0  0  0  0  0  0  0  0
  141.7304   75.5059  216.8903 H   0  0  0  0  0  0  0  0  0  0  0  0
  143.7555   75.9253  218.9475 H   0  0  0  0  0  0  0  0  0  0  0  0
  143.4862   76.6705  217.2887 H   0  0  0  0  0  0  0  0  0  0  0  0
  143.4629   78.2665  219.1711 H   0  0  0  0  0  0  0  0  0  0  0  0
  141.9626   78.1984  218.1276 H   0  0  0  0  0  0  0  0  0  0  0  0
  142.3728   77.4453  220.9756 H   0  0  0  0  0  0  0  0  0  0  0  0
  140.8996   79.2903  219.2783 H   0  0  0  0  0  0  0  0  0  0  0  0
  139.7065   78.1988  220.0982 H   0  0  0  0  0  0  0  0  0  0  0  0
  138.9399   78.7266  221.9507 H   0  0  0  0  0  0  0  0  0  0  0  0
  140.3081   77.9358  222.7821 H   0  0  0  0  0  0  0  0  0  0  0  0
  139.1956   80.7468  223.1751 H   0  0  0  0  0  0  0  0  0  0  0  0
  139.4221   79.4312  224.3940 H   0  0  0  0  0  0  0  0  0  0  0  0
  141.3685   81.4442  223.3669 H   0  0  0  0  0  0  0  0  0  0  0  0
  141.3188   80.6177  224.9370 H   0  0  0  0  0  0  0  0  0  0  0  0
  143.2316   79.7418  223.6867 H   0  0  0  0  0  0  0  0  0  0  0  0
  141.9762   78.4612  223.7148 H   0  0  0  0  0  0  0  0  0  0  0  0
  142.6736   80.3791  221.4555 H   0  0  0  0  0  0  0  0  0  0  0  0
  142.7422   78.5831  221.4575 H   0  0  0  0  0  0  0  0  0  0  0  0
  139.3599   70.3631  222.2352 H   0  0  0  0  0  0  0  0  0  0  0  0
  139.2354   68.6457  224.0147 H   0  0  0  0  0  0  0  0  0  0  0  0
  139.6531   68.0376  226.2835 H   0  0  0  0  0  0  0  0  0  0  0  0
  141.4292   70.8673  228.9576 H   0  0  0  0  0  0  0  0  0  0  0  0
  141.5283   72.5408  227.1526 H   0  0  0  0  0  0  0  0  0  0  0  0
  1  2  2  0
  2  3  1  0
  3  4  1  0
  4  5  1  0
  5  6  2  0
  5  7  1  0
  7  8  1  0
  8  9  1  0
  9 10  1  0
 10 11  1  0
 11 12  1  0
 12 13  1  0
 13 14  1  0
 14 15  1  0
 15 16  1  0
 16 17  1  0
 17 18  1  0
 18 19  1  0
  2 20  1  0
 20 21  2  0
 21 22  1  0
 22 23  2  0
 23 24  1  0
 24 25  2  0
 25 26  1  0
 25 27  1  0
 27 28  2  0
 28 29  1  0
 29 30  2  0
 12  7  1  0
 19 14  1  0
 30 20  1  0
 29 23  1  0
  3 31  1  0
  4 32  1  0
  4 33  1  0
  8 34  1  0
  8 35  1  0
  9 36  1  0
  9 37  1  0
 10 38  1  0
 10 39  1  0
 11 40  1  0
 11 41  1  0
 12 42  1  1
 13 43  1  0
 13 44  1  0
 15 45  1  0
 15 46  1  0
 16 47  1  0
 16 48  1  0
 17 49  1  0
 17 50  1  0
 18 51  1  0
 18 52  1  0
 19 53  1  0
 19 54  1  0
 21 55  1  0
 22 56  1  0
 24 57  1  0
 27 58  1  0
 28 59  1  0
M  END
>  <smiles>  (50) 
O=C(NCC(=O)N1CCCC[C@H]1CN1CCCCC1)c1ccc2cc(Cl)ccc2n1

>  <score_type>  (50) 
oracle

>  <origin>  (50) 
autodockgpu

>  <m_score__min__energy>  (50) 
-8.6699999999999999

>  <m_primary>  (50) 
energy

>  <rmsd>  (50) 
2.160829785829556

>  <m_score__min__rmsd>  (50) 
2.160829785829556

>  <meeko>  (50) 
{"free_energy": -8.32, "intermolecular_energy": -10.11, "internal_energy": -1.7, "cluster_size": 34, "cluster_id": 1, "rank_in_cluster": 14}

>  <energy>  (50) 
-6.19

>  <cluster_rmsd>  (50) 
0.0

>  <cluster>  (50) 
7

$$$$
