
     RDKit          3D

 56 59  0  0  0  0  0  0  0  0999 V2000
  140.5040   77.6570  218.9930 O   0  0  0  0  0  0  0  0  0  0  0  0
  141.7810   77.6080  218.9250 C   0  0  0  0  0  0  0  0  0  0  0  0
  142.5760   78.7900  218.9150 N   0  0  0  0  0  0  0  0  0  0  0  0
  142.0380   80.0860  218.9880 C   0  0  0  0  0  0  0  0  0  0  0  0
  141.2530   80.5080  220.1380 C   0  0  0  0  0  0  0  0  0  0  0  0
  140.1760   81.1770  219.8280 O   0  0  0  0  0  0  0  0  0  0  0  0
  141.5470   80.2670  221.5190 N   0  0  0  0  0  0  0  0  0  0  0  0
  141.9340   81.1670  222.5610 C   0  0  0  0  0  0  0  0  0  0  0  0
  141.4460   80.4390  223.8290 C   0  0  0  0  0  0  0  0  0  0  0  0
  141.9390   79.0330  223.4960 C   0  0  0  0  0  0  0  0  0  0  0  0
  141.4650   78.8830  222.0490 C   0  0  1  0  0  0  0  0  0  0  0  0
  140.0170   78.4400  222.0340 C   0  0  0  0  0  0  0  0  0  0  0  0
  139.9870   77.0440  222.4050 N   0  0  0  0  0  0  0  0  0  0  0  0
  141.0770   76.2650  221.9940 C   0  0  0  0  0  0  0  0  0  0  0  0
  140.7990   74.8700  221.5390 C   0  0  0  0  0  0  0  0  0  0  0  0
  139.5780   74.9130  220.6390 C   0  0  0  0  0  0  0  0  0  0  0  0
  138.4380   75.2880  221.5670 C   0  0  0  0  0  0  0  0  0  0  0  0
  138.6990   76.4680  222.4200 C   0  0  0  0  0  0  0  0  0  0  0  0
  142.4280   76.2980  218.8600 C   0  0  0  0  0  0  0  0  0  0  0  0
  142.0430   75.3730  217.9140 C   0  0  0  0  0  0  0  0  0  0  0  0
  142.6110   74.1250  217.7960 C   0  0  0  0  0  0  0  0  0  0  0  0
  143.6180   73.8120  218.6860 C   0  0  0  0  0  0  0  0  0  0  0  0
  144.1860   72.5630  218.5700 C   0  0  0  0  0  0  0  0  0  0  0  0
  145.1960   72.1930  219.4310 C   0  0  0  0  0  0  0  0  0  0  0  0
  145.9330   70.5950  219.2900 Cl  0  0  0  0  0  0  0  0  0  0  0  0
  145.6050   73.0960  220.3870 C   0  0  0  0  0  0  0  0  0  0  0  0
  145.0210   74.3600  220.4960 C   0  0  0  0  0  0  0  0  0  0  0  0
  144.0110   74.7340  219.6370 C   0  0  0  0  0  0  0  0  0  0  0  0
  143.4270   75.9560  219.7240 N   0  0  0  0  0  0  0  0  0  0  0  0
  143.6180   78.6460  218.8480 H   0  0  0  0  0  0  0  0  0  0  0  0
  142.8872   80.7816  218.9168 H   0  0  0  0  0  0  0  0  0  0  0  0
  141.2962   80.0859  218.1758 H   0  0  0  0  0  0  0  0  0  0  0  0
  143.0247   81.3089  222.5790 H   0  0  0  0  0  0  0  0  0  0  0  0
  141.5141   82.1772  222.4463 H   0  0  0  0  0  0  0  0  0  0  0  0
  141.9161   80.8366  224.7405 H   0  0  0  0  0  0  0  0  0  0  0  0
  140.3706   80.5269  224.0428 H   0  0  0  0  0  0  0  0  0  0  0  0
  143.0342   78.9624  223.5702 H   0  0  0  0  0  0  0  0  0  0  0  0
  141.5656   78.2524  224.1752 H   0  0  0  0  0  0  0  0  0  0  0  0
  142.0516   78.1508  221.4747 H   0  0  0  0  0  0  0  0  0  0  0  0
  139.4352   79.0330  222.7550 H   0  0  0  0  0  0  0  0  0  0  0  0
  139.5772   78.5857  221.0363 H   0  0  0  0  0  0  0  0  0  0  0  0
  141.5621   76.7925  221.1595 H   0  0  0  0  0  0  0  0  0  0  0  0
  141.6914   76.1459  222.8986 H   0  0  0  0  0  0  0  0  0  0  0  0
  141.6624   74.4790  220.9807 H   0  0  0  0  0  0  0  0  0  0  0  0
  140.6186   74.2120  222.4019 H   0  0  0  0  0  0  0  0  0  0  0  0
  139.7025   75.6693  219.8500 H   0  0  0  0  0  0  0  0  0  0  0  0
  139.4025   73.9567  220.1246 H   0  0  0  0  0  0  0  0  0  0  0  0
  137.5507   75.4991  220.9521 H   0  0  0  0  0  0  0  0  0  0  0  0
  138.2988   74.4360  222.2488 H   0  0  0  0  0  0  0  0  0  0  0  0
  137.9904   77.2517  222.1139 H   0  0  0  0  0  0  0  0  0  0  0  0
  138.5898   76.0853  223.4455 H   0  0  0  0  0  0  0  0  0  0  0  0
  141.2385   75.6468  217.2156 H   0  0  0  0  0  0  0  0  0  0  0  0
  142.2780   73.4108  217.0285 H   0  0  0  0  0  0  0  0  0  0  0  0
  143.8357   71.8653  217.7951 H   0  0  0  0  0  0  0  0  0  0  0  0
  146.4107   72.8151  221.0812 H   0  0  0  0  0  0  0  0  0  0  0  0
  145.3687   75.0594  221.2705 H   0  0  0  0  0  0  0  0  0  0  0  0
  1  2  2  0
  2  3  1  0
  3  4  1  0
  4  5  1  0
  5  6  2  0
  5  7  1  0
  7  8  1  0
  8  9  1  0
  9 10  1  0
 10 11  1  0
 11 12  1  0
 12 13  1  0
 13 14  1  0
 14 15  1  0
 15 16  1  0
 16 17  1  0
 17 18  1  0
  2 19  1  0
 19 20  2  0
 20 21  1  0
 21 22  2  0
 22 23  1  0
 23 24  2  0
 24 25  1  0
 24 26  1  0
 26 27  2  0
 27 28  1  0
 28 29  2  0
 11  7  1  0
 18 13  1  0
 29 19  1  0
 28 22  1  0
  3 30  1  0
  4 31  1  0
  4 32  1  0
  8 33  1  0
  8 34  1  0
  9 35  1  0
  9 36  1  0
 10 37  1  0
 10 38  1  0
 11 39  1  6
 12 40  1  0
 12 41  1  0
 14 42  1  0
 14 43  1  0
 15 44  1  0
 15 45  1  0
 16 46  1  0
 16 47  1  0
 17 48  1  0
 17 49  1  0
 18 50  1  0
 18 51  1  0
 20 52  1  0
 21 53  1  0
 23 54  1  0
 26 55  1  0
 27 56  1  0
M  END
>  <smiles>  (1) 
O=C(NCC(=O)N1CCC[C@H]1CN1CCCCC1)c1ccc2cc(Cl)ccc2n1

>  <score_type>  (1) 
oracle

>  <origin>  (1) 
autodockgpu

>  <m_score__min__energy>  (1) 
-8.3900000000000006

>  <m_primary>  (1) 
energy

>  <rmsd>  (1) 
7.550895034305316

>  <m_score__min__rmsd>  (1) 
7.550895034305316

>  <meeko>  (1) 
{"free_energy": -6.24, "intermolecular_energy": -8.02, "internal_energy": -2.73, "cluster_size": 1, "cluster_id": 5, "rank_in_cluster": 1}

>  <energy>  (1) 
-8.39

>  <cluster_rmsd>  (1) 
0.0

>  <cluster>  (1) 
1

$$$$

     RDKit          3D

 56 59  0  0  0  0  0  0  0  0999 V2000
  140.0070   72.2690  220.6920 O   0  0  0  0  0  0  0  0  0  0  0  0
  139.8600   72.7410  221.8720 C   0  0  0  0  0  0  0  0  0  0  0  0
  139.6160   74.1260  222.0990 N   0  0  0  0  0  0  0  0  0  0  0  0
  139.5060   75.0730  221.0670 C   0  0  0  0  0  0  0  0  0  0  0  0
  140.2750   76.3070  221.0970 C   0  0  0  0  0  0  0  0  0  0  0  0
  140.2900   76.8930  222.2630 O   0  0  0  0  0  0  0  0  0  0  0  0
  140.9830   76.9110  220.0070 N   0  0  0  0  0  0  0  0  0  0  0  0
  140.9610   78.2510  219.5090 C   0  0  0  0  0  0  0  0  0  0  0  0
  142.3450   78.3820  218.8450 C   0  0  0  0  0  0  0  0  0  0  0  0
  142.3780   77.0480  218.1050 C   0  0  0  0  0  0  0  0  0  0  0  0
  141.9170   76.0850  219.2020 C   0  0  1  0  0  0  0  0  0  0  0  0
  143.0980   75.7000  220.0670 C   0  0  0  0  0  0  0  0  0  0  0  0
  143.6310   74.4620  219.5470 N   0  0  0  0  0  0  0  0  0  0  0  0
  142.6950   73.5090  219.1180 C   0  0  0  0  0  0  0  0  0  0  0  0
  142.9880   72.0730  219.4030 C   0  0  0  0  0  0  0  0  0  0  0  0
  143.4950   71.9800  220.8300 C   0  0  0  0  0  0  0  0  0  0  0  0
  144.8370   72.6850  220.8020 C   0  0  0  0  0  0  0  0  0  0  0  0
  144.8170   74.0230  220.1720 C   0  0  0  0  0  0  0  0  0  0  0  0
  139.9450   71.8240  223.0090 C   0  0  0  0  0  0  0  0  0  0  0  0
  139.5260   70.5170  222.8870 C   0  0  0  0  0  0  0  0  0  0  0  0
  139.5800   69.6030  223.9150 C   0  0  0  0  0  0  0  0  0  0  0  0
  140.0870   70.0470  225.1190 C   0  0  0  0  0  0  0  0  0  0  0  0
  140.1420   69.1340  226.1470 C   0  0  0  0  0  0  0  0  0  0  0  0
  140.6370   69.5200  227.3730 C   0  0  0  0  0  0  0  0  0  0  0  0
  140.7130   68.3560  228.6990 Cl  0  0  0  0  0  0  0  0  0  0  0  0
  141.0660   70.8200  227.5270 C   0  0  0  0  0  0  0  0  0  0  0  0
  141.0060   71.7380  226.4770 C   0  0  0  0  0  0  0  0  0  0  0  0
  140.5110   71.3560  225.2490 C   0  0  0  0  0  0  0  0  0  0  0  0
  140.4410   72.2310  224.2130 N   0  0  0  0  0  0  0  0  0  0  0  0
  139.5180   74.4200  223.1070 H   0  0  0  0  0  0  0  0  0  0  0  0
  139.7822   74.5551  220.1367 H   0  0  0  0  0  0  0  0  0  0  0  0
  138.4714   75.4303  221.1762 H   0  0  0  0  0  0  0  0  0  0  0  0
  140.1532   78.3893  218.7752 H   0  0  0  0  0  0  0  0  0  0  0  0
  140.7747   79.0054  220.2876 H   0  0  0  0  0  0  0  0  0  0  0  0
  142.3931   79.2380  218.1558 H   0  0  0  0  0  0  0  0  0  0  0  0
  143.1850   78.5647  219.5313 H   0  0  0  0  0  0  0  0  0  0  0  0
  141.6864   77.0448  217.2496 H   0  0  0  0  0  0  0  0  0  0  0  0
  143.3567   76.7988  217.6689 H   0  0  0  0  0  0  0  0  0  0  0  0
  141.4685   75.1611  218.8079 H   0  0  0  0  0  0  0  0  0  0  0  0
  143.8661   76.4864  220.0258 H   0  0  0  0  0  0  0  0  0  0  0  0
  142.7875   75.5785  221.1153 H   0  0  0  0  0  0  0  0  0  0  0  0
  141.7357   73.7506  219.5991 H   0  0  0  0  0  0  0  0  0  0  0  0
  142.7052   73.5829  218.0205 H   0  0  0  0  0  0  0  0  0  0  0  0
  142.0720   71.4744  219.2911 H   0  0  0  0  0  0  0  0  0  0  0  0
  143.7413   71.6867  218.7006 H   0  0  0  0  0  0  0  0  0  0  0  0
  142.8047   72.4850  221.5217 H   0  0  0  0  0  0  0  0  0  0  0  0
  143.5758   70.9398  221.1785 H   0  0  0  0  0  0  0  0  0  0  0  0
  145.1862   72.7992  221.8388 H   0  0  0  0  0  0  0  0  0  0  0  0
  145.5037   72.0615  220.1882 H   0  0  0  0  0  0  0  0  0  0  0  0
  145.0580   74.7540  220.9578 H   0  0  0  0  0  0  0  0  0  0  0  0
  145.5379   73.9387  219.3454 H   0  0  0  0  0  0  0  0  0  0  0  0
  139.1272   70.1864  221.9166 H   0  0  0  0  0  0  0  0  0  0  0  0
  139.2350   68.5669  223.7827 H   0  0  0  0  0  0  0  0  0  0  0  0
  139.7929   68.1026  225.9907 H   0  0  0  0  0  0  0  0  0  0  0  0
  141.4652   71.1422  228.5001 H   0  0  0  0  0  0  0  0  0  0  0  0
  141.3550   72.7698  226.6304 H   0  0  0  0  0  0  0  0  0  0  0  0
  1  2  2  0
  2  3  1  0
  3  4  1  0
  4  5  1  0
  5  6  2  0
  5  7  1  0
  7  8  1  0
  8  9  1  0
  9 10  1  0
 10 11  1  0
 11 12  1  0
 12 13  1  0
 13 14  1  0
 14 15  1  0
 15 16  1  0
 16 17  1  0
 17 18  1  0
  2 19  1  0
 19 20  2  0
 20 21  1  0
 21 22  2  0
 22 23  1  0
 23 24  2  0
 24 25  1  0
 24 26  1  0
 26 27  2  0
 27 28  1  0
 28 29  2  0
 11  7  1  0
 18 13  1  0
 29 19  1  0
 28 22  1  0
  3 30  1  0
  4 31  1  0
  4 32  1  0
  8 33  1  0
  8 34  1  0
  9 35  1  0
  9 36  1  0
 10 37  1  0
 10 38  1  0
 11 39  1  6
 12 40  1  0
 12 41  1  0
 14 42  1  0
 14 43  1  0
 15 44  1  0
 15 45  1  0
 16 46  1  0
 16 47  1  0
 17 48  1  0
 17 49  1  0
 18 50  1  0
 18 51  1  0
 20 52  1  0
 21 53  1  0
 23 54  1  0
 26 55  1  0
 27 56  1  0
M  END
>  <smiles>  (2) 
O=C(NCC(=O)N1CCC[C@H]1CN1CCCCC1)c1ccc2cc(Cl)ccc2n1

>  <score_type>  (2) 
oracle

>  <origin>  (2) 
autodockgpu

>  <m_score__min__energy>  (2) 
-8.3900000000000006

>  <m_primary>  (2) 
energy

>  <rmsd>  (2) 
4.431731587865

>  <m_score__min__rmsd>  (2) 
4.431731587865

>  <meeko>  (2) 
{"free_energy": -7.49, "intermolecular_energy": -9.28, "internal_energy": -2.21, "cluster_size": 5, "cluster_id": 4, "rank_in_cluster": 3}

>  <energy>  (2) 
-8.33

>  <cluster_rmsd>  (2) 
0.23

>  <cluster>  (2) 
1

$$$$

     RDKit          3D

 56 59  0  0  0  0  0  0  0  0999 V2000
  139.2910   72.7210  220.4630 O   0  0  0  0  0  0  0  0  0  0  0  0
  140.1390   72.8520  221.4120 C   0  0  0  0  0  0  0  0  0  0  0  0
  141.1880   73.8130  221.3520 N   0  0  0  0  0  0  0  0  0  0  0  0
  141.3730   74.6920  220.2710 C   0  0  0  0  0  0  0  0  0  0  0  0
  140.5870   75.9100  220.1540 C   0  0  0  0  0  0  0  0  0  0  0  0
  140.8620   76.6180  219.0920 O   0  0  0  0  0  0  0  0  0  0  0  0
  139.5850   76.3830  221.0620 N   0  0  0  0  0  0  0  0  0  0  0  0
  138.3160   75.8300  221.4220 C   0  0  0  0  0  0  0  0  0  0  0  0
  138.0890   76.4070  222.8330 C   0  0  0  0  0  0  0  0  0  0  0  0
  138.5030   77.8510  222.5640 C   0  0  0  0  0  0  0  0  0  0  0  0
  139.8130   77.6510  221.7980 C   0  0  1  0  0  0  0  0  0  0  0  0
  140.9470   77.4490  222.7800 C   0  0  0  0  0  0  0  0  0  0  0  0
  141.8370   78.5800  222.6540 N   0  0  0  0  0  0  0  0  0  0  0  0
  142.0520   79.3390  223.8140 C   0  0  0  0  0  0  0  0  0  0  0  0
  142.1550   80.8210  223.6620 C   0  0  0  0  0  0  0  0  0  0  0  0
  141.0540   81.2650  222.7170 C   0  0  0  0  0  0  0  0  0  0  0  0
  141.4480   80.6780  221.3760 C   0  0  0  0  0  0  0  0  0  0  0  0
  141.7800   79.2360  221.4060 C   0  0  0  0  0  0  0  0  0  0  0  0
  140.0150   71.9870  222.5850 C   0  0  0  0  0  0  0  0  0  0  0  0
  139.2160   70.8650  222.5460 C   0  0  0  0  0  0  0  0  0  0  0  0
  139.0560   70.0080  223.6120 C   0  0  0  0  0  0  0  0  0  0  0  0
  139.7460   70.3150  224.7670 C   0  0  0  0  0  0  0  0  0  0  0  0
  139.5860   69.4590  225.8340 C   0  0  0  0  0  0  0  0  0  0  0  0
  140.2490   69.7140  227.0150 C   0  0  0  0  0  0  0  0  0  0  0  0
  140.0540   68.6230  228.3890 Cl  0  0  0  0  0  0  0  0  0  0  0  0
  141.0570   70.8280  227.0850 C   0  0  0  0  0  0  0  0  0  0  0  0
  141.2110   71.6880  225.9970 C   0  0  0  0  0  0  0  0  0  0  0  0
  140.5500   71.4380  224.8140 C   0  0  0  0  0  0  0  0  0  0  0  0
  140.6830   72.2610  223.7430 N   0  0  0  0  0  0  0  0  0  0  0  0
  141.8410   73.8380  222.1790 H   0  0  0  0  0  0  0  0  0  0  0  0
  142.4282   75.0018  220.2966 H   0  0  0  0  0  0  0  0  0  0  0  0
  141.0269   74.0970  219.4130 H   0  0  0  0  0  0  0  0  0  0  0  0
  137.5283   76.1571  220.7273 H   0  0  0  0  0  0  0  0  0  0  0  0
  138.2912   74.7308  221.3885 H   0  0  0  0  0  0  0  0  0  0  0  0
  137.0375   76.3301  223.1467 H   0  0  0  0  0  0  0  0  0  0  0  0
  138.6306   75.9011  223.6459 H   0  0  0  0  0  0  0  0  0  0  0  0
  137.7552   78.3768  221.9521 H   0  0  0  0  0  0  0  0  0  0  0  0
  138.6010   78.4672  223.4699 H   0  0  0  0  0  0  0  0  0  0  0  0
  140.0713   78.5016  221.1500 H   0  0  0  0  0  0  0  0  0  0  0  0
  140.5512   77.3949  223.8049 H   0  0  0  0  0  0  0  0  0  0  0  0
  141.4805   76.5106  222.5682 H   0  0  0  0  0  0  0  0  0  0  0  0
  141.2161   79.1359  224.4996 H   0  0  0  0  0  0  0  0  0  0  0  0
  143.0436   79.0257  224.1727 H   0  0  0  0  0  0  0  0  0  0  0  0
  142.0281   81.3077  224.6403 H   0  0  0  0  0  0  0  0  0  0  0  0
  143.1413   81.0999  223.2628 H   0  0  0  0  0  0  0  0  0  0  0  0
  140.0796   80.8719  223.0427 H   0  0  0  0  0  0  0  0  0  0  0  0
  140.9488   82.3594  222.6808 H   0  0  0  0  0  0  0  0  0  0  0  0
  140.6092   80.8221  220.6791 H   0  0  0  0  0  0  0  0  0  0  0  0
  142.3640   81.2014  221.0646 H   0  0  0  0  0  0  0  0  0  0  0  0
  141.0220   78.7165  220.8014 H   0  0  0  0  0  0  0  0  0  0  0  0
  142.8141   79.1920  221.0335 H   0  0  0  0  0  0  0  0  0  0  0  0
  138.6771   70.6419  221.6134 H   0  0  0  0  0  0  0  0  0  0  0  0
  138.4089   69.1209  223.5460 H   0  0  0  0  0  0  0  0  0  0  0  0
  138.9336   68.5779  225.7442 H   0  0  0  0  0  0  0  0  0  0  0  0
  141.5933   71.0445  228.0207 H   0  0  0  0  0  0  0  0  0  0  0  0
  141.8631   72.5696  226.0840 H   0  0  0  0  0  0  0  0  0  0  0  0
  1  2  2  0
  2  3  1  0
  3  4  1  0
  4  5  1  0
  5  6  2  0
  5  7  1  0
  7  8  1  0
  8  9  1  0
  9 10  1  0
 10 11  1  0
 11 12  1  0
 12 13  1  0
 13 14  1  0
 14 15  1  0
 15 16  1  0
 16 17  1  0
 17 18  1  0
  2 19  1  0
 19 20  2  0
 20 21  1  0
 21 22  2  0
 22 23  1  0
 23 24  2  0
 24 25  1  0
 24 26  1  0
 26 27  2  0
 27 28  1  0
 28 29  2  0
 11  7  1  0
 18 13  1  0
 29 19  1  0
 28 22  1  0
  3 30  1  0
  4 31  1  0
  4 32  1  0
  8 33  1  0
  8 34  1  0
  9 35  1  0
  9 36  1  0
 10 37  1  0
 10 38  1  0
 11 39  1  6
 12 40  1  0
 12 41  1  0
 14 42  1  0
 14 43  1  0
 15 44  1  0
 15 45  1  0
 16 46  1  0
 16 47  1  0
 17 48  1  0
 17 49  1  0
 18 50  1  0
 18 51  1  0
 20 52  1  0
 21 53  1  0
 23 54  1  0
 26 55  1  0
 27 56  1  0
M  END
>  <smiles>  (3) 
O=C(NCC(=O)N1CCC[C@H]1CN1CCCCC1)c1ccc2cc(Cl)ccc2n1

>  <score_type>  (3) 
oracle

>  <origin>  (3) 
autodockgpu

>  <m_score__min__energy>  (3) 
-8.3900000000000006

>  <m_primary>  (3) 
energy

>  <rmsd>  (3) 
2.9925424027048275

>  <m_score__min__rmsd>  (3) 
2.9925424027048275

>  <meeko>  (3) 
{"free_energy": -7.43, "intermolecular_energy": -9.22, "internal_energy": -2.06, "cluster_size": 27, "cluster_id": 2, "rank_in_cluster": 27}

>  <energy>  (3) 
-8.33

>  <cluster_rmsd>  (3) 
0.27

>  <cluster>  (3) 
1

$$$$

     RDKit          3D

 56 59  0  0  0  0  0  0  0  0999 V2000
  141.9560   73.2620  220.7540 O   0  0  0  0  0  0  0  0  0  0  0  0
  141.1280   73.9780  221.4150 C   0  0  0  0  0  0  0  0  0  0  0  0
  140.0960   73.3940  222.2050 N   0  0  0  0  0  0  0  0  0  0  0  0
  139.9100   72.0070  222.3320 C   0  0  0  0  0  0  0  0  0  0  0  0
  138.7480   71.4670  223.0210 C   0  0  0  0  0  0  0  0  0  0  0  0
  137.7330   72.2860  223.0690 O   0  0  0  0  0  0  0  0  0  0  0  0
  138.6270   70.1750  223.6280 N   0  0  0  0  0  0  0  0  0  0  0  0
  138.0760   68.9560  223.1250 C   0  0  0  0  0  0  0  0  0  0  0  0
  138.8320   67.8870  223.9380 C   0  0  0  0  0  0  0  0  0  0  0  0
  138.7290   68.5280  225.3190 C   0  0  0  0  0  0  0  0  0  0  0  0
  139.1280   69.9730  225.0110 C   0  0  1  0  0  0  0  0  0  0  0  0
  140.6370   70.0910  225.0050 C   0  0  0  0  0  0  0  0  0  0  0  0
  141.0770   70.0890  226.3810 N   0  0  0  0  0  0  0  0  0  0  0  0
  141.0980   68.8450  227.0290 C   0  0  0  0  0  0  0  0  0  0  0  0
  140.6780   68.8030  228.4610 C   0  0  0  0  0  0  0  0  0  0  0  0
  139.4310   69.6560  228.6020 C   0  0  0  0  0  0  0  0  0  0  0  0
  139.9120   71.0720  228.3470 C   0  0  0  0  0  0  0  0  0  0  0  0
  140.7170   71.2380  227.1160 C   0  0  0  0  0  0  0  0  0  0  0  0
  141.2550   75.4340  221.3520 C   0  0  0  0  0  0  0  0  0  0  0  0
  141.8720   76.0370  220.2770 C   0  0  0  0  0  0  0  0  0  0  0  0
  142.0240   77.4000  220.1540 C   0  0  0  0  0  0  0  0  0  0  0  0
  141.5210   78.1780  221.1770 C   0  0  0  0  0  0  0  0  0  0  0  0
  141.6730   79.5410  221.0550 C   0  0  0  0  0  0  0  0  0  0  0  0
  141.1920   80.3700  222.0450 C   0  0  0  0  0  0  0  0  0  0  0  0
  141.3790   82.1190  221.8990 Cl  0  0  0  0  0  0  0  0  0  0  0  0
  140.5690   79.7970  223.1330 C   0  0  0  0  0  0  0  0  0  0  0  0
  140.4210   78.4140  223.2460 C   0  0  0  0  0  0  0  0  0  0  0  0
  140.9010   77.5810  222.2580 C   0  0  0  0  0  0  0  0  0  0  0  0
  140.7690   76.2330  222.3460 N   0  0  0  0  0  0  0  0  0  0  0  0
  139.4580   74.0680  222.7060 H   0  0  0  0  0  0  0  0  0  0  0  0
  139.8850   71.5999  221.3104 H   0  0  0  0  0  0  0  0  0  0  0  0
  140.7406   71.7107  222.9895 H   0  0  0  0  0  0  0  0  0  0  0  0
  136.9929   68.9034  223.3097 H   0  0  0  0  0  0  0  0  0  0  0  0
  138.1888   68.8401  222.0370 H   0  0  0  0  0  0  0  0  0  0  0  0
  138.3324   66.9078  223.8985 H   0  0  0  0  0  0  0  0  0  0  0  0
  139.8522   67.6618  223.5937 H   0  0  0  0  0  0  0  0  0  0  0  0
  137.7043   68.4690  225.7146 H   0  0  0  0  0  0  0  0  0  0  0  0
  139.3498   68.0438  226.0872 H   0  0  0  0  0  0  0  0  0  0  0  0
  138.7327   70.6969  225.7388 H   0  0  0  0  0  0  0  0  0  0  0  0
  141.0785   69.2385  224.4681 H   0  0  0  0  0  0  0  0  0  0  0  0
  140.9518   71.0152  224.4984 H   0  0  0  0  0  0  0  0  0  0  0  0
  140.4306   68.1721  226.4707 H   0  0  0  0  0  0  0  0  0  0  0  0
  142.1590   68.5549  227.0411 H   0  0  0  0  0  0  0  0  0  0  0  0
  140.4581   67.7665  228.7565 H   0  0  0  0  0  0  0  0  0  0  0  0
  141.4808   69.1847  229.1090 H   0  0  0  0  0  0  0  0  0  0  0  0
  138.6730   69.3629  227.8607 H   0  0  0  0  0  0  0  0  0  0  0  0
  138.9566   69.5454  229.5882 H   0  0  0  0  0  0  0  0  0  0  0  0
  139.0302   71.7252  228.2708 H   0  0  0  0  0  0  0  0  0  0  0  0
  140.5715   71.3329  229.1878 H   0  0  0  0  0  0  0  0  0  0  0  0
  140.1432   71.8883  226.4394 H   0  0  0  0  0  0  0  0  0  0  0  0
  141.6771   71.6355  227.4768 H   0  0  0  0  0  0  0  0  0  0  0  0
  142.2639   75.3950  219.4744 H   0  0  0  0  0  0  0  0  0  0  0  0
  142.5227   77.8476  219.2817 H   0  0  0  0  0  0  0  0  0  0  0  0
  142.1751   79.9653  220.1730 H   0  0  0  0  0  0  0  0  0  0  0  0
  140.1791   80.4455  223.9314 H   0  0  0  0  0  0  0  0  0  0  0  0
  139.9194   77.9869  224.1269 H   0  0  0  0  0  0  0  0  0  0  0  0
  1  2  2  0
  2  3  1  0
  3  4  1  0
  4  5  1  0
  5  6  2  0
  5  7  1  0
  7  8  1  0
  8  9  1  0
  9 10  1  0
 10 11  1  0
 11 12  1  0
 12 13  1  0
 13 14  1  0
 14 15  1  0
 15 16  1  0
 16 17  1  0
 17 18  1  0
  2 19  1  0
 19 20  2  0
 20 21  1  0
 21 22  2  0
 22 23  1  0
 23 24  2  0
 24 25  1  0
 24 26  1  0
 26 27  2  0
 27 28  1  0
 28 29  2  0
 11  7  1  0
 18 13  1  0
 29 19  1  0
 28 22  1  0
  3 30  1  0
  4 31  1  0
  4 32  1  0
  8 33  1  0
  8 34  1  0
  9 35  1  0
  9 36  1  0
 10 37  1  0
 10 38  1  0
 11 39  1  1
 12 40  1  0
 12 41  1  0
 14 42  1  0
 14 43  1  0
 15 44  1  0
 15 45  1  0
 16 46  1  0
 16 47  1  0
 17 48  1  0
 17 49  1  0
 18 50  1  0
 18 51  1  0
 20 52  1  0
 21 53  1  0
 23 54  1  0
 26 55  1  0
 27 56  1  0
M  END
>  <smiles>  (4) 
O=C(NCC(=O)N1CCC[C@H]1CN1CCCCC1)c1ccc2cc(Cl)ccc2n1

>  <score_type>  (4) 
oracle

>  <origin>  (4) 
autodockgpu

>  <m_score__min__energy>  (4) 
-8.3900000000000006

>  <m_primary>  (4) 
energy

>  <rmsd>  (4) 
9.631397836585817

>  <m_score__min__rmsd>  (4) 
9.631397836585817

>  <meeko>  (4) 
{"free_energy": -8.08, "intermolecular_energy": -9.87, "internal_energy": -1.64, "cluster_size": 4, "cluster_id": 3, "rank_in_cluster": 4}

>  <energy>  (4) 
-8.29

>  <cluster_rmsd>  (4) 
0.26

>  <cluster>  (4) 
1

$$$$

     RDKit          3D

 56 59  0  0  0  0  0  0  0  0999 V2000
  138.8150   72.4230  220.8370 O   0  0  0  0  0  0  0  0  0  0  0  0
  139.6560   72.7050  221.7590 C   0  0  0  0  0  0  0  0  0  0  0  0
  140.5060   73.8450  221.6740 N   0  0  0  0  0  0  0  0  0  0  0  0
  140.4850   74.7480  220.5980 C   0  0  0  0  0  0  0  0  0  0  0  0
  141.7040   75.3980  220.1430 C   0  0  0  0  0  0  0  0  0  0  0  0
  142.7730   75.0440  220.8030 O   0  0  0  0  0  0  0  0  0  0  0  0
  141.8290   76.3550  219.0830 N   0  0  0  0  0  0  0  0  0  0  0  0
  141.5800   76.2310  217.6800 C   0  0  0  0  0  0  0  0  0  0  0  0
  141.2600   77.6820  217.2700 C   0  0  0  0  0  0  0  0  0  0  0  0
  142.3840   78.3910  218.0200 C   0  0  0  0  0  0  0  0  0  0  0  0
  142.2890   77.7310  219.3980 C   0  0  1  0  0  0  0  0  0  0  0  0
  141.2240   78.4250  220.2190 C   0  0  0  0  0  0  0  0  0  0  0  0
  141.8410   78.8560  221.4530 N   0  0  0  0  0  0  0  0  0  0  0  0
  141.3900   78.2380  222.6270 C   0  0  0  0  0  0  0  0  0  0  0  0
  141.2520   79.0870  223.8480 C   0  0  0  0  0  0  0  0  0  0  0  0
  140.5930   80.3890  223.4320 C   0  0  0  0  0  0  0  0  0  0  0  0
  141.6270   81.0740  222.5590 C   0  0  0  0  0  0  0  0  0  0  0  0
  142.1910   80.2230  221.4880 C   0  0  0  0  0  0  0  0  0  0  0  0
  139.7360   71.8260  222.9260 C   0  0  0  0  0  0  0  0  0  0  0  0
  139.1800   70.5660  222.8930 C   0  0  0  0  0  0  0  0  0  0  0  0
  139.2210   69.6890  223.9540 C   0  0  0  0  0  0  0  0  0  0  0  0
  139.8610   70.1240  225.0970 C   0  0  0  0  0  0  0  0  0  0  0  0
  139.9020   69.2480  226.1590 C   0  0  0  0  0  0  0  0  0  0  0  0
  140.5260   69.6250  227.3280 C   0  0  0  0  0  0  0  0  0  0  0  0
  140.5870   68.5100  228.6950 Cl  0  0  0  0  0  0  0  0  0  0  0  0
  141.0930   70.8790  227.3910 C   0  0  0  0  0  0  0  0  0  0  0  0
  141.0450   71.7590  226.3090 C   0  0  0  0  0  0  0  0  0  0  0  0
  140.4220   71.3860  225.1380 C   0  0  0  0  0  0  0  0  0  0  0  0
  140.3610   72.2240  224.0730 N   0  0  0  0  0  0  0  0  0  0  0  0
  141.1710   73.9880  222.4800 H   0  0  0  0  0  0  0  0  0  0  0  0
  140.0832   74.1971  219.7349 H   0  0  0  0  0  0  0  0  0  0  0  0
  139.8972   75.5876  220.9976 H   0  0  0  0  0  0  0  0  0  0  0  0
  142.4675   75.8545  217.1503 H   0  0  0  0  0  0  0  0  0  0  0  0
  140.7772   75.5191  217.4377 H   0  0  0  0  0  0  0  0  0  0  0  0
  141.3319   77.8294  216.1823 H   0  0  0  0  0  0  0  0  0  0  0  0
  140.2421   78.0276  217.5033 H   0  0  0  0  0  0  0  0  0  0  0  0
  143.3613   78.2045  217.5508 H   0  0  0  0  0  0  0  0  0  0  0  0
  142.2916   79.4870  218.0384 H   0  0  0  0  0  0  0  0  0  0  0  0
  143.2322   77.7677  219.9628 H   0  0  0  0  0  0  0  0  0  0  0  0
  140.8336   79.2947  219.6702 H   0  0  0  0  0  0  0  0  0  0  0  0
  140.3849   77.7433  220.4221 H   0  0  0  0  0  0  0  0  0  0  0  0
  140.4009   77.8071  222.4126 H   0  0  0  0  0  0  0  0  0  0  0  0
  142.1769   77.5122  222.8798 H   0  0  0  0  0  0  0  0  0  0  0  0
  140.6278   78.5726  224.5935 H   0  0  0  0  0  0  0  0  0  0  0  0
  142.2376   79.2800  224.2967 H   0  0  0  0  0  0  0  0  0  0  0  0
  139.6714   80.1945  222.8638 H   0  0  0  0  0  0  0  0  0  0  0  0
  140.2994   81.0045  224.2951 H   0  0  0  0  0  0  0  0  0  0  0  0
  141.1537   81.9485  222.0887 H   0  0  0  0  0  0  0  0  0  0  0  0
  142.4654   81.3399  223.2196 H   0  0  0  0  0  0  0  0  0  0  0  0
  141.8797   80.6615  220.5284 H   0  0  0  0  0  0  0  0  0  0  0  0
  143.2716   80.2167  221.6933 H   0  0  0  0  0  0  0  0  0  0  0  0
  138.6764   70.2432  221.9699 H   0  0  0  0  0  0  0  0  0  0  0  0
  138.7655   68.6896  223.8935 H   0  0  0  0  0  0  0  0  0  0  0  0
  139.4394   68.2536  226.0744 H   0  0  0  0  0  0  0  0  0  0  0  0
  141.5960   71.1944  228.3170 H   0  0  0  0  0  0  0  0  0  0  0  0
  141.5063   72.7542  226.3913 H   0  0  0  0  0  0  0  0  0  0  0  0
  1  2  2  0
  2  3  1  0
  3  4  1  0
  4  5  1  0
  5  6  2  0
  5  7  1  0
  7  8  1  0
  8  9  1  0
  9 10  1  0
 10 11  1  0
 11 12  1  0
 12 13  1  0
 13 14  1  0
 14 15  1  0
 15 16  1  0
 16 17  1  0
 17 18  1  0
  2 19  1  0
 19 20  2  0
 20 21  1  0
 21 22  2  0
 22 23  1  0
 23 24  2  0
 24 25  1  0
 24 26  1  0
 26 27  2  0
 27 28  1  0
 28 29  2  0
 11  7  1  0
 18 13  1  0
 29 19  1  0
 28 22  1  0
  3 30  1  0
  4 31  1  0
  4 32  1  0
  8 33  1  0
  8 34  1  0
  9 35  1  0
  9 36  1  0
 10 37  1  0
 10 38  1  0
 11 39  1  1
 12 40  1  0
 12 41  1  0
 14 42  1  0
 14 43  1  0
 15 44  1  0
 15 45  1  0
 16 46  1  0
 16 47  1  0
 17 48  1  0
 17 49  1  0
 18 50  1  0
 18 51  1  0
 20 52  1  0
 21 53  1  0
 23 54  1  0
 26 55  1  0
 27 56  1  0
M  END
>  <smiles>  (5) 
O=C(NCC(=O)N1CCC[C@H]1CN1CCCCC1)c1ccc2cc(Cl)ccc2n1

>  <score_type>  (5) 
oracle

>  <origin>  (5) 
autodockgpu

>  <m_score__min__energy>  (5) 
-8.3900000000000006

>  <m_primary>  (5) 
energy

>  <rmsd>  (5) 
2.1705634121804978

>  <m_score__min__rmsd>  (5) 
2.1705634121804978

>  <meeko>  (5) 
{"free_energy": -7.46, "intermolecular_energy": -9.25, "internal_energy": -1.79, "cluster_size": 27, "cluster_id": 2, "rank_in_cluster": 25}

>  <energy>  (5) 
-8.26

>  <cluster_rmsd>  (5) 
0.45

>  <cluster>  (5) 
1

$$$$

     RDKit          3D

 56 59  0  0  0  0  0  0  0  0999 V2000
  140.0040   74.0700  222.1860 O   0  0  0  0  0  0  0  0  0  0  0  0
  140.1490   72.8200  221.9530 C   0  0  0  0  0  0  0  0  0  0  0  0
  140.3340   72.3220  220.6320 N   0  0  0  0  0  0  0  0  0  0  0  0
  140.3860   73.1450  219.4940 C   0  0  0  0  0  0  0  0  0  0  0  0
  141.6490   73.4180  218.8240 C   0  0  0  0  0  0  0  0  0  0  0  0
  141.5290   73.6670  217.5490 O   0  0  0  0  0  0  0  0  0  0  0  0
  142.9540   73.4330  219.4140 N   0  0  0  0  0  0  0  0  0  0  0  0
  144.0410   72.5110  219.2990 C   0  0  0  0  0  0  0  0  0  0  0  0
  145.2650   73.4010  219.5880 C   0  0  0  0  0  0  0  0  0  0  0  0
  144.7270   74.1540  220.8000 C   0  0  0  0  0  0  0  0  0  0  0  0
  143.3320   74.5530  220.3120 C   0  0  1  0  0  0  0  0  0  0  0  0
  143.4270   75.8230  219.4930 C   0  0  0  0  0  0  0  0  0  0  0  0
  142.1840   76.5400  219.6590 N   0  0  0  0  0  0  0  0  0  0  0  0
  142.1810   77.8860  219.2680 C   0  0  0  0  0  0  0  0  0  0  0  0
  141.4130   78.8510  220.1100 C   0  0  0  0  0  0  0  0  0  0  0  0
  141.7110   78.5340  221.5640 C   0  0  0  0  0  0  0  0  0  0  0  0
  141.0750   77.1760  221.7920 C   0  0  0  0  0  0  0  0  0  0  0  0
  141.4280   76.1520  220.7850 C   0  0  0  0  0  0  0  0  0  0  0  0
  140.1210   71.8900  223.0820 C   0  0  0  0  0  0  0  0  0  0  0  0
  139.5900   70.6270  222.9350 C   0  0  0  0  0  0  0  0  0  0  0  0
  139.5350   69.7030  223.9550 C   0  0  0  0  0  0  0  0  0  0  0  0
  140.0480   70.0910  225.1760 C   0  0  0  0  0  0  0  0  0  0  0  0
  139.9930   69.1680  226.1960 C   0  0  0  0  0  0  0  0  0  0  0  0
  140.4880   69.4980  227.4390 C   0  0  0  0  0  0  0  0  0  0  0  0
  140.4240   68.3220  228.7540 Cl  0  0  0  0  0  0  0  0  0  0  0  0
  141.0270   70.7530  227.6160 C   0  0  0  0  0  0  0  0  0  0  0  0
  141.0780   71.6810  226.5750 C   0  0  0  0  0  0  0  0  0  0  0  0
  140.5830   71.3550  225.3310 C   0  0  0  0  0  0  0  0  0  0  0  0
  140.6200   72.2410  224.3030 N   0  0  0  0  0  0  0  0  0  0  0  0
  140.4350   71.2760  220.5410 H   0  0  0  0  0  0  0  0  0  0  0  0
  139.7272   72.6834  218.7437 H   0  0  0  0  0  0  0  0  0  0  0  0
  140.1066   74.1305  219.8949 H   0  0  0  0  0  0  0  0  0  0  0  0
  143.9551   71.7009  220.0382 H   0  0  0  0  0  0  0  0  0  0  0  0
  144.0865   72.0062  218.3227 H   0  0  0  0  0  0  0  0  0  0  0  0
  146.1583   72.8078  219.8334 H   0  0  0  0  0  0  0  0  0  0  0  0
  145.6030   74.0293  218.7508 H   0  0  0  0  0  0  0  0  0  0  0  0
  144.6729   73.5043  221.6860 H   0  0  0  0  0  0  0  0  0  0  0  0
  145.3523   75.0016  221.1171 H   0  0  0  0  0  0  0  0  0  0  0  0
  142.6192   74.7278  221.1314 H   0  0  0  0  0  0  0  0  0  0  0  0
  144.2661   76.4382  219.8498 H   0  0  0  0  0  0  0  0  0  0  0  0
  143.6005   75.5883  218.4324 H   0  0  0  0  0  0  0  0  0  0  0  0
  143.2272   78.2254  219.2503 H   0  0  0  0  0  0  0  0  0  0  0  0
  141.6652   77.8925  218.2965 H   0  0  0  0  0  0  0  0  0  0  0  0
  141.7251   79.8803  219.8794 H   0  0  0  0  0  0  0  0  0  0  0  0
  140.3349   78.7636  219.9099 H   0  0  0  0  0  0  0  0  0  0  0  0
  142.7962   78.4898  221.7382 H   0  0  0  0  0  0  0  0  0  0  0  0
  141.3197   79.3006  222.2490 H   0  0  0  0  0  0  0  0  0  0  0  0
  141.3933   76.8099  222.7793 H   0  0  0  0  0  0  0  0  0  0  0  0
  139.9878   77.3251  221.7159 H   0  0  0  0  0  0  0  0  0  0  0  0
  142.0007   75.3703  221.3055 H   0  0  0  0  0  0  0  0  0  0  0  0
  140.4587   75.8477  220.3633 H   0  0  0  0  0  0  0  0  0  0  0  0
  139.1889   70.3417  221.9513 H   0  0  0  0  0  0  0  0  0  0  0  0
  139.1026   68.7030  223.8035 H   0  0  0  0  0  0  0  0  0  0  0  0
  139.5568   68.1737  226.0199 H   0  0  0  0  0  0  0  0  0  0  0  0
  141.4271   71.0307  228.6023 H   0  0  0  0  0  0  0  0  0  0  0  0
  141.5147   72.6757  226.7480 H   0  0  0  0  0  0  0  0  0  0  0  0
  1  2  2  0
  2  3  1  0
  3  4  1  0
  4  5  1  0
  5  6  2  0
  5  7  1  0
  7  8  1  0
  8  9  1  0
  9 10  1  0
 10 11  1  0
 11 12  1  0
 12 13  1  0
 13 14  1  0
 14 15  1  0
 15 16  1  0
 16 17  1  0
 17 18  1  0
  2 19  1  0
 19 20  2  0
 20 21  1  0
 21 22  2  0
 22 23  1  0
 23 24  2  0
 24 25  1  0
 24 26  1  0
 26 27  2  0
 27 28  1  0
 28 29  2  0
 11  7  1  0
 18 13  1  0
 29 19  1  0
 28 22  1  0
  3 30  1  0
  4 31  1  0
  4 32  1  0
  8 33  1  0
  8 34  1  0
  9 35  1  0
  9 36  1  0
 10 37  1  0
 10 38  1  0
 11 39  1  1
 12 40  1  0
 12 41  1  0
 14 42  1  0
 14 43  1  0
 15 44  1  0
 15 45  1  0
 16 46  1  0
 16 47  1  0
 17 48  1  0
 17 49  1  0
 18 50  1  0
 18 51  1  0
 20 52  1  0
 21 53  1  0
 23 54  1  0
 26 55  1  0
 27 56  1  0
M  END
>  <smiles>  (6) 
O=C(NCC(=O)N1CCC[C@H]1CN1CCCCC1)c1ccc2cc(Cl)ccc2n1

>  <score_type>  (6) 
oracle

>  <origin>  (6) 
autodockgpu

>  <m_score__min__energy>  (6) 
-8.3900000000000006

>  <m_primary>  (6) 
energy

>  <rmsd>  (6) 
3.8049278718190434

>  <m_score__min__rmsd>  (6) 
3.8049278718190434

>  <meeko>  (6) 
{"free_energy": -7.54, "intermolecular_energy": -9.33, "internal_energy": -1.8, "cluster_size": 5, "cluster_id": 4, "rank_in_cluster": 2}

>  <energy>  (6) 
-7.89

>  <cluster_rmsd>  (6) 
1.42

>  <cluster>  (6) 
1

$$$$

     RDKit          3D

 56 59  0  0  0  0  0  0  0  0999 V2000
  134.7330   68.5220  224.9820 O   0  0  0  0  0  0  0  0  0  0  0  0
  135.2910   69.6690  224.8840 C   0  0  0  0  0  0  0  0  0  0  0  0
  136.5440   69.8390  224.2280 N   0  0  0  0  0  0  0  0  0  0  0  0
  137.2550   68.7840  223.6320 C   0  0  0  0  0  0  0  0  0  0  0  0
  138.5340   69.0180  222.9790 C   0  0  0  0  0  0  0  0  0  0  0  0
  139.1230   67.9300  222.5630 O   0  0  0  0  0  0  0  0  0  0  0  0
  139.1770   70.2810  222.7640 N   0  0  0  0  0  0  0  0  0  0  0  0
  139.0230   71.2400  221.7150 C   0  0  0  0  0  0  0  0  0  0  0  0
  139.4430   72.5550  222.4020 C   0  0  0  0  0  0  0  0  0  0  0  0
  140.6960   72.0560  223.1160 C   0  0  0  0  0  0  0  0  0  0  0  0
  140.1880   70.7550  223.7420 C   0  0  1  0  0  0  0  0  0  0  0  0
  139.4930   71.0620  225.0520 C   0  0  0  0  0  0  0  0  0  0  0  0
  140.1300   70.2660  226.0770 N   0  0  0  0  0  0  0  0  0  0  0  0
  141.3350   69.6420  225.7250 C   0  0  0  0  0  0  0  0  0  0  0  0
  141.5800   68.2640  226.2470 C   0  0  0  0  0  0  0  0  0  0  0  0
  140.2950   67.4740  226.0820 C   0  0  0  0  0  0  0  0  0  0  0  0
  139.3250   68.1240  227.0490 C   0  0  0  0  0  0  0  0  0  0  0  0
  139.2370   69.5960  226.9400 C   0  0  0  0  0  0  0  0  0  0  0  0
  134.6140   70.8290  225.4650 C   0  0  0  0  0  0  0  0  0  0  0  0
  133.5940   70.6600  226.3760 C   0  0  0  0  0  0  0  0  0  0  0  0
  132.9170   71.7060  226.9610 C   0  0  0  0  0  0  0  0  0  0  0  0
  133.3030   72.9800  226.5970 C   0  0  0  0  0  0  0  0  0  0  0  0
  132.6260   74.0270  227.1810 C   0  0  0  0  0  0  0  0  0  0  0  0
  132.9670   75.3220  226.8570 C   0  0  0  0  0  0  0  0  0  0  0  0
  132.1070   76.6730  227.6010 Cl  0  0  0  0  0  0  0  0  0  0  0  0
  133.9840   75.5240  225.9500 C   0  0  0  0  0  0  0  0  0  0  0  0
  134.6630   74.4550  225.3640 C   0  0  0  0  0  0  0  0  0  0  0  0
  134.3260   73.1580  225.6850 C   0  0  0  0  0  0  0  0  0  0  0  0
  134.9710   72.1020  225.1270 N   0  0  0  0  0  0  0  0  0  0  0  0
  136.9270   70.8220  224.2080 H   0  0  0  0  0  0  0  0  0  0  0  0
  137.4391   68.0437  224.4245 H   0  0  0  0  0  0  0  0  0  0  0  0
  136.6039   68.4963  222.7934 H   0  0  0  0  0  0  0  0  0  0  0  0
  139.6807   71.0080  220.8644 H   0  0  0  0  0  0  0  0  0  0  0  0
  138.0074   71.2700  221.2934 H   0  0  0  0  0  0  0  0  0  0  0  0
  139.6703   73.3474  221.6737 H   0  0  0  0  0  0  0  0  0  0  0  0
  138.6816   73.0181  223.0469 H   0  0  0  0  0  0  0  0  0  0  0  0
  141.5155   71.8682  222.4067 H   0  0  0  0  0  0  0  0  0  0  0  0
  141.1157   72.7699  223.8400 H   0  0  0  0  0  0  0  0  0  0  0  0
  140.9888   70.0282  223.9430 H   0  0  0  0  0  0  0  0  0  0  0  0
  139.5940   72.1313  225.2895 H   0  0  0  0  0  0  0  0  0  0  0  0
  138.4207   70.8254  224.9872 H   0  0  0  0  0  0  0  0  0  0  0  0
  141.3691   69.5885  224.6268 H   0  0  0  0  0  0  0  0  0  0  0  0
  142.1158   70.2600  226.1924 H   0  0  0  0  0  0  0  0  0  0  0  0
  142.3899   67.7857  225.6767 H   0  0  0  0  0  0  0  0  0  0  0  0
  141.8776   68.2997  227.3054 H   0  0  0  0  0  0  0  0  0  0  0  0
  139.9230   67.5474  225.0494 H   0  0  0  0  0  0  0  0  0  0  0  0
  140.4334   66.4017  226.2848 H   0  0  0  0  0  0  0  0  0  0  0  0
  138.3245   67.7063  226.8634 H   0  0  0  0  0  0  0  0  0  0  0  0
  139.7029   67.9093  228.0595 H   0  0  0  0  0  0  0  0  0  0  0  0
  138.2182   69.8353  226.6010 H   0  0  0  0  0  0  0  0  0  0  0  0
  139.5139   69.9551  227.9422 H   0  0  0  0  0  0  0  0  0  0  0  0
  133.3054   69.6346  226.6503 H   0  0  0  0  0  0  0  0  0  0  0  0
  132.1065   71.5345  227.6846 H   0  0  0  0  0  0  0  0  0  0  0  0
  131.8183   73.8309  227.9015 H   0  0  0  0  0  0  0  0  0  0  0  0
  134.2675   76.5523  225.6813 H   0  0  0  0  0  0  0  0  0  0  0  0
  135.4707   74.6485  224.6428 H   0  0  0  0  0  0  0  0  0  0  0  0
  1  2  2  0
  2  3  1  0
  3  4  1  0
  4  5  1  0
  5  6  2  0
  5  7  1  0
  7  8  1  0
  8  9  1  0
  9 10  1  0
 10 11  1  0
 11 12  1  0
 12 13  1  0
 13 14  1  0
 14 15  1  0
 15 16  1  0
 16 17  1  0
 17 18  1  0
  2 19  1  0
 19 20  2  0
 20 21  1  0
 21 22  2  0
 22 23  1  0
 23 24  2  0
 24 25  1  0
 24 26  1  0
 26 27  2  0
 27 28  1  0
 28 29  2  0
 11  7  1  0
 18 13  1  0
 29 19  1  0
 28 22  1  0
  3 30  1  0
  4 31  1  0
  4 32  1  0
  8 33  1  0
  8 34  1  0
  9 35  1  0
  9 36  1  0
 10 37  1  0
 10 38  1  0
 11 39  1  1
 12 40  1  0
 12 41  1  0
 14 42  1  0
 14 43  1  0
 15 44  1  0
 15 45  1  0
 16 46  1  0
 16 47  1  0
 17 48  1  0
 17 49  1  0
 18 50  1  0
 18 51  1  0
 20 52  1  0
 21 53  1  0
 23 54  1  0
 26 55  1  0
 27 56  1  0
M  END
>  <smiles>  (7) 
O=C(NCC(=O)N1CCC[C@H]1CN1CCCCC1)c1ccc2cc(Cl)ccc2n1

>  <score_type>  (7) 
oracle

>  <origin>  (7) 
autodockgpu

>  <m_score__min__energy>  (7) 
-8.3900000000000006

>  <m_primary>  (7) 
energy

>  <rmsd>  (7) 
8.595562409246915

>  <m_score__min__rmsd>  (7) 
8.595562409246915

>  <meeko>  (7) 
{"free_energy": -6.67, "intermolecular_energy": -8.46, "internal_energy": -2.28, "cluster_size": 12, "cluster_id": 1, "rank_in_cluster": 12}

>  <energy>  (7) 
-7.66

>  <cluster_rmsd>  (7) 
1.09

>  <cluster>  (7) 
1

$$$$

     RDKit          3D

 56 59  0  0  0  0  0  0  0  0999 V2000
  140.5890   72.3190  220.7100 O   0  0  0  0  0  0  0  0  0  0  0  0
  140.1930   72.7720  221.8390 C   0  0  0  0  0  0  0  0  0  0  0  0
  139.7870   74.1270  222.0020 N   0  0  0  0  0  0  0  0  0  0  0  0
  139.7740   75.0630  220.9550 C   0  0  0  0  0  0  0  0  0  0  0  0
  140.7890   76.1030  220.8670 C   0  0  0  0  0  0  0  0  0  0  0  0
  141.0970   76.6410  222.0150 O   0  0  0  0  0  0  0  0  0  0  0  0
  141.4470   76.5690  219.6830 N   0  0  0  0  0  0  0  0  0  0  0  0
  141.2400   77.7510  218.9050 C   0  0  0  0  0  0  0  0  0  0  0  0
  142.6190   77.9640  218.2500 C   0  0  0  0  0  0  0  0  0  0  0  0
  142.8980   76.5270  217.8190 C   0  0  0  0  0  0  0  0  0  0  0  0
  142.5380   75.7560  219.0910 C   0  0  1  0  0  0  0  0  0  0  0  0
  143.7200   75.7620  220.0370 C   0  0  0  0  0  0  0  0  0  0  0  0
  143.9370   74.4000  220.4680 N   0  0  0  0  0  0  0  0  0  0  0  0
  145.2460   74.0640  220.8430 C   0  0  0  0  0  0  0  0  0  0  0  0
  145.7500   72.7110  220.4610 C   0  0  0  0  0  0  0  0  0  0  0  0
  145.3330   72.4530  219.0250 C   0  0  0  0  0  0  0  0  0  0  0  0
  143.8230   72.3360  219.0850 C   0  0  0  0  0  0  0  0  0  0  0  0
  143.1470   73.4390  219.8020 C   0  0  0  0  0  0  0  0  0  0  0  0
  140.1600   71.8620  222.9850 C   0  0  0  0  0  0  0  0  0  0  0  0
  139.6180   70.6010  222.8620 C   0  0  0  0  0  0  0  0  0  0  0  0
  139.5570   69.6960  223.8980 C   0  0  0  0  0  0  0  0  0  0  0  0
  140.0750   70.1020  225.1110 C   0  0  0  0  0  0  0  0  0  0  0  0
  140.0140   69.1980  226.1480 C   0  0  0  0  0  0  0  0  0  0  0  0
  140.5140   69.5460  227.3840 C   0  0  0  0  0  0  0  0  0  0  0  0
  140.4430   68.3940  228.7200 Cl  0  0  0  0  0  0  0  0  0  0  0  0
  141.0640   70.7990  227.5380 C   0  0  0  0  0  0  0  0  0  0  0  0
  141.1200   71.7080  226.4800 C   0  0  0  0  0  0  0  0  0  0  0  0
  140.6210   71.3640  225.2420 C   0  0  0  0  0  0  0  0  0  0  0  0
  140.6630   72.2310  224.1990 N   0  0  0  0  0  0  0  0  0  0  0  0
  139.4860   74.4070  222.9740 H   0  0  0  0  0  0  0  0  0  0  0  0
  139.8343   74.4871  220.0197 H   0  0  0  0  0  0  0  0  0  0  0  0
  138.8566   75.6363  221.1541 H   0  0  0  0  0  0  0  0  0  0  0  0
  140.4590   77.5958  218.1461 H   0  0  0  0  0  0  0  0  0  0  0  0
  140.8980   78.6122  219.4978 H   0  0  0  0  0  0  0  0  0  0  0  0
  142.5672   78.6501  217.3918 H   0  0  0  0  0  0  0  0  0  0  0  0
  143.3840   78.4238  218.8929 H   0  0  0  0  0  0  0  0  0  0  0  0
  142.2601   76.2293  216.9737 H   0  0  0  0  0  0  0  0  0  0  0  0
  143.9248   76.3549  217.4638 H   0  0  0  0  0  0  0  0  0  0  0  0
  142.2596   74.7091  218.9000 H   0  0  0  0  0  0  0  0  0  0  0  0
  144.6140   76.1391  219.5189 H   0  0  0  0  0  0  0  0  0  0  0  0
  143.5229   76.4151  220.8999 H   0  0  0  0  0  0  0  0  0  0  0  0
  145.9190   74.8060  220.3887 H   0  0  0  0  0  0  0  0  0  0  0  0
  145.2273   74.0543  221.9428 H   0  0  0  0  0  0  0  0  0  0  0  0
  146.8465   72.6823  220.5438 H   0  0  0  0  0  0  0  0  0  0  0  0
  145.3333   71.9418  221.1278 H   0  0  0  0  0  0  0  0  0  0  0  0
  145.6329   73.2894  218.3765 H   0  0  0  0  0  0  0  0  0  0  0  0
  145.8066   71.5526  218.6066 H   0  0  0  0  0  0  0  0  0  0  0  0
  143.4397   72.3113  218.0542 H   0  0  0  0  0  0  0  0  0  0  0  0
  143.6041   71.4175  219.6494 H   0  0  0  0  0  0  0  0  0  0  0  0
  142.5356   73.9783  219.0635 H   0  0  0  0  0  0  0  0  0  0  0  0
  142.6006   72.9348  220.6127 H   0  0  0  0  0  0  0  0  0  0  0  0
  139.2125   70.3015  221.8843 H   0  0  0  0  0  0  0  0  0  0  0  0
  139.1164   68.6969  223.7651 H   0  0  0  0  0  0  0  0  0  0  0  0
  139.5690   68.2044  225.9907 H   0  0  0  0  0  0  0  0  0  0  0  0
  141.4690   71.0907  228.5183 H   0  0  0  0  0  0  0  0  0  0  0  0
  141.5640   72.7024  226.6348 H   0  0  0  0  0  0  0  0  0  0  0  0
  1  2  2  0
  2  3  1  0
  3  4  1  0
  4  5  1  0
  5  6  2  0
  5  7  1  0
  7  8  1  0
  8  9  1  0
  9 10  1  0
 10 11  1  0
 11 12  1  0
 12 13  1  0
 13 14  1  0
 14 15  1  0
 15 16  1  0
 16 17  1  0
 17 18  1  0
  2 19  1  0
 19 20  2  0
 20 21  1  0
 21 22  2  0
 22 23  1  0
 23 24  2  0
 24 25  1  0
 24 26  1  0
 26 27  2  0
 27 28  1  0
 28 29  2  0
 11  7  1  0
 18 13  1  0
 29 19  1  0
 28 22  1  0
  3 30  1  0
  4 31  1  0
  4 32  1  0
  8 33  1  0
  8 34  1  0
  9 35  1  0
  9 36  1  0
 10 37  1  0
 10 38  1  0
 11 39  1  6
 12 40  1  0
 12 41  1  0
 14 42  1  0
 14 43  1  0
 15 44  1  0
 15 45  1  0
 16 46  1  0
 16 47  1  0
 17 48  1  0
 17 49  1  0
 18 50  1  0
 18 51  1  0
 20 52  1  0
 21 53  1  0
 23 54  1  0
 26 55  1  0
 27 56  1  0
M  END
>  <smiles>  (8) 
O=C(NCC(=O)N1CCC[C@H]1CN1CCCCC1)c1ccc2cc(Cl)ccc2n1

>  <score_type>  (8) 
oracle

>  <origin>  (8) 
autodockgpu

>  <m_score__min__energy>  (8) 
-8.3900000000000006

>  <m_primary>  (8) 
energy

>  <rmsd>  (8) 
4.47621740380827

>  <m_score__min__rmsd>  (8) 
4.47621740380827

>  <meeko>  (8) 
{"free_energy": -7.79, "intermolecular_energy": -9.58, "internal_energy": -1.95, "cluster_size": 5, "cluster_id": 4, "rank_in_cluster": 1}

>  <energy>  (8) 
-7.51

>  <cluster_rmsd>  (8) 
1.45

>  <cluster>  (8) 
1

$$$$

     RDKit          3D

 56 59  0  0  0  0  0  0  0  0999 V2000
  139.1610   71.9830  220.8150 O   0  0  0  0  0  0  0  0  0  0  0  0
  139.8510   72.3590  221.8240 C   0  0  0  0  0  0  0  0  0  0  0  0
  140.5400   73.6060  221.8390 N   0  0  0  0  0  0  0  0  0  0  0  0
  140.5120   74.5180  220.7700 C   0  0  0  0  0  0  0  0  0  0  0  0
  140.7160   75.9410  220.9950 C   0  0  0  0  0  0  0  0  0  0  0  0
  140.3880   76.3410  222.1930 O   0  0  0  0  0  0  0  0  0  0  0  0
  141.2190   76.9000  220.0570 N   0  0  0  0  0  0  0  0  0  0  0  0
  141.5400   76.7690  218.6700 C   0  0  0  0  0  0  0  0  0  0  0  0
  141.3670   78.2100  218.1500 C   0  0  0  0  0  0  0  0  0  0  0  0
  142.0890   78.9520  219.2710 C   0  0  0  0  0  0  0  0  0  0  0  0
  141.4820   78.2890  220.5100 C   0  0  1  0  0  0  0  0  0  0  0  0
  140.1630   78.9520  220.8440 C   0  0  0  0  0  0  0  0  0  0  0  0
  140.3660   79.7480  222.0320 N   0  0  0  0  0  0  0  0  0  0  0  0
  141.0660   80.9520  221.8670 C   0  0  0  0  0  0  0  0  0  0  0  0
  142.0250   81.3480  222.9410 C   0  0  0  0  0  0  0  0  0  0  0  0
  142.8160   80.1130  223.3310 C   0  0  0  0  0  0  0  0  0  0  0  0
  141.7970   79.2060  223.9920 C   0  0  0  0  0  0  0  0  0  0  0  0
  140.5560   79.0020  223.2140 C   0  0  0  0  0  0  0  0  0  0  0  0
  139.9250   71.4770  222.9890 C   0  0  0  0  0  0  0  0  0  0  0  0
  139.4670   70.1790  222.9140 C   0  0  0  0  0  0  0  0  0  0  0  0
  139.5080   69.2970  223.9710 C   0  0  0  0  0  0  0  0  0  0  0  0
  140.0420   69.7660  225.1540 C   0  0  0  0  0  0  0  0  0  0  0  0
  140.0830   68.8840  226.2110 C   0  0  0  0  0  0  0  0  0  0  0  0
  140.6050   69.2950  227.4180 C   0  0  0  0  0  0  0  0  0  0  0  0
  140.6640   68.1730  228.7800 Cl  0  0  0  0  0  0  0  0  0  0  0  0
  141.0710   70.5870  227.5240 C   0  0  0  0  0  0  0  0  0  0  0  0
  141.0240   71.4720  226.4460 C   0  0  0  0  0  0  0  0  0  0  0  0
  140.5040   71.0660  225.2370 C   0  0  0  0  0  0  0  0  0  0  0  0
  140.4460   71.9080  224.1740 N   0  0  0  0  0  0  0  0  0  0  0  0
  141.0890   73.8220  222.7130 H   0  0  0  0  0  0  0  0  0  0  0  0
  141.2929   74.1975  220.0646 H   0  0  0  0  0  0  0  0  0  0  0  0
  139.4637   74.4725  220.4399 H   0  0  0  0  0  0  0  0  0  0  0  0
  142.5734   76.4182  218.5325 H   0  0  0  0  0  0  0  0  0  0  0  0
  140.9139   76.0343  218.1425 H   0  0  0  0  0  0  0  0  0  0  0  0
  141.8545   78.3588  217.1752 H   0  0  0  0  0  0  0  0  0  0  0  0
  140.3301   78.5258  217.9627 H   0  0  0  0  0  0  0  0  0  0  0  0
  143.1766   78.7949  219.2224 H   0  0  0  0  0  0  0  0  0  0  0  0
  141.9665   80.0447  219.2395 H   0  0  0  0  0  0  0  0  0  0  0  0
  142.1292   78.3530  221.3972 H   0  0  0  0  0  0  0  0  0  0  0  0
  139.8444   79.5955  220.0106 H   0  0  0  0  0  0  0  0  0  0  0  0
  139.3813   78.1967  221.0125 H   0  0  0  0  0  0  0  0  0  0  0  0
  141.6358   80.8753  220.9292 H   0  0  0  0  0  0  0  0  0  0  0  0
  140.2894   81.7309  221.8855 H   0  0  0  0  0  0  0  0  0  0  0  0
  142.7061   82.1265  222.5668 H   0  0  0  0  0  0  0  0  0  0  0  0
  141.4850   81.7504  223.8107 H   0  0  0  0  0  0  0  0  0  0  0  0
  143.2478   79.6304  222.4418 H   0  0  0  0  0  0  0  0  0  0  0  0
  143.6609   80.3485  223.9949 H   0  0  0  0  0  0  0  0  0  0  0  0
  142.2657   78.2241  224.1534 H   0  0  0  0  0  0  0  0  0  0  0  0
  141.4996   79.7021  224.9277 H   0  0  0  0  0  0  0  0  0  0  0  0
  140.5203   77.9386  222.9347 H   0  0  0  0  0  0  0  0  0  0  0  0
  139.7596   79.3574  223.8844 H   0  0  0  0  0  0  0  0  0  0  0  0
  139.0466   69.8292  221.9596 H   0  0  0  0  0  0  0  0  0  0  0  0
  139.1328   68.2673  223.8767 H   0  0  0  0  0  0  0  0  0  0  0  0
  139.7018   67.8590  226.0924 H   0  0  0  0  0  0  0  0  0  0  0  0
  141.4903   70.9294  228.4816 H   0  0  0  0  0  0  0  0  0  0  0  0
  141.4037   72.4978  226.5623 H   0  0  0  0  0  0  0  0  0  0  0  0
  1  2  2  0
  2  3  1  0
  3  4  1  0
  4  5  1  0
  5  6  2  0
  5  7  1  0
  7  8  1  0
  8  9  1  0
  9 10  1  0
 10 11  1  0
 11 12  1  0
 12 13  1  0
 13 14  1  0
 14 15  1  0
 15 16  1  0
 16 17  1  0
 17 18  1  0
  2 19  1  0
 19 20  2  0
 20 21  1  0
 21 22  2  0
 22 23  1  0
 23 24  2  0
 24 25  1  0
 24 26  1  0
 26 27  2  0
 27 28  1  0
 28 29  2  0
 11  7  1  0
 18 13  1  0
 29 19  1  0
 28 22  1  0
  3 30  1  0
  4 31  1  0
  4 32  1  0
  8 33  1  0
  8 34  1  0
  9 35  1  0
  9 36  1  0
 10 37  1  0
 10 38  1  0
 11 39  1  1
 12 40  1  0
 12 41  1  0
 14 42  1  0
 14 43  1  0
 15 44  1  0
 15 45  1  0
 16 46  1  0
 16 47  1  0
 17 48  1  0
 17 49  1  0
 18 50  1  0
 18 51  1  0
 20 52  1  0
 21 53  1  0
 23 54  1  0
 26 55  1  0
 27 56  1  0
M  END
>  <smiles>  (9) 
O=C(NCC(=O)N1CCC[C@H]1CN1CCCCC1)c1ccc2cc(Cl)ccc2n1

>  <score_type>  (9) 
oracle

>  <origin>  (9) 
autodockgpu

>  <m_score__min__energy>  (9) 
-8.3900000000000006

>  <m_primary>  (9) 
energy

>  <rmsd>  (9) 
2.5060533857224825

>  <m_score__min__rmsd>  (9) 
2.5060533857224825

>  <meeko>  (9) 
{"free_energy": -7.75, "intermolecular_energy": -9.54, "internal_energy": -1.77, "cluster_size": 27, "cluster_id": 2, "rank_in_cluster": 17}

>  <energy>  (9) 
-7.44

>  <cluster_rmsd>  (9) 
1.49

>  <cluster>  (9) 
1

$$$$

     RDKit          3D

 56 59  0  0  0  0  0  0  0  0999 V2000
  140.3390   72.3520  220.7720 O   0  0  0  0  0  0  0  0  0  0  0  0
  139.9220   72.7530  221.9130 C   0  0  0  0  0  0  0  0  0  0  0  0
  139.3950   74.0630  222.1000 N   0  0  0  0  0  0  0  0  0  0  0  0
  139.2800   75.0070  221.0660 C   0  0  0  0  0  0  0  0  0  0  0  0
  138.5430   76.2460  221.2610 C   0  0  0  0  0  0  0  0  0  0  0  0
  137.4390   76.1040  221.9420 O   0  0  0  0  0  0  0  0  0  0  0  0
  138.9050   77.5490  220.7880 N   0  0  0  0  0  0  0  0  0  0  0  0
  138.4170   78.3080  219.6790 C   0  0  0  0  0  0  0  0  0  0  0  0
  138.6930   79.7590  220.1190 C   0  0  0  0  0  0  0  0  0  0  0  0
  140.1120   79.5760  220.6510 C   0  0  0  0  0  0  0  0  0  0  0  0
  139.9530   78.3170  221.5060 C   0  0  1  0  0  0  0  0  0  0  0  0
  139.4280   78.6970  222.8740 C   0  0  0  0  0  0  0  0  0  0  0  0
  140.5230   79.2880  223.6090 N   0  0  0  0  0  0  0  0  0  0  0  0
  140.4980   80.6820  223.7570 C   0  0  0  0  0  0  0  0  0  0  0  0
  141.7980   81.4120  223.6660 C   0  0  0  0  0  0  0  0  0  0  0  0
  142.5690   80.8350  222.4930 C   0  0  0  0  0  0  0  0  0  0  0  0
  142.9100   79.4210  222.9250 C   0  0  0  0  0  0  0  0  0  0  0  0
  141.7640   78.6390  223.4370 C   0  0  0  0  0  0  0  0  0  0  0  0
  139.9910   71.8300  223.0460 C   0  0  0  0  0  0  0  0  0  0  0  0
  139.5550   70.5290  222.9180 C   0  0  0  0  0  0  0  0  0  0  0  0
  139.5930   69.6110  223.9420 C   0  0  0  0  0  0  0  0  0  0  0  0
  140.1010   70.0440  225.1500 C   0  0  0  0  0  0  0  0  0  0  0  0
  140.1390   69.1260  226.1750 C   0  0  0  0  0  0  0  0  0  0  0  0
  140.6350   69.5000  227.4050 C   0  0  0  0  0  0  0  0  0  0  0  0
  140.6910   68.3310  228.7260 Cl  0  0  0  0  0  0  0  0  0  0  0  0
  141.0800   70.7940  227.5650 C   0  0  0  0  0  0  0  0  0  0  0  0
  141.0370   71.7170  226.5180 C   0  0  0  0  0  0  0  0  0  0  0  0
  140.5410   71.3470  225.2870 C   0  0  0  0  0  0  0  0  0  0  0  0
  140.4870   72.2260  224.2540 N   0  0  0  0  0  0  0  0  0  0  0  0
  139.0860   74.3020  223.0800 H   0  0  0  0  0  0  0  0  0  0  0  0
  140.3052   75.2933  220.7885 H   0  0  0  0  0  0  0  0  0  0  0  0
  138.6685   74.4766  220.3212 H   0  0  0  0  0  0  0  0  0  0  0  0
  138.9643   78.0614  218.7572 H   0  0  0  0  0  0  0  0  0  0  0  0
  137.3593   78.1142  219.4471 H   0  0  0  0  0  0  0  0  0  0  0  0
  138.6561   80.4614  219.2733 H   0  0  0  0  0  0  0  0  0  0  0  0
  137.9703   80.1852  220.8304 H   0  0  0  0  0  0  0  0  0  0  0  0
  140.8312   79.4192  219.8336 H   0  0  0  0  0  0  0  0  0  0  0  0
  140.5027   80.4459  221.1993 H   0  0  0  0  0  0  0  0  0  0  0  0
  140.8944   77.7649  221.6436 H   0  0  0  0  0  0  0  0  0  0  0  0
  138.6076   79.4229  222.7734 H   0  0  0  0  0  0  0  0  0  0  0  0
  139.0400   77.8124  223.4003 H   0  0  0  0  0  0  0  0  0  0  0  0
  139.8395   81.0841  222.9730 H   0  0  0  0  0  0  0  0  0  0  0  0
  140.1578   80.8465  224.7901 H   0  0  0  0  0  0  0  0  0  0  0  0
  141.6151   82.4844  223.5032 H   0  0  0  0  0  0  0  0  0  0  0  0
  142.3709   81.2971  224.5980 H   0  0  0  0  0  0  0  0  0  0  0  0
  141.9475   80.8256  221.5854 H   0  0  0  0  0  0  0  0  0  0  0  0
  143.4638   81.4260  222.2477 H   0  0  0  0  0  0  0  0  0  0  0  0
  143.3280   78.8889  222.0577 H   0  0  0  0  0  0  0  0  0  0  0  0
  143.6211   79.5135  223.7592 H   0  0  0  0  0  0  0  0  0  0  0  0
  141.6001   77.8078  222.7354 H   0  0  0  0  0  0  0  0  0  0  0  0
  142.0645   78.3628  224.4585 H   0  0  0  0  0  0  0  0  0  0  0  0
  139.1552   70.2073  221.9450 H   0  0  0  0  0  0  0  0  0  0  0  0
  139.2352   68.5800  223.8044 H   0  0  0  0  0  0  0  0  0  0  0  0
  139.7758   68.1004  226.0133 H   0  0  0  0  0  0  0  0  0  0  0  0
  141.4788   71.1076  228.5410 H   0  0  0  0  0  0  0  0  0  0  0  0
  141.4004   72.7431  226.6766 H   0  0  0  0  0  0  0  0  0  0  0  0
  1  2  2  0
  2  3  1  0
  3  4  1  0
  4  5  1  0
  5  6  2  0
  5  7  1  0
  7  8  1  0
  8  9  1  0
  9 10  1  0
 10 11  1  0
 11 12  1  0
 12 13  1  0
 13 14  1  0
 14 15  1  0
 15 16  1  0
 16 17  1  0
 17 18  1  0
  2 19  1  0
 19 20  2  0
 20 21  1  0
 21 22  2  0
 22 23  1  0
 23 24  2  0
 24 25  1  0
 24 26  1  0
 26 27  2  0
 27 28  1  0
 28 29  2  0
 11  7  1  0
 18 13  1  0
 29 19  1  0
 28 22  1  0
  3 30  1  0
  4 31  1  0
  4 32  1  0
  8 33  1  0
  8 34  1  0
  9 35  1  0
  9 36  1  0
 10 37  1  0
 10 38  1  0
 11 39  1  1
 12 40  1  0
 12 41  1  0
 14 42  1  0
 14 43  1  0
 15 44  1  0
 15 45  1  0
 16 46  1  0
 16 47  1  0
 17 48  1  0
 17 49  1  0
 18 50  1  0
 18 51  1  0
 20 52  1  0
 21 53  1  0
 23 54  1  0
 26 55  1  0
 27 56  1  0
M  END
>  <smiles>  (10) 
O=C(NCC(=O)N1CCC[C@H]1CN1CCCCC1)c1ccc2cc(Cl)ccc2n1

>  <score_type>  (10) 
oracle

>  <origin>  (10) 
autodockgpu

>  <m_score__min__energy>  (10) 
-8.3900000000000006

>  <m_primary>  (10) 
energy

>  <rmsd>  (10) 
2.7063724761208565

>  <m_score__min__rmsd>  (10) 
2.7063724761208565

>  <meeko>  (10) 
{"free_energy": -7.99, "intermolecular_energy": -9.78, "internal_energy": -1.55, "cluster_size": 27, "cluster_id": 2, "rank_in_cluster": 11}

>  <energy>  (10) 
-7.41

>  <cluster_rmsd>  (10) 
1.22

>  <cluster>  (10) 
1

$$$$

     RDKit          3D

 56 59  0  0  0  0  0  0  0  0999 V2000
  134.7030   68.5200  225.2390 O   0  0  0  0  0  0  0  0  0  0  0  0
  135.1160   69.7020  224.9750 C   0  0  0  0  0  0  0  0  0  0  0  0
  136.2160   69.9330  224.1000 N   0  0  0  0  0  0  0  0  0  0  0  0
  136.9230   68.9040  223.4560 C   0  0  0  0  0  0  0  0  0  0  0  0
  138.2200   69.1530  222.8470 C   0  0  0  0  0  0  0  0  0  0  0  0
  138.8960   68.0700  222.5770 O   0  0  0  0  0  0  0  0  0  0  0  0
  138.7980   70.4270  222.5350 N   0  0  0  0  0  0  0  0  0  0  0  0
  138.4510   71.3900  221.5370 C   0  0  0  0  0  0  0  0  0  0  0  0
  138.9640   72.7070  222.1510 C   0  0  0  0  0  0  0  0  0  0  0  0
  140.3290   72.2240  222.6330 C   0  0  0  0  0  0  0  0  0  0  0  0
  139.9560   70.9120  223.3270 C   0  0  1  0  0  0  0  0  0  0  0  0
  139.4950   71.2000  224.7400 C   0  0  0  0  0  0  0  0  0  0  0  0
  140.4530   70.6010  225.6400 N   0  0  0  0  0  0  0  0  0  0  0  0
  140.2160   69.2690  226.0100 C   0  0  0  0  0  0  0  0  0  0  0  0
  140.5130   68.8800  227.4210 C   0  0  0  0  0  0  0  0  0  0  0  0
  139.9770   69.9750  228.3240 C   0  0  0  0  0  0  0  0  0  0  0  0
  140.8550   71.1740  228.0260 C   0  0  0  0  0  0  0  0  0  0  0  0
  141.0040   71.4890  226.5880 C   0  0  0  0  0  0  0  0  0  0  0  0
  134.4290   70.8370  225.5920 C   0  0  0  0  0  0  0  0  0  0  0  0
  133.4430   70.6320  226.5320 C   0  0  0  0  0  0  0  0  0  0  0  0
  132.7600   71.6540  227.1520 C   0  0  0  0  0  0  0  0  0  0  0  0
  133.1030   72.9410  226.7930 C   0  0  0  0  0  0  0  0  0  0  0  0
  132.4200   73.9640  227.4120 C   0  0  0  0  0  0  0  0  0  0  0  0
  132.7190   75.2710  227.0950 C   0  0  0  0  0  0  0  0  0  0  0  0
  131.8500   76.5900  227.8830 Cl  0  0  0  0  0  0  0  0  0  0  0  0
  133.7010   75.5090  226.1590 C   0  0  0  0  0  0  0  0  0  0  0  0
  134.3870   74.4640  225.5380 C   0  0  0  0  0  0  0  0  0  0  0  0
  134.0920   73.1550  225.8520 C   0  0  0  0  0  0  0  0  0  0  0  0
  134.7450   72.1230  225.2600 N   0  0  0  0  0  0  0  0  0  0  0  0
  136.4860   70.9420  223.9530 H   0  0  0  0  0  0  0  0  0  0  0  0
  137.0761   68.1134  224.2053 H   0  0  0  0  0  0  0  0  0  0  0  0
  136.2868   68.6810  222.5868 H   0  0  0  0  0  0  0  0  0  0  0  0
  138.9548   71.1733  220.5834 H   0  0  0  0  0  0  0  0  0  0  0  0
  137.3773   71.4066  221.2984 H   0  0  0  0  0  0  0  0  0  0  0  0
  139.0499   73.5069  221.4008 H   0  0  0  0  0  0  0  0  0  0  0  0
  138.3192   73.1545  222.9217 H   0  0  0  0  0  0  0  0  0  0  0  0
  141.0158   72.0529  221.7910 H   0  0  0  0  0  0  0  0  0  0  0  0
  140.8576   72.9404  223.2789 H   0  0  0  0  0  0  0  0  0  0  0  0
  140.7902   70.1970  223.3803 H   0  0  0  0  0  0  0  0  0  0  0  0
  139.4514   72.2864  224.9067 H   0  0  0  0  0  0  0  0  0  0  0  0
  138.4906   70.7858  224.9118 H   0  0  0  0  0  0  0  0  0  0  0  0
  139.1511   69.0616  225.8286 H   0  0  0  0  0  0  0  0  0  0  0  0
  140.9210   68.6811  225.4039 H   0  0  0  0  0  0  0  0  0  0  0  0
  140.0212   67.9250  227.6578 H   0  0  0  0  0  0  0  0  0  0  0  0
  141.5963   68.7564  227.5667 H   0  0  0  0  0  0  0  0  0  0  0  0
  138.9254   70.1944  228.0875 H   0  0  0  0  0  0  0  0  0  0  0  0
  140.0018   69.6914  229.3865 H   0  0  0  0  0  0  0  0  0  0  0  0
  140.4180   72.0513  228.5254 H   0  0  0  0  0  0  0  0  0  0  0  0
  141.8603   70.9222  228.3947 H   0  0  0  0  0  0  0  0  0  0  0  0
  140.5373   72.4711  226.4215 H   0  0  0  0  0  0  0  0  0  0  0  0
  142.0882   71.4291  226.4120 H   0  0  0  0  0  0  0  0  0  0  0  0
  133.1878   69.5965  226.8016 H   0  0  0  0  0  0  0  0  0  0  0  0
  131.9774   71.4537  227.8986 H   0  0  0  0  0  0  0  0  0  0  0  0
  131.6406   73.7391  228.1549 H   0  0  0  0  0  0  0  0  0  0  0  0
  133.9506   76.5472  225.8946 H   0  0  0  0  0  0  0  0  0  0  0  0
  135.1666   74.6863  224.7945 H   0  0  0  0  0  0  0  0  0  0  0  0
  1  2  2  0
  2  3  1  0
  3  4  1  0
  4  5  1  0
  5  6  2  0
  5  7  1  0
  7  8  1  0
  8  9  1  0
  9 10  1  0
 10 11  1  0
 11 12  1  0
 12 13  1  0
 13 14  1  0
 14 15  1  0
 15 16  1  0
 16 17  1  0
 17 18  1  0
  2 19  1  0
 19 20  2  0
 20 21  1  0
 21 22  2  0
 22 23  1  0
 23 24  2  0
 24 25  1  0
 24 26  1  0
 26 27  2  0
 27 28  1  0
 28 29  2  0
 11  7  1  0
 18 13  1  0
 29 19  1  0
 28 22  1  0
  3 30  1  0
  4 31  1  0
  4 32  1  0
  8 33  1  0
  8 34  1  0
  9 35  1  0
  9 36  1  0
 10 37  1  0
 10 38  1  0
 11 39  1  1
 12 40  1  0
 12 41  1  0
 14 42  1  0
 14 43  1  0
 15 44  1  0
 15 45  1  0
 16 46  1  0
 16 47  1  0
 17 48  1  0
 17 49  1  0
 18 50  1  0
 18 51  1  0
 20 52  1  0
 21 53  1  0
 23 54  1  0
 26 55  1  0
 27 56  1  0
M  END
>  <smiles>  (11) 
O=C(NCC(=O)N1CCC[C@H]1CN1CCCCC1)c1ccc2cc(Cl)ccc2n1

>  <score_type>  (11) 
oracle

>  <origin>  (11) 
autodockgpu

>  <m_score__min__energy>  (11) 
-8.3900000000000006

>  <m_primary>  (11) 
energy

>  <rmsd>  (11) 
8.272368872746904

>  <m_score__min__rmsd>  (11) 
8.272368872746904

>  <meeko>  (11) 
{"free_energy": -7.66, "intermolecular_energy": -9.45, "internal_energy": -1.91, "cluster_size": 12, "cluster_id": 1, "rank_in_cluster": 7}

>  <energy>  (11) 
-7.19

>  <cluster_rmsd>  (11) 
1.27

>  <cluster>  (11) 
1

$$$$

     RDKit          3D

 56 59  0  0  0  0  0  0  0  0999 V2000
  139.2000   71.7640  220.7020 O   0  0  0  0  0  0  0  0  0  0  0  0
  139.1930   72.2820  221.8720 C   0  0  0  0  0  0  0  0  0  0  0  0
  138.9310   73.6670  222.0770 N   0  0  0  0  0  0  0  0  0  0  0  0
  138.6520   74.5650  221.0340 C   0  0  0  0  0  0  0  0  0  0  0  0
  139.6760   74.9330  220.0680 C   0  0  0  0  0  0  0  0  0  0  0  0
  139.2590   75.7480  219.1380 O   0  0  0  0  0  0  0  0  0  0  0  0
  141.0400   74.4950  220.0470 N   0  0  0  0  0  0  0  0  0  0  0  0
  141.6440   73.3530  219.4350 C   0  0  0  0  0  0  0  0  0  0  0  0
  143.0970   73.8190  219.2190 C   0  0  0  0  0  0  0  0  0  0  0  0
  143.3420   74.4630  220.5800 C   0  0  0  0  0  0  0  0  0  0  0  0
  142.0710   75.2990  220.7510 C   0  0  1  0  0  0  0  0  0  0  0  0
  142.2350   76.6210  220.0330 C   0  0  0  0  0  0  0  0  0  0  0  0
  141.3930   77.5850  220.7030 N   0  0  0  0  0  0  0  0  0  0  0  0
  141.5850   78.9300  220.3560 C   0  0  0  0  0  0  0  0  0  0  0  0
  141.4950   79.9470  221.4460 C   0  0  0  0  0  0  0  0  0  0  0  0
  142.2540   79.4070  222.6440 C   0  0  0  0  0  0  0  0  0  0  0  0
  141.4330   78.2190  223.1080 C   0  0  0  0  0  0  0  0  0  0  0  0
  141.0760   77.2610  222.0390 C   0  0  0  0  0  0  0  0  0  0  0  0
  139.4610   71.4160  223.0210 C   0  0  0  0  0  0  0  0  0  0  0  0
  139.1490   70.0750  222.9750 C   0  0  0  0  0  0  0  0  0  0  0  0
  139.3760   69.2060  224.0180 C   0  0  0  0  0  0  0  0  0  0  0  0
  139.9470   69.7350  225.1580 C   0  0  0  0  0  0  0  0  0  0  0  0
  140.1730   68.8670  226.2020 C   0  0  0  0  0  0  0  0  0  0  0  0
  140.7410   69.3370  227.3660 C   0  0  0  0  0  0  0  0  0  0  0  0
  141.0370   68.2320  228.7110 Cl  0  0  0  0  0  0  0  0  0  0  0  0
  141.0650   70.6740  227.4430 C   0  0  0  0  0  0  0  0  0  0  0  0
  140.8310   71.5450  226.3780 C   0  0  0  0  0  0  0  0  0  0  0  0
  140.2630   71.0790  225.2120 C   0  0  0  0  0  0  0  0  0  0  0  0
  140.0240   71.9070  224.1630 N   0  0  0  0  0  0  0  0  0  0  0  0
  138.9570   73.9990  223.0780 H   0  0  0  0  0  0  0  0  0  0  0  0
  137.8221   74.1284  220.4590 H   0  0  0  0  0  0  0  0  0  0  0  0
  138.4736   75.5094  221.5691 H   0  0  0  0  0  0  0  0  0  0  0  0
  141.6021   72.4773  220.0994 H   0  0  0  0  0  0  0  0  0  0  0  0
  141.1431   73.0360  218.5084 H   0  0  0  0  0  0  0  0  0  0  0  0
  143.7779   72.9754  219.0326 H   0  0  0  0  0  0  0  0  0  0  0  0
  143.2616   74.4715  218.3489 H   0  0  0  0  0  0  0  0  0  0  0  0
  143.4354   73.7059  221.3725 H   0  0  0  0  0  0  0  0  0  0  0  0
  144.2742   75.0437  220.6417 H   0  0  0  0  0  0  0  0  0  0  0  0
  141.8287   75.5112  221.8028 H   0  0  0  0  0  0  0  0  0  0  0  0
  143.2854   76.9447  220.0769 H   0  0  0  0  0  0  0  0  0  0  0  0
  141.9498   76.5258  218.9749 H   0  0  0  0  0  0  0  0  0  0  0  0
  142.5868   79.0145  219.9095 H   0  0  0  0  0  0  0  0  0  0  0  0
  140.7465   79.1667  219.6845 H   0  0  0  0  0  0  0  0  0  0  0  0
  141.9450   80.8939  221.1131 H   0  0  0  0  0  0  0  0  0  0  0  0
  140.4442   80.1377  221.7094 H   0  0  0  0  0  0  0  0  0  0  0  0
  143.2663   79.0903  222.3527 H   0  0  0  0  0  0  0  0  0  0  0  0
  142.3818   80.1619  223.4338 H   0  0  0  0  0  0  0  0  0  0  0  0
  142.0117   77.6798  223.8725 H   0  0  0  0  0  0  0  0  0  0  0  0
  140.4854   78.6258  223.4908 H   0  0  0  0  0  0  0  0  0  0  0  0
  141.5839   76.3133  222.2712 H   0  0  0  0  0  0  0  0  0  0  0  0
  139.9763   77.2423  222.0546 H   0  0  0  0  0  0  0  0  0  0  0  0
  138.6942   69.6775  222.0557 H   0  0  0  0  0  0  0  0  0  0  0  0
  139.1146   68.1399  223.9465 H   0  0  0  0  0  0  0  0  0  0  0  0
  139.9020   67.8051  226.1077 H   0  0  0  0  0  0  0  0  0  0  0  0
  141.5189   71.0642  228.3659 H   0  0  0  0  0  0  0  0  0  0  0  0
  141.1009   72.6074  226.4696 H   0  0  0  0  0  0  0  0  0  0  0  0
  1  2  2  0
  2  3  1  0
  3  4  1  0
  4  5  1  0
  5  6  2  0
  5  7  1  0
  7  8  1  0
  8  9  1  0
  9 10  1  0
 10 11  1  0
 11 12  1  0
 12 13  1  0
 13 14  1  0
 14 15  1  0
 15 16  1  0
 16 17  1  0
 17 18  1  0
  2 19  1  0
 19 20  2  0
 20 21  1  0
 21 22  2  0
 22 23  1  0
 23 24  2  0
 24 25  1  0
 24 26  1  0
 26 27  2  0
 27 28  1  0
 28 29  2  0
 11  7  1  0
 18 13  1  0
 29 19  1  0
 28 22  1  0
  3 30  1  0
  4 31  1  0
  4 32  1  0
  8 33  1  0
  8 34  1  0
  9 35  1  0
  9 36  1  0
 10 37  1  0
 10 38  1  0
 11 39  1  1
 12 40  1  0
 12 41  1  0
 14 42  1  0
 14 43  1  0
 15 44  1  0
 15 45  1  0
 16 46  1  0
 16 47  1  0
 17 48  1  0
 17 49  1  0
 18 50  1  0
 18 51  1  0
 20 52  1  0
 21 53  1  0
 23 54  1  0
 26 55  1  0
 27 56  1  0
M  END
>  <smiles>  (12) 
O=C(NCC(=O)N1CCC[C@H]1CN1CCCCC1)c1ccc2cc(Cl)ccc2n1

>  <score_type>  (12) 
oracle

>  <origin>  (12) 
autodockgpu

>  <m_score__min__energy>  (12) 
-8.3900000000000006

>  <m_primary>  (12) 
energy

>  <rmsd>  (12) 
2.793987426006992

>  <m_score__min__rmsd>  (12) 
2.793987426006992

>  <meeko>  (12) 
{"free_energy": -7.56, "intermolecular_energy": -9.35, "internal_energy": -1.97, "cluster_size": 27, "cluster_id": 2, "rank_in_cluster": 21}

>  <energy>  (12) 
-6.67

>  <cluster_rmsd>  (12) 
1.31

>  <cluster>  (12) 
1

$$$$

     RDKit          3D

 56 59  0  0  0  0  0  0  0  0999 V2000
  140.5520   72.5540  220.9870 O   0  0  0  0  0  0  0  0  0  0  0  0
  140.0810   72.9140  222.1210 C   0  0  0  0  0  0  0  0  0  0  0  0
  139.5650   74.2240  222.3370 N   0  0  0  0  0  0  0  0  0  0  0  0
  139.5180   75.2120  221.3390 C   0  0  0  0  0  0  0  0  0  0  0  0
  140.5790   76.1980  221.2110 C   0  0  0  0  0  0  0  0  0  0  0  0
  141.0610   76.6090  222.3520 O   0  0  0  0  0  0  0  0  0  0  0  0
  141.1160   76.7360  219.9970 N   0  0  0  0  0  0  0  0  0  0  0  0
  141.3010   76.1370  218.7120 C   0  0  0  0  0  0  0  0  0  0  0  0
  141.2640   77.3540  217.7670 C   0  0  0  0  0  0  0  0  0  0  0  0
  142.1630   78.2960  218.5630 C   0  0  0  0  0  0  0  0  0  0  0  0
  141.5850   78.1450  219.9720 C   0  0  1  0  0  0  0  0  0  0  0  0
  140.3910   79.0600  220.1300 C   0  0  0  0  0  0  0  0  0  0  0  0
  140.6560   79.9290  221.2530 N   0  0  0  0  0  0  0  0  0  0  0  0
  141.9780   80.3740  221.4010 C   0  0  0  0  0  0  0  0  0  0  0  0
  142.5240   80.4710  222.7880 C   0  0  0  0  0  0  0  0  0  0  0  0
  142.1070   79.2190  223.5370 C   0  0  0  0  0  0  0  0  0  0  0  0
  140.6020   79.3420  223.6690 C   0  0  0  0  0  0  0  0  0  0  0  0
  139.8940   79.6480  222.4070 C   0  0  0  0  0  0  0  0  0  0  0  0
  140.0780   71.9430  223.2160 C   0  0  0  0  0  0  0  0  0  0  0  0
  139.5680   70.6770  223.0280 C   0  0  0  0  0  0  0  0  0  0  0  0
  139.5350   69.7170  224.0140 C   0  0  0  0  0  0  0  0  0  0  0  0
  140.0490   70.0700  225.2450 C   0  0  0  0  0  0  0  0  0  0  0  0
  140.0170   69.1100  226.2320 C   0  0  0  0  0  0  0  0  0  0  0  0
  140.5150   69.4040  227.4830 C   0  0  0  0  0  0  0  0  0  0  0  0
  140.4800   68.1810  228.7550 Cl  0  0  0  0  0  0  0  0  0  0  0  0
  141.0340   70.6620  227.7020 C   0  0  0  0  0  0  0  0  0  0  0  0
  141.0610   71.6270  226.6940 C   0  0  0  0  0  0  0  0  0  0  0  0
  140.5640   71.3370  225.4420 C   0  0  0  0  0  0  0  0  0  0  0  0
  140.5780   72.2600  224.4460 N   0  0  0  0  0  0  0  0  0  0  0  0
  139.2080   74.4260  223.3090 H   0  0  0  0  0  0  0  0  0  0  0  0
  139.4657   74.6821  220.3765 H   0  0  0  0  0  0  0  0  0  0  0  0
  138.6555   75.8229  221.6437 H   0  0  0  0  0  0  0  0  0  0  0  0
  142.2682   75.6164  218.6518 H   0  0  0  0  0  0  0  0  0  0  0  0
  140.5468   75.3730  218.4721 H   0  0  0  0  0  0  0  0  0  0  0  0
  141.6831   77.1212  216.7770 H   0  0  0  0  0  0  0  0  0  0  0  0
  140.2619   77.7411  217.5304 H   0  0  0  0  0  0  0  0  0  0  0  0
  143.2151   77.9775  218.5233 H   0  0  0  0  0  0  0  0  0  0  0  0
  142.1735   79.3306  218.1895 H   0  0  0  0  0  0  0  0  0  0  0  0
  142.3071   78.3882  220.7654 H   0  0  0  0  0  0  0  0  0  0  0  0
  140.2524   79.6577  219.2170 H   0  0  0  0  0  0  0  0  0  0  0  0
  139.4747   78.4756  220.2999 H   0  0  0  0  0  0  0  0  0  0  0  0
  142.6231   79.6809  220.8411 H   0  0  0  0  0  0  0  0  0  0  0  0
  141.9668   81.4103  221.0322 H   0  0  0  0  0  0  0  0  0  0  0  0
  143.6214   80.5395  222.7546 H   0  0  0  0  0  0  0  0  0  0  0  0
  142.1367   81.3685  223.2924 H   0  0  0  0  0  0  0  0  0  0  0  0
  142.3753   78.3171  222.9673 H   0  0  0  0  0  0  0  0  0  0  0  0
  142.6073   79.1279  224.5124 H   0  0  0  0  0  0  0  0  0  0  0  0
  140.2131   78.3893  224.0578 H   0  0  0  0  0  0  0  0  0  0  0  0
  140.4176   80.1918  224.3427 H   0  0  0  0  0  0  0  0  0  0  0  0
  139.2601   78.7801  222.1729 H   0  0  0  0  0  0  0  0  0  0  0  0
  139.3699   80.5920  222.6171 H   0  0  0  0  0  0  0  0  0  0  0  0
  139.1657   70.4196  222.0371 H   0  0  0  0  0  0  0  0  0  0  0  0
  139.1186   68.7158  223.8294 H   0  0  0  0  0  0  0  0  0  0  0  0
  139.5967   68.1151  226.0232 H   0  0  0  0  0  0  0  0  0  0  0  0
  141.4365   70.9114  228.6949 H   0  0  0  0  0  0  0  0  0  0  0  0
  141.4806   72.6228  226.8998 H   0  0  0  0  0  0  0  0  0  0  0  0
  1  2  2  0
  2  3  1  0
  3  4  1  0
  4  5  1  0
  5  6  2  0
  5  7  1  0
  7  8  1  0
  8  9  1  0
  9 10  1  0
 10 11  1  0
 11 12  1  0
 12 13  1  0
 13 14  1  0
 14 15  1  0
 15 16  1  0
 16 17  1  0
 17 18  1  0
  2 19  1  0
 19 20  2  0
 20 21  1  0
 21 22  2  0
 22 23  1  0
 23 24  2  0
 24 25  1  0
 24 26  1  0
 26 27  2  0
 27 28  1  0
 28 29  2  0
 11  7  1  0
 18 13  1  0
 29 19  1  0
 28 22  1  0
  3 30  1  0
  4 31  1  0
  4 32  1  0
  8 33  1  0
  8 34  1  0
  9 35  1  0
  9 36  1  0
 10 37  1  0
 10 38  1  0
 11 39  1  1
 12 40  1  0
 12 41  1  0
 14 42  1  0
 14 43  1  0
 15 44  1  0
 15 45  1  0
 16 46  1  0
 16 47  1  0
 17 48  1  0
 17 49  1  0
 18 50  1  0
 18 51  1  0
 20 52  1  0
 21 53  1  0
 23 54  1  0
 26 55  1  0
 27 56  1  0
M  END
>  <smiles>  (13) 
O=C(NCC(=O)N1CCC[C@H]1CN1CCCCC1)c1ccc2cc(Cl)ccc2n1

>  <score_type>  (13) 
oracle

>  <origin>  (13) 
autodockgpu

>  <m_score__min__energy>  (13) 
-8.3900000000000006

>  <m_primary>  (13) 
energy

>  <rmsd>  (13) 
2.3272461912369504

>  <m_score__min__rmsd>  (13) 
2.3272461912369504

>  <meeko>  (13) 
{"free_energy": -8.03, "intermolecular_energy": -9.82, "internal_energy": -1.74, "cluster_size": 27, "cluster_id": 2, "rank_in_cluster": 9}

>  <energy>  (13) 
-8.25

>  <cluster_rmsd>  (13) 
0.0

>  <cluster>  (13) 
2

$$$$

     RDKit          3D

 56 59  0  0  0  0  0  0  0  0999 V2000
  140.3650   73.8370  222.1760 O   0  0  0  0  0  0  0  0  0  0  0  0
  139.6560   72.7720  222.1590 C   0  0  0  0  0  0  0  0  0  0  0  0
  138.7390   72.5000  221.1040 N   0  0  0  0  0  0  0  0  0  0  0  0
  138.5460   73.3550  220.0060 C   0  0  0  0  0  0  0  0  0  0  0  0
  138.2810   74.7720  220.1980 C   0  0  0  0  0  0  0  0  0  0  0  0
  138.8540   75.5430  219.3140 O   0  0  0  0  0  0  0  0  0  0  0  0
  137.4860   75.3710  221.2290 N   0  0  0  0  0  0  0  0  0  0  0  0
  136.3670   74.8600  221.9590 C   0  0  0  0  0  0  0  0  0  0  0  0
  136.4330   75.6630  223.2730 C   0  0  0  0  0  0  0  0  0  0  0  0
  136.6880   77.0490  222.6890 C   0  0  0  0  0  0  0  0  0  0  0  0
  137.8000   76.7500  221.6800 C   0  0  1  0  0  0  0  0  0  0  0  0
  139.1370   76.7390  222.3880 C   0  0  0  0  0  0  0  0  0  0  0  0
  139.7670   78.0170  222.1460 N   0  0  0  0  0  0  0  0  0  0  0  0
  141.1000   77.9840  221.7130 C   0  0  0  0  0  0  0  0  0  0  0  0
  142.0260   79.0280  222.2460 C   0  0  0  0  0  0  0  0  0  0  0  0
  141.7650   79.1600  223.7350 C   0  0  0  0  0  0  0  0  0  0  0  0
  140.3710   79.7510  223.8230 C   0  0  0  0  0  0  0  0  0  0  0  0
  139.3510   79.0500  223.0110 C   0  0  0  0  0  0  0  0  0  0  0  0
  139.8030   71.8160  223.2570 C   0  0  0  0  0  0  0  0  0  0  0  0
  139.4240   70.5010  223.0960 C   0  0  0  0  0  0  0  0  0  0  0  0
  139.5350   69.5510  224.0860 C   0  0  0  0  0  0  0  0  0  0  0  0
  140.0600   69.9680  225.2930 C   0  0  0  0  0  0  0  0  0  0  0  0
  140.1720   69.0180  226.2840 C   0  0  0  0  0  0  0  0  0  0  0  0
  140.6880   69.3740  227.5110 C   0  0  0  0  0  0  0  0  0  0  0  0
  140.8370   68.1660  228.7890 Cl  0  0  0  0  0  0  0  0  0  0  0  0
  141.0770   70.6820  227.7030 C   0  0  0  0  0  0  0  0  0  0  0  0
  140.9590   71.6360  226.6910 C   0  0  0  0  0  0  0  0  0  0  0  0
  140.4430   71.2840  225.4620 C   0  0  0  0  0  0  0  0  0  0  0  0
  140.3170   72.1950  224.4630 N   0  0  0  0  0  0  0  0  0  0  0  0
  138.1950   71.6000  221.1840 H   0  0  0  0  0  0  0  0  0  0  0  0
  139.4569   73.2874  219.3930 H   0  0  0  0  0  0  0  0  0  0  0  0
  137.6020   72.9882  219.5766 H   0  0  0  0  0  0  0  0  0  0  0  0
  135.4241   75.0482  221.4248 H   0  0  0  0  0  0  0  0  0  0  0  0
  136.4004   73.7706  222.1080 H   0  0  0  0  0  0  0  0  0  0  0  0
  135.4869   75.6182  223.8324 H   0  0  0  0  0  0  0  0  0  0  0  0
  137.1749   75.3132  224.0059 H   0  0  0  0  0  0  0  0  0  0  0  0
  135.7910   77.4482  222.1930 H   0  0  0  0  0  0  0  0  0  0  0  0
  136.9517   77.8112  223.4370 H   0  0  0  0  0  0  0  0  0  0  0  0
  137.8537   77.4850  220.8634 H   0  0  0  0  0  0  0  0  0  0  0  0
  138.9889   76.5917  223.4680 H   0  0  0  0  0  0  0  0  0  0  0  0
  139.7673   75.9191  222.0132 H   0  0  0  0  0  0  0  0  0  0  0  0
  141.5129   77.0037  221.9932 H   0  0  0  0  0  0  0  0  0  0  0  0
  141.0478   78.1822  220.6323 H   0  0  0  0  0  0  0  0  0  0  0  0
  143.0697   78.7261  222.0740 H   0  0  0  0  0  0  0  0  0  0  0  0
  141.8559   79.9890  221.7385 H   0  0  0  0  0  0  0  0  0  0  0  0
  141.8022   78.1761  224.2254 H   0  0  0  0  0  0  0  0  0  0  0  0
  142.5176   79.7844  224.2387 H   0  0  0  0  0  0  0  0  0  0  0  0
  140.0516   79.7210  224.8752 H   0  0  0  0  0  0  0  0  0  0  0  0
  140.4402   80.7728  223.4215 H   0  0  0  0  0  0  0  0  0  0  0  0
  138.6241   78.6128  223.7113 H   0  0  0  0  0  0  0  0  0  0  0  0
  138.9681   79.8276  222.3337 H   0  0  0  0  0  0  0  0  0  0  0  0
  139.0105   70.1939  222.1240 H   0  0  0  0  0  0  0  0  0  0  0  0
  139.2205   68.5095  223.9233 H   0  0  0  0  0  0  0  0  0  0  0  0
  139.8517   67.9824  226.0972 H   0  0  0  0  0  0  0  0  0  0  0  0
  141.4905   70.9815  228.6773 H   0  0  0  0  0  0  0  0  0  0  0  0
  141.2788   72.6723  226.8747 H   0  0  0  0  0  0  0  0  0  0  0  0
  1  2  2  0
  2  3  1  0
  3  4  1  0
  4  5  1  0
  5  6  2  0
  5  7  1  0
  7  8  1  0
  8  9  1  0
  9 10  1  0
 10 11  1  0
 11 12  1  0
 12 13  1  0
 13 14  1  0
 14 15  1  0
 15 16  1  0
 16 17  1  0
 17 18  1  0
  2 19  1  0
 19 20  2  0
 20 21  1  0
 21 22  2  0
 22 23  1  0
 23 24  2  0
 24 25  1  0
 24 26  1  0
 26 27  2  0
 27 28  1  0
 28 29  2  0
 11  7  1  0
 18 13  1  0
 29 19  1  0
 28 22  1  0
  3 30  1  0
  4 31  1  0
  4 32  1  0
  8 33  1  0
  8 34  1  0
  9 35  1  0
  9 36  1  0
 10 37  1  0
 10 38  1  0
 11 39  1  6
 12 40  1  0
 12 41  1  0
 14 42  1  0
 14 43  1  0
 15 44  1  0
 15 45  1  0
 16 46  1  0
 16 47  1  0
 17 48  1  0
 17 49  1  0
 18 50  1  0
 18 51  1  0
 20 52  1  0
 21 53  1  0
 23 54  1  0
 26 55  1  0
 27 56  1  0
M  END
>  <smiles>  (14) 
O=C(NCC(=O)N1CCC[C@H]1CN1CCCCC1)c1ccc2cc(Cl)ccc2n1

>  <score_type>  (14) 
oracle

>  <origin>  (14) 
autodockgpu

>  <m_score__min__energy>  (14) 
-8.3900000000000006

>  <m_primary>  (14) 
energy

>  <rmsd>  (14) 
3.4739697778705905

>  <m_score__min__rmsd>  (14) 
3.4739697778705905

>  <meeko>  (14) 
{"free_energy": -7.65, "intermolecular_energy": -9.44, "internal_energy": -1.67, "cluster_size": 27, "cluster_id": 2, "rank_in_cluster": 18}

>  <energy>  (14) 
-8.25

>  <cluster_rmsd>  (14) 
0.61

>  <cluster>  (14) 
2

$$$$

     RDKit          3D

 56 59  0  0  0  0  0  0  0  0999 V2000
  139.5800   71.2270  221.0980 O   0  0  0  0  0  0  0  0  0  0  0  0
  139.1200   71.7090  222.1900 C   0  0  0  0  0  0  0  0  0  0  0  0
  138.1420   72.7450  222.1990 N   0  0  0  0  0  0  0  0  0  0  0  0
  137.5990   73.3070  221.0320 C   0  0  0  0  0  0  0  0  0  0  0  0
  138.3100   74.3430  220.2990 C   0  0  0  0  0  0  0  0  0  0  0  0
  138.1640   74.2710  219.0040 O   0  0  0  0  0  0  0  0  0  0  0  0
  139.1230   75.3870  220.8490 N   0  0  0  0  0  0  0  0  0  0  0  0
  138.7730   76.5190  221.6490 C   0  0  0  0  0  0  0  0  0  0  0  0
  140.0820   76.8060  222.4110 C   0  0  0  0  0  0  0  0  0  0  0  0
  141.0630   76.6750  221.2490 C   0  0  0  0  0  0  0  0  0  0  0  0
  140.5860   75.3750  220.5970 C   0  0  1  0  0  0  0  0  0  0  0  0
  141.1970   74.1940  221.3200 C   0  0  0  0  0  0  0  0  0  0  0  0
  142.1510   73.5830  220.4240 N   0  0  0  0  0  0  0  0  0  0  0  0
  142.5660   72.2820  220.7430 C   0  0  0  0  0  0  0  0  0  0  0  0
  144.0000   71.9360  220.5130 C   0  0  0  0  0  0  0  0  0  0  0  0
  144.8410   73.0940  221.0190 C   0  0  0  0  0  0  0  0  0  0  0  0
  144.5260   74.2330  220.0690 C   0  0  0  0  0  0  0  0  0  0  0  0
  143.0830   74.4800  219.8580 C   0  0  0  0  0  0  0  0  0  0  0  0
  139.6200   71.1730  223.4560 C   0  0  0  0  0  0  0  0  0  0  0  0
  140.5270   71.8860  224.2100 C   0  0  0  0  0  0  0  0  0  0  0  0
  141.0360   71.4410  225.4090 C   0  0  0  0  0  0  0  0  0  0  0  0
  140.5950   70.2120  225.8550 C   0  0  0  0  0  0  0  0  0  0  0  0
  141.1030   69.7650  227.0550 C   0  0  0  0  0  0  0  0  0  0  0  0
  140.7000   68.5450  227.5510 C   0  0  0  0  0  0  0  0  0  0  0  0
  141.3450   67.9630  229.0880 Cl  0  0  0  0  0  0  0  0  0  0  0  0
  139.7930   67.8080  226.8220 C   0  0  0  0  0  0  0  0  0  0  0  0
  139.2850   68.2710  225.6070 C   0  0  0  0  0  0  0  0  0  0  0  0
  139.6850   69.4900  225.1060 C   0  0  0  0  0  0  0  0  0  0  0  0
  139.2050   69.9610  223.9270 N   0  0  0  0  0  0  0  0  0  0  0  0
  137.8340   73.0810  223.1500 H   0  0  0  0  0  0  0  0  0  0  0  0
  137.4434   72.4763  220.3279 H   0  0  0  0  0  0  0  0  0  0  0  0
  136.7145   73.8410  221.4093 H   0  0  0  0  0  0  0  0  0  0  0  0
  138.4823   77.3746  221.0217 H   0  0  0  0  0  0  0  0  0  0  0  0
  137.9114   76.3402  222.3090 H   0  0  0  0  0  0  0  0  0  0  0  0
  140.0925   77.8151  222.8488 H   0  0  0  0  0  0  0  0  0  0  0  0
  140.2805   76.1554  223.2755 H   0  0  0  0  0  0  0  0  0  0  0  0
  140.9824   77.5258  220.5564 H   0  0  0  0  0  0  0  0  0  0  0  0
  142.1204   76.6648  221.5519 H   0  0  0  0  0  0  0  0  0  0  0  0
  140.8538   75.2985  219.5328 H   0  0  0  0  0  0  0  0  0  0  0  0
  141.7052   74.5351  222.2340 H   0  0  0  0  0  0  0  0  0  0  0  0
  140.4192   73.4719  221.6091 H   0  0  0  0  0  0  0  0  0  0  0  0
  142.3567   72.1228  221.8111 H   0  0  0  0  0  0  0  0  0  0  0  0
  142.0087   71.6342  220.0503 H   0  0  0  0  0  0  0  0  0  0  0  0
  144.2568   71.0183  221.0625 H   0  0  0  0  0  0  0  0  0  0  0  0
  144.1876   71.7622  219.4431 H   0  0  0  0  0  0  0  0  0  0  0  0
  144.5603   73.3577  222.0494 H   0  0  0  0  0  0  0  0  0  0  0  0
  145.9141   72.8533  221.0434 H   0  0  0  0  0  0  0  0  0  0  0  0
  144.9753   75.1516  220.4743 H   0  0  0  0  0  0  0  0  0  0  0  0
  144.9385   73.9451  219.0908 H   0  0  0  0  0  0  0  0  0  0  0  0
  142.8621   75.4770  220.2670 H   0  0  0  0  0  0  0  0  0  0  0  0
  142.9471   74.3567  218.7734 H   0  0  0  0  0  0  0  0  0  0  0  0
  140.8623   72.8636  223.8332 H   0  0  0  0  0  0  0  0  0  0  0  0
  141.7599   72.0368  225.9843 H   0  0  0  0  0  0  0  0  0  0  0  0
  141.8256   70.3783  227.6132 H   0  0  0  0  0  0  0  0  0  0  0  0
  139.4613   66.8321  227.2061 H   0  0  0  0  0  0  0  0  0  0  0  0
  138.5620   67.6595  225.0472 H   0  0  0  0  0  0  0  0  0  0  0  0
  1  2  2  0
  2  3  1  0
  3  4  1  0
  4  5  1  0
  5  6  2  0
  5  7  1  0
  7  8  1  0
  8  9  1  0
  9 10  1  0
 10 11  1  0
 11 12  1  0
 12 13  1  0
 13 14  1  0
 14 15  1  0
 15 16  1  0
 16 17  1  0
 17 18  1  0
  2 19  1  0
 19 20  2  0
 20 21  1  0
 21 22  2  0
 22 23  1  0
 23 24  2  0
 24 25  1  0
 24 26  1  0
 26 27  2  0
 27 28  1  0
 28 29  2  0
 11  7  1  0
 18 13  1  0
 29 19  1  0
 28 22  1  0
  3 30  1  0
  4 31  1  0
  4 32  1  0
  8 33  1  0
  8 34  1  0
  9 35  1  0
  9 36  1  0
 10 37  1  0
 10 38  1  0
 11 39  1  6
 12 40  1  0
 12 41  1  0
 14 42  1  0
 14 43  1  0
 15 44  1  0
 15 45  1  0
 16 46  1  0
 16 47  1  0
 17 48  1  0
 17 49  1  0
 18 50  1  0
 18 51  1  0
 20 52  1  0
 21 53  1  0
 23 54  1  0
 26 55  1  0
 27 56  1  0
M  END
>  <smiles>  (15) 
O=C(NCC(=O)N1CCC[C@H]1CN1CCCCC1)c1ccc2cc(Cl)ccc2n1

>  <score_type>  (15) 
oracle

>  <origin>  (15) 
autodockgpu

>  <m_score__min__energy>  (15) 
-8.3900000000000006

>  <m_primary>  (15) 
energy

>  <rmsd>  (15) 
4.659882536318354

>  <m_score__min__rmsd>  (15) 
4.659882536318354

>  <meeko>  (15) 
{"free_energy": -7.24, "intermolecular_energy": -9.03, "internal_energy": -1.98, "cluster_size": 5, "cluster_id": 4, "rank_in_cluster": 4}

>  <energy>  (15) 
-8.19

>  <cluster_rmsd>  (15) 
1.31

>  <cluster>  (15) 
2

$$$$

     RDKit          3D

 56 59  0  0  0  0  0  0  0  0999 V2000
  140.0660   72.2320  220.7750 O   0  0  0  0  0  0  0  0  0  0  0  0
  139.8260   72.6700  221.9530 C   0  0  0  0  0  0  0  0  0  0  0  0
  139.4680   74.0290  222.1880 N   0  0  0  0  0  0  0  0  0  0  0  0
  139.3370   74.9830  221.1660 C   0  0  0  0  0  0  0  0  0  0  0  0
  139.0230   76.3700  221.4720 C   0  0  0  0  0  0  0  0  0  0  0  0
  138.6410   76.5680  222.7040 O   0  0  0  0  0  0  0  0  0  0  0  0
  139.0880   77.4880  220.5780 N   0  0  0  0  0  0  0  0  0  0  0  0
  138.5180   77.6800  219.2810 C   0  0  0  0  0  0  0  0  0  0  0  0
  138.3920   79.2140  219.1960 C   0  0  0  0  0  0  0  0  0  0  0  0
  139.7650   79.5920  219.7430 C   0  0  0  0  0  0  0  0  0  0  0  0
  139.8540   78.6940  220.9800 C   0  0  1  0  0  0  0  0  0  0  0  0
  139.1450   79.3600  222.1400 C   0  0  0  0  0  0  0  0  0  0  0  0
  140.1280   79.5900  223.1740 N   0  0  0  0  0  0  0  0  0  0  0  0
  140.4360   80.9280  223.4570 C   0  0  0  0  0  0  0  0  0  0  0  0
  141.8600   81.2630  223.7570 C   0  0  0  0  0  0  0  0  0  0  0  0
  142.7280   80.5320  222.7490 C   0  0  0  0  0  0  0  0  0  0  0  0
  142.5580   79.0660  223.0980 C   0  0  0  0  0  0  0  0  0  0  0  0
  141.1540   78.6230  223.2360 C   0  0  0  0  0  0  0  0  0  0  0  0
  139.9250   71.7410  223.0790 C   0  0  0  0  0  0  0  0  0  0  0  0
  139.5050   70.4350  222.9480 C   0  0  0  0  0  0  0  0  0  0  0  0
  139.5720   69.5100  223.9650 C   0  0  0  0  0  0  0  0  0  0  0  0
  140.0920   69.9420  225.1680 C   0  0  0  0  0  0  0  0  0  0  0  0
  140.1590   69.0180  226.1860 C   0  0  0  0  0  0  0  0  0  0  0  0
  140.6680   69.3910  227.4110 C   0  0  0  0  0  0  0  0  0  0  0  0
  140.7600   68.2140  228.7230 Cl  0  0  0  0  0  0  0  0  0  0  0  0
  141.0980   70.6900  227.5730 C   0  0  0  0  0  0  0  0  0  0  0  0
  141.0260   71.6190  226.5340 C   0  0  0  0  0  0  0  0  0  0  0  0
  140.5160   71.2500  225.3070 C   0  0  0  0  0  0  0  0  0  0  0  0
  140.4350   72.1360  224.2820 N   0  0  0  0  0  0  0  0  0  0  0  0
  139.2990   74.2950  223.1950 H   0  0  0  0  0  0  0  0  0  0  0  0
  140.2928   74.9914  220.6216 H   0  0  0  0  0  0  0  0  0  0  0  0
  138.4374   74.6434  220.6317 H   0  0  0  0  0  0  0  0  0  0  0  0
  139.1809   77.2913  218.4939 H   0  0  0  0  0  0  0  0  0  0  0  0
  137.5630   77.1529  219.1392 H   0  0  0  0  0  0  0  0  0  0  0  0
  138.2496   79.5602  218.1617 H   0  0  0  0  0  0  0  0  0  0  0  0
  137.5329   79.6500  219.7268 H   0  0  0  0  0  0  0  0  0  0  0  0
  140.5628   79.3630  219.0212 H   0  0  0  0  0  0  0  0  0  0  0  0
  139.8850   80.6645  219.9559 H   0  0  0  0  0  0  0  0  0  0  0  0
  140.8879   78.4819  221.2899 H   0  0  0  0  0  0  0  0  0  0  0  0
  138.7102   80.3168  221.8153 H   0  0  0  0  0  0  0  0  0  0  0  0
  138.3302   78.7228  222.5142 H   0  0  0  0  0  0  0  0  0  0  0  0
  140.1343   81.5264  222.5847 H   0  0  0  0  0  0  0  0  0  0  0  0
  139.8960   81.1467  224.3900 H   0  0  0  0  0  0  0  0  0  0  0  0
  142.0162   82.3483  223.6687 H   0  0  0  0  0  0  0  0  0  0  0  0
  142.1198   80.9588  224.7817 H   0  0  0  0  0  0  0  0  0  0  0  0
  142.3843   80.7303  221.7231 H   0  0  0  0  0  0  0  0  0  0  0  0
  143.7792   80.8536  222.7895 H   0  0  0  0  0  0  0  0  0  0  0  0
  143.0297   78.4678  222.3045 H   0  0  0  0  0  0  0  0  0  0  0  0
  143.0269   78.9245  224.0830 H   0  0  0  0  0  0  0  0  0  0  0  0
  140.9633   77.8969  222.4320 H   0  0  0  0  0  0  0  0  0  0  0  0
  141.0958   78.2382  224.2648 H   0  0  0  0  0  0  0  0  0  0  0  0
  139.0944   70.1148  221.9791 H   0  0  0  0  0  0  0  0  0  0  0  0
  139.2272   68.4748  223.8254 H   0  0  0  0  0  0  0  0  0  0  0  0
  139.8084   67.9882  226.0227 H   0  0  0  0  0  0  0  0  0  0  0  0
  141.5080   71.0024  228.5448 H   0  0  0  0  0  0  0  0  0  0  0  0
  141.3772   72.6490  226.6943 H   0  0  0  0  0  0  0  0  0  0  0  0
  1  2  2  0
  2  3  1  0
  3  4  1  0
  4  5  1  0
  5  6  2  0
  5  7  1  0
  7  8  1  0
  8  9  1  0
  9 10  1  0
 10 11  1  0
 11 12  1  0
 12 13  1  0
 13 14  1  0
 14 15  1  0
 15 16  1  0
 16 17  1  0
 17 18  1  0
  2 19  1  0
 19 20  2  0
 20 21  1  0
 21 22  2  0
 22 23  1  0
 23 24  2  0
 24 25  1  0
 24 26  1  0
 26 27  2  0
 27 28  1  0
 28 29  2  0
 11  7  1  0
 18 13  1  0
 29 19  1  0
 28 22  1  0
  3 30  1  0
  4 31  1  0
  4 32  1  0
  8 33  1  0
  8 34  1  0
  9 35  1  0
  9 36  1  0
 10 37  1  0
 10 38  1  0
 11 39  1  1
 12 40  1  0
 12 41  1  0
 14 42  1  0
 14 43  1  0
 15 44  1  0
 15 45  1  0
 16 46  1  0
 16 47  1  0
 17 48  1  0
 17 49  1  0
 18 50  1  0
 18 51  1  0
 20 52  1  0
 21 53  1  0
 23 54  1  0
 26 55  1  0
 27 56  1  0
M  END
>  <smiles>  (16) 
O=C(NCC(=O)N1CCC[C@H]1CN1CCCCC1)c1ccc2cc(Cl)ccc2n1

>  <score_type>  (16) 
oracle

>  <origin>  (16) 
autodockgpu

>  <m_score__min__energy>  (16) 
-8.3900000000000006

>  <m_primary>  (16) 
energy

>  <rmsd>  (16) 
2.5183084345833517

>  <m_score__min__rmsd>  (16) 
2.5183084345833517

>  <meeko>  (16) 
{"free_energy": -7.9, "intermolecular_energy": -9.69, "internal_energy": -1.84, "cluster_size": 27, "cluster_id": 2, "rank_in_cluster": 14}

>  <energy>  (16) 
-8.17

>  <cluster_rmsd>  (16) 
0.52

>  <cluster>  (16) 
2

$$$$

     RDKit          3D

 56 59  0  0  0  0  0  0  0  0999 V2000
  133.9500   69.2230  226.4660 O   0  0  0  0  0  0  0  0  0  0  0  0
  134.4470   70.3220  226.0390 C   0  0  0  0  0  0  0  0  0  0  0  0
  135.6090   70.3490  225.2160 N   0  0  0  0  0  0  0  0  0  0  0  0
  136.2900   69.1930  224.8000 C   0  0  0  0  0  0  0  0  0  0  0  0
  137.7020   69.2400  224.4520 C   0  0  0  0  0  0  0  0  0  0  0  0
  138.3970   68.2400  224.9210 O   0  0  0  0  0  0  0  0  0  0  0  0
  138.3690   70.2450  223.6790 N   0  0  0  0  0  0  0  0  0  0  0  0
  137.9150   71.0180  222.5650 C   0  0  0  0  0  0  0  0  0  0  0  0
  138.7910   72.2830  222.6580 C   0  0  0  0  0  0  0  0  0  0  0  0
  140.1380   71.6160  222.9210 C   0  0  0  0  0  0  0  0  0  0  0  0
  139.7680   70.6110  224.0150 C   0  0  1  0  0  0  0  0  0  0  0  0
  139.7810   71.3010  225.3620 C   0  0  0  0  0  0  0  0  0  0  0  0
  140.6230   70.5210  226.2400 N   0  0  0  0  0  0  0  0  0  0  0  0
  141.0750   69.2900  225.7420 C   0  0  0  0  0  0  0  0  0  0  0  0
  141.1400   68.1410  226.6930 C   0  0  0  0  0  0  0  0  0  0  0  0
  139.8650   68.1500  227.5160 C   0  0  0  0  0  0  0  0  0  0  0  0
  139.9720   69.4030  228.3640 C   0  0  0  0  0  0  0  0  0  0  0  0
  140.3050   70.6310  227.6100 C   0  0  0  0  0  0  0  0  0  0  0  0
  133.7940   71.5770  226.4130 C   0  0  0  0  0  0  0  0  0  0  0  0
  132.6250   71.5670  227.1440 C   0  0  0  0  0  0  0  0  0  0  0  0
  131.9610   72.7100  227.5290 C   0  0  0  0  0  0  0  0  0  0  0  0
  132.5190   73.9140  227.1500 C   0  0  0  0  0  0  0  0  0  0  0  0
  131.8550   75.0570  227.5350 C   0  0  0  0  0  0  0  0  0  0  0  0
  132.3640   76.2890  227.1850 C   0  0  0  0  0  0  0  0  0  0  0  0
  131.5220   77.7610  227.6740 Cl  0  0  0  0  0  0  0  0  0  0  0  0
  133.5320   76.3310  226.4560 C   0  0  0  0  0  0  0  0  0  0  0  0
  134.1960   75.1660  226.0710 C   0  0  0  0  0  0  0  0  0  0  0  0
  133.6910   73.9320  226.4180 C   0  0  0  0  0  0  0  0  0  0  0  0
  134.3190   72.7850  226.0550 N   0  0  0  0  0  0  0  0  0  0  0  0
  135.9470   71.3050  224.9240 H   0  0  0  0  0  0  0  0  0  0  0  0
  136.1931   68.4621  225.6163 H   0  0  0  0  0  0  0  0  0  0  0  0
  135.8108   68.9631  223.8369 H   0  0  0  0  0  0  0  0  0  0  0  0
  138.0838   70.4863  221.6169 H   0  0  0  0  0  0  0  0  0  0  0  0
  136.8357   71.2292  222.5883 H   0  0  0  0  0  0  0  0  0  0  0  0
  138.7900   72.8562  221.7192 H   0  0  0  0  0  0  0  0  0  0  0  0
  138.4749   73.0256  223.4054 H   0  0  0  0  0  0  0  0  0  0  0  0
  140.5189   71.1099  222.0217 H   0  0  0  0  0  0  0  0  0  0  0  0
  140.9386   72.3151  223.2043 H   0  0  0  0  0  0  0  0  0  0  0  0
  140.4541   69.7527  224.0655 H   0  0  0  0  0  0  0  0  0  0  0  0
  140.1860   72.3186  225.2591 H   0  0  0  0  0  0  0  0  0  0  0  0
  138.7618   71.3774  225.7687 H   0  0  0  0  0  0  0  0  0  0  0  0
  140.4024   69.0001  224.9213 H   0  0  0  0  0  0  0  0  0  0  0  0
  142.1205   69.4727  225.4531 H   0  0  0  0  0  0  0  0  0  0  0  0
  141.2187   67.1966  226.1345 H   0  0  0  0  0  0  0  0  0  0  0  0
  142.0206   68.2310  227.3461 H   0  0  0  0  0  0  0  0  0  0  0  0
  138.9808   68.1961  226.8633 H   0  0  0  0  0  0  0  0  0  0  0  0
  139.7523   67.2405  228.1243 H   0  0  0  0  0  0  0  0  0  0  0  0
  139.0063   69.5604  228.8666 H   0  0  0  0  0  0  0  0  0  0  0  0
  140.8018   69.2340  229.0661 H   0  0  0  0  0  0  0  0  0  0  0  0
  139.4380   71.3035  227.6879 H   0  0  0  0  0  0  0  0  0  0  0  0
  141.2388   70.9829  228.0729 H   0  0  0  0  0  0  0  0  0  0  0  0
  132.2006   70.5948  227.4349 H   0  0  0  0  0  0  0  0  0  0  0  0
  131.0290   72.6656  228.1116 H   0  0  0  0  0  0  0  0  0  0  0  0
  130.9247   74.9874  228.1179 H   0  0  0  0  0  0  0  0  0  0  0  0
  133.9514   77.3070  226.1704 H   0  0  0  0  0  0  0  0  0  0  0  0
  135.1264   75.2329  225.4881 H   0  0  0  0  0  0  0  0  0  0  0  0
  1  2  2  0
  2  3  1  0
  3  4  1  0
  4  5  1  0
  5  6  2  0
  5  7  1  0
  7  8  1  0
  8  9  1  0
  9 10  1  0
 10 11  1  0
 11 12  1  0
 12 13  1  0
 13 14  1  0
 14 15  1  0
 15 16  1  0
 16 17  1  0
 17 18  1  0
  2 19  1  0
 19 20  2  0
 20 21  1  0
 21 22  2  0
 22 23  1  0
 23 24  2  0
 24 25  1  0
 24 26  1  0
 26 27  2  0
 27 28  1  0
 28 29  2  0
 11  7  1  0
 18 13  1  0
 29 19  1  0
 28 22  1  0
  3 30  1  0
  4 31  1  0
  4 32  1  0
  8 33  1  0
  8 34  1  0
  9 35  1  0
  9 36  1  0
 10 37  1  0
 10 38  1  0
 11 39  1  1
 12 40  1  0
 12 41  1  0
 14 42  1  0
 14 43  1  0
 15 44  1  0
 15 45  1  0
 16 46  1  0
 16 47  1  0
 17 48  1  0
 17 49  1  0
 18 50  1  0
 18 51  1  0
 20 52  1  0
 21 53  1  0
 23 54  1  0
 26 55  1  0
 27 56  1  0
M  END
>  <smiles>  (17) 
O=C(NCC(=O)N1CCC[C@H]1CN1CCCCC1)c1ccc2cc(Cl)ccc2n1

>  <score_type>  (17) 
oracle

>  <origin>  (17) 
autodockgpu

>  <m_score__min__energy>  (17) 
-8.3900000000000006

>  <m_primary>  (17) 
energy

>  <rmsd>  (17) 
9.089679709077059

>  <m_score__min__rmsd>  (17) 
9.089679709077059

>  <meeko>  (17) 
{"free_energy": -8.26, "intermolecular_energy": -10.05, "internal_energy": -1.97, "cluster_size": 12, "cluster_id": 1, "rank_in_cluster": 5}

>  <energy>  (17) 
-8.13

>  <cluster_rmsd>  (17) 
0.79

>  <cluster>  (17) 
2

$$$$

     RDKit          3D

 56 59  0  0  0  0  0  0  0  0999 V2000
  139.3950   72.4420  220.5040 O   0  0  0  0  0  0  0  0  0  0  0  0
  140.0930   72.7630  221.5270 C   0  0  0  0  0  0  0  0  0  0  0  0
  140.9140   73.9270  221.5380 N   0  0  0  0  0  0  0  0  0  0  0  0
  141.0150   74.8130  220.4530 C   0  0  0  0  0  0  0  0  0  0  0  0
  139.9660   75.7810  220.1750 C   0  0  0  0  0  0  0  0  0  0  0  0
  139.8130   76.0480  218.9070 O   0  0  0  0  0  0  0  0  0  0  0  0
  139.1250   76.4410  221.1290 N   0  0  0  0  0  0  0  0  0  0  0  0
  137.8090   76.1240  221.5900 C   0  0  0  0  0  0  0  0  0  0  0  0
  137.7830   76.7670  222.9910 C   0  0  0  0  0  0  0  0  0  0  0  0
  138.4160   78.1110  222.6440 C   0  0  0  0  0  0  0  0  0  0  0  0
  139.6170   77.6690  221.8020 C   0  0  1  0  0  0  0  0  0  0  0  0
  140.7650   77.2990  222.7160 C   0  0  0  0  0  0  0  0  0  0  0  0
  141.7010   78.4000  222.7040 N   0  0  0  0  0  0  0  0  0  0  0  0
  141.8300   79.1230  223.8990 C   0  0  0  0  0  0  0  0  0  0  0  0
  141.9960   80.6040  223.7960 C   0  0  0  0  0  0  0  0  0  0  0  0
  141.0060   81.1090  222.7630 C   0  0  0  0  0  0  0  0  0  0  0  0
  141.5080   80.5390  221.4500 C   0  0  0  0  0  0  0  0  0  0  0  0
  141.7860   79.0860  221.4750 C   0  0  0  0  0  0  0  0  0  0  0  0
  140.0380   71.9030  222.7100 C   0  0  0  0  0  0  0  0  0  0  0  0
  139.3770   70.6950  222.6670 C   0  0  0  0  0  0  0  0  0  0  0  0
  139.2870   69.8390  223.7410 C   0  0  0  0  0  0  0  0  0  0  0  0
  139.9030   70.2390  224.9100 C   0  0  0  0  0  0  0  0  0  0  0  0
  139.8150   69.3840  225.9850 C   0  0  0  0  0  0  0  0  0  0  0  0
  140.4090   69.7290  227.1790 C   0  0  0  0  0  0  0  0  0  0  0  0
  140.3030   68.6400  228.5640 Cl  0  0  0  0  0  0  0  0  0  0  0  0
  141.0790   70.9310  227.2530 C   0  0  0  0  0  0  0  0  0  0  0  0
  141.1630   71.7900  226.1570 C   0  0  0  0  0  0  0  0  0  0  0  0
  140.5690   71.4490  224.9610 C   0  0  0  0  0  0  0  0  0  0  0  0
  140.6360   72.2690  223.8810 N   0  0  0  0  0  0  0  0  0  0  0  0
  141.4580   74.1010  222.4240 H   0  0  0  0  0  0  0  0  0  0  0  0
  141.9396   75.3892  220.6051 H   0  0  0  0  0  0  0  0  0  0  0  0
  140.9580   74.1394  219.5852 H   0  0  0  0  0  0  0  0  0  0  0  0
  137.0418   76.5643  220.9361 H   0  0  0  0  0  0  0  0  0  0  0  0
  137.5951   75.0450  221.5984 H   0  0  0  0  0  0  0  0  0  0  0  0
  136.7583   76.8798  223.3748 H   0  0  0  0  0  0  0  0  0  0  0  0
  138.2869   76.1959  223.7847 H   0  0  0  0  0  0  0  0  0  0  0  0
  137.7275   78.7423  222.0631 H   0  0  0  0  0  0  0  0  0  0  0  0
  138.6802   78.7236  223.5186 H   0  0  0  0  0  0  0  0  0  0  0  0
  139.9708   78.4455  221.1079 H   0  0  0  0  0  0  0  0  0  0  0  0
  140.3932   77.1331  223.7379 H   0  0  0  0  0  0  0  0  0  0  0  0
  141.2507   76.3734  222.3733 H   0  0  0  0  0  0  0  0  0  0  0  0
  140.9266   78.9338  224.4974 H   0  0  0  0  0  0  0  0  0  0  0  0
  142.7717   78.7661  224.3415 H   0  0  0  0  0  0  0  0  0  0  0  0
  141.7924   81.0724  224.7703 H   0  0  0  0  0  0  0  0  0  0  0  0
  143.0247   80.8564  223.4991 H   0  0  0  0  0  0  0  0  0  0  0  0
  139.9923   80.7435  222.9839 H   0  0  0  0  0  0  0  0  0  0  0  0
  140.9407   82.2069  222.7461 H   0  0  0  0  0  0  0  0  0  0  0  0
  140.7460   80.7292  220.6798 H   0  0  0  0  0  0  0  0  0  0  0  0
  142.4667   81.0361  221.2408 H   0  0  0  0  0  0  0  0  0  0  0  0
  141.0722   78.6082  220.7878 H   0  0  0  0  0  0  0  0  0  0  0  0
  142.8492   79.0135  221.2024 H   0  0  0  0  0  0  0  0  0  0  0  0
  138.8952   70.3987  221.7236 H   0  0  0  0  0  0  0  0  0  0  0  0
  138.7498   68.8816  223.6713 H   0  0  0  0  0  0  0  0  0  0  0  0
  139.2737   68.4310  225.8912 H   0  0  0  0  0  0  0  0  0  0  0  0
  141.5593   71.2202  228.1994 H   0  0  0  0  0  0  0  0  0  0  0  0
  141.7052   72.7428  226.2477 H   0  0  0  0  0  0  0  0  0  0  0  0
  1  2  2  0
  2  3  1  0
  3  4  1  0
  4  5  1  0
  5  6  2  0
  5  7  1  0
  7  8  1  0
  8  9  1  0
  9 10  1  0
 10 11  1  0
 11 12  1  0
 12 13  1  0
 13 14  1  0
 14 15  1  0
 15 16  1  0
 16 17  1  0
 17 18  1  0
  2 19  1  0
 19 20  2  0
 20 21  1  0
 21 22  2  0
 22 23  1  0
 23 24  2  0
 24 25  1  0
 24 26  1  0
 26 27  2  0
 27 28  1  0
 28 29  2  0
 11  7  1  0
 18 13  1  0
 29 19  1  0
 28 22  1  0
  3 30  1  0
  4 31  1  0
  4 32  1  0
  8 33  1  0
  8 34  1  0
  9 35  1  0
  9 36  1  0
 10 37  1  0
 10 38  1  0
 11 39  1  6
 12 40  1  0
 12 41  1  0
 14 42  1  0
 14 43  1  0
 15 44  1  0
 15 45  1  0
 16 46  1  0
 16 47  1  0
 17 48  1  0
 17 49  1  0
 18 50  1  0
 18 51  1  0
 20 52  1  0
 21 53  1  0
 23 54  1  0
 26 55  1  0
 27 56  1  0
M  END
>  <smiles>  (18) 
O=C(NCC(=O)N1CCC[C@H]1CN1CCCCC1)c1ccc2cc(Cl)ccc2n1

>  <score_type>  (18) 
oracle

>  <origin>  (18) 
autodockgpu

>  <m_score__min__energy>  (18) 
-8.3900000000000006

>  <m_primary>  (18) 
energy

>  <rmsd>  (18) 
3.019208732286881

>  <m_score__min__rmsd>  (18) 
3.019208732286881

>  <meeko>  (18) 
{"free_energy": -7.43, "intermolecular_energy": -9.22, "internal_energy": -1.98, "cluster_size": 27, "cluster_id": 2, "rank_in_cluster": 26}

>  <energy>  (18) 
-8.1

>  <cluster_rmsd>  (18) 
0.92

>  <cluster>  (18) 
2

$$$$

     RDKit          3D

 56 59  0  0  0  0  0  0  0  0999 V2000
  138.7650   72.7500  221.0150 O   0  0  0  0  0  0  0  0  0  0  0  0
  139.8010   72.7610  221.7650 C   0  0  0  0  0  0  0  0  0  0  0  0
  140.9160   73.6050  221.4920 N   0  0  0  0  0  0  0  0  0  0  0  0
  140.9670   74.4910  220.4030 C   0  0  0  0  0  0  0  0  0  0  0  0
  141.3070   75.8930  220.5940 C   0  0  0  0  0  0  0  0  0  0  0  0
  141.2240   76.2950  221.8320 O   0  0  0  0  0  0  0  0  0  0  0  0
  141.7030   76.8300  219.5850 N   0  0  0  0  0  0  0  0  0  0  0  0
  141.9600   76.6470  218.1900 C   0  0  0  0  0  0  0  0  0  0  0  0
  141.6750   78.0480  217.6130 C   0  0  0  0  0  0  0  0  0  0  0  0
  142.4100   78.8850  218.6560 C   0  0  0  0  0  0  0  0  0  0  0  0
  141.9080   78.2530  219.9570 C   0  0  1  0  0  0  0  0  0  0  0  0
  140.5710   78.8570  220.3300 C   0  0  0  0  0  0  0  0  0  0  0  0
  140.8010   79.7810  221.4160 N   0  0  0  0  0  0  0  0  0  0  0  0
  142.1390   80.0770  221.7120 C   0  0  0  0  0  0  0  0  0  0  0  0
  142.5140   80.2260  223.1500 C   0  0  0  0  0  0  0  0  0  0  0  0
  141.8490   79.1000  223.9190 C   0  0  0  0  0  0  0  0  0  0  0  0
  140.3670   79.4100  223.8370 C   0  0  0  0  0  0  0  0  0  0  0  0
  139.8690   79.6900  222.4720 C   0  0  0  0  0  0  0  0  0  0  0  0
  139.8290   71.8780  222.9320 C   0  0  0  0  0  0  0  0  0  0  0  0
  139.2330   70.6370  222.8850 C   0  0  0  0  0  0  0  0  0  0  0  0
  139.2240   69.7580  223.9450 C   0  0  0  0  0  0  0  0  0  0  0  0
  139.8530   70.1690  225.1020 C   0  0  0  0  0  0  0  0  0  0  0  0
  139.8440   69.2910  226.1620 C   0  0  0  0  0  0  0  0  0  0  0  0
  140.4570   69.6470  227.3440 C   0  0  0  0  0  0  0  0  0  0  0  0
  140.4530   68.5280  228.7100 Cl  0  0  0  0  0  0  0  0  0  0  0  0
  141.0630   70.8810  227.4220 C   0  0  0  0  0  0  0  0  0  0  0  0
  141.0660   71.7640  226.3400 C   0  0  0  0  0  0  0  0  0  0  0  0
  140.4540   71.4130  225.1560 C   0  0  0  0  0  0  0  0  0  0  0  0
  140.4430   72.2540  224.0910 N   0  0  0  0  0  0  0  0  0  0  0  0
  141.7250   73.5340  222.1640 H   0  0  0  0  0  0  0  0  0  0  0  0
  141.7087   74.0819  219.7012 H   0  0  0  0  0  0  0  0  0  0  0  0
  139.9167   74.5382  220.0795 H   0  0  0  0  0  0  0  0  0  0  0  0
  143.0041   76.3491  218.0137 H   0  0  0  0  0  0  0  0  0  0  0  0
  141.3530   75.8519  217.7324 H   0  0  0  0  0  0  0  0  0  0  0  0
  142.1008   78.1748  216.6067 H   0  0  0  0  0  0  0  0  0  0  0  0
  140.6128   78.2949  217.4689 H   0  0  0  0  0  0  0  0  0  0  0  0
  143.5009   78.7864  218.5553 H   0  0  0  0  0  0  0  0  0  0  0  0
  142.2225   79.9662  218.5791 H   0  0  0  0  0  0  0  0  0  0  0  0
  142.5954   78.3982  220.8034 H   0  0  0  0  0  0  0  0  0  0  0  0
  140.1456   79.3900  219.4669 H   0  0  0  0  0  0  0  0  0  0  0  0
  139.8616   78.0724  220.6320 H   0  0  0  0  0  0  0  0  0  0  0  0
  142.7551   79.2674  221.2937 H   0  0  0  0  0  0  0  0  0  0  0  0
  142.3072   81.0726  221.2756 H   0  0  0  0  0  0  0  0  0  0  0  0
  143.6065   80.1613  223.2609 H   0  0  0  0  0  0  0  0  0  0  0  0
  142.1848   81.2024  223.5349 H   0  0  0  0  0  0  0  0  0  0  0  0
  142.0695   78.1279  223.4539 H   0  0  0  0  0  0  0  0  0  0  0  0
  142.2063   79.0336  224.9572 H   0  0  0  0  0  0  0  0  0  0  0  0
  139.8136   78.5458  224.2332 H   0  0  0  0  0  0  0  0  0  0  0  0
  140.2089   80.3291  224.4203 H   0  0  0  0  0  0  0  0  0  0  0  0
  139.1640   78.8862  222.2133 H   0  0  0  0  0  0  0  0  0  0  0  0
  139.4473   80.7034  222.5442 H   0  0  0  0  0  0  0  0  0  0  0  0
  138.7380   70.3320  221.9512 H   0  0  0  0  0  0  0  0  0  0  0  0
  138.7379   68.7739  223.8726 H   0  0  0  0  0  0  0  0  0  0  0  0
  139.3511   68.3123  226.0665 H   0  0  0  0  0  0  0  0  0  0  0  0
  141.5566   71.1784  228.3590 H   0  0  0  0  0  0  0  0  0  0  0  0
  141.5586   72.7431  226.4331 H   0  0  0  0  0  0  0  0  0  0  0  0
  1  2  2  0
  2  3  1  0
  3  4  1  0
  4  5  1  0
  5  6  2  0
  5  7  1  0
  7  8  1  0
  8  9  1  0
  9 10  1  0
 10 11  1  0
 11 12  1  0
 12 13  1  0
 13 14  1  0
 14 15  1  0
 15 16  1  0
 16 17  1  0
 17 18  1  0
  2 19  1  0
 19 20  2  0
 20 21  1  0
 21 22  2  0
 22 23  1  0
 23 24  2  0
 24 25  1  0
 24 26  1  0
 26 27  2  0
 27 28  1  0
 28 29  2  0
 11  7  1  0
 18 13  1  0
 29 19  1  0
 28 22  1  0
  3 30  1  0
  4 31  1  0
  4 32  1  0
  8 33  1  0
  8 34  1  0
  9 35  1  0
  9 36  1  0
 10 37  1  0
 10 38  1  0
 11 39  1  1
 12 40  1  0
 12 41  1  0
 14 42  1  0
 14 43  1  0
 15 44  1  0
 15 45  1  0
 16 46  1  0
 16 47  1  0
 17 48  1  0
 17 49  1  0
 18 50  1  0
 18 51  1  0
 20 52  1  0
 21 53  1  0
 23 54  1  0
 26 55  1  0
 27 56  1  0
M  END
>  <smiles>  (19) 
O=C(NCC(=O)N1CCC[C@H]1CN1CCCCC1)c1ccc2cc(Cl)ccc2n1

>  <score_type>  (19) 
oracle

>  <origin>  (19) 
autodockgpu

>  <m_score__min__energy>  (19) 
-8.3900000000000006

>  <m_primary>  (19) 
energy

>  <rmsd>  (19) 
2.6348041514264753

>  <m_score__min__rmsd>  (19) 
2.6348041514264753

>  <meeko>  (19) 
{"free_energy": -7.63, "intermolecular_energy": -9.42, "internal_energy": -1.68, "cluster_size": 27, "cluster_id": 2, "rank_in_cluster": 19}

>  <energy>  (19) 
-8.08

>  <cluster_rmsd>  (19) 
0.72

>  <cluster>  (19) 
2

$$$$

     RDKit          3D

 56 59  0  0  0  0  0  0  0  0999 V2000
  139.3290   72.2950  220.6520 O   0  0  0  0  0  0  0  0  0  0  0  0
  140.1610   72.5190  221.5980 C   0  0  0  0  0  0  0  0  0  0  0  0
  141.1290   73.5600  221.5140 N   0  0  0  0  0  0  0  0  0  0  0  0
  141.2430   74.4230  220.4110 C   0  0  0  0  0  0  0  0  0  0  0  0
  140.9910   75.8500  220.5470 C   0  0  0  0  0  0  0  0  0  0  0  0
  141.8850   76.6030  219.9660 O   0  0  0  0  0  0  0  0  0  0  0  0
  139.8990   76.4720  221.2340 N   0  0  0  0  0  0  0  0  0  0  0  0
  138.5830   75.9940  221.5220 C   0  0  0  0  0  0  0  0  0  0  0  0
  138.2020   76.8000  222.7790 C   0  0  0  0  0  0  0  0  0  0  0  0
  138.6820   78.1770  222.3280 C   0  0  0  0  0  0  0  0  0  0  0  0
  140.0690   77.8450  221.7730 C   0  0  1  0  0  0  0  0  0  0  0  0
  141.0710   77.8040  222.9070 C   0  0  0  0  0  0  0  0  0  0  0  0
  141.9560   78.9350  222.7440 N   0  0  0  0  0  0  0  0  0  0  0  0
  142.1680   79.7310  223.8790 C   0  0  0  0  0  0  0  0  0  0  0  0
  142.2630   81.2080  223.6800 C   0  0  0  0  0  0  0  0  0  0  0  0
  141.1620   81.6170  222.7200 C   0  0  0  0  0  0  0  0  0  0  0  0
  141.5590   80.9880  221.3980 C   0  0  0  0  0  0  0  0  0  0  0  0
  141.8970   79.5500  221.4760 C   0  0  0  0  0  0  0  0  0  0  0  0
  140.1050   71.6760  222.7930 C   0  0  0  0  0  0  0  0  0  0  0  0
  139.4700   70.4540  222.7590 C   0  0  0  0  0  0  0  0  0  0  0  0
  139.3820   69.6120  223.8450 C   0  0  0  0  0  0  0  0  0  0  0  0
  139.9720   70.0420  225.0160 C   0  0  0  0  0  0  0  0  0  0  0  0
  139.8840   69.2010  226.1030 C   0  0  0  0  0  0  0  0  0  0  0  0
  140.4530   69.5770  227.3000 C   0  0  0  0  0  0  0  0  0  0  0  0
  140.3480   68.5060  228.7000 Cl  0  0  0  0  0  0  0  0  0  0  0  0
  141.0960   70.7930  227.3660 C   0  0  0  0  0  0  0  0  0  0  0  0
  141.1790   71.6380  226.2580 C   0  0  0  0  0  0  0  0  0  0  0  0
  140.6110   71.2660  225.0590 C   0  0  0  0  0  0  0  0  0  0  0  0
  140.6770   72.0710  223.9670 N   0  0  0  0  0  0  0  0  0  0  0  0
  141.7750   73.6590  222.3410 H   0  0  0  0  0  0  0  0  0  0  0  0
  142.2733   74.3213  220.0394 H   0  0  0  0  0  0  0  0  0  0  0  0
  140.4205   74.0930  219.7594 H   0  0  0  0  0  0  0  0  0  0  0  0
  137.8933   76.2040  220.6912 H   0  0  0  0  0  0  0  0  0  0  0  0
  138.5348   74.9049  221.6686 H   0  0  0  0  0  0  0  0  0  0  0  0
  137.1187   76.7818  222.9690 H   0  0  0  0  0  0  0  0  0  0  0  0
  138.6285   76.4346  223.7248 H   0  0  0  0  0  0  0  0  0  0  0  0
  138.0271   78.5968  221.5503 H   0  0  0  0  0  0  0  0  0  0  0  0
  138.6856   78.9356  223.1245 H   0  0  0  0  0  0  0  0  0  0  0  0
  140.4251   78.5740  221.0302 H   0  0  0  0  0  0  0  0  0  0  0  0
  140.5486   77.8716  223.8727 H   0  0  0  0  0  0  0  0  0  0  0  0
  141.6383   76.8617  222.8897 H   0  0  0  0  0  0  0  0  0  0  0  0
  141.3339   79.5453  224.5716 H   0  0  0  0  0  0  0  0  0  0  0  0
  143.1614   79.4343  224.2465 H   0  0  0  0  0  0  0  0  0  0  0  0
  142.1318   81.7247  224.6422 H   0  0  0  0  0  0  0  0  0  0  0  0
  143.2485   81.4788  223.2732 H   0  0  0  0  0  0  0  0  0  0  0  0
  140.1886   81.2314  223.0575 H   0  0  0  0  0  0  0  0  0  0  0  0
  141.0537   82.7093  222.6481 H   0  0  0  0  0  0  0  0  0  0  0  0
  140.7198   81.1054  220.6966 H   0  0  0  0  0  0  0  0  0  0  0  0
  142.4725   81.5051  221.0691 H   0  0  0  0  0  0  0  0  0  0  0  0
  141.1417   79.0077  220.8882 H   0  0  0  0  0  0  0  0  0  0  0  0
  142.9318   79.4989  221.1065 H   0  0  0  0  0  0  0  0  0  0  0  0
  139.0084   70.1336  221.8134 H   0  0  0  0  0  0  0  0  0  0  0  0
  138.8659   68.6426  223.7821 H   0  0  0  0  0  0  0  0  0  0  0  0
  139.3632   68.2360  226.0161 H   0  0  0  0  0  0  0  0  0  0  0  0
  141.5555   71.1061  228.3151 H   0  0  0  0  0  0  0  0  0  0  0  0
  141.6993   72.6035  226.3423 H   0  0  0  0  0  0  0  0  0  0  0  0
  1  2  2  0
  2  3  1  0
  3  4  1  0
  4  5  1  0
  5  6  2  0
  5  7  1  0
  7  8  1  0
  8  9  1  0
  9 10  1  0
 10 11  1  0
 11 12  1  0
 12 13  1  0
 13 14  1  0
 14 15  1  0
 15 16  1  0
 16 17  1  0
 17 18  1  0
  2 19  1  0
 19 20  2  0
 20 21  1  0
 21 22  2  0
 22 23  1  0
 23 24  2  0
 24 25  1  0
 24 26  1  0
 26 27  2  0
 27 28  1  0
 28 29  2  0
 11  7  1  0
 18 13  1  0
 29 19  1  0
 28 22  1  0
  3 30  1  0
  4 31  1  0
  4 32  1  0
  8 33  1  0
  8 34  1  0
  9 35  1  0
  9 36  1  0
 10 37  1  0
 10 38  1  0
 11 39  1  6
 12 40  1  0
 12 41  1  0
 14 42  1  0
 14 43  1  0
 15 44  1  0
 15 45  1  0
 16 46  1  0
 16 47  1  0
 17 48  1  0
 17 49  1  0
 18 50  1  0
 18 51  1  0
 20 52  1  0
 21 53  1  0
 23 54  1  0
 26 55  1  0
 27 56  1  0
M  END
>  <smiles>  (20) 
O=C(NCC(=O)N1CCC[C@H]1CN1CCCCC1)c1ccc2cc(Cl)ccc2n1

>  <score_type>  (20) 
oracle

>  <origin>  (20) 
autodockgpu

>  <m_score__min__energy>  (20) 
-8.3900000000000006

>  <m_primary>  (20) 
energy

>  <rmsd>  (20) 
2.839459472893085

>  <m_score__min__rmsd>  (20) 
2.839459472893085

>  <meeko>  (20) 
{"free_energy": -7.81, "intermolecular_energy": -9.6, "internal_energy": -1.84, "cluster_size": 27, "cluster_id": 2, "rank_in_cluster": 15}

>  <energy>  (20) 
-8.05

>  <cluster_rmsd>  (20) 
0.23

>  <cluster>  (20) 
2

$$$$

     RDKit          3D

 56 59  0  0  0  0  0  0  0  0999 V2000
  138.9630   71.7330  220.7260 O   0  0  0  0  0  0  0  0  0  0  0  0
  139.0840   72.2750  221.8790 C   0  0  0  0  0  0  0  0  0  0  0  0
  138.9410   73.6800  222.0650 N   0  0  0  0  0  0  0  0  0  0  0  0
  138.6480   74.5740  221.0210 C   0  0  0  0  0  0  0  0  0  0  0  0
  139.6780   74.9910  220.0810 C   0  0  0  0  0  0  0  0  0  0  0  0
  139.2710   75.8700  219.2060 O   0  0  0  0  0  0  0  0  0  0  0  0
  141.0370   74.5410  220.0320 N   0  0  0  0  0  0  0  0  0  0  0  0
  141.6200   73.4050  219.3890 C   0  0  0  0  0  0  0  0  0  0  0  0
  143.0750   73.8610  219.1620 C   0  0  0  0  0  0  0  0  0  0  0  0
  143.3450   74.4730  220.5340 C   0  0  0  0  0  0  0  0  0  0  0  0
  142.0850   75.3180  220.7400 C   0  0  1  0  0  0  0  0  0  0  0  0
  142.2530   76.6530  220.0470 C   0  0  0  0  0  0  0  0  0  0  0  0
  141.3790   77.5960  220.7060 N   0  0  0  0  0  0  0  0  0  0  0  0
  141.5250   78.9430  220.3430 C   0  0  0  0  0  0  0  0  0  0  0  0
  141.4000   79.9680  221.4220 C   0  0  0  0  0  0  0  0  0  0  0  0
  142.1760   79.4680  222.6260 C   0  0  0  0  0  0  0  0  0  0  0  0
  141.3950   78.2580  223.1030 C   0  0  0  0  0  0  0  0  0  0  0  0
  141.0720   77.2760  222.0450 C   0  0  0  0  0  0  0  0  0  0  0  0
  139.3760   71.4180  223.0280 C   0  0  0  0  0  0  0  0  0  0  0  0
  139.0630   70.0760  222.9970 C   0  0  0  0  0  0  0  0  0  0  0  0
  139.3120   69.2140  224.0420 C   0  0  0  0  0  0  0  0  0  0  0  0
  139.9080   69.7510  225.1650 C   0  0  0  0  0  0  0  0  0  0  0  0
  140.1560   68.8900  226.2100 C   0  0  0  0  0  0  0  0  0  0  0  0
  140.7490   69.3680  227.3580 C   0  0  0  0  0  0  0  0  0  0  0  0
  141.0740   68.2730  228.7040 Cl  0  0  0  0  0  0  0  0  0  0  0  0
  141.0750   70.7050  227.4190 C   0  0  0  0  0  0  0  0  0  0  0  0
  140.8180   71.5690  226.3530 C   0  0  0  0  0  0  0  0  0  0  0  0
  140.2250   71.0950  225.2030 C   0  0  0  0  0  0  0  0  0  0  0  0
  139.9650   71.9160  224.1540 N   0  0  0  0  0  0  0  0  0  0  0  0
  139.0680   74.0320  223.0500 H   0  0  0  0  0  0  0  0  0  0  0  0
  137.8501   74.1077  220.4244 H   0  0  0  0  0  0  0  0  0  0  0  0
  138.4180   75.5062  221.5577 H   0  0  0  0  0  0  0  0  0  0  0  0
  141.5781   72.5167  220.0364 H   0  0  0  0  0  0  0  0  0  0  0  0
  141.1029   73.1113  218.4637 H   0  0  0  0  0  0  0  0  0  0  0  0
  143.7446   73.0149  218.9479 H   0  0  0  0  0  0  0  0  0  0  0  0
  143.2345   74.5303  218.3037 H   0  0  0  0  0  0  0  0  0  0  0  0
  143.4409   73.6979  221.3086 H   0  0  0  0  0  0  0  0  0  0  0  0
  144.2840   75.0426  220.5958 H   0  0  0  0  0  0  0  0  0  0  0  0
  141.8592   75.5095  221.7994 H   0  0  0  0  0  0  0  0  0  0  0  0
  143.2973   76.9892  220.1270 H   0  0  0  0  0  0  0  0  0  0  0  0
  142.0005   76.5705  218.9796 H   0  0  0  0  0  0  0  0  0  0  0  0
  142.5233   79.0567  219.8953 H   0  0  0  0  0  0  0  0  0  0  0  0
  140.6795   79.1434  219.6685 H   0  0  0  0  0  0  0  0  0  0  0  0
  141.8176   80.9260  221.0787 H   0  0  0  0  0  0  0  0  0  0  0  0
  140.3431   80.1252  221.6832 H   0  0  0  0  0  0  0  0  0  0  0  0
  143.1987   79.1825  222.3387 H   0  0  0  0  0  0  0  0  0  0  0  0
  142.2778   80.2357  223.4072 H   0  0  0  0  0  0  0  0  0  0  0  0
  141.9906   77.7477  223.8742 H   0  0  0  0  0  0  0  0  0  0  0  0
  140.4336   78.6369  223.4800 H   0  0  0  0  0  0  0  0  0  0  0  0
  141.6120   76.3490  222.2881 H   0  0  0  0  0  0  0  0  0  0  0  0
  139.9736   77.2191  222.0604 H   0  0  0  0  0  0  0  0  0  0  0  0
  138.5895   69.6722  222.0900 H   0  0  0  0  0  0  0  0  0  0  0  0
  139.0482   68.1477  223.9842 H   0  0  0  0  0  0  0  0  0  0  0  0
  139.8826   67.8276  226.1290 H   0  0  0  0  0  0  0  0  0  0  0  0
  141.5490   71.1012  228.3291 H   0  0  0  0  0  0  0  0  0  0  0  0
  141.0898   72.6320  226.4313 H   0  0  0  0  0  0  0  0  0  0  0  0
  1  2  2  0
  2  3  1  0
  3  4  1  0
  4  5  1  0
  5  6  2  0
  5  7  1  0
  7  8  1  0
  8  9  1  0
  9 10  1  0
 10 11  1  0
 11 12  1  0
 12 13  1  0
 13 14  1  0
 14 15  1  0
 15 16  1  0
 16 17  1  0
 17 18  1  0
  2 19  1  0
 19 20  2  0
 20 21  1  0
 21 22  2  0
 22 23  1  0
 23 24  2  0
 24 25  1  0
 24 26  1  0
 26 27  2  0
 27 28  1  0
 28 29  2  0
 11  7  1  0
 18 13  1  0
 29 19  1  0
 28 22  1  0
  3 30  1  0
  4 31  1  0
  4 32  1  0
  8 33  1  0
  8 34  1  0
  9 35  1  0
  9 36  1  0
 10 37  1  0
 10 38  1  0
 11 39  1  1
 12 40  1  0
 12 41  1  0
 14 42  1  0
 14 43  1  0
 15 44  1  0
 15 45  1  0
 16 46  1  0
 16 47  1  0
 17 48  1  0
 17 49  1  0
 18 50  1  0
 18 51  1  0
 20 52  1  0
 21 53  1  0
 23 54  1  0
 26 55  1  0
 27 56  1  0
M  END
>  <smiles>  (21) 
O=C(NCC(=O)N1CCC[C@H]1CN1CCCCC1)c1ccc2cc(Cl)ccc2n1

>  <score_type>  (21) 
oracle

>  <origin>  (21) 
autodockgpu

>  <m_score__min__energy>  (21) 
-8.3900000000000006

>  <m_primary>  (21) 
energy

>  <rmsd>  (21) 
2.766994910277662

>  <m_score__min__rmsd>  (21) 
2.766994910277662

>  <meeko>  (21) 
{"free_energy": -7.54, "intermolecular_energy": -9.33, "internal_energy": -1.96, "cluster_size": 27, "cluster_id": 2, "rank_in_cluster": 22}

>  <energy>  (21) 
-8.03

>  <cluster_rmsd>  (21) 
0.28

>  <cluster>  (21) 
2

$$$$

     RDKit          3D

 56 59  0  0  0  0  0  0  0  0999 V2000
  140.3060   72.1800  220.6320 O   0  0  0  0  0  0  0  0  0  0  0  0
  140.0290   72.6790  221.7770 C   0  0  0  0  0  0  0  0  0  0  0  0
  139.7260   74.0620  221.9380 N   0  0  0  0  0  0  0  0  0  0  0  0
  139.6940   74.9770  220.8730 C   0  0  0  0  0  0  0  0  0  0  0  0
  140.3750   76.2590  220.9660 C   0  0  0  0  0  0  0  0  0  0  0  0
  140.3640   76.7790  222.1630 O   0  0  0  0  0  0  0  0  0  0  0  0
  141.0230   76.9720  219.9050 N   0  0  0  0  0  0  0  0  0  0  0  0
  141.2690   76.6010  218.5460 C   0  0  0  0  0  0  0  0  0  0  0  0
  141.3610   77.9680  217.8400 C   0  0  0  0  0  0  0  0  0  0  0  0
  142.2480   78.6930  218.8480 C   0  0  0  0  0  0  0  0  0  0  0  0
  141.5640   78.3290  220.1680 C   0  0  1  0  0  0  0  0  0  0  0  0
  140.4090   79.2750  220.4170 C   0  0  0  0  0  0  0  0  0  0  0  0
  140.7260   80.0440  221.5980 N   0  0  0  0  0  0  0  0  0  0  0  0
  142.0880   80.2380  221.8710 C   0  0  0  0  0  0  0  0  0  0  0  0
  142.5220   80.1890  223.2990 C   0  0  0  0  0  0  0  0  0  0  0  0
  141.8280   79.0070  223.9520 C   0  0  0  0  0  0  0  0  0  0  0  0
  140.3620   79.3940  223.9710 C   0  0  0  0  0  0  0  0  0  0  0  0
  139.8300   79.8650  222.6740 C   0  0  0  0  0  0  0  0  0  0  0  0
  140.0260   71.7960  222.9430 C   0  0  0  0  0  0  0  0  0  0  0  0
  139.4880   70.5290  222.8610 C   0  0  0  0  0  0  0  0  0  0  0  0
  139.4540   69.6480  223.9180 C   0  0  0  0  0  0  0  0  0  0  0  0
  139.9960   70.0830  225.1100 C   0  0  0  0  0  0  0  0  0  0  0  0
  139.9620   69.2020  226.1680 C   0  0  0  0  0  0  0  0  0  0  0  0
  140.4870   69.5810  227.3850 C   0  0  0  0  0  0  0  0  0  0  0  0
  140.4510   68.4590  228.7480 Cl  0  0  0  0  0  0  0  0  0  0  0  0
  141.0330   70.8410  227.4980 C   0  0  0  0  0  0  0  0  0  0  0  0
  141.0620   71.7250  226.4190 C   0  0  0  0  0  0  0  0  0  0  0  0
  140.5380   71.3510  225.2010 C   0  0  0  0  0  0  0  0  0  0  0  0
  140.5530   72.1950  224.1370 N   0  0  0  0  0  0  0  0  0  0  0  0
  139.5210   74.3790  222.9230 H   0  0  0  0  0  0  0  0  0  0  0  0
  140.1213   74.4583  220.0021 H   0  0  0  0  0  0  0  0  0  0  0  0
  138.6339   75.2683  220.8362 H   0  0  0  0  0  0  0  0  0  0  0  0
  142.2105   76.0401  218.4510 H   0  0  0  0  0  0  0  0  0  0  0  0
  140.4971   75.9403  218.1246 H   0  0  0  0  0  0  0  0  0  0  0  0
  141.8367   77.8912  216.8512 H   0  0  0  0  0  0  0  0  0  0  0  0
  140.3991   78.4536  217.6185 H   0  0  0  0  0  0  0  0  0  0  0  0
  143.2825   78.3206  218.8147 H   0  0  0  0  0  0  0  0  0  0  0  0
  142.3383   79.7750  218.6715 H   0  0  0  0  0  0  0  0  0  0  0  0
  142.2386   78.3799  221.0353 H   0  0  0  0  0  0  0  0  0  0  0  0
  140.2803   79.9461  219.5550 H   0  0  0  0  0  0  0  0  0  0  0  0
  139.4726   78.7153  220.5583 H   0  0  0  0  0  0  0  0  0  0  0  0
  142.6459   79.4589  221.3308 H   0  0  0  0  0  0  0  0  0  0  0  0
  142.2916   81.2712  221.5531 H   0  0  0  0  0  0  0  0  0  0  0  0
  143.6130   80.0605  223.3548 H   0  0  0  0  0  0  0  0  0  0  0  0
  142.2574   81.1240  223.8144 H   0  0  0  0  0  0  0  0  0  0  0  0
  141.9812   78.0912  223.3622 H   0  0  0  0  0  0  0  0  0  0  0  0
  142.2188   78.7948  224.9581 H   0  0  0  0  0  0  0  0  0  0  0  0
  139.7794   78.5140  224.2810 H   0  0  0  0  0  0  0  0  0  0  0  0
  140.2731   80.2398  224.6687 H   0  0  0  0  0  0  0  0  0  0  0  0
  139.0756   79.1335  222.3487 H   0  0  0  0  0  0  0  0  0  0  0  0
  139.4643   80.8800  222.8884 H   0  0  0  0  0  0  0  0  0  0  0  0
  139.0633   70.2050  221.8994 H   0  0  0  0  0  0  0  0  0  0  0  0
  139.0153   68.6443  223.8172 H   0  0  0  0  0  0  0  0  0  0  0  0
  139.5191   68.2029  226.0428 H   0  0  0  0  0  0  0  0  0  0  0  0
  141.4564   71.1577  228.4626 H   0  0  0  0  0  0  0  0  0  0  0  0
  141.5049   72.7244  226.5413 H   0  0  0  0  0  0  0  0  0  0  0  0
  1  2  2  0
  2  3  1  0
  3  4  1  0
  4  5  1  0
  5  6  2  0
  5  7  1  0
  7  8  1  0
  8  9  1  0
  9 10  1  0
 10 11  1  0
 11 12  1  0
 12 13  1  0
 13 14  1  0
 14 15  1  0
 15 16  1  0
 16 17  1  0
 17 18  1  0
  2 19  1  0
 19 20  2  0
 20 21  1  0
 21 22  2  0
 22 23  1  0
 23 24  2  0
 24 25  1  0
 24 26  1  0
 26 27  2  0
 27 28  1  0
 28 29  2  0
 11  7  1  0
 18 13  1  0
 29 19  1  0
 28 22  1  0
  3 30  1  0
  4 31  1  0
  4 32  1  0
  8 33  1  0
  8 34  1  0
  9 35  1  0
  9 36  1  0
 10 37  1  0
 10 38  1  0
 11 39  1  1
 12 40  1  0
 12 41  1  0
 14 42  1  0
 14 43  1  0
 15 44  1  0
 15 45  1  0
 16 46  1  0
 16 47  1  0
 17 48  1  0
 17 49  1  0
 18 50  1  0
 18 51  1  0
 20 52  1  0
 21 53  1  0
 23 54  1  0
 26 55  1  0
 27 56  1  0
M  END
>  <smiles>  (22) 
O=C(NCC(=O)N1CCC[C@H]1CN1CCCCC1)c1ccc2cc(Cl)ccc2n1

>  <score_type>  (22) 
oracle

>  <origin>  (22) 
autodockgpu

>  <m_score__min__energy>  (22) 
-8.3900000000000006

>  <m_primary>  (22) 
energy

>  <rmsd>  (22) 
2.4144423297097024

>  <m_score__min__rmsd>  (22) 
2.4144423297097024

>  <meeko>  (22) 
{"free_energy": -8.05, "intermolecular_energy": -9.84, "internal_energy": -1.79, "cluster_size": 27, "cluster_id": 2, "rank_in_cluster": 8}

>  <energy>  (22) 
-8.01

>  <cluster_rmsd>  (22) 
1.0

>  <cluster>  (22) 
2

$$$$

     RDKit          3D

 56 59  0  0  0  0  0  0  0  0999 V2000
  139.4760   71.6920  220.5810 O   0  0  0  0  0  0  0  0  0  0  0  0
  139.4300   72.2420  221.7350 C   0  0  0  0  0  0  0  0  0  0  0  0
  139.2000   73.6390  221.8920 N   0  0  0  0  0  0  0  0  0  0  0  0
  138.9960   74.5160  220.8130 C   0  0  0  0  0  0  0  0  0  0  0  0
  139.5400   75.8650  220.8310 C   0  0  0  0  0  0  0  0  0  0  0  0
  140.6680   75.9900  220.1880 O   0  0  0  0  0  0  0  0  0  0  0  0
  138.9720   77.0160  221.4680 N   0  0  0  0  0  0  0  0  0  0  0  0
  137.6490   77.2560  221.9550 C   0  0  0  0  0  0  0  0  0  0  0  0
  137.8840   78.3140  223.0510 C   0  0  0  0  0  0  0  0  0  0  0  0
  138.8440   79.2270  222.2930 C   0  0  0  0  0  0  0  0  0  0  0  0
  139.8230   78.2100  221.7020 C   0  0  1  0  0  0  0  0  0  0  0  0
  140.8760   77.8630  222.7330 C   0  0  0  0  0  0  0  0  0  0  0  0
  141.8950   78.8860  222.6720 N   0  0  0  0  0  0  0  0  0  0  0  0
  142.1730   79.5630  223.8680 C   0  0  0  0  0  0  0  0  0  0  0  0
  142.4510   81.0280  223.7860 C   0  0  0  0  0  0  0  0  0  0  0  0
  141.4310   81.6390  222.8440 C   0  0  0  0  0  0  0  0  0  0  0  0
  141.7820   81.0680  221.4840 C   0  0  0  0  0  0  0  0  0  0  0  0
  141.9420   79.5980  221.4550 C   0  0  0  0  0  0  0  0  0  0  0  0
  139.6180   71.4010  222.9180 C   0  0  0  0  0  0  0  0  0  0  0  0
  139.2040   70.0870  222.9160 C   0  0  0  0  0  0  0  0  0  0  0  0
  139.3520   69.2420  223.9930 C   0  0  0  0  0  0  0  0  0  0  0  0
  139.9520   69.7670  225.1200 C   0  0  0  0  0  0  0  0  0  0  0  0
  140.1010   68.9230  226.1970 C   0  0  0  0  0  0  0  0  0  0  0  0
  140.6920   69.3910  227.3510 C   0  0  0  0  0  0  0  0  0  0  0  0
  140.8890   68.3170  228.7380 Cl  0  0  0  0  0  0  0  0  0  0  0  0
  141.1180   70.7010  227.3830 C   0  0  0  0  0  0  0  0  0  0  0  0
  140.9620   71.5470  226.2850 C   0  0  0  0  0  0  0  0  0  0  0  0
  140.3710   71.0840  225.1290 C   0  0  0  0  0  0  0  0  0  0  0  0
  140.2080   71.8890  224.0480 N   0  0  0  0  0  0  0  0  0  0  0  0
  139.1890   73.9980  222.8830 H   0  0  0  0  0  0  0  0  0  0  0  0
  139.4154   74.0215  219.9244 H   0  0  0  0  0  0  0  0  0  0  0  0
  137.9107   74.6923  220.8463 H   0  0  0  0  0  0  0  0  0  0  0  0
  136.9971   77.6458  221.1593 H   0  0  0  0  0  0  0  0  0  0  0  0
  137.1453   76.3493  222.3214 H   0  0  0  0  0  0  0  0  0  0  0  0
  136.9551   78.8324  223.3309 H   0  0  0  0  0  0  0  0  0  0  0  0
  138.2550   77.9279  224.0119 H   0  0  0  0  0  0  0  0  0  0  0  0
  138.3247   79.7911  221.5043 H   0  0  0  0  0  0  0  0  0  0  0  0
  139.3186   79.9985  222.9171 H   0  0  0  0  0  0  0  0  0  0  0  0
  140.3359   78.5756  220.8002 H   0  0  0  0  0  0  0  0  0  0  0  0
  140.4262   77.8399  223.7366 H   0  0  0  0  0  0  0  0  0  0  0  0
  141.3079   76.8722  222.5284 H   0  0  0  0  0  0  0  0  0  0  0  0
  141.3053   79.4295  224.5308 H   0  0  0  0  0  0  0  0  0  0  0  0
  143.1139   79.1203  224.2267 H   0  0  0  0  0  0  0  0  0  0  0  0
  142.3597   81.4830  224.7833 H   0  0  0  0  0  0  0  0  0  0  0  0
  143.4717   81.2064  223.4168 H   0  0  0  0  0  0  0  0  0  0  0  0
  140.4104   81.3503  223.1355 H   0  0  0  0  0  0  0  0  0  0  0  0
  141.4563   82.7386  222.8556 H   0  0  0  0  0  0  0  0  0  0  0  0
  140.9808   81.3397  220.7809 H   0  0  0  0  0  0  0  0  0  0  0  0
  142.7591   81.4929  221.2107 H   0  0  0  0  0  0  0  0  0  0  0  0
  141.1416   79.1980  220.8151 H   0  0  0  0  0  0  0  0  0  0  0  0
  142.9720   79.4491  221.0988 H   0  0  0  0  0  0  0  0  0  0  0  0
  138.7299   69.6918  222.0055 H   0  0  0  0  0  0  0  0  0  0  0  0
  139.0083   68.1977  223.9571 H   0  0  0  0  0  0  0  0  0  0  0  0
  139.7508   67.8820  226.1372 H   0  0  0  0  0  0  0  0  0  0  0  0
  141.5925   71.0890  228.2964 H   0  0  0  0  0  0  0  0  0  0  0  0
  141.3122   72.5882  226.3419 H   0  0  0  0  0  0  0  0  0  0  0  0
  1  2  2  0
  2  3  1  0
  3  4  1  0
  4  5  1  0
  5  6  2  0
  5  7  1  0
  7  8  1  0
  8  9  1  0
  9 10  1  0
 10 11  1  0
 11 12  1  0
 12 13  1  0
 13 14  1  0
 14 15  1  0
 15 16  1  0
 16 17  1  0
 17 18  1  0
  2 19  1  0
 19 20  2  0
 20 21  1  0
 21 22  2  0
 22 23  1  0
 23 24  2  0
 24 25  1  0
 24 26  1  0
 26 27  2  0
 27 28  1  0
 28 29  2  0
 11  7  1  0
 18 13  1  0
 29 19  1  0
 28 22  1  0
  3 30  1  0
  4 31  1  0
  4 32  1  0
  8 33  1  0
  8 34  1  0
  9 35  1  0
  9 36  1  0
 10 37  1  0
 10 38  1  0
 11 39  1  6
 12 40  1  0
 12 41  1  0
 14 42  1  0
 14 43  1  0
 15 44  1  0
 15 45  1  0
 16 46  1  0
 16 47  1  0
 17 48  1  0
 17 49  1  0
 18 50  1  0
 18 51  1  0
 20 52  1  0
 21 53  1  0
 23 54  1  0
 26 55  1  0
 27 56  1  0
M  END
>  <smiles>  (23) 
O=C(NCC(=O)N1CCC[C@H]1CN1CCCCC1)c1ccc2cc(Cl)ccc2n1

>  <score_type>  (23) 
oracle

>  <origin>  (23) 
autodockgpu

>  <m_score__min__energy>  (23) 
-8.3900000000000006

>  <m_primary>  (23) 
energy

>  <rmsd>  (23) 
2.812017866322942

>  <m_score__min__rmsd>  (23) 
2.812017866322942

>  <meeko>  (23) 
{"free_energy": -8.19, "intermolecular_energy": -9.98, "internal_energy": -1.52, "cluster_size": 27, "cluster_id": 2, "rank_in_cluster": 3}

>  <energy>  (23) 
-7.99

>  <cluster_rmsd>  (23) 
1.22

>  <cluster>  (23) 
2

$$$$

     RDKit          3D

 56 59  0  0  0  0  0  0  0  0999 V2000
  136.5420   72.6280  223.3280 O   0  0  0  0  0  0  0  0  0  0  0  0
  135.7110   72.3370  224.2560 C   0  0  0  0  0  0  0  0  0  0  0  0
  135.4590   70.9890  224.6390 N   0  0  0  0  0  0  0  0  0  0  0  0
  136.0970   69.8840  224.0510 C   0  0  0  0  0  0  0  0  0  0  0  0
  137.5450   69.7540  224.0770 C   0  0  0  0  0  0  0  0  0  0  0  0
  137.9890   68.9510  225.0050 O   0  0  0  0  0  0  0  0  0  0  0  0
  138.4870   70.4050  223.2140 N   0  0  0  0  0  0  0  0  0  0  0  0
  138.3180   70.9860  221.9190 C   0  0  0  0  0  0  0  0  0  0  0  0
  139.4460   72.0350  221.8740 C   0  0  0  0  0  0  0  0  0  0  0  0
  140.5790   71.1850  222.4420 C   0  0  0  0  0  0  0  0  0  0  0  0
  139.8970   70.5450  223.6540 C   0  0  1  0  0  0  0  0  0  0  0  0
  139.9500   71.5010  224.8270 C   0  0  0  0  0  0  0  0  0  0  0  0
  140.7550   70.8820  225.8550 N   0  0  0  0  0  0  0  0  0  0  0  0
  140.7670   69.4800  225.8790 C   0  0  0  0  0  0  0  0  0  0  0  0
  140.7670   68.8110  227.2140 C   0  0  0  0  0  0  0  0  0  0  0  0
  139.7560   69.5280  228.0900 C   0  0  0  0  0  0  0  0  0  0  0  0
  140.3550   70.9030  228.3090 C   0  0  0  0  0  0  0  0  0  0  0  0
  140.7950   71.5890  227.0750 C   0  0  0  0  0  0  0  0  0  0  0  0
  135.0100   73.4270  224.9350 C   0  0  0  0  0  0  0  0  0  0  0  0
  135.3480   74.7400  224.6860 C   0  0  0  0  0  0  0  0  0  0  0  0
  134.7280   75.8110  225.2880 C   0  0  0  0  0  0  0  0  0  0  0  0
  133.7180   75.5250  226.1830 C   0  0  0  0  0  0  0  0  0  0  0  0
  133.0970   76.5960  226.7860 C   0  0  0  0  0  0  0  0  0  0  0  0
  132.0810   76.3730  227.6890 C   0  0  0  0  0  0  0  0  0  0  0  0
  131.2780   77.7390  228.4670 Cl  0  0  0  0  0  0  0  0  0  0  0  0
  131.7190   75.0720  227.9590 C   0  0  0  0  0  0  0  0  0  0  0  0
  132.3550   73.9930  227.3410 C   0  0  0  0  0  0  0  0  0  0  0  0
  133.3720   74.2120  226.4370 C   0  0  0  0  0  0  0  0  0  0  0  0
  134.0060   73.1790  225.8250 N   0  0  0  0  0  0  0  0  0  0  0  0
  134.7500   70.8510  225.4080 H   0  0  0  0  0  0  0  0  0  0  0  0
  135.6937   68.9892  224.5477 H   0  0  0  0  0  0  0  0  0  0  0  0
  135.8859   70.0242  222.9806 H   0  0  0  0  0  0  0  0  0  0  0  0
  138.4431   70.2336  221.1264 H   0  0  0  0  0  0  0  0  0  0  0  0
  137.3167   71.4116  221.7567 H   0  0  0  0  0  0  0  0  0  0  0  0
  139.6564   72.3718  220.8482 H   0  0  0  0  0  0  0  0  0  0  0  0
  139.2426   72.9741  222.4095 H   0  0  0  0  0  0  0  0  0  0  0  0
  140.9128   70.4250  221.7202 H   0  0  0  0  0  0  0  0  0  0  0  0
  141.4890   71.7529  222.6856 H   0  0  0  0  0  0  0  0  0  0  0  0
  140.3628   69.5982  223.9649 H   0  0  0  0  0  0  0  0  0  0  0  0
  140.4051   72.4528  224.5156 H   0  0  0  0  0  0  0  0  0  0  0  0
  138.9374   71.7114  225.2017 H   0  0  0  0  0  0  0  0  0  0  0  0
  139.8741   69.1340  225.3376 H   0  0  0  0  0  0  0  0  0  0  0  0
  141.7304   69.2013  225.4271 H   0  0  0  0  0  0  0  0  0  0  0  0
  140.4836   67.7539  227.1032 H   0  0  0  0  0  0  0  0  0  0  0  0
  141.7685   68.8550  227.6667 H   0  0  0  0  0  0  0  0  0  0  0  0
  138.7839   69.6035  227.5807 H   0  0  0  0  0  0  0  0  0  0  0  0
  139.5686   68.9969  229.0349 H   0  0  0  0  0  0  0  0  0  0  0  0
  139.5979   71.5324  228.7996 H   0  0  0  0  0  0  0  0  0  0  0  0
  141.2571   70.7551  228.9208 H   0  0  0  0  0  0  0  0  0  0  0  0
  140.1588   72.4782  226.9547 H   0  0  0  0  0  0  0  0  0  0  0  0
  141.8665   71.7746  227.2407 H   0  0  0  0  0  0  0  0  0  0  0  0
  136.1563   74.9424  223.9679 H   0  0  0  0  0  0  0  0  0  0  0  0
  135.0240   76.8469  225.0658 H   0  0  0  0  0  0  0  0  0  0  0  0
  133.4103   77.6232  226.5480 H   0  0  0  0  0  0  0  0  0  0  0  0
  130.9098   74.8780  228.6784 H   0  0  0  0  0  0  0  0  0  0  0  0
  132.0431   72.9648  227.5766 H   0  0  0  0  0  0  0  0  0  0  0  0
  1  2  2  0
  2  3  1  0
  3  4  1  0
  4  5  1  0
  5  6  2  0
  5  7  1  0
  7  8  1  0
  8  9  1  0
  9 10  1  0
 10 11  1  0
 11 12  1  0
 12 13  1  0
 13 14  1  0
 14 15  1  0
 15 16  1  0
 16 17  1  0
 17 18  1  0
  2 19  1  0
 19 20  2  0
 20 21  1  0
 21 22  2  0
 22 23  1  0
 23 24  2  0
 24 25  1  0
 24 26  1  0
 26 27  2  0
 27 28  1  0
 28 29  2  0
 11  7  1  0
 18 13  1  0
 29 19  1  0
 28 22  1  0
  3 30  1  0
  4 31  1  0
  4 32  1  0
  8 33  1  0
  8 34  1  0
  9 35  1  0
  9 36  1  0
 10 37  1  0
 10 38  1  0
 11 39  1  1
 12 40  1  0
 12 41  1  0
 14 42  1  0
 14 43  1  0
 15 44  1  0
 15 45  1  0
 16 46  1  0
 16 47  1  0
 17 48  1  0
 17 49  1  0
 18 50  1  0
 18 51  1  0
 20 52  1  0
 21 53  1  0
 23 54  1  0
 26 55  1  0
 27 56  1  0
M  END
>  <smiles>  (24) 
O=C(NCC(=O)N1CCC[C@H]1CN1CCCCC1)c1ccc2cc(Cl)ccc2n1

>  <score_type>  (24) 
oracle

>  <origin>  (24) 
autodockgpu

>  <m_score__min__energy>  (24) 
-8.3900000000000006

>  <m_primary>  (24) 
energy

>  <rmsd>  (24) 
8.75992936015439

>  <m_score__min__rmsd>  (24) 
8.75992936015439

>  <meeko>  (24) 
{"free_energy": -7.19, "intermolecular_energy": -8.98, "internal_energy": -2.03, "cluster_size": 12, "cluster_id": 1, "rank_in_cluster": 11}

>  <energy>  (24) 
-7.99

>  <cluster_rmsd>  (24) 
1.23

>  <cluster>  (24) 
2

$$$$

     RDKit          3D

 56 59  0  0  0  0  0  0  0  0999 V2000
  140.5930   72.4060  220.8930 O   0  0  0  0  0  0  0  0  0  0  0  0
  140.1320   72.7870  222.0240 C   0  0  0  0  0  0  0  0  0  0  0  0
  139.6290   74.1050  222.2230 N   0  0  0  0  0  0  0  0  0  0  0  0
  139.5860   75.0780  221.2110 C   0  0  0  0  0  0  0  0  0  0  0  0
  140.5940   76.1240  221.1350 C   0  0  0  0  0  0  0  0  0  0  0  0
  141.0890   76.4680  222.2930 O   0  0  0  0  0  0  0  0  0  0  0  0
  141.0670   76.7840  219.9550 N   0  0  0  0  0  0  0  0  0  0  0  0
  140.9730   76.4130  218.5770 C   0  0  0  0  0  0  0  0  0  0  0  0
  141.0500   77.7740  217.8590 C   0  0  0  0  0  0  0  0  0  0  0  0
  142.2040   78.3890  218.6450 C   0  0  0  0  0  0  0  0  0  0  0  0
  141.7890   78.0750  220.0850 C   0  0  1  0  0  0  0  0  0  0  0  0
  140.8190   79.1290  220.5730 C   0  0  0  0  0  0  0  0  0  0  0  0
  140.9420   79.1980  222.0110 N   0  0  0  0  0  0  0  0  0  0  0  0
  140.0130   80.0090  222.6790 C   0  0  0  0  0  0  0  0  0  0  0  0
  140.5030   80.8090  223.8420 C   0  0  0  0  0  0  0  0  0  0  0  0
  141.8330   81.4250  223.4500 C   0  0  0  0  0  0  0  0  0  0  0  0
  142.7750   80.2430  223.3270 C   0  0  0  0  0  0  0  0  0  0  0  0
  142.2660   79.1330  222.4920 C   0  0  0  0  0  0  0  0  0  0  0  0
  140.1240   71.8330  223.1340 C   0  0  0  0  0  0  0  0  0  0  0  0
  139.6030   70.5680  222.9660 C   0  0  0  0  0  0  0  0  0  0  0  0
  139.5670   69.6230  223.9660 C   0  0  0  0  0  0  0  0  0  0  0  0
  140.0880   69.9900  225.1900 C   0  0  0  0  0  0  0  0  0  0  0  0
  140.0510   69.0450  226.1910 C   0  0  0  0  0  0  0  0  0  0  0  0
  140.5560   69.3530  227.4360 C   0  0  0  0  0  0  0  0  0  0  0  0
  140.5150   68.1490  228.7260 Cl  0  0  0  0  0  0  0  0  0  0  0  0
  141.0850   70.6100  227.6340 C   0  0  0  0  0  0  0  0  0  0  0  0
  141.1160   71.5600  226.6120 C   0  0  0  0  0  0  0  0  0  0  0  0
  140.6120   71.2560  225.3660 C   0  0  0  0  0  0  0  0  0  0  0  0
  140.6310   72.1630  224.3570 N   0  0  0  0  0  0  0  0  0  0  0  0
  139.2780   74.3250  223.1930 H   0  0  0  0  0  0  0  0  0  0  0  0
  139.6244   74.5364  220.2544 H   0  0  0  0  0  0  0  0  0  0  0  0
  138.6719   75.6397  221.4537 H   0  0  0  0  0  0  0  0  0  0  0  0
  141.8086   75.7607  218.2831 H   0  0  0  0  0  0  0  0  0  0  0  0
  140.0638   75.8419  218.3378 H   0  0  0  0  0  0  0  0  0  0  0  0
  141.2896   77.6647  216.7910 H   0  0  0  0  0  0  0  0  0  0  0  0
  140.1182   78.3585  217.8486 H   0  0  0  0  0  0  0  0  0  0  0  0
  143.1629   77.9142  218.3899 H   0  0  0  0  0  0  0  0  0  0  0  0
  142.3642   79.4589  218.4460 H   0  0  0  0  0  0  0  0  0  0  0  0
  142.6376   78.0431  220.7842 H   0  0  0  0  0  0  0  0  0  0  0  0
  141.0674   80.1035  220.1274 H   0  0  0  0  0  0  0  0  0  0  0  0
  139.7893   78.8724  220.2835 H   0  0  0  0  0  0  0  0  0  0  0  0
  139.6037   80.7160  221.9423 H   0  0  0  0  0  0  0  0  0  0  0  0
  139.2869   79.3045  223.1108 H   0  0  0  0  0  0  0  0  0  0  0  0
  139.7794   81.6017  224.0830 H   0  0  0  0  0  0  0  0  0  0  0  0
  140.6213   80.1682  224.7282 H   0  0  0  0  0  0  0  0  0  0  0  0
  141.7481   81.9564  222.4906 H   0  0  0  0  0  0  0  0  0  0  0  0
  142.1840   82.1661  224.1832 H   0  0  0  0  0  0  0  0  0  0  0  0
  143.7173   80.5999  222.8857 H   0  0  0  0  0  0  0  0  0  0  0  0
  142.8997   79.8373  224.3418 H   0  0  0  0  0  0  0  0  0  0  0  0
  142.9256   79.0592  221.6148 H   0  0  0  0  0  0  0  0  0  0  0  0
  142.2603   78.2687  223.1723 H   0  0  0  0  0  0  0  0  0  0  0  0
  139.1944   70.2995  221.9806 H   0  0  0  0  0  0  0  0  0  0  0  0
  139.1428   68.6222  223.7975 H   0  0  0  0  0  0  0  0  0  0  0  0
  139.6213   68.0509  225.9983 H   0  0  0  0  0  0  0  0  0  0  0  0
  141.4928   70.8710  228.6217 H   0  0  0  0  0  0  0  0  0  0  0  0
  141.5444   72.5552  226.8019 H   0  0  0  0  0  0  0  0  0  0  0  0
  1  2  2  0
  2  3  1  0
  3  4  1  0
  4  5  1  0
  5  6  2  0
  5  7  1  0
  7  8  1  0
  8  9  1  0
  9 10  1  0
 10 11  1  0
 11 12  1  0
 12 13  1  0
 13 14  1  0
 14 15  1  0
 15 16  1  0
 16 17  1  0
 17 18  1  0
  2 19  1  0
 19 20  2  0
 20 21  1  0
 21 22  2  0
 22 23  1  0
 23 24  2  0
 24 25  1  0
 24 26  1  0
 26 27  2  0
 27 28  1  0
 28 29  2  0
 11  7  1  0
 18 13  1  0
 29 19  1  0
 28 22  1  0
  3 30  1  0
  4 31  1  0
  4 32  1  0
  8 33  1  0
  8 34  1  0
  9 35  1  0
  9 36  1  0
 10 37  1  0
 10 38  1  0
 11 39  1  1
 12 40  1  0
 12 41  1  0
 14 42  1  0
 14 43  1  0
 15 44  1  0
 15 45  1  0
 16 46  1  0
 16 47  1  0
 17 48  1  0
 17 49  1  0
 18 50  1  0
 18 51  1  0
 20 52  1  0
 21 53  1  0
 23 54  1  0
 26 55  1  0
 27 56  1  0
M  END
>  <smiles>  (25) 
O=C(NCC(=O)N1CCC[C@H]1CN1CCCCC1)c1ccc2cc(Cl)ccc2n1

>  <score_type>  (25) 
oracle

>  <origin>  (25) 
autodockgpu

>  <m_score__min__energy>  (25) 
-8.3900000000000006

>  <m_primary>  (25) 
energy

>  <rmsd>  (25) 
2.1757193320458383

>  <m_score__min__rmsd>  (25) 
2.1757193320458383

>  <meeko>  (25) 
{"free_energy": -8.17, "intermolecular_energy": -9.96, "internal_energy": -1.47, "cluster_size": 27, "cluster_id": 2, "rank_in_cluster": 4}

>  <energy>  (25) 
-7.9

>  <cluster_rmsd>  (25) 
0.72

>  <cluster>  (25) 
2

$$$$

     RDKit          3D

 56 59  0  0  0  0  0  0  0  0999 V2000
  140.0200   72.3400  220.7730 O   0  0  0  0  0  0  0  0  0  0  0  0
  139.8800   72.7970  221.9610 C   0  0  0  0  0  0  0  0  0  0  0  0
  139.6520   74.1800  222.2090 N   0  0  0  0  0  0  0  0  0  0  0  0
  139.5520   75.1440  221.1910 C   0  0  0  0  0  0  0  0  0  0  0  0
  140.5360   76.2080  221.0670 C   0  0  0  0  0  0  0  0  0  0  0  0
  141.3950   76.2520  222.0490 O   0  0  0  0  0  0  0  0  0  0  0  0
  140.6390   77.1710  220.0120 N   0  0  0  0  0  0  0  0  0  0  0  0
  140.5400   77.0150  218.5940 C   0  0  0  0  0  0  0  0  0  0  0  0
  140.0800   78.4130  218.1360 C   0  0  0  0  0  0  0  0  0  0  0  0
  141.0300   79.2600  218.9790 C   0  0  0  0  0  0  0  0  0  0  0  0
  140.8900   78.5940  220.3500 C   0  0  1  0  0  0  0  0  0  0  0  0
  139.6740   79.1500  221.0600 C   0  0  0  0  0  0  0  0  0  0  0  0
  140.1380   79.8340  222.2440 N   0  0  0  0  0  0  0  0  0  0  0  0
  140.8840   81.0040  222.0380 C   0  0  0  0  0  0  0  0  0  0  0  0
  142.0420   81.2560  222.9470 C   0  0  0  0  0  0  0  0  0  0  0  0
  142.7980   79.9500  223.1040 C   0  0  0  0  0  0  0  0  0  0  0  0
  141.8480   79.0540  223.8730 C   0  0  0  0  0  0  0  0  0  0  0  0
  140.4780   78.9860  223.3190 C   0  0  0  0  0  0  0  0  0  0  0  0
  139.9560   71.8610  223.0830 C   0  0  0  0  0  0  0  0  0  0  0  0
  139.5180   70.5620  222.9430 C   0  0  0  0  0  0  0  0  0  0  0  0
  139.5630   69.6320  223.9570 C   0  0  0  0  0  0  0  0  0  0  0  0
  140.0790   70.0510  225.1660 C   0  0  0  0  0  0  0  0  0  0  0  0
  140.1230   69.1220  226.1810 C   0  0  0  0  0  0  0  0  0  0  0  0
  140.6280   69.4820  227.4110 C   0  0  0  0  0  0  0  0  0  0  0  0
  140.6910   68.2980  228.7190 Cl  0  0  0  0  0  0  0  0  0  0  0  0
  141.0740   70.7740  227.5820 C   0  0  0  0  0  0  0  0  0  0  0  0
  141.0240   71.7080  226.5470 C   0  0  0  0  0  0  0  0  0  0  0  0
  140.5200   71.3520  225.3140 C   0  0  0  0  0  0  0  0  0  0  0  0
  140.4610   72.2440  224.2920 N   0  0  0  0  0  0  0  0  0  0  0  0
  139.5580   74.4600  223.2210 H   0  0  0  0  0  0  0  0  0  0  0  0
  139.5637   74.5947  220.2380 H   0  0  0  0  0  0  0  0  0  0  0  0
  138.6378   75.6910  221.4650 H   0  0  0  0  0  0  0  0  0  0  0  0
  141.5135   76.7529  218.1540 H   0  0  0  0  0  0  0  0  0  0  0  0
  139.8589   76.2072  218.2882 H   0  0  0  0  0  0  0  0  0  0  0  0
  140.2357   78.5666  217.0580 H   0  0  0  0  0  0  0  0  0  0  0  0
  139.0091   78.6273  218.2678 H   0  0  0  0  0  0  0  0  0  0  0  0
  142.0628   79.1991  218.6054 H   0  0  0  0  0  0  0  0  0  0  0  0
  140.7984   80.3353  218.9750 H   0  0  0  0  0  0  0  0  0  0  0  0
  141.7641   78.7493  220.9995 H   0  0  0  0  0  0  0  0  0  0  0  0
  139.1446   79.8550  220.4021 H   0  0  0  0  0  0  0  0  0  0  0  0
  138.9779   78.3413  221.3274 H   0  0  0  0  0  0  0  0  0  0  0  0
  141.2743   80.9685  221.0102 H   0  0  0  0  0  0  0  0  0  0  0  0
  140.1810   81.8236  222.2482 H   0  0  0  0  0  0  0  0  0  0  0  0
  142.7015   82.0205  222.5104 H   0  0  0  0  0  0  0  0  0  0  0  0
  141.6924   81.6187  223.9249 H   0  0  0  0  0  0  0  0  0  0  0  0
  143.0328   79.5156  222.1210 H   0  0  0  0  0  0  0  0  0  0  0  0
  143.7601   80.0822  223.6207 H   0  0  0  0  0  0  0  0  0  0  0  0
  142.2660   78.0365  223.8792 H   0  0  0  0  0  0  0  0  0  0  0  0
  141.7553   79.4898  224.8787 H   0  0  0  0  0  0  0  0  0  0  0  0
  140.3174   77.9523  222.9789 H   0  0  0  0  0  0  0  0  0  0  0  0
  139.8391   79.3329  224.1445 H   0  0  0  0  0  0  0  0  0  0  0  0
  139.1108   70.2517  221.9694 H   0  0  0  0  0  0  0  0  0  0  0  0
  139.2042   68.6026  223.8101 H   0  0  0  0  0  0  0  0  0  0  0  0
  139.7572   68.0987  226.0109 H   0  0  0  0  0  0  0  0  0  0  0  0
  141.4796   71.0767  228.5587 H   0  0  0  0  0  0  0  0  0  0  0  0
  141.3880   72.7323  226.7152 H   0  0  0  0  0  0  0  0  0  0  0  0
  1  2  2  0
  2  3  1  0
  3  4  1  0
  4  5  1  0
  5  6  2  0
  5  7  1  0
  7  8  1  0
  8  9  1  0
  9 10  1  0
 10 11  1  0
 11 12  1  0
 12 13  1  0
 13 14  1  0
 14 15  1  0
 15 16  1  0
 16 17  1  0
 17 18  1  0
  2 19  1  0
 19 20  2  0
 20 21  1  0
 21 22  2  0
 22 23  1  0
 23 24  2  0
 24 25  1  0
 24 26  1  0
 26 27  2  0
 27 28  1  0
 28 29  2  0
 11  7  1  0
 18 13  1  0
 29 19  1  0
 28 22  1  0
  3 30  1  0
  4 31  1  0
  4 32  1  0
  8 33  1  0
  8 34  1  0
  9 35  1  0
  9 36  1  0
 10 37  1  0
 10 38  1  0
 11 39  1  1
 12 40  1  0
 12 41  1  0
 14 42  1  0
 14 43  1  0
 15 44  1  0
 15 45  1  0
 16 46  1  0
 16 47  1  0
 17 48  1  0
 17 49  1  0
 18 50  1  0
 18 51  1  0
 20 52  1  0
 21 53  1  0
 23 54  1  0
 26 55  1  0
 27 56  1  0
M  END
>  <smiles>  (26) 
O=C(NCC(=O)N1CCC[C@H]1CN1CCCCC1)c1ccc2cc(Cl)ccc2n1

>  <score_type>  (26) 
oracle

>  <origin>  (26) 
autodockgpu

>  <m_score__min__energy>  (26) 
-8.3900000000000006

>  <m_primary>  (26) 
energy

>  <rmsd>  (26) 
2.4114463489923645

>  <m_score__min__rmsd>  (26) 
2.4114463489923645

>  <meeko>  (26) 
{"free_energy": -7.9, "intermolecular_energy": -9.69, "internal_energy": -1.79, "cluster_size": 27, "cluster_id": 2, "rank_in_cluster": 13}

>  <energy>  (26) 
-7.9

>  <cluster_rmsd>  (26) 
1.12

>  <cluster>  (26) 
2

$$$$

     RDKit          3D

 56 59  0  0  0  0  0  0  0  0999 V2000
  140.9980   73.2840  221.9840 O   0  0  0  0  0  0  0  0  0  0  0  0
  139.9500   72.9010  222.6100 C   0  0  0  0  0  0  0  0  0  0  0  0
  138.6600   73.4170  222.2970 N   0  0  0  0  0  0  0  0  0  0  0  0
  138.4300   74.3640  221.2850 C   0  0  0  0  0  0  0  0  0  0  0  0
  139.0950   75.6580  221.3050 C   0  0  0  0  0  0  0  0  0  0  0  0
  138.5110   76.5430  222.0660 O   0  0  0  0  0  0  0  0  0  0  0  0
  140.2800   76.0310  220.5910 N   0  0  0  0  0  0  0  0  0  0  0  0
  140.9250   75.4220  219.4700 C   0  0  0  0  0  0  0  0  0  0  0  0
  141.6680   76.6090  218.8260 C   0  0  0  0  0  0  0  0  0  0  0  0
  142.2530   77.2320  220.0910 C   0  0  0  0  0  0  0  0  0  0  0  0
  141.0330   77.2380  221.0150 C   0  0  1  0  0  0  0  0  0  0  0  0
  140.1900   78.4640  220.7320 C   0  0  0  0  0  0  0  0  0  0  0  0
  140.4200   79.4040  221.8050 N   0  0  0  0  0  0  0  0  0  0  0  0
  141.1880   80.5350  221.4910 C   0  0  0  0  0  0  0  0  0  0  0  0
  142.1520   81.0240  222.5220 C   0  0  0  0  0  0  0  0  0  0  0  0
  142.8670   79.8150  223.0960 C   0  0  0  0  0  0  0  0  0  0  0  0
  141.7900   79.0630  223.8520 C   0  0  0  0  0  0  0  0  0  0  0  0
  140.5500   78.8190  223.0820 C   0  0  0  0  0  0  0  0  0  0  0  0
  140.0940   71.9050  223.6720 C   0  0  0  0  0  0  0  0  0  0  0  0
  139.7610   70.5870  223.4460 C   0  0  0  0  0  0  0  0  0  0  0  0
  139.8730   69.6000  224.3990 C   0  0  0  0  0  0  0  0  0  0  0  0
  140.3480   69.9810  225.6380 C   0  0  0  0  0  0  0  0  0  0  0  0
  140.4610   68.9950  226.5920 C   0  0  0  0  0  0  0  0  0  0  0  0
  140.9290   69.3150  227.8480 C   0  0  0  0  0  0  0  0  0  0  0  0
  141.0780   68.0590  229.0790 Cl  0  0  0  0  0  0  0  0  0  0  0  0
  141.2710   70.6250  228.1050 C   0  0  0  0  0  0  0  0  0  0  0  0
  141.1530   71.6160  227.1300 C   0  0  0  0  0  0  0  0  0  0  0  0
  140.6850   71.3010  225.8720 C   0  0  0  0  0  0  0  0  0  0  0  0
  140.5600   72.2480  224.9080 N   0  0  0  0  0  0  0  0  0  0  0  0
  137.8600   73.0460  222.8740 H   0  0  0  0  0  0  0  0  0  0  0  0
  138.7106   73.8827  220.3365 H   0  0  0  0  0  0  0  0  0  0  0  0
  137.3744   74.6319  221.4395 H   0  0  0  0  0  0  0  0  0  0  0  0
  141.6288   74.6406  219.7927 H   0  0  0  0  0  0  0  0  0  0  0  0
  140.2283   74.9173  218.7846 H   0  0  0  0  0  0  0  0  0  0  0  0
  142.4511   76.2771  218.1285 H   0  0  0  0  0  0  0  0  0  0  0  0
  141.0501   77.2779  218.2089 H   0  0  0  0  0  0  0  0  0  0  0  0
  143.0670   76.6175  220.5030 H   0  0  0  0  0  0  0  0  0  0  0  0
  142.7060   78.2225  219.9370 H   0  0  0  0  0  0  0  0  0  0  0  0
  141.2976   77.2455  222.0827 H   0  0  0  0  0  0  0  0  0  0  0  0
  140.4863   78.9103  219.7713 H   0  0  0  0  0  0  0  0  0  0  0  0
  139.1246   78.1971  220.6714 H   0  0  0  0  0  0  0  0  0  0  0  0
  141.7661   80.2992  220.5854 H   0  0  0  0  0  0  0  0  0  0  0  0
  140.4560   81.3491  221.3844 H   0  0  0  0  0  0  0  0  0  0  0  0
  142.8810   81.7057  222.0597 H   0  0  0  0  0  0  0  0  0  0  0  0
  141.6222   81.5709  223.3159 H   0  0  0  0  0  0  0  0  0  0  0  0
  143.2850   79.1919  222.2916 H   0  0  0  0  0  0  0  0  0  0  0  0
  143.7132   80.0955  223.7405 H   0  0  0  0  0  0  0  0  0  0  0  0
  142.2014   78.0894  224.1566 H   0  0  0  0  0  0  0  0  0  0  0  0
  141.5068   79.6987  224.7039 H   0  0  0  0  0  0  0  0  0  0  0  0
  140.4593   77.7307  222.9504 H   0  0  0  0  0  0  0  0  0  0  0  0
  139.7643   79.3044  223.6796 H   0  0  0  0  0  0  0  0  0  0  0  0
  139.3854   70.3086  222.4503 H   0  0  0  0  0  0  0  0  0  0  0  0
  139.5971   68.5572  224.1835 H   0  0  0  0  0  0  0  0  0  0  0  0
  140.1796   67.9587  226.3533 H   0  0  0  0  0  0  0  0  0  0  0  0
  141.6461   70.8959  229.1030 H   0  0  0  0  0  0  0  0  0  0  0  0
  141.4345   72.6529  227.3660 H   0  0  0  0  0  0  0  0  0  0  0  0
  1  2  2  0
  2  3  1  0
  3  4  1  0
  4  5  1  0
  5  6  2  0
  5  7  1  0
  7  8  1  0
  8  9  1  0
  9 10  1  0
 10 11  1  0
 11 12  1  0
 12 13  1  0
 13 14  1  0
 14 15  1  0
 15 16  1  0
 16 17  1  0
 17 18  1  0
  2 19  1  0
 19 20  2  0
 20 21  1  0
 21 22  2  0
 22 23  1  0
 23 24  2  0
 24 25  1  0
 24 26  1  0
 26 27  2  0
 27 28  1  0
 28 29  2  0
 11  7  1  0
 18 13  1  0
 29 19  1  0
 28 22  1  0
  3 30  1  0
  4 31  1  0
  4 32  1  0
  8 33  1  0
  8 34  1  0
  9 35  1  0
  9 36  1  0
 10 37  1  0
 10 38  1  0
 11 39  1  1
 12 40  1  0
 12 41  1  0
 14 42  1  0
 14 43  1  0
 15 44  1  0
 15 45  1  0
 16 46  1  0
 16 47  1  0
 17 48  1  0
 17 49  1  0
 18 50  1  0
 18 51  1  0
 20 52  1  0
 21 53  1  0
 23 54  1  0
 26 55  1  0
 27 56  1  0
M  END
>  <smiles>  (27) 
O=C(NCC(=O)N1CCC[C@H]1CN1CCCCC1)c1ccc2cc(Cl)ccc2n1

>  <score_type>  (27) 
oracle

>  <origin>  (27) 
autodockgpu

>  <m_score__min__energy>  (27) 
-8.3900000000000006

>  <m_primary>  (27) 
energy

>  <rmsd>  (27) 
2.3550524348395165

>  <m_score__min__rmsd>  (27) 
2.3550524348395165

>  <meeko>  (27) 
{"free_energy": -8.01, "intermolecular_energy": -9.8, "internal_energy": -1.54, "cluster_size": 27, "cluster_id": 2, "rank_in_cluster": 10}

>  <energy>  (27) 
-7.81

>  <cluster_rmsd>  (27) 
1.4

>  <cluster>  (27) 
2

$$$$

     RDKit          3D

 56 59  0  0  0  0  0  0  0  0999 V2000
  135.0670   68.5100  225.2830 O   0  0  0  0  0  0  0  0  0  0  0  0
  135.1560   69.6730  224.7570 C   0  0  0  0  0  0  0  0  0  0  0  0
  135.9070   69.9020  223.5690 N   0  0  0  0  0  0  0  0  0  0  0  0
  136.5920   68.8890  222.8780 C   0  0  0  0  0  0  0  0  0  0  0  0
  137.9670   69.0780  222.4430 C   0  0  0  0  0  0  0  0  0  0  0  0
  138.5800   67.9700  222.1250 O   0  0  0  0  0  0  0  0  0  0  0  0
  138.6790   70.3180  222.3400 N   0  0  0  0  0  0  0  0  0  0  0  0
  138.5100   71.4180  221.4430 C   0  0  0  0  0  0  0  0  0  0  0  0
  139.0740   72.6000  222.2560 C   0  0  0  0  0  0  0  0  0  0  0  0
  140.3410   71.9360  222.7870 C   0  0  0  0  0  0  0  0  0  0  0  0
  139.7940   70.5950  223.2800 C   0  0  1  0  0  0  0  0  0  0  0  0
  139.2280   70.7610  224.6740 C   0  0  0  0  0  0  0  0  0  0  0  0
  140.2650   70.3890  225.6090 N   0  0  0  0  0  0  0  0  0  0  0  0
  140.2240   69.0750  226.0980 C   0  0  0  0  0  0  0  0  0  0  0  0
  140.5750   68.8590  227.5330 C   0  0  0  0  0  0  0  0  0  0  0  0
  139.8860   69.9410  228.3450 C   0  0  0  0  0  0  0  0  0  0  0  0
  140.5810   71.2240  227.9310 C   0  0  0  0  0  0  0  0  0  0  0  0
  140.6810   71.4270  226.4690 C   0  0  0  0  0  0  0  0  0  0  0  0
  134.4610   70.7870  225.4030 C   0  0  0  0  0  0  0  0  0  0  0  0
  133.5040   70.5520  226.3660 C   0  0  0  0  0  0  0  0  0  0  0  0
  132.8150   71.5530  227.0130 C   0  0  0  0  0  0  0  0  0  0  0  0
  133.1200   72.8500  226.6570 C   0  0  0  0  0  0  0  0  0  0  0  0
  132.4310   73.8520  227.3030 C   0  0  0  0  0  0  0  0  0  0  0  0
  132.6930   75.1680  226.9900 C   0  0  0  0  0  0  0  0  0  0  0  0
  131.8160   76.4610  227.8120 Cl  0  0  0  0  0  0  0  0  0  0  0  0
  133.6450   75.4360  226.0310 C   0  0  0  0  0  0  0  0  0  0  0  0
  134.3370   74.4120  225.3820 C   0  0  0  0  0  0  0  0  0  0  0  0
  134.0790   73.0950  225.6920 C   0  0  0  0  0  0  0  0  0  0  0  0
  134.7390   72.0820  225.0740 N   0  0  0  0  0  0  0  0  0  0  0  0
  135.9260   70.8970  223.2190 H   0  0  0  0  0  0  0  0  0  0  0  0
  136.5899   68.0061  223.5342 H   0  0  0  0  0  0  0  0  0  0  0  0
  136.0428   68.8305  221.9267 H   0  0  0  0  0  0  0  0  0  0  0  0
  139.0804   71.2656  220.5149 H   0  0  0  0  0  0  0  0  0  0  0  0
  137.4688   71.5648  221.1198 H   0  0  0  0  0  0  0  0  0  0  0  0
  139.2984   73.4691  221.6201 H   0  0  0  0  0  0  0  0  0  0  0  0
  138.4000   73.0153  223.0197 H   0  0  0  0  0  0  0  0  0  0  0  0
  141.0872   71.7980  221.9906 H   0  0  0  0  0  0  0  0  0  0  0  0
  140.8653   72.5192  223.5584 H   0  0  0  0  0  0  0  0  0  0  0  0
  140.5554   69.8018  223.3143 H   0  0  0  0  0  0  0  0  0  0  0  0
  138.9323   71.8078  224.8375 H   0  0  0  0  0  0  0  0  0  0  0  0
  138.3381   70.1288  224.8095 H   0  0  0  0  0  0  0  0  0  0  0  0
  139.2003   68.7008  225.9499 H   0  0  0  0  0  0  0  0  0  0  0  0
  141.0068   68.5440  225.5366 H   0  0  0  0  0  0  0  0  0  0  0  0
  140.2271   67.8676  227.8586 H   0  0  0  0  0  0  0  0  0  0  0  0
  141.6648   68.9066  227.6743 H   0  0  0  0  0  0  0  0  0  0  0  0
  138.8134   69.9844  228.1047 H   0  0  0  0  0  0  0  0  0  0  0  0
  139.9525   69.7589  229.4278 H   0  0  0  0  0  0  0  0  0  0  0  0
  140.0217   72.0699  228.3572 H   0  0  0  0  0  0  0  0  0  0  0  0
  141.6124   71.1548  228.3071 H   0  0  0  0  0  0  0  0  0  0  0  0
  140.0762   72.3124  226.2234 H   0  0  0  0  0  0  0  0  0  0  0  0
  141.7625   71.5078  226.2849 H   0  0  0  0  0  0  0  0  0  0  0  0
  133.2784   69.5088  226.6321 H   0  0  0  0  0  0  0  0  0  0  0  0
  132.0569   71.3289  227.7779 H   0  0  0  0  0  0  0  0  0  0  0  0
  131.6765   73.6035  228.0639 H   0  0  0  0  0  0  0  0  0  0  0  0
  133.8651   76.4818  225.7705 H   0  0  0  0  0  0  0  0  0  0  0  0
  135.0913   74.6578  224.6200 H   0  0  0  0  0  0  0  0  0  0  0  0
  1  2  2  0
  2  3  1  0
  3  4  1  0
  4  5  1  0
  5  6  2  0
  5  7  1  0
  7  8  1  0
  8  9  1  0
  9 10  1  0
 10 11  1  0
 11 12  1  0
 12 13  1  0
 13 14  1  0
 14 15  1  0
 15 16  1  0
 16 17  1  0
 17 18  1  0
  2 19  1  0
 19 20  2  0
 20 21  1  0
 21 22  2  0
 22 23  1  0
 23 24  2  0
 24 25  1  0
 24 26  1  0
 26 27  2  0
 27 28  1  0
 28 29  2  0
 11  7  1  0
 18 13  1  0
 29 19  1  0
 28 22  1  0
  3 30  1  0
  4 31  1  0
  4 32  1  0
  8 33  1  0
  8 34  1  0
  9 35  1  0
  9 36  1  0
 10 37  1  0
 10 38  1  0
 11 39  1  1
 12 40  1  0
 12 41  1  0
 14 42  1  0
 14 43  1  0
 15 44  1  0
 15 45  1  0
 16 46  1  0
 16 47  1  0
 17 48  1  0
 17 49  1  0
 18 50  1  0
 18 51  1  0
 20 52  1  0
 21 53  1  0
 23 54  1  0
 26 55  1  0
 27 56  1  0
M  END
>  <smiles>  (28) 
O=C(NCC(=O)N1CCC[C@H]1CN1CCCCC1)c1ccc2cc(Cl)ccc2n1

>  <score_type>  (28) 
oracle

>  <origin>  (28) 
autodockgpu

>  <m_score__min__energy>  (28) 
-8.3900000000000006

>  <m_primary>  (28) 
energy

>  <rmsd>  (28) 
8.309307994363813

>  <m_score__min__rmsd>  (28) 
8.309307994363813

>  <meeko>  (28) 
{"free_energy": -7.41, "intermolecular_energy": -9.2, "internal_energy": -1.89, "cluster_size": 12, "cluster_id": 1, "rank_in_cluster": 10}

>  <energy>  (28) 
-7.76

>  <cluster_rmsd>  (28) 
0.85

>  <cluster>  (28) 
2

$$$$

     RDKit          3D

 56 59  0  0  0  0  0  0  0  0999 V2000
  139.5530   71.8380  220.7440 O   0  0  0  0  0  0  0  0  0  0  0  0
  139.6470   72.3610  221.9080 C   0  0  0  0  0  0  0  0  0  0  0  0
  139.6260   73.7720  222.1000 N   0  0  0  0  0  0  0  0  0  0  0  0
  139.4910   74.6940  221.0480 C   0  0  0  0  0  0  0  0  0  0  0  0
  140.3140   75.8930  220.9930 C   0  0  0  0  0  0  0  0  0  0  0  0
  140.5110   76.4540  222.1550 O   0  0  0  0  0  0  0  0  0  0  0  0
  140.8970   76.4880  219.8280 N   0  0  0  0  0  0  0  0  0  0  0  0
  140.7590   76.1580  218.4430 C   0  0  0  0  0  0  0  0  0  0  0  0
  141.0570   77.5010  217.7490 C   0  0  0  0  0  0  0  0  0  0  0  0
  142.2860   77.9130  218.5540 C   0  0  0  0  0  0  0  0  0  0  0  0
  141.8130   77.6460  219.9850 C   0  0  1  0  0  0  0  0  0  0  0  0
  141.0170   78.8330  220.4840 C   0  0  0  0  0  0  0  0  0  0  0  0
  141.8880   79.6110  221.3340 N   0  0  0  0  0  0  0  0  0  0  0  0
  142.1690   79.0750  222.6000 C   0  0  0  0  0  0  0  0  0  0  0  0
  142.2490   80.0230  223.7510 C   0  0  0  0  0  0  0  0  0  0  0  0
  141.0880   80.9930  223.6320 C   0  0  0  0  0  0  0  0  0  0  0  0
  141.4040   81.8090  222.3930 C   0  0  0  0  0  0  0  0  0  0  0  0
  141.7480   81.0080  221.1980 C   0  0  0  0  0  0  0  0  0  0  0  0
  139.7770   71.4740  223.0650 C   0  0  0  0  0  0  0  0  0  0  0  0
  139.3650   70.1610  222.9900 C   0  0  0  0  0  0  0  0  0  0  0  0
  139.4600   69.2740  224.0390 C   0  0  0  0  0  0  0  0  0  0  0  0
  140.0010   69.7540  225.2140 C   0  0  0  0  0  0  0  0  0  0  0  0
  140.0960   68.8680  226.2640 C   0  0  0  0  0  0  0  0  0  0  0  0
  140.6270   69.2900  227.4630 C   0  0  0  0  0  0  0  0  0  0  0  0
  140.7550   68.1620  228.8160 Cl  0  0  0  0  0  0  0  0  0  0  0  0
  141.0490   70.5970  227.5690 C   0  0  0  0  0  0  0  0  0  0  0  0
  140.9480   71.4870  226.4980 C   0  0  0  0  0  0  0  0  0  0  0  0
  140.4170   71.0700  225.2970 C   0  0  0  0  0  0  0  0  0  0  0  0
  140.3070   71.9170  224.2420 N   0  0  0  0  0  0  0  0  0  0  0  0
  139.7190   74.1060  223.0960 H   0  0  0  0  0  0  0  0  0  0  0  0
  139.6846   74.1387  220.1184 H   0  0  0  0  0  0  0  0  0  0  0  0
  138.4816   75.1002  221.2098 H   0  0  0  0  0  0  0  0  0  0  0  0
  141.4839   75.3866  218.1440 H   0  0  0  0  0  0  0  0  0  0  0  0
  139.7735   75.7415  218.1875 H   0  0  0  0  0  0  0  0  0  0  0  0
  141.2868   77.3722  216.6810 H   0  0  0  0  0  0  0  0  0  0  0  0
  140.2294   78.2256  217.7418 H   0  0  0  0  0  0  0  0  0  0  0  0
  143.1602   77.2965  218.2976 H   0  0  0  0  0  0  0  0  0  0  0  0
  142.6151   78.9472  218.3747 H   0  0  0  0  0  0  0  0  0  0  0  0
  142.6391   77.4690  220.6895 H   0  0  0  0  0  0  0  0  0  0  0  0
  140.6786   79.4431  219.6335 H   0  0  0  0  0  0  0  0  0  0  0  0
  140.1288   78.4987  221.0403 H   0  0  0  0  0  0  0  0  0  0  0  0
  141.3799   78.3440  222.8302 H   0  0  0  0  0  0  0  0  0  0  0  0
  143.1841   78.6611  222.5086 H   0  0  0  0  0  0  0  0  0  0  0  0
  142.1783   79.4686  224.6985 H   0  0  0  0  0  0  0  0  0  0  0  0
  143.2063   80.5647  223.7379 H   0  0  0  0  0  0  0  0  0  0  0  0
  140.1388   80.4509  223.5094 H   0  0  0  0  0  0  0  0  0  0  0  0
  140.9715   81.6197  224.5285 H   0  0  0  0  0  0  0  0  0  0  0  0
  140.5232   82.4225  222.1526 H   0  0  0  0  0  0  0  0  0  0  0  0
  142.2950   82.4076  222.6335 H   0  0  0  0  0  0  0  0  0  0  0  0
  140.9577   81.1828  220.4531 H   0  0  0  0  0  0  0  0  0  0  0  0
  142.7576   81.3517  220.9288 H   0  0  0  0  0  0  0  0  0  0  0  0
  138.9376   69.8026  222.0419 H   0  0  0  0  0  0  0  0  0  0  0  0
  139.1206   68.2319  223.9447 H   0  0  0  0  0  0  0  0  0  0  0  0
  139.7502   67.8304  226.1461 H   0  0  0  0  0  0  0  0  0  0  0  0
  141.4758   70.9479  228.5202 H   0  0  0  0  0  0  0  0  0  0  0  0
  141.2936   72.5249  226.6135 H   0  0  0  0  0  0  0  0  0  0  0  0
  1  2  2  0
  2  3  1  0
  3  4  1  0
  4  5  1  0
  5  6  2  0
  5  7  1  0
  7  8  1  0
  8  9  1  0
  9 10  1  0
 10 11  1  0
 11 12  1  0
 12 13  1  0
 13 14  1  0
 14 15  1  0
 15 16  1  0
 16 17  1  0
 17 18  1  0
  2 19  1  0
 19 20  2  0
 20 21  1  0
 21 22  2  0
 22 23  1  0
 23 24  2  0
 24 25  1  0
 24 26  1  0
 26 27  2  0
 27 28  1  0
 28 29  2  0
 11  7  1  0
 18 13  1  0
 29 19  1  0
 28 22  1  0
  3 30  1  0
  4 31  1  0
  4 32  1  0
  8 33  1  0
  8 34  1  0
  9 35  1  0
  9 36  1  0
 10 37  1  0
 10 38  1  0
 11 39  1  1
 12 40  1  0
 12 41  1  0
 14 42  1  0
 14 43  1  0
 15 44  1  0
 15 45  1  0
 16 46  1  0
 16 47  1  0
 17 48  1  0
 17 49  1  0
 18 50  1  0
 18 51  1  0
 20 52  1  0
 21 53  1  0
 23 54  1  0
 26 55  1  0
 27 56  1  0
M  END
>  <smiles>  (29) 
O=C(NCC(=O)N1CCC[C@H]1CN1CCCCC1)c1ccc2cc(Cl)ccc2n1

>  <score_type>  (29) 
oracle

>  <origin>  (29) 
autodockgpu

>  <m_score__min__energy>  (29) 
-8.3900000000000006

>  <m_primary>  (29) 
energy

>  <rmsd>  (29) 
1.7383180087556964

>  <m_score__min__rmsd>  (29) 
1.7383180087556964

>  <meeko>  (29) 
{"free_energy": -8.08, "intermolecular_energy": -9.87, "internal_energy": -1.64, "cluster_size": 27, "cluster_id": 2, "rank_in_cluster": 7}

>  <energy>  (29) 
-7.75

>  <cluster_rmsd>  (29) 
0.73

>  <cluster>  (29) 
2

$$$$

     RDKit          3D

 56 59  0  0  0  0  0  0  0  0999 V2000
  139.4880   72.3190  220.6550 O   0  0  0  0  0  0  0  0  0  0  0  0
  140.1600   72.6580  221.6900 C   0  0  0  0  0  0  0  0  0  0  0  0
  140.9420   73.8470  221.7180 N   0  0  0  0  0  0  0  0  0  0  0  0
  141.0330   74.7410  220.6370 C   0  0  0  0  0  0  0  0  0  0  0  0
  141.0290   76.1790  220.8520 C   0  0  0  0  0  0  0  0  0  0  0  0
  140.5810   76.5390  222.0240 O   0  0  0  0  0  0  0  0  0  0  0  0
  141.4510   77.1920  219.9300 N   0  0  0  0  0  0  0  0  0  0  0  0
  141.7790   77.1100  218.5410 C   0  0  0  0  0  0  0  0  0  0  0  0
  141.4890   78.5400  218.0450 C   0  0  0  0  0  0  0  0  0  0  0  0
  142.1500   79.3200  219.1780 C   0  0  0  0  0  0  0  0  0  0  0  0
  141.6010   78.5900  220.4060 C   0  0  1  0  0  0  0  0  0  0  0  0
  140.2330   79.1380  220.7510 C   0  0  0  0  0  0  0  0  0  0  0  0
  140.3640   79.8910  221.9760 N   0  0  0  0  0  0  0  0  0  0  0  0
  140.9480   81.1620  221.8700 C   0  0  0  0  0  0  0  0  0  0  0  0
  141.8690   81.5950  222.9630 C   0  0  0  0  0  0  0  0  0  0  0  0
  142.7730   80.4230  223.2950 C   0  0  0  0  0  0  0  0  0  0  0  0
  141.8460   79.3930  223.9100 C   0  0  0  0  0  0  0  0  0  0  0  0
  140.6270   79.1100  223.1210 C   0  0  0  0  0  0  0  0  0  0  0  0
  140.1130   71.7920  222.8680 C   0  0  0  0  0  0  0  0  0  0  0  0
  139.5340   70.5440  222.7980 C   0  0  0  0  0  0  0  0  0  0  0  0
  139.4580   69.6800  223.8670 C   0  0  0  0  0  0  0  0  0  0  0  0
  139.9990   70.1150  225.0600 C   0  0  0  0  0  0  0  0  0  0  0  0
  139.9240   69.2520  226.1300 C   0  0  0  0  0  0  0  0  0  0  0  0
  140.4460   69.6310  227.3470 C   0  0  0  0  0  0  0  0  0  0  0  0
  140.3560   68.5320  228.7260 Cl  0  0  0  0  0  0  0  0  0  0  0  0
  141.0320   70.8740  227.4490 C   0  0  0  0  0  0  0  0  0  0  0  0
  141.1040   71.7400  226.3580 C   0  0  0  0  0  0  0  0  0  0  0  0
  140.5820   71.3660  225.1390 C   0  0  0  0  0  0  0  0  0  0  0  0
  140.6390   72.1920  224.0630 N   0  0  0  0  0  0  0  0  0  0  0  0
  141.4670   74.0350  222.6130 H   0  0  0  0  0  0  0  0  0  0  0  0
  141.9720   74.5055  220.1146 H   0  0  0  0  0  0  0  0  0  0  0  0
  140.0854   74.5735  220.1042 H   0  0  0  0  0  0  0  0  0  0  0  0
  142.8372   76.8463  218.3973 H   0  0  0  0  0  0  0  0  0  0  0  0
  141.2136   76.3357  218.0018 H   0  0  0  0  0  0  0  0  0  0  0  0
  141.9614   78.7438  217.0727 H   0  0  0  0  0  0  0  0  0  0  0  0
  140.4296   78.7735  217.8631 H   0  0  0  0  0  0  0  0  0  0  0  0
  143.2467   79.2527  219.1266 H   0  0  0  0  0  0  0  0  0  0  0  0
  141.9389   80.3995  219.1643 H   0  0  0  0  0  0  0  0  0  0  0  0
  142.2421   78.6919  221.2941 H   0  0  0  0  0  0  0  0  0  0  0  0
  139.8764   79.7939  219.9432 H   0  0  0  0  0  0  0  0  0  0  0  0
  139.5076   78.3203  220.8743 H   0  0  0  0  0  0  0  0  0  0  0  0
  141.5197   81.1838  220.9305 H   0  0  0  0  0  0  0  0  0  0  0  0
  140.1019   81.8627  221.9248 H   0  0  0  0  0  0  0  0  0  0  0  0
  142.4730   82.4507  222.6270 H   0  0  0  0  0  0  0  0  0  0  0  0
  141.2963   81.9035  223.8501 H   0  0  0  0  0  0  0  0  0  0  0  0
  143.2460   80.0264  222.3845 H   0  0  0  0  0  0  0  0  0  0  0  0
  143.5933   80.7051  223.9713 H   0  0  0  0  0  0  0  0  0  0  0  0
  142.4059   78.4531  224.0248 H   0  0  0  0  0  0  0  0  0  0  0  0
  141.5058   79.8134  224.8679 H   0  0  0  0  0  0  0  0  0  0  0  0
  140.6911   78.0627  222.7907 H   0  0  0  0  0  0  0  0  0  0  0  0
  139.8025   79.3555  223.8065 H   0  0  0  0  0  0  0  0  0  0  0  0
  139.1095   70.2204  221.8362 H   0  0  0  0  0  0  0  0  0  0  0  0
  138.9883   68.6896  223.7748 H   0  0  0  0  0  0  0  0  0  0  0  0
  139.4502   68.2661  226.0138 H   0  0  0  0  0  0  0  0  0  0  0  0
  141.4533   71.1910  228.4144 H   0  0  0  0  0  0  0  0  0  0  0  0
  141.5794   72.7255  226.4712 H   0  0  0  0  0  0  0  0  0  0  0  0
  1  2  2  0
  2  3  1  0
  3  4  1  0
  4  5  1  0
  5  6  2  0
  5  7  1  0
  7  8  1  0
  8  9  1  0
  9 10  1  0
 10 11  1  0
 11 12  1  0
 12 13  1  0
 13 14  1  0
 14 15  1  0
 15 16  1  0
 16 17  1  0
 17 18  1  0
  2 19  1  0
 19 20  2  0
 20 21  1  0
 21 22  2  0
 22 23  1  0
 23 24  2  0
 24 25  1  0
 24 26  1  0
 26 27  2  0
 27 28  1  0
 28 29  2  0
 11  7  1  0
 18 13  1  0
 29 19  1  0
 28 22  1  0
  3 30  1  0
  4 31  1  0
  4 32  1  0
  8 33  1  0
  8 34  1  0
  9 35  1  0
  9 36  1  0
 10 37  1  0
 10 38  1  0
 11 39  1  1
 12 40  1  0
 12 41  1  0
 14 42  1  0
 14 43  1  0
 15 44  1  0
 15 45  1  0
 16 46  1  0
 16 47  1  0
 17 48  1  0
 17 49  1  0
 18 50  1  0
 18 51  1  0
 20 52  1  0
 21 53  1  0
 23 54  1  0
 26 55  1  0
 27 56  1  0
M  END
>  <smiles>  (30) 
O=C(NCC(=O)N1CCC[C@H]1CN1CCCCC1)c1ccc2cc(Cl)ccc2n1

>  <score_type>  (30) 
oracle

>  <origin>  (30) 
autodockgpu

>  <m_score__min__energy>  (30) 
-8.3900000000000006

>  <m_primary>  (30) 
energy

>  <rmsd>  (30) 
2.705997272917477

>  <m_score__min__rmsd>  (30) 
2.705997272917477

>  <meeko>  (30) 
{"free_energy": -7.76, "intermolecular_energy": -9.55, "internal_energy": -1.74, "cluster_size": 27, "cluster_id": 2, "rank_in_cluster": 16}

>  <energy>  (30) 
-7.65

>  <cluster_rmsd>  (30) 
1.92

>  <cluster>  (30) 
2

$$$$

     RDKit          3D

 56 59  0  0  0  0  0  0  0  0999 V2000
  133.9420   69.6420  226.5340 O   0  0  0  0  0  0  0  0  0  0  0  0
  134.2730   70.7310  225.9490 C   0  0  0  0  0  0  0  0  0  0  0  0
  135.2420   70.7550  224.9050 N   0  0  0  0  0  0  0  0  0  0  0  0
  135.8970   69.6070  224.4290 C   0  0  0  0  0  0  0  0  0  0  0  0
  137.3480   69.5530  224.3460 C   0  0  0  0  0  0  0  0  0  0  0  0
  137.8980   68.7490  225.2150 O   0  0  0  0  0  0  0  0  0  0  0  0
  138.1900   70.2750  223.4390 N   0  0  0  0  0  0  0  0  0  0  0  0
  137.8900   70.9090  222.1930 C   0  0  0  0  0  0  0  0  0  0  0  0
  138.9780   71.9980  222.1040 C   0  0  0  0  0  0  0  0  0  0  0  0
  140.1820   71.1610  222.5290 C   0  0  0  0  0  0  0  0  0  0  0  0
  139.6290   70.4430  223.7620 C   0  0  1  0  0  0  0  0  0  0  0  0
  139.7560   71.3440  224.9710 C   0  0  0  0  0  0  0  0  0  0  0  0
  140.7250   70.7440  225.8590 N   0  0  0  0  0  0  0  0  0  0  0  0
  140.7010   69.3460  225.9580 C   0  0  0  0  0  0  0  0  0  0  0  0
  140.9380   68.7420  227.3030 C   0  0  0  0  0  0  0  0  0  0  0  0
  140.1370   69.5400  228.3150 C   0  0  0  0  0  0  0  0  0  0  0  0
  140.8070   70.9000  228.3400 C   0  0  0  0  0  0  0  0  0  0  0  0
  141.0210   71.5070  227.0080 C   0  0  0  0  0  0  0  0  0  0  0  0
  133.6300   71.9750  226.3710 C   0  0  0  0  0  0  0  0  0  0  0  0
  132.4580   71.9470  227.0950 C   0  0  0  0  0  0  0  0  0  0  0  0
  131.8030   73.0790  227.5250 C   0  0  0  0  0  0  0  0  0  0  0  0
  132.3750   74.2920  227.1990 C   0  0  0  0  0  0  0  0  0  0  0  0
  131.7210   75.4250  227.6280 C   0  0  0  0  0  0  0  0  0  0  0  0
  132.2440   76.6650  227.3320 C   0  0  0  0  0  0  0  0  0  0  0  0
  131.4140   78.1250  227.8780 Cl  0  0  0  0  0  0  0  0  0  0  0  0
  133.4160   76.7260  226.6110 C   0  0  0  0  0  0  0  0  0  0  0  0
  134.0710   75.5710  226.1810 C   0  0  0  0  0  0  0  0  0  0  0  0
  133.5510   74.3290  226.4740 C   0  0  0  0  0  0  0  0  0  0  0  0
  134.1690   73.1910  226.0660 N   0  0  0  0  0  0  0  0  0  0  0  0
  135.4520   71.7020  224.4910 H   0  0  0  0  0  0  0  0  0  0  0  0
  135.5901   68.7778  225.0834 H   0  0  0  0  0  0  0  0  0  0  0  0
  135.5928   69.5754  223.3724 H   0  0  0  0  0  0  0  0  0  0  0  0
  137.9684   70.1991  221.3564 H   0  0  0  0  0  0  0  0  0  0  0  0
  136.8657   71.3061  222.1378 H   0  0  0  0  0  0  0  0  0  0  0  0
  139.0874   72.3903  221.0822 H   0  0  0  0  0  0  0  0  0  0  0  0
  138.7940   72.9030  222.7016 H   0  0  0  0  0  0  0  0  0  0  0  0
  140.4732   70.4472  221.7443 H   0  0  0  0  0  0  0  0  0  0  0  0
  141.0928   71.7473  222.7203 H   0  0  0  0  0  0  0  0  0  0  0  0
  140.1488   69.4994  223.9845 H   0  0  0  0  0  0  0  0  0  0  0  0
  140.0980   72.3425  224.6611 H   0  0  0  0  0  0  0  0  0  0  0  0
  138.7848   71.4554  225.4753 H   0  0  0  0  0  0  0  0  0  0  0  0
  139.7112   69.0092  225.6162 H   0  0  0  0  0  0  0  0  0  0  0  0
  141.5519   69.0090  225.3477 H   0  0  0  0  0  0  0  0  0  0  0  0
  140.6067   67.6931  227.3062 H   0  0  0  0  0  0  0  0  0  0  0  0
  142.0089   68.7672  227.5532 H   0  0  0  0  0  0  0  0  0  0  0  0
  139.0876   69.6291  227.9975 H   0  0  0  0  0  0  0  0  0  0  0  0
  140.1204   69.0630  229.3060 H   0  0  0  0  0  0  0  0  0  0  0  0
  140.1771   71.5818  228.9303 H   0  0  0  0  0  0  0  0  0  0  0  0
  141.8051   70.7472  228.7763 H   0  0  0  0  0  0  0  0  0  0  0  0
  140.4006   72.4143  226.9625 H   0  0  0  0  0  0  0  0  0  0  0  0
  142.1095   71.6568  226.9552 H   0  0  0  0  0  0  0  0  0  0  0  0
  132.0224   70.9678  227.3427 H   0  0  0  0  0  0  0  0  0  0  0  0
  130.8679   73.0195  228.1012 H   0  0  0  0  0  0  0  0  0  0  0  0
  130.7872   75.3409  228.2032 H   0  0  0  0  0  0  0  0  0  0  0  0
  133.8462   77.7088  226.3682 H   0  0  0  0  0  0  0  0  0  0  0  0
  135.0054   75.6524  225.6063 H   0  0  0  0  0  0  0  0  0  0  0  0
  1  2  2  0
  2  3  1  0
  3  4  1  0
  4  5  1  0
  5  6  2  0
  5  7  1  0
  7  8  1  0
  8  9  1  0
  9 10  1  0
 10 11  1  0
 11 12  1  0
 12 13  1  0
 13 14  1  0
 14 15  1  0
 15 16  1  0
 16 17  1  0
 17 18  1  0
  2 19  1  0
 19 20  2  0
 20 21  1  0
 21 22  2  0
 22 23  1  0
 23 24  2  0
 24 25  1  0
 24 26  1  0
 26 27  2  0
 27 28  1  0
 28 29  2  0
 11  7  1  0
 18 13  1  0
 29 19  1  0
 28 22  1  0
  3 30  1  0
  4 31  1  0
  4 32  1  0
  8 33  1  0
  8 34  1  0
  9 35  1  0
  9 36  1  0
 10 37  1  0
 10 38  1  0
 11 39  1  1
 12 40  1  0
 12 41  1  0
 14 42  1  0
 14 43  1  0
 15 44  1  0
 15 45  1  0
 16 46  1  0
 16 47  1  0
 17 48  1  0
 17 49  1  0
 18 50  1  0
 18 51  1  0
 20 52  1  0
 21 53  1  0
 23 54  1  0
 26 55  1  0
 27 56  1  0
M  END
>  <smiles>  (31) 
O=C(NCC(=O)N1CCC[C@H]1CN1CCCCC1)c1ccc2cc(Cl)ccc2n1

>  <score_type>  (31) 
oracle

>  <origin>  (31) 
autodockgpu

>  <m_score__min__energy>  (31) 
-8.3900000000000006

>  <m_primary>  (31) 
energy

>  <rmsd>  (31) 
8.947694131448571

>  <m_score__min__rmsd>  (31) 
8.947694131448571

>  <meeko>  (31) 
{"free_energy": -8.33, "intermolecular_energy": -10.12, "internal_energy": -1.7, "cluster_size": 12, "cluster_id": 1, "rank_in_cluster": 3}

>  <energy>  (31) 
-7.63

>  <cluster_rmsd>  (31) 
0.83

>  <cluster>  (31) 
2

$$$$

     RDKit          3D

 56 59  0  0  0  0  0  0  0  0999 V2000
  133.5560   70.0720  226.8010 O   0  0  0  0  0  0  0  0  0  0  0  0
  133.9040   71.1620  226.2290 C   0  0  0  0  0  0  0  0  0  0  0  0
  134.8820   71.1850  225.1930 N   0  0  0  0  0  0  0  0  0  0  0  0
  135.5270   70.0340  224.7110 C   0  0  0  0  0  0  0  0  0  0  0  0
  136.3970   70.0940  223.5470 C   0  0  0  0  0  0  0  0  0  0  0  0
  136.4020   71.2550  222.9490 O   0  0  0  0  0  0  0  0  0  0  0  0
  137.2100   69.0390  223.0200 N   0  0  0  0  0  0  0  0  0  0  0  0
  137.1400   68.3410  221.7740 C   0  0  0  0  0  0  0  0  0  0  0  0
  138.5950   67.8730  221.5720 C   0  0  0  0  0  0  0  0  0  0  0  0
  138.8740   67.3610  222.9830 C   0  0  0  0  0  0  0  0  0  0  0  0
  138.3360   68.5150  223.8330 C   0  0  1  0  0  0  0  0  0  0  0  0
  139.3940   69.5910  223.9530 C   0  0  0  0  0  0  0  0  0  0  0  0
  139.3170   70.1270  225.2920 N   0  0  0  0  0  0  0  0  0  0  0  0
  140.3120   71.0450  225.6560 C   0  0  0  0  0  0  0  0  0  0  0  0
  140.8450   70.9730  227.0490 C   0  0  0  0  0  0  0  0  0  0  0  0
  141.0710   69.5100  227.3820 C   0  0  0  0  0  0  0  0  0  0  0  0
  139.6780   68.9140  227.4330 C   0  0  0  0  0  0  0  0  0  0  0  0
  138.8310   69.2240  226.2600 C   0  0  0  0  0  0  0  0  0  0  0  0
  133.2730   72.4100  226.6590 C   0  0  0  0  0  0  0  0  0  0  0  0
  132.0520   72.3940  227.2960 C   0  0  0  0  0  0  0  0  0  0  0  0
  131.4040   73.5300  227.7270 C   0  0  0  0  0  0  0  0  0  0  0  0
  132.0370   74.7340  227.4950 C   0  0  0  0  0  0  0  0  0  0  0  0
  131.3900   75.8710  227.9250 C   0  0  0  0  0  0  0  0  0  0  0  0
  131.9730   77.1030  227.7210 C   0  0  0  0  0  0  0  0  0  0  0  0
  131.1530   78.5670  228.2690 Cl  0  0  0  0  0  0  0  0  0  0  0  0
  133.1950   77.1520  227.0870 C   0  0  0  0  0  0  0  0  0  0  0  0
  133.8420   75.9930  226.6550 C   0  0  0  0  0  0  0  0  0  0  0  0
  133.2630   74.7590  226.8570 C   0  0  0  0  0  0  0  0  0  0  0  0
  133.8720   73.6180  226.4450 N   0  0  0  0  0  0  0  0  0  0  0  0
  135.1080   72.1330  224.7910 H   0  0  0  0  0  0  0  0  0  0  0  0
  136.1395   69.6488  225.5395 H   0  0  0  0  0  0  0  0  0  0  0  0
  134.6881   69.4185  224.3541 H   0  0  0  0  0  0  0  0  0  0  0  0
  136.4520   67.4850  221.8359 H   0  0  0  0  0  0  0  0  0  0  0  0
  136.7586   68.9575  220.9467 H   0  0  0  0  0  0  0  0  0  0  0  0
  138.6715   67.0740  220.8198 H   0  0  0  0  0  0  0  0  0  0  0  0
  139.2920   68.6372  221.1976 H   0  0  0  0  0  0  0  0  0  0  0  0
  138.3329   66.4251  223.1860 H   0  0  0  0  0  0  0  0  0  0  0  0
  139.9294   67.1159  223.1727 H   0  0  0  0  0  0  0  0  0  0  0  0
  138.0465   68.2074  224.8487 H   0  0  0  0  0  0  0  0  0  0  0  0
  140.3905   69.1593  223.7778 H   0  0  0  0  0  0  0  0  0  0  0  0
  139.2277   70.3831  223.2081 H   0  0  0  0  0  0  0  0  0  0  0  0
  141.1605   70.8989  224.9714 H   0  0  0  0  0  0  0  0  0  0  0  0
  139.8202   72.0271  225.5963 H   0  0  0  0  0  0  0  0  0  0  0  0
  141.7951   71.5233  227.1154 H   0  0  0  0  0  0  0  0  0  0  0  0
  140.1340   71.4237  227.7571 H   0  0  0  0  0  0  0  0  0  0  0  0
  141.6745   69.0223  226.6023 H   0  0  0  0  0  0  0  0  0  0  0  0
  141.6190   69.3753  228.3262 H   0  0  0  0  0  0  0  0  0  0  0  0
  139.7752   67.8208  227.5064 H   0  0  0  0  0  0  0  0  0  0  0  0
  139.1791   69.3628  228.3046 H   0  0  0  0  0  0  0  0  0  0  0  0
  138.6320   68.2730  225.7442 H   0  0  0  0  0  0  0  0  0  0  0  0
  137.9585   69.7380  226.6897 H   0  0  0  0  0  0  0  0  0  0  0  0
  131.5684   71.4214  227.4698 H   0  0  0  0  0  0  0  0  0  0  0  0
  130.4282   73.4801  228.2322 H   0  0  0  0  0  0  0  0  0  0  0  0
  130.4145   75.7964  228.4279 H   0  0  0  0  0  0  0  0  0  0  0  0
  133.6726   78.1282  226.9170 H   0  0  0  0  0  0  0  0  0  0  0  0
  134.8174   76.0650  226.1516 H   0  0  0  0  0  0  0  0  0  0  0  0
  1  2  2  0
  2  3  1  0
  3  4  1  0
  4  5  1  0
  5  6  2  0
  5  7  1  0
  7  8  1  0
  8  9  1  0
  9 10  1  0
 10 11  1  0
 11 12  1  0
 12 13  1  0
 13 14  1  0
 14 15  1  0
 15 16  1  0
 16 17  1  0
 17 18  1  0
  2 19  1  0
 19 20  2  0
 20 21  1  0
 21 22  2  0
 22 23  1  0
 23 24  2  0
 24 25  1  0
 24 26  1  0
 26 27  2  0
 27 28  1  0
 28 29  2  0
 11  7  1  0
 18 13  1  0
 29 19  1  0
 28 22  1  0
  3 30  1  0
  4 31  1  0
  4 32  1  0
  8 33  1  0
  8 34  1  0
  9 35  1  0
  9 36  1  0
 10 37  1  0
 10 38  1  0
 11 39  1  1
 12 40  1  0
 12 41  1  0
 14 42  1  0
 14 43  1  0
 15 44  1  0
 15 45  1  0
 16 46  1  0
 16 47  1  0
 17 48  1  0
 17 49  1  0
 18 50  1  0
 18 51  1  0
 20 52  1  0
 21 53  1  0
 23 54  1  0
 26 55  1  0
 27 56  1  0
M  END
>  <smiles>  (32) 
O=C(NCC(=O)N1CCC[C@H]1CN1CCCCC1)c1ccc2cc(Cl)ccc2n1

>  <score_type>  (32) 
oracle

>  <origin>  (32) 
autodockgpu

>  <m_score__min__energy>  (32) 
-8.3900000000000006

>  <m_primary>  (32) 
energy

>  <rmsd>  (32) 
9.761986606894734

>  <m_score__min__rmsd>  (32) 
9.761986606894734

>  <meeko>  (32) 
{"free_energy": -7.44, "intermolecular_energy": -9.23, "internal_energy": -2.0, "cluster_size": 12, "cluster_id": 1, "rank_in_cluster": 9}

>  <energy>  (32) 
-7.57

>  <cluster_rmsd>  (32) 
1.61

>  <cluster>  (32) 
2

$$$$

     RDKit          3D

 56 59  0  0  0  0  0  0  0  0999 V2000
  139.6040   71.9390  220.7730 O   0  0  0  0  0  0  0  0  0  0  0  0
  139.6370   72.4390  221.9500 C   0  0  0  0  0  0  0  0  0  0  0  0
  139.5220   73.8410  222.1720 N   0  0  0  0  0  0  0  0  0  0  0  0
  139.3530   74.7780  221.1380 C   0  0  0  0  0  0  0  0  0  0  0  0
  140.0980   76.0270  221.1300 C   0  0  0  0  0  0  0  0  0  0  0  0
  140.0000   76.7090  222.2390 O   0  0  0  0  0  0  0  0  0  0  0  0
  140.8900   76.5540  220.0590 N   0  0  0  0  0  0  0  0  0  0  0  0
  140.9360   76.2050  218.6730 C   0  0  0  0  0  0  0  0  0  0  0  0
  141.4320   77.5080  218.0170 C   0  0  0  0  0  0  0  0  0  0  0  0
  142.5550   77.8480  218.9930 C   0  0  0  0  0  0  0  0  0  0  0  0
  141.8550   77.6470  220.3390 C   0  0  1  0  0  0  0  0  0  0  0  0
  141.0830   78.8980  220.7010 C   0  0  0  0  0  0  0  0  0  0  0  0
  141.2190   79.0940  222.1260 N   0  0  0  0  0  0  0  0  0  0  0  0
  140.1970   79.8170  222.7570 C   0  0  0  0  0  0  0  0  0  0  0  0
  140.5880   80.7640  223.8430 C   0  0  0  0  0  0  0  0  0  0  0  0
  141.8110   81.5290  223.3710 C   0  0  0  0  0  0  0  0  0  0  0  0
  142.9080   80.4840  223.3090 C   0  0  0  0  0  0  0  0  0  0  0  0
  142.5480   79.2530  222.5730 C   0  0  0  0  0  0  0  0  0  0  0  0
  139.7970   71.5350  223.0900 C   0  0  0  0  0  0  0  0  0  0  0  0
  139.4320   70.2100  222.9890 C   0  0  0  0  0  0  0  0  0  0  0  0
  139.5570   69.3070  224.0200 C   0  0  0  0  0  0  0  0  0  0  0  0
  140.0800   69.7830  225.2060 C   0  0  0  0  0  0  0  0  0  0  0  0
  140.2050   68.8810  226.2380 C   0  0  0  0  0  0  0  0  0  0  0  0
  140.7190   69.2980  227.4470 C   0  0  0  0  0  0  0  0  0  0  0  0
  140.8850   68.1490  228.7770 Cl  0  0  0  0  0  0  0  0  0  0  0  0
  141.0940   70.6170  227.5780 C   0  0  0  0  0  0  0  0  0  0  0  0
  140.9630   71.5230  226.5250 C   0  0  0  0  0  0  0  0  0  0  0  0
  140.4480   71.1100  225.3150 C   0  0  0  0  0  0  0  0  0  0  0  0
  140.3100   71.9730  224.2760 N   0  0  0  0  0  0  0  0  0  0  0  0
  139.5700   74.1560  223.1770 H   0  0  0  0  0  0  0  0  0  0  0  0
  139.6032   74.2586  220.2012 H   0  0  0  0  0  0  0  0  0  0  0  0
  138.3164   75.1156  221.2844 H   0  0  0  0  0  0  0  0  0  0  0  0
  141.6386   75.3777  218.4946 H   0  0  0  0  0  0  0  0  0  0  0  0
  139.9715   75.8543  218.2770 H   0  0  0  0  0  0  0  0  0  0  0  0
  141.8077   77.3401  216.9969 H   0  0  0  0  0  0  0  0  0  0  0  0
  140.6706   78.2896  217.8780 H   0  0  0  0  0  0  0  0  0  0  0  0
  143.4092   77.1647  218.8776 H   0  0  0  0  0  0  0  0  0  0  0  0
  142.9836   78.8515  218.8540 H   0  0  0  0  0  0  0  0  0  0  0  0
  142.5518   77.4273  221.1613 H   0  0  0  0  0  0  0  0  0  0  0  0
  141.4955   79.7634  220.1616 H   0  0  0  0  0  0  0  0  0  0  0  0
  140.0237   78.7941  220.4232 H   0  0  0  0  0  0  0  0  0  0  0  0
  139.6803   80.4013  221.9814 H   0  0  0  0  0  0  0  0  0  0  0  0
  139.5848   79.0537  223.2596 H   0  0  0  0  0  0  0  0  0  0  0  0
  139.7634   81.4636  224.0447 H   0  0  0  0  0  0  0  0  0  0  0  0
  140.8110   80.2156  224.7701 H   0  0  0  0  0  0  0  0  0  0  0  0
  141.6358   81.9690  222.3782 H   0  0  0  0  0  0  0  0  0  0  0  0
  142.0658   82.3657  224.0381 H   0  0  0  0  0  0  0  0  0  0  0  0
  143.7826   80.9342  222.8166 H   0  0  0  0  0  0  0  0  0  0  0  0
  143.1052   80.1787  224.3472 H   0  0  0  0  0  0  0  0  0  0  0  0
  143.1959   79.2056  221.6853 H   0  0  0  0  0  0  0  0  0  0  0  0
  142.6776   78.4512  223.3148 H   0  0  0  0  0  0  0  0  0  0  0  0
  139.0187   69.8552  222.0333 H   0  0  0  0  0  0  0  0  0  0  0  0
  139.2546   68.2557  223.9047 H   0  0  0  0  0  0  0  0  0  0  0  0
  139.8968   67.8343  226.0989 H   0  0  0  0  0  0  0  0  0  0  0  0
  141.5069   70.9646  228.5365 H   0  0  0  0  0  0  0  0  0  0  0  0
  141.2717   72.5700  226.6609 H   0  0  0  0  0  0  0  0  0  0  0  0
  1  2  2  0
  2  3  1  0
  3  4  1  0
  4  5  1  0
  5  6  2  0
  5  7  1  0
  7  8  1  0
  8  9  1  0
  9 10  1  0
 10 11  1  0
 11 12  1  0
 12 13  1  0
 13 14  1  0
 14 15  1  0
 15 16  1  0
 16 17  1  0
 17 18  1  0
  2 19  1  0
 19 20  2  0
 20 21  1  0
 21 22  2  0
 22 23  1  0
 23 24  2  0
 24 25  1  0
 24 26  1  0
 26 27  2  0
 27 28  1  0
 28 29  2  0
 11  7  1  0
 18 13  1  0
 29 19  1  0
 28 22  1  0
  3 30  1  0
  4 31  1  0
  4 32  1  0
  8 33  1  0
  8 34  1  0
  9 35  1  0
  9 36  1  0
 10 37  1  0
 10 38  1  0
 11 39  1  1
 12 40  1  0
 12 41  1  0
 14 42  1  0
 14 43  1  0
 15 44  1  0
 15 45  1  0
 16 46  1  0
 16 47  1  0
 17 48  1  0
 17 49  1  0
 18 50  1  0
 18 51  1  0
 20 52  1  0
 21 53  1  0
 23 54  1  0
 26 55  1  0
 27 56  1  0
M  END
>  <smiles>  (33) 
O=C(NCC(=O)N1CCC[C@H]1CN1CCCCC1)c1ccc2cc(Cl)ccc2n1

>  <score_type>  (33) 
oracle

>  <origin>  (33) 
autodockgpu

>  <m_score__min__energy>  (33) 
-8.3900000000000006

>  <m_primary>  (33) 
energy

>  <rmsd>  (33) 
2.0459764090462302

>  <m_score__min__rmsd>  (33) 
2.0459764090462302

>  <meeko>  (33) 
{"free_energy": -8.25, "intermolecular_energy": -10.04, "internal_energy": -1.54, "cluster_size": 27, "cluster_id": 2, "rank_in_cluster": 2}

>  <energy>  (33) 
-7.56

>  <cluster_rmsd>  (33) 
1.56

>  <cluster>  (33) 
2

$$$$

     RDKit          3D

 56 59  0  0  0  0  0  0  0  0999 V2000
  139.3300   72.4990  220.5230 O   0  0  0  0  0  0  0  0  0  0  0  0
  140.1420   72.7250  221.4860 C   0  0  0  0  0  0  0  0  0  0  0  0
  141.1480   73.7300  221.3970 N   0  0  0  0  0  0  0  0  0  0  0  0
  141.3250   74.5510  220.2710 C   0  0  0  0  0  0  0  0  0  0  0  0
  140.7160   75.8710  220.2040 C   0  0  0  0  0  0  0  0  0  0  0  0
  141.1950   76.6280  219.2560 O   0  0  0  0  0  0  0  0  0  0  0  0
  139.6850   76.3910  221.0530 N   0  0  0  0  0  0  0  0  0  0  0  0
  138.4020   75.8600  221.3960 C   0  0  0  0  0  0  0  0  0  0  0  0
  138.1290   76.5080  222.7670 C   0  0  0  0  0  0  0  0  0  0  0  0
  138.5580   77.9350  222.4420 C   0  0  0  0  0  0  0  0  0  0  0  0
  139.8930   77.6940  221.7330 C   0  0  1  0  0  0  0  0  0  0  0  0
  140.9910   77.5370  222.7630 C   0  0  0  0  0  0  0  0  0  0  0  0
  141.8660   78.6800  222.6400 N   0  0  0  0  0  0  0  0  0  0  0  0
  142.0890   79.4250  223.8070 C   0  0  0  0  0  0  0  0  0  0  0  0
  142.1720   80.9110  223.6760 C   0  0  0  0  0  0  0  0  0  0  0  0
  141.0540   81.3550  222.7510 C   0  0  0  0  0  0  0  0  0  0  0  0
  141.4370   80.7910  221.3970 C   0  0  0  0  0  0  0  0  0  0  0  0
  141.7850   79.3530  221.4030 C   0  0  0  0  0  0  0  0  0  0  0  0
  140.0230   71.9240  222.7040 C   0  0  0  0  0  0  0  0  0  0  0  0
  139.2300   70.7970  222.7270 C   0  0  0  0  0  0  0  0  0  0  0  0
  139.0740   70.0000  223.8380 C   0  0  0  0  0  0  0  0  0  0  0  0
  139.7620   70.3730  224.9750 C   0  0  0  0  0  0  0  0  0  0  0  0
  139.6070   69.5760  226.0870 C   0  0  0  0  0  0  0  0  0  0  0  0
  140.2690   69.8980  227.2520 C   0  0  0  0  0  0  0  0  0  0  0  0
  140.0790   68.8830  228.6830 Cl  0  0  0  0  0  0  0  0  0  0  0  0
  141.0710   71.0190  227.2610 C   0  0  0  0  0  0  0  0  0  0  0  0
  141.2200   71.8190  226.1270 C   0  0  0  0  0  0  0  0  0  0  0  0
  140.5600   71.5010  224.9600 C   0  0  0  0  0  0  0  0  0  0  0  0
  140.6890   72.2650  223.8460 N   0  0  0  0  0  0  0  0  0  0  0  0
  141.7740   73.8340  222.2390 H   0  0  0  0  0  0  0  0  0  0  0  0
  142.4091   74.7005  220.1600 H   0  0  0  0  0  0  0  0  0  0  0  0
  140.7935   73.9985  219.4822 H   0  0  0  0  0  0  0  0  0  0  0  0
  137.6402   76.1535  220.6588 H   0  0  0  0  0  0  0  0  0  0  0  0
  138.3736   74.7606  221.4170 H   0  0  0  0  0  0  0  0  0  0  0  0
  137.0669   76.4497  223.0473 H   0  0  0  0  0  0  0  0  0  0  0  0
  138.6403   76.0420  223.6222 H   0  0  0  0  0  0  0  0  0  0  0  0
  137.8342   78.4318  221.7792 H   0  0  0  0  0  0  0  0  0  0  0  0
  138.6271   78.5950  223.3193 H   0  0  0  0  0  0  0  0  0  0  0  0
  140.1774   78.5109  221.0534 H   0  0  0  0  0  0  0  0  0  0  0  0
  140.5568   77.5030  223.7731 H   0  0  0  0  0  0  0  0  0  0  0  0
  141.5474   76.6026  222.5979 H   0  0  0  0  0  0  0  0  0  0  0  0
  141.2660   79.2017  224.5018 H   0  0  0  0  0  0  0  0  0  0  0  0
  143.0898   79.1190  224.1457 H   0  0  0  0  0  0  0  0  0  0  0  0
  142.0510   81.3816  224.6629 H   0  0  0  0  0  0  0  0  0  0  0  0
  143.1499   81.2082  223.2693 H   0  0  0  0  0  0  0  0  0  0  0  0
  140.0884   80.9464  223.0837 H   0  0  0  0  0  0  0  0  0  0  0  0
  140.9362   82.4485  222.7311 H   0  0  0  0  0  0  0  0  0  0  0  0
  140.5878   80.9353  220.7129 H   0  0  0  0  0  0  0  0  0  0  0  0
  142.3430   81.3289  221.0810 H   0  0  0  0  0  0  0  0  0  0  0  0
  141.0247   78.8336  220.8012 H   0  0  0  0  0  0  0  0  0  0  0  0
  142.8147   79.3262  221.0169 H   0  0  0  0  0  0  0  0  0  0  0  0
  138.6929   70.5197  221.8080 H   0  0  0  0  0  0  0  0  0  0  0  0
  138.4312   69.1075  223.8207 H   0  0  0  0  0  0  0  0  0  0  0  0
  138.9590   68.6881  226.0458 H   0  0  0  0  0  0  0  0  0  0  0  0
  141.6060   71.2894  228.1833 H   0  0  0  0  0  0  0  0  0  0  0  0
  141.8674   72.7075  226.1651 H   0  0  0  0  0  0  0  0  0  0  0  0
  1  2  2  0
  2  3  1  0
  3  4  1  0
  4  5  1  0
  5  6  2  0
  5  7  1  0
  7  8  1  0
  8  9  1  0
  9 10  1  0
 10 11  1  0
 11 12  1  0
 12 13  1  0
 13 14  1  0
 14 15  1  0
 15 16  1  0
 16 17  1  0
 17 18  1  0
  2 19  1  0
 19 20  2  0
 20 21  1  0
 21 22  2  0
 22 23  1  0
 23 24  2  0
 24 25  1  0
 24 26  1  0
 26 27  2  0
 27 28  1  0
 28 29  2  0
 11  7  1  0
 18 13  1  0
 29 19  1  0
 28 22  1  0
  3 30  1  0
  4 31  1  0
  4 32  1  0
  8 33  1  0
  8 34  1  0
  9 35  1  0
  9 36  1  0
 10 37  1  0
 10 38  1  0
 11 39  1  6
 12 40  1  0
 12 41  1  0
 14 42  1  0
 14 43  1  0
 15 44  1  0
 15 45  1  0
 16 46  1  0
 16 47  1  0
 17 48  1  0
 17 49  1  0
 18 50  1  0
 18 51  1  0
 20 52  1  0
 21 53  1  0
 23 54  1  0
 26 55  1  0
 27 56  1  0
M  END
>  <smiles>  (34) 
O=C(NCC(=O)N1CCC[C@H]1CN1CCCCC1)c1ccc2cc(Cl)ccc2n1

>  <score_type>  (34) 
oracle

>  <origin>  (34) 
autodockgpu

>  <m_score__min__energy>  (34) 
-8.3900000000000006

>  <m_primary>  (34) 
energy

>  <rmsd>  (34) 
2.9257751954631632

>  <m_score__min__rmsd>  (34) 
2.9257751954631632

>  <meeko>  (34) 
{"free_energy": -7.54, "intermolecular_energy": -9.33, "internal_energy": -2.0, "cluster_size": 27, "cluster_id": 2, "rank_in_cluster": 23}

>  <energy>  (34) 
-7.54

>  <cluster_rmsd>  (34) 
1.55

>  <cluster>  (34) 
2

$$$$

     RDKit          3D

 56 59  0  0  0  0  0  0  0  0999 V2000
  140.3360   72.3060  220.7860 O   0  0  0  0  0  0  0  0  0  0  0  0
  140.0090   72.7340  221.9470 C   0  0  0  0  0  0  0  0  0  0  0  0
  139.6160   74.0860  222.1640 N   0  0  0  0  0  0  0  0  0  0  0  0
  139.5430   75.0450  221.1390 C   0  0  0  0  0  0  0  0  0  0  0  0
  140.4050   76.2170  221.1480 C   0  0  0  0  0  0  0  0  0  0  0  0
  140.5210   76.7810  222.3190 O   0  0  0  0  0  0  0  0  0  0  0  0
  141.1030   76.7840  220.0320 N   0  0  0  0  0  0  0  0  0  0  0  0
  141.3690   76.2540  218.7310 C   0  0  0  0  0  0  0  0  0  0  0  0
  141.5250   77.5280  217.8780 C   0  0  0  0  0  0  0  0  0  0  0  0
  142.4110   78.3350  218.8220 C   0  0  0  0  0  0  0  0  0  0  0  0
  141.6840   78.1440  220.1550 C   0  0  1  0  0  0  0  0  0  0  0  0
  140.5560   79.1480  220.2640 C   0  0  0  0  0  0  0  0  0  0  0  0
  140.8160   79.9690  221.4240 N   0  0  0  0  0  0  0  0  0  0  0  0
  142.1630   80.1680  221.7600 C   0  0  0  0  0  0  0  0  0  0  0  0
  142.5210   80.1810  223.2100 C   0  0  0  0  0  0  0  0  0  0  0  0
  141.7840   79.0350  223.8770 C   0  0  0  0  0  0  0  0  0  0  0  0
  140.3220   79.4310  223.8020 C   0  0  0  0  0  0  0  0  0  0  0  0
  139.8630   79.8450  222.4570 C   0  0  0  0  0  0  0  0  0  0  0  0
  140.0430   71.8000  223.0720 C   0  0  0  0  0  0  0  0  0  0  0  0
  139.5660   70.5150  222.9300 C   0  0  0  0  0  0  0  0  0  0  0  0
  139.5690   69.5860  223.9460 C   0  0  0  0  0  0  0  0  0  0  0  0
  140.0840   69.9920  225.1600 C   0  0  0  0  0  0  0  0  0  0  0  0
  140.0880   69.0640  226.1770 C   0  0  0  0  0  0  0  0  0  0  0  0
  140.5890   69.4110  227.4130 C   0  0  0  0  0  0  0  0  0  0  0  0
  140.6000   68.2290  228.7240 Cl  0  0  0  0  0  0  0  0  0  0  0  0
  141.0750   70.6890  227.5870 C   0  0  0  0  0  0  0  0  0  0  0  0
  141.0660   71.6220  226.5480 C   0  0  0  0  0  0  0  0  0  0  0  0
  140.5650   71.2790  225.3110 C   0  0  0  0  0  0  0  0  0  0  0  0
  140.5450   72.1690  224.2860 N   0  0  0  0  0  0  0  0  0  0  0  0
  139.3740   74.3440  223.1570 H   0  0  0  0  0  0  0  0  0  0  0  0
  139.7474   74.5134  220.1979 H   0  0  0  0  0  0  0  0  0  0  0  0
  138.5426   75.4788  221.2837 H   0  0  0  0  0  0  0  0  0  0  0  0
  142.2927   75.6567  218.7262 H   0  0  0  0  0  0  0  0  0  0  0  0
  140.5851   75.5745  218.3654 H   0  0  0  0  0  0  0  0  0  0  0  0
  142.0220   77.3242  216.9181 H   0  0  0  0  0  0  0  0  0  0  0  0
  140.5860   78.0149  217.5759 H   0  0  0  0  0  0  0  0  0  0  0  0
  143.4330   77.9299  218.8594 H   0  0  0  0  0  0  0  0  0  0  0  0
  142.5414   79.3868  218.5274 H   0  0  0  0  0  0  0  0  0  0  0  0
  142.3396   78.2713  221.0291 H   0  0  0  0  0  0  0  0  0  0  0  0
  140.5222   79.7745  219.3605 H   0  0  0  0  0  0  0  0  0  0  0  0
  139.5882   78.6343  220.3619 H   0  0  0  0  0  0  0  0  0  0  0  0
  142.7427   79.3625  221.2854 H   0  0  0  0  0  0  0  0  0  0  0  0
  142.3907   81.1849  221.4077 H   0  0  0  0  0  0  0  0  0  0  0  0
  143.6064   80.0483  223.3292 H   0  0  0  0  0  0  0  0  0  0  0  0
  142.2378   81.1400  223.6683 H   0  0  0  0  0  0  0  0  0  0  0  0
  141.9600   78.0927  223.3375 H   0  0  0  0  0  0  0  0  0  0  0  0
  142.1198   78.8662  224.9108 H   0  0  0  0  0  0  0  0  0  0  0  0
  139.7166   78.5697  224.1209 H   0  0  0  0  0  0  0  0  0  0  0  0
  140.2031   80.3081  224.4552 H   0  0  0  0  0  0  0  0  0  0  0  0
  139.1211   79.1035  222.1257 H   0  0  0  0  0  0  0  0  0  0  0  0
  139.4945   80.8708  222.6047 H   0  0  0  0  0  0  0  0  0  0  0  0
  139.1610   70.2154  221.9521 H   0  0  0  0  0  0  0  0  0  0  0  0
  139.1793   68.5682  223.7970 H   0  0  0  0  0  0  0  0  0  0  0  0
  139.6937   68.0518  226.0040 H   0  0  0  0  0  0  0  0  0  0  0  0
  141.4795   70.9809  228.5674 H   0  0  0  0  0  0  0  0  0  0  0  0
  141.4604   72.6347  226.7177 H   0  0  0  0  0  0  0  0  0  0  0  0
  1  2  2  0
  2  3  1  0
  3  4  1  0
  4  5  1  0
  5  6  2  0
  5  7  1  0
  7  8  1  0
  8  9  1  0
  9 10  1  0
 10 11  1  0
 11 12  1  0
 12 13  1  0
 13 14  1  0
 14 15  1  0
 15 16  1  0
 16 17  1  0
 17 18  1  0
  2 19  1  0
 19 20  2  0
 20 21  1  0
 21 22  2  0
 22 23  1  0
 23 24  2  0
 24 25  1  0
 24 26  1  0
 26 27  2  0
 27 28  1  0
 28 29  2  0
 11  7  1  0
 18 13  1  0
 29 19  1  0
 28 22  1  0
  3 30  1  0
  4 31  1  0
  4 32  1  0
  8 33  1  0
  8 34  1  0
  9 35  1  0
  9 36  1  0
 10 37  1  0
 10 38  1  0
 11 39  1  1
 12 40  1  0
 12 41  1  0
 14 42  1  0
 14 43  1  0
 15 44  1  0
 15 45  1  0
 16 46  1  0
 16 47  1  0
 17 48  1  0
 17 49  1  0
 18 50  1  0
 18 51  1  0
 20 52  1  0
 21 53  1  0
 23 54  1  0
 26 55  1  0
 27 56  1  0
M  END
>  <smiles>  (35) 
O=C(NCC(=O)N1CCC[C@H]1CN1CCCCC1)c1ccc2cc(Cl)ccc2n1

>  <score_type>  (35) 
oracle

>  <origin>  (35) 
autodockgpu

>  <m_score__min__energy>  (35) 
-8.3900000000000006

>  <m_primary>  (35) 
energy

>  <rmsd>  (35) 
2.3490209256061854

>  <m_score__min__rmsd>  (35) 
2.3490209256061854

>  <meeko>  (35) 
{"free_energy": -8.25, "intermolecular_energy": -10.04, "internal_energy": -1.74, "cluster_size": 27, "cluster_id": 2, "rank_in_cluster": 1}

>  <energy>  (35) 
-7.54

>  <cluster_rmsd>  (35) 
1.47

>  <cluster>  (35) 
2

$$$$

     RDKit          3D

 56 59  0  0  0  0  0  0  0  0999 V2000
  133.9540   69.3020  226.4880 O   0  0  0  0  0  0  0  0  0  0  0  0
  134.3360   70.4060  225.9670 C   0  0  0  0  0  0  0  0  0  0  0  0
  135.3760   70.4560  224.9950 N   0  0  0  0  0  0  0  0  0  0  0  0
  136.0500   69.3180  224.5230 C   0  0  0  0  0  0  0  0  0  0  0  0
  137.4940   69.3230  224.3450 C   0  0  0  0  0  0  0  0  0  0  0  0
  138.1250   68.4740  225.1090 O   0  0  0  0  0  0  0  0  0  0  0  0
  138.2500   70.1440  223.4460 N   0  0  0  0  0  0  0  0  0  0  0  0
  137.8730   70.7830  222.2250 C   0  0  0  0  0  0  0  0  0  0  0  0
  138.8560   71.9680  222.1510 C   0  0  0  0  0  0  0  0  0  0  0  0
  140.1380   71.2320  222.5320 C   0  0  0  0  0  0  0  0  0  0  0  0
  139.6740   70.4320  223.7520 C   0  0  1  0  0  0  0  0  0  0  0  0
  139.7410   71.3070  224.9860 C   0  0  0  0  0  0  0  0  0  0  0  0
  140.7390   70.7410  225.8640 N   0  0  0  0  0  0  0  0  0  0  0  0
  140.7640   69.3420  225.9620 C   0  0  0  0  0  0  0  0  0  0  0  0
  141.0350   68.7460  227.3050 C   0  0  0  0  0  0  0  0  0  0  0  0
  140.2150   69.5150  228.3240 C   0  0  0  0  0  0  0  0  0  0  0  0
  140.8370   70.8980  228.3440 C   0  0  0  0  0  0  0  0  0  0  0  0
  141.0180   71.5130  227.0110 C   0  0  0  0  0  0  0  0  0  0  0  0
  133.6780   71.6430  226.3900 C   0  0  0  0  0  0  0  0  0  0  0  0
  132.5070   71.6010  227.1140 C   0  0  0  0  0  0  0  0  0  0  0  0
  131.8380   72.7260  227.5430 C   0  0  0  0  0  0  0  0  0  0  0  0
  132.3960   73.9450  227.2170 C   0  0  0  0  0  0  0  0  0  0  0  0
  131.7280   75.0700  227.6460 C   0  0  0  0  0  0  0  0  0  0  0  0
  132.2360   76.3160  227.3500 C   0  0  0  0  0  0  0  0  0  0  0  0
  131.3880   77.7660  227.8960 Cl  0  0  0  0  0  0  0  0  0  0  0  0
  133.4070   76.3910  226.6280 C   0  0  0  0  0  0  0  0  0  0  0  0
  134.0750   75.2440  226.1980 C   0  0  0  0  0  0  0  0  0  0  0  0
  133.5710   73.9960  226.4920 C   0  0  0  0  0  0  0  0  0  0  0  0
  134.2030   72.8660  226.0840 N   0  0  0  0  0  0  0  0  0  0  0  0
  135.6250   71.4150  224.6320 H   0  0  0  0  0  0  0  0  0  0  0  0
  135.8247   68.5055  225.2294 H   0  0  0  0  0  0  0  0  0  0  0  0
  135.6792   69.2274  223.4914 H   0  0  0  0  0  0  0  0  0  0  0  0
  138.0002   70.1068  221.3667 H   0  0  0  0  0  0  0  0  0  0  0  0
  136.8164   71.0875  222.1976 H   0  0  0  0  0  0  0  0  0  0  0  0
  138.9107   72.3971  221.1396 H   0  0  0  0  0  0  0  0  0  0  0  0
  138.6022   72.8356  222.7777 H   0  0  0  0  0  0  0  0  0  0  0  0
  140.4780   70.5700  221.7220 H   0  0  0  0  0  0  0  0  0  0  0  0
  140.9957   71.8927  222.7264 H   0  0  0  0  0  0  0  0  0  0  0  0
  140.2805   69.5334  223.9384 H   0  0  0  0  0  0  0  0  0  0  0  0
  140.0252   72.3318  224.7051 H   0  0  0  0  0  0  0  0  0  0  0  0
  138.7622   71.3480  225.4863 H   0  0  0  0  0  0  0  0  0  0  0  0
  139.7830   68.9715  225.6297 H   0  0  0  0  0  0  0  0  0  0  0  0
  141.6197   69.0345  225.3429 H   0  0  0  0  0  0  0  0  0  0  0  0
  140.7415   67.6859  227.3107 H   0  0  0  0  0  0  0  0  0  0  0  0
  142.1065   68.8088  227.5457 H   0  0  0  0  0  0  0  0  0  0  0  0
  139.1605   69.5671  228.0154 H   0  0  0  0  0  0  0  0  0  0  0  0
  140.2235   69.0375  229.3149 H   0  0  0  0  0  0  0  0  0  0  0  0
  140.1886   71.5568  228.9403 H   0  0  0  0  0  0  0  0  0  0  0  0
  141.8437   70.7800  228.7713 H   0  0  0  0  0  0  0  0  0  0  0  0
  140.3659   72.3980  226.9718 H   0  0  0  0  0  0  0  0  0  0  0  0
  142.1001   71.7009  226.9490 H   0  0  0  0  0  0  0  0  0  0  0  0
  132.0836   70.6167  227.3628 H   0  0  0  0  0  0  0  0  0  0  0  0
  130.9031   72.6559  228.1183 H   0  0  0  0  0  0  0  0  0  0  0  0
  130.7952   74.9746  228.2211 H   0  0  0  0  0  0  0  0  0  0  0  0
  133.8253   77.3788  226.3847 H   0  0  0  0  0  0  0  0  0  0  0  0
  135.0076   75.3365  225.6221 H   0  0  0  0  0  0  0  0  0  0  0  0
  1  2  2  0
  2  3  1  0
  3  4  1  0
  4  5  1  0
  5  6  2  0
  5  7  1  0
  7  8  1  0
  8  9  1  0
  9 10  1  0
 10 11  1  0
 11 12  1  0
 12 13  1  0
 13 14  1  0
 14 15  1  0
 15 16  1  0
 16 17  1  0
 17 18  1  0
  2 19  1  0
 19 20  2  0
 20 21  1  0
 21 22  2  0
 22 23  1  0
 23 24  2  0
 24 25  1  0
 24 26  1  0
 26 27  2  0
 27 28  1  0
 28 29  2  0
 11  7  1  0
 18 13  1  0
 29 19  1  0
 28 22  1  0
  3 30  1  0
  4 31  1  0
  4 32  1  0
  8 33  1  0
  8 34  1  0
  9 35  1  0
  9 36  1  0
 10 37  1  0
 10 38  1  0
 11 39  1  1
 12 40  1  0
 12 41  1  0
 14 42  1  0
 14 43  1  0
 15 44  1  0
 15 45  1  0
 16 46  1  0
 16 47  1  0
 17 48  1  0
 17 49  1  0
 18 50  1  0
 18 51  1  0
 20 52  1  0
 21 53  1  0
 23 54  1  0
 26 55  1  0
 27 56  1  0
M  END
>  <smiles>  (36) 
O=C(NCC(=O)N1CCC[C@H]1CN1CCCCC1)c1ccc2cc(Cl)ccc2n1

>  <score_type>  (36) 
oracle

>  <origin>  (36) 
autodockgpu

>  <m_score__min__energy>  (36) 
-8.3900000000000006

>  <m_primary>  (36) 
energy

>  <rmsd>  (36) 
8.91028098359342

>  <m_score__min__rmsd>  (36) 
8.91028098359342

>  <meeko>  (36) 
{"free_energy": -8.39, "intermolecular_energy": -10.18, "internal_energy": -1.73, "cluster_size": 12, "cluster_id": 1, "rank_in_cluster": 1}

>  <energy>  (36) 
-7.53

>  <cluster_rmsd>  (36) 
1.5

>  <cluster>  (36) 
2

$$$$

     RDKit          3D

 56 59  0  0  0  0  0  0  0  0999 V2000
  140.4020   72.3580  220.7420 O   0  0  0  0  0  0  0  0  0  0  0  0
  140.1120   72.8100  221.9030 C   0  0  0  0  0  0  0  0  0  0  0  0
  139.7920   74.1820  222.1150 N   0  0  0  0  0  0  0  0  0  0  0  0
  139.7560   75.1360  221.0840 C   0  0  0  0  0  0  0  0  0  0  0  0
  140.9620   75.4970  220.3550 C   0  0  0  0  0  0  0  0  0  0  0  0
  141.9530   74.6650  220.5250 O   0  0  0  0  0  0  0  0  0  0  0  0
  141.1500   76.6360  219.5060 N   0  0  0  0  0  0  0  0  0  0  0  0
  140.6770   76.9020  218.1830 C   0  0  0  0  0  0  0  0  0  0  0  0
  140.6470   78.4430  218.1440 C   0  0  0  0  0  0  0  0  0  0  0  0
  142.0020   78.7200  218.7890 C   0  0  0  0  0  0  0  0  0  0  0  0
  141.9580   77.7800  219.9970 C   0  0  1  0  0  0  0  0  0  0  0  0
  141.2150   78.4510  221.1330 C   0  0  0  0  0  0  0  0  0  0  0  0
  142.0500   79.5230  221.6230 N   0  0  0  0  0  0  0  0  0  0  0  0
  142.6180   79.3430  222.8920 C   0  0  0  0  0  0  0  0  0  0  0  0
  142.7010   80.5350  223.7890 C   0  0  0  0  0  0  0  0  0  0  0  0
  141.3780   81.2720  223.7010 C   0  0  0  0  0  0  0  0  0  0  0  0
  141.3410   81.8140  222.2850 C   0  0  0  0  0  0  0  0  0  0  0  0
  141.6370   80.8150  221.2340 C   0  0  0  0  0  0  0  0  0  0  0  0
  140.1120   71.8830  223.0350 C   0  0  0  0  0  0  0  0  0  0  0  0
  139.6020   70.6100  222.8960 C   0  0  0  0  0  0  0  0  0  0  0  0
  139.5720   69.6880  223.9190 C   0  0  0  0  0  0  0  0  0  0  0  0
  140.0890   70.0880  225.1340 C   0  0  0  0  0  0  0  0  0  0  0  0
  140.0590   69.1670  226.1570 C   0  0  0  0  0  0  0  0  0  0  0  0
  140.5600   69.5090  227.3940 C   0  0  0  0  0  0  0  0  0  0  0  0
  140.5290   68.3360  228.7130 Cl  0  0  0  0  0  0  0  0  0  0  0  0
  141.0780   70.7740  227.5640 C   0  0  0  0  0  0  0  0  0  0  0  0
  141.1030   71.7000  226.5190 C   0  0  0  0  0  0  0  0  0  0  0  0
  140.6030   71.3620  225.2810 C   0  0  0  0  0  0  0  0  0  0  0  0
  140.6150   72.2460  224.2500 N   0  0  0  0  0  0  0  0  0  0  0  0
  139.5760   74.4590  223.1090 H   0  0  0  0  0  0  0  0  0  0  0  0
  139.0392   74.7630  220.3376 H   0  0  0  0  0  0  0  0  0  0  0  0
  139.5113   76.0640  221.6215 H   0  0  0  0  0  0  0  0  0  0  0  0
  141.3654   76.4983  217.4259 H   0  0  0  0  0  0  0  0  0  0  0  0
  139.7040   76.4384  217.9633 H   0  0  0  0  0  0  0  0  0  0  0  0
  140.5923   78.8293  217.1155 H   0  0  0  0  0  0  0  0  0  0  0  0
  139.7824   78.9136  218.6350 H   0  0  0  0  0  0  0  0  0  0  0  0
  142.8301   78.4657  218.1110 H   0  0  0  0  0  0  0  0  0  0  0  0
  142.1706   79.7761  219.0463 H   0  0  0  0  0  0  0  0  0  0  0  0
  142.9557   77.4963  220.3633 H   0  0  0  0  0  0  0  0  0  0  0  0
  140.2588   78.8555  220.7696 H   0  0  0  0  0  0  0  0  0  0  0  0
  140.9992   77.7297  221.9350 H   0  0  0  0  0  0  0  0  0  0  0  0
  142.0222   78.5796  223.4138 H   0  0  0  0  0  0  0  0  0  0  0  0
  143.6649   79.0703  222.6929 H   0  0  0  0  0  0  0  0  0  0  0  0
  142.8818   80.2123  224.8249 H   0  0  0  0  0  0  0  0  0  0  0  0
  143.5286   81.1913  223.4817 H   0  0  0  0  0  0  0  0  0  0  0  0
  140.5373   80.5848  223.8767 H   0  0  0  0  0  0  0  0  0  0  0  0
  141.2900   82.0668  224.4564 H   0  0  0  0  0  0  0  0  0  0  0  0
  140.3355   82.2195  222.0992 H   0  0  0  0  0  0  0  0  0  0  0  0
  142.1323   82.5755  222.2224 H   0  0  0  0  0  0  0  0  0  0  0  0
  140.7226   80.6956  220.6344 H   0  0  0  0  0  0  0  0  0  0  0  0
  142.5122   81.2288  220.7117 H   0  0  0  0  0  0  0  0  0  0  0  0
  139.1977   70.3148  221.9165 H   0  0  0  0  0  0  0  0  0  0  0  0
  139.1555   68.6803  223.7740 H   0  0  0  0  0  0  0  0  0  0  0  0
  139.6379   68.1650  225.9878 H   0  0  0  0  0  0  0  0  0  0  0  0
  141.4815   71.0616  228.5461 H   0  0  0  0  0  0  0  0  0  0  0  0
  141.5235   72.7028  226.6852 H   0  0  0  0  0  0  0  0  0  0  0  0
  1  2  2  0
  2  3  1  0
  3  4  1  0
  4  5  1  0
  5  6  2  0
  5  7  1  0
  7  8  1  0
  8  9  1  0
  9 10  1  0
 10 11  1  0
 11 12  1  0
 12 13  1  0
 13 14  1  0
 14 15  1  0
 15 16  1  0
 16 17  1  0
 17 18  1  0
  2 19  1  0
 19 20  2  0
 20 21  1  0
 21 22  2  0
 22 23  1  0
 23 24  2  0
 24 25  1  0
 24 26  1  0
 26 27  2  0
 27 28  1  0
 28 29  2  0
 11  7  1  0
 18 13  1  0
 29 19  1  0
 28 22  1  0
  3 30  1  0
  4 31  1  0
  4 32  1  0
  8 33  1  0
  8 34  1  0
  9 35  1  0
  9 36  1  0
 10 37  1  0
 10 38  1  0
 11 39  1  1
 12 40  1  0
 12 41  1  0
 14 42  1  0
 14 43  1  0
 15 44  1  0
 15 45  1  0
 16 46  1  0
 16 47  1  0
 17 48  1  0
 17 49  1  0
 18 50  1  0
 18 51  1  0
 20 52  1  0
 21 53  1  0
 23 54  1  0
 26 55  1  0
 27 56  1  0
M  END
>  <smiles>  (37) 
O=C(NCC(=O)N1CCC[C@H]1CN1CCCCC1)c1ccc2cc(Cl)ccc2n1

>  <score_type>  (37) 
oracle

>  <origin>  (37) 
autodockgpu

>  <m_score__min__energy>  (37) 
-8.3900000000000006

>  <m_primary>  (37) 
energy

>  <rmsd>  (37) 
2.064854462064184

>  <m_score__min__rmsd>  (37) 
2.064854462064184

>  <meeko>  (37) 
{"free_energy": -8.1, "intermolecular_energy": -9.89, "internal_energy": -1.31, "cluster_size": 27, "cluster_id": 2, "rank_in_cluster": 6}

>  <energy>  (37) 
-7.46

>  <cluster_rmsd>  (37) 
1.09

>  <cluster>  (37) 
2

$$$$

     RDKit          3D

 56 59  0  0  0  0  0  0  0  0999 V2000
  141.1850   73.5670  221.0180 O   0  0  0  0  0  0  0  0  0  0  0  0
  140.3650   74.3860  221.5600 C   0  0  0  0  0  0  0  0  0  0  0  0
  139.1770   73.9380  222.2060 N   0  0  0  0  0  0  0  0  0  0  0  0
  138.8160   72.5850  222.3130 C   0  0  0  0  0  0  0  0  0  0  0  0
  139.4560   71.7130  223.2860 C   0  0  0  0  0  0  0  0  0  0  0  0
  140.5190   72.2290  223.8410 O   0  0  0  0  0  0  0  0  0  0  0  0
  139.0420   70.3960  223.6700 N   0  0  0  0  0  0  0  0  0  0  0  0
  138.3540   69.3820  222.9320 C   0  0  0  0  0  0  0  0  0  0  0  0
  138.8130   68.0900  223.6350 C   0  0  0  0  0  0  0  0  0  0  0  0
  138.6570   68.5430  225.0840 C   0  0  0  0  0  0  0  0  0  0  0  0
  139.3320   69.9160  225.0440 C   0  0  1  0  0  0  0  0  0  0  0  0
  140.8290   69.7490  225.1980 C   0  0  0  0  0  0  0  0  0  0  0  0
  141.1290   69.8100  226.6090 N   0  0  0  0  0  0  0  0  0  0  0  0
  140.8720   68.6510  227.3550 C   0  0  0  0  0  0  0  0  0  0  0  0
  140.3170   68.8210  228.7310 C   0  0  0  0  0  0  0  0  0  0  0  0
  139.2310   69.8780  228.6630 C   0  0  0  0  0  0  0  0  0  0  0  0
  139.9730   71.1630  228.3470 C   0  0  0  0  0  0  0  0  0  0  0  0
  140.9070   71.0700  227.2030 C   0  0  0  0  0  0  0  0  0  0  0  0
  140.6670   75.8160  221.5090 C   0  0  0  0  0  0  0  0  0  0  0  0
  141.5300   76.3160  220.5580 C   0  0  0  0  0  0  0  0  0  0  0  0
  141.8560   77.6500  220.4530 C   0  0  0  0  0  0  0  0  0  0  0  0
  141.2720   78.5070  221.3630 C   0  0  0  0  0  0  0  0  0  0  0  0
  141.5980   79.8410  221.2600 C   0  0  0  0  0  0  0  0  0  0  0  0
  141.0470   80.7460  222.1410 C   0  0  0  0  0  0  0  0  0  0  0  0
  141.4570   82.4580  222.0180 Cl  0  0  0  0  0  0  0  0  0  0  0  0
  140.1800   80.2770  223.1040 C   0  0  0  0  0  0  0  0  0  0  0  0
  139.8570   78.9230  223.1990 C   0  0  0  0  0  0  0  0  0  0  0  0
  140.4060   78.0140  222.3200 C   0  0  0  0  0  0  0  0  0  0  0  0
  140.1070   76.6920  222.3940 N   0  0  0  0  0  0  0  0  0  0  0  0
  138.5610   74.6900  222.6150 H   0  0  0  0  0  0  0  0  0  0  0  0
  137.7391   72.5655  222.5364 H   0  0  0  0  0  0  0  0  0  0  0  0
  139.1560   72.1675  221.3538 H   0  0  0  0  0  0  0  0  0  0  0  0
  137.2637   69.5082  223.0042 H   0  0  0  0  0  0  0  0  0  0  0  0
  138.5745   69.3975  221.8544 H   0  0  0  0  0  0  0  0  0  0  0  0
  138.1616   67.2363  223.3967 H   0  0  0  0  0  0  0  0  0  0  0  0
  139.8135   67.7278  223.3561 H   0  0  0  0  0  0  0  0  0  0  0  0
  137.5976   68.6234  225.3688 H   0  0  0  0  0  0  0  0  0  0  0  0
  139.0889   67.8503  225.8213 H   0  0  0  0  0  0  0  0  0  0  0  0
  138.9825   70.5947  225.8359 H   0  0  0  0  0  0  0  0  0  0  0  0
  141.1427   68.7773  224.7889 H   0  0  0  0  0  0  0  0  0  0  0  0
  141.3654   70.5398  224.6531 H   0  0  0  0  0  0  0  0  0  0  0  0
  140.1538   68.0448  226.7835 H   0  0  0  0  0  0  0  0  0  0  0  0
  141.8606   68.1935  227.5081 H   0  0  0  0  0  0  0  0  0  0  0  0
  139.8923   67.8696  229.0838 H   0  0  0  0  0  0  0  0  0  0  0  0
  141.1088   69.1266  229.4307 H   0  0  0  0  0  0  0  0  0  0  0  0
  138.5070   69.6415  227.8693 H   0  0  0  0  0  0  0  0  0  0  0  0
  138.6539   69.9463  229.5970 H   0  0  0  0  0  0  0  0  0  0  0  0
  139.2297   71.9416  228.1205 H   0  0  0  0  0  0  0  0  0  0  0  0
  140.5852   71.3948  229.2310 H   0  0  0  0  0  0  0  0  0  0  0  0
  140.5220   71.7353  226.4161 H   0  0  0  0  0  0  0  0  0  0  0  0
  141.8833   71.3373  227.6336 H   0  0  0  0  0  0  0  0  0  0  0  0
  141.9828   75.6118  219.8444 H   0  0  0  0  0  0  0  0  0  0  0  0
  142.5489   78.0148  219.6805 H   0  0  0  0  0  0  0  0  0  0  0  0
  142.2939   80.1820  220.4793 H   0  0  0  0  0  0  0  0  0  0  0  0
  139.7319   80.9870  223.8147 H   0  0  0  0  0  0  0  0  0  0  0  0
  139.1613   78.5794  223.9787 H   0  0  0  0  0  0  0  0  0  0  0  0
  1  2  2  0
  2  3  1  0
  3  4  1  0
  4  5  1  0
  5  6  2  0
  5  7  1  0
  7  8  1  0
  8  9  1  0
  9 10  1  0
 10 11  1  0
 11 12  1  0
 12 13  1  0
 13 14  1  0
 14 15  1  0
 15 16  1  0
 16 17  1  0
 17 18  1  0
  2 19  1  0
 19 20  2  0
 20 21  1  0
 21 22  2  0
 22 23  1  0
 23 24  2  0
 24 25  1  0
 24 26  1  0
 26 27  2  0
 27 28  1  0
 28 29  2  0
 11  7  1  0
 18 13  1  0
 29 19  1  0
 28 22  1  0
  3 30  1  0
  4 31  1  0
  4 32  1  0
  8 33  1  0
  8 34  1  0
  9 35  1  0
  9 36  1  0
 10 37  1  0
 10 38  1  0
 11 39  1  1
 12 40  1  0
 12 41  1  0
 14 42  1  0
 14 43  1  0
 15 44  1  0
 15 45  1  0
 16 46  1  0
 16 47  1  0
 17 48  1  0
 17 49  1  0
 18 50  1  0
 18 51  1  0
 20 52  1  0
 21 53  1  0
 23 54  1  0
 26 55  1  0
 27 56  1  0
M  END
>  <smiles>  (38) 
O=C(NCC(=O)N1CCC[C@H]1CN1CCCCC1)c1ccc2cc(Cl)ccc2n1

>  <score_type>  (38) 
oracle

>  <origin>  (38) 
autodockgpu

>  <m_score__min__energy>  (38) 
-8.3900000000000006

>  <m_primary>  (38) 
energy

>  <rmsd>  (38) 
9.637878949942348

>  <m_score__min__rmsd>  (38) 
9.637878949942348

>  <meeko>  (38) 
{"free_energy": -8.09, "intermolecular_energy": -9.88, "internal_energy": -1.58, "cluster_size": 4, "cluster_id": 3, "rank_in_cluster": 3}

>  <energy>  (38) 
-7.43

>  <cluster_rmsd>  (38) 
1.51

>  <cluster>  (38) 
2

$$$$

     RDKit          3D

 56 59  0  0  0  0  0  0  0  0999 V2000
  133.8510   69.2890  226.4700 O   0  0  0  0  0  0  0  0  0  0  0  0
  134.3580   70.3910  226.0640 C   0  0  0  0  0  0  0  0  0  0  0  0
  135.5270   70.4240  225.2500 N   0  0  0  0  0  0  0  0  0  0  0  0
  136.2040   69.2700  224.8210 C   0  0  0  0  0  0  0  0  0  0  0  0
  137.6060   69.3230  224.4400 C   0  0  0  0  0  0  0  0  0  0  0  0
  138.3500   68.4280  225.0320 O   0  0  0  0  0  0  0  0  0  0  0  0
  138.2170   70.2320  223.5160 N   0  0  0  0  0  0  0  0  0  0  0  0
  137.6970   70.8560  222.3400 C   0  0  0  0  0  0  0  0  0  0  0  0
  138.5540   72.1330  222.2330 C   0  0  0  0  0  0  0  0  0  0  0  0
  139.9230   71.5190  222.5090 C   0  0  0  0  0  0  0  0  0  0  0  0
  139.6240   70.6530  223.7350 C   0  0  1  0  0  0  0  0  0  0  0  0
  139.6900   71.5040  224.9840 C   0  0  0  0  0  0  0  0  0  0  0  0
  140.6650   70.9050  225.8660 N   0  0  0  0  0  0  0  0  0  0  0  0
  140.8490   69.5200  225.7460 C   0  0  0  0  0  0  0  0  0  0  0  0
  141.0680   68.7390  227.0000 C   0  0  0  0  0  0  0  0  0  0  0  0
  140.0740   69.2370  228.0330 C   0  0  0  0  0  0  0  0  0  0  0  0
  140.5220   70.6540  228.3360 C   0  0  0  0  0  0  0  0  0  0  0  0
  140.7470   71.4990  227.1430 C   0  0  0  0  0  0  0  0  0  0  0  0
  133.7100   71.6440  226.4520 C   0  0  0  0  0  0  0  0  0  0  0  0
  132.5460   71.6310  227.1900 C   0  0  0  0  0  0  0  0  0  0  0  0
  131.8860   72.7720  227.5890 C   0  0  0  0  0  0  0  0  0  0  0  0
  132.4450   73.9780  227.2160 C   0  0  0  0  0  0  0  0  0  0  0  0
  131.7860   75.1190  227.6140 C   0  0  0  0  0  0  0  0  0  0  0  0
  132.2950   76.3520  227.2710 C   0  0  0  0  0  0  0  0  0  0  0  0
  131.4590   77.8230  227.7780 Cl  0  0  0  0  0  0  0  0  0  0  0  0
  133.4580   76.3990  226.5350 C   0  0  0  0  0  0  0  0  0  0  0  0
  134.1180   75.2350  226.1370 C   0  0  0  0  0  0  0  0  0  0  0  0
  133.6120   73.9990  226.4770 C   0  0  0  0  0  0  0  0  0  0  0  0
  134.2350   72.8540  226.1000 N   0  0  0  0  0  0  0  0  0  0  0  0
  135.8730   71.3810  224.9750 H   0  0  0  0  0  0  0  0  0  0  0  0
  136.1301   68.5408  225.6413 H   0  0  0  0  0  0  0  0  0  0  0  0
  135.7034   69.0351  223.8701 H   0  0  0  0  0  0  0  0  0  0  0  0
  137.8295   70.2132  221.4572 H   0  0  0  0  0  0  0  0  0  0  0  0
  136.6166   71.0560  222.3910 H   0  0  0  0  0  0  0  0  0  0  0  0
  138.4982   72.5855  221.2320 H   0  0  0  0  0  0  0  0  0  0  0  0
  138.2610   72.9589  222.8979 H   0  0  0  0  0  0  0  0  0  0  0  0
  140.2692   70.9099  221.6609 H   0  0  0  0  0  0  0  0  0  0  0  0
  140.7238   72.2570  222.6642 H   0  0  0  0  0  0  0  0  0  0  0  0
  140.3265   69.8154  223.8569 H   0  0  0  0  0  0  0  0  0  0  0  0
  139.9968   72.5281  224.7250 H   0  0  0  0  0  0  0  0  0  0  0  0
  138.7052   71.5539  225.4715 H   0  0  0  0  0  0  0  0  0  0  0  0
  139.9534   69.1106  225.2558 H   0  0  0  0  0  0  0  0  0  0  0  0
  141.7874   69.4113  225.1825 H   0  0  0  0  0  0  0  0  0  0  0  0
  140.9041   67.6683  226.8080 H   0  0  0  0  0  0  0  0  0  0  0  0
  142.0984   68.8715  227.3615 H   0  0  0  0  0  0  0  0  0  0  0  0
  139.0525   69.2307  227.6249 H   0  0  0  0  0  0  0  0  0  0  0  0
  140.0511   68.6035  228.9320 H   0  0  0  0  0  0  0  0  0  0  0  0
  139.7487   71.1331  228.9544 H   0  0  0  0  0  0  0  0  0  0  0  0
  141.4932   70.5707  228.8457 H   0  0  0  0  0  0  0  0  0  0  0  0
  140.0005   72.3064  227.1729 H   0  0  0  0  0  0  0  0  0  0  0  0
  141.8002   71.8051  227.2277 H   0  0  0  0  0  0  0  0  0  0  0  0
  132.1215   70.6572  227.4756 H   0  0  0  0  0  0  0  0  0  0  0  0
  130.9575   72.7247  228.1770 H   0  0  0  0  0  0  0  0  0  0  0  0
  130.8592   75.0466  228.2020 H   0  0  0  0  0  0  0  0  0  0  0  0
  133.8767   77.3766  226.2541 H   0  0  0  0  0  0  0  0  0  0  0  0
  135.0455   75.3046  225.5497 H   0  0  0  0  0  0  0  0  0  0  0  0
  1  2  2  0
  2  3  1  0
  3  4  1  0
  4  5  1  0
  5  6  2  0
  5  7  1  0
  7  8  1  0
  8  9  1  0
  9 10  1  0
 10 11  1  0
 11 12  1  0
 12 13  1  0
 13 14  1  0
 14 15  1  0
 15 16  1  0
 16 17  1  0
 17 18  1  0
  2 19  1  0
 19 20  2  0
 20 21  1  0
 21 22  2  0
 22 23  1  0
 23 24  2  0
 24 25  1  0
 24 26  1  0
 26 27  2  0
 27 28  1  0
 28 29  2  0
 11  7  1  0
 18 13  1  0
 29 19  1  0
 28 22  1  0
  3 30  1  0
  4 31  1  0
  4 32  1  0
  8 33  1  0
  8 34  1  0
  9 35  1  0
  9 36  1  0
 10 37  1  0
 10 38  1  0
 11 39  1  1
 12 40  1  0
 12 41  1  0
 14 42  1  0
 14 43  1  0
 15 44  1  0
 15 45  1  0
 16 46  1  0
 16 47  1  0
 17 48  1  0
 17 49  1  0
 18 50  1  0
 18 51  1  0
 20 52  1  0
 21 53  1  0
 23 54  1  0
 26 55  1  0
 27 56  1  0
M  END
>  <smiles>  (39) 
O=C(NCC(=O)N1CCC[C@H]1CN1CCCCC1)c1ccc2cc(Cl)ccc2n1

>  <score_type>  (39) 
oracle

>  <origin>  (39) 
autodockgpu

>  <m_score__min__energy>  (39) 
-8.3900000000000006

>  <m_primary>  (39) 
energy

>  <rmsd>  (39) 
8.904405178312013

>  <m_score__min__rmsd>  (39) 
8.904405178312013

>  <meeko>  (39) 
{"free_energy": -8.33, "intermolecular_energy": -10.12, "internal_energy": -1.83, "cluster_size": 12, "cluster_id": 1, "rank_in_cluster": 2}

>  <energy>  (39) 
-7.43

>  <cluster_rmsd>  (39) 
1.51

>  <cluster>  (39) 
2

$$$$

     RDKit          3D

 56 59  0  0  0  0  0  0  0  0999 V2000
  141.9490   73.5370  220.6560 O   0  0  0  0  0  0  0  0  0  0  0  0
  141.1150   74.2440  221.3220 C   0  0  0  0  0  0  0  0  0  0  0  0
  140.0830   73.6480  222.1020 N   0  0  0  0  0  0  0  0  0  0  0  0
  139.9020   72.2590  222.2150 C   0  0  0  0  0  0  0  0  0  0  0  0
  139.5800   71.6480  223.4950 C   0  0  0  0  0  0  0  0  0  0  0  0
  140.4370   71.9190  224.4420 O   0  0  0  0  0  0  0  0  0  0  0  0
  138.4580   70.8080  223.7940 N   0  0  0  0  0  0  0  0  0  0  0  0
  137.1990   70.6620  223.1310 C   0  0  0  0  0  0  0  0  0  0  0  0
  136.7860   69.2280  223.5140 C   0  0  0  0  0  0  0  0  0  0  0  0
  137.1260   69.2750  225.0010 C   0  0  0  0  0  0  0  0  0  0  0  0
  138.5200   69.9060  224.9710 C   0  0  1  0  0  0  0  0  0  0  0  0
  139.5550   68.8330  224.7090 C   0  0  0  0  0  0  0  0  0  0  0  0
  140.3850   68.7340  225.8880 N   0  0  0  0  0  0  0  0  0  0  0  0
  139.8400   68.0430  226.9800 C   0  0  0  0  0  0  0  0  0  0  0  0
  140.1160   68.5790  228.3460 C   0  0  0  0  0  0  0  0  0  0  0  0
  139.9350   70.0850  228.2960 C   0  0  0  0  0  0  0  0  0  0  0  0
  141.0700   70.5730  227.4170 C   0  0  0  0  0  0  0  0  0  0  0  0
  141.2020   69.8590  226.1280 C   0  0  0  0  0  0  0  0  0  0  0  0
  141.2370   75.7010  221.2730 C   0  0  0  0  0  0  0  0  0  0  0  0
  141.7100   76.3260  220.1400 C   0  0  0  0  0  0  0  0  0  0  0  0
  141.8490   77.6920  220.0270 C   0  0  0  0  0  0  0  0  0  0  0  0
  141.4860   78.4480  221.1230 C   0  0  0  0  0  0  0  0  0  0  0  0
  141.6240   79.8130  221.0110 C   0  0  0  0  0  0  0  0  0  0  0  0
  141.2790   80.6200  222.0730 C   0  0  0  0  0  0  0  0  0  0  0  0
  141.4510   82.3720  221.9410 Cl  0  0  0  0  0  0  0  0  0  0  0  0
  140.8020   80.0250  223.2200 C   0  0  0  0  0  0  0  0  0  0  0  0
  140.6650   78.6400  223.3220 C   0  0  0  0  0  0  0  0  0  0  0  0
  141.0100   77.8280  222.2630 C   0  0  0  0  0  0  0  0  0  0  0  0
  140.8880   76.4780  222.3390 N   0  0  0  0  0  0  0  0  0  0  0  0
  139.4410   74.3150  222.6070 H   0  0  0  0  0  0  0  0  0  0  0  0
  139.0859   71.9928  221.5271 H   0  0  0  0  0  0  0  0  0  0  0  0
  140.9076   71.8658  222.0049 H   0  0  0  0  0  0  0  0  0  0  0  0
  136.4684   71.3978  223.4983 H   0  0  0  0  0  0  0  0  0  0  0  0
  137.2530   70.8279  222.0449 H   0  0  0  0  0  0  0  0  0  0  0  0
  135.7150   69.0463  223.3407 H   0  0  0  0  0  0  0  0  0  0  0  0
  137.2727   68.4250  222.9411 H   0  0  0  0  0  0  0  0  0  0  0  0
  136.4128   69.9008  225.5574 H   0  0  0  0  0  0  0  0  0  0  0  0
  137.0852   68.2972  225.5032 H   0  0  0  0  0  0  0  0  0  0  0  0
  138.7865   70.4149  225.9091 H   0  0  0  0  0  0  0  0  0  0  0  0
  139.0581   67.8705  224.5174 H   0  0  0  0  0  0  0  0  0  0  0  0
  140.1621   69.0868  223.8276 H   0  0  0  0  0  0  0  0  0  0  0  0
  138.7481   68.0270  226.8474 H   0  0  0  0  0  0  0  0  0  0  0  0
  140.3324   67.0595  226.9616 H   0  0  0  0  0  0  0  0  0  0  0  0
  139.4127   68.1410  229.0695 H   0  0  0  0  0  0  0  0  0  0  0  0
  141.1388   68.3241  228.6605 H   0  0  0  0  0  0  0  0  0  0  0  0
  138.9616   70.3455  227.8549 H   0  0  0  0  0  0  0  0  0  0  0  0
  139.9531   70.5426  229.2961 H   0  0  0  0  0  0  0  0  0  0  0  0
  140.9042   71.6392  227.2031 H   0  0  0  0  0  0  0  0  0  0  0  0
  141.9992   70.3839  227.9745 H   0  0  0  0  0  0  0  0  0  0  0  0
  140.9910   70.5878  225.3315 H   0  0  0  0  0  0  0  0  0  0  0  0
  142.2215   69.4468  226.1551 H   0  0  0  0  0  0  0  0  0  0  0  0
  141.9917   75.7010  219.2797 H   0  0  0  0  0  0  0  0  0  0  0  0
  142.2312   78.1580  219.1068 H   0  0  0  0  0  0  0  0  0  0  0  0
  142.0071   80.2564  220.0800 H   0  0  0  0  0  0  0  0  0  0  0  0
  140.5224   80.6566  224.0761 H   0  0  0  0  0  0  0  0  0  0  0  0
  140.2801   78.1945  224.2512 H   0  0  0  0  0  0  0  0  0  0  0  0
  1  2  2  0
  2  3  1  0
  3  4  1  0
  4  5  1  0
  5  6  2  0
  5  7  1  0
  7  8  1  0
  8  9  1  0
  9 10  1  0
 10 11  1  0
 11 12  1  0
 12 13  1  0
 13 14  1  0
 14 15  1  0
 15 16  1  0
 16 17  1  0
 17 18  1  0
  2 19  1  0
 19 20  2  0
 20 21  1  0
 21 22  2  0
 22 23  1  0
 23 24  2  0
 24 25  1  0
 24 26  1  0
 26 27  2  0
 27 28  1  0
 28 29  2  0
 11  7  1  0
 18 13  1  0
 29 19  1  0
 28 22  1  0
  3 30  1  0
  4 31  1  0
  4 32  1  0
  8 33  1  0
  8 34  1  0
  9 35  1  0
  9 36  1  0
 10 37  1  0
 10 38  1  0
 11 39  1  1
 12 40  1  0
 12 41  1  0
 14 42  1  0
 14 43  1  0
 15 44  1  0
 15 45  1  0
 16 46  1  0
 16 47  1  0
 17 48  1  0
 17 49  1  0
 18 50  1  0
 18 51  1  0
 20 52  1  0
 21 53  1  0
 23 54  1  0
 26 55  1  0
 27 56  1  0
M  END
>  <smiles>  (40) 
O=C(NCC(=O)N1CCC[C@H]1CN1CCCCC1)c1ccc2cc(Cl)ccc2n1

>  <score_type>  (40) 
oracle

>  <origin>  (40) 
autodockgpu

>  <m_score__min__energy>  (40) 
-8.3900000000000006

>  <m_primary>  (40) 
energy

>  <rmsd>  (40) 
9.611870668629608

>  <m_score__min__rmsd>  (40) 
9.611870668629608

>  <meeko>  (40) 
{"free_energy": -8.1, "intermolecular_energy": -9.89, "internal_energy": -1.56, "cluster_size": 4, "cluster_id": 3, "rank_in_cluster": 2}

>  <energy>  (40) 
-8.14

>  <cluster_rmsd>  (40) 
0.0

>  <cluster>  (40) 
3

$$$$

     RDKit          3D

 56 59  0  0  0  0  0  0  0  0999 V2000
  133.3030   70.1470  226.5620 O   0  0  0  0  0  0  0  0  0  0  0  0
  133.7920   71.2550  226.1480 C   0  0  0  0  0  0  0  0  0  0  0  0
  134.8970   71.2960  225.2510 N   0  0  0  0  0  0  0  0  0  0  0  0
  135.5260   70.1460  224.7430 C   0  0  0  0  0  0  0  0  0  0  0  0
  136.6660   70.2510  223.8450 C   0  0  0  0  0  0  0  0  0  0  0  0
  137.0400   71.4770  223.6040 O   0  0  0  0  0  0  0  0  0  0  0  0
  137.3800   69.1730  223.2270 N   0  0  0  0  0  0  0  0  0  0  0  0
  137.2600   68.6020  221.9220 C   0  0  0  0  0  0  0  0  0  0  0  0
  138.6650   68.0150  221.6850 C   0  0  0  0  0  0  0  0  0  0  0  0
  138.8750   67.3530  223.0430 C   0  0  0  0  0  0  0  0  0  0  0  0
  138.4400   68.4710  223.9940 C   0  0  1  0  0  0  0  0  0  0  0  0
  139.5940   69.4240  224.2160 C   0  0  0  0  0  0  0  0  0  0  0  0
  139.3710   70.0890  225.4790 N   0  0  0  0  0  0  0  0  0  0  0  0
  140.2390   71.1450  225.7920 C   0  0  0  0  0  0  0  0  0  0  0  0
  140.6790   71.2810  227.2130 C   0  0  0  0  0  0  0  0  0  0  0  0
  141.0320   69.8960  227.7210 C   0  0  0  0  0  0  0  0  0  0  0  0
  139.7080   69.1590  227.7610 C   0  0  0  0  0  0  0  0  0  0  0  0
  138.9160   69.2460  226.5140 C   0  0  0  0  0  0  0  0  0  0  0  0
  133.1910   72.5040  226.6160 C   0  0  0  0  0  0  0  0  0  0  0  0
  131.9700   72.4970  227.2540 C   0  0  0  0  0  0  0  0  0  0  0  0
  131.3490   73.6350  227.7190 C   0  0  0  0  0  0  0  0  0  0  0  0
  132.0100   74.8300  227.5230 C   0  0  0  0  0  0  0  0  0  0  0  0
  131.3910   75.9680  227.9880 C   0  0  0  0  0  0  0  0  0  0  0  0
  132.0020   77.1920  227.8200 C   0  0  0  0  0  0  0  0  0  0  0  0
  131.2170   78.6580  228.4130 Cl  0  0  0  0  0  0  0  0  0  0  0  0
  133.2240   77.2310  227.1860 C   0  0  0  0  0  0  0  0  0  0  0  0
  133.8430   76.0710  226.7190 C   0  0  0  0  0  0  0  0  0  0  0  0
  133.2360   74.8450  226.8840 C   0  0  0  0  0  0  0  0  0  0  0  0
  133.8180   73.7030  226.4370 N   0  0  0  0  0  0  0  0  0  0  0  0
  135.2340   72.2560  224.9750 H   0  0  0  0  0  0  0  0  0  0  0  0
  135.8656   69.5649  225.6131 H   0  0  0  0  0  0  0  0  0  0  0  0
  134.7490   69.7098  224.0980 H   0  0  0  0  0  0  0  0  0  0  0  0
  136.4916   67.8151  221.9014 H   0  0  0  0  0  0  0  0  0  0  0  0
  136.9514   69.3256  221.1531 H   0  0  0  0  0  0  0  0  0  0  0  0
  138.6740   67.2838  220.8632 H   0  0  0  0  0  0  0  0  0  0  0  0
  139.4373   68.7388  221.3855 H   0  0  0  0  0  0  0  0  0  0  0  0
  138.2437   66.4594  223.1570 H   0  0  0  0  0  0  0  0  0  0  0  0
  139.8996   66.9908  223.2133 H   0  0  0  0  0  0  0  0  0  0  0  0
  138.1100   68.1019  224.9763 H   0  0  0  0  0  0  0  0  0  0  0  0
  140.5413   68.8658  224.2475 H   0  0  0  0  0  0  0  0  0  0  0  0
  139.6544   70.1566  223.3977 H   0  0  0  0  0  0  0  0  0  0  0  0
  141.1432   71.0207  225.1781 H   0  0  0  0  0  0  0  0  0  0  0  0
  139.6546   72.0553  225.5924 H   0  0  0  0  0  0  0  0  0  0  0  0
  141.5599   71.9372  227.2713 H   0  0  0  0  0  0  0  0  0  0  0  0
  139.8779   71.7228  227.8238 H   0  0  0  0  0  0  0  0  0  0  0  0
  141.7341   69.3977  227.0363 H   0  0  0  0  0  0  0  0  0  0  0  0
  141.5258   69.9236  228.7035 H   0  0  0  0  0  0  0  0  0  0  0  0
  139.9124   68.0974  227.9642 H   0  0  0  0  0  0  0  0  0  0  0  0
  139.1068   69.6409  228.5461 H   0  0  0  0  0  0  0  0  0  0  0  0
  138.8531   68.2292  226.0991 H   0  0  0  0  0  0  0  0  0  0  0  0
  137.9672   69.7027  226.8321 H   0  0  0  0  0  0  0  0  0  0  0  0
  131.4642   71.5312  227.3998 H   0  0  0  0  0  0  0  0  0  0  0  0
  130.3721   73.5931  228.2229 H   0  0  0  0  0  0  0  0  0  0  0  0
  130.4148   75.9011  228.4906 H   0  0  0  0  0  0  0  0  0  0  0  0
  133.7243   78.2004  227.0443 H   0  0  0  0  0  0  0  0  0  0  0  0
  134.8197   76.1355  226.2170 H   0  0  0  0  0  0  0  0  0  0  0  0
  1  2  2  0
  2  3  1  0
  3  4  1  0
  4  5  1  0
  5  6  2  0
  5  7  1  0
  7  8  1  0
  8  9  1  0
  9 10  1  0
 10 11  1  0
 11 12  1  0
 12 13  1  0
 13 14  1  0
 14 15  1  0
 15 16  1  0
 16 17  1  0
 17 18  1  0
  2 19  1  0
 19 20  2  0
 20 21  1  0
 21 22  2  0
 22 23  1  0
 23 24  2  0
 24 25  1  0
 24 26  1  0
 26 27  2  0
 27 28  1  0
 28 29  2  0
 11  7  1  0
 18 13  1  0
 29 19  1  0
 28 22  1  0
  3 30  1  0
  4 31  1  0
  4 32  1  0
  8 33  1  0
  8 34  1  0
  9 35  1  0
  9 36  1  0
 10 37  1  0
 10 38  1  0
 11 39  1  1
 12 40  1  0
 12 41  1  0
 14 42  1  0
 14 43  1  0
 15 44  1  0
 15 45  1  0
 16 46  1  0
 16 47  1  0
 17 48  1  0
 17 49  1  0
 18 50  1  0
 18 51  1  0
 20 52  1  0
 21 53  1  0
 23 54  1  0
 26 55  1  0
 27 56  1  0
M  END
>  <smiles>  (41) 
O=C(NCC(=O)N1CCC[C@H]1CN1CCCCC1)c1ccc2cc(Cl)ccc2n1

>  <score_type>  (41) 
oracle

>  <origin>  (41) 
autodockgpu

>  <m_score__min__energy>  (41) 
-8.3900000000000006

>  <m_primary>  (41) 
energy

>  <rmsd>  (41) 
9.753301857903633

>  <m_score__min__rmsd>  (41) 
9.753301857903633

>  <meeko>  (41) 
{"free_energy": -7.51, "intermolecular_energy": -9.3, "internal_energy": -2.06, "cluster_size": 12, "cluster_id": 1, "rank_in_cluster": 8}

>  <energy>  (41) 
-8.1

>  <cluster_rmsd>  (41) 
1.01

>  <cluster>  (41) 
3

$$$$

     RDKit          3D

 56 59  0  0  0  0  0  0  0  0999 V2000
  139.4400   74.8110  222.3460 O   0  0  0  0  0  0  0  0  0  0  0  0
  140.5960   75.1410  221.9070 C   0  0  0  0  0  0  0  0  0  0  0  0
  141.0600   76.4860  221.9550 N   0  0  0  0  0  0  0  0  0  0  0  0
  140.3090   77.5460  222.4900 C   0  0  0  0  0  0  0  0  0  0  0  0
  140.9220   78.8360  222.7640 C   0  0  0  0  0  0  0  0  0  0  0  0
  141.5960   78.8760  223.8810 O   0  0  0  0  0  0  0  0  0  0  0  0
  140.8520   80.0160  221.9540 N   0  0  0  0  0  0  0  0  0  0  0  0
  140.8770   81.3990  222.3150 C   0  0  0  0  0  0  0  0  0  0  0  0
  141.4270   82.0670  221.0400 C   0  0  0  0  0  0  0  0  0  0  0  0
  140.5840   81.3260  220.0050 C   0  0  0  0  0  0  0  0  0  0  0  0
  140.7290   79.8780  220.4810 C   0  0  1  0  0  0  0  0  0  0  0  0
  142.0150   79.2930  219.9360 C   0  0  0  0  0  0  0  0  0  0  0  0
  141.7930   77.8810  219.7240 N   0  0  0  0  0  0  0  0  0  0  0  0
  142.9210   77.1120  219.4050 C   0  0  0  0  0  0  0  0  0  0  0  0
  142.7540   76.0250  218.3950 C   0  0  0  0  0  0  0  0  0  0  0  0
  141.9260   76.5800  217.2510 C   0  0  0  0  0  0  0  0  0  0  0  0
  140.5530   76.8070  217.8540 C   0  0  0  0  0  0  0  0  0  0  0  0
  140.5550   77.5650  219.1250 C   0  0  0  0  0  0  0  0  0  0  0  0
  141.4540   74.0970  221.3440 C   0  0  0  0  0  0  0  0  0  0  0  0
  140.9740   72.8180  221.1640 C   0  0  0  0  0  0  0  0  0  0  0  0
  141.7270   71.7920  220.6390 C   0  0  0  0  0  0  0  0  0  0  0  0
  143.0260   72.0900  220.2830 C   0  0  0  0  0  0  0  0  0  0  0  0
  143.7800   71.0640  219.7590 C   0  0  0  0  0  0  0  0  0  0  0  0
  145.0850   71.3010  219.3850 C   0  0  0  0  0  0  0  0  0  0  0  0
  146.0600   69.9930  218.7100 Cl  0  0  0  0  0  0  0  0  0  0  0  0
  145.5930   72.5700  219.5520 C   0  0  0  0  0  0  0  0  0  0  0  0
  144.8200   73.6030  220.0850 C   0  0  0  0  0  0  0  0  0  0  0  0
  143.5150   73.3700  220.4600 C   0  0  0  0  0  0  0  0  0  0  0  0
  142.7440   74.3580  220.9820 N   0  0  0  0  0  0  0  0  0  0  0  0
  142.0230   76.6580  221.5600 H   0  0  0  0  0  0  0  0  0  0  0  0
  139.4870   77.7343  221.7837 H   0  0  0  0  0  0  0  0  0  0  0  0
  140.0573   77.1797  223.4962 H   0  0  0  0  0  0  0  0  0  0  0  0
  139.8676   81.7661  222.5523 H   0  0  0  0  0  0  0  0  0  0  0  0
  141.4776   81.6069  223.2128 H   0  0  0  0  0  0  0  0  0  0  0  0
  141.2386   83.1507  221.0271 H   0  0  0  0  0  0  0  0  0  0  0  0
  142.5161   82.0002  220.9010 H   0  0  0  0  0  0  0  0  0  0  0  0
  139.5346   81.6550  220.0302 H   0  0  0  0  0  0  0  0  0  0  0  0
  140.8999   81.4919  218.9645 H   0  0  0  0  0  0  0  0  0  0  0  0
  139.8985   79.2310  220.1622 H   0  0  0  0  0  0  0  0  0  0  0  0
  142.2755   79.7795  218.9844 H   0  0  0  0  0  0  0  0  0  0  0  0
  142.8437   79.4538  220.6412 H   0  0  0  0  0  0  0  0  0  0  0  0
  143.6909   77.7993  219.0244 H   0  0  0  0  0  0  0  0  0  0  0  0
  143.1754   76.5889  220.3386 H   0  0  0  0  0  0  0  0  0  0  0  0
  143.7385   75.7045  218.0236 H   0  0  0  0  0  0  0  0  0  0  0  0
  142.2539   75.1549  218.8453 H   0  0  0  0  0  0  0  0  0  0  0  0
  142.3518   77.5261  216.8856 H   0  0  0  0  0  0  0  0  0  0  0  0
  141.8969   75.9005  216.3865 H   0  0  0  0  0  0  0  0  0  0  0  0
  139.9456   77.3626  217.1243 H   0  0  0  0  0  0  0  0  0  0  0  0
  140.1463   75.8116  218.0858 H   0  0  0  0  0  0  0  0  0  0  0  0
  140.0350   78.5157  218.9357 H   0  0  0  0  0  0  0  0  0  0  0  0
  140.0773   76.8826  219.8435 H   0  0  0  0  0  0  0  0  0  0  0  0
  139.9347   72.6056  221.4550 H   0  0  0  0  0  0  0  0  0  0  0  0
  141.3121   70.7815  220.5094 H   0  0  0  0  0  0  0  0  0  0  0  0
  143.3434   70.0614  219.6397 H   0  0  0  0  0  0  0  0  0  0  0  0
  146.6331   72.7746  219.2583 H   0  0  0  0  0  0  0  0  0  0  0  0
  145.2543   74.6064  220.2060 H   0  0  0  0  0  0  0  0  0  0  0  0
  1  2  2  0
  2  3  1  0
  3  4  1  0
  4  5  1  0
  5  6  2  0
  5  7  1  0
  7  8  1  0
  8  9  1  0
  9 10  1  0
 10 11  1  0
 11 12  1  0
 12 13  1  0
 13 14  1  0
 14 15  1  0
 15 16  1  0
 16 17  1  0
 17 18  1  0
  2 19  1  0
 19 20  2  0
 20 21  1  0
 21 22  2  0
 22 23  1  0
 23 24  2  0
 24 25  1  0
 24 26  1  0
 26 27  2  0
 27 28  1  0
 28 29  2  0
 11  7  1  0
 18 13  1  0
 29 19  1  0
 28 22  1  0
  3 30  1  0
  4 31  1  0
  4 32  1  0
  8 33  1  0
  8 34  1  0
  9 35  1  0
  9 36  1  0
 10 37  1  0
 10 38  1  0
 11 39  1  1
 12 40  1  0
 12 41  1  0
 14 42  1  0
 14 43  1  0
 15 44  1  0
 15 45  1  0
 16 46  1  0
 16 47  1  0
 17 48  1  0
 17 49  1  0
 18 50  1  0
 18 51  1  0
 20 52  1  0
 21 53  1  0
 23 54  1  0
 26 55  1  0
 27 56  1  0
M  END
>  <smiles>  (42) 
O=C(NCC(=O)N1CCC[C@H]1CN1CCCCC1)c1ccc2cc(Cl)ccc2n1

>  <score_type>  (42) 
oracle

>  <origin>  (42) 
autodockgpu

>  <m_score__min__energy>  (42) 
-8.3900000000000006

>  <m_primary>  (42) 
energy

>  <rmsd>  (42) 
6.144952091912007

>  <m_score__min__rmsd>  (42) 
6.144952091912007

>  <meeko>  (42) 
{"free_energy": -5.98, "intermolecular_energy": -7.77, "internal_energy": -3.17, "cluster_size": 1, "cluster_id": 6, "rank_in_cluster": 1}

>  <energy>  (42) 
-8.09

>  <cluster_rmsd>  (42) 
0.87

>  <cluster>  (42) 
3

$$$$

     RDKit          3D

 56 59  0  0  0  0  0  0  0  0999 V2000
  139.0700   71.7240  220.7580 O   0  0  0  0  0  0  0  0  0  0  0  0
  139.2250   72.2580  221.9110 C   0  0  0  0  0  0  0  0  0  0  0  0
  139.1470   73.6670  222.1000 N   0  0  0  0  0  0  0  0  0  0  0  0
  138.8880   74.5750  221.0600 C   0  0  0  0  0  0  0  0  0  0  0  0
  139.3810   75.9420  221.1180 C   0  0  0  0  0  0  0  0  0  0  0  0
  138.7840   76.6830  222.0110 O   0  0  0  0  0  0  0  0  0  0  0  0
  140.4160   76.5220  220.3150 N   0  0  0  0  0  0  0  0  0  0  0  0
  140.9530   76.1190  219.0530 C   0  0  0  0  0  0  0  0  0  0  0  0
  141.4860   77.4470  218.4780 C   0  0  0  0  0  0  0  0  0  0  0  0
  142.1790   77.9820  219.7280 C   0  0  0  0  0  0  0  0  0  0  0  0
  141.1030   77.7490  220.7920 C   0  0  1  0  0  0  0  0  0  0  0  0
  140.1180   78.8980  220.7760 C   0  0  0  0  0  0  0  0  0  0  0  0
  140.2920   79.6340  222.0070 N   0  0  0  0  0  0  0  0  0  0  0  0
  140.8820   80.9020  221.8990 C   0  0  0  0  0  0  0  0  0  0  0  0
  141.8390   81.3140  222.9690 C   0  0  0  0  0  0  0  0  0  0  0  0
  142.7440   80.1310  223.2580 C   0  0  0  0  0  0  0  0  0  0  0  0
  141.8280   79.1000  223.8880 C   0  0  0  0  0  0  0  0  0  0  0  0
  140.5840   78.8370  223.1330 C   0  0  0  0  0  0  0  0  0  0  0  0
  139.4860   71.3850  223.0560 C   0  0  0  0  0  0  0  0  0  0  0  0
  139.1870   70.0420  222.9960 C   0  0  0  0  0  0  0  0  0  0  0  0
  139.4090   69.1660  224.0350 C   0  0  0  0  0  0  0  0  0  0  0  0
  139.9610   69.6910  225.1850 C   0  0  0  0  0  0  0  0  0  0  0  0
  140.1830   68.8170  226.2250 C   0  0  0  0  0  0  0  0  0  0  0  0
  140.7330   69.2830  227.4000 C   0  0  0  0  0  0  0  0  0  0  0  0
  141.0220   68.1710  228.7400 Cl  0  0  0  0  0  0  0  0  0  0  0  0
  141.0440   70.6220  227.4910 C   0  0  0  0  0  0  0  0  0  0  0  0
  140.8150   71.4990  226.4300 C   0  0  0  0  0  0  0  0  0  0  0  0
  140.2650   71.0380  225.2540 C   0  0  0  0  0  0  0  0  0  0  0  0
  140.0320   71.8720  224.2090 N   0  0  0  0  0  0  0  0  0  0  0  0
  139.2980   74.0110  223.0850 H   0  0  0  0  0  0  0  0  0  0  0  0
  139.3068   74.1302  220.1452 H   0  0  0  0  0  0  0  0  0  0  0  0
  137.7979   74.7086  221.1219 H   0  0  0  0  0  0  0  0  0  0  0  0
  141.7643   75.3874  219.1815 H   0  0  0  0  0  0  0  0  0  0  0  0
  140.2182   75.6227  218.4020 H   0  0  0  0  0  0  0  0  0  0  0  0
  142.1929   77.2850  217.6509 H   0  0  0  0  0  0  0  0  0  0  0  0
  140.7288   78.1102  218.0344 H   0  0  0  0  0  0  0  0  0  0  0  0
  143.0960   77.4175  219.9526 H   0  0  0  0  0  0  0  0  0  0  0  0
  142.5116   79.0273  219.6457 H   0  0  0  0  0  0  0  0  0  0  0  0
  141.5103   77.6646  221.8103 H   0  0  0  0  0  0  0  0  0  0  0  0
  140.3182   79.5528  219.9151 H   0  0  0  0  0  0  0  0  0  0  0  0
  139.0870   78.5243  220.6895 H   0  0  0  0  0  0  0  0  0  0  0  0
  141.4251   80.9317  220.9429 H   0  0  0  0  0  0  0  0  0  0  0  0
  140.0434   81.6082  221.9880 H   0  0  0  0  0  0  0  0  0  0  0  0
  142.4389   82.1698  222.6260 H   0  0  0  0  0  0  0  0  0  0  0  0
  141.2959   81.6148  223.8770 H   0  0  0  0  0  0  0  0  0  0  0  0
  143.1858   79.7428  222.3284 H   0  0  0  0  0  0  0  0  0  0  0  0
  143.5870   80.3982  223.9122 H   0  0  0  0  0  0  0  0  0  0  0  0
  142.3836   78.1545  223.9736 H   0  0  0  0  0  0  0  0  0  0  0  0
  141.5206   79.5101  224.8613 H   0  0  0  0  0  0  0  0  0  0  0  0
  140.6298   77.7936  222.7876 H   0  0  0  0  0  0  0  0  0  0  0  0
  139.7830   79.0805  223.8465 H   0  0  0  0  0  0  0  0  0  0  0  0
  138.7471   69.6478  222.0680 H   0  0  0  0  0  0  0  0  0  0  0  0
  139.1581   68.0982  223.9519 H   0  0  0  0  0  0  0  0  0  0  0  0
  139.9231   67.7534  226.1192 H   0  0  0  0  0  0  0  0  0  0  0  0
  141.4833   71.0091  228.4222 H   0  0  0  0  0  0  0  0  0  0  0  0
  141.0747   72.5629  226.5330 H   0  0  0  0  0  0  0  0  0  0  0  0
  1  2  2  0
  2  3  1  0
  3  4  1  0
  4  5  1  0
  5  6  2  0
  5  7  1  0
  7  8  1  0
  8  9  1  0
  9 10  1  0
 10 11  1  0
 11 12  1  0
 12 13  1  0
 13 14  1  0
 14 15  1  0
 15 16  1  0
 16 17  1  0
 17 18  1  0
  2 19  1  0
 19 20  2  0
 20 21  1  0
 21 22  2  0
 22 23  1  0
 23 24  2  0
 24 25  1  0
 24 26  1  0
 26 27  2  0
 27 28  1  0
 28 29  2  0
 11  7  1  0
 18 13  1  0
 29 19  1  0
 28 22  1  0
  3 30  1  0
  4 31  1  0
  4 32  1  0
  8 33  1  0
  8 34  1  0
  9 35  1  0
  9 36  1  0
 10 37  1  0
 10 38  1  0
 11 39  1  1
 12 40  1  0
 12 41  1  0
 14 42  1  0
 14 43  1  0
 15 44  1  0
 15 45  1  0
 16 46  1  0
 16 47  1  0
 17 48  1  0
 17 49  1  0
 18 50  1  0
 18 51  1  0
 20 52  1  0
 21 53  1  0
 23 54  1  0
 26 55  1  0
 27 56  1  0
M  END
>  <smiles>  (43) 
O=C(NCC(=O)N1CCC[C@H]1CN1CCCCC1)c1ccc2cc(Cl)ccc2n1

>  <score_type>  (43) 
oracle

>  <origin>  (43) 
autodockgpu

>  <m_score__min__energy>  (43) 
-8.3900000000000006

>  <m_primary>  (43) 
energy

>  <rmsd>  (43) 
2.2326043011953858

>  <m_score__min__rmsd>  (43) 
2.2326043011953858

>  <meeko>  (43) 
{"free_energy": -8.13, "intermolecular_energy": -9.92, "internal_energy": -1.64, "cluster_size": 27, "cluster_id": 2, "rank_in_cluster": 5}

>  <energy>  (43) 
-8.08

>  <cluster_rmsd>  (43) 
0.4

>  <cluster>  (43) 
3

$$$$

     RDKit          3D

 56 59  0  0  0  0  0  0  0  0999 V2000
  141.8470   73.5210  220.6660 O   0  0  0  0  0  0  0  0  0  0  0  0
  141.0300   74.2430  221.3360 C   0  0  0  0  0  0  0  0  0  0  0  0
  139.9820   73.6670  222.1090 N   0  0  0  0  0  0  0  0  0  0  0  0
  139.7660   72.2820  222.2110 C   0  0  0  0  0  0  0  0  0  0  0  0
  138.5580   71.7560  222.8280 C   0  0  0  0  0  0  0  0  0  0  0  0
  137.5280   72.5520  222.7410 O   0  0  0  0  0  0  0  0  0  0  0  0
  138.4080   70.4980  223.4970 N   0  0  0  0  0  0  0  0  0  0  0  0
  137.7050   69.3140  223.1110 C   0  0  0  0  0  0  0  0  0  0  0  0
  138.4660   68.2110  223.8730 C   0  0  0  0  0  0  0  0  0  0  0  0
  138.5810   68.9010  225.2300 C   0  0  0  0  0  0  0  0  0  0  0  0
  139.0530   70.2970  224.8190 C   0  0  1  0  0  0  0  0  0  0  0  0
  140.5550   70.2890  224.6320 C   0  0  0  0  0  0  0  0  0  0  0  0
  141.1550   70.3240  225.9460 N   0  0  0  0  0  0  0  0  0  0  0  0
  141.1480   69.1220  226.6690 C   0  0  0  0  0  0  0  0  0  0  0  0
  140.9010   69.2010  228.1400 C   0  0  0  0  0  0  0  0  0  0  0  0
  139.7570   70.1730  228.3640 C   0  0  0  0  0  0  0  0  0  0  0  0
  140.3220   71.5210  227.9610 C   0  0  0  0  0  0  0  0  0  0  0  0
  140.9840   71.5410  226.6380 C   0  0  0  0  0  0  0  0  0  0  0  0
  141.1890   75.6970  221.3000 C   0  0  0  0  0  0  0  0  0  0  0  0
  141.8430   76.3040  220.2490 C   0  0  0  0  0  0  0  0  0  0  0  0
  142.0260   77.6650  220.1530 C   0  0  0  0  0  0  0  0  0  0  0  0
  141.5150   78.4370  221.1760 C   0  0  0  0  0  0  0  0  0  0  0  0
  141.6980   79.7980  221.0810 C   0  0  0  0  0  0  0  0  0  0  0  0
  141.2100   80.6210  222.0730 C   0  0  0  0  0  0  0  0  0  0  0  0
  141.4370   82.3680  221.9600 Cl  0  0  0  0  0  0  0  0  0  0  0  0
  140.5510   80.0440  223.1360 C   0  0  0  0  0  0  0  0  0  0  0  0
  140.3720   78.6630  223.2230 C   0  0  0  0  0  0  0  0  0  0  0  0
  140.8570   77.8360  222.2330 C   0  0  0  0  0  0  0  0  0  0  0  0
  140.6960   76.4900  222.2960 N   0  0  0  0  0  0  0  0  0  0  0  0
  139.3550   74.3450  222.6180 H   0  0  0  0  0  0  0  0  0  0  0  0
  139.7919   71.8850  221.1855 H   0  0  0  0  0  0  0  0  0  0  0  0
  140.5532   71.9651  222.9110 H   0  0  0  0  0  0  0  0  0  0  0  0
  136.6511   69.3579  223.4229 H   0  0  0  0  0  0  0  0  0  0  0  0
  137.6768   69.1558  222.0228 H   0  0  0  0  0  0  0  0  0  0  0  0
  137.8891   67.2763  223.9322 H   0  0  0  0  0  0  0  0  0  0  0  0
  139.4163   67.8907  223.4210 H   0  0  0  0  0  0  0  0  0  0  0  0
  137.6099   68.9400  225.7452 H   0  0  0  0  0  0  0  0  0  0  0  0
  139.2494   68.3907  225.9391 H   0  0  0  0  0  0  0  0  0  0  0  0
  138.8057   71.0730  225.5583 H   0  0  0  0  0  0  0  0  0  0  0  0
  140.8629   69.3754  224.1024 H   0  0  0  0  0  0  0  0  0  0  0  0
  140.8764   71.1555  224.0355 H   0  0  0  0  0  0  0  0  0  0  0  0
  140.3635   68.4830  226.2375 H   0  0  0  0  0  0  0  0  0  0  0  0
  142.1740   68.7357  226.5785 H   0  0  0  0  0  0  0  0  0  0  0  0
  140.6305   68.2080  228.5284 H   0  0  0  0  0  0  0  0  0  0  0  0
  141.8053   69.5426  228.6648 H   0  0  0  0  0  0  0  0  0  0  0  0
  138.8937   69.9093  227.7354 H   0  0  0  0  0  0  0  0  0  0  0  0
  139.3966   70.1635  229.4032 H   0  0  0  0  0  0  0  0  0  0  0  0
  139.4962   72.2474  227.9424 H   0  0  0  0  0  0  0  0  0  0  0  0
  141.0974   71.7678  228.7012 H   0  0  0  0  0  0  0  0  0  0  0  0
  140.3900   72.2013  225.9891 H   0  0  0  0  0  0  0  0  0  0  0  0
  142.0107   71.8683  226.8589 H   0  0  0  0  0  0  0  0  0  0  0  0
  142.2396   75.6671  219.4446 H   0  0  0  0  0  0  0  0  0  0  0  0
  142.5550   78.1160  219.3005 H   0  0  0  0  0  0  0  0  0  0  0  0
  142.2303   80.2260  220.2188 H   0  0  0  0  0  0  0  0  0  0  0  0
  140.1562   80.6877  223.9359 H   0  0  0  0  0  0  0  0  0  0  0  0
  139.8416   78.2326  224.0853 H   0  0  0  0  0  0  0  0  0  0  0  0
  1  2  2  0
  2  3  1  0
  3  4  1  0
  4  5  1  0
  5  6  2  0
  5  7  1  0
  7  8  1  0
  8  9  1  0
  9 10  1  0
 10 11  1  0
 11 12  1  0
 12 13  1  0
 13 14  1  0
 14 15  1  0
 15 16  1  0
 16 17  1  0
 17 18  1  0
  2 19  1  0
 19 20  2  0
 20 21  1  0
 21 22  2  0
 22 23  1  0
 23 24  2  0
 24 25  1  0
 24 26  1  0
 26 27  2  0
 27 28  1  0
 28 29  2  0
 11  7  1  0
 18 13  1  0
 29 19  1  0
 28 22  1  0
  3 30  1  0
  4 31  1  0
  4 32  1  0
  8 33  1  0
  8 34  1  0
  9 35  1  0
  9 36  1  0
 10 37  1  0
 10 38  1  0
 11 39  1  1
 12 40  1  0
 12 41  1  0
 14 42  1  0
 14 43  1  0
 15 44  1  0
 15 45  1  0
 16 46  1  0
 16 47  1  0
 17 48  1  0
 17 49  1  0
 18 50  1  0
 18 51  1  0
 20 52  1  0
 21 53  1  0
 23 54  1  0
 26 55  1  0
 27 56  1  0
M  END
>  <smiles>  (44) 
O=C(NCC(=O)N1CCC[C@H]1CN1CCCCC1)c1ccc2cc(Cl)ccc2n1

>  <score_type>  (44) 
oracle

>  <origin>  (44) 
autodockgpu

>  <m_score__min__energy>  (44) 
-8.3900000000000006

>  <m_primary>  (44) 
energy

>  <rmsd>  (44) 
9.492063167903755

>  <m_score__min__rmsd>  (44) 
9.492063167903755

>  <meeko>  (44) 
{"free_energy": -8.14, "intermolecular_energy": -9.93, "internal_energy": -1.62, "cluster_size": 4, "cluster_id": 3, "rank_in_cluster": 1}

>  <energy>  (44) 
-7.79

>  <cluster_rmsd>  (44) 
0.0

>  <cluster>  (44) 
4

$$$$

     RDKit          3D

 56 59  0  0  0  0  0  0  0  0999 V2000
  140.6380   72.5240  220.9870 O   0  0  0  0  0  0  0  0  0  0  0  0
  139.9610   72.7750  222.0430 C   0  0  0  0  0  0  0  0  0  0  0  0
  139.1610   73.9480  222.1570 N   0  0  0  0  0  0  0  0  0  0  0  0
  139.0390   74.9060  221.1360 C   0  0  0  0  0  0  0  0  0  0  0  0
  138.4890   76.2250  221.4080 C   0  0  0  0  0  0  0  0  0  0  0  0
  137.5800   76.2370  222.3450 O   0  0  0  0  0  0  0  0  0  0  0  0
  138.8380   77.4560  220.7640 N   0  0  0  0  0  0  0  0  0  0  0  0
  138.3910   78.0230  219.5300 C   0  0  0  0  0  0  0  0  0  0  0  0
  138.6010   79.5320  219.7610 C   0  0  0  0  0  0  0  0  0  0  0  0
  139.9930   79.4820  220.3840 C   0  0  0  0  0  0  0  0  0  0  0  0
  139.8230   78.3590  221.4100 C   0  0  1  0  0  0  0  0  0  0  0  0
  139.2140   78.9200  222.6770 C   0  0  0  0  0  0  0  0  0  0  0  0
  140.2880   79.4750  223.4670 N   0  0  0  0  0  0  0  0  0  0  0  0
  140.3930   80.8740  223.4850 C   0  0  0  0  0  0  0  0  0  0  0  0
  141.7630   81.4660  223.4650 C   0  0  0  0  0  0  0  0  0  0  0  0
  142.5790   80.7060  222.4360 C   0  0  0  0  0  0  0  0  0  0  0  0
  142.7310   79.3170  223.0250 C   0  0  0  0  0  0  0  0  0  0  0  0
  141.4670   78.7000  223.4830 C   0  0  0  0  0  0  0  0  0  0  0  0
  140.0170   71.8250  223.1530 C   0  0  0  0  0  0  0  0  0  0  0  0
  139.5630   70.5330  222.9930 C   0  0  0  0  0  0  0  0  0  0  0  0
  139.5880   69.5890  223.9950 C   0  0  0  0  0  0  0  0  0  0  0  0
  140.1020   69.9860  225.2120 C   0  0  0  0  0  0  0  0  0  0  0  0
  140.1280   69.0430  226.2150 C   0  0  0  0  0  0  0  0  0  0  0  0
  140.6290   69.3800  227.4530 C   0  0  0  0  0  0  0  0  0  0  0  0
  140.6680   68.1780  228.7460 Cl  0  0  0  0  0  0  0  0  0  0  0  0
  141.0920   70.6630  227.6440 C   0  0  0  0  0  0  0  0  0  0  0  0
  141.0610   71.6120  226.6210 C   0  0  0  0  0  0  0  0  0  0  0  0
  140.5600   71.2790  225.3810 C   0  0  0  0  0  0  0  0  0  0  0  0
  140.5190   72.1840  224.3700 N   0  0  0  0  0  0  0  0  0  0  0  0
  138.6470   74.0710  223.0700 H   0  0  0  0  0  0  0  0  0  0  0  0
  140.0506   75.0657  220.7345 H   0  0  0  0  0  0  0  0  0  0  0  0
  138.2816   74.4597  220.4748 H   0  0  0  0  0  0  0  0  0  0  0  0
  138.9955   77.6623  218.6847 H   0  0  0  0  0  0  0  0  0  0  0  0
  137.3540   77.7584  219.2760 H   0  0  0  0  0  0  0  0  0  0  0  0
  138.5901   80.0997  218.8189 H   0  0  0  0  0  0  0  0  0  0  0  0
  137.8287   80.0320  220.3640 H   0  0  0  0  0  0  0  0  0  0  0  0
  140.7599   79.2315  219.6363 H   0  0  0  0  0  0  0  0  0  0  0  0
  140.3285   80.4374  220.8137 H   0  0  0  0  0  0  0  0  0  0  0  0
  140.7702   77.8671  221.6763 H   0  0  0  0  0  0  0  0  0  0  0  0
  138.4863   79.7063  222.4276 H   0  0  0  0  0  0  0  0  0  0  0  0
  138.6895   78.1314  223.2365 H   0  0  0  0  0  0  0  0  0  0  0  0
  139.8572   81.2553  222.6032 H   0  0  0  0  0  0  0  0  0  0  0  0
  139.9748   81.1723  224.4577 H   0  0  0  0  0  0  0  0  0  0  0  0
  141.7077   82.5292  223.1883 H   0  0  0  0  0  0  0  0  0  0  0  0
  142.2296   81.3912  224.4583 H   0  0  0  0  0  0  0  0  0  0  0  0
  142.0492   80.6644  221.4729 H   0  0  0  0  0  0  0  0  0  0  0  0
  143.5490   81.1840  222.2344 H   0  0  0  0  0  0  0  0  0  0  0  0
  143.1722   78.6651  222.2567 H   0  0  0  0  0  0  0  0  0  0  0  0
  143.3661   79.4246  223.9167 H   0  0  0  0  0  0  0  0  0  0  0  0
  141.2858   77.8224  222.8451 H   0  0  0  0  0  0  0  0  0  0  0  0
  141.6398   78.5003  224.5508 H   0  0  0  0  0  0  0  0  0  0  0  0
  139.1592   70.2408  222.0124 H   0  0  0  0  0  0  0  0  0  0  0  0
  139.2157   68.5667  223.8327 H   0  0  0  0  0  0  0  0  0  0  0  0
  139.7509   68.0266  226.0287 H   0  0  0  0  0  0  0  0  0  0  0  0
  141.4961   70.9467  228.6269 H   0  0  0  0  0  0  0  0  0  0  0  0
  141.4377   72.6290  226.8050 H   0  0  0  0  0  0  0  0  0  0  0  0
  1  2  2  0
  2  3  1  0
  3  4  1  0
  4  5  1  0
  5  6  2  0
  5  7  1  0
  7  8  1  0
  8  9  1  0
  9 10  1  0
 10 11  1  0
 11 12  1  0
 12 13  1  0
 13 14  1  0
 14 15  1  0
 15 16  1  0
 16 17  1  0
 17 18  1  0
  2 19  1  0
 19 20  2  0
 20 21  1  0
 21 22  2  0
 22 23  1  0
 23 24  2  0
 24 25  1  0
 24 26  1  0
 26 27  2  0
 27 28  1  0
 28 29  2  0
 11  7  1  0
 18 13  1  0
 29 19  1  0
 28 22  1  0
  3 30  1  0
  4 31  1  0
  4 32  1  0
  8 33  1  0
  8 34  1  0
  9 35  1  0
  9 36  1  0
 10 37  1  0
 10 38  1  0
 11 39  1  1
 12 40  1  0
 12 41  1  0
 14 42  1  0
 14 43  1  0
 15 44  1  0
 15 45  1  0
 16 46  1  0
 16 47  1  0
 17 48  1  0
 17 49  1  0
 18 50  1  0
 18 51  1  0
 20 52  1  0
 21 53  1  0
 23 54  1  0
 26 55  1  0
 27 56  1  0
M  END
>  <smiles>  (45) 
O=C(NCC(=O)N1CCC[C@H]1CN1CCCCC1)c1ccc2cc(Cl)ccc2n1

>  <score_type>  (45) 
oracle

>  <origin>  (45) 
autodockgpu

>  <m_score__min__energy>  (45) 
-8.3900000000000006

>  <m_primary>  (45) 
energy

>  <rmsd>  (45) 
2.6094084264077773

>  <m_score__min__rmsd>  (45) 
2.6094084264077773

>  <meeko>  (45) 
{"free_energy": -7.99, "intermolecular_energy": -9.78, "internal_energy": -1.64, "cluster_size": 27, "cluster_id": 2, "rank_in_cluster": 12}

>  <energy>  (45) 
-7.54

>  <cluster_rmsd>  (45) 
1.7

>  <cluster>  (45) 
4

$$$$

     RDKit          3D

 56 59  0  0  0  0  0  0  0  0999 V2000
  140.9890   73.7570  221.9780 O   0  0  0  0  0  0  0  0  0  0  0  0
  140.0650   72.8730  222.0250 C   0  0  0  0  0  0  0  0  0  0  0  0
  139.0450   72.8020  221.0320 N   0  0  0  0  0  0  0  0  0  0  0  0
  138.9740   73.6710  219.9310 C   0  0  0  0  0  0  0  0  0  0  0  0
  139.1500   75.1050  220.0960 C   0  0  0  0  0  0  0  0  0  0  0  0
  139.9800   75.6390  219.2430 O   0  0  0  0  0  0  0  0  0  0  0  0
  138.5230   75.9460  221.0730 N   0  0  0  0  0  0  0  0  0  0  0  0
  137.2640   75.8230  221.7390 C   0  0  0  0  0  0  0  0  0  0  0  0
  137.5020   76.6010  223.0480 C   0  0  0  0  0  0  0  0  0  0  0  0
  138.2040   77.8260  222.4680 C   0  0  0  0  0  0  0  0  0  0  0  0
  139.2220   77.1730  221.5300 C   0  0  1  0  0  0  0  0  0  0  0  0
  140.4510   76.7710  222.3170 C   0  0  0  0  0  0  0  0  0  0  0  0
  141.3750   77.8810  222.2750 N   0  0  0  0  0  0  0  0  0  0  0  0
  141.6400   78.5200  223.4950 C   0  0  0  0  0  0  0  0  0  0  0  0
  141.7880   80.0060  223.4800 C   0  0  0  0  0  0  0  0  0  0  0  0
  140.6830   80.5710  222.6080 C   0  0  0  0  0  0  0  0  0  0  0  0
  141.0290   80.1010  221.2080 C   0  0  0  0  0  0  0  0  0  0  0  0
  141.3130   78.6530  221.0960 C   0  0  0  0  0  0  0  0  0  0  0  0
  140.0680   71.9170  223.1310 C   0  0  0  0  0  0  0  0  0  0  0  0
  139.5550   70.6490  222.9620 C   0  0  0  0  0  0  0  0  0  0  0  0
  139.5280   69.7000  223.9600 C   0  0  0  0  0  0  0  0  0  0  0  0
  140.0510   70.0680  225.1830 C   0  0  0  0  0  0  0  0  0  0  0  0
  140.0250   69.1200  226.1820 C   0  0  0  0  0  0  0  0  0  0  0  0
  140.5320   69.4290  227.4250 C   0  0  0  0  0  0  0  0  0  0  0  0
  140.5050   68.2210  228.7130 Cl  0  0  0  0  0  0  0  0  0  0  0  0
  141.0530   70.6880  227.6250 C   0  0  0  0  0  0  0  0  0  0  0  0
  141.0750   71.6410  226.6060 C   0  0  0  0  0  0  0  0  0  0  0  0
  140.5680   71.3370  225.3610 C   0  0  0  0  0  0  0  0  0  0  0  0
  140.5770   72.2470  224.3540 N   0  0  0  0  0  0  0  0  0  0  0  0
  138.3240   72.0440  221.1640 H   0  0  0  0  0  0  0  0  0  0  0  0
  139.7470   73.3407  219.2215 H   0  0  0  0  0  0  0  0  0  0  0  0
  137.9200   73.5901  219.6267 H   0  0  0  0  0  0  0  0  0  0  0  0
  136.4554   76.2775  221.1478 H   0  0  0  0  0  0  0  0  0  0  0  0
  136.9525   74.7802  221.8990 H   0  0  0  0  0  0  0  0  0  0  0  0
  136.5590   76.8640  223.5496 H   0  0  0  0  0  0  0  0  0  0  0  0
  138.0582   76.0598  223.8276 H   0  0  0  0  0  0  0  0  0  0  0  0
  137.5022   78.4684  221.9160 H   0  0  0  0  0  0  0  0  0  0  0  0
  138.6492   78.4897  223.2238 H   0  0  0  0  0  0  0  0  0  0  0  0
  139.5437   77.8336  220.7114 H   0  0  0  0  0  0  0  0  0  0  0  0
  140.1748   76.5514  223.3588 H   0  0  0  0  0  0  0  0  0  0  0  0
  140.9092   75.8685  221.8862 H   0  0  0  0  0  0  0  0  0  0  0  0
  140.8132   78.2786  224.1792 H   0  0  0  0  0  0  0  0  0  0  0  0
  142.6284   78.1442  223.7980 H   0  0  0  0  0  0  0  0  0  0  0  0
  141.6977   80.4018  224.5024 H   0  0  0  0  0  0  0  0  0  0  0  0
  142.7742   80.2909  223.0847 H   0  0  0  0  0  0  0  0  0  0  0  0
  139.7032   80.1794  222.9189 H   0  0  0  0  0  0  0  0  0  0  0  0
  140.6134   81.6666  222.6771 H   0  0  0  0  0  0  0  0  0  0  0  0
  140.1811   80.3362  220.5479 H   0  0  0  0  0  0  0  0  0  0  0  0
  141.9549   80.6228  220.9243 H   0  0  0  0  0  0  0  0  0  0  0  0
  140.5251   78.2166  220.4645 H   0  0  0  0  0  0  0  0  0  0  0  0
  142.3370   78.6121  220.6963 H   0  0  0  0  0  0  0  0  0  0  0  0
  139.1451   70.3804  221.9772 H   0  0  0  0  0  0  0  0  0  0  0  0
  139.1096   68.6969  223.7903 H   0  0  0  0  0  0  0  0  0  0  0  0
  139.6023   68.1231  225.9885 H   0  0  0  0  0  0  0  0  0  0  0  0
  141.4619   70.9488  228.6123 H   0  0  0  0  0  0  0  0  0  0  0  0
  141.4984   72.6381  226.7970 H   0  0  0  0  0  0  0  0  0  0  0  0
  1  2  2  0
  2  3  1  0
  3  4  1  0
  4  5  1  0
  5  6  2  0
  5  7  1  0
  7  8  1  0
  8  9  1  0
  9 10  1  0
 10 11  1  0
 11 12  1  0
 12 13  1  0
 13 14  1  0
 14 15  1  0
 15 16  1  0
 16 17  1  0
 17 18  1  0
  2 19  1  0
 19 20  2  0
 20 21  1  0
 21 22  2  0
 22 23  1  0
 23 24  2  0
 24 25  1  0
 24 26  1  0
 26 27  2  0
 27 28  1  0
 28 29  2  0
 11  7  1  0
 18 13  1  0
 29 19  1  0
 28 22  1  0
  3 30  1  0
  4 31  1  0
  4 32  1  0
  8 33  1  0
  8 34  1  0
  9 35  1  0
  9 36  1  0
 10 37  1  0
 10 38  1  0
 11 39  1  6
 12 40  1  0
 12 41  1  0
 14 42  1  0
 14 43  1  0
 15 44  1  0
 15 45  1  0
 16 46  1  0
 16 47  1  0
 17 48  1  0
 17 49  1  0
 18 50  1  0
 18 51  1  0
 20 52  1  0
 21 53  1  0
 23 54  1  0
 26 55  1  0
 27 56  1  0
M  END
>  <smiles>  (46) 
O=C(NCC(=O)N1CCC[C@H]1CN1CCCCC1)c1ccc2cc(Cl)ccc2n1

>  <score_type>  (46) 
oracle

>  <origin>  (46) 
autodockgpu

>  <m_score__min__energy>  (46) 
-8.3900000000000006

>  <m_primary>  (46) 
energy

>  <rmsd>  (46) 
2.879479935961316

>  <m_score__min__rmsd>  (46) 
2.879479935961316

>  <meeko>  (46) 
{"free_energy": -7.57, "intermolecular_energy": -9.36, "internal_energy": -1.76, "cluster_size": 27, "cluster_id": 2, "rank_in_cluster": 20}

>  <energy>  (46) 
-7.49

>  <cluster_rmsd>  (46) 
0.65

>  <cluster>  (46) 
4

$$$$

     RDKit          3D

 56 59  0  0  0  0  0  0  0  0999 V2000
  133.1520   70.2770  226.7620 O   0  0  0  0  0  0  0  0  0  0  0  0
  133.6380   71.3570  226.2760 C   0  0  0  0  0  0  0  0  0  0  0  0
  134.6770   71.3380  225.3020 N   0  0  0  0  0  0  0  0  0  0  0  0
  135.2400   70.1570  224.7920 C   0  0  0  0  0  0  0  0  0  0  0  0
  136.3590   70.2000  223.8630 C   0  0  0  0  0  0  0  0  0  0  0  0
  136.4250   71.3000  223.1640 O   0  0  0  0  0  0  0  0  0  0  0  0
  137.3480   69.1840  223.6540 N   0  0  0  0  0  0  0  0  0  0  0  0
  137.5030   68.2380  222.5940 C   0  0  0  0  0  0  0  0  0  0  0  0
  139.0170   67.9510  222.6230 C   0  0  0  0  0  0  0  0  0  0  0  0
  139.1970   67.7930  224.1300 C   0  0  0  0  0  0  0  0  0  0  0  0
  138.4310   69.0100  224.6540 C   0  0  1  0  0  0  0  0  0  0  0  0
  139.3300   70.2270  224.6160 C   0  0  0  0  0  0  0  0  0  0  0  0
  140.3070   70.0770  225.6700 N   0  0  0  0  0  0  0  0  0  0  0  0
  139.8630   69.4700  226.8530 C   0  0  0  0  0  0  0  0  0  0  0  0
  140.3810   70.0100  228.1450 C   0  0  0  0  0  0  0  0  0  0  0  0
  140.3370   71.5250  228.0630 C   0  0  0  0  0  0  0  0  0  0  0  0
  141.3740   71.8760  227.0150 C   0  0  0  0  0  0  0  0  0  0  0  0
  141.2530   71.1220  225.7480 C   0  0  0  0  0  0  0  0  0  0  0  0
  133.1020   72.6360  226.7410 C   0  0  0  0  0  0  0  0  0  0  0  0
  131.9300   72.6830  227.4650 C   0  0  0  0  0  0  0  0  0  0  0  0
  131.3720   73.8510  227.9320 C   0  0  0  0  0  0  0  0  0  0  0  0
  132.0450   75.0220  227.6460 C   0  0  0  0  0  0  0  0  0  0  0  0
  131.4870   76.1910  228.1130 C   0  0  0  0  0  0  0  0  0  0  0  0
  132.1130   77.3920  227.8580 C   0  0  0  0  0  0  0  0  0  0  0  0
  131.4080   78.8970  228.4530 Cl  0  0  0  0  0  0  0  0  0  0  0  0
  133.2870   77.3780  227.1380 C   0  0  0  0  0  0  0  0  0  0  0  0
  133.8430   76.1860  226.6690 C   0  0  0  0  0  0  0  0  0  0  0  0
  133.2210   74.9830  226.9210 C   0  0  0  0  0  0  0  0  0  0  0  0
  133.7420   73.8120  226.4750 N   0  0  0  0  0  0  0  0  0  0  0  0
  135.0170   72.2800  224.9700 H   0  0  0  0  0  0  0  0  0  0  0  0
  135.5766   69.5709  225.6599 H   0  0  0  0  0  0  0  0  0  0  0  0
  134.4273   69.7497  224.1727 H   0  0  0  0  0  0  0  0  0  0  0  0
  136.9213   67.3247  222.7878 H   0  0  0  0  0  0  0  0  0  0  0  0
  137.1447   68.6062  221.6213 H   0  0  0  0  0  0  0  0  0  0  0  0
  139.2736   67.0308  222.0776 H   0  0  0  0  0  0  0  0  0  0  0  0
  139.6533   68.7111  222.1461 H   0  0  0  0  0  0  0  0  0  0  0  0
  138.7550   66.8529  224.4918 H   0  0  0  0  0  0  0  0  0  0  0  0
  140.2468   67.7477  224.4555 H   0  0  0  0  0  0  0  0  0  0  0  0
  138.0696   68.8850  225.6854 H   0  0  0  0  0  0  0  0  0  0  0  0
  139.8356   70.2904  223.6412 H   0  0  0  0  0  0  0  0  0  0  0  0
  138.7438   71.1469  224.7585 H   0  0  0  0  0  0  0  0  0  0  0  0
  138.7667   69.5573  226.8760 H   0  0  0  0  0  0  0  0  0  0  0  0
  140.2542   68.4431  226.8032 H   0  0  0  0  0  0  0  0  0  0  0  0
  139.7506   69.6614  228.9763 H   0  0  0  0  0  0  0  0  0  0  0  0
  141.4098   69.6636  228.3224 H   0  0  0  0  0  0  0  0  0  0  0  0
  139.3391   71.8693  227.7538 H   0  0  0  0  0  0  0  0  0  0  0  0
  140.5417   72.0035  229.0321 H   0  0  0  0  0  0  0  0  0  0  0  0
  141.2804   72.9478  226.7860 H   0  0  0  0  0  0  0  0  0  0  0  0
  142.3512   71.6084  227.4434 H   0  0  0  0  0  0  0  0  0  0  0  0
  140.9992   71.8482  224.9617 H   0  0  0  0  0  0  0  0  0  0  0  0
  142.2229   70.6132  225.6456 H   0  0  0  0  0  0  0  0  0  0  0  0
  131.4131   71.7363  227.6810 H   0  0  0  0  0  0  0  0  0  0  0  0
  130.4338   73.8516  228.5062 H   0  0  0  0  0  0  0  0  0  0  0  0
  130.5481   76.1664  228.6856 H   0  0  0  0  0  0  0  0  0  0  0  0
  133.7989   78.3286  226.9273 H   0  0  0  0  0  0  0  0  0  0  0  0
  134.7817   76.2077  226.0959 H   0  0  0  0  0  0  0  0  0  0  0  0
  1  2  2  0
  2  3  1  0
  3  4  1  0
  4  5  1  0
  5  6  2  0
  5  7  1  0
  7  8  1  0
  8  9  1  0
  9 10  1  0
 10 11  1  0
 11 12  1  0
 12 13  1  0
 13 14  1  0
 14 15  1  0
 15 16  1  0
 16 17  1  0
 17 18  1  0
  2 19  1  0
 19 20  2  0
 20 21  1  0
 21 22  2  0
 22 23  1  0
 23 24  2  0
 24 25  1  0
 24 26  1  0
 26 27  2  0
 27 28  1  0
 28 29  2  0
 11  7  1  0
 18 13  1  0
 29 19  1  0
 28 22  1  0
  3 30  1  0
  4 31  1  0
  4 32  1  0
  8 33  1  0
  8 34  1  0
  9 35  1  0
  9 36  1  0
 10 37  1  0
 10 38  1  0
 11 39  1  1
 12 40  1  0
 12 41  1  0
 14 42  1  0
 14 43  1  0
 15 44  1  0
 15 45  1  0
 16 46  1  0
 16 47  1  0
 17 48  1  0
 17 49  1  0
 18 50  1  0
 18 51  1  0
 20 52  1  0
 21 53  1  0
 23 54  1  0
 26 55  1  0
 27 56  1  0
M  END
>  <smiles>  (47) 
O=C(NCC(=O)N1CCC[C@H]1CN1CCCCC1)c1ccc2cc(Cl)ccc2n1

>  <score_type>  (47) 
oracle

>  <origin>  (47) 
autodockgpu

>  <m_score__min__energy>  (47) 
-8.3900000000000006

>  <m_primary>  (47) 
energy

>  <rmsd>  (47) 
9.62671750757486

>  <m_score__min__rmsd>  (47) 
9.62671750757486

>  <meeko>  (47) 
{"free_energy": -7.89, "intermolecular_energy": -9.68, "internal_energy": -1.78, "cluster_size": 12, "cluster_id": 1, "rank_in_cluster": 6}

>  <energy>  (47) 
-7.24

>  <cluster_rmsd>  (47) 
1.65

>  <cluster>  (47) 
4

$$$$

     RDKit          3D

 56 59  0  0  0  0  0  0  0  0999 V2000
  133.9630   69.2580  226.4620 O   0  0  0  0  0  0  0  0  0  0  0  0
  134.4260   70.3610  226.0060 C   0  0  0  0  0  0  0  0  0  0  0  0
  135.5480   70.3960  225.1290 N   0  0  0  0  0  0  0  0  0  0  0  0
  136.2210   69.2460  224.6860 C   0  0  0  0  0  0  0  0  0  0  0  0
  137.6060   69.3120  224.2450 C   0  0  0  0  0  0  0  0  0  0  0  0
  138.3520   68.3400  224.6950 O   0  0  0  0  0  0  0  0  0  0  0  0
  138.1970   70.3070  223.4010 N   0  0  0  0  0  0  0  0  0  0  0  0
  137.6670   71.0080  222.2730 C   0  0  0  0  0  0  0  0  0  0  0  0
  138.4900   72.3120  222.2740 C   0  0  0  0  0  0  0  0  0  0  0  0
  139.8740   71.7150  222.5120 C   0  0  0  0  0  0  0  0  0  0  0  0
  139.5900   70.7470  223.6630 C   0  0  1  0  0  0  0  0  0  0  0  0
  139.6260   71.4990  224.9760 C   0  0  0  0  0  0  0  0  0  0  0  0
  140.6880   70.9300  225.7730 N   0  0  0  0  0  0  0  0  0  0  0  0
  140.6760   69.5360  225.9290 C   0  0  0  0  0  0  0  0  0  0  0  0
  141.0630   68.9850  227.2620 C   0  0  0  0  0  0  0  0  0  0  0  0
  140.3800   69.8250  228.3240 C   0  0  0  0  0  0  0  0  0  0  0  0
  141.0480   71.1820  228.2210 C   0  0  0  0  0  0  0  0  0  0  0  0
  141.1110   71.7360  226.8510 C   0  0  0  0  0  0  0  0  0  0  0  0
  133.7770   71.6100  226.4040 C   0  0  0  0  0  0  0  0  0  0  0  0
  132.6070   71.5900  227.1330 C   0  0  0  0  0  0  0  0  0  0  0  0
  131.9470   72.7270  227.5400 C   0  0  0  0  0  0  0  0  0  0  0  0
  132.5100   73.9360  227.1860 C   0  0  0  0  0  0  0  0  0  0  0  0
  131.8500   75.0740  227.5930 C   0  0  0  0  0  0  0  0  0  0  0  0
  132.3640   76.3110  227.2680 C   0  0  0  0  0  0  0  0  0  0  0  0
  131.5260   77.7760  227.7850 Cl  0  0  0  0  0  0  0  0  0  0  0  0
  133.5330   76.3640  226.5420 C   0  0  0  0  0  0  0  0  0  0  0  0
  134.1940   75.2040  226.1350 C   0  0  0  0  0  0  0  0  0  0  0  0
  133.6830   73.9650  226.4560 C   0  0  0  0  0  0  0  0  0  0  0  0
  134.3070   72.8230  226.0710 N   0  0  0  0  0  0  0  0  0  0  0  0
  135.8600   71.3530  224.8150 H   0  0  0  0  0  0  0  0  0  0  0  0
  136.1914   68.5264  225.5174 H   0  0  0  0  0  0  0  0  0  0  0  0
  135.6839   68.9927  223.7601 H   0  0  0  0  0  0  0  0  0  0  0  0
  137.8222   70.4406  221.3435 H   0  0  0  0  0  0  0  0  0  0  0  0
  136.5812   71.1746  222.3306 H   0  0  0  0  0  0  0  0  0  0  0  0
  138.4279   72.8405  221.3113 H   0  0  0  0  0  0  0  0  0  0  0  0
  138.1706   73.0745  222.9997 H   0  0  0  0  0  0  0  0  0  0  0  0
  140.2422   71.1846  221.6214 H   0  0  0  0  0  0  0  0  0  0  0  0
  140.6536   72.4593  222.7317 H   0  0  0  0  0  0  0  0  0  0  0  0
  140.3135   69.9207  223.7236 H   0  0  0  0  0  0  0  0  0  0  0  0
  139.8240   72.5654  224.7928 H   0  0  0  0  0  0  0  0  0  0  0  0
  138.6615   71.4138  225.4980 H   0  0  0  0  0  0  0  0  0  0  0  0
  139.6542   69.1898  225.7141 H   0  0  0  0  0  0  0  0  0  0  0  0
  141.4527   69.1717  225.2405 H   0  0  0  0  0  0  0  0  0  0  0  0
  140.7352   67.9382  227.3442 H   0  0  0  0  0  0  0  0  0  0  0  0
  142.1551   69.0162  227.3895 H   0  0  0  0  0  0  0  0  0  0  0  0
  139.3017   69.9059  228.1220 H   0  0  0  0  0  0  0  0  0  0  0  0
  140.4742   69.3872  229.3287 H   0  0  0  0  0  0  0  0  0  0  0  0
  140.4880   71.8886  228.8512 H   0  0  0  0  0  0  0  0  0  0  0  0
  142.0888   71.0423  228.5484 H   0  0  0  0  0  0  0  0  0  0  0  0
  140.4892   72.6433  226.8400 H   0  0  0  0  0  0  0  0  0  0  0  0
  142.1866   71.8793  226.6706 H   0  0  0  0  0  0  0  0  0  0  0  0
  132.1784   70.6137  227.4036 H   0  0  0  0  0  0  0  0  0  0  0  0
  131.0141   72.6744  228.1205 H   0  0  0  0  0  0  0  0  0  0  0  0
  130.9189   74.9964  228.1736 H   0  0  0  0  0  0  0  0  0  0  0  0
  133.9560   77.3441  226.2765 H   0  0  0  0  0  0  0  0  0  0  0  0
  135.1262   75.2790  225.5559 H   0  0  0  0  0  0  0  0  0  0  0  0
  1  2  2  0
  2  3  1  0
  3  4  1  0
  4  5  1  0
  5  6  2  0
  5  7  1  0
  7  8  1  0
  8  9  1  0
  9 10  1  0
 10 11  1  0
 11 12  1  0
 12 13  1  0
 13 14  1  0
 14 15  1  0
 15 16  1  0
 16 17  1  0
 17 18  1  0
  2 19  1  0
 19 20  2  0
 20 21  1  0
 21 22  2  0
 22 23  1  0
 23 24  2  0
 24 25  1  0
 24 26  1  0
 26 27  2  0
 27 28  1  0
 28 29  2  0
 11  7  1  0
 18 13  1  0
 29 19  1  0
 28 22  1  0
  3 30  1  0
  4 31  1  0
  4 32  1  0
  8 33  1  0
  8 34  1  0
  9 35  1  0
  9 36  1  0
 10 37  1  0
 10 38  1  0
 11 39  1  1
 12 40  1  0
 12 41  1  0
 14 42  1  0
 14 43  1  0
 15 44  1  0
 15 45  1  0
 16 46  1  0
 16 47  1  0
 17 48  1  0
 17 49  1  0
 18 50  1  0
 18 51  1  0
 20 52  1  0
 21 53  1  0
 23 54  1  0
 26 55  1  0
 27 56  1  0
M  END
>  <smiles>  (48) 
O=C(NCC(=O)N1CCC[C@H]1CN1CCCCC1)c1ccc2cc(Cl)ccc2n1

>  <score_type>  (48) 
oracle

>  <origin>  (48) 
autodockgpu

>  <m_score__min__energy>  (48) 
-8.3900000000000006

>  <m_primary>  (48) 
energy

>  <rmsd>  (48) 
8.765604137539073

>  <m_score__min__rmsd>  (48) 
8.765604137539073

>  <meeko>  (48) 
{"free_energy": -8.29, "intermolecular_energy": -10.08, "internal_energy": -1.77, "cluster_size": 12, "cluster_id": 1, "rank_in_cluster": 4}

>  <energy>  (48) 
-7.24

>  <cluster_rmsd>  (48) 
1.46

>  <cluster>  (48) 
4

$$$$

     RDKit          3D

 56 59  0  0  0  0  0  0  0  0999 V2000
  138.2280   71.1170  220.8390 O   0  0  0  0  0  0  0  0  0  0  0  0
  138.4930   71.7300  221.9300 C   0  0  0  0  0  0  0  0  0  0  0  0
  138.3810   73.1460  222.0400 N   0  0  0  0  0  0  0  0  0  0  0  0
  137.9660   73.9740  220.9830 C   0  0  0  0  0  0  0  0  0  0  0  0
  138.9140   74.8310  220.2870 C   0  0  0  0  0  0  0  0  0  0  0  0
  139.1380   74.4770  219.0510 O   0  0  0  0  0  0  0  0  0  0  0  0
  139.5940   75.9750  220.8160 N   0  0  0  0  0  0  0  0  0  0  0  0
  139.1080   77.0750  221.5900 C   0  0  0  0  0  0  0  0  0  0  0  0
  140.3700   77.5310  222.3490 C   0  0  0  0  0  0  0  0  0  0  0  0
  141.3650   77.4930  221.1930 C   0  0  0  0  0  0  0  0  0  0  0  0
  141.0500   76.1320  220.5690 C   0  0  1  0  0  0  0  0  0  0  0  0
  141.7920   75.0470  221.3190 C   0  0  0  0  0  0  0  0  0  0  0  0
  142.5270   74.2720  220.3460 N   0  0  0  0  0  0  0  0  0  0  0  0
  142.4460   72.8780  220.4660 C   0  0  0  0  0  0  0  0  0  0  0  0
  143.6830   72.0860  220.1950 C   0  0  0  0  0  0  0  0  0  0  0  0
  144.8410   72.7920  220.8750 C   0  0  0  0  0  0  0  0  0  0  0  0
  144.9960   74.0900  220.1060 C   0  0  0  0  0  0  0  0  0  0  0  0
  143.7420   74.8550  219.9270 C   0  0  0  0  0  0  0  0  0  0  0  0
  138.9200   70.9450  223.0880 C   0  0  0  0  0  0  0  0  0  0  0  0
  138.6670   69.5920  223.1480 C   0  0  0  0  0  0  0  0  0  0  0  0
  139.0420   68.7950  224.2070 C   0  0  0  0  0  0  0  0  0  0  0  0
  139.7060   69.4120  225.2470 C   0  0  0  0  0  0  0  0  0  0  0  0
  140.0810   68.6160  226.3060 C   0  0  0  0  0  0  0  0  0  0  0  0
  140.7470   69.1760  227.3750 C   0  0  0  0  0  0  0  0  0  0  0  0
  141.2340   68.1640  228.7380 Cl  0  0  0  0  0  0  0  0  0  0  0  0
  141.0160   70.5260  227.3440 C   0  0  0  0  0  0  0  0  0  0  0  0
  140.6310   71.3240  226.2650 C   0  0  0  0  0  0  0  0  0  0  0  0
  139.9640   70.7690  225.1940 C   0  0  0  0  0  0  0  0  0  0  0  0
  139.5790   71.5240  224.1340 N   0  0  0  0  0  0  0  0  0  0  0  0
  138.6310   73.5590  222.9780 H   0  0  0  0  0  0  0  0  0  0  0  0
  137.5247   73.3131  220.2224 H   0  0  0  0  0  0  0  0  0  0  0  0
  137.3086   74.6983  221.4862 H   0  0  0  0  0  0  0  0  0  0  0  0
  138.7216   77.8765  220.9432 H   0  0  0  0  0  0  0  0  0  0  0  0
  138.2699   76.8100  222.2513 H   0  0  0  0  0  0  0  0  0  0  0  0
  140.2587   78.5431  222.7652 H   0  0  0  0  0  0  0  0  0  0  0  0
  140.6398   76.9267  223.2277 H   0  0  0  0  0  0  0  0  0  0  0  0
  141.1869   78.3128  220.4816 H   0  0  0  0  0  0  0  0  0  0  0  0
  142.4146   77.6158  221.4985 H   0  0  0  0  0  0  0  0  0  0  0  0
  141.3319   76.0657  219.5078 H   0  0  0  0  0  0  0  0  0  0  0  0
  142.4870   75.4983  222.0423 H   0  0  0  0  0  0  0  0  0  0  0  0
  141.0884   74.4077  221.8724 H   0  0  0  0  0  0  0  0  0  0  0  0
  142.1315   72.6544  221.4961 H   0  0  0  0  0  0  0  0  0  0  0  0
  141.7409   72.5712  219.6795 H   0  0  0  0  0  0  0  0  0  0  0  0
  143.5735   71.0695  220.6010 H   0  0  0  0  0  0  0  0  0  0  0  0
  143.8613   72.0084  219.1123 H   0  0  0  0  0  0  0  0  0  0  0  0
  144.6090   72.9910  221.9317 H   0  0  0  0  0  0  0  0  0  0  0  0
  145.7610   72.1891  220.8693 H   0  0  0  0  0  0  0  0  0  0  0  0
  145.7113   74.7262  220.6478 H   0  0  0  0  0  0  0  0  0  0  0  0
  145.3395   73.8152  219.0978 H   0  0  0  0  0  0  0  0  0  0  0  0
  143.8564   75.7985  220.4809 H   0  0  0  0  0  0  0  0  0  0  0  0
  143.6348   74.9407  218.8356 H   0  0  0  0  0  0  0  0  0  0  0  0
  138.1374   69.1234  222.3054 H   0  0  0  0  0  0  0  0  0  0  0  0
  138.8224   67.7173  224.2227 H   0  0  0  0  0  0  0  0  0  0  0  0
  139.8506   67.5404  226.2990 H   0  0  0  0  0  0  0  0  0  0  0  0
  141.5471   70.9870  228.1898 H   0  0  0  0  0  0  0  0  0  0  0  0
  140.8608   72.3997  226.2696 H   0  0  0  0  0  0  0  0  0  0  0  0
  1  2  2  0
  2  3  1  0
  3  4  1  0
  4  5  1  0
  5  6  2  0
  5  7  1  0
  7  8  1  0
  8  9  1  0
  9 10  1  0
 10 11  1  0
 11 12  1  0
 12 13  1  0
 13 14  1  0
 14 15  1  0
 15 16  1  0
 16 17  1  0
 17 18  1  0
  2 19  1  0
 19 20  2  0
 20 21  1  0
 21 22  2  0
 22 23  1  0
 23 24  2  0
 24 25  1  0
 24 26  1  0
 26 27  2  0
 27 28  1  0
 28 29  2  0
 11  7  1  0
 18 13  1  0
 29 19  1  0
 28 22  1  0
  3 30  1  0
  4 31  1  0
  4 32  1  0
  8 33  1  0
  8 34  1  0
  9 35  1  0
  9 36  1  0
 10 37  1  0
 10 38  1  0
 11 39  1  6
 12 40  1  0
 12 41  1  0
 14 42  1  0
 14 43  1  0
 15 44  1  0
 15 45  1  0
 16 46  1  0
 16 47  1  0
 17 48  1  0
 17 49  1  0
 18 50  1  0
 18 51  1  0
 20 52  1  0
 21 53  1  0
 23 54  1  0
 26 55  1  0
 27 56  1  0
M  END
>  <smiles>  (49) 
O=C(NCC(=O)N1CCC[C@H]1CN1CCCCC1)c1ccc2cc(Cl)ccc2n1

>  <score_type>  (49) 
oracle

>  <origin>  (49) 
autodockgpu

>  <m_score__min__energy>  (49) 
-8.3900000000000006

>  <m_primary>  (49) 
energy

>  <rmsd>  (49) 
4.2366779241969645

>  <m_score__min__rmsd>  (49) 
4.2366779241969645

>  <meeko>  (49) 
{"free_energy": -7.24, "intermolecular_energy": -9.03, "internal_energy": -1.89, "cluster_size": 5, "cluster_id": 4, "rank_in_cluster": 5}

>  <energy>  (49) 
-6.24

>  <cluster_rmsd>  (49) 
0.0

>  <cluster>  (49) 
5

$$$$

     RDKit          3D

 56 59  0  0  0  0  0  0  0  0999 V2000
  139.1990   72.7700  220.4780 O   0  0  0  0  0  0  0  0  0  0  0  0
  140.1090   72.8310  221.3760 C   0  0  0  0  0  0  0  0  0  0  0  0
  141.2200   73.7140  221.2580 N   0  0  0  0  0  0  0  0  0  0  0  0
  141.4040   74.5860  220.1720 C   0  0  0  0  0  0  0  0  0  0  0  0
  140.8170   75.9170  220.1720 C   0  0  0  0  0  0  0  0  0  0  0  0
  141.3310   76.7230  219.2830 O   0  0  0  0  0  0  0  0  0  0  0  0
  139.7740   76.4020  221.0260 N   0  0  0  0  0  0  0  0  0  0  0  0
  138.5030   75.8380  221.3580 C   0  0  0  0  0  0  0  0  0  0  0  0
  138.2130   76.4580  222.7390 C   0  0  0  0  0  0  0  0  0  0  0  0
  138.6120   77.9000  222.4360 C   0  0  0  0  0  0  0  0  0  0  0  0
  139.9530   77.6980  221.7260 C   0  0  1  0  0  0  0  0  0  0  0  0
  141.0530   77.5500  222.7560 C   0  0  0  0  0  0  0  0  0  0  0  0
  141.9260   78.6940  222.6250 N   0  0  0  0  0  0  0  0  0  0  0  0
  142.1600   79.4380  223.7910 C   0  0  0  0  0  0  0  0  0  0  0  0
  142.2400   80.9230  223.6590 C   0  0  0  0  0  0  0  0  0  0  0  0
  141.1120   81.3680  222.7470 C   0  0  0  0  0  0  0  0  0  0  0  0
  141.4820   80.8050  221.3880 C   0  0  0  0  0  0  0  0  0  0  0  0
  141.8310   79.3680  221.3890 C   0  0  0  0  0  0  0  0  0  0  0  0
  139.9910   71.9670  222.5510 C   0  0  0  0  0  0  0  0  0  0  0  0
  139.1810   70.8530  222.5230 C   0  0  0  0  0  0  0  0  0  0  0  0
  139.0260   69.9980  223.5910 C   0  0  0  0  0  0  0  0  0  0  0  0
  139.7340   70.2990  224.7370 C   0  0  0  0  0  0  0  0  0  0  0  0
  139.5800   69.4450  225.8060 C   0  0  0  0  0  0  0  0  0  0  0  0
  140.2600   69.6940  226.9780 C   0  0  0  0  0  0  0  0  0  0  0  0
  140.0710   68.6050  228.3550 Cl  0  0  0  0  0  0  0  0  0  0  0  0
  141.0790   70.8000  227.0380 C   0  0  0  0  0  0  0  0  0  0  0  0
  141.2280   71.6590  225.9480 C   0  0  0  0  0  0  0  0  0  0  0  0
  140.5490   71.4140  224.7740 C   0  0  0  0  0  0  0  0  0  0  0  0
  140.6770   72.2360  223.7010 N   0  0  0  0  0  0  0  0  0  0  0  0
  141.9210   73.6850  222.0450 H   0  0  0  0  0  0  0  0  0  0  0  0
  142.4898   74.7231  220.0615 H   0  0  0  0  0  0  0  0  0  0  0  0
  140.8584   74.0810  219.3612 H   0  0  0  0  0  0  0  0  0  0  0  0
  137.7362   76.1264  220.6239 H   0  0  0  0  0  0  0  0  0  0  0  0
  138.4990   74.7380  221.3617 H   0  0  0  0  0  0  0  0  0  0  0  0
  137.1519   76.3723  223.0159 H   0  0  0  0  0  0  0  0  0  0  0  0
  138.7322   75.9899  223.5883 H   0  0  0  0  0  0  0  0  0  0  0  0
  137.8788   78.3911  221.7793 H   0  0  0  0  0  0  0  0  0  0  0  0
  138.6654   78.5482  223.3231 H   0  0  0  0  0  0  0  0  0  0  0  0
  140.2211   78.5306  221.0590 H   0  0  0  0  0  0  0  0  0  0  0  0
  140.6200   77.5216  223.7668 H   0  0  0  0  0  0  0  0  0  0  0  0
  141.6112   76.6158  222.5959 H   0  0  0  0  0  0  0  0  0  0  0  0
  141.3442   79.2136  224.4939 H   0  0  0  0  0  0  0  0  0  0  0  0
  143.1640   79.1324  224.1206 H   0  0  0  0  0  0  0  0  0  0  0  0
  142.1300   81.3932  224.6473 H   0  0  0  0  0  0  0  0  0  0  0  0
  143.2129   81.2201  223.2405 H   0  0  0  0  0  0  0  0  0  0  0  0
  140.1501   80.9586  223.0892 H   0  0  0  0  0  0  0  0  0  0  0  0
  140.9929   82.4614  222.7298 H   0  0  0  0  0  0  0  0  0  0  0  0
  140.6258   80.9492  220.7126 H   0  0  0  0  0  0  0  0  0  0  0  0
  142.3845   81.3438  221.0636 H   0  0  0  0  0  0  0  0  0  0  0  0
  141.0646   78.8484  220.7951 H   0  0  0  0  0  0  0  0  0  0  0  0
  142.8564   79.3422  220.9916 H   0  0  0  0  0  0  0  0  0  0  0  0
  138.6282   70.6348  221.5974 H   0  0  0  0  0  0  0  0  0  0  0  0
  138.3694   69.1173  223.5337 H   0  0  0  0  0  0  0  0  0  0  0  0
  138.9185   68.5699  225.7248 H   0  0  0  0  0  0  0  0  0  0  0  0
  141.6287   71.0112  227.9671 H   0  0  0  0  0  0  0  0  0  0  0  0
  141.8895   72.5344  226.0263 H   0  0  0  0  0  0  0  0  0  0  0  0
  1  2  2  0
  2  3  1  0
  3  4  1  0
  4  5  1  0
  5  6  2  0
  5  7  1  0
  7  8  1  0
  8  9  1  0
  9 10  1  0
 10 11  1  0
 11 12  1  0
 12 13  1  0
 13 14  1  0
 14 15  1  0
 15 16  1  0
 16 17  1  0
 17 18  1  0
  2 19  1  0
 19 20  2  0
 20 21  1  0
 21 22  2  0
 22 23  1  0
 23 24  2  0
 24 25  1  0
 24 26  1  0
 26 27  2  0
 27 28  1  0
 28 29  2  0
 11  7  1  0
 18 13  1  0
 29 19  1  0
 28 22  1  0
  3 30  1  0
  4 31  1  0
  4 32  1  0
  8 33  1  0
  8 34  1  0
  9 35  1  0
  9 36  1  0
 10 37  1  0
 10 38  1  0
 11 39  1  6
 12 40  1  0
 12 41  1  0
 14 42  1  0
 14 43  1  0
 15 44  1  0
 15 45  1  0
 16 46  1  0
 16 47  1  0
 17 48  1  0
 17 49  1  0
 18 50  1  0
 18 51  1  0
 20 52  1  0
 21 53  1  0
 23 54  1  0
 26 55  1  0
 27 56  1  0
M  END
>  <smiles>  (50) 
O=C(NCC(=O)N1CCC[C@H]1CN1CCCCC1)c1ccc2cc(Cl)ccc2n1

>  <score_type>  (50) 
oracle

>  <origin>  (50) 
autodockgpu

>  <m_score__min__energy>  (50) 
-8.3900000000000006

>  <m_primary>  (50) 
energy

>  <rmsd>  (50) 
2.9471172537011014

>  <m_score__min__rmsd>  (50) 
2.9471172537011014

>  <meeko>  (50) 
{"free_energy": -7.53, "intermolecular_energy": -9.32, "internal_energy": -1.99, "cluster_size": 27, "cluster_id": 2, "rank_in_cluster": 24}

>  <energy>  (50) 
-5.98

>  <cluster_rmsd>  (50) 
0.0

>  <cluster>  (50) 
6

$$$$
