
     RDKit          3D

 56 60  0  0  0  0  0  0  0  0999 V2000
  139.4070   70.9750  219.9860 N   0  0  0  0  0  0  0  0  0  0  0  0
  139.7230   71.1030  221.2300 C   0  0  0  0  0  0  0  0  0  0  0  0
  139.4850   70.1270  222.1390 N   0  0  0  0  0  0  0  0  0  0  0  0
  139.8180   70.2640  223.4450 C   0  0  0  0  0  0  0  0  0  0  0  0
  139.5630   69.2530  224.3130 N   0  0  0  0  0  0  0  0  0  0  0  0
  139.8860   69.3530  225.6320 C   0  0  0  0  0  0  0  0  0  0  0  0
  139.6140   68.2960  226.5060 C   0  0  0  0  0  0  0  0  0  0  0  0
  139.9490   68.4010  227.8580 C   0  0  0  0  0  0  0  0  0  0  0  0
  140.5510   69.5460  228.3470 C   0  0  0  0  0  0  0  0  0  0  0  0
  140.8290   70.6090  227.4850 C   0  0  0  0  0  0  0  0  0  0  0  0
  140.4920   70.4980  226.1370 C   0  0  0  0  0  0  0  0  0  0  0  0
  140.7430   71.5120  225.2390 C   0  0  0  0  0  0  0  0  0  0  0  0
  140.4250   71.4340  223.9040 C   0  0  0  0  0  0  0  0  0  0  0  0
  140.6760   72.4410  222.9970 C   0  0  0  0  0  0  0  0  0  0  0  0
  140.3210   72.2700  221.6540 C   0  0  0  0  0  0  0  0  0  0  0  0
  140.6410   73.3820  220.7710 C   0  0  0  0  0  0  0  0  0  0  0  0
  141.4350   73.0970  219.8070 O   0  0  0  0  0  0  0  0  0  0  0  0
  140.1440   74.6940  220.9180 N   0  0  0  0  0  0  0  0  0  0  0  0
  139.2400   75.1190  221.9660 C   0  0  0  0  0  0  0  0  0  0  0  0
  138.2090   76.1140  221.4040 C   0  0  0  0  0  0  0  0  0  0  0  0
  138.9090   77.2530  220.9660 N   0  0  0  0  0  0  0  0  0  0  0  0
  138.7840   78.4660  221.6670 C   0  0  0  0  0  0  0  0  0  0  0  0
  139.2870   78.4570  223.0870 C   0  0  0  0  0  0  0  0  0  0  0  0
  140.5260   79.3050  223.1710 C   0  0  0  0  0  0  0  0  0  0  0  0
  141.7430   78.6820  222.9070 C   0  0  0  0  0  0  0  0  0  0  0  0
  142.9220   79.3920  222.9610 C   0  0  0  0  0  0  0  0  0  0  0  0
  142.8820   80.7250  223.2780 C   0  0  0  0  0  0  0  0  0  0  0  0
  141.6810   81.3620  223.5440 C   0  0  0  0  0  0  0  0  0  0  0  0
  140.4820   80.6420  223.4900 C   0  0  0  0  0  0  0  0  0  0  0  0
  140.1830   77.1010  220.3780 C   0  0  0  0  0  0  0  0  0  0  0  0
  140.5590   75.7050  219.9660 C   0  0  0  0  0  0  0  0  0  0  0  0
  139.9220   71.5800  219.2990 H   0  0  0  0  0  0  0  0  0  0  0  0
  139.0240   69.2230  221.8190 H   0  0  0  0  0  0  0  0  0  0  0  0
  139.1355   67.3804  226.1283 H   0  0  0  0  0  0  0  0  0  0  0  0
  139.7321   67.5655  228.5398 H   0  0  0  0  0  0  0  0  0  0  0  0
  140.8105   69.6193  229.4134 H   0  0  0  0  0  0  0  0  0  0  0  0
  141.3083   71.5231  227.8653 H   0  0  0  0  0  0  0  0  0  0  0  0
  141.2221   72.4305  225.6089 H   0  0  0  0  0  0  0  0  0  0  0  0
  141.1534   73.3753  223.3273 H   0  0  0  0  0  0  0  0  0  0  0  0
  138.7151   74.2415  222.3717 H   0  0  0  0  0  0  0  0  0  0  0  0
  139.8179   75.6108  222.7624 H   0  0  0  0  0  0  0  0  0  0  0  0
  137.6696   75.6583  220.5605 H   0  0  0  0  0  0  0  0  0  0  0  0
  137.4751   76.3862  222.1768 H   0  0  0  0  0  0  0  0  0  0  0  0
  139.3452   79.2343  221.1150 H   0  0  0  0  0  0  0  0  0  0  0  0
  137.7038   78.6627  221.7338 H   0  0  0  0  0  0  0  0  0  0  0  0
  138.5143   78.8653  223.7549 H   0  0  0  0  0  0  0  0  0  0  0  0
  139.5197   77.4264  223.3931 H   0  0  0  0  0  0  0  0  0  0  0  0
  141.7630   77.6120  222.6527 H   0  0  0  0  0  0  0  0  0  0  0  0
  143.8818   78.8965  222.7528 H   0  0  0  0  0  0  0  0  0  0  0  0
  143.8196   81.2986  223.3219 H   0  0  0  0  0  0  0  0  0  0  0  0
  141.6697   82.4324  223.7974 H   0  0  0  0  0  0  0  0  0  0  0  0
  139.5219   81.1366  223.6989 H   0  0  0  0  0  0  0  0  0  0  0  0
  140.2172   77.7368  219.4810 H   0  0  0  0  0  0  0  0  0  0  0  0
  140.9044   77.3829  221.1591 H   0  0  0  0  0  0  0  0  0  0  0  0
  140.0854   75.4875  218.9973 H   0  0  0  0  0  0  0  0  0  0  0  0
  141.6569   75.6671  219.9089 H   0  0  0  0  0  0  0  0  0  0  0  0
  1  2  2  3
  2  3  1  0
  3  4  1  0
  4  5  2  0
  5  6  1  0
  6  7  2  0
  7  8  1  0
  8  9  2  0
  9 10  1  0
 10 11  2  0
 11 12  1  0
 12 13  2  0
 13 14  1  0
 14 15  2  0
 15 16  1  0
 16 17  2  0
 16 18  1  0
 18 19  1  0
 19 20  1  0
 20 21  1  0
 21 22  1  0
 22 23  1  0
 23 24  1  0
 24 25  2  0
 25 26  1  0
 26 27  2  0
 27 28  1  0
 28 29  2  0
 21 30  1  0
 30 31  1  0
 15  2  1  0
 31 18  1  0
 13  4  1  0
 29 24  1  0
 11  6  1  0
  1 32  1  0
  3 33  1  0
  7 34  1  0
  8 35  1  0
  9 36  1  0
 10 37  1  0
 12 38  1  0
 14 39  1  0
 19 40  1  0
 19 41  1  0
 20 42  1  0
 20 43  1  0
 22 44  1  0
 22 45  1  0
 23 46  1  0
 23 47  1  0
 25 48  1  0
 26 49  1  0
 27 50  1  0
 28 51  1  0
 29 52  1  0
 30 53  1  0
 30 54  1  0
 31 55  1  0
 31 56  1  0
M  END
>  <smiles>  (1) 
N=c1[nH]c2nc3ccccc3cc2cc1C(=O)N1CCN(CCc2ccccc2)CC1

>  <score_type>  (1) 
oracle

>  <origin>  (1) 
autodockgpu

>  <m_score__min__energy>  (1) 
-8.9700000000000006

>  <m_primary>  (1) 
energy

>  <rmsd>  (1) 
9.892586578894464

>  <m_score__min__rmsd>  (1) 
9.892586578894464

>  <meeko>  (1) 
{"free_energy": -8.39, "intermolecular_energy": -9.88, "internal_energy": -1.29, "cluster_size": 41, "cluster_id": 3, "rank_in_cluster": 27}

>  <energy>  (1) 
-8.97

>  <cluster_rmsd>  (1) 
0.0

>  <cluster>  (1) 
1

$$$$

     RDKit          3D

 56 60  0  0  0  0  0  0  0  0999 V2000
  139.4490   70.9870  219.9980 N   0  0  0  0  0  0  0  0  0  0  0  0
  139.7480   71.1130  221.2460 C   0  0  0  0  0  0  0  0  0  0  0  0
  139.5020   70.1330  222.1490 N   0  0  0  0  0  0  0  0  0  0  0  0
  139.8160   70.2680  223.4600 C   0  0  0  0  0  0  0  0  0  0  0  0
  139.5530   69.2530  224.3220 N   0  0  0  0  0  0  0  0  0  0  0  0
  139.8580   69.3500  225.6460 C   0  0  0  0  0  0  0  0  0  0  0  0
  139.5790   68.2900  226.5130 C   0  0  0  0  0  0  0  0  0  0  0  0
  139.8950   68.3920  227.8700 C   0  0  0  0  0  0  0  0  0  0  0  0
  140.4850   69.5390  228.3700 C   0  0  0  0  0  0  0  0  0  0  0  0
  140.7700   70.6050  227.5150 C   0  0  0  0  0  0  0  0  0  0  0  0
  140.4530   70.4960  226.1620 C   0  0  0  0  0  0  0  0  0  0  0  0
  140.7110   71.5150  225.2700 C   0  0  0  0  0  0  0  0  0  0  0  0
  140.4120   71.4390  223.9310 C   0  0  0  0  0  0  0  0  0  0  0  0
  140.6700   72.4500  223.0300 C   0  0  0  0  0  0  0  0  0  0  0  0
  140.3350   72.2810  221.6820 C   0  0  0  0  0  0  0  0  0  0  0  0
  140.6620   73.3970  220.8070 C   0  0  0  0  0  0  0  0  0  0  0  0
  141.4690   73.1180  219.8520 O   0  0  0  0  0  0  0  0  0  0  0  0
  140.1580   74.7060  220.9520 N   0  0  0  0  0  0  0  0  0  0  0  0
  139.2380   75.1250  221.9890 C   0  0  0  0  0  0  0  0  0  0  0  0
  138.2100   76.1180  221.4170 C   0  0  0  0  0  0  0  0  0  0  0  0
  138.9120   77.2610  220.9900 N   0  0  0  0  0  0  0  0  0  0  0  0
  138.7730   78.4710  221.6940 C   0  0  0  0  0  0  0  0  0  0  0  0
  139.2730   78.4640  223.1150 C   0  0  0  0  0  0  0  0  0  0  0  0
  140.5680   79.2270  223.1800 C   0  0  0  0  0  0  0  0  0  0  0  0
  140.4950   80.5780  223.5070 C   0  0  0  0  0  0  0  0  0  0  0  0
  141.6370   81.3430  223.5890 C   0  0  0  0  0  0  0  0  0  0  0  0
  142.8510   80.7550  223.3450 C   0  0  0  0  0  0  0  0  0  0  0  0
  142.9430   79.4110  223.0190 C   0  0  0  0  0  0  0  0  0  0  0  0
  141.7830   78.6330  222.9350 C   0  0  0  0  0  0  0  0  0  0  0  0
  140.1940   77.1150  220.4190 C   0  0  0  0  0  0  0  0  0  0  0  0
  140.5810   75.7220  220.0080 C   0  0  0  0  0  0  0  0  0  0  0  0
  139.9600   71.6070  219.3220 H   0  0  0  0  0  0  0  0  0  0  0  0
  139.0490   69.2280  221.8210 H   0  0  0  0  0  0  0  0  0  0  0  0
  139.1096   67.3735  226.1261 H   0  0  0  0  0  0  0  0  0  0  0  0
  139.6729   67.5535  228.5464 H   0  0  0  0  0  0  0  0  0  0  0  0
  140.7293   69.6110  229.4401 H   0  0  0  0  0  0  0  0  0  0  0  0
  141.2393   71.5205  227.9045 H   0  0  0  0  0  0  0  0  0  0  0  0
  141.1797   72.4351  225.6492 H   0  0  0  0  0  0  0  0  0  0  0  0
  141.1375   73.3861  223.3695 H   0  0  0  0  0  0  0  0  0  0  0  0
  138.7113   74.2443  222.3852 H   0  0  0  0  0  0  0  0  0  0  0  0
  139.8037   75.6172  222.7938 H   0  0  0  0  0  0  0  0  0  0  0  0
  137.6823   75.6626  220.5660 H   0  0  0  0  0  0  0  0  0  0  0  0
  137.4658   76.3857  222.1815 H   0  0  0  0  0  0  0  0  0  0  0  0
  139.3273   79.2465  221.1450 H   0  0  0  0  0  0  0  0  0  0  0  0
  137.6906   78.6561  221.7591 H   0  0  0  0  0  0  0  0  0  0  0  0
  138.5297   78.9417  223.7703 H   0  0  0  0  0  0  0  0  0  0  0  0
  139.4338   77.4281  223.4483 H   0  0  0  0  0  0  0  0  0  0  0  0
  139.5155   81.0390  223.7018 H   0  0  0  0  0  0  0  0  0  0  0  0
  141.5760   82.4107  223.8466 H   0  0  0  0  0  0  0  0  0  0  0  0
  143.7675   81.3599  223.4090 H   0  0  0  0  0  0  0  0  0  0  0  0
  143.9262   78.9568  222.8266 H   0  0  0  0  0  0  0  0  0  0  0  0
  141.8424   77.5652  222.6775 H   0  0  0  0  0  0  0  0  0  0  0  0
  140.2380   77.7536  219.5244 H   0  0  0  0  0  0  0  0  0  0  0  0
  140.9036   77.3969  221.2109 H   0  0  0  0  0  0  0  0  0  0  0  0
  140.1207   75.5054  219.0327 H   0  0  0  0  0  0  0  0  0  0  0  0
  141.6797   75.6889  219.9650 H   0  0  0  0  0  0  0  0  0  0  0  0
  1  2  2  3
  2  3  1  0
  3  4  1  0
  4  5  2  0
  5  6  1  0
  6  7  2  0
  7  8  1  0
  8  9  2  0
  9 10  1  0
 10 11  2  0
 11 12  1  0
 12 13  2  0
 13 14  1  0
 14 15  2  0
 15 16  1  0
 16 17  2  0
 16 18  1  0
 18 19  1  0
 19 20  1  0
 20 21  1  0
 21 22  1  0
 22 23  1  0
 23 24  1  0
 24 25  2  0
 25 26  1  0
 26 27  2  0
 27 28  1  0
 28 29  2  0
 21 30  1  0
 30 31  1  0
 15  2  1  0
 31 18  1  0
 13  4  1  0
 29 24  1  0
 11  6  1  0
  1 32  1  0
  3 33  1  0
  7 34  1  0
  8 35  1  0
  9 36  1  0
 10 37  1  0
 12 38  1  0
 14 39  1  0
 19 40  1  0
 19 41  1  0
 20 42  1  0
 20 43  1  0
 22 44  1  0
 22 45  1  0
 23 46  1  0
 23 47  1  0
 25 48  1  0
 26 49  1  0
 27 50  1  0
 28 51  1  0
 29 52  1  0
 30 53  1  0
 30 54  1  0
 31 55  1  0
 31 56  1  0
M  END
>  <smiles>  (2) 
N=c1[nH]c2nc3ccccc3cc2cc1C(=O)N1CCN(CCc2ccccc2)CC1

>  <score_type>  (2) 
oracle

>  <origin>  (2) 
autodockgpu

>  <m_score__min__energy>  (2) 
-8.9700000000000006

>  <m_primary>  (2) 
energy

>  <rmsd>  (2) 
9.931546915154751

>  <m_score__min__rmsd>  (2) 
9.931546915154751

>  <meeko>  (2) 
{"free_energy": -8.38, "intermolecular_energy": -9.87, "internal_energy": -1.29, "cluster_size": 41, "cluster_id": 3, "rank_in_cluster": 30}

>  <energy>  (2) 
-8.96

>  <cluster_rmsd>  (2) 
0.09

>  <cluster>  (2) 
1

$$$$

     RDKit          3D

 56 60  0  0  0  0  0  0  0  0999 V2000
  139.1510   70.9260  220.0440 N   0  0  0  0  0  0  0  0  0  0  0  0
  139.5210   71.0660  221.2720 C   0  0  0  0  0  0  0  0  0  0  0  0
  139.3000   70.1100  222.2060 N   0  0  0  0  0  0  0  0  0  0  0  0
  139.6900   70.2600  223.4950 C   0  0  0  0  0  0  0  0  0  0  0  0
  139.4490   69.2690  224.3890 N   0  0  0  0  0  0  0  0  0  0  0  0
  139.8300   69.3820  225.6920 C   0  0  0  0  0  0  0  0  0  0  0  0
  139.5720   68.3450  226.5940 C   0  0  0  0  0  0  0  0  0  0  0  0
  139.9650   68.4630  227.9290 C   0  0  0  0  0  0  0  0  0  0  0  0
  140.6110   69.6020  228.3730 C   0  0  0  0  0  0  0  0  0  0  0  0
  140.8750   70.6450  227.4830 C   0  0  0  0  0  0  0  0  0  0  0  0
  140.4800   70.5210  226.1530 C   0  0  0  0  0  0  0  0  0  0  0  0
  140.7150   71.5160  225.2280 C   0  0  0  0  0  0  0  0  0  0  0  0
  140.3400   71.4230  223.9090 C   0  0  0  0  0  0  0  0  0  0  0  0
  140.5750   72.4110  222.9750 C   0  0  0  0  0  0  0  0  0  0  0  0
  140.1610   72.2260  221.6520 C   0  0  0  0  0  0  0  0  0  0  0  0
  140.4670   73.3170  220.7380 C   0  0  0  0  0  0  0  0  0  0  0  0
  141.1990   72.9960  219.7360 O   0  0  0  0  0  0  0  0  0  0  0  0
  140.0210   74.6450  220.8940 N   0  0  0  0  0  0  0  0  0  0  0  0
  139.1880   75.1120  221.9830 C   0  0  0  0  0  0  0  0  0  0  0  0
  138.1590   76.1330  221.4640 C   0  0  0  0  0  0  0  0  0  0  0  0
  138.8700   77.2440  220.9730 N   0  0  0  0  0  0  0  0  0  0  0  0
  138.8210   78.4680  221.6650 C   0  0  0  0  0  0  0  0  0  0  0  0
  139.3100   78.4370  223.0900 C   0  0  0  0  0  0  0  0  0  0  0  0
  140.5390   79.2950  223.2030 C   0  0  0  0  0  0  0  0  0  0  0  0
  141.7670   78.6800  222.9780 C   0  0  0  0  0  0  0  0  0  0  0  0
  142.9390   79.4000  223.0610 C   0  0  0  0  0  0  0  0  0  0  0  0
  142.8790   80.7350  223.3680 C   0  0  0  0  0  0  0  0  0  0  0  0
  141.6660   81.3640  223.5950 C   0  0  0  0  0  0  0  0  0  0  0  0
  140.4750   80.6330  223.5120 C   0  0  0  0  0  0  0  0  0  0  0  0
  140.1050   77.0440  220.3210 C   0  0  0  0  0  0  0  0  0  0  0  0
  140.4150   75.6320  219.9080 C   0  0  0  0  0  0  0  0  0  0  0  0
  139.6590   71.4970  219.3250 H   0  0  0  0  0  0  0  0  0  0  0  0
  138.8070   69.2120  221.9200 H   0  0  0  0  0  0  0  0  0  0  0  0
  139.0585   67.4345  226.2514 H   0  0  0  0  0  0  0  0  0  0  0  0
  139.7589   67.6432  228.6329 H   0  0  0  0  0  0  0  0  0  0  0  0
  140.9166   69.6864  229.4263 H   0  0  0  0  0  0  0  0  0  0  0  0
  141.3890   71.5542  227.8282 H   0  0  0  0  0  0  0  0  0  0  0  0
  141.2281   72.4297  225.5623 H   0  0  0  0  0  0  0  0  0  0  0  0
  141.0855   73.3398  223.2696 H   0  0  0  0  0  0  0  0  0  0  0  0
  138.6587   74.2567  222.4284 H   0  0  0  0  0  0  0  0  0  0  0  0
  139.8235   75.5952  222.7398 H   0  0  0  0  0  0  0  0  0  0  0  0
  137.5603   75.6848  220.6573 H   0  0  0  0  0  0  0  0  0  0  0  0
  137.4771   76.4378  222.2715 H   0  0  0  0  0  0  0  0  0  0  0  0
  139.4373   79.1926  221.1126 H   0  0  0  0  0  0  0  0  0  0  0  0
  137.7557   78.7365  221.7210 H   0  0  0  0  0  0  0  0  0  0  0  0
  138.5265   78.8249  223.7576 H   0  0  0  0  0  0  0  0  0  0  0  0
  139.5500   77.4031  223.3787 H   0  0  0  0  0  0  0  0  0  0  0  0
  141.8024   77.6086  222.7315 H   0  0  0  0  0  0  0  0  0  0  0  0
  143.9082   78.9110  222.8836 H   0  0  0  0  0  0  0  0  0  0  0  0
  143.8103   81.3165  223.4352 H   0  0  0  0  0  0  0  0  0  0  0  0
  141.6386   82.4360  223.8401 H   0  0  0  0  0  0  0  0  0  0  0  0
  139.5053   81.1205  223.6908 H   0  0  0  0  0  0  0  0  0  0  0  0
  140.1115   77.6680  219.4152 H   0  0  0  0  0  0  0  0  0  0  0  0
  140.8752   77.3112  221.0595 H   0  0  0  0  0  0  0  0  0  0  0  0
  139.8834   75.4185  218.9690 H   0  0  0  0  0  0  0  0  0  0  0  0
  141.5065   75.5591  219.7931 H   0  0  0  0  0  0  0  0  0  0  0  0
  1  2  2  3
  2  3  1  0
  3  4  1  0
  4  5  2  0
  5  6  1  0
  6  7  2  0
  7  8  1  0
  8  9  2  0
  9 10  1  0
 10 11  2  0
 11 12  1  0
 12 13  2  0
 13 14  1  0
 14 15  2  0
 15 16  1  0
 16 17  2  0
 16 18  1  0
 18 19  1  0
 19 20  1  0
 20 21  1  0
 21 22  1  0
 22 23  1  0
 23 24  1  0
 24 25  2  0
 25 26  1  0
 26 27  2  0
 27 28  1  0
 28 29  2  0
 21 30  1  0
 30 31  1  0
 15  2  1  0
 31 18  1  0
 13  4  1  0
 29 24  1  0
 11  6  1  0
  1 32  1  0
  3 33  1  0
  7 34  1  0
  8 35  1  0
  9 36  1  0
 10 37  1  0
 12 38  1  0
 14 39  1  0
 19 40  1  0
 19 41  1  0
 20 42  1  0
 20 43  1  0
 22 44  1  0
 22 45  1  0
 23 46  1  0
 23 47  1  0
 25 48  1  0
 26 49  1  0
 27 50  1  0
 28 51  1  0
 29 52  1  0
 30 53  1  0
 30 54  1  0
 31 55  1  0
 31 56  1  0
M  END
>  <smiles>  (3) 
N=c1[nH]c2nc3ccccc3cc2cc1C(=O)N1CCN(CCc2ccccc2)CC1

>  <score_type>  (3) 
oracle

>  <origin>  (3) 
autodockgpu

>  <m_score__min__energy>  (3) 
-8.9700000000000006

>  <m_primary>  (3) 
energy

>  <rmsd>  (3) 
9.88690993352255

>  <m_score__min__rmsd>  (3) 
9.88690993352255

>  <meeko>  (3) 
{"free_energy": -8.4, "intermolecular_energy": -9.9, "internal_energy": -1.28, "cluster_size": 41, "cluster_id": 3, "rank_in_cluster": 10}

>  <energy>  (3) 
-8.96

>  <cluster_rmsd>  (3) 
0.08

>  <cluster>  (3) 
1

$$$$

     RDKit          3D

 56 60  0  0  0  0  0  0  0  0999 V2000
  138.5480   71.1970  220.2390 N   0  0  0  0  0  0  0  0  0  0  0  0
  139.0430   71.3050  221.4250 C   0  0  0  0  0  0  0  0  0  0  0  0
  138.8930   70.3380  222.3610 N   0  0  0  0  0  0  0  0  0  0  0  0
  139.4140   70.4540  223.6070 C   0  0  0  0  0  0  0  0  0  0  0  0
  139.2380   69.4520  224.5040 N   0  0  0  0  0  0  0  0  0  0  0  0
  139.7500   69.5310  225.7640 C   0  0  0  0  0  0  0  0  0  0  0  0
  139.5570   68.4850  226.6700 C   0  0  0  0  0  0  0  0  0  0  0  0
  140.0850   68.5690  227.9610 C   0  0  0  0  0  0  0  0  0  0  0  0
  140.8020   69.6830  228.3560 C   0  0  0  0  0  0  0  0  0  0  0  0
  141.0030   70.7350  227.4610 C   0  0  0  0  0  0  0  0  0  0  0  0
  140.4740   70.6450  226.1750 C   0  0  0  0  0  0  0  0  0  0  0  0
  140.6410   71.6510  225.2480 C   0  0  0  0  0  0  0  0  0  0  0  0
  140.1330   71.5930  223.9720 C   0  0  0  0  0  0  0  0  0  0  0  0
  140.2980   72.5920  223.0350 C   0  0  0  0  0  0  0  0  0  0  0  0
  139.7490   72.4420  221.7580 C   0  0  0  0  0  0  0  0  0  0  0  0
  139.9900   73.5420  220.8350 C   0  0  0  0  0  0  0  0  0  0  0  0
  140.5980   73.2190  219.7550 O   0  0  0  0  0  0  0  0  0  0  0  0
  139.6070   74.8800  221.0620 N   0  0  0  0  0  0  0  0  0  0  0  0
  138.9120   75.3480  222.2440 C   0  0  0  0  0  0  0  0  0  0  0  0
  137.8680   76.4120  221.8570 C   0  0  0  0  0  0  0  0  0  0  0  0
  138.5580   77.5100  221.3120 N   0  0  0  0  0  0  0  0  0  0  0  0
  138.6240   78.7200  222.0260 C   0  0  0  0  0  0  0  0  0  0  0  0
  139.2550   78.6430  223.3910 C   0  0  0  0  0  0  0  0  0  0  0  0
  140.5870   79.3400  223.3540 C   0  0  0  0  0  0  0  0  0  0  0  0
  140.6260   80.6620  223.7860 C   0  0  0  0  0  0  0  0  0  0  0  0
  141.8090   81.3680  223.7840 C   0  0  0  0  0  0  0  0  0  0  0  0
  142.9520   80.7480  223.3510 C   0  0  0  0  0  0  0  0  0  0  0  0
  142.9330   79.4320  222.9170 C   0  0  0  0  0  0  0  0  0  0  0  0
  141.7320   78.7140  222.9190 C   0  0  0  0  0  0  0  0  0  0  0  0
  139.7080   77.2860  220.5250 C   0  0  0  0  0  0  0  0  0  0  0  0
  139.9250   75.8740  220.0560 C   0  0  0  0  0  0  0  0  0  0  0  0
  138.9890   71.7780  219.4850 H   0  0  0  0  0  0  0  0  0  0  0  0
  138.3500   69.4570  222.1130 H   0  0  0  0  0  0  0  0  0  0  0  0
  138.9883   67.5937  226.3664 H   0  0  0  0  0  0  0  0  0  0  0  0
  139.9288   67.7417  228.6690 H   0  0  0  0  0  0  0  0  0  0  0  0
  141.2136   69.7403  229.3745 H   0  0  0  0  0  0  0  0  0  0  0  0
  141.5725   71.6249  227.7673 H   0  0  0  0  0  0  0  0  0  0  0  0
  141.2093   72.5451  225.5440 H   0  0  0  0  0  0  0  0  0  0  0  0
  140.8591   73.5027  223.2915 H   0  0  0  0  0  0  0  0  0  0  0  0
  138.4052   74.5000  222.7279 H   0  0  0  0  0  0  0  0  0  0  0  0
  139.6404   75.7936  222.9374 H   0  0  0  0  0  0  0  0  0  0  0  0
  137.1716   75.9999  221.1119 H   0  0  0  0  0  0  0  0  0  0  0  0
  137.2877   76.7209  222.7389 H   0  0  0  0  0  0  0  0  0  0  0  0
  139.2056   79.4348  221.4254 H   0  0  0  0  0  0  0  0  0  0  0  0
  137.5804   79.0231  222.1965 H   0  0  0  0  0  0  0  0  0  0  0  0
  138.6020   79.1341  224.1275 H   0  0  0  0  0  0  0  0  0  0  0  0
  139.3941   77.5901  223.6776 H   0  0  0  0  0  0  0  0  0  0  0  0
  139.7025   81.1486  224.1328 H   0  0  0  0  0  0  0  0  0  0  0  0
  141.8358   82.4135  224.1248 H   0  0  0  0  0  0  0  0  0  0  0  0
  143.9008   81.3045  223.3479 H   0  0  0  0  0  0  0  0  0  0  0  0
  143.8608   78.9526  222.5714 H   0  0  0  0  0  0  0  0  0  0  0  0
  141.7040   77.6682  222.5790 H   0  0  0  0  0  0  0  0  0  0  0  0
  139.6362   77.9283  219.6349 H   0  0  0  0  0  0  0  0  0  0  0  0
  140.5623   77.5141  221.1793 H   0  0  0  0  0  0  0  0  0  0  0  0
  139.2885   75.6966  219.1765 H   0  0  0  0  0  0  0  0  0  0  0  0
  140.9947   75.7695  219.8217 H   0  0  0  0  0  0  0  0  0  0  0  0
  1  2  2  3
  2  3  1  0
  3  4  1  0
  4  5  2  0
  5  6  1  0
  6  7  2  0
  7  8  1  0
  8  9  2  0
  9 10  1  0
 10 11  2  0
 11 12  1  0
 12 13  2  0
 13 14  1  0
 14 15  2  0
 15 16  1  0
 16 17  2  0
 16 18  1  0
 18 19  1  0
 19 20  1  0
 20 21  1  0
 21 22  1  0
 22 23  1  0
 23 24  1  0
 24 25  2  0
 25 26  1  0
 26 27  2  0
 27 28  1  0
 28 29  2  0
 21 30  1  0
 30 31  1  0
 15  2  1  0
 31 18  1  0
 13  4  1  0
 29 24  1  0
 11  6  1  0
  1 32  1  0
  3 33  1  0
  7 34  1  0
  8 35  1  0
  9 36  1  0
 10 37  1  0
 12 38  1  0
 14 39  1  0
 19 40  1  0
 19 41  1  0
 20 42  1  0
 20 43  1  0
 22 44  1  0
 22 45  1  0
 23 46  1  0
 23 47  1  0
 25 48  1  0
 26 49  1  0
 27 50  1  0
 28 51  1  0
 29 52  1  0
 30 53  1  0
 30 54  1  0
 31 55  1  0
 31 56  1  0
M  END
>  <smiles>  (4) 
N=c1[nH]c2nc3ccccc3cc2cc1C(=O)N1CCN(CCc2ccccc2)CC1

>  <score_type>  (4) 
oracle

>  <origin>  (4) 
autodockgpu

>  <m_score__min__energy>  (4) 
-8.9700000000000006

>  <m_primary>  (4) 
energy

>  <rmsd>  (4) 
9.929254608113364

>  <m_score__min__rmsd>  (4) 
9.929254608113364

>  <meeko>  (4) 
{"free_energy": -8.3, "intermolecular_energy": -9.79, "internal_energy": -1.29, "cluster_size": 41, "cluster_id": 3, "rank_in_cluster": 38}

>  <energy>  (4) 
-8.94

>  <cluster_rmsd>  (4) 
0.09

>  <cluster>  (4) 
1

$$$$

     RDKit          3D

 56 60  0  0  0  0  0  0  0  0999 V2000
  133.1880   68.8450  226.2570 N   0  0  0  0  0  0  0  0  0  0  0  0
  133.4010   70.1080  226.1010 C   0  0  0  0  0  0  0  0  0  0  0  0
  132.7070   71.0460  226.7880 N   0  0  0  0  0  0  0  0  0  0  0  0
  132.9310   72.3720  226.6230 C   0  0  0  0  0  0  0  0  0  0  0  0
  132.2120   73.2700  227.3410 N   0  0  0  0  0  0  0  0  0  0  0  0
  132.4120   74.6110  227.2040 C   0  0  0  0  0  0  0  0  0  0  0  0
  131.6590   75.5160  227.9570 C   0  0  0  0  0  0  0  0  0  0  0  0
  131.8690   76.8900  227.8160 C   0  0  0  0  0  0  0  0  0  0  0  0
  132.8190   77.3690  226.9330 C   0  0  0  0  0  0  0  0  0  0  0  0
  133.5790   76.4760  226.1760 C   0  0  0  0  0  0  0  0  0  0  0  0
  133.3650   75.1070  226.3210 C   0  0  0  0  0  0  0  0  0  0  0  0
  134.0860   74.1780  225.6020 C   0  0  0  0  0  0  0  0  0  0  0  0
  133.9000   72.8210  225.7230 C   0  0  0  0  0  0  0  0  0  0  0  0
  134.6180   71.8830  225.0120 C   0  0  0  0  0  0  0  0  0  0  0  0
  134.3630   70.5210  225.2060 C   0  0  0  0  0  0  0  0  0  0  0  0
  135.1830   69.6090  224.4210 C   0  0  0  0  0  0  0  0  0  0  0  0
  134.6360   68.4810  224.1560 O   0  0  0  0  0  0  0  0  0  0  0  0
  136.4860   69.8920  223.9620 N   0  0  0  0  0  0  0  0  0  0  0  0
  137.1910   71.1350  224.2010 C   0  0  0  0  0  0  0  0  0  0  0  0
  137.9950   71.5360  222.9510 C   0  0  0  0  0  0  0  0  0  0  0  0
  138.9630   70.5390  222.7270 N   0  0  0  0  0  0  0  0  0  0  0  0
  140.3240   70.8240  222.9400 C   0  0  0  0  0  0  0  0  0  0  0  0
  140.6230   71.8140  224.0350 C   0  0  0  0  0  0  0  0  0  0  0  0
  140.6660   71.0880  225.3510 C   0  0  0  0  0  0  0  0  0  0  0  0
  140.8200   71.8610  226.4990 C   0  0  0  0  0  0  0  0  0  0  0  0
  140.8650   71.2700  227.7430 C   0  0  0  0  0  0  0  0  0  0  0  0
  140.7560   69.9060  227.8360 C   0  0  0  0  0  0  0  0  0  0  0  0
  140.6020   69.1220  226.7040 C   0  0  0  0  0  0  0  0  0  0  0  0
  140.5560   69.7210  225.4400 C   0  0  0  0  0  0  0  0  0  0  0  0
  138.6460   69.1910  222.9990 C   0  0  0  0  0  0  0  0  0  0  0  0
  137.1890   68.8800  223.1990 C   0  0  0  0  0  0  0  0  0  0  0  0
  133.5060   68.2100  225.4840 H   0  0  0  0  0  0  0  0  0  0  0  0
  131.9620   70.7350  227.4820 H   0  0  0  0  0  0  0  0  0  0  0  0
  130.8998   75.1460  228.6618 H   0  0  0  0  0  0  0  0  0  0  0  0
  131.2735   77.5967  228.4125 H   0  0  0  0  0  0  0  0  0  0  0  0
  132.9757   78.4526  226.8272 H   0  0  0  0  0  0  0  0  0  0  0  0
  134.3383   76.8489  225.4729 H   0  0  0  0  0  0  0  0  0  0  0  0
  134.8481   74.5402  224.8963 H   0  0  0  0  0  0  0  0  0  0  0  0
  135.3881   72.2041  224.2952 H   0  0  0  0  0  0  0  0  0  0  0  0
  136.4638   71.9265  224.4352 H   0  0  0  0  0  0  0  0  0  0  0  0
  137.8824   71.0000  225.0458 H   0  0  0  0  0  0  0  0  0  0  0  0
  137.3246   71.6094  222.0820 H   0  0  0  0  0  0  0  0  0  0  0  0
  138.4763   72.5139  223.0997 H   0  0  0  0  0  0  0  0  0  0  0  0
  140.8312   69.8805  223.1903 H   0  0  0  0  0  0  0  0  0  0  0  0
  140.6806   71.2907  222.0099 H   0  0  0  0  0  0  0  0  0  0  0  0
  141.5955   72.2918  223.8451 H   0  0  0  0  0  0  0  0  0  0  0  0
  139.8409   72.5870  224.0617 H   0  0  0  0  0  0  0  0  0  0  0  0
  140.9066   72.9541  226.4119 H   0  0  0  0  0  0  0  0  0  0  0  0
  140.9866   71.8832  228.6481 H   0  0  0  0  0  0  0  0  0  0  0  0
  140.7914   69.4266  228.8254 H   0  0  0  0  0  0  0  0  0  0  0  0
  140.5160   68.0295  226.7987 H   0  0  0  0  0  0  0  0  0  0  0  0
  140.4340   69.1088  224.5343 H   0  0  0  0  0  0  0  0  0  0  0  0
  139.0060   68.5845  222.1548 H   0  0  0  0  0  0  0  0  0  0  0  0
  139.1308   68.9623  223.9596 H   0  0  0  0  0  0  0  0  0  0  0  0
  136.7119   68.7930  222.2117 H   0  0  0  0  0  0  0  0  0  0  0  0
  137.1317   67.9423  223.7713 H   0  0  0  0  0  0  0  0  0  0  0  0
  1  2  2  3
  2  3  1  0
  3  4  1  0
  4  5  2  0
  5  6  1  0
  6  7  2  0
  7  8  1  0
  8  9  2  0
  9 10  1  0
 10 11  2  0
 11 12  1  0
 12 13  2  0
 13 14  1  0
 14 15  2  0
 15 16  1  0
 16 17  2  0
 16 18  1  0
 18 19  1  0
 19 20  1  0
 20 21  1  0
 21 22  1  0
 22 23  1  0
 23 24  1  0
 24 25  2  0
 25 26  1  0
 26 27  2  0
 27 28  1  0
 28 29  2  0
 21 30  1  0
 30 31  1  0
 15  2  1  0
 31 18  1  0
 13  4  1  0
 29 24  1  0
 11  6  1  0
  1 32  1  0
  3 33  1  0
  7 34  1  0
  8 35  1  0
  9 36  1  0
 10 37  1  0
 12 38  1  0
 14 39  1  0
 19 40  1  0
 19 41  1  0
 20 42  1  0
 20 43  1  0
 22 44  1  0
 22 45  1  0
 23 46  1  0
 23 47  1  0
 25 48  1  0
 26 49  1  0
 27 50  1  0
 28 51  1  0
 29 52  1  0
 30 53  1  0
 30 54  1  0
 31 55  1  0
 31 56  1  0
M  END
>  <smiles>  (5) 
N=c1[nH]c2nc3ccccc3cc2cc1C(=O)N1CCN(CCc2ccccc2)CC1

>  <score_type>  (5) 
oracle

>  <origin>  (5) 
autodockgpu

>  <m_score__min__energy>  (5) 
-8.9700000000000006

>  <m_primary>  (5) 
energy

>  <rmsd>  (5) 
8.150228772721073

>  <m_score__min__rmsd>  (5) 
8.150228772721073

>  <meeko>  (5) 
{"free_energy": -8.7, "intermolecular_energy": -10.19, "internal_energy": -1.04, "cluster_size": 2, "cluster_id": 2, "rank_in_cluster": 1}

>  <energy>  (5) 
-8.7

>  <cluster_rmsd>  (5) 
0.0

>  <cluster>  (5) 
2

$$$$

     RDKit          3D

 56 60  0  0  0  0  0  0  0  0999 V2000
  139.3740   70.9860  219.9930 N   0  0  0  0  0  0  0  0  0  0  0  0
  139.6860   71.1120  221.2380 C   0  0  0  0  0  0  0  0  0  0  0  0
  139.4430   70.1350  222.1440 N   0  0  0  0  0  0  0  0  0  0  0  0
  139.7720   70.2690  223.4520 C   0  0  0  0  0  0  0  0  0  0  0  0
  139.5120   69.2570  224.3170 N   0  0  0  0  0  0  0  0  0  0  0  0
  139.8320   69.3540  225.6380 C   0  0  0  0  0  0  0  0  0  0  0  0
  139.5540   68.2970  226.5090 C   0  0  0  0  0  0  0  0  0  0  0  0
  139.8860   68.3980  227.8630 C   0  0  0  0  0  0  0  0  0  0  0  0
  140.4890   69.5410  228.3550 C   0  0  0  0  0  0  0  0  0  0  0  0
  140.7720   70.6050  227.4960 C   0  0  0  0  0  0  0  0  0  0  0  0
  140.4390   70.4960  226.1470 C   0  0  0  0  0  0  0  0  0  0  0  0
  140.6950   71.5120  225.2510 C   0  0  0  0  0  0  0  0  0  0  0  0
  140.3810   71.4370  223.9150 C   0  0  0  0  0  0  0  0  0  0  0  0
  140.6370   72.4450  223.0100 C   0  0  0  0  0  0  0  0  0  0  0  0
  140.2860   72.2760  221.6660 C   0  0  0  0  0  0  0  0  0  0  0  0
  140.6110   73.3890  220.7850 C   0  0  0  0  0  0  0  0  0  0  0  0
  141.4010   73.1020  219.8180 O   0  0  0  0  0  0  0  0  0  0  0  0
  140.1230   74.7040  220.9380 N   0  0  0  0  0  0  0  0  0  0  0  0
  139.2240   75.1320  221.9900 C   0  0  0  0  0  0  0  0  0  0  0  0
  138.1980   76.1360  221.4340 C   0  0  0  0  0  0  0  0  0  0  0  0
  138.9050   77.2710  220.9970 N   0  0  0  0  0  0  0  0  0  0  0  0
  138.7900   78.4820  221.7030 C   0  0  0  0  0  0  0  0  0  0  0  0
  139.2970   78.4660  223.1210 C   0  0  0  0  0  0  0  0  0  0  0  0
  140.5400   79.3080  223.2050 C   0  0  0  0  0  0  0  0  0  0  0  0
  141.7560   78.6730  222.9650 C   0  0  0  0  0  0  0  0  0  0  0  0
  142.9390   79.3770  223.0210 C   0  0  0  0  0  0  0  0  0  0  0  0
  142.9030   80.7160  223.3150 C   0  0  0  0  0  0  0  0  0  0  0  0
  141.7030   81.3640  223.5560 C   0  0  0  0  0  0  0  0  0  0  0  0
  140.5000   80.6500  223.5000 C   0  0  0  0  0  0  0  0  0  0  0  0
  140.1770   77.1120  220.4060 C   0  0  0  0  0  0  0  0  0  0  0  0
  140.5430   75.7150  219.9880 C   0  0  0  0  0  0  0  0  0  0  0  0
  139.9030   71.5790  219.3070 H   0  0  0  0  0  0  0  0  0  0  0  0
  138.9810   69.2330  221.8220 H   0  0  0  0  0  0  0  0  0  0  0  0
  139.0730   67.3839  226.1283 H   0  0  0  0  0  0  0  0  0  0  0  0
  139.6658   67.5616  228.5426 H   0  0  0  0  0  0  0  0  0  0  0  0
  140.7456   69.6121  229.4223 H   0  0  0  0  0  0  0  0  0  0  0  0
  141.2517   71.5177  227.8792 H   0  0  0  0  0  0  0  0  0  0  0  0
  141.1747   72.4289  225.6241 H   0  0  0  0  0  0  0  0  0  0  0  0
  141.1151   73.3780  223.3430 H   0  0  0  0  0  0  0  0  0  0  0  0
  138.6942   74.2568  222.3942 H   0  0  0  0  0  0  0  0  0  0  0  0
  139.8073   75.6174  222.7863 H   0  0  0  0  0  0  0  0  0  0  0  0
  137.6527   75.6866  220.5910 H   0  0  0  0  0  0  0  0  0  0  0  0
  137.4683   76.4112  222.2098 H   0  0  0  0  0  0  0  0  0  0  0  0
  139.3542   79.2487  221.1517 H   0  0  0  0  0  0  0  0  0  0  0  0
  137.7111   78.6843  221.7743 H   0  0  0  0  0  0  0  0  0  0  0  0
  138.5279   78.8754  223.7925 H   0  0  0  0  0  0  0  0  0  0  0  0
  139.5261   77.4333  223.4225 H   0  0  0  0  0  0  0  0  0  0  0  0
  141.7721   77.5989  222.7284 H   0  0  0  0  0  0  0  0  0  0  0  0
  143.8982   78.8725  222.8327 H   0  0  0  0  0  0  0  0  0  0  0  0
  143.8433   81.2851  223.3602 H   0  0  0  0  0  0  0  0  0  0  0  0
  141.6951   82.4385  223.7912 H   0  0  0  0  0  0  0  0  0  0  0  0
  139.5404   81.1537  223.6886 H   0  0  0  0  0  0  0  0  0  0  0  0
  140.2140   77.7509  219.5113 H   0  0  0  0  0  0  0  0  0  0  0  0
  140.9016   77.3857  221.1871 H   0  0  0  0  0  0  0  0  0  0  0  0
  140.0658   75.5039  219.0196 H   0  0  0  0  0  0  0  0  0  0  0  0
  141.6404   75.6698  219.9278 H   0  0  0  0  0  0  0  0  0  0  0  0
  1  2  2  3
  2  3  1  0
  3  4  1  0
  4  5  2  0
  5  6  1  0
  6  7  2  0
  7  8  1  0
  8  9  2  0
  9 10  1  0
 10 11  2  0
 11 12  1  0
 12 13  2  0
 13 14  1  0
 14 15  2  0
 15 16  1  0
 16 17  2  0
 16 18  1  0
 18 19  1  0
 19 20  1  0
 20 21  1  0
 21 22  1  0
 22 23  1  0
 23 24  1  0
 24 25  2  0
 25 26  1  0
 26 27  2  0
 27 28  1  0
 28 29  2  0
 21 30  1  0
 30 31  1  0
 15  2  1  0
 31 18  1  0
 13  4  1  0
 29 24  1  0
 11  6  1  0
  1 32  1  0
  3 33  1  0
  7 34  1  0
  8 35  1  0
  9 36  1  0
 10 37  1  0
 12 38  1  0
 14 39  1  0
 19 40  1  0
 19 41  1  0
 20 42  1  0
 20 43  1  0
 22 44  1  0
 22 45  1  0
 23 46  1  0
 23 47  1  0
 25 48  1  0
 26 49  1  0
 27 50  1  0
 28 51  1  0
 29 52  1  0
 30 53  1  0
 30 54  1  0
 31 55  1  0
 31 56  1  0
M  END
>  <smiles>  (6) 
N=c1[nH]c2nc3ccccc3cc2cc1C(=O)N1CCN(CCc2ccccc2)CC1

>  <score_type>  (6) 
oracle

>  <origin>  (6) 
autodockgpu

>  <m_score__min__energy>  (6) 
-8.9700000000000006

>  <m_primary>  (6) 
energy

>  <rmsd>  (6) 
9.89448469916826

>  <m_score__min__rmsd>  (6) 
9.89448469916826

>  <meeko>  (6) 
{"free_energy": -8.38, "intermolecular_energy": -9.87, "internal_energy": -1.29, "cluster_size": 41, "cluster_id": 3, "rank_in_cluster": 32}

>  <energy>  (6) 
-8.67

>  <cluster_rmsd>  (6) 
0.1

>  <cluster>  (6) 
2

$$$$

     RDKit          3D

 56 60  0  0  0  0  0  0  0  0999 V2000
  141.1040   73.0770  221.3100 N   0  0  0  0  0  0  0  0  0  0  0  0
  140.5500   74.1870  221.6620 C   0  0  0  0  0  0  0  0  0  0  0  0
  141.2560   75.3340  221.8010 N   0  0  0  0  0  0  0  0  0  0  0  0
  140.6710   76.4990  222.1700 C   0  0  0  0  0  0  0  0  0  0  0  0
  141.4240   77.6210  222.2890 N   0  0  0  0  0  0  0  0  0  0  0  0
  140.8710   78.8110  222.6550 C   0  0  0  0  0  0  0  0  0  0  0  0
  141.6670   79.9540  222.7680 C   0  0  0  0  0  0  0  0  0  0  0  0
  141.0960   81.1730  223.1420 C   0  0  0  0  0  0  0  0  0  0  0  0
  139.7420   81.2640  223.4030 C   0  0  0  0  0  0  0  0  0  0  0  0
  138.9330   80.1310  223.2930 C   0  0  0  0  0  0  0  0  0  0  0  0
  139.5100   78.9180  222.9200 C   0  0  0  0  0  0  0  0  0  0  0  0
  138.7630   77.7660  222.7930 C   0  0  0  0  0  0  0  0  0  0  0  0
  139.3000   76.5550  222.4260 C   0  0  0  0  0  0  0  0  0  0  0  0
  138.5610   75.3990  222.2920 C   0  0  0  0  0  0  0  0  0  0  0  0
  139.1940   74.2120  221.9080 C   0  0  0  0  0  0  0  0  0  0  0  0
  138.3270   73.0490  221.7780 C   0  0  0  0  0  0  0  0  0  0  0  0
  137.4050   73.1560  220.8960 O   0  0  0  0  0  0  0  0  0  0  0  0
  138.4470   71.8690  222.5410 N   0  0  0  0  0  0  0  0  0  0  0  0
  139.4550   71.6430  223.5560 C   0  0  0  0  0  0  0  0  0  0  0  0
  139.9490   70.1860  223.4980 C   0  0  0  0  0  0  0  0  0  0  0  0
  138.8550   69.3520  223.7970 N   0  0  0  0  0  0  0  0  0  0  0  0
  138.8250   68.6460  225.0140 C   0  0  0  0  0  0  0  0  0  0  0  0
  140.1330   68.5650  225.7580 C   0  0  0  0  0  0  0  0  0  0  0  0
  140.2690   69.7750  226.6400 C   0  0  0  0  0  0  0  0  0  0  0  0
  139.5140   69.7980  227.8090 C   0  0  0  0  0  0  0  0  0  0  0  0
  139.5860   70.8710  228.6710 C   0  0  0  0  0  0  0  0  0  0  0  0
  140.4140   71.9180  228.3610 C   0  0  0  0  0  0  0  0  0  0  0  0
  141.1730   71.9120  227.2020 C   0  0  0  0  0  0  0  0  0  0  0  0
  141.1010   70.8240  226.3260 C   0  0  0  0  0  0  0  0  0  0  0  0
  137.5660   69.7120  223.3520 C   0  0  0  0  0  0  0  0  0  0  0  0
  137.5030   70.7930  222.3090 C   0  0  0  0  0  0  0  0  0  0  0  0
  140.4820   72.3500  220.8790 H   0  0  0  0  0  0  0  0  0  0  0  0
  142.3030   75.3240  221.6120 H   0  0  0  0  0  0  0  0  0  0  0  0
  142.7459   79.8938  222.5620 H   0  0  0  0  0  0  0  0  0  0  0  0
  141.7296   82.0679  223.2294 H   0  0  0  0  0  0  0  0  0  0  0  0
  139.3018   82.2282  223.6972 H   0  0  0  0  0  0  0  0  0  0  0  0
  137.8542   80.1949  223.4981 H   0  0  0  0  0  0  0  0  0  0  0  0
  137.6831   77.8187  222.9955 H   0  0  0  0  0  0  0  0  0  0  0  0
  137.4783   75.4099  222.4862 H   0  0  0  0  0  0  0  0  0  0  0  0
  140.3033   72.3216  223.3834 H   0  0  0  0  0  0  0  0  0  0  0  0
  139.0169   71.8348  224.5466 H   0  0  0  0  0  0  0  0  0  0  0  0
  140.3293   69.9589  222.4911 H   0  0  0  0  0  0  0  0  0  0  0  0
  140.7643   70.0261  224.2190 H   0  0  0  0  0  0  0  0  0  0  0  0
  138.0928   69.1377  225.6714 H   0  0  0  0  0  0  0  0  0  0  0  0
  138.5660   67.6096  224.7517 H   0  0  0  0  0  0  0  0  0  0  0  0
  140.1507   67.6546  226.3752 H   0  0  0  0  0  0  0  0  0  0  0  0
  140.9670   68.5311  225.0416 H   0  0  0  0  0  0  0  0  0  0  0  0
  138.8533   68.9514  228.0473 H   0  0  0  0  0  0  0  0  0  0  0  0
  138.9878   70.8867  229.5940 H   0  0  0  0  0  0  0  0  0  0  0  0
  140.4771   72.7779  229.0441 H   0  0  0  0  0  0  0  0  0  0  0  0
  141.8317   72.7621  226.9709 H   0  0  0  0  0  0  0  0  0  0  0  0
  141.6989   70.8077  225.4028 H   0  0  0  0  0  0  0  0  0  0  0  0
  137.0922   68.8124  222.9323 H   0  0  0  0  0  0  0  0  0  0  0  0
  137.0536   70.1232  224.2342 H   0  0  0  0  0  0  0  0  0  0  0  0
  137.7187   70.3447  221.3279 H   0  0  0  0  0  0  0  0  0  0  0  0
  136.4942   71.2294  222.3523 H   0  0  0  0  0  0  0  0  0  0  0  0
  1  2  2  3
  2  3  1  0
  3  4  1  0
  4  5  2  0
  5  6  1  0
  6  7  2  0
  7  8  1  0
  8  9  2  0
  9 10  1  0
 10 11  2  0
 11 12  1  0
 12 13  2  0
 13 14  1  0
 14 15  2  0
 15 16  1  0
 16 17  2  0
 16 18  1  0
 18 19  1  0
 19 20  1  0
 20 21  1  0
 21 22  1  0
 22 23  1  0
 23 24  1  0
 24 25  2  0
 25 26  1  0
 26 27  2  0
 27 28  1  0
 28 29  2  0
 21 30  1  0
 30 31  1  0
 15  2  1  0
 31 18  1  0
 13  4  1  0
 29 24  1  0
 11  6  1  0
  1 32  1  0
  3 33  1  0
  7 34  1  0
  8 35  1  0
  9 36  1  0
 10 37  1  0
 12 38  1  0
 14 39  1  0
 19 40  1  0
 19 41  1  0
 20 42  1  0
 20 43  1  0
 22 44  1  0
 22 45  1  0
 23 46  1  0
 23 47  1  0
 25 48  1  0
 26 49  1  0
 27 50  1  0
 28 51  1  0
 29 52  1  0
 30 53  1  0
 30 54  1  0
 31 55  1  0
 31 56  1  0
M  END
>  <smiles>  (7) 
N=c1[nH]c2nc3ccccc3cc2cc1C(=O)N1CCN(CCc2ccccc2)CC1

>  <score_type>  (7) 
oracle

>  <origin>  (7) 
autodockgpu

>  <m_score__min__energy>  (7) 
-8.9700000000000006

>  <m_primary>  (7) 
energy

>  <rmsd>  (7) 
3.7742061789637416

>  <m_score__min__rmsd>  (7) 
3.7742061789637416

>  <meeko>  (7) 
{"free_energy": -8.94, "intermolecular_energy": -10.43, "internal_energy": -0.72, "cluster_size": 4, "cluster_id": 1, "rank_in_cluster": 4}

>  <energy>  (7) 
-8.46

>  <cluster_rmsd>  (7) 
0.0

>  <cluster>  (7) 
3

$$$$

     RDKit          3D

 56 60  0  0  0  0  0  0  0  0999 V2000
  138.5810   71.2330  220.2300 N   0  0  0  0  0  0  0  0  0  0  0  0
  139.0730   71.3270  221.4180 C   0  0  0  0  0  0  0  0  0  0  0  0
  138.9160   70.3500  222.3430 N   0  0  0  0  0  0  0  0  0  0  0  0
  139.4330   70.4510  223.5910 C   0  0  0  0  0  0  0  0  0  0  0  0
  139.2530   69.4400  224.4770 N   0  0  0  0  0  0  0  0  0  0  0  0
  139.7600   69.5040  225.7400 C   0  0  0  0  0  0  0  0  0  0  0  0
  139.5620   68.4480  226.6340 C   0  0  0  0  0  0  0  0  0  0  0  0
  140.0860   68.5160  227.9270 C   0  0  0  0  0  0  0  0  0  0  0  0
  140.8040   69.6250  228.3370 C   0  0  0  0  0  0  0  0  0  0  0  0
  141.0100   70.6870  227.4540 C   0  0  0  0  0  0  0  0  0  0  0  0
  140.4850   70.6120  226.1660 C   0  0  0  0  0  0  0  0  0  0  0  0
  140.6570   71.6280  225.2500 C   0  0  0  0  0  0  0  0  0  0  0  0
  140.1540   71.5840  223.9720 C   0  0  0  0  0  0  0  0  0  0  0  0
  140.3240   72.5930  223.0470 C   0  0  0  0  0  0  0  0  0  0  0  0
  139.7790   72.4580  221.7650 C   0  0  0  0  0  0  0  0  0  0  0  0
  140.0260   73.5680  220.8560 C   0  0  0  0  0  0  0  0  0  0  0  0
  140.6500   73.2590  219.7800 O   0  0  0  0  0  0  0  0  0  0  0  0
  139.6330   74.9020  221.0900 N   0  0  0  0  0  0  0  0  0  0  0  0
  138.9200   75.3560  222.2670 C   0  0  0  0  0  0  0  0  0  0  0  0
  137.8750   76.4170  221.8770 C   0  0  0  0  0  0  0  0  0  0  0  0
  138.5660   77.5240  221.3500 N   0  0  0  0  0  0  0  0  0  0  0  0
  138.6160   78.7280  222.0750 C   0  0  0  0  0  0  0  0  0  0  0  0
  139.2380   78.6430  223.4450 C   0  0  0  0  0  0  0  0  0  0  0  0
  140.5630   79.3540  223.4240 C   0  0  0  0  0  0  0  0  0  0  0  0
  140.5690   80.7000  223.7760 C   0  0  0  0  0  0  0  0  0  0  0  0
  141.7440   81.4200  223.7840 C   0  0  0  0  0  0  0  0  0  0  0  0
  142.9120   80.7890  223.4400 C   0  0  0  0  0  0  0  0  0  0  0  0
  142.9250   79.4500  223.0870 C   0  0  0  0  0  0  0  0  0  0  0  0
  141.7330   78.7180  223.0780 C   0  0  0  0  0  0  0  0  0  0  0  0
  139.7270   77.3130  220.5760 C   0  0  0  0  0  0  0  0  0  0  0  0
  139.9570   75.9070  220.0970 C   0  0  0  0  0  0  0  0  0  0  0  0
  139.0520   71.7900  219.4750 H   0  0  0  0  0  0  0  0  0  0  0  0
  138.3720   69.4730  222.0830 H   0  0  0  0  0  0  0  0  0  0  0  0
  138.9923   67.5614  226.3186 H   0  0  0  0  0  0  0  0  0  0  0  0
  139.9264   67.6809  228.6249 H   0  0  0  0  0  0  0  0  0  0  0  0
  141.2122   69.6703  229.3574 H   0  0  0  0  0  0  0  0  0  0  0  0
  141.5802   71.5724  227.7718 H   0  0  0  0  0  0  0  0  0  0  0  0
  141.2252   72.5182  225.5576 H   0  0  0  0  0  0  0  0  0  0  0  0
  140.8855   73.4999  223.3158 H   0  0  0  0  0  0  0  0  0  0  0  0
  138.4121   74.5009  222.7369 H   0  0  0  0  0  0  0  0  0  0  0  0
  139.6372   75.8000  222.9730 H   0  0  0  0  0  0  0  0  0  0  0  0
  137.1900   76.0077  221.1198 H   0  0  0  0  0  0  0  0  0  0  0  0
  137.2820   76.7147  222.7543 H   0  0  0  0  0  0  0  0  0  0  0  0
  139.1960   79.4532  221.4854 H   0  0  0  0  0  0  0  0  0  0  0  0
  137.5687   79.0212  222.2399 H   0  0  0  0  0  0  0  0  0  0  0  0
  138.5748   79.1199  224.1817 H   0  0  0  0  0  0  0  0  0  0  0  0
  139.3854   77.5888  223.7224 H   0  0  0  0  0  0  0  0  0  0  0  0
  139.6258   81.1948  224.0509 H   0  0  0  0  0  0  0  0  0  0  0  0
  141.7450   82.4843  224.0620 H   0  0  0  0  0  0  0  0  0  0  0  0
  143.8545   81.3561  223.4446 H   0  0  0  0  0  0  0  0  0  0  0  0
  143.8723   78.9622  222.8138 H   0  0  0  0  0  0  0  0  0  0  0  0
  141.7311   77.6538  222.7995 H   0  0  0  0  0  0  0  0  0  0  0  0
  139.6635   77.9632  219.6910 H   0  0  0  0  0  0  0  0  0  0  0  0
  140.5717   77.5392  221.2434 H   0  0  0  0  0  0  0  0  0  0  0  0
  139.3317   75.7343  219.2087 H   0  0  0  0  0  0  0  0  0  0  0  0
  141.0299   75.8105  219.8743 H   0  0  0  0  0  0  0  0  0  0  0  0
  1  2  2  3
  2  3  1  0
  3  4  1  0
  4  5  2  0
  5  6  1  0
  6  7  2  0
  7  8  1  0
  8  9  2  0
  9 10  1  0
 10 11  2  0
 11 12  1  0
 12 13  2  0
 13 14  1  0
 14 15  2  0
 15 16  1  0
 16 17  2  0
 16 18  1  0
 18 19  1  0
 19 20  1  0
 20 21  1  0
 21 22  1  0
 22 23  1  0
 23 24  1  0
 24 25  2  0
 25 26  1  0
 26 27  2  0
 27 28  1  0
 28 29  2  0
 21 30  1  0
 30 31  1  0
 15  2  1  0
 31 18  1  0
 13  4  1  0
 29 24  1  0
 11  6  1  0
  1 32  1  0
  3 33  1  0
  7 34  1  0
  8 35  1  0
  9 36  1  0
 10 37  1  0
 12 38  1  0
 14 39  1  0
 19 40  1  0
 19 41  1  0
 20 42  1  0
 20 43  1  0
 22 44  1  0
 22 45  1  0
 23 46  1  0
 23 47  1  0
 25 48  1  0
 26 49  1  0
 27 50  1  0
 28 51  1  0
 29 52  1  0
 30 53  1  0
 30 54  1  0
 31 55  1  0
 31 56  1  0
M  END
>  <smiles>  (8) 
N=c1[nH]c2nc3ccccc3cc2cc1C(=O)N1CCN(CCc2ccccc2)CC1

>  <score_type>  (8) 
oracle

>  <origin>  (8) 
autodockgpu

>  <m_score__min__energy>  (8) 
-8.9700000000000006

>  <m_primary>  (8) 
energy

>  <rmsd>  (8) 
9.938605262333224

>  <m_score__min__rmsd>  (8) 
9.938605262333224

>  <meeko>  (8) 
{"free_energy": -8.33, "intermolecular_energy": -9.82, "internal_energy": -1.29, "cluster_size": 41, "cluster_id": 3, "rank_in_cluster": 37}

>  <energy>  (8) 
-8.42

>  <cluster_rmsd>  (8) 
0.46

>  <cluster>  (8) 
3

$$$$

     RDKit          3D

 56 60  0  0  0  0  0  0  0  0999 V2000
  139.3900   70.9750  219.9900 N   0  0  0  0  0  0  0  0  0  0  0  0
  139.7040   71.1040  221.2340 C   0  0  0  0  0  0  0  0  0  0  0  0
  139.4600   70.1310  222.1440 N   0  0  0  0  0  0  0  0  0  0  0  0
  139.7910   70.2680  223.4510 C   0  0  0  0  0  0  0  0  0  0  0  0
  139.5300   69.2600  224.3200 N   0  0  0  0  0  0  0  0  0  0  0  0
  139.8510   69.3600  225.6400 C   0  0  0  0  0  0  0  0  0  0  0  0
  139.5730   68.3060  226.5150 C   0  0  0  0  0  0  0  0  0  0  0  0
  139.9060   68.4120  227.8670 C   0  0  0  0  0  0  0  0  0  0  0  0
  140.5110   69.5550  228.3550 C   0  0  0  0  0  0  0  0  0  0  0  0
  140.7950   70.6150  227.4930 C   0  0  0  0  0  0  0  0  0  0  0  0
  140.4610   70.5030  226.1440 C   0  0  0  0  0  0  0  0  0  0  0  0
  140.7180   71.5160  225.2450 C   0  0  0  0  0  0  0  0  0  0  0  0
  140.4020   71.4370  223.9100 C   0  0  0  0  0  0  0  0  0  0  0  0
  140.6590   72.4420  223.0010 C   0  0  0  0  0  0  0  0  0  0  0  0
  140.3060   72.2690  221.6580 C   0  0  0  0  0  0  0  0  0  0  0  0
  140.6320   73.3790  220.7740 C   0  0  0  0  0  0  0  0  0  0  0  0
  141.4240   73.0880  219.8090 O   0  0  0  0  0  0  0  0  0  0  0  0
  140.1440   74.6940  220.9210 N   0  0  0  0  0  0  0  0  0  0  0  0
  139.2430   75.1250  221.9690 C   0  0  0  0  0  0  0  0  0  0  0  0
  138.2180   76.1270  221.4070 C   0  0  0  0  0  0  0  0  0  0  0  0
  138.9250   77.2610  220.9670 N   0  0  0  0  0  0  0  0  0  0  0  0
  138.8080   78.4750  221.6680 C   0  0  0  0  0  0  0  0  0  0  0  0
  139.2750   78.4530  223.1000 C   0  0  0  0  0  0  0  0  0  0  0  0
  140.5690   79.2120  223.2040 C   0  0  0  0  0  0  0  0  0  0  0  0
  140.5000   80.5320  223.6400 C   0  0  0  0  0  0  0  0  0  0  0  0
  141.6420   81.2920  223.7630 C   0  0  0  0  0  0  0  0  0  0  0  0
  142.8520   80.7290  223.4510 C   0  0  0  0  0  0  0  0  0  0  0  0
  142.9410   79.4170  223.0160 C   0  0  0  0  0  0  0  0  0  0  0  0
  141.7810   78.6430  222.8890 C   0  0  0  0  0  0  0  0  0  0  0  0
  140.1970   77.1000  220.3790 C   0  0  0  0  0  0  0  0  0  0  0  0
  140.5650   75.7010  219.9670 C   0  0  0  0  0  0  0  0  0  0  0  0
  139.9160   71.5690  219.3020 H   0  0  0  0  0  0  0  0  0  0  0  0
  138.9960   69.2280  221.8250 H   0  0  0  0  0  0  0  0  0  0  0  0
  139.0912   67.3918  226.1381 H   0  0  0  0  0  0  0  0  0  0  0  0
  139.6849   67.5784  228.5498 H   0  0  0  0  0  0  0  0  0  0  0  0
  140.7684   69.6290  229.4219 H   0  0  0  0  0  0  0  0  0  0  0  0
  141.2766   71.5280  227.8732 H   0  0  0  0  0  0  0  0  0  0  0  0
  141.2000   72.4331  225.6147 H   0  0  0  0  0  0  0  0  0  0  0  0
  141.1393   73.3752  223.3303 H   0  0  0  0  0  0  0  0  0  0  0  0
  138.7125   74.2510  222.3748 H   0  0  0  0  0  0  0  0  0  0  0  0
  139.8243   75.6131  222.7651 H   0  0  0  0  0  0  0  0  0  0  0  0
  137.6746   75.6742  220.5646 H   0  0  0  0  0  0  0  0  0  0  0  0
  137.4871   76.4050  222.1806 H   0  0  0  0  0  0  0  0  0  0  0  0
  139.3987   79.2325  221.1320 H   0  0  0  0  0  0  0  0  0  0  0  0
  137.7308   78.6939  221.7085 H   0  0  0  0  0  0  0  0  0  0  0  0
  138.5174   78.9257  223.7424 H   0  0  0  0  0  0  0  0  0  0  0  0
  139.4264   77.4134  223.4259 H   0  0  0  0  0  0  0  0  0  0  0  0
  139.5234   80.9727  223.8889 H   0  0  0  0  0  0  0  0  0  0  0  0
  141.5838   82.3354  224.1065 H   0  0  0  0  0  0  0  0  0  0  0  0
  143.7685   81.3296  223.5478 H   0  0  0  0  0  0  0  0  0  0  0  0
  143.9218   78.9836  222.7706 H   0  0  0  0  0  0  0  0  0  0  0  0
  141.8379   77.6001  222.5440 H   0  0  0  0  0  0  0  0  0  0  0  0
  140.2350   77.7352  219.4817 H   0  0  0  0  0  0  0  0  0  0  0  0
  140.9201   77.3770  221.1603 H   0  0  0  0  0  0  0  0  0  0  0  0
  140.0895   75.4854  218.9988 H   0  0  0  0  0  0  0  0  0  0  0  0
  141.6625   75.6562  219.9082 H   0  0  0  0  0  0  0  0  0  0  0  0
  1  2  2  3
  2  3  1  0
  3  4  1  0
  4  5  2  0
  5  6  1  0
  6  7  2  0
  7  8  1  0
  8  9  2  0
  9 10  1  0
 10 11  2  0
 11 12  1  0
 12 13  2  0
 13 14  1  0
 14 15  2  0
 15 16  1  0
 16 17  2  0
 16 18  1  0
 18 19  1  0
 19 20  1  0
 20 21  1  0
 21 22  1  0
 22 23  1  0
 23 24  1  0
 24 25  2  0
 25 26  1  0
 26 27  2  0
 27 28  1  0
 28 29  2  0
 21 30  1  0
 30 31  1  0
 15  2  1  0
 31 18  1  0
 13  4  1  0
 29 24  1  0
 11  6  1  0
  1 32  1  0
  3 33  1  0
  7 34  1  0
  8 35  1  0
  9 36  1  0
 10 37  1  0
 12 38  1  0
 14 39  1  0
 19 40  1  0
 19 41  1  0
 20 42  1  0
 20 43  1  0
 22 44  1  0
 22 45  1  0
 23 46  1  0
 23 47  1  0
 25 48  1  0
 26 49  1  0
 27 50  1  0
 28 51  1  0
 29 52  1  0
 30 53  1  0
 30 54  1  0
 31 55  1  0
 31 56  1  0
M  END
>  <smiles>  (9) 
N=c1[nH]c2nc3ccccc3cc2cc1C(=O)N1CCN(CCc2ccccc2)CC1

>  <score_type>  (9) 
oracle

>  <origin>  (9) 
autodockgpu

>  <m_score__min__energy>  (9) 
-8.9700000000000006

>  <m_primary>  (9) 
energy

>  <rmsd>  (9) 
9.916663102045819

>  <m_score__min__rmsd>  (9) 
9.916663102045819

>  <meeko>  (9) 
{"free_energy": -8.41, "intermolecular_energy": -9.9, "internal_energy": -1.28, "cluster_size": 41, "cluster_id": 3, "rank_in_cluster": 9}

>  <energy>  (9) 
-8.42

>  <cluster_rmsd>  (9) 
0.48

>  <cluster>  (9) 
3

$$$$

     RDKit          3D

 56 60  0  0  0  0  0  0  0  0999 V2000
  139.4230   70.9740  219.9820 N   0  0  0  0  0  0  0  0  0  0  0  0
  139.7300   71.1020  221.2280 C   0  0  0  0  0  0  0  0  0  0  0  0
  139.4850   70.1260  222.1350 N   0  0  0  0  0  0  0  0  0  0  0  0
  139.8080   70.2620  223.4440 C   0  0  0  0  0  0  0  0  0  0  0  0
  139.5460   69.2510  224.3090 N   0  0  0  0  0  0  0  0  0  0  0  0
  139.8600   69.3500  225.6310 C   0  0  0  0  0  0  0  0  0  0  0  0
  139.5810   68.2930  226.5020 C   0  0  0  0  0  0  0  0  0  0  0  0
  139.9070   68.3970  227.8570 C   0  0  0  0  0  0  0  0  0  0  0  0
  140.5060   69.5410  228.3500 C   0  0  0  0  0  0  0  0  0  0  0  0
  140.7900   70.6040  227.4910 C   0  0  0  0  0  0  0  0  0  0  0  0
  140.4630   70.4940  226.1410 C   0  0  0  0  0  0  0  0  0  0  0  0
  140.7220   71.5090  225.2450 C   0  0  0  0  0  0  0  0  0  0  0  0
  140.4130   71.4310  223.9080 C   0  0  0  0  0  0  0  0  0  0  0  0
  140.6710   72.4390  223.0020 C   0  0  0  0  0  0  0  0  0  0  0  0
  140.3260   72.2680  221.6570 C   0  0  0  0  0  0  0  0  0  0  0  0
  140.6530   73.3800  220.7770 C   0  0  0  0  0  0  0  0  0  0  0  0
  141.4520   73.0950  219.8170 O   0  0  0  0  0  0  0  0  0  0  0  0
  140.1580   74.6930  220.9230 N   0  0  0  0  0  0  0  0  0  0  0  0
  139.2490   75.1190  221.9660 C   0  0  0  0  0  0  0  0  0  0  0  0
  138.2230   76.1170  221.4000 C   0  0  0  0  0  0  0  0  0  0  0  0
  138.9280   77.2550  220.9660 N   0  0  0  0  0  0  0  0  0  0  0  0
  138.8010   78.4670  221.6680 C   0  0  0  0  0  0  0  0  0  0  0  0
  139.2870   78.4530  223.0940 C   0  0  0  0  0  0  0  0  0  0  0  0
  140.5800   79.2150  223.1770 C   0  0  0  0  0  0  0  0  0  0  0  0
  140.5060   80.5580  223.5360 C   0  0  0  0  0  0  0  0  0  0  0  0
  141.6470   81.3220  223.6360 C   0  0  0  0  0  0  0  0  0  0  0  0
  142.8620   80.7420  223.3780 C   0  0  0  0  0  0  0  0  0  0  0  0
  142.9550   79.4070  223.0200 C   0  0  0  0  0  0  0  0  0  0  0  0
  141.7970   78.6290  222.9170 C   0  0  0  0  0  0  0  0  0  0  0  0
  140.2050   77.1000  220.3850 C   0  0  0  0  0  0  0  0  0  0  0  0
  140.5800   75.7040  219.9740 C   0  0  0  0  0  0  0  0  0  0  0  0
  139.9570   71.5650  219.2980 H   0  0  0  0  0  0  0  0  0  0  0  0
  139.0260   69.2220  221.8120 H   0  0  0  0  0  0  0  0  0  0  0  0
  139.1042   67.3781  226.1204 H   0  0  0  0  0  0  0  0  0  0  0  0
  139.6850   67.5613  228.5370 H   0  0  0  0  0  0  0  0  0  0  0  0
  140.7586   69.6137  229.4181 H   0  0  0  0  0  0  0  0  0  0  0  0
  141.2664   71.5179  227.8754 H   0  0  0  0  0  0  0  0  0  0  0  0
  141.1996   72.4268  225.6185 H   0  0  0  0  0  0  0  0  0  0  0  0
  141.1460   73.3733  223.3358 H   0  0  0  0  0  0  0  0  0  0  0  0
  138.7200   74.2422  222.3677 H   0  0  0  0  0  0  0  0  0  0  0  0
  139.8237   75.6090  222.7658 H   0  0  0  0  0  0  0  0  0  0  0  0
  137.6864   75.6633  220.5537 H   0  0  0  0  0  0  0  0  0  0  0  0
  137.4862   76.3904  222.1696 H   0  0  0  0  0  0  0  0  0  0  0  0
  139.3726   79.2335  221.1242 H   0  0  0  0  0  0  0  0  0  0  0  0
  137.7210   78.6688  221.7225 H   0  0  0  0  0  0  0  0  0  0  0  0
  138.5370   78.9271  223.7441 H   0  0  0  0  0  0  0  0  0  0  0  0
  139.4450   77.4153  223.4229 H   0  0  0  0  0  0  0  0  0  0  0  0
  139.5261   81.0134  223.7418 H   0  0  0  0  0  0  0  0  0  0  0  0
  141.5845   82.3831  223.9190 H   0  0  0  0  0  0  0  0  0  0  0  0
  143.7778   81.3463  223.4565 H   0  0  0  0  0  0  0  0  0  0  0  0
  143.9389   78.9590  222.8168 H   0  0  0  0  0  0  0  0  0  0  0  0
  141.8585   77.5680  222.6333 H   0  0  0  0  0  0  0  0  0  0  0  0
  140.2458   77.7365  219.4888 H   0  0  0  0  0  0  0  0  0  0  0  0
  140.9226   77.3792  221.1706 H   0  0  0  0  0  0  0  0  0  0  0  0
  140.1109   75.4883  219.0027 H   0  0  0  0  0  0  0  0  0  0  0  0
  141.6781   75.6639  219.9226 H   0  0  0  0  0  0  0  0  0  0  0  0
  1  2  2  3
  2  3  1  0
  3  4  1  0
  4  5  2  0
  5  6  1  0
  6  7  2  0
  7  8  1  0
  8  9  2  0
  9 10  1  0
 10 11  2  0
 11 12  1  0
 12 13  2  0
 13 14  1  0
 14 15  2  0
 15 16  1  0
 16 17  2  0
 16 18  1  0
 18 19  1  0
 19 20  1  0
 20 21  1  0
 21 22  1  0
 22 23  1  0
 23 24  1  0
 24 25  2  0
 25 26  1  0
 26 27  2  0
 27 28  1  0
 28 29  2  0
 21 30  1  0
 30 31  1  0
 15  2  1  0
 31 18  1  0
 13  4  1  0
 29 24  1  0
 11  6  1  0
  1 32  1  0
  3 33  1  0
  7 34  1  0
  8 35  1  0
  9 36  1  0
 10 37  1  0
 12 38  1  0
 14 39  1  0
 19 40  1  0
 19 41  1  0
 20 42  1  0
 20 43  1  0
 22 44  1  0
 22 45  1  0
 23 46  1  0
 23 47  1  0
 25 48  1  0
 26 49  1  0
 27 50  1  0
 28 51  1  0
 29 52  1  0
 30 53  1  0
 30 54  1  0
 31 55  1  0
 31 56  1  0
M  END
>  <smiles>  (10) 
N=c1[nH]c2nc3ccccc3cc2cc1C(=O)N1CCN(CCc2ccccc2)CC1

>  <score_type>  (10) 
oracle

>  <origin>  (10) 
autodockgpu

>  <m_score__min__energy>  (10) 
-8.9700000000000006

>  <m_primary>  (10) 
energy

>  <rmsd>  (10) 
9.923882281129469

>  <m_score__min__rmsd>  (10) 
9.923882281129469

>  <meeko>  (10) 
{"free_energy": -8.39, "intermolecular_energy": -9.89, "internal_energy": -1.29, "cluster_size": 41, "cluster_id": 3, "rank_in_cluster": 23}

>  <energy>  (10) 
-8.42

>  <cluster_rmsd>  (10) 
0.47

>  <cluster>  (10) 
3

$$$$

     RDKit          3D

 56 60  0  0  0  0  0  0  0  0999 V2000
  139.3080   70.9120  220.0170 N   0  0  0  0  0  0  0  0  0  0  0  0
  139.6390   71.0490  221.2560 C   0  0  0  0  0  0  0  0  0  0  0  0
  139.4040   70.0840  222.1760 N   0  0  0  0  0  0  0  0  0  0  0  0
  139.7520   70.2300  223.4770 C   0  0  0  0  0  0  0  0  0  0  0  0
  139.4990   69.2290  224.3570 N   0  0  0  0  0  0  0  0  0  0  0  0
  139.8390   69.3380  225.6720 C   0  0  0  0  0  0  0  0  0  0  0  0
  139.5690   68.2920  226.5580 C   0  0  0  0  0  0  0  0  0  0  0  0
  139.9200   68.4060  227.9060 C   0  0  0  0  0  0  0  0  0  0  0  0
  140.5350   69.5510  228.3770 C   0  0  0  0  0  0  0  0  0  0  0  0
  140.8110   70.6040  227.5030 C   0  0  0  0  0  0  0  0  0  0  0  0
  140.4590   70.4830  226.1600 C   0  0  0  0  0  0  0  0  0  0  0  0
  140.7070   71.4880  225.2500 C   0  0  0  0  0  0  0  0  0  0  0  0
  140.3730   71.3990  223.9190 C   0  0  0  0  0  0  0  0  0  0  0  0
  140.6210   72.3970  222.9990 C   0  0  0  0  0  0  0  0  0  0  0  0
  140.2500   72.2150  221.6630 C   0  0  0  0  0  0  0  0  0  0  0  0
  140.5680   73.3170  220.7660 C   0  0  0  0  0  0  0  0  0  0  0  0
  141.3370   73.0140  219.7870 O   0  0  0  0  0  0  0  0  0  0  0  0
  140.0940   74.6370  220.9150 N   0  0  0  0  0  0  0  0  0  0  0  0
  139.2180   75.0820  221.9790 C   0  0  0  0  0  0  0  0  0  0  0  0
  138.1900   76.0900  221.4310 C   0  0  0  0  0  0  0  0  0  0  0  0
  138.8980   77.2150  220.9710 N   0  0  0  0  0  0  0  0  0  0  0  0
  138.8050   78.4340  221.6670 C   0  0  0  0  0  0  0  0  0  0  0  0
  139.2740   78.4090  223.0990 C   0  0  0  0  0  0  0  0  0  0  0  0
  140.5620   79.1780  223.2030 C   0  0  0  0  0  0  0  0  0  0  0  0
  140.4780   80.5080  223.6060 C   0  0  0  0  0  0  0  0  0  0  0  0
  141.6140   81.2780  223.7290 C   0  0  0  0  0  0  0  0  0  0  0  0
  142.8330   80.7150  223.4490 C   0  0  0  0  0  0  0  0  0  0  0  0
  142.9350   79.3930  223.0470 C   0  0  0  0  0  0  0  0  0  0  0  0
  141.7820   78.6100  222.9220 C   0  0  0  0  0  0  0  0  0  0  0  0
  140.1570   77.0400  220.3580 C   0  0  0  0  0  0  0  0  0  0  0  0
  140.5040   75.6360  219.9480 C   0  0  0  0  0  0  0  0  0  0  0  0
  139.8340   71.4910  219.3170 H   0  0  0  0  0  0  0  0  0  0  0  0
  138.9320   69.1800  221.8700 H   0  0  0  0  0  0  0  0  0  0  0  0
  139.0792   67.3769  226.1939 H   0  0  0  0  0  0  0  0  0  0  0  0
  139.7052   67.5781  228.5977 H   0  0  0  0  0  0  0  0  0  0  0  0
  140.8067   69.6323  229.4398 H   0  0  0  0  0  0  0  0  0  0  0  0
  141.3004   71.5182  227.8700 H   0  0  0  0  0  0  0  0  0  0  0  0
  141.1963   72.4066  225.6060 H   0  0  0  0  0  0  0  0  0  0  0  0
  141.1082   73.3313  223.3149 H   0  0  0  0  0  0  0  0  0  0  0  0
  138.6884   74.2151  222.4009 H   0  0  0  0  0  0  0  0  0  0  0  0
  139.8193   75.5696  222.7605 H   0  0  0  0  0  0  0  0  0  0  0  0
  137.6264   75.6372  220.6019 H   0  0  0  0  0  0  0  0  0  0  0  0
  137.4764   76.3785  222.2169 H   0  0  0  0  0  0  0  0  0  0  0  0
  139.4091   79.1779  221.1270 H   0  0  0  0  0  0  0  0  0  0  0  0
  137.7322   78.6735  221.7081 H   0  0  0  0  0  0  0  0  0  0  0  0
  138.5138   78.8728  223.7447 H   0  0  0  0  0  0  0  0  0  0  0  0
  139.4336   77.3693  223.4209 H   0  0  0  0  0  0  0  0  0  0  0  0
  139.4949   80.9485  223.8284 H   0  0  0  0  0  0  0  0  0  0  0  0
  141.5443   82.3287  224.0471 H   0  0  0  0  0  0  0  0  0  0  0  0
  143.7446   81.3230  223.5452 H   0  0  0  0  0  0  0  0  0  0  0  0
  143.9215   78.9593  222.8263 H   0  0  0  0  0  0  0  0  0  0  0  0
  141.8506   77.5590  222.6046 H   0  0  0  0  0  0  0  0  0  0  0  0
  140.1820   77.6693  219.4561 H   0  0  0  0  0  0  0  0  0  0  0  0
  140.8984   77.3162  221.1222 H   0  0  0  0  0  0  0  0  0  0  0  0
  140.0075   75.4193  218.9906 H   0  0  0  0  0  0  0  0  0  0  0  0
  141.5998   75.5817  219.8691 H   0  0  0  0  0  0  0  0  0  0  0  0
  1  2  2  3
  2  3  1  0
  3  4  1  0
  4  5  2  0
  5  6  1  0
  6  7  2  0
  7  8  1  0
  8  9  2  0
  9 10  1  0
 10 11  2  0
 11 12  1  0
 12 13  2  0
 13 14  1  0
 14 15  2  0
 15 16  1  0
 16 17  2  0
 16 18  1  0
 18 19  1  0
 19 20  1  0
 20 21  1  0
 21 22  1  0
 22 23  1  0
 23 24  1  0
 24 25  2  0
 25 26  1  0
 26 27  2  0
 27 28  1  0
 28 29  2  0
 21 30  1  0
 30 31  1  0
 15  2  1  0
 31 18  1  0
 13  4  1  0
 29 24  1  0
 11  6  1  0
  1 32  1  0
  3 33  1  0
  7 34  1  0
  8 35  1  0
  9 36  1  0
 10 37  1  0
 12 38  1  0
 14 39  1  0
 19 40  1  0
 19 41  1  0
 20 42  1  0
 20 43  1  0
 22 44  1  0
 22 45  1  0
 23 46  1  0
 23 47  1  0
 25 48  1  0
 26 49  1  0
 27 50  1  0
 28 51  1  0
 29 52  1  0
 30 53  1  0
 30 54  1  0
 31 55  1  0
 31 56  1  0
M  END
>  <smiles>  (11) 
N=c1[nH]c2nc3ccccc3cc2cc1C(=O)N1CCN(CCc2ccccc2)CC1

>  <score_type>  (11) 
oracle

>  <origin>  (11) 
autodockgpu

>  <m_score__min__energy>  (11) 
-8.9700000000000006

>  <m_primary>  (11) 
energy

>  <rmsd>  (11) 
9.919277284054042

>  <m_score__min__rmsd>  (11) 
9.919277284054042

>  <meeko>  (11) 
{"free_energy": -8.4, "intermolecular_energy": -9.89, "internal_energy": -1.29, "cluster_size": 41, "cluster_id": 3, "rank_in_cluster": 21}

>  <energy>  (11) 
-8.42

>  <cluster_rmsd>  (11) 
0.47

>  <cluster>  (11) 
3

$$$$

     RDKit          3D

 56 60  0  0  0  0  0  0  0  0999 V2000
  141.0990   73.0500  221.3040 N   0  0  0  0  0  0  0  0  0  0  0  0
  140.5500   74.1660  221.6480 C   0  0  0  0  0  0  0  0  0  0  0  0
  141.2630   75.3100  221.7790 N   0  0  0  0  0  0  0  0  0  0  0  0
  140.6850   76.4810  222.1410 C   0  0  0  0  0  0  0  0  0  0  0  0
  141.4440   77.5990  222.2520 N   0  0  0  0  0  0  0  0  0  0  0  0
  140.8970   78.7940  222.6090 C   0  0  0  0  0  0  0  0  0  0  0  0
  141.7010   79.9330  222.7160 C   0  0  0  0  0  0  0  0  0  0  0  0
  141.1360   81.1580  223.0800 C   0  0  0  0  0  0  0  0  0  0  0  0
  139.7820   81.2590  223.3390 C   0  0  0  0  0  0  0  0  0  0  0  0
  138.9670   80.1300  223.2360 C   0  0  0  0  0  0  0  0  0  0  0  0
  139.5370   78.9110  222.8720 C   0  0  0  0  0  0  0  0  0  0  0  0
  138.7830   77.7630  222.7520 C   0  0  0  0  0  0  0  0  0  0  0  0
  139.3130   76.5470  222.3940 C   0  0  0  0  0  0  0  0  0  0  0  0
  138.5680   75.3930  222.2670 C   0  0  0  0  0  0  0  0  0  0  0  0
  139.1940   74.2000  221.8920 C   0  0  0  0  0  0  0  0  0  0  0  0
  138.3210   73.0420  221.7690 C   0  0  0  0  0  0  0  0  0  0  0  0
  137.3920   73.1540  220.8940 O   0  0  0  0  0  0  0  0  0  0  0  0
  138.4420   71.8600  222.5300 N   0  0  0  0  0  0  0  0  0  0  0  0
  139.4570   71.6290  223.5370 C   0  0  0  0  0  0  0  0  0  0  0  0
  139.9440   70.1700  223.4730 C   0  0  0  0  0  0  0  0  0  0  0  0
  138.8490   69.3410  223.7810 N   0  0  0  0  0  0  0  0  0  0  0  0
  138.8260   68.6350  224.9980 C   0  0  0  0  0  0  0  0  0  0  0  0
  140.1380   68.5520  225.7330 C   0  0  0  0  0  0  0  0  0  0  0  0
  140.2800   69.7610  226.6160 C   0  0  0  0  0  0  0  0  0  0  0  0
  139.5330   69.7840  227.7900 C   0  0  0  0  0  0  0  0  0  0  0  0
  139.6100   70.8560  228.6520 C   0  0  0  0  0  0  0  0  0  0  0  0
  140.4370   71.9030  228.3380 C   0  0  0  0  0  0  0  0  0  0  0  0
  141.1890   71.8980  227.1740 C   0  0  0  0  0  0  0  0  0  0  0  0
  141.1100   70.8100  226.2970 C   0  0  0  0  0  0  0  0  0  0  0  0
  137.5570   69.7070  223.3470 C   0  0  0  0  0  0  0  0  0  0  0  0
  137.4910   70.7900  222.3060 C   0  0  0  0  0  0  0  0  0  0  0  0
  140.5290   72.4040  220.7050 H   0  0  0  0  0  0  0  0  0  0  0  0
  142.3110   75.2920  221.5920 H   0  0  0  0  0  0  0  0  0  0  0  0
  142.7800   79.8645  222.5133 H   0  0  0  0  0  0  0  0  0  0  0  0
  141.7745   82.0500  223.1612 H   0  0  0  0  0  0  0  0  0  0  0  0
  139.3470   82.2278  223.6260 H   0  0  0  0  0  0  0  0  0  0  0  0
  137.8884   80.2015  223.4396 H   0  0  0  0  0  0  0  0  0  0  0  0
  137.7032   77.8236  222.9529 H   0  0  0  0  0  0  0  0  0  0  0  0
  137.4852   75.4111  222.4600 H   0  0  0  0  0  0  0  0  0  0  0  0
  140.3068   72.3043  223.3585 H   0  0  0  0  0  0  0  0  0  0  0  0
  139.0278   71.8218  224.5313 H   0  0  0  0  0  0  0  0  0  0  0  0
  140.3141   69.9423  222.4625 H   0  0  0  0  0  0  0  0  0  0  0  0
  140.7651   70.0056  224.1862 H   0  0  0  0  0  0  0  0  0  0  0  0
  138.0989   69.1277  225.6602 H   0  0  0  0  0  0  0  0  0  0  0  0
  138.5638   67.5990  224.7373 H   0  0  0  0  0  0  0  0  0  0  0  0
  140.1591   67.6407  226.3487 H   0  0  0  0  0  0  0  0  0  0  0  0
  140.9676   68.5185  225.0114 H   0  0  0  0  0  0  0  0  0  0  0  0
  138.8740   68.9372  228.0323 H   0  0  0  0  0  0  0  0  0  0  0  0
  139.0168   70.8714  229.5782 H   0  0  0  0  0  0  0  0  0  0  0  0
  140.5049   72.7620  229.0217 H   0  0  0  0  0  0  0  0  0  0  0  0
  141.8470   72.7478  226.9396 H   0  0  0  0  0  0  0  0  0  0  0  0
  141.7011   70.7943  225.3694 H   0  0  0  0  0  0  0  0  0  0  0  0
  137.0760   68.8100  222.9298 H   0  0  0  0  0  0  0  0  0  0  0  0
  137.0529   70.1185  224.2339 H   0  0  0  0  0  0  0  0  0  0  0  0
  137.6953   70.3417  221.3225 H   0  0  0  0  0  0  0  0  0  0  0  0
  136.4851   71.2320  222.3595 H   0  0  0  0  0  0  0  0  0  0  0  0
  1  2  2  3
  2  3  1  0
  3  4  1  0
  4  5  2  0
  5  6  1  0
  6  7  2  0
  7  8  1  0
  8  9  2  0
  9 10  1  0
 10 11  2  0
 11 12  1  0
 12 13  2  0
 13 14  1  0
 14 15  2  0
 15 16  1  0
 16 17  2  0
 16 18  1  0
 18 19  1  0
 19 20  1  0
 20 21  1  0
 21 22  1  0
 22 23  1  0
 23 24  1  0
 24 25  2  0
 25 26  1  0
 26 27  2  0
 27 28  1  0
 28 29  2  0
 21 30  1  0
 30 31  1  0
 15  2  1  0
 31 18  1  0
 13  4  1  0
 29 24  1  0
 11  6  1  0
  1 32  1  0
  3 33  1  0
  7 34  1  0
  8 35  1  0
  9 36  1  0
 10 37  1  0
 12 38  1  0
 14 39  1  0
 19 40  1  0
 19 41  1  0
 20 42  1  0
 20 43  1  0
 22 44  1  0
 22 45  1  0
 23 46  1  0
 23 47  1  0
 25 48  1  0
 26 49  1  0
 27 50  1  0
 28 51  1  0
 29 52  1  0
 30 53  1  0
 30 54  1  0
 31 55  1  0
 31 56  1  0
M  END
>  <smiles>  (12) 
N=c1[nH]c2nc3ccccc3cc2cc1C(=O)N1CCN(CCc2ccccc2)CC1

>  <score_type>  (12) 
oracle

>  <origin>  (12) 
autodockgpu

>  <m_score__min__energy>  (12) 
-8.9700000000000006

>  <m_primary>  (12) 
energy

>  <rmsd>  (12) 
3.762986735762284

>  <m_score__min__rmsd>  (12) 
3.762986735762284

>  <meeko>  (12) 
{"free_energy": -8.96, "intermolecular_energy": -10.45, "internal_energy": -0.72, "cluster_size": 4, "cluster_id": 1, "rank_in_cluster": 3}

>  <energy>  (12) 
-8.41

>  <cluster_rmsd>  (12) 
0.47

>  <cluster>  (12) 
3

$$$$

     RDKit          3D

 56 60  0  0  0  0  0  0  0  0999 V2000
  139.3260   70.9520  219.9980 N   0  0  0  0  0  0  0  0  0  0  0  0
  139.6680   71.0810  221.2350 C   0  0  0  0  0  0  0  0  0  0  0  0
  139.4330   70.1130  222.1530 N   0  0  0  0  0  0  0  0  0  0  0  0
  139.7920   70.2500  223.4520 C   0  0  0  0  0  0  0  0  0  0  0  0
  139.5390   69.2470  224.3290 N   0  0  0  0  0  0  0  0  0  0  0  0
  139.8890   69.3480  225.6420 C   0  0  0  0  0  0  0  0  0  0  0  0
  139.6180   68.3000  226.5260 C   0  0  0  0  0  0  0  0  0  0  0  0
  139.9800   68.4050  227.8710 C   0  0  0  0  0  0  0  0  0  0  0  0
  140.6080   69.5430  228.3430 C   0  0  0  0  0  0  0  0  0  0  0  0
  140.8850   70.5980  227.4710 C   0  0  0  0  0  0  0  0  0  0  0  0
  140.5210   70.4860  226.1300 C   0  0  0  0  0  0  0  0  0  0  0  0
  140.7700   71.4930  225.2220 C   0  0  0  0  0  0  0  0  0  0  0  0
  140.4250   71.4130  223.8940 C   0  0  0  0  0  0  0  0  0  0  0  0
  140.6740   72.4130  222.9770 C   0  0  0  0  0  0  0  0  0  0  0  0
  140.2910   72.2400  221.6420 C   0  0  0  0  0  0  0  0  0  0  0  0
  140.6100   73.3440  220.7480 C   0  0  0  0  0  0  0  0  0  0  0  0
  141.3760   73.0410  219.7660 O   0  0  0  0  0  0  0  0  0  0  0  0
  140.1420   74.6650  220.9030 N   0  0  0  0  0  0  0  0  0  0  0  0
  139.2700   75.1100  221.9710 C   0  0  0  0  0  0  0  0  0  0  0  0
  138.2450   76.1230  221.4300 C   0  0  0  0  0  0  0  0  0  0  0  0
  138.9560   77.2470  220.9710 N   0  0  0  0  0  0  0  0  0  0  0  0
  138.8700   78.4640  221.6710 C   0  0  0  0  0  0  0  0  0  0  0  0
  139.3360   78.4310  223.1040 C   0  0  0  0  0  0  0  0  0  0  0  0
  140.5740   79.2730  223.2340 C   0  0  0  0  0  0  0  0  0  0  0  0
  141.7840   78.6850  222.8780 C   0  0  0  0  0  0  0  0  0  0  0  0
  142.9630   79.3930  222.9670 C   0  0  0  0  0  0  0  0  0  0  0  0
  142.9280   80.6890  223.4110 C   0  0  0  0  0  0  0  0  0  0  0  0
  141.7330   81.2920  223.7690 C   0  0  0  0  0  0  0  0  0  0  0  0
  140.5350   80.5730  223.6800 C   0  0  0  0  0  0  0  0  0  0  0  0
  140.2120   77.0690  220.3540 C   0  0  0  0  0  0  0  0  0  0  0  0
  140.5520   75.6650  219.9380 C   0  0  0  0  0  0  0  0  0  0  0  0
  139.8500   71.5320  219.2970 H   0  0  0  0  0  0  0  0  0  0  0  0
  138.9520   69.2140  221.8460 H   0  0  0  0  0  0  0  0  0  0  0  0
  139.1184   67.3902  226.1617 H   0  0  0  0  0  0  0  0  0  0  0  0
  139.7637   67.5756  228.5604 H   0  0  0  0  0  0  0  0  0  0  0  0
  140.8890   69.6171  229.4039 H   0  0  0  0  0  0  0  0  0  0  0  0
  141.3845   71.5067  227.8380 H   0  0  0  0  0  0  0  0  0  0  0  0
  141.2697   72.4060  225.5781 H   0  0  0  0  0  0  0  0  0  0  0  0
  141.1711   73.3418  223.2935 H   0  0  0  0  0  0  0  0  0  0  0  0
  138.7382   74.2436  222.3913 H   0  0  0  0  0  0  0  0  0  0  0  0
  139.8753   75.5929  222.7523 H   0  0  0  0  0  0  0  0  0  0  0  0
  137.6769   75.6750  220.6014 H   0  0  0  0  0  0  0  0  0  0  0  0
  137.5352   76.4119  222.2192 H   0  0  0  0  0  0  0  0  0  0  0  0
  139.4802   79.2056  221.1347 H   0  0  0  0  0  0  0  0  0  0  0  0
  137.7987   78.7105  221.7109 H   0  0  0  0  0  0  0  0  0  0  0  0
  138.5472   78.8312  223.7579 H   0  0  0  0  0  0  0  0  0  0  0  0
  139.5578   77.3949  223.3995 H   0  0  0  0  0  0  0  0  0  0  0  0
  141.7995   77.6443  222.5219 H   0  0  0  0  0  0  0  0  0  0  0  0
  143.9179   78.9248  222.6858 H   0  0  0  0  0  0  0  0  0  0  0  0
  143.8650   81.2606  223.4845 H   0  0  0  0  0  0  0  0  0  0  0  0
  141.7256   82.3336  224.1225 H   0  0  0  0  0  0  0  0  0  0  0  0
  139.5797   81.0398  223.9618 H   0  0  0  0  0  0  0  0  0  0  0  0
  140.2370   77.7014  219.4543 H   0  0  0  0  0  0  0  0  0  0  0  0
  140.9567   77.3394  221.1171 H   0  0  0  0  0  0  0  0  0  0  0  0
  140.0509   75.4534  218.9819 H   0  0  0  0  0  0  0  0  0  0  0  0
  141.6473   75.6067  219.8545 H   0  0  0  0  0  0  0  0  0  0  0  0
  1  2  2  3
  2  3  1  0
  3  4  1  0
  4  5  2  0
  5  6  1  0
  6  7  2  0
  7  8  1  0
  8  9  2  0
  9 10  1  0
 10 11  2  0
 11 12  1  0
 12 13  2  0
 13 14  1  0
 14 15  2  0
 15 16  1  0
 16 17  2  0
 16 18  1  0
 18 19  1  0
 19 20  1  0
 20 21  1  0
 21 22  1  0
 22 23  1  0
 23 24  1  0
 24 25  2  0
 25 26  1  0
 26 27  2  0
 27 28  1  0
 28 29  2  0
 21 30  1  0
 30 31  1  0
 15  2  1  0
 31 18  1  0
 13  4  1  0
 29 24  1  0
 11  6  1  0
  1 32  1  0
  3 33  1  0
  7 34  1  0
  8 35  1  0
  9 36  1  0
 10 37  1  0
 12 38  1  0
 14 39  1  0
 19 40  1  0
 19 41  1  0
 20 42  1  0
 20 43  1  0
 22 44  1  0
 22 45  1  0
 23 46  1  0
 23 47  1  0
 25 48  1  0
 26 49  1  0
 27 50  1  0
 28 51  1  0
 29 52  1  0
 30 53  1  0
 30 54  1  0
 31 55  1  0
 31 56  1  0
M  END
>  <smiles>  (13) 
N=c1[nH]c2nc3ccccc3cc2cc1C(=O)N1CCN(CCc2ccccc2)CC1

>  <score_type>  (13) 
oracle

>  <origin>  (13) 
autodockgpu

>  <m_score__min__energy>  (13) 
-8.9700000000000006

>  <m_primary>  (13) 
energy

>  <rmsd>  (13) 
9.878066806394587

>  <m_score__min__rmsd>  (13) 
9.878066806394587

>  <meeko>  (13) 
{"free_energy": -8.4, "intermolecular_energy": -9.89, "internal_energy": -1.27, "cluster_size": 41, "cluster_id": 3, "rank_in_cluster": 14}

>  <energy>  (13) 
-8.41

>  <cluster_rmsd>  (13) 
0.49

>  <cluster>  (13) 
3

$$$$

     RDKit          3D

 56 60  0  0  0  0  0  0  0  0999 V2000
  141.0900   73.0720  221.3000 N   0  0  0  0  0  0  0  0  0  0  0  0
  140.5390   74.1840  221.6520 C   0  0  0  0  0  0  0  0  0  0  0  0
  141.2500   75.3280  221.7910 N   0  0  0  0  0  0  0  0  0  0  0  0
  140.6690   76.4950  222.1600 C   0  0  0  0  0  0  0  0  0  0  0  0
  141.4260   77.6140  222.2790 N   0  0  0  0  0  0  0  0  0  0  0  0
  140.8770   78.8060  222.6440 C   0  0  0  0  0  0  0  0  0  0  0  0
  141.6780   79.9460  222.7580 C   0  0  0  0  0  0  0  0  0  0  0  0
  141.1120   81.1670  223.1310 C   0  0  0  0  0  0  0  0  0  0  0  0
  139.7570   81.2630  223.3910 C   0  0  0  0  0  0  0  0  0  0  0  0
  138.9450   80.1330  223.2810 C   0  0  0  0  0  0  0  0  0  0  0  0
  139.5170   78.9180  222.9080 C   0  0  0  0  0  0  0  0  0  0  0  0
  138.7650   77.7700  222.7810 C   0  0  0  0  0  0  0  0  0  0  0  0
  139.2980   76.5570  222.4150 C   0  0  0  0  0  0  0  0  0  0  0  0
  138.5540   75.4030  222.2800 C   0  0  0  0  0  0  0  0  0  0  0  0
  139.1830   74.2140  221.8970 C   0  0  0  0  0  0  0  0  0  0  0  0
  138.3120   73.0540  221.7670 C   0  0  0  0  0  0  0  0  0  0  0  0
  137.3870   73.1670  220.8870 O   0  0  0  0  0  0  0  0  0  0  0  0
  138.4310   71.8710  222.5250 N   0  0  0  0  0  0  0  0  0  0  0  0
  139.4410   71.6390  223.5370 C   0  0  0  0  0  0  0  0  0  0  0  0
  139.9290   70.1800  223.4730 C   0  0  0  0  0  0  0  0  0  0  0  0
  138.8340   69.3500  223.7730 N   0  0  0  0  0  0  0  0  0  0  0  0
  138.8050   68.6410  224.9880 C   0  0  0  0  0  0  0  0  0  0  0  0
  140.1150   68.5540  225.7280 C   0  0  0  0  0  0  0  0  0  0  0  0
  140.2550   69.7600  226.6160 C   0  0  0  0  0  0  0  0  0  0  0  0
  139.5200   69.7690  227.7980 C   0  0  0  0  0  0  0  0  0  0  0  0
  139.5970   70.8360  228.6650 C   0  0  0  0  0  0  0  0  0  0  0  0
  140.4100   71.8930  228.3480 C   0  0  0  0  0  0  0  0  0  0  0  0
  141.1490   71.9020  227.1760 C   0  0  0  0  0  0  0  0  0  0  0  0
  141.0720   70.8180  226.2940 C   0  0  0  0  0  0  0  0  0  0  0  0
  137.5440   69.7150  223.3330 C   0  0  0  0  0  0  0  0  0  0  0  0
  137.4820   70.8000  222.2940 C   0  0  0  0  0  0  0  0  0  0  0  0
  140.4780   72.3690  220.8170 H   0  0  0  0  0  0  0  0  0  0  0  0
  142.2970   75.3140  221.6030 H   0  0  0  0  0  0  0  0  0  0  0  0
  142.7568   79.8811  222.5534 H   0  0  0  0  0  0  0  0  0  0  0  0
  141.7490   82.0595  223.2187 H   0  0  0  0  0  0  0  0  0  0  0  0
  139.3197   82.2288  223.6842 H   0  0  0  0  0  0  0  0  0  0  0  0
  137.8664   80.2006  223.4863 H   0  0  0  0  0  0  0  0  0  0  0  0
  137.6851   77.8273  222.9825 H   0  0  0  0  0  0  0  0  0  0  0  0
  137.4711   75.4180  222.4727 H   0  0  0  0  0  0  0  0  0  0  0  0
  140.2914   72.3150  223.3640 H   0  0  0  0  0  0  0  0  0  0  0  0
  139.0068   71.8301  224.5294 H   0  0  0  0  0  0  0  0  0  0  0  0
  140.3049   69.9545  222.4641 H   0  0  0  0  0  0  0  0  0  0  0  0
  140.7460   70.0149  224.1908 H   0  0  0  0  0  0  0  0  0  0  0  0
  138.0762   69.1333  225.6487 H   0  0  0  0  0  0  0  0  0  0  0  0
  138.5418   67.6061  224.7238 H   0  0  0  0  0  0  0  0  0  0  0  0
  140.1329   67.6405  226.3406 H   0  0  0  0  0  0  0  0  0  0  0  0
  140.9472   68.5222  225.0093 H   0  0  0  0  0  0  0  0  0  0  0  0
  138.8710   68.9150  228.0420 H   0  0  0  0  0  0  0  0  0  0  0  0
  139.0146   70.8400  229.5982 H   0  0  0  0  0  0  0  0  0  0  0  0
  140.4769   72.7488  229.0359 H   0  0  0  0  0  0  0  0  0  0  0  0
  141.7953   72.7600  226.9390 H   0  0  0  0  0  0  0  0  0  0  0  0
  141.6542   70.8126  225.3607 H   0  0  0  0  0  0  0  0  0  0  0  0
  137.0665   68.8182  222.9114 H   0  0  0  0  0  0  0  0  0  0  0  0
  137.0346   70.1239  224.2180 H   0  0  0  0  0  0  0  0  0  0  0  0
  137.6917   70.3539  221.3106 H   0  0  0  0  0  0  0  0  0  0  0  0
  136.4754   71.2408  222.3435 H   0  0  0  0  0  0  0  0  0  0  0  0
  1  2  2  3
  2  3  1  0
  3  4  1  0
  4  5  2  0
  5  6  1  0
  6  7  2  0
  7  8  1  0
  8  9  2  0
  9 10  1  0
 10 11  2  0
 11 12  1  0
 12 13  2  0
 13 14  1  0
 14 15  2  0
 15 16  1  0
 16 17  2  0
 16 18  1  0
 18 19  1  0
 19 20  1  0
 20 21  1  0
 21 22  1  0
 22 23  1  0
 23 24  1  0
 24 25  2  0
 25 26  1  0
 26 27  2  0
 27 28  1  0
 28 29  2  0
 21 30  1  0
 30 31  1  0
 15  2  1  0
 31 18  1  0
 13  4  1  0
 29 24  1  0
 11  6  1  0
  1 32  1  0
  3 33  1  0
  7 34  1  0
  8 35  1  0
  9 36  1  0
 10 37  1  0
 12 38  1  0
 14 39  1  0
 19 40  1  0
 19 41  1  0
 20 42  1  0
 20 43  1  0
 22 44  1  0
 22 45  1  0
 23 46  1  0
 23 47  1  0
 25 48  1  0
 26 49  1  0
 27 50  1  0
 28 51  1  0
 29 52  1  0
 30 53  1  0
 30 54  1  0
 31 55  1  0
 31 56  1  0
M  END
>  <smiles>  (14) 
N=c1[nH]c2nc3ccccc3cc2cc1C(=O)N1CCN(CCc2ccccc2)CC1

>  <score_type>  (14) 
oracle

>  <origin>  (14) 
autodockgpu

>  <m_score__min__energy>  (14) 
-8.9700000000000006

>  <m_primary>  (14) 
energy

>  <rmsd>  (14) 
3.764111548536447

>  <m_score__min__rmsd>  (14) 
3.764111548536447

>  <meeko>  (14) 
{"free_energy": -8.96, "intermolecular_energy": -10.45, "internal_energy": -0.72, "cluster_size": 4, "cluster_id": 1, "rank_in_cluster": 2}

>  <energy>  (14) 
-8.41

>  <cluster_rmsd>  (14) 
0.47

>  <cluster>  (14) 
3

$$$$

     RDKit          3D

 56 60  0  0  0  0  0  0  0  0999 V2000
  139.4130   70.9650  219.9920 N   0  0  0  0  0  0  0  0  0  0  0  0
  139.7300   71.0920  221.2360 C   0  0  0  0  0  0  0  0  0  0  0  0
  139.4830   70.1190  222.1460 N   0  0  0  0  0  0  0  0  0  0  0  0
  139.8170   70.2540  223.4520 C   0  0  0  0  0  0  0  0  0  0  0  0
  139.5530   69.2460  224.3200 N   0  0  0  0  0  0  0  0  0  0  0  0
  139.8770   69.3440  225.6400 C   0  0  0  0  0  0  0  0  0  0  0  0
  139.5960   68.2900  226.5140 C   0  0  0  0  0  0  0  0  0  0  0  0
  139.9320   68.3930  227.8670 C   0  0  0  0  0  0  0  0  0  0  0  0
  140.5440   69.5330  228.3540 C   0  0  0  0  0  0  0  0  0  0  0  0
  140.8310   70.5930  227.4920 C   0  0  0  0  0  0  0  0  0  0  0  0
  140.4940   70.4830  226.1440 C   0  0  0  0  0  0  0  0  0  0  0  0
  140.7530   71.4950  225.2450 C   0  0  0  0  0  0  0  0  0  0  0  0
  140.4350   71.4190  223.9100 C   0  0  0  0  0  0  0  0  0  0  0  0
  140.6950   72.4230  223.0010 C   0  0  0  0  0  0  0  0  0  0  0  0
  140.3380   72.2530  221.6590 C   0  0  0  0  0  0  0  0  0  0  0  0
  140.6680   73.3620  220.7750 C   0  0  0  0  0  0  0  0  0  0  0  0
  141.4600   73.0690  219.8110 O   0  0  0  0  0  0  0  0  0  0  0  0
  140.1830   74.6780  220.9210 N   0  0  0  0  0  0  0  0  0  0  0  0
  139.2810   75.1120  221.9690 C   0  0  0  0  0  0  0  0  0  0  0  0
  138.2590   76.1160  221.4060 C   0  0  0  0  0  0  0  0  0  0  0  0
  138.9690   77.2480  220.9660 N   0  0  0  0  0  0  0  0  0  0  0  0
  138.8540   78.4620  221.6670 C   0  0  0  0  0  0  0  0  0  0  0  0
  139.3250   78.4410  223.0980 C   0  0  0  0  0  0  0  0  0  0  0  0
  140.5690   79.2790  223.2150 C   0  0  0  0  0  0  0  0  0  0  0  0
  141.7740   78.6840  222.8530 C   0  0  0  0  0  0  0  0  0  0  0  0
  142.9560   79.3870  222.9300 C   0  0  0  0  0  0  0  0  0  0  0  0
  142.9300   80.6850  223.3680 C   0  0  0  0  0  0  0  0  0  0  0  0
  141.7400   81.2940  223.7330 C   0  0  0  0  0  0  0  0  0  0  0  0
  140.5390   80.5810  223.6550 C   0  0  0  0  0  0  0  0  0  0  0  0
  140.2420   77.0840  220.3790 C   0  0  0  0  0  0  0  0  0  0  0  0
  140.6060   75.6850  219.9680 C   0  0  0  0  0  0  0  0  0  0  0  0
  139.9370   71.5610  219.3040 H   0  0  0  0  0  0  0  0  0  0  0  0
  139.0140   69.2180  221.8270 H   0  0  0  0  0  0  0  0  0  0  0  0
  139.1098   67.3783  226.1367 H   0  0  0  0  0  0  0  0  0  0  0  0
  139.7076   67.5602  228.5497 H   0  0  0  0  0  0  0  0  0  0  0  0
  140.8047   69.6048  229.4202 H   0  0  0  0  0  0  0  0  0  0  0  0
  141.3170   71.5037  227.8719 H   0  0  0  0  0  0  0  0  0  0  0  0
  141.2389   72.4100  225.6147 H   0  0  0  0  0  0  0  0  0  0  0  0
  141.1810   73.3535  223.3297 H   0  0  0  0  0  0  0  0  0  0  0  0
  138.7481   74.2394  222.3746 H   0  0  0  0  0  0  0  0  0  0  0  0
  139.8627   75.5992  222.7654 H   0  0  0  0  0  0  0  0  0  0  0  0
  137.7150   75.6641  220.5634 H   0  0  0  0  0  0  0  0  0  0  0  0
  137.5282   76.3961  222.1790 H   0  0  0  0  0  0  0  0  0  0  0  0
  139.4432   79.2193  221.1290 H   0  0  0  0  0  0  0  0  0  0  0  0
  137.7768   78.6805  221.7106 H   0  0  0  0  0  0  0  0  0  0  0  0
  138.5406   78.8517  223.7508 H   0  0  0  0  0  0  0  0  0  0  0  0
  139.5427   77.4068  223.4031 H   0  0  0  0  0  0  0  0  0  0  0  0
  141.7825   77.6416  222.5018 H   0  0  0  0  0  0  0  0  0  0  0  0
  143.9067   78.9134  222.6441 H   0  0  0  0  0  0  0  0  0  0  0  0
  143.8697   81.2533  223.4310 H   0  0  0  0  0  0  0  0  0  0  0  0
  141.7398   82.3366  224.0836 H   0  0  0  0  0  0  0  0  0  0  0  0
  139.5877   81.0537  223.9406 H   0  0  0  0  0  0  0  0  0  0  0  0
  140.2825   77.7190  219.4817 H   0  0  0  0  0  0  0  0  0  0  0  0
  140.9652   77.3596  221.1607 H   0  0  0  0  0  0  0  0  0  0  0  0
  140.1301   75.4708  218.9997 H   0  0  0  0  0  0  0  0  0  0  0  0
  141.7035   75.6379  219.9105 H   0  0  0  0  0  0  0  0  0  0  0  0
  1  2  2  3
  2  3  1  0
  3  4  1  0
  4  5  2  0
  5  6  1  0
  6  7  2  0
  7  8  1  0
  8  9  2  0
  9 10  1  0
 10 11  2  0
 11 12  1  0
 12 13  2  0
 13 14  1  0
 14 15  2  0
 15 16  1  0
 16 17  2  0
 16 18  1  0
 18 19  1  0
 19 20  1  0
 20 21  1  0
 21 22  1  0
 22 23  1  0
 23 24  1  0
 24 25  2  0
 25 26  1  0
 26 27  2  0
 27 28  1  0
 28 29  2  0
 21 30  1  0
 30 31  1  0
 15  2  1  0
 31 18  1  0
 13  4  1  0
 29 24  1  0
 11  6  1  0
  1 32  1  0
  3 33  1  0
  7 34  1  0
  8 35  1  0
  9 36  1  0
 10 37  1  0
 12 38  1  0
 14 39  1  0
 19 40  1  0
 19 41  1  0
 20 42  1  0
 20 43  1  0
 22 44  1  0
 22 45  1  0
 23 46  1  0
 23 47  1  0
 25 48  1  0
 26 49  1  0
 27 50  1  0
 28 51  1  0
 29 52  1  0
 30 53  1  0
 30 54  1  0
 31 55  1  0
 31 56  1  0
M  END
>  <smiles>  (15) 
N=c1[nH]c2nc3ccccc3cc2cc1C(=O)N1CCN(CCc2ccccc2)CC1

>  <score_type>  (15) 
oracle

>  <origin>  (15) 
autodockgpu

>  <m_score__min__energy>  (15) 
-8.9700000000000006

>  <m_primary>  (15) 
energy

>  <rmsd>  (15) 
9.883125166003593

>  <m_score__min__rmsd>  (15) 
9.883125166003593

>  <meeko>  (15) 
{"free_energy": -8.41, "intermolecular_energy": -9.9, "internal_energy": -1.28, "cluster_size": 41, "cluster_id": 3, "rank_in_cluster": 7}

>  <energy>  (15) 
-8.41

>  <cluster_rmsd>  (15) 
0.49

>  <cluster>  (15) 
3

$$$$

     RDKit          3D

 56 60  0  0  0  0  0  0  0  0999 V2000
  139.3610   70.9870  219.9860 N   0  0  0  0  0  0  0  0  0  0  0  0
  139.6820   71.1150  221.2290 C   0  0  0  0  0  0  0  0  0  0  0  0
  139.4460   70.1380  222.1380 N   0  0  0  0  0  0  0  0  0  0  0  0
  139.7840   70.2740  223.4430 C   0  0  0  0  0  0  0  0  0  0  0  0
  139.5310   69.2630  224.3110 N   0  0  0  0  0  0  0  0  0  0  0  0
  139.8600   69.3610  225.6290 C   0  0  0  0  0  0  0  0  0  0  0  0
  139.5900   68.3040  226.5040 C   0  0  0  0  0  0  0  0  0  0  0  0
  139.9300   68.4070  227.8550 C   0  0  0  0  0  0  0  0  0  0  0  0
  140.5350   69.5520  228.3420 C   0  0  0  0  0  0  0  0  0  0  0  0
  140.8100   70.6150  227.4800 C   0  0  0  0  0  0  0  0  0  0  0  0
  140.4690   70.5050  226.1330 C   0  0  0  0  0  0  0  0  0  0  0  0
  140.7170   71.5200  225.2350 C   0  0  0  0  0  0  0  0  0  0  0  0
  140.3940   71.4430  223.9010 C   0  0  0  0  0  0  0  0  0  0  0  0
  140.6420   72.4510  222.9930 C   0  0  0  0  0  0  0  0  0  0  0  0
  140.2820   72.2800  221.6520 C   0  0  0  0  0  0  0  0  0  0  0  0
  140.6000   73.3930  220.7680 C   0  0  0  0  0  0  0  0  0  0  0  0
  141.3820   73.1060  219.7950 O   0  0  0  0  0  0  0  0  0  0  0  0
  140.1120   74.7070  220.9240 N   0  0  0  0  0  0  0  0  0  0  0  0
  139.2210   75.1350  221.9820 C   0  0  0  0  0  0  0  0  0  0  0  0
  138.1900   76.1380  221.4330 C   0  0  0  0  0  0  0  0  0  0  0  0
  138.8920   77.2740  220.9900 N   0  0  0  0  0  0  0  0  0  0  0  0
  138.7810   78.4850  221.6960 C   0  0  0  0  0  0  0  0  0  0  0  0
  139.2780   78.4640  223.1180 C   0  0  0  0  0  0  0  0  0  0  0  0
  140.5710   79.2280  223.1950 C   0  0  0  0  0  0  0  0  0  0  0  0
  140.4930   80.5780  223.5250 C   0  0  0  0  0  0  0  0  0  0  0  0
  141.6340   81.3450  223.6180 C   0  0  0  0  0  0  0  0  0  0  0  0
  142.8510   80.7590  223.3820 C   0  0  0  0  0  0  0  0  0  0  0  0
  142.9470   79.4160  223.0530 C   0  0  0  0  0  0  0  0  0  0  0  0
  141.7890   78.6360  222.9580 C   0  0  0  0  0  0  0  0  0  0  0  0
  140.1590   77.1150  220.3890 C   0  0  0  0  0  0  0  0  0  0  0  0
  140.5230   75.7180  219.9700 C   0  0  0  0  0  0  0  0  0  0  0  0
  139.8840   71.5810  219.2970 H   0  0  0  0  0  0  0  0  0  0  0  0
  138.9830   69.2350  221.8200 H   0  0  0  0  0  0  0  0  0  0  0  0
  139.1087   67.3893  226.1275 H   0  0  0  0  0  0  0  0  0  0  0  0
  139.7150   67.5712  228.5370 H   0  0  0  0  0  0  0  0  0  0  0  0
  140.7991   69.6246  229.4074 H   0  0  0  0  0  0  0  0  0  0  0  0
  141.2903   71.5290  227.8594 H   0  0  0  0  0  0  0  0  0  0  0  0
  141.1976   72.4381  225.6040 H   0  0  0  0  0  0  0  0  0  0  0  0
  141.1207   73.3852  223.3217 H   0  0  0  0  0  0  0  0  0  0  0  0
  138.6949   74.2597  222.3908 H   0  0  0  0  0  0  0  0  0  0  0  0
  139.8100   75.6215  222.7735 H   0  0  0  0  0  0  0  0  0  0  0  0
  137.6389   75.6875  220.5943 H   0  0  0  0  0  0  0  0  0  0  0  0
  137.4662   76.4129  222.2144 H   0  0  0  0  0  0  0  0  0  0  0  0
  139.3548   79.2479  221.1494 H   0  0  0  0  0  0  0  0  0  0  0  0
  137.7032   78.6954  221.7598 H   0  0  0  0  0  0  0  0  0  0  0  0
  138.5323   78.9334  223.7765 H   0  0  0  0  0  0  0  0  0  0  0  0
  139.4401   77.4248  223.4401 H   0  0  0  0  0  0  0  0  0  0  0  0
  139.5112   81.0369  223.7133 H   0  0  0  0  0  0  0  0  0  0  0  0
  141.5695   82.4119  223.8778 H   0  0  0  0  0  0  0  0  0  0  0  0
  143.7663   81.3648  223.4550 H   0  0  0  0  0  0  0  0  0  0  0  0
  143.9323   78.9638  222.8668 H   0  0  0  0  0  0  0  0  0  0  0  0
  141.8521   77.5689  222.6985 H   0  0  0  0  0  0  0  0  0  0  0  0
  140.1881   77.7526  219.4931 H   0  0  0  0  0  0  0  0  0  0  0  0
  140.8896   77.3902  221.1639 H   0  0  0  0  0  0  0  0  0  0  0  0
  140.0383   75.5054  219.0057 H   0  0  0  0  0  0  0  0  0  0  0  0
  141.6200   75.6741  219.9016 H   0  0  0  0  0  0  0  0  0  0  0  0
  1  2  2  3
  2  3  1  0
  3  4  1  0
  4  5  2  0
  5  6  1  0
  6  7  2  0
  7  8  1  0
  8  9  2  0
  9 10  1  0
 10 11  2  0
 11 12  1  0
 12 13  2  0
 13 14  1  0
 14 15  2  0
 15 16  1  0
 16 17  2  0
 16 18  1  0
 18 19  1  0
 19 20  1  0
 20 21  1  0
 21 22  1  0
 22 23  1  0
 23 24  1  0
 24 25  2  0
 25 26  1  0
 26 27  2  0
 27 28  1  0
 28 29  2  0
 21 30  1  0
 30 31  1  0
 15  2  1  0
 31 18  1  0
 13  4  1  0
 29 24  1  0
 11  6  1  0
  1 32  1  0
  3 33  1  0
  7 34  1  0
  8 35  1  0
  9 36  1  0
 10 37  1  0
 12 38  1  0
 14 39  1  0
 19 40  1  0
 19 41  1  0
 20 42  1  0
 20 43  1  0
 22 44  1  0
 22 45  1  0
 23 46  1  0
 23 47  1  0
 25 48  1  0
 26 49  1  0
 27 50  1  0
 28 51  1  0
 29 52  1  0
 30 53  1  0
 30 54  1  0
 31 55  1  0
 31 56  1  0
M  END
>  <smiles>  (16) 
N=c1[nH]c2nc3ccccc3cc2cc1C(=O)N1CCN(CCc2ccccc2)CC1

>  <score_type>  (16) 
oracle

>  <origin>  (16) 
autodockgpu

>  <m_score__min__energy>  (16) 
-8.9700000000000006

>  <m_primary>  (16) 
energy

>  <rmsd>  (16) 
9.921854139728369

>  <m_score__min__rmsd>  (16) 
9.921854139728369

>  <meeko>  (16) 
{"free_energy": -8.39, "intermolecular_energy": -9.88, "internal_energy": -1.29, "cluster_size": 41, "cluster_id": 3, "rank_in_cluster": 29}

>  <energy>  (16) 
-8.4

>  <cluster_rmsd>  (16) 
0.48

>  <cluster>  (16) 
3

$$$$

     RDKit          3D

 56 60  0  0  0  0  0  0  0  0999 V2000
  138.1200   69.8780  220.7840 N   0  0  0  0  0  0  0  0  0  0  0  0
  138.6160   70.1840  221.9340 C   0  0  0  0  0  0  0  0  0  0  0  0
  138.8930   69.2470  222.8720 N   0  0  0  0  0  0  0  0  0  0  0  0
  139.4140   69.5700  224.0800 C   0  0  0  0  0  0  0  0  0  0  0  0
  139.6790   68.5920  224.9810 N   0  0  0  0  0  0  0  0  0  0  0  0
  140.2060   68.8780  226.2040 C   0  0  0  0  0  0  0  0  0  0  0  0
  140.4710   67.8510  227.1150 C   0  0  0  0  0  0  0  0  0  0  0  0
  141.0140   68.1480  228.3680 C   0  0  0  0  0  0  0  0  0  0  0  0
  141.2940   69.4560  228.7210 C   0  0  0  0  0  0  0  0  0  0  0  0
  141.0340   70.4910  227.8210 C   0  0  0  0  0  0  0  0  0  0  0  0
  140.4930   70.1880  226.5730 C   0  0  0  0  0  0  0  0  0  0  0  0
  140.2170   71.1670  225.6430 C   0  0  0  0  0  0  0  0  0  0  0  0
  139.6850   70.9010  224.4040 C   0  0  0  0  0  0  0  0  0  0  0  0
  139.4090   71.8730  223.4640 C   0  0  0  0  0  0  0  0  0  0  0  0
  138.8720   71.5070  222.2250 C   0  0  0  0  0  0  0  0  0  0  0  0
  138.6310   72.6010  221.2950 C   0  0  0  0  0  0  0  0  0  0  0  0
  137.4400   72.6600  220.8260 O   0  0  0  0  0  0  0  0  0  0  0  0
  139.5970   73.5510  220.9040 N   0  0  0  0  0  0  0  0  0  0  0  0
  140.9650   73.5770  221.3780 C   0  0  0  0  0  0  0  0  0  0  0  0
  141.4210   75.0310  221.6000 C   0  0  0  0  0  0  0  0  0  0  0  0
  141.3950   75.6820  220.3530 N   0  0  0  0  0  0  0  0  0  0  0  0
  142.6020   76.0470  219.7280 C   0  0  0  0  0  0  0  0  0  0  0  0
  143.1570   75.0520  218.7420 C   0  0  0  0  0  0  0  0  0  0  0  0
  144.1380   74.1590  219.4500 C   0  0  0  0  0  0  0  0  0  0  0  0
  144.8560   74.7120  220.5060 C   0  0  0  0  0  0  0  0  0  0  0  0
  145.7710   73.9570  221.2060 C   0  0  0  0  0  0  0  0  0  0  0  0
  145.9670   72.6490  220.8480 C   0  0  0  0  0  0  0  0  0  0  0  0
  145.2620   72.0810  219.7990 C   0  0  0  0  0  0  0  0  0  0  0  0
  144.3320   72.8470  219.0870 C   0  0  0  0  0  0  0  0  0  0  0  0
  140.3840   75.3600  219.4230 C   0  0  0  0  0  0  0  0  0  0  0  0
  139.2150   74.5810  219.9590 C   0  0  0  0  0  0  0  0  0  0  0  0
  137.5620   70.6210  220.2930 H   0  0  0  0  0  0  0  0  0  0  0  0
  138.6980   68.2240  222.6550 H   0  0  0  0  0  0  0  0  0  0  0  0
  140.2517   66.8074  226.8450 H   0  0  0  0  0  0  0  0  0  0  0  0
  141.2205   67.3349  229.0795 H   0  0  0  0  0  0  0  0  0  0  0  0
  141.7210   69.6802  229.7096 H   0  0  0  0  0  0  0  0  0  0  0  0
  141.2536   71.5337  228.0938 H   0  0  0  0  0  0  0  0  0  0  0  0
  140.4332   72.2131  225.9054 H   0  0  0  0  0  0  0  0  0  0  0  0
  139.6103   72.9310  223.6879 H   0  0  0  0  0  0  0  0  0  0  0  0
  141.0314   73.0259  222.3277 H   0  0  0  0  0  0  0  0  0  0  0  0
  141.6155   73.1067  220.6258 H   0  0  0  0  0  0  0  0  0  0  0  0
  140.7386   75.5350  222.3002 H   0  0  0  0  0  0  0  0  0  0  0  0
  142.4344   75.0563  222.0270 H   0  0  0  0  0  0  0  0  0  0  0  0
  142.4325   76.9933  219.1934 H   0  0  0  0  0  0  0  0  0  0  0  0
  143.3470   76.1158  220.5343 H   0  0  0  0  0  0  0  0  0  0  0  0
  142.3376   74.4456  218.3286 H   0  0  0  0  0  0  0  0  0  0  0  0
  143.6617   75.5828  217.9213 H   0  0  0  0  0  0  0  0  0  0  0  0
  144.6911   75.7633  220.7847 H   0  0  0  0  0  0  0  0  0  0  0  0
  146.3362   74.3978  222.0404 H   0  0  0  0  0  0  0  0  0  0  0  0
  146.6960   72.0398  221.4025 H   0  0  0  0  0  0  0  0  0  0  0  0
  145.4331   71.0292  219.5262 H   0  0  0  0  0  0  0  0  0  0  0  0
  143.7665   72.4075  218.2521 H   0  0  0  0  0  0  0  0  0  0  0  0
  139.9976   76.3022  219.0072 H   0  0  0  0  0  0  0  0  0  0  0  0
  140.8626   74.7021  218.6827 H   0  0  0  0  0  0  0  0  0  0  0  0
  138.5309   75.2801  220.4622 H   0  0  0  0  0  0  0  0  0  0  0  0
  138.7392   74.0783  219.1041 H   0  0  0  0  0  0  0  0  0  0  0  0
  1  2  2  3
  2  3  1  0
  3  4  1  0
  4  5  2  0
  5  6  1  0
  6  7  2  0
  7  8  1  0
  8  9  2  0
  9 10  1  0
 10 11  2  0
 11 12  1  0
 12 13  2  0
 13 14  1  0
 14 15  2  0
 15 16  1  0
 16 17  2  0
 16 18  1  0
 18 19  1  0
 19 20  1  0
 20 21  1  0
 21 22  1  0
 22 23  1  0
 23 24  1  0
 24 25  2  0
 25 26  1  0
 26 27  2  0
 27 28  1  0
 28 29  2  0
 21 30  1  0
 30 31  1  0
 15  2  1  0
 31 18  1  0
 13  4  1  0
 29 24  1  0
 11  6  1  0
  1 32  1  0
  3 33  1  0
  7 34  1  0
  8 35  1  0
  9 36  1  0
 10 37  1  0
 12 38  1  0
 14 39  1  0
 19 40  1  0
 19 41  1  0
 20 42  1  0
 20 43  1  0
 22 44  1  0
 22 45  1  0
 23 46  1  0
 23 47  1  0
 25 48  1  0
 26 49  1  0
 27 50  1  0
 28 51  1  0
 29 52  1  0
 30 53  1  0
 30 54  1  0
 31 55  1  0
 31 56  1  0
M  END
>  <smiles>  (17) 
N=c1[nH]c2nc3ccccc3cc2cc1C(=O)N1CCN(CCc2ccccc2)CC1

>  <score_type>  (17) 
oracle

>  <origin>  (17) 
autodockgpu

>  <m_score__min__energy>  (17) 
-8.9700000000000006

>  <m_primary>  (17) 
energy

>  <rmsd>  (17) 
9.60205868291277

>  <m_score__min__rmsd>  (17) 
9.60205868291277

>  <meeko>  (17) 
{"free_energy": -7.76, "intermolecular_energy": -9.25, "internal_energy": -1.41, "cluster_size": 1, "cluster_id": 6, "rank_in_cluster": 1}

>  <energy>  (17) 
-8.4

>  <cluster_rmsd>  (17) 
0.49

>  <cluster>  (17) 
3

$$$$

     RDKit          3D

 56 60  0  0  0  0  0  0  0  0999 V2000
  138.9960   71.0540  220.1740 N   0  0  0  0  0  0  0  0  0  0  0  0
  139.4140   71.1130  221.3930 C   0  0  0  0  0  0  0  0  0  0  0  0
  139.1850   70.1180  222.2830 N   0  0  0  0  0  0  0  0  0  0  0  0
  139.6250   70.1820  223.5630 C   0  0  0  0  0  0  0  0  0  0  0  0
  139.3740   69.1540  224.4110 N   0  0  0  0  0  0  0  0  0  0  0  0
  139.8030   69.1800  225.7040 C   0  0  0  0  0  0  0  0  0  0  0  0
  139.5330   68.1080  226.5590 C   0  0  0  0  0  0  0  0  0  0  0  0
  139.9770   68.1380  227.8830 C   0  0  0  0  0  0  0  0  0  0  0  0
  140.6850   69.2240  228.3630 C   0  0  0  0  0  0  0  0  0  0  0  0
  140.9630   70.3020  227.5200 C   0  0  0  0  0  0  0  0  0  0  0  0
  140.5170   70.2660  226.2000 C   0  0  0  0  0  0  0  0  0  0  0  0
  140.7620   71.2990  225.3210 C   0  0  0  0  0  0  0  0  0  0  0  0
  140.3380   71.2940  224.0140 C   0  0  0  0  0  0  0  0  0  0  0  0
  140.5820   72.3200  223.1250 C   0  0  0  0  0  0  0  0  0  0  0  0
  140.1150   72.2240  221.8100 C   0  0  0  0  0  0  0  0  0  0  0  0
  140.4350   73.3500  220.9440 C   0  0  0  0  0  0  0  0  0  0  0  0
  141.1090   73.0520  219.8960 O   0  0  0  0  0  0  0  0  0  0  0  0
  140.0590   74.6860  221.1910 N   0  0  0  0  0  0  0  0  0  0  0  0
  139.2940   75.1270  222.3390 C   0  0  0  0  0  0  0  0  0  0  0  0
  138.2950   76.2220  221.9210 C   0  0  0  0  0  0  0  0  0  0  0  0
  139.0380   77.3250  221.4610 N   0  0  0  0  0  0  0  0  0  0  0  0
  139.0750   78.5090  222.2190 C   0  0  0  0  0  0  0  0  0  0  0  0
  139.7500   79.6860  221.5640 C   0  0  0  0  0  0  0  0  0  0  0  0
  140.9890   80.0330  222.3430 C   0  0  0  0  0  0  0  0  0  0  0  0
  140.8770   81.0300  223.3070 C   0  0  0  0  0  0  0  0  0  0  0  0
  141.9670   81.4020  224.0630 C   0  0  0  0  0  0  0  0  0  0  0  0
  143.1680   80.7750  223.8530 C   0  0  0  0  0  0  0  0  0  0  0  0
  143.2980   79.7800  222.8980 C   0  0  0  0  0  0  0  0  0  0  0  0
  142.1920   79.4010  222.1290 C   0  0  0  0  0  0  0  0  0  0  0  0
  140.2340   77.1060  220.7460 C   0  0  0  0  0  0  0  0  0  0  0  0
  140.4590   75.7070  220.2440 C   0  0  0  0  0  0  0  0  0  0  0  0
  139.4960   71.6510  219.4700 H   0  0  0  0  0  0  0  0  0  0  0  0
  138.6450   69.2560  221.9690 H   0  0  0  0  0  0  0  0  0  0  0  0
  138.9697   67.2388  226.1886 H   0  0  0  0  0  0  0  0  0  0  0  0
  139.7614   67.2900  228.5496 H   0  0  0  0  0  0  0  0  0  0  0  0
  141.0290   69.2390  229.4077 H   0  0  0  0  0  0  0  0  0  0  0  0
  141.5273   71.1693  227.8933 H   0  0  0  0  0  0  0  0  0  0  0  0
  141.3253   72.1713  225.6841 H   0  0  0  0  0  0  0  0  0  0  0  0
  141.1415   73.2100  223.4488 H   0  0  0  0  0  0  0  0  0  0  0  0
  138.7427   74.2727  222.7587 H   0  0  0  0  0  0  0  0  0  0  0  0
  139.9815   75.5364  223.0938 H   0  0  0  0  0  0  0  0  0  0  0  0
  137.6433   75.8479  221.1177 H   0  0  0  0  0  0  0  0  0  0  0  0
  137.6619   76.5117  222.7726 H   0  0  0  0  0  0  0  0  0  0  0  0
  138.0379   78.7976  222.4451 H   0  0  0  0  0  0  0  0  0  0  0  0
  139.6785   78.2755  223.1086 H   0  0  0  0  0  0  0  0  0  0  0  0
  140.0241   79.4264  220.5308 H   0  0  0  0  0  0  0  0  0  0  0  0
  139.0658   80.5472  221.5493 H   0  0  0  0  0  0  0  0  0  0  0  0
  139.9084   81.5262  223.4671 H   0  0  0  0  0  0  0  0  0  0  0  0
  141.8750   82.1908  224.8242 H   0  0  0  0  0  0  0  0  0  0  0  0
  144.0428   81.0668  224.4527 H   0  0  0  0  0  0  0  0  0  0  0  0
  144.2699   79.2882  222.7443 H   0  0  0  0  0  0  0  0  0  0  0  0
  142.2829   78.6124  221.3675 H   0  0  0  0  0  0  0  0  0  0  0  0
  140.2331   77.7790  219.8759 H   0  0  0  0  0  0  0  0  0  0  0  0
  141.0457   77.2960  221.4637 H   0  0  0  0  0  0  0  0  0  0  0  0
  139.8799   75.5709  219.3188 H   0  0  0  0  0  0  0  0  0  0  0  0
  141.5402   75.5909  220.0778 H   0  0  0  0  0  0  0  0  0  0  0  0
  1  2  2  3
  2  3  1  0
  3  4  1  0
  4  5  2  0
  5  6  1  0
  6  7  2  0
  7  8  1  0
  8  9  2  0
  9 10  1  0
 10 11  2  0
 11 12  1  0
 12 13  2  0
 13 14  1  0
 14 15  2  0
 15 16  1  0
 16 17  2  0
 16 18  1  0
 18 19  1  0
 19 20  1  0
 20 21  1  0
 21 22  1  0
 22 23  1  0
 23 24  1  0
 24 25  2  0
 25 26  1  0
 26 27  2  0
 27 28  1  0
 28 29  2  0
 21 30  1  0
 30 31  1  0
 15  2  1  0
 31 18  1  0
 13  4  1  0
 29 24  1  0
 11  6  1  0
  1 32  1  0
  3 33  1  0
  7 34  1  0
  8 35  1  0
  9 36  1  0
 10 37  1  0
 12 38  1  0
 14 39  1  0
 19 40  1  0
 19 41  1  0
 20 42  1  0
 20 43  1  0
 22 44  1  0
 22 45  1  0
 23 46  1  0
 23 47  1  0
 25 48  1  0
 26 49  1  0
 27 50  1  0
 28 51  1  0
 29 52  1  0
 30 53  1  0
 30 54  1  0
 31 55  1  0
 31 56  1  0
M  END
>  <smiles>  (18) 
N=c1[nH]c2nc3ccccc3cc2cc1C(=O)N1CCN(CCc2ccccc2)CC1

>  <score_type>  (18) 
oracle

>  <origin>  (18) 
autodockgpu

>  <m_score__min__energy>  (18) 
-8.9700000000000006

>  <m_primary>  (18) 
energy

>  <rmsd>  (18) 
10.229991577156072

>  <m_score__min__rmsd>  (18) 
10.229991577156072

>  <meeko>  (18) 
{"free_energy": -8.46, "intermolecular_energy": -9.95, "internal_energy": -1.17, "cluster_size": 41, "cluster_id": 3, "rank_in_cluster": 1}

>  <energy>  (18) 
-8.4

>  <cluster_rmsd>  (18) 
0.47

>  <cluster>  (18) 
3

$$$$

     RDKit          3D

 56 60  0  0  0  0  0  0  0  0999 V2000
  139.3790   70.9590  219.9880 N   0  0  0  0  0  0  0  0  0  0  0  0
  139.7020   71.0860  221.2300 C   0  0  0  0  0  0  0  0  0  0  0  0
  139.4630   70.1130  222.1410 N   0  0  0  0  0  0  0  0  0  0  0  0
  139.8030   70.2480  223.4460 C   0  0  0  0  0  0  0  0  0  0  0  0
  139.5450   69.2400  224.3160 N   0  0  0  0  0  0  0  0  0  0  0  0
  139.8760   69.3390  225.6330 C   0  0  0  0  0  0  0  0  0  0  0  0
  139.6010   68.2850  226.5100 C   0  0  0  0  0  0  0  0  0  0  0  0
  139.9430   68.3890  227.8600 C   0  0  0  0  0  0  0  0  0  0  0  0
  140.5550   69.5300  228.3450 C   0  0  0  0  0  0  0  0  0  0  0  0
  140.8360   70.5900  227.4810 C   0  0  0  0  0  0  0  0  0  0  0  0
  140.4920   70.4800  226.1350 C   0  0  0  0  0  0  0  0  0  0  0  0
  140.7450   71.4920  225.2340 C   0  0  0  0  0  0  0  0  0  0  0  0
  140.4200   71.4150  223.9010 C   0  0  0  0  0  0  0  0  0  0  0  0
  140.6730   72.4200  222.9910 C   0  0  0  0  0  0  0  0  0  0  0  0
  140.3100   72.2490  221.6500 C   0  0  0  0  0  0  0  0  0  0  0  0
  140.6330   73.3580  220.7640 C   0  0  0  0  0  0  0  0  0  0  0  0
  141.4200   73.0670  219.7960 O   0  0  0  0  0  0  0  0  0  0  0  0
  140.1470   74.6740  220.9140 N   0  0  0  0  0  0  0  0  0  0  0  0
  139.2510   75.1060  221.9670 C   0  0  0  0  0  0  0  0  0  0  0  0
  138.2240   76.1090  221.4100 C   0  0  0  0  0  0  0  0  0  0  0  0
  138.9300   77.2420  220.9660 N   0  0  0  0  0  0  0  0  0  0  0  0
  138.8180   78.4560  221.6680 C   0  0  0  0  0  0  0  0  0  0  0  0
  139.2930   78.4340  223.0970 C   0  0  0  0  0  0  0  0  0  0  0  0
  140.5860   79.1970  223.1940 C   0  0  0  0  0  0  0  0  0  0  0  0
  140.5110   80.5260  223.6010 C   0  0  0  0  0  0  0  0  0  0  0  0
  141.6520   81.2900  223.7160 C   0  0  0  0  0  0  0  0  0  0  0  0
  142.8650   80.7230  223.4240 C   0  0  0  0  0  0  0  0  0  0  0  0
  142.9580   79.4020  223.0180 C   0  0  0  0  0  0  0  0  0  0  0  0
  141.8010   78.6240  222.9000 C   0  0  0  0  0  0  0  0  0  0  0  0
  140.2000   77.0800  220.3720 C   0  0  0  0  0  0  0  0  0  0  0  0
  140.5640   75.6810  219.9590 C   0  0  0  0  0  0  0  0  0  0  0  0
  139.9090   71.5440  219.2960 H   0  0  0  0  0  0  0  0  0  0  0  0
  138.9940   69.2110  221.8250 H   0  0  0  0  0  0  0  0  0  0  0  0
  139.1144   67.3723  226.1357 H   0  0  0  0  0  0  0  0  0  0  0  0
  139.7235   67.5557  228.5436 H   0  0  0  0  0  0  0  0  0  0  0  0
  140.8201   69.6025  229.4101 H   0  0  0  0  0  0  0  0  0  0  0  0
  141.3232   71.5012  227.8582 H   0  0  0  0  0  0  0  0  0  0  0  0
  141.2318   72.4078  225.6006 H   0  0  0  0  0  0  0  0  0  0  0  0
  141.1579   73.3518  223.3176 H   0  0  0  0  0  0  0  0  0  0  0  0
  138.7218   74.2325  222.3754 H   0  0  0  0  0  0  0  0  0  0  0  0
  139.8366   75.5936  222.7603 H   0  0  0  0  0  0  0  0  0  0  0  0
  137.6757   75.6565  220.5706 H   0  0  0  0  0  0  0  0  0  0  0  0
  137.4973   76.3880  222.1872 H   0  0  0  0  0  0  0  0  0  0  0  0
  139.4062   79.2131  221.1286 H   0  0  0  0  0  0  0  0  0  0  0  0
  137.7411   78.6753  221.7149 H   0  0  0  0  0  0  0  0  0  0  0  0
  138.5378   78.9039  223.7442 H   0  0  0  0  0  0  0  0  0  0  0  0
  139.4491   77.3945  223.4213 H   0  0  0  0  0  0  0  0  0  0  0  0
  139.5319   80.9705  223.8330 H   0  0  0  0  0  0  0  0  0  0  0  0
  141.5901   82.3401  224.0376 H   0  0  0  0  0  0  0  0  0  0  0  0
  143.7800   81.3270  223.5135 H   0  0  0  0  0  0  0  0  0  0  0  0
  143.9409   78.9648  222.7885 H   0  0  0  0  0  0  0  0  0  0  0  0
  141.8622   77.5739  222.5781 H   0  0  0  0  0  0  0  0  0  0  0  0
  140.2346   77.7150  219.4745 H   0  0  0  0  0  0  0  0  0  0  0  0
  140.9271   77.3569  221.1496 H   0  0  0  0  0  0  0  0  0  0  0  0
  140.0836   75.4661  218.9930 H   0  0  0  0  0  0  0  0  0  0  0  0
  141.6612   75.6353  219.8959 H   0  0  0  0  0  0  0  0  0  0  0  0
  1  2  2  3
  2  3  1  0
  3  4  1  0
  4  5  2  0
  5  6  1  0
  6  7  2  0
  7  8  1  0
  8  9  2  0
  9 10  1  0
 10 11  2  0
 11 12  1  0
 12 13  2  0
 13 14  1  0
 14 15  2  0
 15 16  1  0
 16 17  2  0
 16 18  1  0
 18 19  1  0
 19 20  1  0
 20 21  1  0
 21 22  1  0
 22 23  1  0
 23 24  1  0
 24 25  2  0
 25 26  1  0
 26 27  2  0
 27 28  1  0
 28 29  2  0
 21 30  1  0
 30 31  1  0
 15  2  1  0
 31 18  1  0
 13  4  1  0
 29 24  1  0
 11  6  1  0
  1 32  1  0
  3 33  1  0
  7 34  1  0
  8 35  1  0
  9 36  1  0
 10 37  1  0
 12 38  1  0
 14 39  1  0
 19 40  1  0
 19 41  1  0
 20 42  1  0
 20 43  1  0
 22 44  1  0
 22 45  1  0
 23 46  1  0
 23 47  1  0
 25 48  1  0
 26 49  1  0
 27 50  1  0
 28 51  1  0
 29 52  1  0
 30 53  1  0
 30 54  1  0
 31 55  1  0
 31 56  1  0
M  END
>  <smiles>  (19) 
N=c1[nH]c2nc3ccccc3cc2cc1C(=O)N1CCN(CCc2ccccc2)CC1

>  <score_type>  (19) 
oracle

>  <origin>  (19) 
autodockgpu

>  <m_score__min__energy>  (19) 
-8.9700000000000006

>  <m_primary>  (19) 
energy

>  <rmsd>  (19) 
9.921935996131706

>  <m_score__min__rmsd>  (19) 
9.921935996131706

>  <meeko>  (19) 
{"free_energy": -8.4, "intermolecular_energy": -9.89, "internal_energy": -1.29, "cluster_size": 41, "cluster_id": 3, "rank_in_cluster": 19}

>  <energy>  (19) 
-8.4

>  <cluster_rmsd>  (19) 
0.49

>  <cluster>  (19) 
3

$$$$

     RDKit          3D

 56 60  0  0  0  0  0  0  0  0999 V2000
  139.3900   70.9620  219.9950 N   0  0  0  0  0  0  0  0  0  0  0  0
  139.7080   71.0930  221.2380 C   0  0  0  0  0  0  0  0  0  0  0  0
  139.4640   70.1230  222.1510 N   0  0  0  0  0  0  0  0  0  0  0  0
  139.7980   70.2630  223.4560 C   0  0  0  0  0  0  0  0  0  0  0  0
  139.5370   69.2570  224.3290 N   0  0  0  0  0  0  0  0  0  0  0  0
  139.8620   69.3600  225.6470 C   0  0  0  0  0  0  0  0  0  0  0  0
  139.5840   68.3090  226.5260 C   0  0  0  0  0  0  0  0  0  0  0  0
  139.9200   68.4180  227.8780 C   0  0  0  0  0  0  0  0  0  0  0  0
  140.5290   69.5610  228.3610 C   0  0  0  0  0  0  0  0  0  0  0  0
  140.8130   70.6180  227.4950 C   0  0  0  0  0  0  0  0  0  0  0  0
  140.4750   70.5040  226.1480 C   0  0  0  0  0  0  0  0  0  0  0  0
  140.7320   71.5130  225.2450 C   0  0  0  0  0  0  0  0  0  0  0  0
  140.4130   71.4310  223.9110 C   0  0  0  0  0  0  0  0  0  0  0  0
  140.6700   72.4330  222.9980 C   0  0  0  0  0  0  0  0  0  0  0  0
  140.3130   72.2580  221.6570 C   0  0  0  0  0  0  0  0  0  0  0  0
  140.6390   73.3640  220.7690 C   0  0  0  0  0  0  0  0  0  0  0  0
  141.4250   73.0690  219.8010 O   0  0  0  0  0  0  0  0  0  0  0  0
  140.1570   74.6810  220.9160 N   0  0  0  0  0  0  0  0  0  0  0  0
  139.2630   75.1190  221.9680 C   0  0  0  0  0  0  0  0  0  0  0  0
  138.2390   76.1230  221.4090 C   0  0  0  0  0  0  0  0  0  0  0  0
  138.9480   77.2540  220.9630 N   0  0  0  0  0  0  0  0  0  0  0  0
  138.8390   78.4690  221.6620 C   0  0  0  0  0  0  0  0  0  0  0  0
  139.2950   78.4430  223.0980 C   0  0  0  0  0  0  0  0  0  0  0  0
  140.5290   79.2920  223.2340 C   0  0  0  0  0  0  0  0  0  0  0  0
  141.7450   78.7060  222.8930 C   0  0  0  0  0  0  0  0  0  0  0  0
  142.9200   79.4190  222.9880 C   0  0  0  0  0  0  0  0  0  0  0  0
  142.8760   80.7180  223.4230 C   0  0  0  0  0  0  0  0  0  0  0  0
  141.6750   81.3180  223.7670 C   0  0  0  0  0  0  0  0  0  0  0  0
  140.4810   80.5950  223.6710 C   0  0  0  0  0  0  0  0  0  0  0  0
  140.2170   77.0870  220.3690 C   0  0  0  0  0  0  0  0  0  0  0  0
  140.5770   75.6860  219.9580 C   0  0  0  0  0  0  0  0  0  0  0  0
  139.9200   71.5480  219.3040 H   0  0  0  0  0  0  0  0  0  0  0  0
  138.9970   69.2200  221.8350 H   0  0  0  0  0  0  0  0  0  0  0  0
  139.0999   67.3945  226.1526 H   0  0  0  0  0  0  0  0  0  0  0  0
  139.6979   67.5871  228.5638 H   0  0  0  0  0  0  0  0  0  0  0  0
  140.7896   69.6374  229.4269 H   0  0  0  0  0  0  0  0  0  0  0  0
  141.2981   71.5306  227.8715 H   0  0  0  0  0  0  0  0  0  0  0  0
  141.2169   72.4302  225.6106 H   0  0  0  0  0  0  0  0  0  0  0  0
  141.1537   73.3658  223.3234 H   0  0  0  0  0  0  0  0  0  0  0  0
  138.7314   74.2483  222.3795 H   0  0  0  0  0  0  0  0  0  0  0  0
  139.8506   75.6074  222.7593 H   0  0  0  0  0  0  0  0  0  0  0  0
  137.6899   75.6703  220.5702 H   0  0  0  0  0  0  0  0  0  0  0  0
  137.5127   76.4051  222.1855 H   0  0  0  0  0  0  0  0  0  0  0  0
  139.4420   79.2196  221.1300 H   0  0  0  0  0  0  0  0  0  0  0  0
  137.7639   78.6995  221.6942 H   0  0  0  0  0  0  0  0  0  0  0  0
  138.4997   78.8416  223.7450 H   0  0  0  0  0  0  0  0  0  0  0  0
  139.5197   77.4090  223.3985 H   0  0  0  0  0  0  0  0  0  0  0  0
  141.7678   77.6630  222.5442 H   0  0  0  0  0  0  0  0  0  0  0  0
  143.8792   78.9527  222.7188 H   0  0  0  0  0  0  0  0  0  0  0  0
  143.8099   81.2941  223.5004 H   0  0  0  0  0  0  0  0  0  0  0  0
  141.6605   82.3614  224.1151 H   0  0  0  0  0  0  0  0  0  0  0  0
  139.5213   81.0604  223.9402 H   0  0  0  0  0  0  0  0  0  0  0  0
  140.2532   77.7204  219.4704 H   0  0  0  0  0  0  0  0  0  0  0  0
  140.9450   77.3627  221.1461 H   0  0  0  0  0  0  0  0  0  0  0  0
  140.0956   75.4708  218.9926 H   0  0  0  0  0  0  0  0  0  0  0  0
  141.6741   75.6370  219.8943 H   0  0  0  0  0  0  0  0  0  0  0  0
  1  2  2  3
  2  3  1  0
  3  4  1  0
  4  5  2  0
  5  6  1  0
  6  7  2  0
  7  8  1  0
  8  9  2  0
  9 10  1  0
 10 11  2  0
 11 12  1  0
 12 13  2  0
 13 14  1  0
 14 15  2  0
 15 16  1  0
 16 17  2  0
 16 18  1  0
 18 19  1  0
 19 20  1  0
 20 21  1  0
 21 22  1  0
 22 23  1  0
 23 24  1  0
 24 25  2  0
 25 26  1  0
 26 27  2  0
 27 28  1  0
 28 29  2  0
 21 30  1  0
 30 31  1  0
 15  2  1  0
 31 18  1  0
 13  4  1  0
 29 24  1  0
 11  6  1  0
  1 32  1  0
  3 33  1  0
  7 34  1  0
  8 35  1  0
  9 36  1  0
 10 37  1  0
 12 38  1  0
 14 39  1  0
 19 40  1  0
 19 41  1  0
 20 42  1  0
 20 43  1  0
 22 44  1  0
 22 45  1  0
 23 46  1  0
 23 47  1  0
 25 48  1  0
 26 49  1  0
 27 50  1  0
 28 51  1  0
 29 52  1  0
 30 53  1  0
 30 54  1  0
 31 55  1  0
 31 56  1  0
M  END
>  <smiles>  (20) 
N=c1[nH]c2nc3ccccc3cc2cc1C(=O)N1CCN(CCc2ccccc2)CC1

>  <score_type>  (20) 
oracle

>  <origin>  (20) 
autodockgpu

>  <m_score__min__energy>  (20) 
-8.9700000000000006

>  <m_primary>  (20) 
energy

>  <rmsd>  (20) 
9.878396344848515

>  <m_score__min__rmsd>  (20) 
9.878396344848515

>  <meeko>  (20) 
{"free_energy": -8.4, "intermolecular_energy": -9.89, "internal_energy": -1.28, "cluster_size": 41, "cluster_id": 3, "rank_in_cluster": 13}

>  <energy>  (20) 
-8.4

>  <cluster_rmsd>  (20) 
0.48

>  <cluster>  (20) 
3

$$$$

     RDKit          3D

 56 60  0  0  0  0  0  0  0  0999 V2000
  139.1230   70.9290  220.0380 N   0  0  0  0  0  0  0  0  0  0  0  0
  139.5040   71.0640  221.2630 C   0  0  0  0  0  0  0  0  0  0  0  0
  139.2840   70.1070  222.1960 N   0  0  0  0  0  0  0  0  0  0  0  0
  139.6850   70.2510  223.4830 C   0  0  0  0  0  0  0  0  0  0  0  0
  139.4450   69.2600  224.3760 N   0  0  0  0  0  0  0  0  0  0  0  0
  139.8360   69.3670  225.6770 C   0  0  0  0  0  0  0  0  0  0  0  0
  139.5790   68.3300  226.5780 C   0  0  0  0  0  0  0  0  0  0  0  0
  139.9830   68.4430  227.9100 C   0  0  0  0  0  0  0  0  0  0  0  0
  140.6400   69.5770  228.3520 C   0  0  0  0  0  0  0  0  0  0  0  0
  140.9030   70.6200  227.4630 C   0  0  0  0  0  0  0  0  0  0  0  0
  140.4980   70.5010  226.1350 C   0  0  0  0  0  0  0  0  0  0  0  0
  140.7320   71.4970  225.2110 C   0  0  0  0  0  0  0  0  0  0  0  0
  140.3460   71.4100  223.8950 C   0  0  0  0  0  0  0  0  0  0  0  0
  140.5790   72.3980  222.9610 C   0  0  0  0  0  0  0  0  0  0  0  0
  140.1540   72.2190  221.6410 C   0  0  0  0  0  0  0  0  0  0  0  0
  140.4600   73.3100  220.7270 C   0  0  0  0  0  0  0  0  0  0  0  0
  141.1860   72.9880  219.7220 O   0  0  0  0  0  0  0  0  0  0  0  0
  140.0190   74.6400  220.8870 N   0  0  0  0  0  0  0  0  0  0  0  0
  139.1920   75.1080  221.9810 C   0  0  0  0  0  0  0  0  0  0  0  0
  138.1650   76.1330  221.4680 C   0  0  0  0  0  0  0  0  0  0  0  0
  138.8780   77.2420  220.9760 N   0  0  0  0  0  0  0  0  0  0  0  0
  138.8360   78.4650  221.6690 C   0  0  0  0  0  0  0  0  0  0  0  0
  139.3160   78.4270  223.0970 C   0  0  0  0  0  0  0  0  0  0  0  0
  140.5540   79.2710  223.2190 C   0  0  0  0  0  0  0  0  0  0  0  0
  141.7710   78.6630  222.9260 C   0  0  0  0  0  0  0  0  0  0  0  0
  142.9490   79.3700  223.0110 C   0  0  0  0  0  0  0  0  0  0  0  0
  142.9080   80.6870  223.3900 C   0  0  0  0  0  0  0  0  0  0  0  0
  141.7070   81.3100  223.6860 C   0  0  0  0  0  0  0  0  0  0  0  0
  140.5080   80.5920  223.5990 C   0  0  0  0  0  0  0  0  0  0  0  0
  140.1090   77.0390  220.3170 C   0  0  0  0  0  0  0  0  0  0  0  0
  140.4120   75.6260  219.9000 C   0  0  0  0  0  0  0  0  0  0  0  0
  139.6380   71.4890  219.3150 H   0  0  0  0  0  0  0  0  0  0  0  0
  138.7830   69.2120  221.9130 H   0  0  0  0  0  0  0  0  0  0  0  0
  139.0576   67.4233  226.2374 H   0  0  0  0  0  0  0  0  0  0  0  0
  139.7769   67.6231  228.6137 H   0  0  0  0  0  0  0  0  0  0  0  0
  140.9548   69.6566  229.4030 H   0  0  0  0  0  0  0  0  0  0  0  0
  141.4241   71.5258  227.8066 H   0  0  0  0  0  0  0  0  0  0  0  0
  141.2536   72.4065  225.5437 H   0  0  0  0  0  0  0  0  0  0  0  0
  141.0972   73.3232  223.2535 H   0  0  0  0  0  0  0  0  0  0  0  0
  138.6616   74.2538  222.4271 H   0  0  0  0  0  0  0  0  0  0  0  0
  139.8322   75.5875  222.7362 H   0  0  0  0  0  0  0  0  0  0  0  0
  137.5615   75.6882  220.6630 H   0  0  0  0  0  0  0  0  0  0  0  0
  137.4873   76.4389  222.2787 H   0  0  0  0  0  0  0  0  0  0  0  0
  139.4624   79.1847  221.1216 H   0  0  0  0  0  0  0  0  0  0  0  0
  137.7730   78.7436  221.7187 H   0  0  0  0  0  0  0  0  0  0  0  0
  138.5327   78.8229  223.7602 H   0  0  0  0  0  0  0  0  0  0  0  0
  139.5428   77.3901  223.3857 H   0  0  0  0  0  0  0  0  0  0  0  0
  141.7918   77.6057  222.6231 H   0  0  0  0  0  0  0  0  0  0  0  0
  143.9088   78.8856  222.7784 H   0  0  0  0  0  0  0  0  0  0  0  0
  143.8452   81.2587  223.4602 H   0  0  0  0  0  0  0  0  0  0  0  0
  141.6950   82.3674  223.9890 H   0  0  0  0  0  0  0  0  0  0  0  0
  139.5473   81.0754  223.8302 H   0  0  0  0  0  0  0  0  0  0  0  0
  140.1128   77.6644  219.4121 H   0  0  0  0  0  0  0  0  0  0  0  0
  140.8841   77.3025  221.0517 H   0  0  0  0  0  0  0  0  0  0  0  0
  139.8749   75.4156  218.9633 H   0  0  0  0  0  0  0  0  0  0  0  0
  141.5026   75.5489  219.7789 H   0  0  0  0  0  0  0  0  0  0  0  0
  1  2  2  3
  2  3  1  0
  3  4  1  0
  4  5  2  0
  5  6  1  0
  6  7  2  0
  7  8  1  0
  8  9  2  0
  9 10  1  0
 10 11  2  0
 11 12  1  0
 12 13  2  0
 13 14  1  0
 14 15  2  0
 15 16  1  0
 16 17  2  0
 16 18  1  0
 18 19  1  0
 19 20  1  0
 20 21  1  0
 21 22  1  0
 22 23  1  0
 23 24  1  0
 24 25  2  0
 25 26  1  0
 26 27  2  0
 27 28  1  0
 28 29  2  0
 21 30  1  0
 30 31  1  0
 15  2  1  0
 31 18  1  0
 13  4  1  0
 29 24  1  0
 11  6  1  0
  1 32  1  0
  3 33  1  0
  7 34  1  0
  8 35  1  0
  9 36  1  0
 10 37  1  0
 12 38  1  0
 14 39  1  0
 19 40  1  0
 19 41  1  0
 20 42  1  0
 20 43  1  0
 22 44  1  0
 22 45  1  0
 23 46  1  0
 23 47  1  0
 25 48  1  0
 26 49  1  0
 27 50  1  0
 28 51  1  0
 29 52  1  0
 30 53  1  0
 30 54  1  0
 31 55  1  0
 31 56  1  0
M  END
>  <smiles>  (21) 
N=c1[nH]c2nc3ccccc3cc2cc1C(=O)N1CCN(CCc2ccccc2)CC1

>  <score_type>  (21) 
oracle

>  <origin>  (21) 
autodockgpu

>  <m_score__min__energy>  (21) 
-8.9700000000000006

>  <m_primary>  (21) 
energy

>  <rmsd>  (21) 
9.877981447673323

>  <m_score__min__rmsd>  (21) 
9.877981447673323

>  <meeko>  (21) 
{"free_energy": -8.4, "intermolecular_energy": -9.89, "internal_energy": -1.28, "cluster_size": 41, "cluster_id": 3, "rank_in_cluster": 12}

>  <energy>  (21) 
-8.4

>  <cluster_rmsd>  (21) 
0.48

>  <cluster>  (21) 
3

$$$$

     RDKit          3D

 56 60  0  0  0  0  0  0  0  0999 V2000
  139.4290   70.9780  219.9850 N   0  0  0  0  0  0  0  0  0  0  0  0
  139.7420   71.1050  221.2300 C   0  0  0  0  0  0  0  0  0  0  0  0
  139.4990   70.1290  222.1380 N   0  0  0  0  0  0  0  0  0  0  0  0
  139.8280   70.2640  223.4450 C   0  0  0  0  0  0  0  0  0  0  0  0
  139.5680   69.2530  224.3110 N   0  0  0  0  0  0  0  0  0  0  0  0
  139.8880   69.3510  225.6310 C   0  0  0  0  0  0  0  0  0  0  0  0
  139.6110   68.2950  226.5040 C   0  0  0  0  0  0  0  0  0  0  0  0
  139.9430   68.3980  227.8570 C   0  0  0  0  0  0  0  0  0  0  0  0
  140.5460   69.5410  228.3480 C   0  0  0  0  0  0  0  0  0  0  0  0
  140.8290   70.6040  227.4880 C   0  0  0  0  0  0  0  0  0  0  0  0
  140.4960   70.4940  226.1390 C   0  0  0  0  0  0  0  0  0  0  0  0
  140.7520   71.5090  225.2420 C   0  0  0  0  0  0  0  0  0  0  0  0
  140.4370   71.4320  223.9070 C   0  0  0  0  0  0  0  0  0  0  0  0
  140.6930   72.4400  223.0000 C   0  0  0  0  0  0  0  0  0  0  0  0
  140.3420   72.2700  221.6570 C   0  0  0  0  0  0  0  0  0  0  0  0
  140.6670   73.3820  220.7750 C   0  0  0  0  0  0  0  0  0  0  0  0
  141.4600   73.0950  219.8110 O   0  0  0  0  0  0  0  0  0  0  0  0
  140.1760   74.6950  220.9240 N   0  0  0  0  0  0  0  0  0  0  0  0
  139.2720   75.1230  221.9720 C   0  0  0  0  0  0  0  0  0  0  0  0
  138.2460   76.1240  221.4110 C   0  0  0  0  0  0  0  0  0  0  0  0
  138.9510   77.2600  220.9740 N   0  0  0  0  0  0  0  0  0  0  0  0
  138.8310   78.4720  221.6780 C   0  0  0  0  0  0  0  0  0  0  0  0
  139.3150   78.4540  223.1040 C   0  0  0  0  0  0  0  0  0  0  0  0
  140.5530   79.3010  223.2110 C   0  0  0  0  0  0  0  0  0  0  0  0
  141.7720   78.6800  222.9580 C   0  0  0  0  0  0  0  0  0  0  0  0
  142.9510   79.3890  223.0330 C   0  0  0  0  0  0  0  0  0  0  0  0
  142.9070   80.7200  223.3600 C   0  0  0  0  0  0  0  0  0  0  0  0
  141.7020   81.3540  223.6160 C   0  0  0  0  0  0  0  0  0  0  0  0
  140.5040   80.6350  223.5400 C   0  0  0  0  0  0  0  0  0  0  0  0
  140.2250   77.1030  220.3870 C   0  0  0  0  0  0  0  0  0  0  0  0
  140.5950   75.7060  219.9730 C   0  0  0  0  0  0  0  0  0  0  0  0
  139.9620   71.5670  219.2980 H   0  0  0  0  0  0  0  0  0  0  0  0
  139.0360   69.2260  221.8160 H   0  0  0  0  0  0  0  0  0  0  0  0
  139.1306   67.3810  226.1248 H   0  0  0  0  0  0  0  0  0  0  0  0
  139.7227   67.5624  228.5376 H   0  0  0  0  0  0  0  0  0  0  0  0
  140.8026   69.6130  229.4152 H   0  0  0  0  0  0  0  0  0  0  0  0
  141.3088   71.5170  227.8704 H   0  0  0  0  0  0  0  0  0  0  0  0
  141.2324   72.4261  225.6136 H   0  0  0  0  0  0  0  0  0  0  0  0
  141.1712   73.3734  223.3320 H   0  0  0  0  0  0  0  0  0  0  0  0
  138.7425   74.2473  222.3755 H   0  0  0  0  0  0  0  0  0  0  0  0
  139.8515   75.6110  222.7695 H   0  0  0  0  0  0  0  0  0  0  0  0
  137.7043   75.6718  220.5672 H   0  0  0  0  0  0  0  0  0  0  0  0
  137.5138   76.3991  222.1844 H   0  0  0  0  0  0  0  0  0  0  0  0
  139.4080   79.2355  221.1357 H   0  0  0  0  0  0  0  0  0  0  0  0
  137.7522   78.6798  221.7320 H   0  0  0  0  0  0  0  0  0  0  0  0
  138.5333   78.8582  223.7640 H   0  0  0  0  0  0  0  0  0  0  0  0
  139.5437   77.4213  223.4061 H   0  0  0  0  0  0  0  0  0  0  0  0
  141.7948   77.6120  222.6954 H   0  0  0  0  0  0  0  0  0  0  0  0
  143.9132   78.8947  222.8336 H   0  0  0  0  0  0  0  0  0  0  0  0
  143.8437   81.2937  223.4200 H   0  0  0  0  0  0  0  0  0  0  0  0
  141.6871   82.4220  223.8789 H   0  0  0  0  0  0  0  0  0  0  0  0
  139.5411   81.1279  223.7397 H   0  0  0  0  0  0  0  0  0  0  0  0
  140.2631   77.7402  219.4911 H   0  0  0  0  0  0  0  0  0  0  0  0
  140.9469   77.3802  221.1693 H   0  0  0  0  0  0  0  0  0  0  0  0
  140.1202   75.4919  219.0042 H   0  0  0  0  0  0  0  0  0  0  0  0
  141.6927   75.6636  219.9156 H   0  0  0  0  0  0  0  0  0  0  0  0
  1  2  2  3
  2  3  1  0
  3  4  1  0
  4  5  2  0
  5  6  1  0
  6  7  2  0
  7  8  1  0
  8  9  2  0
  9 10  1  0
 10 11  2  0
 11 12  1  0
 12 13  2  0
 13 14  1  0
 14 15  2  0
 15 16  1  0
 16 17  2  0
 16 18  1  0
 18 19  1  0
 19 20  1  0
 20 21  1  0
 21 22  1  0
 22 23  1  0
 23 24  1  0
 24 25  2  0
 25 26  1  0
 26 27  2  0
 27 28  1  0
 28 29  2  0
 21 30  1  0
 30 31  1  0
 15  2  1  0
 31 18  1  0
 13  4  1  0
 29 24  1  0
 11  6  1  0
  1 32  1  0
  3 33  1  0
  7 34  1  0
  8 35  1  0
  9 36  1  0
 10 37  1  0
 12 38  1  0
 14 39  1  0
 19 40  1  0
 19 41  1  0
 20 42  1  0
 20 43  1  0
 22 44  1  0
 22 45  1  0
 23 46  1  0
 23 47  1  0
 25 48  1  0
 26 49  1  0
 27 50  1  0
 28 51  1  0
 29 52  1  0
 30 53  1  0
 30 54  1  0
 31 55  1  0
 31 56  1  0
M  END
>  <smiles>  (22) 
N=c1[nH]c2nc3ccccc3cc2cc1C(=O)N1CCN(CCc2ccccc2)CC1

>  <score_type>  (22) 
oracle

>  <origin>  (22) 
autodockgpu

>  <m_score__min__energy>  (22) 
-8.9700000000000006

>  <m_primary>  (22) 
energy

>  <rmsd>  (22) 
9.88949879945947

>  <m_score__min__rmsd>  (22) 
9.88949879945947

>  <meeko>  (22) 
{"free_energy": -8.4, "intermolecular_energy": -9.89, "internal_energy": -1.29, "cluster_size": 41, "cluster_id": 3, "rank_in_cluster": 16}

>  <energy>  (22) 
-8.4

>  <cluster_rmsd>  (22) 
0.5

>  <cluster>  (22) 
3

$$$$

     RDKit          3D

 56 60  0  0  0  0  0  0  0  0999 V2000
  139.2630   71.2150  220.0430 N   0  0  0  0  0  0  0  0  0  0  0  0
  139.5980   71.2960  221.2860 C   0  0  0  0  0  0  0  0  0  0  0  0
  139.3670   70.2900  222.1630 N   0  0  0  0  0  0  0  0  0  0  0  0
  139.7200   70.3770  223.4680 C   0  0  0  0  0  0  0  0  0  0  0  0
  139.4710   69.3380  224.3030 N   0  0  0  0  0  0  0  0  0  0  0  0
  139.8140   69.3880  225.6200 C   0  0  0  0  0  0  0  0  0  0  0  0
  139.5480   68.3020  226.4590 C   0  0  0  0  0  0  0  0  0  0  0  0
  139.9040   68.3560  227.8090 C   0  0  0  0  0  0  0  0  0  0  0  0
  140.5210   69.4790  228.3290 C   0  0  0  0  0  0  0  0  0  0  0  0
  140.7930   70.5700  227.5020 C   0  0  0  0  0  0  0  0  0  0  0  0
  140.4360   70.5100  226.1570 C   0  0  0  0  0  0  0  0  0  0  0  0
  140.6800   71.5550  225.2920 C   0  0  0  0  0  0  0  0  0  0  0  0
  140.3420   71.5260  223.9600 C   0  0  0  0  0  0  0  0  0  0  0  0
  140.5860   72.5640  223.0850 C   0  0  0  0  0  0  0  0  0  0  0  0
  140.2100   72.4430  221.7430 C   0  0  0  0  0  0  0  0  0  0  0  0
  140.5250   73.5840  220.8950 C   0  0  0  0  0  0  0  0  0  0  0  0
  141.3170   73.3330  219.9200 O   0  0  0  0  0  0  0  0  0  0  0  0
  140.0250   74.8890  221.0870 N   0  0  0  0  0  0  0  0  0  0  0  0
  139.1210   75.2770  222.1500 C   0  0  0  0  0  0  0  0  0  0  0  0
  138.0860   76.2880  221.6230 C   0  0  0  0  0  0  0  0  0  0  0  0
  138.7820   77.4420  221.2200 N   0  0  0  0  0  0  0  0  0  0  0  0
  138.6550   78.6310  221.9610 C   0  0  0  0  0  0  0  0  0  0  0  0
  139.2580   78.6110  223.3420 C   0  0  0  0  0  0  0  0  0  0  0  0
  140.5810   79.3240  223.3070 C   0  0  0  0  0  0  0  0  0  0  0  0
  140.5680   80.7000  223.5110 C   0  0  0  0  0  0  0  0  0  0  0  0
  141.7400   81.4240  223.4970 C   0  0  0  0  0  0  0  0  0  0  0  0
  142.9240   80.7680  223.2790 C   0  0  0  0  0  0  0  0  0  0  0  0
  142.9570   79.3990  223.0750 C   0  0  0  0  0  0  0  0  0  0  0  0
  141.7670   78.6620  223.0890 C   0  0  0  0  0  0  0  0  0  0  0  0
  140.0540   77.3130  220.6250 C   0  0  0  0  0  0  0  0  0  0  0  0
  140.4340   75.9320  220.1670 C   0  0  0  0  0  0  0  0  0  0  0  0
  139.7840   71.8280  219.3690 H   0  0  0  0  0  0  0  0  0  0  0  0
  138.8950   69.4010  221.8180 H   0  0  0  0  0  0  0  0  0  0  0  0
  139.0577   67.4036  226.0558 H   0  0  0  0  0  0  0  0  0  0  0  0
  139.6917   67.4980  228.4637 H   0  0  0  0  0  0  0  0  0  0  0  0
  140.7971   69.5125  229.3932 H   0  0  0  0  0  0  0  0  0  0  0  0
  141.2837   71.4670  227.9078 H   0  0  0  0  0  0  0  0  0  0  0  0
  141.1696   72.4572  225.6874 H   0  0  0  0  0  0  0  0  0  0  0  0
  141.0742   73.4832  223.4410 H   0  0  0  0  0  0  0  0  0  0  0  0
  138.5989   74.3852  222.5270 H   0  0  0  0  0  0  0  0  0  0  0  0
  139.6990   75.7438  222.9612 H   0  0  0  0  0  0  0  0  0  0  0  0
  137.5452   75.8586  220.7668 H   0  0  0  0  0  0  0  0  0  0  0  0
  137.3539   76.5336  222.4064 H   0  0  0  0  0  0  0  0  0  0  0  0
  139.1416   79.4369  221.3920 H   0  0  0  0  0  0  0  0  0  0  0  0
  137.5748   78.7768  222.1089 H   0  0  0  0  0  0  0  0  0  0  0  0
  138.5834   79.1192  224.0467 H   0  0  0  0  0  0  0  0  0  0  0  0
  139.4040   77.5711  223.6695 H   0  0  0  0  0  0  0  0  0  0  0  0
  139.6119   81.2154  223.6853 H   0  0  0  0  0  0  0  0  0  0  0  0
  141.7261   82.5120  223.6583 H   0  0  0  0  0  0  0  0  0  0  0  0
  143.8640   81.3392  223.2660 H   0  0  0  0  0  0  0  0  0  0  0  0
  143.9173   78.8911  222.9021 H   0  0  0  0  0  0  0  0  0  0  0  0
  141.7800   77.5738  222.9287 H   0  0  0  0  0  0  0  0  0  0  0  0
  140.0840   77.9776  219.7490 H   0  0  0  0  0  0  0  0  0  0  0  0
  140.7762   77.5716  221.4134 H   0  0  0  0  0  0  0  0  0  0  0  0
  139.9587   75.7442  219.1929 H   0  0  0  0  0  0  0  0  0  0  0  0
  141.5318   75.9000  220.1061 H   0  0  0  0  0  0  0  0  0  0  0  0
  1  2  2  3
  2  3  1  0
  3  4  1  0
  4  5  2  0
  5  6  1  0
  6  7  2  0
  7  8  1  0
  8  9  2  0
  9 10  1  0
 10 11  2  0
 11 12  1  0
 12 13  2  0
 13 14  1  0
 14 15  2  0
 15 16  1  0
 16 17  2  0
 16 18  1  0
 18 19  1  0
 19 20  1  0
 20 21  1  0
 21 22  1  0
 22 23  1  0
 23 24  1  0
 24 25  2  0
 25 26  1  0
 26 27  2  0
 27 28  1  0
 28 29  2  0
 21 30  1  0
 30 31  1  0
 15  2  1  0
 31 18  1  0
 13  4  1  0
 29 24  1  0
 11  6  1  0
  1 32  1  0
  3 33  1  0
  7 34  1  0
  8 35  1  0
  9 36  1  0
 10 37  1  0
 12 38  1  0
 14 39  1  0
 19 40  1  0
 19 41  1  0
 20 42  1  0
 20 43  1  0
 22 44  1  0
 22 45  1  0
 23 46  1  0
 23 47  1  0
 25 48  1  0
 26 49  1  0
 27 50  1  0
 28 51  1  0
 29 52  1  0
 30 53  1  0
 30 54  1  0
 31 55  1  0
 31 56  1  0
M  END
>  <smiles>  (23) 
N=c1[nH]c2nc3ccccc3cc2cc1C(=O)N1CCN(CCc2ccccc2)CC1

>  <score_type>  (23) 
oracle

>  <origin>  (23) 
autodockgpu

>  <m_score__min__energy>  (23) 
-8.9700000000000006

>  <m_primary>  (23) 
energy

>  <rmsd>  (23) 
9.955274110142245

>  <m_score__min__rmsd>  (23) 
9.955274110142245

>  <meeko>  (23) 
{"free_energy": -8.35, "intermolecular_energy": -9.84, "internal_energy": -1.28, "cluster_size": 41, "cluster_id": 3, "rank_in_cluster": 35}

>  <energy>  (23) 
-8.4

>  <cluster_rmsd>  (23) 
0.49

>  <cluster>  (23) 
3

$$$$

     RDKit          3D

 56 60  0  0  0  0  0  0  0  0999 V2000
  139.4270   70.9300  219.9830 N   0  0  0  0  0  0  0  0  0  0  0  0
  139.7320   71.0590  221.2300 C   0  0  0  0  0  0  0  0  0  0  0  0
  139.4850   70.0840  222.1370 N   0  0  0  0  0  0  0  0  0  0  0  0
  139.8060   70.2210  223.4460 C   0  0  0  0  0  0  0  0  0  0  0  0
  139.5420   69.2110  224.3120 N   0  0  0  0  0  0  0  0  0  0  0  0
  139.8530   69.3110  225.6340 C   0  0  0  0  0  0  0  0  0  0  0  0
  139.5720   68.2550  226.5070 C   0  0  0  0  0  0  0  0  0  0  0  0
  139.8950   68.3610  227.8620 C   0  0  0  0  0  0  0  0  0  0  0  0
  140.4930   69.5050  228.3550 C   0  0  0  0  0  0  0  0  0  0  0  0
  140.7800   70.5670  227.4950 C   0  0  0  0  0  0  0  0  0  0  0  0
  140.4560   70.4560  226.1450 C   0  0  0  0  0  0  0  0  0  0  0  0
  140.7160   71.4700  225.2480 C   0  0  0  0  0  0  0  0  0  0  0  0
  140.4100   71.3910  223.9110 C   0  0  0  0  0  0  0  0  0  0  0  0
  140.6700   72.3980  223.0040 C   0  0  0  0  0  0  0  0  0  0  0  0
  140.3270   72.2250  221.6590 C   0  0  0  0  0  0  0  0  0  0  0  0
  140.6560   73.3370  220.7780 C   0  0  0  0  0  0  0  0  0  0  0  0
  141.4540   73.0490  219.8180 O   0  0  0  0  0  0  0  0  0  0  0  0
  140.1640   74.6500  220.9240 N   0  0  0  0  0  0  0  0  0  0  0  0
  139.2550   75.0780  221.9670 C   0  0  0  0  0  0  0  0  0  0  0  0
  138.2310   76.0780  221.4000 C   0  0  0  0  0  0  0  0  0  0  0  0
  138.9380   77.2150  220.9660 N   0  0  0  0  0  0  0  0  0  0  0  0
  138.8140   78.4270  221.6680 C   0  0  0  0  0  0  0  0  0  0  0  0
  139.2860   78.4090  223.0980 C   0  0  0  0  0  0  0  0  0  0  0  0
  140.5710   79.1830  223.1990 C   0  0  0  0  0  0  0  0  0  0  0  0
  140.4800   80.5220  223.5690 C   0  0  0  0  0  0  0  0  0  0  0  0
  141.6120   81.2980  223.6850 C   0  0  0  0  0  0  0  0  0  0  0  0
  142.8350   80.7320  223.4310 C   0  0  0  0  0  0  0  0  0  0  0  0
  142.9450   79.4010  223.0620 C   0  0  0  0  0  0  0  0  0  0  0  0
  141.7950   78.6120  222.9430 C   0  0  0  0  0  0  0  0  0  0  0  0
  140.2150   77.0580  220.3850 C   0  0  0  0  0  0  0  0  0  0  0  0
  140.5880   75.6600  219.9740 C   0  0  0  0  0  0  0  0  0  0  0  0
  139.9620   71.5210  219.2990 H   0  0  0  0  0  0  0  0  0  0  0  0
  139.0260   69.1800  221.8140 H   0  0  0  0  0  0  0  0  0  0  0  0
  139.0959   67.3395  226.1260 H   0  0  0  0  0  0  0  0  0  0  0  0
  139.6713   67.5263  228.5426 H   0  0  0  0  0  0  0  0  0  0  0  0
  140.7427   69.5790  229.4237 H   0  0  0  0  0  0  0  0  0  0  0  0
  141.2566   71.4809  227.8794 H   0  0  0  0  0  0  0  0  0  0  0  0
  141.1924   72.3885  225.6215 H   0  0  0  0  0  0  0  0  0  0  0  0
  141.1449   73.3326  223.3372 H   0  0  0  0  0  0  0  0  0  0  0  0
  138.7242   74.2023  222.3687 H   0  0  0  0  0  0  0  0  0  0  0  0
  139.8302   75.5669  222.7670 H   0  0  0  0  0  0  0  0  0  0  0  0
  137.6942   75.6250  220.5535 H   0  0  0  0  0  0  0  0  0  0  0  0
  137.4944   76.3529  222.1693 H   0  0  0  0  0  0  0  0  0  0  0  0
  139.3967   79.1894  221.1301 H   0  0  0  0  0  0  0  0  0  0  0  0
  137.7351   78.6365  221.7128 H   0  0  0  0  0  0  0  0  0  0  0  0
  138.5250   78.8718  223.7434 H   0  0  0  0  0  0  0  0  0  0  0  0
  139.4510   77.3708  223.4219 H   0  0  0  0  0  0  0  0  0  0  0  0
  139.4936   80.9650  223.7708 H   0  0  0  0  0  0  0  0  0  0  0  0
  141.5362   82.3558  223.9770 H   0  0  0  0  0  0  0  0  0  0  0  0
  143.7439   81.3449  223.5217 H   0  0  0  0  0  0  0  0  0  0  0  0
  143.9350   78.9649  222.8628 H   0  0  0  0  0  0  0  0  0  0  0  0
  141.8693   77.5544  222.6500 H   0  0  0  0  0  0  0  0  0  0  0  0
  140.2568   77.6942  219.4886 H   0  0  0  0  0  0  0  0  0  0  0  0
  140.9331   77.3364  221.1704 H   0  0  0  0  0  0  0  0  0  0  0  0
  140.1185   75.4447  219.0028 H   0  0  0  0  0  0  0  0  0  0  0  0
  141.6860   75.6179  219.9223 H   0  0  0  0  0  0  0  0  0  0  0  0
  1  2  2  3
  2  3  1  0
  3  4  1  0
  4  5  2  0
  5  6  1  0
  6  7  2  0
  7  8  1  0
  8  9  2  0
  9 10  1  0
 10 11  2  0
 11 12  1  0
 12 13  2  0
 13 14  1  0
 14 15  2  0
 15 16  1  0
 16 17  2  0
 16 18  1  0
 18 19  1  0
 19 20  1  0
 20 21  1  0
 21 22  1  0
 22 23  1  0
 23 24  1  0
 24 25  2  0
 25 26  1  0
 26 27  2  0
 27 28  1  0
 28 29  2  0
 21 30  1  0
 30 31  1  0
 15  2  1  0
 31 18  1  0
 13  4  1  0
 29 24  1  0
 11  6  1  0
  1 32  1  0
  3 33  1  0
  7 34  1  0
  8 35  1  0
  9 36  1  0
 10 37  1  0
 12 38  1  0
 14 39  1  0
 19 40  1  0
 19 41  1  0
 20 42  1  0
 20 43  1  0
 22 44  1  0
 22 45  1  0
 23 46  1  0
 23 47  1  0
 25 48  1  0
 26 49  1  0
 27 50  1  0
 28 51  1  0
 29 52  1  0
 30 53  1  0
 30 54  1  0
 31 55  1  0
 31 56  1  0
M  END
>  <smiles>  (24) 
N=c1[nH]c2nc3ccccc3cc2cc1C(=O)N1CCN(CCc2ccccc2)CC1

>  <score_type>  (24) 
oracle

>  <origin>  (24) 
autodockgpu

>  <m_score__min__energy>  (24) 
-8.9700000000000006

>  <m_primary>  (24) 
energy

>  <rmsd>  (24) 
9.928593668047538

>  <m_score__min__rmsd>  (24) 
9.928593668047538

>  <meeko>  (24) 
{"free_energy": -8.39, "intermolecular_energy": -9.88, "internal_energy": -1.28, "cluster_size": 41, "cluster_id": 3, "rank_in_cluster": 25}

>  <energy>  (24) 
-8.4

>  <cluster_rmsd>  (24) 
0.5

>  <cluster>  (24) 
3

$$$$

     RDKit          3D

 56 60  0  0  0  0  0  0  0  0999 V2000
  139.2220   70.9310  220.0090 N   0  0  0  0  0  0  0  0  0  0  0  0
  139.5770   71.0680  221.2410 C   0  0  0  0  0  0  0  0  0  0  0  0
  139.3500   70.1070  222.1680 N   0  0  0  0  0  0  0  0  0  0  0  0
  139.7240   70.2530  223.4620 C   0  0  0  0  0  0  0  0  0  0  0  0
  139.4780   69.2560  224.3490 N   0  0  0  0  0  0  0  0  0  0  0  0
  139.8420   69.3650  225.6570 C   0  0  0  0  0  0  0  0  0  0  0  0
  139.5800   68.3230  226.5510 C   0  0  0  0  0  0  0  0  0  0  0  0
  139.9560   68.4370  227.8910 C   0  0  0  0  0  0  0  0  0  0  0  0
  140.5910   69.5780  228.3490 C   0  0  0  0  0  0  0  0  0  0  0  0
  140.8600   70.6260  227.4670 C   0  0  0  0  0  0  0  0  0  0  0  0
  140.4810   70.5060  226.1310 C   0  0  0  0  0  0  0  0  0  0  0  0
  140.7220   71.5060  225.2140 C   0  0  0  0  0  0  0  0  0  0  0  0
  140.3630   71.4180  223.8900 C   0  0  0  0  0  0  0  0  0  0  0  0
  140.6030   72.4110  222.9630 C   0  0  0  0  0  0  0  0  0  0  0  0
  140.2060   72.2300  221.6340 C   0  0  0  0  0  0  0  0  0  0  0  0
  140.5170   73.3270  220.7290 C   0  0  0  0  0  0  0  0  0  0  0  0
  141.2690   73.0160  219.7390 O   0  0  0  0  0  0  0  0  0  0  0  0
  140.0540   74.6500  220.8820 N   0  0  0  0  0  0  0  0  0  0  0  0
  139.1980   75.1050  221.9580 C   0  0  0  0  0  0  0  0  0  0  0  0
  138.1690   76.1180  221.4240 C   0  0  0  0  0  0  0  0  0  0  0  0
  138.8770   77.2370  220.9490 N   0  0  0  0  0  0  0  0  0  0  0  0
  138.8040   78.4580  221.6430 C   0  0  0  0  0  0  0  0  0  0  0  0
  139.2800   78.4300  223.0720 C   0  0  0  0  0  0  0  0  0  0  0  0
  140.5710   79.1970  223.1710 C   0  0  0  0  0  0  0  0  0  0  0  0
  140.4890   80.5330  223.5510 C   0  0  0  0  0  0  0  0  0  0  0  0
  141.6270   81.3010  223.6670 C   0  0  0  0  0  0  0  0  0  0  0  0
  142.8450   80.7290  223.4040 C   0  0  0  0  0  0  0  0  0  0  0  0
  142.9450   79.4010  223.0250 C   0  0  0  0  0  0  0  0  0  0  0  0
  141.7900   78.6200  222.9060 C   0  0  0  0  0  0  0  0  0  0  0  0
  140.1250   77.0510  220.3170 C   0  0  0  0  0  0  0  0  0  0  0  0
  140.4560   75.6430  219.9050 C   0  0  0  0  0  0  0  0  0  0  0  0
  139.7350   71.5100  219.2990 H   0  0  0  0  0  0  0  0  0  0  0  0
  138.8650   69.2070  221.8730 H   0  0  0  0  0  0  0  0  0  0  0  0
  139.0764   67.4109  226.1981 H   0  0  0  0  0  0  0  0  0  0  0  0
  139.7456   67.6128  228.5884 H   0  0  0  0  0  0  0  0  0  0  0  0
  140.8833   69.6590  229.4063 H   0  0  0  0  0  0  0  0  0  0  0  0
  141.3653   71.5362  227.8222 H   0  0  0  0  0  0  0  0  0  0  0  0
  141.2269   72.4204  225.5588 H   0  0  0  0  0  0  0  0  0  0  0  0
  141.1045   73.3414  223.2677 H   0  0  0  0  0  0  0  0  0  0  0  0
  138.6690   74.2433  222.3911 H   0  0  0  0  0  0  0  0  0  0  0  0
  139.8153   75.5911  222.7278 H   0  0  0  0  0  0  0  0  0  0  0  0
  137.5889   75.6667  220.6056 H   0  0  0  0  0  0  0  0  0  0  0  0
  137.4705   76.4138  222.2206 H   0  0  0  0  0  0  0  0  0  0  0  0
  139.4150   79.1928  221.0982 H   0  0  0  0  0  0  0  0  0  0  0  0
  137.7346   78.7114  221.6895 H   0  0  0  0  0  0  0  0  0  0  0  0
  138.5239   78.8943  223.7222 H   0  0  0  0  0  0  0  0  0  0  0  0
  139.4393   77.3895  223.3914 H   0  0  0  0  0  0  0  0  0  0  0  0
  139.5062   80.9803  223.7608 H   0  0  0  0  0  0  0  0  0  0  0  0
  141.5594   82.3574  223.9662 H   0  0  0  0  0  0  0  0  0  0  0  0
  143.7582   81.3354  223.4957 H   0  0  0  0  0  0  0  0  0  0  0  0
  143.9313   78.9604  222.8176 H   0  0  0  0  0  0  0  0  0  0  0  0
  141.8564   77.5638  222.6059 H   0  0  0  0  0  0  0  0  0  0  0  0
  140.1405   77.6778  219.4132 H   0  0  0  0  0  0  0  0  0  0  0  0
  140.8800   77.3234  221.0692 H   0  0  0  0  0  0  0  0  0  0  0  0
  139.9429   75.4271  218.9563 H   0  0  0  0  0  0  0  0  0  0  0  0
  141.5499   75.5805  219.8081 H   0  0  0  0  0  0  0  0  0  0  0  0
  1  2  2  3
  2  3  1  0
  3  4  1  0
  4  5  2  0
  5  6  1  0
  6  7  2  0
  7  8  1  0
  8  9  2  0
  9 10  1  0
 10 11  2  0
 11 12  1  0
 12 13  2  0
 13 14  1  0
 14 15  2  0
 15 16  1  0
 16 17  2  0
 16 18  1  0
 18 19  1  0
 19 20  1  0
 20 21  1  0
 21 22  1  0
 22 23  1  0
 23 24  1  0
 24 25  2  0
 25 26  1  0
 26 27  2  0
 27 28  1  0
 28 29  2  0
 21 30  1  0
 30 31  1  0
 15  2  1  0
 31 18  1  0
 13  4  1  0
 29 24  1  0
 11  6  1  0
  1 32  1  0
  3 33  1  0
  7 34  1  0
  8 35  1  0
  9 36  1  0
 10 37  1  0
 12 38  1  0
 14 39  1  0
 19 40  1  0
 19 41  1  0
 20 42  1  0
 20 43  1  0
 22 44  1  0
 22 45  1  0
 23 46  1  0
 23 47  1  0
 25 48  1  0
 26 49  1  0
 27 50  1  0
 28 51  1  0
 29 52  1  0
 30 53  1  0
 30 54  1  0
 31 55  1  0
 31 56  1  0
M  END
>  <smiles>  (25) 
N=c1[nH]c2nc3ccccc3cc2cc1C(=O)N1CCN(CCc2ccccc2)CC1

>  <score_type>  (25) 
oracle

>  <origin>  (25) 
autodockgpu

>  <m_score__min__energy>  (25) 
-8.9700000000000006

>  <m_primary>  (25) 
energy

>  <rmsd>  (25) 
9.913230174267746

>  <m_score__min__rmsd>  (25) 
9.913230174267746

>  <meeko>  (25) 
{"free_energy": -8.39, "intermolecular_energy": -9.89, "internal_energy": -1.29, "cluster_size": 41, "cluster_id": 3, "rank_in_cluster": 22}

>  <energy>  (25) 
-8.4

>  <cluster_rmsd>  (25) 
0.49

>  <cluster>  (25) 
3

$$$$

     RDKit          3D

 56 60  0  0  0  0  0  0  0  0999 V2000
  139.4050   70.9680  219.9980 N   0  0  0  0  0  0  0  0  0  0  0  0
  139.7240   71.0960  221.2410 C   0  0  0  0  0  0  0  0  0  0  0  0
  139.4830   70.1230  222.1510 N   0  0  0  0  0  0  0  0  0  0  0  0
  139.8190   70.2590  223.4570 C   0  0  0  0  0  0  0  0  0  0  0  0
  139.5600   69.2500  224.3260 N   0  0  0  0  0  0  0  0  0  0  0  0
  139.8860   69.3490  225.6450 C   0  0  0  0  0  0  0  0  0  0  0  0
  139.6110   68.2950  226.5200 C   0  0  0  0  0  0  0  0  0  0  0  0
  139.9490   68.3990  227.8720 C   0  0  0  0  0  0  0  0  0  0  0  0
  140.5570   69.5420  228.3580 C   0  0  0  0  0  0  0  0  0  0  0  0
  140.8390   70.6030  227.4950 C   0  0  0  0  0  0  0  0  0  0  0  0
  140.4990   70.4920  226.1480 C   0  0  0  0  0  0  0  0  0  0  0  0
  140.7530   71.5050  225.2480 C   0  0  0  0  0  0  0  0  0  0  0  0
  140.4320   71.4260  223.9140 C   0  0  0  0  0  0  0  0  0  0  0  0
  140.6870   72.4320  223.0050 C   0  0  0  0  0  0  0  0  0  0  0  0
  140.3290   72.2600  221.6630 C   0  0  0  0  0  0  0  0  0  0  0  0
  140.6520   73.3700  220.7780 C   0  0  0  0  0  0  0  0  0  0  0  0
  141.4420   73.0800  219.8120 O   0  0  0  0  0  0  0  0  0  0  0  0
  140.1630   74.6850  220.9260 N   0  0  0  0  0  0  0  0  0  0  0  0
  139.2640   75.1160  221.9770 C   0  0  0  0  0  0  0  0  0  0  0  0
  138.2370   76.1170  221.4170 C   0  0  0  0  0  0  0  0  0  0  0  0
  138.9420   77.2510  220.9750 N   0  0  0  0  0  0  0  0  0  0  0  0
  138.8260   78.4650  221.6770 C   0  0  0  0  0  0  0  0  0  0  0  0
  139.3090   78.4470  223.1030 C   0  0  0  0  0  0  0  0  0  0  0  0
  140.5450   79.2960  223.2110 C   0  0  0  0  0  0  0  0  0  0  0  0
  141.7660   78.6780  222.9570 C   0  0  0  0  0  0  0  0  0  0  0  0
  142.9430   79.3900  223.0320 C   0  0  0  0  0  0  0  0  0  0  0  0
  142.8970   80.7200  223.3610 C   0  0  0  0  0  0  0  0  0  0  0  0
  141.6910   81.3520  223.6180 C   0  0  0  0  0  0  0  0  0  0  0  0
  140.4940   80.6300  223.5410 C   0  0  0  0  0  0  0  0  0  0  0  0
  140.2140   77.0910  220.3840 C   0  0  0  0  0  0  0  0  0  0  0  0
  140.5810   75.6930  219.9720 C   0  0  0  0  0  0  0  0  0  0  0  0
  139.9390   71.5520  219.3070 H   0  0  0  0  0  0  0  0  0  0  0  0
  139.0170   69.2200  221.8330 H   0  0  0  0  0  0  0  0  0  0  0  0
  139.1274   67.3814  226.1439 H   0  0  0  0  0  0  0  0  0  0  0  0
  139.7297   67.5651  228.5550 H   0  0  0  0  0  0  0  0  0  0  0  0
  140.8184   69.6154  229.4240 H   0  0  0  0  0  0  0  0  0  0  0  0
  141.3235   71.5151  227.8737 H   0  0  0  0  0  0  0  0  0  0  0  0
  141.2366   72.4220  225.6159 H   0  0  0  0  0  0  0  0  0  0  0  0
  141.1692   73.3645  223.3333 H   0  0  0  0  0  0  0  0  0  0  0  0
  138.7352   74.2418  222.3847 H   0  0  0  0  0  0  0  0  0  0  0  0
  139.8470   75.6047  222.7716 H   0  0  0  0  0  0  0  0  0  0  0  0
  137.6919   75.6635  220.5761 H   0  0  0  0  0  0  0  0  0  0  0  0
  137.5076   76.3948  222.1922 H   0  0  0  0  0  0  0  0  0  0  0  0
  139.4062   79.2255  221.1339 H   0  0  0  0  0  0  0  0  0  0  0  0
  137.7480   78.6773  221.7298 H   0  0  0  0  0  0  0  0  0  0  0  0
  138.5262   78.8494  223.7628 H   0  0  0  0  0  0  0  0  0  0  0  0
  139.5394   77.4146  223.4047 H   0  0  0  0  0  0  0  0  0  0  0  0
  141.7914   77.6103  222.6937 H   0  0  0  0  0  0  0  0  0  0  0  0
  143.9061   78.8982  222.8307 H   0  0  0  0  0  0  0  0  0  0  0  0
  143.8328   81.2949  223.4220 H   0  0  0  0  0  0  0  0  0  0  0  0
  141.6741   82.4197  223.8822 H   0  0  0  0  0  0  0  0  0  0  0  0
  139.5301   81.1209  223.7409 H   0  0  0  0  0  0  0  0  0  0  0  0
  140.2498   77.7261  219.4866 H   0  0  0  0  0  0  0  0  0  0  0  0
  140.9388   77.3690  221.1634 H   0  0  0  0  0  0  0  0  0  0  0  0
  140.1034   75.4775  219.0048 H   0  0  0  0  0  0  0  0  0  0  0  0
  141.6785   75.6489  219.9118 H   0  0  0  0  0  0  0  0  0  0  0  0
  1  2  2  3
  2  3  1  0
  3  4  1  0
  4  5  2  0
  5  6  1  0
  6  7  2  0
  7  8  1  0
  8  9  2  0
  9 10  1  0
 10 11  2  0
 11 12  1  0
 12 13  2  0
 13 14  1  0
 14 15  2  0
 15 16  1  0
 16 17  2  0
 16 18  1  0
 18 19  1  0
 19 20  1  0
 20 21  1  0
 21 22  1  0
 22 23  1  0
 23 24  1  0
 24 25  2  0
 25 26  1  0
 26 27  2  0
 27 28  1  0
 28 29  2  0
 21 30  1  0
 30 31  1  0
 15  2  1  0
 31 18  1  0
 13  4  1  0
 29 24  1  0
 11  6  1  0
  1 32  1  0
  3 33  1  0
  7 34  1  0
  8 35  1  0
  9 36  1  0
 10 37  1  0
 12 38  1  0
 14 39  1  0
 19 40  1  0
 19 41  1  0
 20 42  1  0
 20 43  1  0
 22 44  1  0
 22 45  1  0
 23 46  1  0
 23 47  1  0
 25 48  1  0
 26 49  1  0
 27 50  1  0
 28 51  1  0
 29 52  1  0
 30 53  1  0
 30 54  1  0
 31 55  1  0
 31 56  1  0
M  END
>  <smiles>  (26) 
N=c1[nH]c2nc3ccccc3cc2cc1C(=O)N1CCN(CCc2ccccc2)CC1

>  <score_type>  (26) 
oracle

>  <origin>  (26) 
autodockgpu

>  <m_score__min__energy>  (26) 
-8.9700000000000006

>  <m_primary>  (26) 
energy

>  <rmsd>  (26) 
9.891408807433791

>  <m_score__min__rmsd>  (26) 
9.891408807433791

>  <meeko>  (26) 
{"free_energy": -8.4, "intermolecular_energy": -9.89, "internal_energy": -1.29, "cluster_size": 41, "cluster_id": 3, "rank_in_cluster": 17}

>  <energy>  (26) 
-8.4

>  <cluster_rmsd>  (26) 
0.48

>  <cluster>  (26) 
3

$$$$

     RDKit          3D

 56 60  0  0  0  0  0  0  0  0999 V2000
  138.9230   70.8130  220.1560 N   0  0  0  0  0  0  0  0  0  0  0  0
  139.3400   70.9460  221.3690 C   0  0  0  0  0  0  0  0  0  0  0  0
  139.1640   69.9790  222.3010 N   0  0  0  0  0  0  0  0  0  0  0  0
  139.6030   70.1200  223.5760 C   0  0  0  0  0  0  0  0  0  0  0  0
  139.4060   69.1190  224.4690 N   0  0  0  0  0  0  0  0  0  0  0  0
  139.8360   69.2230  225.7570 C   0  0  0  0  0  0  0  0  0  0  0  0
  139.6220   68.1760  226.6580 C   0  0  0  0  0  0  0  0  0  0  0  0
  140.0660   68.2850  227.9780 C   0  0  0  0  0  0  0  0  0  0  0  0
  140.7200   69.4250  228.4080 C   0  0  0  0  0  0  0  0  0  0  0  0
  140.9410   70.4780  227.5180 C   0  0  0  0  0  0  0  0  0  0  0  0
  140.4950   70.3630  226.2030 C   0  0  0  0  0  0  0  0  0  0  0  0
  140.6850   71.3680  225.2800 C   0  0  0  0  0  0  0  0  0  0  0  0
  140.2600   71.2850  223.9750 C   0  0  0  0  0  0  0  0  0  0  0  0
  140.4490   72.2830  223.0430 C   0  0  0  0  0  0  0  0  0  0  0  0
  139.9850   72.1070  221.7350 C   0  0  0  0  0  0  0  0  0  0  0  0
  140.2460   73.2090  220.8200 C   0  0  0  0  0  0  0  0  0  0  0  0
  140.9440   72.9040  219.7890 O   0  0  0  0  0  0  0  0  0  0  0  0
  139.7920   74.5320  221.0050 N   0  0  0  0  0  0  0  0  0  0  0  0
  138.9950   74.9800  222.1280 C   0  0  0  0  0  0  0  0  0  0  0  0
  137.9380   75.9940  221.6560 C   0  0  0  0  0  0  0  0  0  0  0  0
  138.6190   77.1170  221.1490 N   0  0  0  0  0  0  0  0  0  0  0  0
  138.5830   78.3340  221.8530 C   0  0  0  0  0  0  0  0  0  0  0  0
  139.4360   79.4420  221.2920 C   0  0  0  0  0  0  0  0  0  0  0  0
  140.5290   79.7610  222.2740 C   0  0  0  0  0  0  0  0  0  0  0  0
  140.8210   78.7980  223.2360 C   0  0  0  0  0  0  0  0  0  0  0  0
  141.8110   79.0140  224.1690 C   0  0  0  0  0  0  0  0  0  0  0  0
  142.5090   80.1940  224.1380 C   0  0  0  0  0  0  0  0  0  0  0  0
  142.2320   81.1640  223.1880 C   0  0  0  0  0  0  0  0  0  0  0  0
  141.2260   80.9450  222.2390 C   0  0  0  0  0  0  0  0  0  0  0  0
  139.8310   76.9360  220.4500 C   0  0  0  0  0  0  0  0  0  0  0  0
  140.1400   75.5300  220.0130 C   0  0  0  0  0  0  0  0  0  0  0  0
  139.3800   71.4160  219.4270 H   0  0  0  0  0  0  0  0  0  0  0  0
  138.6670   69.0790  222.0270 H   0  0  0  0  0  0  0  0  0  0  0  0
  139.1029   67.2644  226.3270 H   0  0  0  0  0  0  0  0  0  0  0  0
  139.8939   67.4569  228.6814 H   0  0  0  0  0  0  0  0  0  0  0  0
  141.0656   69.5022  229.4495 H   0  0  0  0  0  0  0  0  0  0  0  0
  141.4613   71.3880  227.8513 H   0  0  0  0  0  0  0  0  0  0  0  0
  141.2029   72.2830  225.6034 H   0  0  0  0  0  0  0  0  0  0  0  0
  140.9624   73.2136  223.3265 H   0  0  0  0  0  0  0  0  0  0  0  0
  138.4911   74.1152  222.5844 H   0  0  0  0  0  0  0  0  0  0  0  0
  139.6525   75.4628  222.8660 H   0  0  0  0  0  0  0  0  0  0  0  0
  137.3149   75.5463  220.8678 H   0  0  0  0  0  0  0  0  0  0  0  0
  137.2831   76.2848  222.4906 H   0  0  0  0  0  0  0  0  0  0  0  0
  137.5406   78.6849  221.8671 H   0  0  0  0  0  0  0  0  0  0  0  0
  138.9952   78.1150  222.8491 H   0  0  0  0  0  0  0  0  0  0  0  0
  139.8792   79.1198  220.3382 H   0  0  0  0  0  0  0  0  0  0  0  0
  138.8187   80.3358  221.1186 H   0  0  0  0  0  0  0  0  0  0  0  0
  140.2552   77.8548  223.2512 H   0  0  0  0  0  0  0  0  0  0  0  0
  142.0384   78.2510  224.9280 H   0  0  0  0  0  0  0  0  0  0  0  0
  143.3017   80.3734  224.8793 H   0  0  0  0  0  0  0  0  0  0  0  0
  142.8017   82.1049  223.1794 H   0  0  0  0  0  0  0  0  0  0  0  0
  140.9977   81.7069  221.4791 H   0  0  0  0  0  0  0  0  0  0  0  0
  139.7974   77.5678  219.5502 H   0  0  0  0  0  0  0  0  0  0  0  0
  140.6253   77.2053  221.1617 H   0  0  0  0  0  0  0  0  0  0  0  0
  139.5763   75.3186  219.0924 H   0  0  0  0  0  0  0  0  0  0  0  0
  141.2271   75.4688  219.8565 H   0  0  0  0  0  0  0  0  0  0  0  0
  1  2  2  3
  2  3  1  0
  3  4  1  0
  4  5  2  0
  5  6  1  0
  6  7  2  0
  7  8  1  0
  8  9  2  0
  9 10  1  0
 10 11  2  0
 11 12  1  0
 12 13  2  0
 13 14  1  0
 14 15  2  0
 15 16  1  0
 16 17  2  0
 16 18  1  0
 18 19  1  0
 19 20  1  0
 20 21  1  0
 21 22  1  0
 22 23  1  0
 23 24  1  0
 24 25  2  0
 25 26  1  0
 26 27  2  0
 27 28  1  0
 28 29  2  0
 21 30  1  0
 30 31  1  0
 15  2  1  0
 31 18  1  0
 13  4  1  0
 29 24  1  0
 11  6  1  0
  1 32  1  0
  3 33  1  0
  7 34  1  0
  8 35  1  0
  9 36  1  0
 10 37  1  0
 12 38  1  0
 14 39  1  0
 19 40  1  0
 19 41  1  0
 20 42  1  0
 20 43  1  0
 22 44  1  0
 22 45  1  0
 23 46  1  0
 23 47  1  0
 25 48  1  0
 26 49  1  0
 27 50  1  0
 28 51  1  0
 29 52  1  0
 30 53  1  0
 30 54  1  0
 31 55  1  0
 31 56  1  0
M  END
>  <smiles>  (27) 
N=c1[nH]c2nc3ccccc3cc2cc1C(=O)N1CCN(CCc2ccccc2)CC1

>  <score_type>  (27) 
oracle

>  <origin>  (27) 
autodockgpu

>  <m_score__min__energy>  (27) 
-8.9700000000000006

>  <m_primary>  (27) 
energy

>  <rmsd>  (27) 
9.977866201618124

>  <m_score__min__rmsd>  (27) 
9.977866201618124

>  <meeko>  (27) 
{"free_energy": -8.12, "intermolecular_energy": -9.61, "internal_energy": -1.24, "cluster_size": 41, "cluster_id": 3, "rank_in_cluster": 41}

>  <energy>  (27) 
-8.4

>  <cluster_rmsd>  (27) 
0.49

>  <cluster>  (27) 
3

$$$$

     RDKit          3D

 56 60  0  0  0  0  0  0  0  0999 V2000
  139.2590   70.9600  219.9920 N   0  0  0  0  0  0  0  0  0  0  0  0
  139.6040   71.0880  221.2280 C   0  0  0  0  0  0  0  0  0  0  0  0
  139.3770   70.1170  222.1440 N   0  0  0  0  0  0  0  0  0  0  0  0
  139.7400   70.2540  223.4430 C   0  0  0  0  0  0  0  0  0  0  0  0
  139.4950   69.2470  224.3180 N   0  0  0  0  0  0  0  0  0  0  0  0
  139.8480   69.3470  225.6300 C   0  0  0  0  0  0  0  0  0  0  0  0
  139.5860   68.2950  226.5120 C   0  0  0  0  0  0  0  0  0  0  0  0
  139.9520   68.4000  227.8570 C   0  0  0  0  0  0  0  0  0  0  0  0
  140.5750   69.5400  228.3290 C   0  0  0  0  0  0  0  0  0  0  0  0
  140.8430   70.5990  227.4590 C   0  0  0  0  0  0  0  0  0  0  0  0
  140.4760   70.4880  226.1190 C   0  0  0  0  0  0  0  0  0  0  0  0
  140.7150   71.4980  225.2130 C   0  0  0  0  0  0  0  0  0  0  0  0
  140.3670   71.4190  223.8850 C   0  0  0  0  0  0  0  0  0  0  0  0
  140.6070   72.4230  222.9700 C   0  0  0  0  0  0  0  0  0  0  0  0
  140.2210   72.2510  221.6360 C   0  0  0  0  0  0  0  0  0  0  0  0
  140.5310   73.3580  220.7430 C   0  0  0  0  0  0  0  0  0  0  0  0
  141.2940   73.0620  219.7570 O   0  0  0  0  0  0  0  0  0  0  0  0
  140.0570   74.6770  220.9040 N   0  0  0  0  0  0  0  0  0  0  0  0
  139.1880   75.1150  221.9760 C   0  0  0  0  0  0  0  0  0  0  0  0
  138.1550   76.1240  221.4430 C   0  0  0  0  0  0  0  0  0  0  0  0
  138.8590   77.2530  220.9840 N   0  0  0  0  0  0  0  0  0  0  0  0
  138.7700   78.4670  221.6880 C   0  0  0  0  0  0  0  0  0  0  0  0
  139.2970   78.4480  223.0990 C   0  0  0  0  0  0  0  0  0  0  0  0
  140.5390   79.2940  223.1680 C   0  0  0  0  0  0  0  0  0  0  0  0
  141.7530   78.6650  222.9090 C   0  0  0  0  0  0  0  0  0  0  0  0
  142.9340   79.3730  222.9490 C   0  0  0  0  0  0  0  0  0  0  0  0
  142.8970   80.7100  223.2490 C   0  0  0  0  0  0  0  0  0  0  0  0
  141.6980   81.3530  223.5100 C   0  0  0  0  0  0  0  0  0  0  0  0
  140.4980   80.6350  223.4680 C   0  0  0  0  0  0  0  0  0  0  0  0
  140.1130   77.0830  220.3610 C   0  0  0  0  0  0  0  0  0  0  0  0
  140.4580   75.6810  219.9390 C   0  0  0  0  0  0  0  0  0  0  0  0
  139.7510   71.5720  219.2950 H   0  0  0  0  0  0  0  0  0  0  0  0
  138.9010   69.2160  221.8370 H   0  0  0  0  0  0  0  0  0  0  0  0
  139.0910   67.3829  226.1472 H   0  0  0  0  0  0  0  0  0  0  0  0
  139.7424   67.5683  228.5457 H   0  0  0  0  0  0  0  0  0  0  0  0
  140.8595   69.6130  229.3891 H   0  0  0  0  0  0  0  0  0  0  0  0
  141.3379   71.5099  227.8269 H   0  0  0  0  0  0  0  0  0  0  0  0
  141.2091   72.4137  225.5699 H   0  0  0  0  0  0  0  0  0  0  0  0
  141.0993   73.3541  223.2874 H   0  0  0  0  0  0  0  0  0  0  0  0
  138.6627   74.2449  222.3967 H   0  0  0  0  0  0  0  0  0  0  0  0
  139.7947   75.5996  222.7551 H   0  0  0  0  0  0  0  0  0  0  0  0
  137.5852   75.6756  220.6158 H   0  0  0  0  0  0  0  0  0  0  0  0
  137.4471   76.4068  222.2360 H   0  0  0  0  0  0  0  0  0  0  0  0
  139.3363   79.2247  221.1266 H   0  0  0  0  0  0  0  0  0  0  0  0
  137.6950   78.6838  221.7740 H   0  0  0  0  0  0  0  0  0  0  0  0
  138.5362   78.8529  223.7826 H   0  0  0  0  0  0  0  0  0  0  0  0
  139.5334   77.4150  223.3941 H   0  0  0  0  0  0  0  0  0  0  0  0
  141.7697   77.5914  222.6699 H   0  0  0  0  0  0  0  0  0  0  0  0
  143.8920   78.8731  222.7434 H   0  0  0  0  0  0  0  0  0  0  0  0
  143.8357   81.2824  223.2831 H   0  0  0  0  0  0  0  0  0  0  0  0
  141.6895   82.4265  223.7499 H   0  0  0  0  0  0  0  0  0  0  0  0
  139.5392   81.1343  223.6713 H   0  0  0  0  0  0  0  0  0  0  0  0
  140.1310   77.7182  219.4631 H   0  0  0  0  0  0  0  0  0  0  0  0
  140.8599   77.3547  221.1215 H   0  0  0  0  0  0  0  0  0  0  0  0
  139.9533   75.4694  218.9848 H   0  0  0  0  0  0  0  0  0  0  0  0
  141.5530   75.6278  219.8493 H   0  0  0  0  0  0  0  0  0  0  0  0
  1  2  2  3
  2  3  1  0
  3  4  1  0
  4  5  2  0
  5  6  1  0
  6  7  2  0
  7  8  1  0
  8  9  2  0
  9 10  1  0
 10 11  2  0
 11 12  1  0
 12 13  2  0
 13 14  1  0
 14 15  2  0
 15 16  1  0
 16 17  2  0
 16 18  1  0
 18 19  1  0
 19 20  1  0
 20 21  1  0
 21 22  1  0
 22 23  1  0
 23 24  1  0
 24 25  2  0
 25 26  1  0
 26 27  2  0
 27 28  1  0
 28 29  2  0
 21 30  1  0
 30 31  1  0
 15  2  1  0
 31 18  1  0
 13  4  1  0
 29 24  1  0
 11  6  1  0
  1 32  1  0
  3 33  1  0
  7 34  1  0
  8 35  1  0
  9 36  1  0
 10 37  1  0
 12 38  1  0
 14 39  1  0
 19 40  1  0
 19 41  1  0
 20 42  1  0
 20 43  1  0
 22 44  1  0
 22 45  1  0
 23 46  1  0
 23 47  1  0
 25 48  1  0
 26 49  1  0
 27 50  1  0
 28 51  1  0
 29 52  1  0
 30 53  1  0
 30 54  1  0
 31 55  1  0
 31 56  1  0
M  END
>  <smiles>  (28) 
N=c1[nH]c2nc3ccccc3cc2cc1C(=O)N1CCN(CCc2ccccc2)CC1

>  <score_type>  (28) 
oracle

>  <origin>  (28) 
autodockgpu

>  <m_score__min__energy>  (28) 
-8.9700000000000006

>  <m_primary>  (28) 
energy

>  <rmsd>  (28) 
9.893692204117707

>  <m_score__min__rmsd>  (28) 
9.893692204117707

>  <meeko>  (28) 
{"free_energy": -8.38, "intermolecular_energy": -9.87, "internal_energy": -1.29, "cluster_size": 41, "cluster_id": 3, "rank_in_cluster": 31}

>  <energy>  (28) 
-8.39

>  <cluster_rmsd>  (28) 
0.48

>  <cluster>  (28) 
3

$$$$

     RDKit          3D

 56 60  0  0  0  0  0  0  0  0999 V2000
  139.4080   70.9600  219.9820 N   0  0  0  0  0  0  0  0  0  0  0  0
  139.7280   71.0880  221.2240 C   0  0  0  0  0  0  0  0  0  0  0  0
  139.4850   70.1160  222.1360 N   0  0  0  0  0  0  0  0  0  0  0  0
  139.8210   70.2530  223.4410 C   0  0  0  0  0  0  0  0  0  0  0  0
  139.5610   69.2460  224.3120 N   0  0  0  0  0  0  0  0  0  0  0  0
  139.8880   69.3460  225.6300 C   0  0  0  0  0  0  0  0  0  0  0  0
  139.6100   68.2940  226.5070 C   0  0  0  0  0  0  0  0  0  0  0  0
  139.9490   68.3990  227.8580 C   0  0  0  0  0  0  0  0  0  0  0  0
  140.5610   69.5400  228.3430 C   0  0  0  0  0  0  0  0  0  0  0  0
  140.8450   70.5990  227.4780 C   0  0  0  0  0  0  0  0  0  0  0  0
  140.5040   70.4870  226.1310 C   0  0  0  0  0  0  0  0  0  0  0  0
  140.7610   71.4980  225.2300 C   0  0  0  0  0  0  0  0  0  0  0  0
  140.4390   71.4190  223.8960 C   0  0  0  0  0  0  0  0  0  0  0  0
  140.6950   72.4230  222.9860 C   0  0  0  0  0  0  0  0  0  0  0  0
  140.3360   72.2510  221.6450 C   0  0  0  0  0  0  0  0  0  0  0  0
  140.6620   73.3590  220.7580 C   0  0  0  0  0  0  0  0  0  0  0  0
  141.4480   73.0650  219.7900 O   0  0  0  0  0  0  0  0  0  0  0  0
  140.1790   74.6760  220.9070 N   0  0  0  0  0  0  0  0  0  0  0  0
  139.2840   75.1110  221.9590 C   0  0  0  0  0  0  0  0  0  0  0  0
  138.2600   76.1160  221.4010 C   0  0  0  0  0  0  0  0  0  0  0  0
  138.9700   77.2470  220.9570 N   0  0  0  0  0  0  0  0  0  0  0  0
  138.8600   78.4620  221.6580 C   0  0  0  0  0  0  0  0  0  0  0  0
  139.3230   78.4360  223.0910 C   0  0  0  0  0  0  0  0  0  0  0  0
  140.5560   79.2880  223.2220 C   0  0  0  0  0  0  0  0  0  0  0  0
  141.7760   78.6890  222.9230 C   0  0  0  0  0  0  0  0  0  0  0  0
  142.9500   79.4040  223.0160 C   0  0  0  0  0  0  0  0  0  0  0  0
  142.9010   80.7170  223.4070 C   0  0  0  0  0  0  0  0  0  0  0  0
  141.6950   81.3290  223.7080 C   0  0  0  0  0  0  0  0  0  0  0  0
  140.5010   80.6040  223.6140 C   0  0  0  0  0  0  0  0  0  0  0  0
  140.2390   77.0820  220.3630 C   0  0  0  0  0  0  0  0  0  0  0  0
  140.5990   75.6810  219.9510 C   0  0  0  0  0  0  0  0  0  0  0  0
  139.9390   71.5450  219.2900 H   0  0  0  0  0  0  0  0  0  0  0  0
  139.0150   69.2150  221.8190 H   0  0  0  0  0  0  0  0  0  0  0  0
  139.1232   67.3814  226.1326 H   0  0  0  0  0  0  0  0  0  0  0  0
  139.7271   67.5666  228.5420 H   0  0  0  0  0  0  0  0  0  0  0  0
  140.8238   69.6135  229.4086 H   0  0  0  0  0  0  0  0  0  0  0  0
  141.3319   71.5105  227.8550 H   0  0  0  0  0  0  0  0  0  0  0  0
  141.2480   72.4136  225.5967 H   0  0  0  0  0  0  0  0  0  0  0  0
  141.1793   73.3549  223.3131 H   0  0  0  0  0  0  0  0  0  0  0  0
  138.7524   74.2391  222.3679 H   0  0  0  0  0  0  0  0  0  0  0  0
  139.8706   75.5978  222.7521 H   0  0  0  0  0  0  0  0  0  0  0  0
  137.7111   75.6646  220.5614 H   0  0  0  0  0  0  0  0  0  0  0  0
  137.5332   76.3972  222.1773 H   0  0  0  0  0  0  0  0  0  0  0  0
  139.4577   79.2152  221.1238 H   0  0  0  0  0  0  0  0  0  0  0  0
  137.7843   78.6890  221.6956 H   0  0  0  0  0  0  0  0  0  0  0  0
  138.5299   78.8321  223.7422 H   0  0  0  0  0  0  0  0  0  0  0  0
  139.5517   77.4022  223.3893 H   0  0  0  0  0  0  0  0  0  0  0  0
  141.8033   77.6350  222.6095 H   0  0  0  0  0  0  0  0  0  0  0  0
  143.9131   78.9280  222.7798 H   0  0  0  0  0  0  0  0  0  0  0  0
  143.8344   81.2941  223.4830 H   0  0  0  0  0  0  0  0  0  0  0  0
  141.6756   82.3835  224.0205 H   0  0  0  0  0  0  0  0  0  0  0  0
  139.5371   81.0788  223.8495 H   0  0  0  0  0  0  0  0  0  0  0  0
  140.2749   77.7162  219.4650 H   0  0  0  0  0  0  0  0  0  0  0  0
  140.9673   77.3582  221.1398 H   0  0  0  0  0  0  0  0  0  0  0  0
  140.1180   75.4667  218.9852 H   0  0  0  0  0  0  0  0  0  0  0  0
  141.6961   75.6320  219.8879 H   0  0  0  0  0  0  0  0  0  0  0  0
  1  2  2  3
  2  3  1  0
  3  4  1  0
  4  5  2  0
  5  6  1  0
  6  7  2  0
  7  8  1  0
  8  9  2  0
  9 10  1  0
 10 11  2  0
 11 12  1  0
 12 13  2  0
 13 14  1  0
 14 15  2  0
 15 16  1  0
 16 17  2  0
 16 18  1  0
 18 19  1  0
 19 20  1  0
 20 21  1  0
 21 22  1  0
 22 23  1  0
 23 24  1  0
 24 25  2  0
 25 26  1  0
 26 27  2  0
 27 28  1  0
 28 29  2  0
 21 30  1  0
 30 31  1  0
 15  2  1  0
 31 18  1  0
 13  4  1  0
 29 24  1  0
 11  6  1  0
  1 32  1  0
  3 33  1  0
  7 34  1  0
  8 35  1  0
  9 36  1  0
 10 37  1  0
 12 38  1  0
 14 39  1  0
 19 40  1  0
 19 41  1  0
 20 42  1  0
 20 43  1  0
 22 44  1  0
 22 45  1  0
 23 46  1  0
 23 47  1  0
 25 48  1  0
 26 49  1  0
 27 50  1  0
 28 51  1  0
 29 52  1  0
 30 53  1  0
 30 54  1  0
 31 55  1  0
 31 56  1  0
M  END
>  <smiles>  (29) 
N=c1[nH]c2nc3ccccc3cc2cc1C(=O)N1CCN(CCc2ccccc2)CC1

>  <score_type>  (29) 
oracle

>  <origin>  (29) 
autodockgpu

>  <m_score__min__energy>  (29) 
-8.9700000000000006

>  <m_primary>  (29) 
energy

>  <rmsd>  (29) 
9.8838627700515

>  <m_score__min__rmsd>  (29) 
9.8838627700515

>  <meeko>  (29) 
{"free_energy": -8.4, "intermolecular_energy": -9.9, "internal_energy": -1.28, "cluster_size": 41, "cluster_id": 3, "rank_in_cluster": 11}

>  <energy>  (29) 
-8.39

>  <cluster_rmsd>  (29) 
0.5

>  <cluster>  (29) 
3

$$$$

     RDKit          3D

 56 60  0  0  0  0  0  0  0  0999 V2000
  139.2180   70.9520  220.0350 N   0  0  0  0  0  0  0  0  0  0  0  0
  139.5710   71.0920  221.2680 C   0  0  0  0  0  0  0  0  0  0  0  0
  139.3440   70.1320  222.1970 N   0  0  0  0  0  0  0  0  0  0  0  0
  139.7160   70.2810  223.4910 C   0  0  0  0  0  0  0  0  0  0  0  0
  139.4690   69.2860  224.3790 N   0  0  0  0  0  0  0  0  0  0  0  0
  139.8320   69.3980  225.6880 C   0  0  0  0  0  0  0  0  0  0  0  0
  139.5680   68.3580  226.5830 C   0  0  0  0  0  0  0  0  0  0  0  0
  139.9430   68.4750  227.9240 C   0  0  0  0  0  0  0  0  0  0  0  0
  140.5770   69.6160  228.3800 C   0  0  0  0  0  0  0  0  0  0  0  0
  140.8470   70.6630  227.4960 C   0  0  0  0  0  0  0  0  0  0  0  0
  140.4710   70.5390  226.1600 C   0  0  0  0  0  0  0  0  0  0  0  0
  140.7120   71.5380  225.2410 C   0  0  0  0  0  0  0  0  0  0  0  0
  140.3550   71.4470  223.9170 C   0  0  0  0  0  0  0  0  0  0  0  0
  140.5960   72.4380  222.9880 C   0  0  0  0  0  0  0  0  0  0  0  0
  140.2000   72.2540  221.6590 C   0  0  0  0  0  0  0  0  0  0  0  0
  140.5130   73.3490  220.7520 C   0  0  0  0  0  0  0  0  0  0  0  0
  141.2660   73.0360  219.7640 O   0  0  0  0  0  0  0  0  0  0  0  0
  140.0500   74.6720  220.9000 N   0  0  0  0  0  0  0  0  0  0  0  0
  139.1920   75.1290  221.9740 C   0  0  0  0  0  0  0  0  0  0  0  0
  138.1630   76.1410  221.4360 C   0  0  0  0  0  0  0  0  0  0  0  0
  138.8720   77.2590  220.9600 N   0  0  0  0  0  0  0  0  0  0  0  0
  138.7980   78.4820  221.6510 C   0  0  0  0  0  0  0  0  0  0  0  0
  139.2670   78.4560  223.0820 C   0  0  0  0  0  0  0  0  0  0  0  0
  140.5600   79.2170  223.1850 C   0  0  0  0  0  0  0  0  0  0  0  0
  140.4870   80.5420  223.6040 C   0  0  0  0  0  0  0  0  0  0  0  0
  141.6280   81.3040  223.7270 C   0  0  0  0  0  0  0  0  0  0  0  0
  142.8410   80.7380  223.4300 C   0  0  0  0  0  0  0  0  0  0  0  0
  142.9330   79.4200  223.0120 C   0  0  0  0  0  0  0  0  0  0  0  0
  141.7750   78.6450  222.8870 C   0  0  0  0  0  0  0  0  0  0  0  0
  140.1210   77.0720  220.3300 C   0  0  0  0  0  0  0  0  0  0  0  0
  140.4530   75.6630  219.9220 C   0  0  0  0  0  0  0  0  0  0  0  0
  139.7360   71.5250  219.3240 H   0  0  0  0  0  0  0  0  0  0  0  0
  138.8590   69.2320  221.9030 H   0  0  0  0  0  0  0  0  0  0  0  0
  139.0641   67.4456  226.2314 H   0  0  0  0  0  0  0  0  0  0  0  0
  139.7320   67.6522  228.6229 H   0  0  0  0  0  0  0  0  0  0  0  0
  140.8683   69.6990  229.4375 H   0  0  0  0  0  0  0  0  0  0  0  0
  141.3505   71.5746  227.8502 H   0  0  0  0  0  0  0  0  0  0  0  0
  141.2153   72.4538  225.5847 H   0  0  0  0  0  0  0  0  0  0  0  0
  141.0974   73.3690  223.2910 H   0  0  0  0  0  0  0  0  0  0  0  0
  138.6627   74.2680  222.4081 H   0  0  0  0  0  0  0  0  0  0  0  0
  139.8080   75.6169  222.7438 H   0  0  0  0  0  0  0  0  0  0  0  0
  137.5844   75.6879  220.6175 H   0  0  0  0  0  0  0  0  0  0  0  0
  137.4628   76.4382  222.2306 H   0  0  0  0  0  0  0  0  0  0  0  0
  139.4131   79.2144  221.1076 H   0  0  0  0  0  0  0  0  0  0  0  0
  137.7289   78.7378  221.6917 H   0  0  0  0  0  0  0  0  0  0  0  0
  138.5099   78.9255  223.7273 H   0  0  0  0  0  0  0  0  0  0  0  0
  139.4202   77.4157  223.4050 H   0  0  0  0  0  0  0  0  0  0  0  0
  139.5082   80.9854  223.8394 H   0  0  0  0  0  0  0  0  0  0  0  0
  141.5669   82.3510  224.0586 H   0  0  0  0  0  0  0  0  0  0  0  0
  143.7565   81.3403  223.5251 H   0  0  0  0  0  0  0  0  0  0  0  0
  143.9154   78.9836  222.7787 H   0  0  0  0  0  0  0  0  0  0  0  0
  141.8350   77.5975  222.5565 H   0  0  0  0  0  0  0  0  0  0  0  0
  140.1374   77.6965  219.4246 H   0  0  0  0  0  0  0  0  0  0  0  0
  140.8750   77.3467  221.0824 H   0  0  0  0  0  0  0  0  0  0  0  0
  139.9415   75.4448  218.9729 H   0  0  0  0  0  0  0  0  0  0  0  0
  141.5472   75.6008  219.8275 H   0  0  0  0  0  0  0  0  0  0  0  0
  1  2  2  3
  2  3  1  0
  3  4  1  0
  4  5  2  0
  5  6  1  0
  6  7  2  0
  7  8  1  0
  8  9  2  0
  9 10  1  0
 10 11  2  0
 11 12  1  0
 12 13  2  0
 13 14  1  0
 14 15  2  0
 15 16  1  0
 16 17  2  0
 16 18  1  0
 18 19  1  0
 19 20  1  0
 20 21  1  0
 21 22  1  0
 22 23  1  0
 23 24  1  0
 24 25  2  0
 25 26  1  0
 26 27  2  0
 27 28  1  0
 28 29  2  0
 21 30  1  0
 30 31  1  0
 15  2  1  0
 31 18  1  0
 13  4  1  0
 29 24  1  0
 11  6  1  0
  1 32  1  0
  3 33  1  0
  7 34  1  0
  8 35  1  0
  9 36  1  0
 10 37  1  0
 12 38  1  0
 14 39  1  0
 19 40  1  0
 19 41  1  0
 20 42  1  0
 20 43  1  0
 22 44  1  0
 22 45  1  0
 23 46  1  0
 23 47  1  0
 25 48  1  0
 26 49  1  0
 27 50  1  0
 28 51  1  0
 29 52  1  0
 30 53  1  0
 30 54  1  0
 31 55  1  0
 31 56  1  0
M  END
>  <smiles>  (30) 
N=c1[nH]c2nc3ccccc3cc2cc1C(=O)N1CCN(CCc2ccccc2)CC1

>  <score_type>  (30) 
oracle

>  <origin>  (30) 
autodockgpu

>  <m_score__min__energy>  (30) 
-8.9700000000000006

>  <m_primary>  (30) 
energy

>  <rmsd>  (30) 
9.910405905067547

>  <m_score__min__rmsd>  (30) 
9.910405905067547

>  <meeko>  (30) 
{"free_energy": -8.39, "intermolecular_energy": -9.88, "internal_energy": -1.29, "cluster_size": 41, "cluster_id": 3, "rank_in_cluster": 26}

>  <energy>  (30) 
-8.39

>  <cluster_rmsd>  (30) 
0.5

>  <cluster>  (30) 
3

$$$$

     RDKit          3D

 56 60  0  0  0  0  0  0  0  0999 V2000
  139.2620   70.9190  220.0210 N   0  0  0  0  0  0  0  0  0  0  0  0
  139.6150   71.0520  221.2540 C   0  0  0  0  0  0  0  0  0  0  0  0
  139.3870   70.0880  222.1780 N   0  0  0  0  0  0  0  0  0  0  0  0
  139.7580   70.2300  223.4730 C   0  0  0  0  0  0  0  0  0  0  0  0
  139.5120   69.2310  224.3570 N   0  0  0  0  0  0  0  0  0  0  0  0
  139.8740   69.3360  225.6660 C   0  0  0  0  0  0  0  0  0  0  0  0
  139.6100   68.2920  226.5560 C   0  0  0  0  0  0  0  0  0  0  0  0
  139.9840   68.4020  227.8980 C   0  0  0  0  0  0  0  0  0  0  0  0
  140.6170   69.5420  228.3590 C   0  0  0  0  0  0  0  0  0  0  0  0
  140.8870   70.5930  227.4810 C   0  0  0  0  0  0  0  0  0  0  0  0
  140.5120   70.4760  226.1440 C   0  0  0  0  0  0  0  0  0  0  0  0
  140.7530   71.4790  225.2300 C   0  0  0  0  0  0  0  0  0  0  0  0
  140.3970   71.3940  223.9050 C   0  0  0  0  0  0  0  0  0  0  0  0
  140.6380   72.3900  222.9820 C   0  0  0  0  0  0  0  0  0  0  0  0
  140.2430   72.2130  221.6520 C   0  0  0  0  0  0  0  0  0  0  0  0
  140.5550   73.3130  220.7500 C   0  0  0  0  0  0  0  0  0  0  0  0
  141.3120   73.0050  219.7630 O   0  0  0  0  0  0  0  0  0  0  0  0
  140.0890   74.6350  220.9040 N   0  0  0  0  0  0  0  0  0  0  0  0
  139.2270   75.0850  221.9770 C   0  0  0  0  0  0  0  0  0  0  0  0
  138.1980   76.0960  221.4410 C   0  0  0  0  0  0  0  0  0  0  0  0
  138.9060   77.2180  220.9710 N   0  0  0  0  0  0  0  0  0  0  0  0
  138.8270   78.4380  221.6680 C   0  0  0  0  0  0  0  0  0  0  0  0
  139.3030   78.4090  223.0970 C   0  0  0  0  0  0  0  0  0  0  0  0
  140.5330   79.2660  223.2180 C   0  0  0  0  0  0  0  0  0  0  0  0
  141.7560   78.6680  222.9280 C   0  0  0  0  0  0  0  0  0  0  0  0
  142.9280   79.3870  223.0130 C   0  0  0  0  0  0  0  0  0  0  0  0
  142.8740   80.7040  223.3880 C   0  0  0  0  0  0  0  0  0  0  0  0
  141.6660   81.3160  223.6810 C   0  0  0  0  0  0  0  0  0  0  0  0
  140.4750   80.5870  223.5950 C   0  0  0  0  0  0  0  0  0  0  0  0
  140.1560   77.0370  220.3440 C   0  0  0  0  0  0  0  0  0  0  0  0
  140.4920   75.6310  219.9310 C   0  0  0  0  0  0  0  0  0  0  0  0
  139.7860   71.4890  219.3120 H   0  0  0  0  0  0  0  0  0  0  0  0
  138.9030   69.1890  221.8790 H   0  0  0  0  0  0  0  0  0  0  0  0
  139.1066   67.3812  226.1996 H   0  0  0  0  0  0  0  0  0  0  0  0
  139.7733   67.5757  228.5929 H   0  0  0  0  0  0  0  0  0  0  0  0
  140.9076   69.6204  229.4170 H   0  0  0  0  0  0  0  0  0  0  0  0
  141.3899   71.5030  227.8403 H   0  0  0  0  0  0  0  0  0  0  0  0
  141.2555   72.3934  225.5783 H   0  0  0  0  0  0  0  0  0  0  0  0
  141.1387   73.3196  223.2905 H   0  0  0  0  0  0  0  0  0  0  0  0
  138.6985   74.2208  222.4057 H   0  0  0  0  0  0  0  0  0  0  0  0
  139.8395   75.5710  222.7507 H   0  0  0  0  0  0  0  0  0  0  0  0
  137.6224   75.6449  220.6193 H   0  0  0  0  0  0  0  0  0  0  0  0
  137.4952   76.3885  222.2351 H   0  0  0  0  0  0  0  0  0  0  0  0
  139.4345   79.1769  221.1249 H   0  0  0  0  0  0  0  0  0  0  0  0
  137.7564   78.6864  221.7148 H   0  0  0  0  0  0  0  0  0  0  0  0
  138.5144   78.7996  223.7569 H   0  0  0  0  0  0  0  0  0  0  0  0
  139.5384   77.3754  223.3906 H   0  0  0  0  0  0  0  0  0  0  0  0
  141.7870   77.6102  222.6278 H   0  0  0  0  0  0  0  0  0  0  0  0
  143.8928   78.9111  222.7833 H   0  0  0  0  0  0  0  0  0  0  0  0
  143.8054   81.2850  223.4576 H   0  0  0  0  0  0  0  0  0  0  0  0
  141.6434   82.3741  223.9810 H   0  0  0  0  0  0  0  0  0  0  0  0
  139.5098   81.0620  223.8248 H   0  0  0  0  0  0  0  0  0  0  0  0
  140.1733   77.6655  219.4414 H   0  0  0  0  0  0  0  0  0  0  0  0
  140.9075   77.3104  221.0993 H   0  0  0  0  0  0  0  0  0  0  0  0
  139.9832   75.4156  218.9799 H   0  0  0  0  0  0  0  0  0  0  0  0
  141.5865   75.5717  219.8387 H   0  0  0  0  0  0  0  0  0  0  0  0
  1  2  2  3
  2  3  1  0
  3  4  1  0
  4  5  2  0
  5  6  1  0
  6  7  2  0
  7  8  1  0
  8  9  2  0
  9 10  1  0
 10 11  2  0
 11 12  1  0
 12 13  2  0
 13 14  1  0
 14 15  2  0
 15 16  1  0
 16 17  2  0
 16 18  1  0
 18 19  1  0
 19 20  1  0
 20 21  1  0
 21 22  1  0
 22 23  1  0
 23 24  1  0
 24 25  2  0
 25 26  1  0
 26 27  2  0
 27 28  1  0
 28 29  2  0
 21 30  1  0
 30 31  1  0
 15  2  1  0
 31 18  1  0
 13  4  1  0
 29 24  1  0
 11  6  1  0
  1 32  1  0
  3 33  1  0
  7 34  1  0
  8 35  1  0
  9 36  1  0
 10 37  1  0
 12 38  1  0
 14 39  1  0
 19 40  1  0
 19 41  1  0
 20 42  1  0
 20 43  1  0
 22 44  1  0
 22 45  1  0
 23 46  1  0
 23 47  1  0
 25 48  1  0
 26 49  1  0
 27 50  1  0
 28 51  1  0
 29 52  1  0
 30 53  1  0
 30 54  1  0
 31 55  1  0
 31 56  1  0
M  END
>  <smiles>  (31) 
N=c1[nH]c2nc3ccccc3cc2cc1C(=O)N1CCN(CCc2ccccc2)CC1

>  <score_type>  (31) 
oracle

>  <origin>  (31) 
autodockgpu

>  <m_score__min__energy>  (31) 
-8.9700000000000006

>  <m_primary>  (31) 
energy

>  <rmsd>  (31) 
9.88804024041382

>  <m_score__min__rmsd>  (31) 
9.88804024041382

>  <meeko>  (31) 
{"free_energy": -8.4, "intermolecular_energy": -9.89, "internal_energy": -1.28, "cluster_size": 41, "cluster_id": 3, "rank_in_cluster": 20}

>  <energy>  (31) 
-8.39

>  <cluster_rmsd>  (31) 
0.5

>  <cluster>  (31) 
3

$$$$

     RDKit          3D

 56 60  0  0  0  0  0  0  0  0999 V2000
  139.1150   70.9320  220.0530 N   0  0  0  0  0  0  0  0  0  0  0  0
  139.4980   71.0710  221.2770 C   0  0  0  0  0  0  0  0  0  0  0  0
  139.2750   70.1190  222.2150 N   0  0  0  0  0  0  0  0  0  0  0  0
  139.6780   70.2670  223.5000 C   0  0  0  0  0  0  0  0  0  0  0  0
  139.4350   69.2800  224.3980 N   0  0  0  0  0  0  0  0  0  0  0  0
  139.8290   69.3900  225.6970 C   0  0  0  0  0  0  0  0  0  0  0  0
  139.5680   68.3580  226.6030 C   0  0  0  0  0  0  0  0  0  0  0  0
  139.9750   68.4750  227.9350 C   0  0  0  0  0  0  0  0  0  0  0  0
  140.6370   69.6070  228.3710 C   0  0  0  0  0  0  0  0  0  0  0  0
  140.9040   70.6460  227.4770 C   0  0  0  0  0  0  0  0  0  0  0  0
  140.4960   70.5230  226.1500 C   0  0  0  0  0  0  0  0  0  0  0  0
  140.7340   71.5140  225.2220 C   0  0  0  0  0  0  0  0  0  0  0  0
  140.3460   71.4230  223.9060 C   0  0  0  0  0  0  0  0  0  0  0  0
  140.5820   72.4070  222.9680 C   0  0  0  0  0  0  0  0  0  0  0  0
  140.1540   72.2240  221.6490 C   0  0  0  0  0  0  0  0  0  0  0  0
  140.4640   73.3100  220.7300 C   0  0  0  0  0  0  0  0  0  0  0  0
  141.1890   72.9810  219.7270 O   0  0  0  0  0  0  0  0  0  0  0  0
  140.0270   74.6420  220.8840 N   0  0  0  0  0  0  0  0  0  0  0  0
  139.2010   75.1170  221.9750 C   0  0  0  0  0  0  0  0  0  0  0  0
  138.1770   76.1440  221.4570 C   0  0  0  0  0  0  0  0  0  0  0  0
  138.8940   77.2480  220.9600 N   0  0  0  0  0  0  0  0  0  0  0  0
  138.8560   78.4750  221.6470 C   0  0  0  0  0  0  0  0  0  0  0  0
  139.3320   78.4410  223.0760 C   0  0  0  0  0  0  0  0  0  0  0  0
  140.5790   79.2730  223.1950 C   0  0  0  0  0  0  0  0  0  0  0  0
  141.7670   78.7080  222.7400 C   0  0  0  0  0  0  0  0  0  0  0  0
  142.9510   79.4080  222.8120 C   0  0  0  0  0  0  0  0  0  0  0  0
  142.9440   80.6740  223.3380 C   0  0  0  0  0  0  0  0  0  0  0  0
  141.7720   81.2530  223.7950 C   0  0  0  0  0  0  0  0  0  0  0  0
  140.5680   80.5430  223.7230 C   0  0  0  0  0  0  0  0  0  0  0  0
  140.1250   77.0380  220.3030 C   0  0  0  0  0  0  0  0  0  0  0  0
  140.4230   75.6230  219.8930 C   0  0  0  0  0  0  0  0  0  0  0  0
  139.6040   71.5180  219.3320 H   0  0  0  0  0  0  0  0  0  0  0  0
  138.7700   69.2250  221.9350 H   0  0  0  0  0  0  0  0  0  0  0  0
  139.0415   67.4525  226.2672 H   0  0  0  0  0  0  0  0  0  0  0  0
  139.7666   67.6589  228.6424 H   0  0  0  0  0  0  0  0  0  0  0  0
  140.9533   69.6895  229.4213 H   0  0  0  0  0  0  0  0  0  0  0  0
  141.4300   71.5506  227.8160 H   0  0  0  0  0  0  0  0  0  0  0  0
  141.2602   72.4224  225.5504 H   0  0  0  0  0  0  0  0  0  0  0  0
  141.1044   73.3312  223.2562 H   0  0  0  0  0  0  0  0  0  0  0  0
  138.6675   74.2663  222.4241 H   0  0  0  0  0  0  0  0  0  0  0  0
  139.8423   75.5975  222.7286 H   0  0  0  0  0  0  0  0  0  0  0  0
  137.5719   75.6978  220.6541 H   0  0  0  0  0  0  0  0  0  0  0  0
  137.5004   76.4560  222.2662 H   0  0  0  0  0  0  0  0  0  0  0  0
  139.4873   79.1890  221.0978 H   0  0  0  0  0  0  0  0  0  0  0  0
  137.7944   78.7594  221.6923 H   0  0  0  0  0  0  0  0  0  0  0  0
  138.5515   78.8495  223.7348 H   0  0  0  0  0  0  0  0  0  0  0  0
  139.5469   77.4037  223.3722 H   0  0  0  0  0  0  0  0  0  0  0  0
  141.7601   77.6919  222.3186 H   0  0  0  0  0  0  0  0  0  0  0  0
  143.8883   78.9580  222.4528 H   0  0  0  0  0  0  0  0  0  0  0  0
  143.8855   81.2396  223.3981 H   0  0  0  0  0  0  0  0  0  0  0  0
  141.7873   82.2699  224.2142 H   0  0  0  0  0  0  0  0  0  0  0  0
  139.6303   80.9923  224.0820 H   0  0  0  0  0  0  0  0  0  0  0  0
  140.1317   77.6594  219.3953 H   0  0  0  0  0  0  0  0  0  0  0  0
  140.9004   77.3024  221.0370 H   0  0  0  0  0  0  0  0  0  0  0  0
  139.8853   75.4103  218.9573 H   0  0  0  0  0  0  0  0  0  0  0  0
  141.5134   75.5420  219.7729 H   0  0  0  0  0  0  0  0  0  0  0  0
  1  2  2  3
  2  3  1  0
  3  4  1  0
  4  5  2  0
  5  6  1  0
  6  7  2  0
  7  8  1  0
  8  9  2  0
  9 10  1  0
 10 11  2  0
 11 12  1  0
 12 13  2  0
 13 14  1  0
 14 15  2  0
 15 16  1  0
 16 17  2  0
 16 18  1  0
 18 19  1  0
 19 20  1  0
 20 21  1  0
 21 22  1  0
 22 23  1  0
 23 24  1  0
 24 25  2  0
 25 26  1  0
 26 27  2  0
 27 28  1  0
 28 29  2  0
 21 30  1  0
 30 31  1  0
 15  2  1  0
 31 18  1  0
 13  4  1  0
 29 24  1  0
 11  6  1  0
  1 32  1  0
  3 33  1  0
  7 34  1  0
  8 35  1  0
  9 36  1  0
 10 37  1  0
 12 38  1  0
 14 39  1  0
 19 40  1  0
 19 41  1  0
 20 42  1  0
 20 43  1  0
 22 44  1  0
 22 45  1  0
 23 46  1  0
 23 47  1  0
 25 48  1  0
 26 49  1  0
 27 50  1  0
 28 51  1  0
 29 52  1  0
 30 53  1  0
 30 54  1  0
 31 55  1  0
 31 56  1  0
M  END
>  <smiles>  (32) 
N=c1[nH]c2nc3ccccc3cc2cc1C(=O)N1CCN(CCc2ccccc2)CC1

>  <score_type>  (32) 
oracle

>  <origin>  (32) 
autodockgpu

>  <m_score__min__energy>  (32) 
-8.9700000000000006

>  <m_primary>  (32) 
energy

>  <rmsd>  (32) 
9.870002065540602

>  <m_score__min__rmsd>  (32) 
9.870002065540602

>  <meeko>  (32) 
{"free_energy": -8.42, "intermolecular_energy": -9.91, "internal_energy": -1.27, "cluster_size": 41, "cluster_id": 3, "rank_in_cluster": 2}

>  <energy>  (32) 
-8.39

>  <cluster_rmsd>  (32) 
0.48

>  <cluster>  (32) 
3

$$$$

     RDKit          3D

 56 60  0  0  0  0  0  0  0  0999 V2000
  138.9850   70.8720  220.1010 N   0  0  0  0  0  0  0  0  0  0  0  0
  139.4030   71.0140  221.3120 C   0  0  0  0  0  0  0  0  0  0  0  0
  139.1960   70.0720  222.2630 N   0  0  0  0  0  0  0  0  0  0  0  0
  139.6360   70.2230  223.5350 C   0  0  0  0  0  0  0  0  0  0  0  0
  139.4070   69.2460  224.4460 N   0  0  0  0  0  0  0  0  0  0  0  0
  139.8370   69.3610  225.7340 C   0  0  0  0  0  0  0  0  0  0  0  0
  139.5900   68.3390  226.6540 C   0  0  0  0  0  0  0  0  0  0  0  0
  140.0340   68.4590  227.9730 C   0  0  0  0  0  0  0  0  0  0  0  0
  140.7220   69.5870  228.3820 C   0  0  0  0  0  0  0  0  0  0  0  0
  140.9770   70.6160  227.4740 C   0  0  0  0  0  0  0  0  0  0  0  0
  140.5300   70.4890  226.1590 C   0  0  0  0  0  0  0  0  0  0  0  0
  140.7530   71.4700  225.2180 C   0  0  0  0  0  0  0  0  0  0  0  0
  140.3280   71.3750  223.9140 C   0  0  0  0  0  0  0  0  0  0  0  0
  140.5500   72.3490  222.9630 C   0  0  0  0  0  0  0  0  0  0  0  0
  140.0830   72.1620  221.6570 C   0  0  0  0  0  0  0  0  0  0  0  0
  140.3800   73.2380  220.7220 C   0  0  0  0  0  0  0  0  0  0  0  0
  141.0670   72.8910  219.6980 O   0  0  0  0  0  0  0  0  0  0  0  0
  139.9690   74.5780  220.8820 N   0  0  0  0  0  0  0  0  0  0  0  0
  139.1880   75.0720  221.9970 C   0  0  0  0  0  0  0  0  0  0  0  0
  138.1640   76.1120  221.5060 C   0  0  0  0  0  0  0  0  0  0  0  0
  138.8810   77.2020  220.9790 N   0  0  0  0  0  0  0  0  0  0  0  0
  138.8850   78.4330  221.6600 C   0  0  0  0  0  0  0  0  0  0  0  0
  139.3440   78.3880  223.0940 C   0  0  0  0  0  0  0  0  0  0  0  0
  140.5680   79.2480  223.2430 C   0  0  0  0  0  0  0  0  0  0  0  0
  141.7860   78.6940  222.8590 C   0  0  0  0  0  0  0  0  0  0  0  0
  142.9520   79.4190  222.9620 C   0  0  0  0  0  0  0  0  0  0  0  0
  142.8980   80.7000  223.4480 C   0  0  0  0  0  0  0  0  0  0  0  0
  141.6950   81.2690  223.8350 C   0  0  0  0  0  0  0  0  0  0  0  0
  140.5090   80.5320  223.7310 C   0  0  0  0  0  0  0  0  0  0  0  0
  140.0860   76.9680  220.2840 C   0  0  0  0  0  0  0  0  0  0  0  0
  140.3490   75.5460  219.8730 C   0  0  0  0  0  0  0  0  0  0  0  0
  139.4820   71.4220  219.3570 H   0  0  0  0  0  0  0  0  0  0  0  0
  138.6720   69.1820  222.0040 H   0  0  0  0  0  0  0  0  0  0  0  0
  139.0444   67.4374  226.3388 H   0  0  0  0  0  0  0  0  0  0  0  0
  139.8350   67.6504  228.6917 H   0  0  0  0  0  0  0  0  0  0  0  0
  141.0681   69.6732  229.4226 H   0  0  0  0  0  0  0  0  0  0  0  0
  141.5238   71.5160  227.7917 H   0  0  0  0  0  0  0  0  0  0  0  0
  141.2984   72.3745  225.5253 H   0  0  0  0  0  0  0  0  0  0  0  0
  141.0916   73.2685  223.2298 H   0  0  0  0  0  0  0  0  0  0  0  0
  138.6564   74.2327  222.4691 H   0  0  0  0  0  0  0  0  0  0  0  0
  139.8613   75.5461  222.7263 H   0  0  0  0  0  0  0  0  0  0  0  0
  137.5263   75.6706  220.7259 H   0  0  0  0  0  0  0  0  0  0  0  0
  137.5193   76.4393  222.3350 H   0  0  0  0  0  0  0  0  0  0  0  0
  139.5501   79.1184  221.1142 H   0  0  0  0  0  0  0  0  0  0  0  0
  137.8351   78.7594  221.6928 H   0  0  0  0  0  0  0  0  0  0  0  0
  138.5454   78.7664  223.7490 H   0  0  0  0  0  0  0  0  0  0  0  0
  139.5813   77.3516  223.3760 H   0  0  0  0  0  0  0  0  0  0  0  0
  141.8172   77.6659  222.4690 H   0  0  0  0  0  0  0  0  0  0  0  0
  143.9126   78.9771  222.6589 H   0  0  0  0  0  0  0  0  0  0  0  0
  143.8251   81.2859  223.5321 H   0  0  0  0  0  0  0  0  0  0  0  0
  141.6719   82.2979  224.2233 H   0  0  0  0  0  0  0  0  0  0  0  0
  139.5476   80.9723  224.0342 H   0  0  0  0  0  0  0  0  0  0  0  0
  140.0730   77.5840  219.3727 H   0  0  0  0  0  0  0  0  0  0  0  0
  140.8886   77.2235  220.9914 H   0  0  0  0  0  0  0  0  0  0  0  0
  139.7788   75.3365  218.9559 H   0  0  0  0  0  0  0  0  0  0  0  0
  141.4336   75.4468  219.7186 H   0  0  0  0  0  0  0  0  0  0  0  0
  1  2  2  3
  2  3  1  0
  3  4  1  0
  4  5  2  0
  5  6  1  0
  6  7  2  0
  7  8  1  0
  8  9  2  0
  9 10  1  0
 10 11  2  0
 11 12  1  0
 12 13  2  0
 13 14  1  0
 14 15  2  0
 15 16  1  0
 16 17  2  0
 16 18  1  0
 18 19  1  0
 19 20  1  0
 20 21  1  0
 21 22  1  0
 22 23  1  0
 23 24  1  0
 24 25  2  0
 25 26  1  0
 26 27  2  0
 27 28  1  0
 28 29  2  0
 21 30  1  0
 30 31  1  0
 15  2  1  0
 31 18  1  0
 13  4  1  0
 29 24  1  0
 11  6  1  0
  1 32  1  0
  3 33  1  0
  7 34  1  0
  8 35  1  0
  9 36  1  0
 10 37  1  0
 12 38  1  0
 14 39  1  0
 19 40  1  0
 19 41  1  0
 20 42  1  0
 20 43  1  0
 22 44  1  0
 22 45  1  0
 23 46  1  0
 23 47  1  0
 25 48  1  0
 26 49  1  0
 27 50  1  0
 28 51  1  0
 29 52  1  0
 30 53  1  0
 30 54  1  0
 31 55  1  0
 31 56  1  0
M  END
>  <smiles>  (33) 
N=c1[nH]c2nc3ccccc3cc2cc1C(=O)N1CCN(CCc2ccccc2)CC1

>  <score_type>  (33) 
oracle

>  <origin>  (33) 
autodockgpu

>  <m_score__min__energy>  (33) 
-8.9700000000000006

>  <m_primary>  (33) 
energy

>  <rmsd>  (33) 
9.882764943623908

>  <m_score__min__rmsd>  (33) 
9.882764943623908

>  <meeko>  (33) 
{"free_energy": -8.42, "intermolecular_energy": -9.91, "internal_energy": -1.26, "cluster_size": 41, "cluster_id": 3, "rank_in_cluster": 4}

>  <energy>  (33) 
-8.39

>  <cluster_rmsd>  (33) 
0.5

>  <cluster>  (33) 
3

$$$$

     RDKit          3D

 56 60  0  0  0  0  0  0  0  0999 V2000
  133.2940   68.8300  226.3400 N   0  0  0  0  0  0  0  0  0  0  0  0
  133.4900   70.0940  226.1760 C   0  0  0  0  0  0  0  0  0  0  0  0
  132.8010   71.0280  226.8740 N   0  0  0  0  0  0  0  0  0  0  0  0
  133.0080   72.3560  226.7000 C   0  0  0  0  0  0  0  0  0  0  0  0
  132.2940   73.2490  227.4290 N   0  0  0  0  0  0  0  0  0  0  0  0
  132.4780   74.5910  227.2850 C   0  0  0  0  0  0  0  0  0  0  0  0
  131.7310   75.4910  228.0490 C   0  0  0  0  0  0  0  0  0  0  0  0
  131.9240   76.8670  227.9000 C   0  0  0  0  0  0  0  0  0  0  0  0
  132.8520   77.3530  226.9980 C   0  0  0  0  0  0  0  0  0  0  0  0
  133.6050   76.4650  226.2280 C   0  0  0  0  0  0  0  0  0  0  0  0
  133.4080   75.0940  226.3820 C   0  0  0  0  0  0  0  0  0  0  0  0
  134.1240   74.1690  225.6510 C   0  0  0  0  0  0  0  0  0  0  0  0
  133.9540   72.8120  225.7800 C   0  0  0  0  0  0  0  0  0  0  0  0
  134.6680   71.8780  225.0580 C   0  0  0  0  0  0  0  0  0  0  0  0
  134.4310   70.5150  225.2610 C   0  0  0  0  0  0  0  0  0  0  0  0
  135.2440   69.6080  224.4630 C   0  0  0  0  0  0  0  0  0  0  0  0
  134.6900   68.4880  224.1820 O   0  0  0  0  0  0  0  0  0  0  0  0
  136.5490   69.8890  224.0080 N   0  0  0  0  0  0  0  0  0  0  0  0
  137.2630   71.1230  224.2640 C   0  0  0  0  0  0  0  0  0  0  0  0
  138.0690   71.5370  223.0190 C   0  0  0  0  0  0  0  0  0  0  0  0
  139.0300   70.5370  222.7810 N   0  0  0  0  0  0  0  0  0  0  0  0
  140.3930   70.8090  222.9980 C   0  0  0  0  0  0  0  0  0  0  0  0
  140.6980   71.8080  224.0830 C   0  0  0  0  0  0  0  0  0  0  0  0
  140.7390   71.0930  225.4060 C   0  0  0  0  0  0  0  0  0  0  0  0
  140.9730   71.8660  226.5400 C   0  0  0  0  0  0  0  0  0  0  0  0
  141.0220   71.2860  227.7880 C   0  0  0  0  0  0  0  0  0  0  0  0
  140.8370   69.9320  227.9000 C   0  0  0  0  0  0  0  0  0  0  0  0
  140.6030   69.1470  226.7830 C   0  0  0  0  0  0  0  0  0  0  0  0
  140.5530   69.7350  225.5140 C   0  0  0  0  0  0  0  0  0  0  0  0
  138.7040   69.1870  223.0330 C   0  0  0  0  0  0  0  0  0  0  0  0
  137.2450   68.8840  223.2300 C   0  0  0  0  0  0  0  0  0  0  0  0
  133.4630   68.2110  225.5100 H   0  0  0  0  0  0  0  0  0  0  0  0
  132.0730   70.7120  227.5830 H   0  0  0  0  0  0  0  0  0  0  0  0
  130.9893   75.1157  228.7694 H   0  0  0  0  0  0  0  0  0  0  0  0
  131.3324   77.5694  228.5056 H   0  0  0  0  0  0  0  0  0  0  0  0
  132.9968   78.4378  226.8872 H   0  0  0  0  0  0  0  0  0  0  0  0
  134.3455   76.8431  225.5078 H   0  0  0  0  0  0  0  0  0  0  0  0
  134.8681   74.5362  224.9289 H   0  0  0  0  0  0  0  0  0  0  0  0
  135.4209   72.2043  224.3254 H   0  0  0  0  0  0  0  0  0  0  0  0
  136.5417   71.9161  224.5106 H   0  0  0  0  0  0  0  0  0  0  0  0
  137.9545   70.9705  225.1058 H   0  0  0  0  0  0  0  0  0  0  0  0
  137.3988   71.6270  222.1514 H   0  0  0  0  0  0  0  0  0  0  0  0
  138.5564   72.5098  223.1808 H   0  0  0  0  0  0  0  0  0  0  0  0
  140.8880   69.8628  223.2618 H   0  0  0  0  0  0  0  0  0  0  0  0
  140.7595   71.2610  222.0645 H   0  0  0  0  0  0  0  0  0  0  0  0
  141.6725   72.2794  223.8876 H   0  0  0  0  0  0  0  0  0  0  0  0
  139.9200   72.5854  224.1034 H   0  0  0  0  0  0  0  0  0  0  0  0
  141.1203   72.9513  226.4380 H   0  0  0  0  0  0  0  0  0  0  0  0
  141.2068   71.8999  228.6819 H   0  0  0  0  0  0  0  0  0  0  0  0
  140.8751   69.4613  228.8935 H   0  0  0  0  0  0  0  0  0  0  0  0
  140.4566   68.0624  226.8933 H   0  0  0  0  0  0  0  0  0  0  0  0
  140.3683   69.1220  224.6195 H   0  0  0  0  0  0  0  0  0  0  0  0
  139.0586   68.5908  222.1793 H   0  0  0  0  0  0  0  0  0  0  0  0
  139.1885   68.9399  223.9891 H   0  0  0  0  0  0  0  0  0  0  0  0
  136.7666   68.8148  222.2419 H   0  0  0  0  0  0  0  0  0  0  0  0
  137.1820   67.9389  223.7893 H   0  0  0  0  0  0  0  0  0  0  0  0
  1  2  2  3
  2  3  1  0
  3  4  1  0
  4  5  2  0
  5  6  1  0
  6  7  2  0
  7  8  1  0
  8  9  2  0
  9 10  1  0
 10 11  2  0
 11 12  1  0
 12 13  2  0
 13 14  1  0
 14 15  2  0
 15 16  1  0
 16 17  2  0
 16 18  1  0
 18 19  1  0
 19 20  1  0
 20 21  1  0
 21 22  1  0
 22 23  1  0
 23 24  1  0
 24 25  2  0
 25 26  1  0
 26 27  2  0
 27 28  1  0
 28 29  2  0
 21 30  1  0
 30 31  1  0
 15  2  1  0
 31 18  1  0
 13  4  1  0
 29 24  1  0
 11  6  1  0
  1 32  1  0
  3 33  1  0
  7 34  1  0
  8 35  1  0
  9 36  1  0
 10 37  1  0
 12 38  1  0
 14 39  1  0
 19 40  1  0
 19 41  1  0
 20 42  1  0
 20 43  1  0
 22 44  1  0
 22 45  1  0
 23 46  1  0
 23 47  1  0
 25 48  1  0
 26 49  1  0
 27 50  1  0
 28 51  1  0
 29 52  1  0
 30 53  1  0
 30 54  1  0
 31 55  1  0
 31 56  1  0
M  END
>  <smiles>  (34) 
N=c1[nH]c2nc3ccccc3cc2cc1C(=O)N1CCN(CCc2ccccc2)CC1

>  <score_type>  (34) 
oracle

>  <origin>  (34) 
autodockgpu

>  <m_score__min__energy>  (34) 
-8.9700000000000006

>  <m_primary>  (34) 
energy

>  <rmsd>  (34) 
8.15956869995028

>  <m_score__min__rmsd>  (34) 
8.15956869995028

>  <meeko>  (34) 
{"free_energy": -8.67, "intermolecular_energy": -10.16, "internal_energy": -1.07, "cluster_size": 2, "cluster_id": 2, "rank_in_cluster": 2}

>  <energy>  (34) 
-8.39

>  <cluster_rmsd>  (34) 
0.5

>  <cluster>  (34) 
3

$$$$

     RDKit          3D

 56 60  0  0  0  0  0  0  0  0999 V2000
  139.0930   70.9450  220.0340 N   0  0  0  0  0  0  0  0  0  0  0  0
  139.4730   71.0830  221.2590 C   0  0  0  0  0  0  0  0  0  0  0  0
  139.2570   70.1260  222.1940 N   0  0  0  0  0  0  0  0  0  0  0  0
  139.6580   70.2730  223.4790 C   0  0  0  0  0  0  0  0  0  0  0  0
  139.4220   69.2820  224.3740 N   0  0  0  0  0  0  0  0  0  0  0  0
  139.8130   69.3920  225.6740 C   0  0  0  0  0  0  0  0  0  0  0  0
  139.5600   68.3550  226.5770 C   0  0  0  0  0  0  0  0  0  0  0  0
  139.9640   68.4710  227.9090 C   0  0  0  0  0  0  0  0  0  0  0  0
  140.6170   69.6070  228.3500 C   0  0  0  0  0  0  0  0  0  0  0  0
  140.8770   70.6510  227.4590 C   0  0  0  0  0  0  0  0  0  0  0  0
  140.4710   70.5290  226.1310 C   0  0  0  0  0  0  0  0  0  0  0  0
  140.7010   71.5240  225.2060 C   0  0  0  0  0  0  0  0  0  0  0  0
  140.3150   71.4340  223.8900 C   0  0  0  0  0  0  0  0  0  0  0  0
  140.5450   72.4220  222.9550 C   0  0  0  0  0  0  0  0  0  0  0  0
  140.1200   72.2400  221.6350 C   0  0  0  0  0  0  0  0  0  0  0  0
  140.4220   73.3310  220.7200 C   0  0  0  0  0  0  0  0  0  0  0  0
  141.1470   73.0100  219.7140 O   0  0  0  0  0  0  0  0  0  0  0  0
  139.9770   74.6600  220.8790 N   0  0  0  0  0  0  0  0  0  0  0  0
  139.1510   75.1270  221.9740 C   0  0  0  0  0  0  0  0  0  0  0  0
  138.1200   76.1490  221.4610 C   0  0  0  0  0  0  0  0  0  0  0  0
  138.8290   77.2590  220.9670 N   0  0  0  0  0  0  0  0  0  0  0  0
  138.7850   78.4830  221.6590 C   0  0  0  0  0  0  0  0  0  0  0  0
  139.2660   78.4470  223.0860 C   0  0  0  0  0  0  0  0  0  0  0  0
  140.5610   79.2050  223.1840 C   0  0  0  0  0  0  0  0  0  0  0  0
  140.4880   80.5460  223.5480 C   0  0  0  0  0  0  0  0  0  0  0  0
  141.6310   81.3070  223.6620 C   0  0  0  0  0  0  0  0  0  0  0  0
  142.8460   80.7230  223.4120 C   0  0  0  0  0  0  0  0  0  0  0  0
  142.9380   79.3890  223.0490 C   0  0  0  0  0  0  0  0  0  0  0  0
  141.7780   78.6160  222.9320 C   0  0  0  0  0  0  0  0  0  0  0  0
  140.0600   77.0590  220.3070 C   0  0  0  0  0  0  0  0  0  0  0  0
  140.3660   75.6470  219.8910 C   0  0  0  0  0  0  0  0  0  0  0  0
  139.6080   71.5030  219.3100 H   0  0  0  0  0  0  0  0  0  0  0  0
  138.7590   69.2290  221.9110 H   0  0  0  0  0  0  0  0  0  0  0  0
  139.0417   67.4460  226.2378 H   0  0  0  0  0  0  0  0  0  0  0  0
  139.7608   67.6510  228.6135 H   0  0  0  0  0  0  0  0  0  0  0  0
  140.9314   69.6886  229.4010 H   0  0  0  0  0  0  0  0  0  0  0  0
  141.3959   71.5585  227.8012 H   0  0  0  0  0  0  0  0  0  0  0  0
  141.2194   72.4358  225.5373 H   0  0  0  0  0  0  0  0  0  0  0  0
  141.0605   73.3490  223.2464 H   0  0  0  0  0  0  0  0  0  0  0  0
  138.6237   74.2720  222.4222 H   0  0  0  0  0  0  0  0  0  0  0  0
  139.7912   75.6089  222.7276 H   0  0  0  0  0  0  0  0  0  0  0  0
  137.5167   75.7017  220.6573 H   0  0  0  0  0  0  0  0  0  0  0  0
  137.4425   76.4539  222.2722 H   0  0  0  0  0  0  0  0  0  0  0  0
  139.4095   79.2035  221.1104 H   0  0  0  0  0  0  0  0  0  0  0  0
  137.7216   78.7598  221.7091 H   0  0  0  0  0  0  0  0  0  0  0  0
  138.5149   78.9134  223.7405 H   0  0  0  0  0  0  0  0  0  0  0  0
  139.4203   77.4043  223.4005 H   0  0  0  0  0  0  0  0  0  0  0  0
  139.5076   81.0034  223.7468 H   0  0  0  0  0  0  0  0  0  0  0  0
  141.5696   82.3671  223.9492 H   0  0  0  0  0  0  0  0  0  0  0  0
  143.7632   81.3236  223.5011 H   0  0  0  0  0  0  0  0  0  0  0  0
  143.9221   78.9383  222.8530 H   0  0  0  0  0  0  0  0  0  0  0  0
  141.8381   77.5562  222.6437 H   0  0  0  0  0  0  0  0  0  0  0  0
  140.0613   77.6838  219.4017 H   0  0  0  0  0  0  0  0  0  0  0  0
  140.8351   77.3253  221.0407 H   0  0  0  0  0  0  0  0  0  0  0  0
  139.8283   75.4346  218.9552 H   0  0  0  0  0  0  0  0  0  0  0  0
  141.4567   75.5729  219.7690 H   0  0  0  0  0  0  0  0  0  0  0  0
  1  2  2  3
  2  3  1  0
  3  4  1  0
  4  5  2  0
  5  6  1  0
  6  7  2  0
  7  8  1  0
  8  9  2  0
  9 10  1  0
 10 11  2  0
 11 12  1  0
 12 13  2  0
 13 14  1  0
 14 15  2  0
 15 16  1  0
 16 17  2  0
 16 18  1  0
 18 19  1  0
 19 20  1  0
 20 21  1  0
 21 22  1  0
 22 23  1  0
 23 24  1  0
 24 25  2  0
 25 26  1  0
 26 27  2  0
 27 28  1  0
 28 29  2  0
 21 30  1  0
 30 31  1  0
 15  2  1  0
 31 18  1  0
 13  4  1  0
 29 24  1  0
 11  6  1  0
  1 32  1  0
  3 33  1  0
  7 34  1  0
  8 35  1  0
  9 36  1  0
 10 37  1  0
 12 38  1  0
 14 39  1  0
 19 40  1  0
 19 41  1  0
 20 42  1  0
 20 43  1  0
 22 44  1  0
 22 45  1  0
 23 46  1  0
 23 47  1  0
 25 48  1  0
 26 49  1  0
 27 50  1  0
 28 51  1  0
 29 52  1  0
 30 53  1  0
 30 54  1  0
 31 55  1  0
 31 56  1  0
M  END
>  <smiles>  (35) 
N=c1[nH]c2nc3ccccc3cc2cc1C(=O)N1CCN(CCc2ccccc2)CC1

>  <score_type>  (35) 
oracle

>  <origin>  (35) 
autodockgpu

>  <m_score__min__energy>  (35) 
-8.9700000000000006

>  <m_primary>  (35) 
energy

>  <rmsd>  (35) 
9.906368615637595

>  <m_score__min__rmsd>  (35) 
9.906368615637595

>  <meeko>  (35) 
{"free_energy": -8.4, "intermolecular_energy": -9.89, "internal_energy": -1.29, "cluster_size": 41, "cluster_id": 3, "rank_in_cluster": 15}

>  <energy>  (35) 
-8.39

>  <cluster_rmsd>  (35) 
0.49

>  <cluster>  (35) 
3

$$$$

     RDKit          3D

 56 60  0  0  0  0  0  0  0  0999 V2000
  139.2700   70.9320  220.0000 N   0  0  0  0  0  0  0  0  0  0  0  0
  139.6140   71.0650  221.2360 C   0  0  0  0  0  0  0  0  0  0  0  0
  139.3760   70.1020  222.1590 N   0  0  0  0  0  0  0  0  0  0  0  0
  139.7380   70.2440  223.4570 C   0  0  0  0  0  0  0  0  0  0  0  0
  139.4810   69.2460  224.3390 N   0  0  0  0  0  0  0  0  0  0  0  0
  139.8330   69.3510  225.6500 C   0  0  0  0  0  0  0  0  0  0  0  0
  139.5590   68.3080  226.5390 C   0  0  0  0  0  0  0  0  0  0  0  0
  139.9230   68.4180  227.8840 C   0  0  0  0  0  0  0  0  0  0  0  0
  140.5570   69.5550  228.3490 C   0  0  0  0  0  0  0  0  0  0  0  0
  140.8380   70.6040  227.4720 C   0  0  0  0  0  0  0  0  0  0  0  0
  140.4720   70.4880  226.1330 C   0  0  0  0  0  0  0  0  0  0  0  0
  140.7240   71.4900  225.2200 C   0  0  0  0  0  0  0  0  0  0  0  0
  140.3770   71.4060  223.8930 C   0  0  0  0  0  0  0  0  0  0  0  0
  140.6290   72.4000  222.9710 C   0  0  0  0  0  0  0  0  0  0  0  0
  140.2430   72.2240  221.6380 C   0  0  0  0  0  0  0  0  0  0  0  0
  140.5670   73.3220  220.7380 C   0  0  0  0  0  0  0  0  0  0  0  0
  141.3250   73.0100  219.7540 O   0  0  0  0  0  0  0  0  0  0  0  0
  140.1080   74.6470  220.8900 N   0  0  0  0  0  0  0  0  0  0  0  0
  139.2450   75.1020  221.9610 C   0  0  0  0  0  0  0  0  0  0  0  0
  138.2250   76.1200  221.4210 C   0  0  0  0  0  0  0  0  0  0  0  0
  138.9420   77.2380  220.9550 N   0  0  0  0  0  0  0  0  0  0  0  0
  138.8680   78.4580  221.6510 C   0  0  0  0  0  0  0  0  0  0  0  0
  139.3210   78.4210  223.0880 C   0  0  0  0  0  0  0  0  0  0  0  0
  140.5610   79.2610  223.2300 C   0  0  0  0  0  0  0  0  0  0  0  0
  141.7700   78.6780  222.8620 C   0  0  0  0  0  0  0  0  0  0  0  0
  142.9490   79.3840  222.9600 C   0  0  0  0  0  0  0  0  0  0  0  0
  142.9150   80.6730  223.4270 C   0  0  0  0  0  0  0  0  0  0  0  0
  141.7210   81.2690  223.7980 C   0  0  0  0  0  0  0  0  0  0  0  0
  140.5230   80.5530  223.6980 C   0  0  0  0  0  0  0  0  0  0  0  0
  140.1940   77.0490  220.3330 C   0  0  0  0  0  0  0  0  0  0  0  0
  140.5220   75.6400  219.9200 C   0  0  0  0  0  0  0  0  0  0  0  0
  139.7960   71.5060  219.2960 H   0  0  0  0  0  0  0  0  0  0  0  0
  138.8910   69.2050  221.8570 H   0  0  0  0  0  0  0  0  0  0  0  0
  139.0557   67.3984  226.1794 H   0  0  0  0  0  0  0  0  0  0  0  0
  139.7032   67.5933  228.5780 H   0  0  0  0  0  0  0  0  0  0  0  0
  140.8398   69.6330  229.4092 H   0  0  0  0  0  0  0  0  0  0  0  0
  141.3427   71.5118  227.8341 H   0  0  0  0  0  0  0  0  0  0  0  0
  141.2281   72.4024  225.5715 H   0  0  0  0  0  0  0  0  0  0  0  0
  141.1315   73.3276  223.2825 H   0  0  0  0  0  0  0  0  0  0  0  0
  138.7092   74.2411  222.3873 H   0  0  0  0  0  0  0  0  0  0  0  0
  139.8576   75.5831  222.7377 H   0  0  0  0  0  0  0  0  0  0  0  0
  137.6503   75.6731  220.5963 H   0  0  0  0  0  0  0  0  0  0  0  0
  137.5207   76.4164  222.2122 H   0  0  0  0  0  0  0  0  0  0  0  0
  139.4939   79.1891  221.1184 H   0  0  0  0  0  0  0  0  0  0  0  0
  137.8003   78.7212  221.6806 H   0  0  0  0  0  0  0  0  0  0  0  0
  138.5274   78.8217  223.7357 H   0  0  0  0  0  0  0  0  0  0  0  0
  139.5376   77.3839  223.3838 H   0  0  0  0  0  0  0  0  0  0  0  0
  141.7844   77.6432  222.4892 H   0  0  0  0  0  0  0  0  0  0  0  0
  143.9031   78.9208  222.6681 H   0  0  0  0  0  0  0  0  0  0  0  0
  143.8520   81.2434  223.5083 H   0  0  0  0  0  0  0  0  0  0  0  0
  141.7146   82.3039  224.1708 H   0  0  0  0  0  0  0  0  0  0  0  0
  139.5682   81.0155  223.9886 H   0  0  0  0  0  0  0  0  0  0  0  0
  140.2195   77.6781  219.4310 H   0  0  0  0  0  0  0  0  0  0  0  0
  140.9442   77.3167  221.0916 H   0  0  0  0  0  0  0  0  0  0  0  0
  140.0157   75.4289  218.9665 H   0  0  0  0  0  0  0  0  0  0  0  0
  141.6164   75.5729  219.8322 H   0  0  0  0  0  0  0  0  0  0  0  0
  1  2  2  3
  2  3  1  0
  3  4  1  0
  4  5  2  0
  5  6  1  0
  6  7  2  0
  7  8  1  0
  8  9  2  0
  9 10  1  0
 10 11  2  0
 11 12  1  0
 12 13  2  0
 13 14  1  0
 14 15  2  0
 15 16  1  0
 16 17  2  0
 16 18  1  0
 18 19  1  0
 19 20  1  0
 20 21  1  0
 21 22  1  0
 22 23  1  0
 23 24  1  0
 24 25  2  0
 25 26  1  0
 26 27  2  0
 27 28  1  0
 28 29  2  0
 21 30  1  0
 30 31  1  0
 15  2  1  0
 31 18  1  0
 13  4  1  0
 29 24  1  0
 11  6  1  0
  1 32  1  0
  3 33  1  0
  7 34  1  0
  8 35  1  0
  9 36  1  0
 10 37  1  0
 12 38  1  0
 14 39  1  0
 19 40  1  0
 19 41  1  0
 20 42  1  0
 20 43  1  0
 22 44  1  0
 22 45  1  0
 23 46  1  0
 23 47  1  0
 25 48  1  0
 26 49  1  0
 27 50  1  0
 28 51  1  0
 29 52  1  0
 30 53  1  0
 30 54  1  0
 31 55  1  0
 31 56  1  0
M  END
>  <smiles>  (36) 
N=c1[nH]c2nc3ccccc3cc2cc1C(=O)N1CCN(CCc2ccccc2)CC1

>  <score_type>  (36) 
oracle

>  <origin>  (36) 
autodockgpu

>  <m_score__min__energy>  (36) 
-8.9700000000000006

>  <m_primary>  (36) 
energy

>  <rmsd>  (36) 
9.871810388347084

>  <m_score__min__rmsd>  (36) 
9.871810388347084

>  <meeko>  (36) 
{"free_energy": -8.42, "intermolecular_energy": -9.91, "internal_energy": -1.28, "cluster_size": 41, "cluster_id": 3, "rank_in_cluster": 3}

>  <energy>  (36) 
-8.38

>  <cluster_rmsd>  (36) 
0.5

>  <cluster>  (36) 
3

$$$$

     RDKit          3D

 56 60  0  0  0  0  0  0  0  0999 V2000
  139.4370   70.9410  219.9950 N   0  0  0  0  0  0  0  0  0  0  0  0
  139.7470   71.0730  221.2400 C   0  0  0  0  0  0  0  0  0  0  0  0
  139.5030   70.1010  222.1510 N   0  0  0  0  0  0  0  0  0  0  0  0
  139.8300   70.2410  223.4580 C   0  0  0  0  0  0  0  0  0  0  0  0
  139.5690   69.2340  224.3280 N   0  0  0  0  0  0  0  0  0  0  0  0
  139.8860   69.3380  225.6490 C   0  0  0  0  0  0  0  0  0  0  0  0
  139.6080   68.2850  226.5250 C   0  0  0  0  0  0  0  0  0  0  0  0
  139.9360   68.3940  227.8790 C   0  0  0  0  0  0  0  0  0  0  0  0
  140.5380   69.5390  228.3660 C   0  0  0  0  0  0  0  0  0  0  0  0
  140.8220   70.5990  227.5020 C   0  0  0  0  0  0  0  0  0  0  0  0
  140.4910   70.4830  226.1530 C   0  0  0  0  0  0  0  0  0  0  0  0
  140.7490   71.4950  225.2530 C   0  0  0  0  0  0  0  0  0  0  0  0
  140.4370   71.4120  223.9170 C   0  0  0  0  0  0  0  0  0  0  0  0
  140.6940   72.4160  223.0060 C   0  0  0  0  0  0  0  0  0  0  0  0
  140.3460   72.2400  221.6630 C   0  0  0  0  0  0  0  0  0  0  0  0
  140.6720   73.3490  220.7770 C   0  0  0  0  0  0  0  0  0  0  0  0
  141.4660   73.0580  219.8150 O   0  0  0  0  0  0  0  0  0  0  0  0
  140.1800   74.6630  220.9210 N   0  0  0  0  0  0  0  0  0  0  0  0
  139.2760   75.0940  221.9660 C   0  0  0  0  0  0  0  0  0  0  0  0
  138.2500   76.0930  221.4000 C   0  0  0  0  0  0  0  0  0  0  0  0
  138.9560   77.2270  220.9590 N   0  0  0  0  0  0  0  0  0  0  0  0
  138.8350   78.4430  221.6580 C   0  0  0  0  0  0  0  0  0  0  0  0
  139.3170   78.4300  223.0850 C   0  0  0  0  0  0  0  0  0  0  0  0
  140.5500   79.2840  223.1910 C   0  0  0  0  0  0  0  0  0  0  0  0
  141.7730   78.6710  222.9320 C   0  0  0  0  0  0  0  0  0  0  0  0
  142.9470   79.3870  223.0060 C   0  0  0  0  0  0  0  0  0  0  0  0
  142.8960   80.7160  223.3380 C   0  0  0  0  0  0  0  0  0  0  0  0
  141.6890   81.3430  223.5990 C   0  0  0  0  0  0  0  0  0  0  0  0
  140.4950   80.6160  223.5250 C   0  0  0  0  0  0  0  0  0  0  0  0
  140.2300   77.0680  220.3740 C   0  0  0  0  0  0  0  0  0  0  0  0
  140.6010   75.6690  219.9670 C   0  0  0  0  0  0  0  0  0  0  0  0
  139.9710   71.5270  219.3070 H   0  0  0  0  0  0  0  0  0  0  0  0
  139.0420   69.1960  221.8320 H   0  0  0  0  0  0  0  0  0  0  0  0
  139.1301   67.3688  226.1479 H   0  0  0  0  0  0  0  0  0  0  0  0
  139.7133   67.5617  228.5629 H   0  0  0  0  0  0  0  0  0  0  0  0
  140.7932   69.6153  229.4333 H   0  0  0  0  0  0  0  0  0  0  0  0
  141.3008   71.5138  227.8813 H   0  0  0  0  0  0  0  0  0  0  0  0
  141.2280   72.4138  225.6222 H   0  0  0  0  0  0  0  0  0  0  0  0
  141.1708   73.3512  223.3348 H   0  0  0  0  0  0  0  0  0  0  0  0
  138.7464   74.2197  222.3723 H   0  0  0  0  0  0  0  0  0  0  0  0
  139.8546   75.5848  222.7625 H   0  0  0  0  0  0  0  0  0  0  0  0
  137.7089   75.6375  220.5576 H   0  0  0  0  0  0  0  0  0  0  0  0
  137.5170   76.3713  222.1715 H   0  0  0  0  0  0  0  0  0  0  0  0
  139.4131   79.2042  221.1135 H   0  0  0  0  0  0  0  0  0  0  0  0
  137.7562   78.6520  221.7091 H   0  0  0  0  0  0  0  0  0  0  0  0
  138.5324   78.8312  223.7433 H   0  0  0  0  0  0  0  0  0  0  0  0
  139.5505   77.3992  223.3899 H   0  0  0  0  0  0  0  0  0  0  0  0
  141.8017   77.6041  222.6656 H   0  0  0  0  0  0  0  0  0  0  0  0
  143.9117   78.8995  222.8017 H   0  0  0  0  0  0  0  0  0  0  0  0
  143.8297   81.2944  223.3981 H   0  0  0  0  0  0  0  0  0  0  0  0
  141.6686   82.4104  223.8640 H   0  0  0  0  0  0  0  0  0  0  0  0
  139.5299   81.1022  223.7305 H   0  0  0  0  0  0  0  0  0  0  0  0
  140.2684   77.7009  219.4751 H   0  0  0  0  0  0  0  0  0  0  0  0
  140.9512   77.3494  221.1555 H   0  0  0  0  0  0  0  0  0  0  0  0
  140.1284   75.4505  218.9980 H   0  0  0  0  0  0  0  0  0  0  0  0
  141.6988   75.6263  219.9122 H   0  0  0  0  0  0  0  0  0  0  0  0
  1  2  2  3
  2  3  1  0
  3  4  1  0
  4  5  2  0
  5  6  1  0
  6  7  2  0
  7  8  1  0
  8  9  2  0
  9 10  1  0
 10 11  2  0
 11 12  1  0
 12 13  2  0
 13 14  1  0
 14 15  2  0
 15 16  1  0
 16 17  2  0
 16 18  1  0
 18 19  1  0
 19 20  1  0
 20 21  1  0
 21 22  1  0
 22 23  1  0
 23 24  1  0
 24 25  2  0
 25 26  1  0
 26 27  2  0
 27 28  1  0
 28 29  2  0
 21 30  1  0
 30 31  1  0
 15  2  1  0
 31 18  1  0
 13  4  1  0
 29 24  1  0
 11  6  1  0
  1 32  1  0
  3 33  1  0
  7 34  1  0
  8 35  1  0
  9 36  1  0
 10 37  1  0
 12 38  1  0
 14 39  1  0
 19 40  1  0
 19 41  1  0
 20 42  1  0
 20 43  1  0
 22 44  1  0
 22 45  1  0
 23 46  1  0
 23 47  1  0
 25 48  1  0
 26 49  1  0
 27 50  1  0
 28 51  1  0
 29 52  1  0
 30 53  1  0
 30 54  1  0
 31 55  1  0
 31 56  1  0
M  END
>  <smiles>  (37) 
N=c1[nH]c2nc3ccccc3cc2cc1C(=O)N1CCN(CCc2ccccc2)CC1

>  <score_type>  (37) 
oracle

>  <origin>  (37) 
autodockgpu

>  <m_score__min__energy>  (37) 
-8.9700000000000006

>  <m_primary>  (37) 
energy

>  <rmsd>  (37) 
9.893783515929337

>  <m_score__min__rmsd>  (37) 
9.893783515929337

>  <meeko>  (37) 
{"free_energy": -8.39, "intermolecular_energy": -9.88, "internal_energy": -1.28, "cluster_size": 41, "cluster_id": 3, "rank_in_cluster": 24}

>  <energy>  (37) 
-8.38

>  <cluster_rmsd>  (37) 
0.48

>  <cluster>  (37) 
3

$$$$

     RDKit          3D

 56 60  0  0  0  0  0  0  0  0999 V2000
  139.0610   70.8960  220.0810 N   0  0  0  0  0  0  0  0  0  0  0  0
  139.4580   71.0370  221.3000 C   0  0  0  0  0  0  0  0  0  0  0  0
  139.2410   70.0900  222.2440 N   0  0  0  0  0  0  0  0  0  0  0  0
  139.6590   70.2400  223.5240 C   0  0  0  0  0  0  0  0  0  0  0  0
  139.4200   69.2580  224.4290 N   0  0  0  0  0  0  0  0  0  0  0  0
  139.8280   69.3720  225.7230 C   0  0  0  0  0  0  0  0  0  0  0  0
  139.5720   68.3450  226.6360 C   0  0  0  0  0  0  0  0  0  0  0  0
  139.9940   68.4640  227.9630 C   0  0  0  0  0  0  0  0  0  0  0  0
  140.6670   69.5950  228.3870 C   0  0  0  0  0  0  0  0  0  0  0  0
  140.9300   70.6280  227.4860 C   0  0  0  0  0  0  0  0  0  0  0  0
  140.5070   70.5030  226.1640 C   0  0  0  0  0  0  0  0  0  0  0  0
  140.7390   71.4890  225.2290 C   0  0  0  0  0  0  0  0  0  0  0  0
  140.3360   71.3950  223.9190 C   0  0  0  0  0  0  0  0  0  0  0  0
  140.5680   72.3740  222.9750 C   0  0  0  0  0  0  0  0  0  0  0  0
  140.1250   72.1880  221.6610 C   0  0  0  0  0  0  0  0  0  0  0  0
  140.4300   73.2690  220.7340 C   0  0  0  0  0  0  0  0  0  0  0  0
  141.1390   72.9310  219.7220 O   0  0  0  0  0  0  0  0  0  0  0  0
  140.0050   74.6050  220.8900 N   0  0  0  0  0  0  0  0  0  0  0  0
  139.1990   75.0900  221.9910 C   0  0  0  0  0  0  0  0  0  0  0  0
  138.1760   76.1230  221.4830 C   0  0  0  0  0  0  0  0  0  0  0  0
  138.8940   77.2200  220.9730 N   0  0  0  0  0  0  0  0  0  0  0  0
  138.8750   78.4490  221.6570 C   0  0  0  0  0  0  0  0  0  0  0  0
  139.3200   78.4060  223.0960 C   0  0  0  0  0  0  0  0  0  0  0  0
  140.5450   79.2630  223.2530 C   0  0  0  0  0  0  0  0  0  0  0  0
  141.7660   78.6990  222.8970 C   0  0  0  0  0  0  0  0  0  0  0  0
  142.9340   79.4210  223.0100 C   0  0  0  0  0  0  0  0  0  0  0  0
  142.8770   80.7080  223.4790 C   0  0  0  0  0  0  0  0  0  0  0  0
  141.6710   81.2860  223.8390 C   0  0  0  0  0  0  0  0  0  0  0  0
  140.4840   80.5530  223.7240 C   0  0  0  0  0  0  0  0  0  0  0  0
  140.1140   76.9980  220.3000 C   0  0  0  0  0  0  0  0  0  0  0  0
  140.3960   75.5790  219.8900 C   0  0  0  0  0  0  0  0  0  0  0  0
  139.5670   71.4520  219.3490 H   0  0  0  0  0  0  0  0  0  0  0  0
  138.7270   69.1980  221.9740 H   0  0  0  0  0  0  0  0  0  0  0  0
  139.0372   67.4410  226.3093 H   0  0  0  0  0  0  0  0  0  0  0  0
  139.7892   67.6516  228.6757 H   0  0  0  0  0  0  0  0  0  0  0  0
  140.9949   69.6806  229.4335 H   0  0  0  0  0  0  0  0  0  0  0  0
  141.4652   71.5307  227.8157 H   0  0  0  0  0  0  0  0  0  0  0  0
  141.2734   72.3962  225.5476 H   0  0  0  0  0  0  0  0  0  0  0  0
  141.0986   73.2962  223.2541 H   0  0  0  0  0  0  0  0  0  0  0  0
  138.6653   74.2452  222.4510 H   0  0  0  0  0  0  0  0  0  0  0  0
  139.8545   75.5678  222.7340 H   0  0  0  0  0  0  0  0  0  0  0  0
  137.5571   75.6786  220.6896 H   0  0  0  0  0  0  0  0  0  0  0  0
  137.5126   76.4427  222.3002 H   0  0  0  0  0  0  0  0  0  0  0  0
  139.5367   79.1444  221.1198 H   0  0  0  0  0  0  0  0  0  0  0  0
  137.8207   78.7618  221.6797 H   0  0  0  0  0  0  0  0  0  0  0  0
  138.5165   78.7885  223.7425 H   0  0  0  0  0  0  0  0  0  0  0  0
  139.5509   77.3697  223.3837 H   0  0  0  0  0  0  0  0  0  0  0  0
  141.7992   77.6657  222.5213 H   0  0  0  0  0  0  0  0  0  0  0  0
  143.8977   78.9716  222.7282 H   0  0  0  0  0  0  0  0  0  0  0  0
  143.8049   81.2915  223.5709 H   0  0  0  0  0  0  0  0  0  0  0  0
  141.6460   82.3195  224.2147 H   0  0  0  0  0  0  0  0  0  0  0  0
  139.5197   81.0012  224.0055 H   0  0  0  0  0  0  0  0  0  0  0  0
  140.1132   77.6166  219.3904 H   0  0  0  0  0  0  0  0  0  0  0  0
  140.9012   77.2581  221.0229 H   0  0  0  0  0  0  0  0  0  0  0  0
  139.8444   75.3675  218.9621 H   0  0  0  0  0  0  0  0  0  0  0  0
  141.4840   75.4888  219.7551 H   0  0  0  0  0  0  0  0  0  0  0  0
  1  2  2  3
  2  3  1  0
  3  4  1  0
  4  5  2  0
  5  6  1  0
  6  7  2  0
  7  8  1  0
  8  9  2  0
  9 10  1  0
 10 11  2  0
 11 12  1  0
 12 13  2  0
 13 14  1  0
 14 15  2  0
 15 16  1  0
 16 17  2  0
 16 18  1  0
 18 19  1  0
 19 20  1  0
 20 21  1  0
 21 22  1  0
 22 23  1  0
 23 24  1  0
 24 25  2  0
 25 26  1  0
 26 27  2  0
 27 28  1  0
 28 29  2  0
 21 30  1  0
 30 31  1  0
 15  2  1  0
 31 18  1  0
 13  4  1  0
 29 24  1  0
 11  6  1  0
  1 32  1  0
  3 33  1  0
  7 34  1  0
  8 35  1  0
  9 36  1  0
 10 37  1  0
 12 38  1  0
 14 39  1  0
 19 40  1  0
 19 41  1  0
 20 42  1  0
 20 43  1  0
 22 44  1  0
 22 45  1  0
 23 46  1  0
 23 47  1  0
 25 48  1  0
 26 49  1  0
 27 50  1  0
 28 51  1  0
 29 52  1  0
 30 53  1  0
 30 54  1  0
 31 55  1  0
 31 56  1  0
M  END
>  <smiles>  (38) 
N=c1[nH]c2nc3ccccc3cc2cc1C(=O)N1CCN(CCc2ccccc2)CC1

>  <score_type>  (38) 
oracle

>  <origin>  (38) 
autodockgpu

>  <m_score__min__energy>  (38) 
-8.9700000000000006

>  <m_primary>  (38) 
energy

>  <rmsd>  (38) 
9.878303221027666

>  <m_score__min__rmsd>  (38) 
9.878303221027666

>  <meeko>  (38) 
{"free_energy": -8.42, "intermolecular_energy": -9.91, "internal_energy": -1.27, "cluster_size": 41, "cluster_id": 3, "rank_in_cluster": 5}

>  <energy>  (38) 
-8.38

>  <cluster_rmsd>  (38) 
0.49

>  <cluster>  (38) 
3

$$$$

     RDKit          3D

 56 60  0  0  0  0  0  0  0  0999 V2000
  138.9240   71.2510  220.1420 N   0  0  0  0  0  0  0  0  0  0  0  0
  139.3440   71.3240  221.3590 C   0  0  0  0  0  0  0  0  0  0  0  0
  139.1510   70.3240  222.2510 N   0  0  0  0  0  0  0  0  0  0  0  0
  139.5940   70.4030  223.5290 C   0  0  0  0  0  0  0  0  0  0  0  0
  139.3780   69.3690  224.3800 N   0  0  0  0  0  0  0  0  0  0  0  0
  139.8120   69.4110  225.6710 C   0  0  0  0  0  0  0  0  0  0  0  0
  139.5790   68.3320  226.5280 C   0  0  0  0  0  0  0  0  0  0  0  0
  140.0270   68.3780  227.8510 C   0  0  0  0  0  0  0  0  0  0  0  0
  140.7030   69.4860  228.3260 C   0  0  0  0  0  0  0  0  0  0  0  0
  140.9430   70.5710  227.4810 C   0  0  0  0  0  0  0  0  0  0  0  0
  140.4930   70.5190  226.1630 C   0  0  0  0  0  0  0  0  0  0  0  0
  140.7020   71.5580  225.2810 C   0  0  0  0  0  0  0  0  0  0  0  0
  140.2730   71.5370  223.9760 C   0  0  0  0  0  0  0  0  0  0  0  0
  140.4810   72.5700  223.0850 C   0  0  0  0  0  0  0  0  0  0  0  0
  140.0120   72.4570  221.7710 C   0  0  0  0  0  0  0  0  0  0  0  0
  140.2940   73.5910  220.9030 C   0  0  0  0  0  0  0  0  0  0  0  0
  141.0100   73.3220  219.8750 O   0  0  0  0  0  0  0  0  0  0  0  0
  139.8390   74.9070  221.1270 N   0  0  0  0  0  0  0  0  0  0  0  0
  139.0220   75.3160  222.2500 C   0  0  0  0  0  0  0  0  0  0  0  0
  137.9760   76.3510  221.7950 C   0  0  0  0  0  0  0  0  0  0  0  0
  138.6700   77.4890  221.3430 N   0  0  0  0  0  0  0  0  0  0  0  0
  138.6230   78.6800  222.0900 C   0  0  0  0  0  0  0  0  0  0  0  0
  139.2930   78.6350  223.4390 C   0  0  0  0  0  0  0  0  0  0  0  0
  140.5660   79.4340  223.3780 C   0  0  0  0  0  0  0  0  0  0  0  0
  141.7460   78.7340  223.1470 C   0  0  0  0  0  0  0  0  0  0  0  0
  142.9520   79.3950  223.0740 C   0  0  0  0  0  0  0  0  0  0  0  0
  142.9750   80.7560  223.2330 C   0  0  0  0  0  0  0  0  0  0  0  0
  141.8110   81.4700  223.4640 C   0  0  0  0  0  0  0  0  0  0  0  0
  140.5840   80.8000  223.5380 C   0  0  0  0  0  0  0  0  0  0  0  0
  139.8950   77.3290  220.6610 C   0  0  0  0  0  0  0  0  0  0  0  0
  140.2080   75.9400  220.1790 C   0  0  0  0  0  0  0  0  0  0  0  0
  139.4130   71.8500  219.4320 H   0  0  0  0  0  0  0  0  0  0  0  0
  138.6360   69.4450  221.9400 H   0  0  0  0  0  0  0  0  0  0  0  0
  139.0421   67.4450  226.1606 H   0  0  0  0  0  0  0  0  0  0  0  0
  139.8400   67.5251  228.5200 H   0  0  0  0  0  0  0  0  0  0  0  0
  141.0516   69.5129  229.3690 H   0  0  0  0  0  0  0  0  0  0  0  0
  141.4808   71.4564  227.8510 H   0  0  0  0  0  0  0  0  0  0  0  0
  141.2391   72.4482  225.6402 H   0  0  0  0  0  0  0  0  0  0  0  0
  141.0128   73.4779  223.4058 H   0  0  0  0  0  0  0  0  0  0  0  0
  138.5072   74.4367  222.6647 H   0  0  0  0  0  0  0  0  0  0  0  0
  139.6664   75.7693  223.0176 H   0  0  0  0  0  0  0  0  0  0  0  0
  137.3671   75.9347  220.9790 H   0  0  0  0  0  0  0  0  0  0  0  0
  137.3056   76.6132  222.6268 H   0  0  0  0  0  0  0  0  0  0  0  0
  139.1093   79.4692  221.4978 H   0  0  0  0  0  0  0  0  0  0  0  0
  137.5575   78.8642  222.2917 H   0  0  0  0  0  0  0  0  0  0  0  0
  138.6233   79.0649  224.1984 H   0  0  0  0  0  0  0  0  0  0  0  0
  139.5198   77.5927  223.7077 H   0  0  0  0  0  0  0  0  0  0  0  0
  141.7154   77.6416  223.0214 H   0  0  0  0  0  0  0  0  0  0  0  0
  143.8831   78.8387  222.8908 H   0  0  0  0  0  0  0  0  0  0  0  0
  143.9347   81.2906  223.1762 H   0  0  0  0  0  0  0  0  0  0  0  0
  141.8505   82.5621  223.5892 H   0  0  0  0  0  0  0  0  0  0  0  0
  139.6522   81.3553  223.7206 H   0  0  0  0  0  0  0  0  0  0  0  0
  139.8808   77.9935  219.7845 H   0  0  0  0  0  0  0  0  0  0  0  0
  140.6762   77.5689  221.3973 H   0  0  0  0  0  0  0  0  0  0  0  0
  139.6610   75.7645  219.2409 H   0  0  0  0  0  0  0  0  0  0  0  0
  141.2977   75.8810  220.0408 H   0  0  0  0  0  0  0  0  0  0  0  0
  1  2  2  3
  2  3  1  0
  3  4  1  0
  4  5  2  0
  5  6  1  0
  6  7  2  0
  7  8  1  0
  8  9  2  0
  9 10  1  0
 10 11  2  0
 11 12  1  0
 12 13  2  0
 13 14  1  0
 14 15  2  0
 15 16  1  0
 16 17  2  0
 16 18  1  0
 18 19  1  0
 19 20  1  0
 20 21  1  0
 21 22  1  0
 22 23  1  0
 23 24  1  0
 24 25  2  0
 25 26  1  0
 26 27  2  0
 27 28  1  0
 28 29  2  0
 21 30  1  0
 30 31  1  0
 15  2  1  0
 31 18  1  0
 13  4  1  0
 29 24  1  0
 11  6  1  0
  1 32  1  0
  3 33  1  0
  7 34  1  0
  8 35  1  0
  9 36  1  0
 10 37  1  0
 12 38  1  0
 14 39  1  0
 19 40  1  0
 19 41  1  0
 20 42  1  0
 20 43  1  0
 22 44  1  0
 22 45  1  0
 23 46  1  0
 23 47  1  0
 25 48  1  0
 26 49  1  0
 27 50  1  0
 28 51  1  0
 29 52  1  0
 30 53  1  0
 30 54  1  0
 31 55  1  0
 31 56  1  0
M  END
>  <smiles>  (39) 
N=c1[nH]c2nc3ccccc3cc2cc1C(=O)N1CCN(CCc2ccccc2)CC1

>  <score_type>  (39) 
oracle

>  <origin>  (39) 
autodockgpu

>  <m_score__min__energy>  (39) 
-8.9700000000000006

>  <m_primary>  (39) 
energy

>  <rmsd>  (39) 
9.938754057100684

>  <m_score__min__rmsd>  (39) 
9.938754057100684

>  <meeko>  (39) 
{"free_energy": -8.38, "intermolecular_energy": -9.87, "internal_energy": -1.29, "cluster_size": 41, "cluster_id": 3, "rank_in_cluster": 33}

>  <energy>  (39) 
-8.38

>  <cluster_rmsd>  (39) 
0.5

>  <cluster>  (39) 
3

$$$$

     RDKit          3D

 56 60  0  0  0  0  0  0  0  0999 V2000
  139.2460   70.9330  220.0170 N   0  0  0  0  0  0  0  0  0  0  0  0
  139.6080   71.0630  221.2480 C   0  0  0  0  0  0  0  0  0  0  0  0
  139.3780   70.1010  222.1730 N   0  0  0  0  0  0  0  0  0  0  0  0
  139.7590   70.2400  223.4660 C   0  0  0  0  0  0  0  0  0  0  0  0
  139.5100   69.2430  224.3510 N   0  0  0  0  0  0  0  0  0  0  0  0
  139.8810   69.3450  225.6570 C   0  0  0  0  0  0  0  0  0  0  0  0
  139.6140   68.3020  226.5490 C   0  0  0  0  0  0  0  0  0  0  0  0
  139.9980   68.4100  227.8880 C   0  0  0  0  0  0  0  0  0  0  0  0
  140.6430   69.5440  228.3460 C   0  0  0  0  0  0  0  0  0  0  0  0
  140.9160   70.5930  227.4660 C   0  0  0  0  0  0  0  0  0  0  0  0
  140.5310   70.4790  226.1310 C   0  0  0  0  0  0  0  0  0  0  0  0
  140.7750   71.4800  225.2160 C   0  0  0  0  0  0  0  0  0  0  0  0
  140.4090   71.3990  223.8940 C   0  0  0  0  0  0  0  0  0  0  0  0
  140.6530   72.3930  222.9690 C   0  0  0  0  0  0  0  0  0  0  0  0
  140.2480   72.2190  221.6410 C   0  0  0  0  0  0  0  0  0  0  0  0
  140.5630   73.3160  220.7370 C   0  0  0  0  0  0  0  0  0  0  0  0
  141.3120   73.0030  219.7460 O   0  0  0  0  0  0  0  0  0  0  0  0
  140.1080   74.6410  220.8930 N   0  0  0  0  0  0  0  0  0  0  0  0
  139.2550   75.0980  221.9720 C   0  0  0  0  0  0  0  0  0  0  0  0
  138.2300   76.1170  221.4410 C   0  0  0  0  0  0  0  0  0  0  0  0
  138.9440   77.2330  220.9670 N   0  0  0  0  0  0  0  0  0  0  0  0
  138.8780   78.4540  221.6640 C   0  0  0  0  0  0  0  0  0  0  0  0
  139.3480   78.4190  223.0950 C   0  0  0  0  0  0  0  0  0  0  0  0
  140.5870   79.2610  223.2220 C   0  0  0  0  0  0  0  0  0  0  0  0
  141.7930   78.6810  222.8410 C   0  0  0  0  0  0  0  0  0  0  0  0
  142.9710   79.3890  222.9250 C   0  0  0  0  0  0  0  0  0  0  0  0
  142.9410   80.6780  223.3920 C   0  0  0  0  0  0  0  0  0  0  0  0
  141.7490   81.2720  223.7760 C   0  0  0  0  0  0  0  0  0  0  0  0
  140.5520   80.5540  223.6900 C   0  0  0  0  0  0  0  0  0  0  0  0
  140.1900   77.0430  220.3330 C   0  0  0  0  0  0  0  0  0  0  0  0
  140.5130   75.6340  219.9180 C   0  0  0  0  0  0  0  0  0  0  0  0
  139.7640   71.5050  219.3050 H   0  0  0  0  0  0  0  0  0  0  0  0
  138.8850   69.2050  221.8770 H   0  0  0  0  0  0  0  0  0  0  0  0
  139.1009   67.3952  226.1961 H   0  0  0  0  0  0  0  0  0  0  0  0
  139.7852   67.5853  228.5842 H   0  0  0  0  0  0  0  0  0  0  0  0
  140.9407   69.6196  229.4023 H   0  0  0  0  0  0  0  0  0  0  0  0
  141.4288   71.4987  227.8219 H   0  0  0  0  0  0  0  0  0  0  0  0
  141.2885   72.3895  225.5612 H   0  0  0  0  0  0  0  0  0  0  0  0
  141.1637   73.3183  223.2741 H   0  0  0  0  0  0  0  0  0  0  0  0
  138.7226   74.2379  222.4041 H   0  0  0  0  0  0  0  0  0  0  0  0
  139.8755   75.5795  222.7421 H   0  0  0  0  0  0  0  0  0  0  0  0
  137.6465   75.6700  220.6226 H   0  0  0  0  0  0  0  0  0  0  0  0
  137.5335   76.4150  222.2386 H   0  0  0  0  0  0  0  0  0  0  0  0
  139.4971   79.1850  221.1233 H   0  0  0  0  0  0  0  0  0  0  0  0
  137.8105   78.7160  221.7068 H   0  0  0  0  0  0  0  0  0  0  0  0
  138.5613   78.8185  223.7518 H   0  0  0  0  0  0  0  0  0  0  0  0
  139.5704   77.3825  223.3887 H   0  0  0  0  0  0  0  0  0  0  0  0
  141.8055   77.6460  222.4688 H   0  0  0  0  0  0  0  0  0  0  0  0
  143.9223   78.9273  222.6219 H   0  0  0  0  0  0  0  0  0  0  0  0
  143.8780   81.2498  223.4630 H   0  0  0  0  0  0  0  0  0  0  0  0
  141.7445   82.3072  224.1480 H   0  0  0  0  0  0  0  0  0  0  0  0
  139.5997   81.0149  223.9912 H   0  0  0  0  0  0  0  0  0  0  0  0
  140.2072   77.6715  219.4304 H   0  0  0  0  0  0  0  0  0  0  0  0
  140.9477   77.3109  221.0841 H   0  0  0  0  0  0  0  0  0  0  0  0
  139.9972   75.4226  218.9697 H   0  0  0  0  0  0  0  0  0  0  0  0
  141.6065   75.5664  219.8197 H   0  0  0  0  0  0  0  0  0  0  0  0
  1  2  2  3
  2  3  1  0
  3  4  1  0
  4  5  2  0
  5  6  1  0
  6  7  2  0
  7  8  1  0
  8  9  2  0
  9 10  1  0
 10 11  2  0
 11 12  1  0
 12 13  2  0
 13 14  1  0
 14 15  2  0
 15 16  1  0
 16 17  2  0
 16 18  1  0
 18 19  1  0
 19 20  1  0
 20 21  1  0
 21 22  1  0
 22 23  1  0
 23 24  1  0
 24 25  2  0
 25 26  1  0
 26 27  2  0
 27 28  1  0
 28 29  2  0
 21 30  1  0
 30 31  1  0
 15  2  1  0
 31 18  1  0
 13  4  1  0
 29 24  1  0
 11  6  1  0
  1 32  1  0
  3 33  1  0
  7 34  1  0
  8 35  1  0
  9 36  1  0
 10 37  1  0
 12 38  1  0
 14 39  1  0
 19 40  1  0
 19 41  1  0
 20 42  1  0
 20 43  1  0
 22 44  1  0
 22 45  1  0
 23 46  1  0
 23 47  1  0
 25 48  1  0
 26 49  1  0
 27 50  1  0
 28 51  1  0
 29 52  1  0
 30 53  1  0
 30 54  1  0
 31 55  1  0
 31 56  1  0
M  END
>  <smiles>  (40) 
N=c1[nH]c2nc3ccccc3cc2cc1C(=O)N1CCN(CCc2ccccc2)CC1

>  <score_type>  (40) 
oracle

>  <origin>  (40) 
autodockgpu

>  <m_score__min__energy>  (40) 
-8.9700000000000006

>  <m_primary>  (40) 
energy

>  <rmsd>  (40) 
9.879616684867186

>  <m_score__min__rmsd>  (40) 
9.879616684867186

>  <meeko>  (40) 
{"free_energy": -8.41, "intermolecular_energy": -9.9, "internal_energy": -1.27, "cluster_size": 41, "cluster_id": 3, "rank_in_cluster": 8}

>  <energy>  (40) 
-8.36

>  <cluster_rmsd>  (40) 
0.53

>  <cluster>  (40) 
3

$$$$

     RDKit          3D

 56 60  0  0  0  0  0  0  0  0999 V2000
  138.8280   71.2430  220.1940 N   0  0  0  0  0  0  0  0  0  0  0  0
  139.2710   71.3240  221.4020 C   0  0  0  0  0  0  0  0  0  0  0  0
  139.0960   70.3290  222.3030 N   0  0  0  0  0  0  0  0  0  0  0  0
  139.5630   70.4160  223.5720 C   0  0  0  0  0  0  0  0  0  0  0  0
  139.3640   69.3880  224.4340 N   0  0  0  0  0  0  0  0  0  0  0  0
  139.8220   69.4370  225.7150 C   0  0  0  0  0  0  0  0  0  0  0  0
  139.6070   68.3630  226.5830 C   0  0  0  0  0  0  0  0  0  0  0  0
  140.0800   68.4170  227.8970 C   0  0  0  0  0  0  0  0  0  0  0  0
  140.7640   69.5290  228.3530 C   0  0  0  0  0  0  0  0  0  0  0  0
  140.9870   70.6090  227.4960 C   0  0  0  0  0  0  0  0  0  0  0  0
  140.5130   70.5480  226.1870 C   0  0  0  0  0  0  0  0  0  0  0  0
  140.7040   71.5820  225.2960 C   0  0  0  0  0  0  0  0  0  0  0  0
  140.2500   71.5540  223.9990 C   0  0  0  0  0  0  0  0  0  0  0  0
  140.4400   72.5810  223.0980 C   0  0  0  0  0  0  0  0  0  0  0  0
  139.9470   72.4600  221.7950 C   0  0  0  0  0  0  0  0  0  0  0  0
  140.2110   73.5890  220.9140 C   0  0  0  0  0  0  0  0  0  0  0  0
  140.8990   73.3110  219.8700 O   0  0  0  0  0  0  0  0  0  0  0  0
  139.7680   74.9080  221.1440 N   0  0  0  0  0  0  0  0  0  0  0  0
  138.9820   75.3260  222.2860 C   0  0  0  0  0  0  0  0  0  0  0  0
  137.9300   76.3640  221.8540 C   0  0  0  0  0  0  0  0  0  0  0  0
  138.6170   77.4960  221.3790 N   0  0  0  0  0  0  0  0  0  0  0  0
  138.5950   78.6910  222.1220 C   0  0  0  0  0  0  0  0  0  0  0  0
  139.2690   78.6390  223.4680 C   0  0  0  0  0  0  0  0  0  0  0  0
  140.5910   79.3490  223.3800 C   0  0  0  0  0  0  0  0  0  0  0  0
  140.5840   80.7300  223.5470 C   0  0  0  0  0  0  0  0  0  0  0  0
  141.7560   81.4520  223.4830 C   0  0  0  0  0  0  0  0  0  0  0  0
  142.9340   80.7890  223.2530 C   0  0  0  0  0  0  0  0  0  0  0  0
  142.9600   79.4140  223.0840 C   0  0  0  0  0  0  0  0  0  0  0  0
  141.7700   78.6800  223.1480 C   0  0  0  0  0  0  0  0  0  0  0  0
  139.8230   77.3280  220.6660 C   0  0  0  0  0  0  0  0  0  0  0  0
  140.1180   75.9350  220.1830 C   0  0  0  0  0  0  0  0  0  0  0  0
  139.3070   71.8340  219.4700 H   0  0  0  0  0  0  0  0  0  0  0  0
  138.5760   69.4490  222.0080 H   0  0  0  0  0  0  0  0  0  0  0  0
  139.0643   67.4732  226.2312 H   0  0  0  0  0  0  0  0  0  0  0  0
  139.9067   67.5677  228.5743 H   0  0  0  0  0  0  0  0  0  0  0  0
  141.1319   69.5629  229.3891 H   0  0  0  0  0  0  0  0  0  0  0  0
  141.5304   71.4974  227.8502 H   0  0  0  0  0  0  0  0  0  0  0  0
  141.2471   72.4745  225.6402 H   0  0  0  0  0  0  0  0  0  0  0  0
  140.9770   73.4912  223.4031 H   0  0  0  0  0  0  0  0  0  0  0  0
  138.4738   74.4511  222.7175 H   0  0  0  0  0  0  0  0  0  0  0  0
  139.6483   75.7794  223.0347 H   0  0  0  0  0  0  0  0  0  0  0  0
  137.2978   75.9471  221.0562 H   0  0  0  0  0  0  0  0  0  0  0  0
  137.2831   76.6332  222.7020 H   0  0  0  0  0  0  0  0  0  0  0  0
  139.0935   79.4688  221.5249 H   0  0  0  0  0  0  0  0  0  0  0  0
  137.5338   78.8955  222.3272 H   0  0  0  0  0  0  0  0  0  0  0  0
  138.6340   79.1332  224.2180 H   0  0  0  0  0  0  0  0  0  0  0  0
  139.4282   77.5916  223.7642 H   0  0  0  0  0  0  0  0  0  0  0  0
  139.6331   81.2511  223.7320 H   0  0  0  0  0  0  0  0  0  0  0  0
  141.7467   82.5441  223.6145 H   0  0  0  0  0  0  0  0  0  0  0  0
  143.8739   81.3581  223.2018 H   0  0  0  0  0  0  0  0  0  0  0  0
  143.9148   78.8999  222.8997 H   0  0  0  0  0  0  0  0  0  0  0  0
  141.7776   77.5881  223.0152 H   0  0  0  0  0  0  0  0  0  0  0  0
  139.7882   77.9881  219.7868 H   0  0  0  0  0  0  0  0  0  0  0  0
  140.6242   77.5687  221.3803 H   0  0  0  0  0  0  0  0  0  0  0  0
  139.5474   75.7577  219.2594 H   0  0  0  0  0  0  0  0  0  0  0  0
  141.2038   75.8706  220.0188 H   0  0  0  0  0  0  0  0  0  0  0  0
  1  2  2  3
  2  3  1  0
  3  4  1  0
  4  5  2  0
  5  6  1  0
  6  7  2  0
  7  8  1  0
  8  9  2  0
  9 10  1  0
 10 11  2  0
 11 12  1  0
 12 13  2  0
 13 14  1  0
 14 15  2  0
 15 16  1  0
 16 17  2  0
 16 18  1  0
 18 19  1  0
 19 20  1  0
 20 21  1  0
 21 22  1  0
 22 23  1  0
 23 24  1  0
 24 25  2  0
 25 26  1  0
 26 27  2  0
 27 28  1  0
 28 29  2  0
 21 30  1  0
 30 31  1  0
 15  2  1  0
 31 18  1  0
 13  4  1  0
 29 24  1  0
 11  6  1  0
  1 32  1  0
  3 33  1  0
  7 34  1  0
  8 35  1  0
  9 36  1  0
 10 37  1  0
 12 38  1  0
 14 39  1  0
 19 40  1  0
 19 41  1  0
 20 42  1  0
 20 43  1  0
 22 44  1  0
 22 45  1  0
 23 46  1  0
 23 47  1  0
 25 48  1  0
 26 49  1  0
 27 50  1  0
 28 51  1  0
 29 52  1  0
 30 53  1  0
 30 54  1  0
 31 55  1  0
 31 56  1  0
M  END
>  <smiles>  (41) 
N=c1[nH]c2nc3ccccc3cc2cc1C(=O)N1CCN(CCc2ccccc2)CC1

>  <score_type>  (41) 
oracle

>  <origin>  (41) 
autodockgpu

>  <m_score__min__energy>  (41) 
-8.9700000000000006

>  <m_primary>  (41) 
energy

>  <rmsd>  (41) 
9.967600670715647

>  <m_score__min__rmsd>  (41) 
9.967600670715647

>  <meeko>  (41) 
{"free_energy": -8.36, "intermolecular_energy": -9.85, "internal_energy": -1.3, "cluster_size": 41, "cluster_id": 3, "rank_in_cluster": 34}

>  <energy>  (41) 
-8.35

>  <cluster_rmsd>  (41) 
0.5

>  <cluster>  (41) 
3

$$$$

     RDKit          3D

 56 60  0  0  0  0  0  0  0  0999 V2000
  139.4270   70.9410  219.9980 N   0  0  0  0  0  0  0  0  0  0  0  0
  139.7310   71.0740  221.2450 C   0  0  0  0  0  0  0  0  0  0  0  0
  139.4850   70.1010  222.1540 N   0  0  0  0  0  0  0  0  0  0  0  0
  139.8050   70.2420  223.4630 C   0  0  0  0  0  0  0  0  0  0  0  0
  139.5420   69.2340  224.3320 N   0  0  0  0  0  0  0  0  0  0  0  0
  139.8530   69.3370  225.6540 C   0  0  0  0  0  0  0  0  0  0  0  0
  139.5720   68.2840  226.5290 C   0  0  0  0  0  0  0  0  0  0  0  0
  139.8950   68.3930  227.8840 C   0  0  0  0  0  0  0  0  0  0  0  0
  140.4910   69.5390  228.3740 C   0  0  0  0  0  0  0  0  0  0  0  0
  140.7770   70.5990  227.5120 C   0  0  0  0  0  0  0  0  0  0  0  0
  140.4540   70.4840  226.1610 C   0  0  0  0  0  0  0  0  0  0  0  0
  140.7130   71.4960  225.2620 C   0  0  0  0  0  0  0  0  0  0  0  0
  140.4080   71.4130  223.9250 C   0  0  0  0  0  0  0  0  0  0  0  0
  140.6670   72.4180  223.0160 C   0  0  0  0  0  0  0  0  0  0  0  0
  140.3250   72.2420  221.6710 C   0  0  0  0  0  0  0  0  0  0  0  0
  140.6530   73.3510  220.7870 C   0  0  0  0  0  0  0  0  0  0  0  0
  141.4530   73.0620  219.8290 O   0  0  0  0  0  0  0  0  0  0  0  0
  140.1590   74.6640  220.9290 N   0  0  0  0  0  0  0  0  0  0  0  0
  139.2490   75.0940  221.9700 C   0  0  0  0  0  0  0  0  0  0  0  0
  138.2240   76.0910  221.3990 C   0  0  0  0  0  0  0  0  0  0  0  0
  138.9300   77.2270  220.9630 N   0  0  0  0  0  0  0  0  0  0  0  0
  138.8030   78.4410  221.6610 C   0  0  0  0  0  0  0  0  0  0  0  0
  139.2820   78.4300  223.0890 C   0  0  0  0  0  0  0  0  0  0  0  0
  140.5740   79.1950  223.1760 C   0  0  0  0  0  0  0  0  0  0  0  0
  140.4950   80.5400  223.5260 C   0  0  0  0  0  0  0  0  0  0  0  0
  141.6340   81.3080  223.6290 C   0  0  0  0  0  0  0  0  0  0  0  0
  142.8520   80.7270  223.3830 C   0  0  0  0  0  0  0  0  0  0  0  0
  142.9500   79.3900  223.0340 C   0  0  0  0  0  0  0  0  0  0  0  0
  141.7930   78.6100  222.9290 C   0  0  0  0  0  0  0  0  0  0  0  0
  140.2070   77.0700  220.3840 C   0  0  0  0  0  0  0  0  0  0  0  0
  140.5820   75.6720  219.9770 C   0  0  0  0  0  0  0  0  0  0  0  0
  139.9630   71.5300  219.3130 H   0  0  0  0  0  0  0  0  0  0  0  0
  139.0270   69.1960  221.8330 H   0  0  0  0  0  0  0  0  0  0  0  0
  139.0957   67.3677  226.1502 H   0  0  0  0  0  0  0  0  0  0  0  0
  139.6729   67.5593  228.5664 H   0  0  0  0  0  0  0  0  0  0  0  0
  140.7400   69.6161  229.4427 H   0  0  0  0  0  0  0  0  0  0  0  0
  141.2518   71.5145  227.8945 H   0  0  0  0  0  0  0  0  0  0  0  0
  141.1876   72.4162  225.6335 H   0  0  0  0  0  0  0  0  0  0  0  0
  141.1405   73.3539  223.3475 H   0  0  0  0  0  0  0  0  0  0  0  0
  138.7190   74.2189  222.3741 H   0  0  0  0  0  0  0  0  0  0  0  0
  139.8230   75.5861  222.7689 H   0  0  0  0  0  0  0  0  0  0  0  0
  137.6887   75.6350  220.5531 H   0  0  0  0  0  0  0  0  0  0  0  0
  137.4859   76.3670  222.1665 H   0  0  0  0  0  0  0  0  0  0  0  0
  139.3792   79.2044  221.1177 H   0  0  0  0  0  0  0  0  0  0  0  0
  137.7233   78.6456  221.7099 H   0  0  0  0  0  0  0  0  0  0  0  0
  138.5282   78.9039  223.7349 H   0  0  0  0  0  0  0  0  0  0  0  0
  139.4400   77.3932  223.4209 H   0  0  0  0  0  0  0  0  0  0  0  0
  139.5127   80.9944  223.7224 H   0  0  0  0  0  0  0  0  0  0  0  0
  141.5678   82.3709  223.9043 H   0  0  0  0  0  0  0  0  0  0  0  0
  143.7664   81.3330  223.4642 H   0  0  0  0  0  0  0  0  0  0  0  0
  143.9358   78.9422  222.8397 H   0  0  0  0  0  0  0  0  0  0  0  0
  141.8579   77.5470  222.6536 H   0  0  0  0  0  0  0  0  0  0  0  0
  140.2490   77.7040  219.4861 H   0  0  0  0  0  0  0  0  0  0  0  0
  140.9239   77.3511  221.1695 H   0  0  0  0  0  0  0  0  0  0  0  0
  140.1134   75.4536  219.0061 H   0  0  0  0  0  0  0  0  0  0  0  0
  141.6801   75.6313  219.9262 H   0  0  0  0  0  0  0  0  0  0  0  0
  1  2  2  3
  2  3  1  0
  3  4  1  0
  4  5  2  0
  5  6  1  0
  6  7  2  0
  7  8  1  0
  8  9  2  0
  9 10  1  0
 10 11  2  0
 11 12  1  0
 12 13  2  0
 13 14  1  0
 14 15  2  0
 15 16  1  0
 16 17  2  0
 16 18  1  0
 18 19  1  0
 19 20  1  0
 20 21  1  0
 21 22  1  0
 22 23  1  0
 23 24  1  0
 24 25  2  0
 25 26  1  0
 26 27  2  0
 27 28  1  0
 28 29  2  0
 21 30  1  0
 30 31  1  0
 15  2  1  0
 31 18  1  0
 13  4  1  0
 29 24  1  0
 11  6  1  0
  1 32  1  0
  3 33  1  0
  7 34  1  0
  8 35  1  0
  9 36  1  0
 10 37  1  0
 12 38  1  0
 14 39  1  0
 19 40  1  0
 19 41  1  0
 20 42  1  0
 20 43  1  0
 22 44  1  0
 22 45  1  0
 23 46  1  0
 23 47  1  0
 25 48  1  0
 26 49  1  0
 27 50  1  0
 28 51  1  0
 29 52  1  0
 30 53  1  0
 30 54  1  0
 31 55  1  0
 31 56  1  0
M  END
>  <smiles>  (42) 
N=c1[nH]c2nc3ccccc3cc2cc1C(=O)N1CCN(CCc2ccccc2)CC1

>  <score_type>  (42) 
oracle

>  <origin>  (42) 
autodockgpu

>  <m_score__min__energy>  (42) 
-8.9700000000000006

>  <m_primary>  (42) 
energy

>  <rmsd>  (42) 
9.925172598150793

>  <m_score__min__rmsd>  (42) 
9.925172598150793

>  <meeko>  (42) 
{"free_energy": -8.39, "intermolecular_energy": -9.88, "internal_energy": -1.29, "cluster_size": 41, "cluster_id": 3, "rank_in_cluster": 28}

>  <energy>  (42) 
-8.35

>  <cluster_rmsd>  (42) 
0.54

>  <cluster>  (42) 
3

$$$$

     RDKit          3D

 56 60  0  0  0  0  0  0  0  0999 V2000
  139.4210   70.9490  219.9940 N   0  0  0  0  0  0  0  0  0  0  0  0
  139.7340   71.0780  221.2390 C   0  0  0  0  0  0  0  0  0  0  0  0
  139.4900   70.1040  222.1490 N   0  0  0  0  0  0  0  0  0  0  0  0
  139.8190   70.2410  223.4560 C   0  0  0  0  0  0  0  0  0  0  0  0
  139.5580   69.2330  224.3240 N   0  0  0  0  0  0  0  0  0  0  0  0
  139.8780   69.3330  225.6440 C   0  0  0  0  0  0  0  0  0  0  0  0
  139.5990   68.2780  226.5180 C   0  0  0  0  0  0  0  0  0  0  0  0
  139.9310   68.3830  227.8720 C   0  0  0  0  0  0  0  0  0  0  0  0
  140.5350   69.5270  228.3600 C   0  0  0  0  0  0  0  0  0  0  0  0
  140.8200   70.5870  227.4980 C   0  0  0  0  0  0  0  0  0  0  0  0
  140.4860   70.4760  226.1500 C   0  0  0  0  0  0  0  0  0  0  0  0
  140.7440   71.4890  225.2510 C   0  0  0  0  0  0  0  0  0  0  0  0
  140.4290   71.4100  223.9150 C   0  0  0  0  0  0  0  0  0  0  0  0
  140.6860   72.4150  223.0070 C   0  0  0  0  0  0  0  0  0  0  0  0
  140.3350   72.2430  221.6640 C   0  0  0  0  0  0  0  0  0  0  0  0
  140.6610   73.3530  220.7800 C   0  0  0  0  0  0  0  0  0  0  0  0
  141.4550   73.0630  219.8170 O   0  0  0  0  0  0  0  0  0  0  0  0
  140.1710   74.6670  220.9260 N   0  0  0  0  0  0  0  0  0  0  0  0
  139.2680   75.0980  221.9730 C   0  0  0  0  0  0  0  0  0  0  0  0
  138.2420   76.0980  221.4090 C   0  0  0  0  0  0  0  0  0  0  0  0
  138.9490   77.2330  220.9700 N   0  0  0  0  0  0  0  0  0  0  0  0
  138.8290   78.4470  221.6710 C   0  0  0  0  0  0  0  0  0  0  0  0
  139.3130   78.4310  223.0980 C   0  0  0  0  0  0  0  0  0  0  0  0
  140.5440   79.2890  223.2050 C   0  0  0  0  0  0  0  0  0  0  0  0
  141.7680   78.6790  222.9510 C   0  0  0  0  0  0  0  0  0  0  0  0
  142.9410   79.3980  223.0270 C   0  0  0  0  0  0  0  0  0  0  0  0
  142.8850   80.7270  223.3560 C   0  0  0  0  0  0  0  0  0  0  0  0
  141.6750   81.3510  223.6120 C   0  0  0  0  0  0  0  0  0  0  0  0
  140.4830   80.6220  223.5360 C   0  0  0  0  0  0  0  0  0  0  0  0
  140.2230   77.0740  220.3840 C   0  0  0  0  0  0  0  0  0  0  0  0
  140.5920   75.6750  219.9730 C   0  0  0  0  0  0  0  0  0  0  0  0
  139.9550   71.5350  219.3060 H   0  0  0  0  0  0  0  0  0  0  0  0
  139.0260   69.2010  221.8290 H   0  0  0  0  0  0  0  0  0  0  0  0
  139.1176   67.3641  226.1398 H   0  0  0  0  0  0  0  0  0  0  0  0
  139.7100   67.5490  228.5544 H   0  0  0  0  0  0  0  0  0  0  0  0
  140.7908   69.6017  229.4272 H   0  0  0  0  0  0  0  0  0  0  0  0
  141.3027   71.4993  227.8784 H   0  0  0  0  0  0  0  0  0  0  0  0
  141.2258   72.4060  225.6210 H   0  0  0  0  0  0  0  0  0  0  0  0
  141.1652   73.3484  223.3374 H   0  0  0  0  0  0  0  0  0  0  0  0
  138.7384   74.2237  222.3793 H   0  0  0  0  0  0  0  0  0  0  0  0
  139.8478   75.5879  222.7691 H   0  0  0  0  0  0  0  0  0  0  0  0
  137.7007   75.6442  220.5657 H   0  0  0  0  0  0  0  0  0  0  0  0
  137.5088   76.3749  222.1808 H   0  0  0  0  0  0  0  0  0  0  0  0
  139.4065   79.2092  221.1273 H   0  0  0  0  0  0  0  0  0  0  0  0
  137.7503   78.6561  221.7238 H   0  0  0  0  0  0  0  0  0  0  0  0
  138.5280   78.8277  223.7586 H   0  0  0  0  0  0  0  0  0  0  0  0
  139.5501   77.4000  223.3994 H   0  0  0  0  0  0  0  0  0  0  0  0
  141.7999   77.6117  222.6868 H   0  0  0  0  0  0  0  0  0  0  0  0
  143.9075   78.9126  222.8266 H   0  0  0  0  0  0  0  0  0  0  0  0
  143.8168   81.3083  223.4179 H   0  0  0  0  0  0  0  0  0  0  0  0
  141.6512   82.4189  223.8749 H   0  0  0  0  0  0  0  0  0  0  0  0
  139.5159   81.1061  223.7372 H   0  0  0  0  0  0  0  0  0  0  0  0
  140.2620   77.7092  219.4868 H   0  0  0  0  0  0  0  0  0  0  0  0
  140.9449   77.3525  221.1659 H   0  0  0  0  0  0  0  0  0  0  0  0
  140.1177   75.4592  219.0043 H   0  0  0  0  0  0  0  0  0  0  0  0
  141.6897   75.6312  219.9163 H   0  0  0  0  0  0  0  0  0  0  0  0
  1  2  2  3
  2  3  1  0
  3  4  1  0
  4  5  2  0
  5  6  1  0
  6  7  2  0
  7  8  1  0
  8  9  2  0
  9 10  1  0
 10 11  2  0
 11 12  1  0
 12 13  2  0
 13 14  1  0
 14 15  2  0
 15 16  1  0
 16 17  2  0
 16 18  1  0
 18 19  1  0
 19 20  1  0
 20 21  1  0
 21 22  1  0
 22 23  1  0
 23 24  1  0
 24 25  2  0
 25 26  1  0
 26 27  2  0
 27 28  1  0
 28 29  2  0
 21 30  1  0
 30 31  1  0
 15  2  1  0
 31 18  1  0
 13  4  1  0
 29 24  1  0
 11  6  1  0
  1 32  1  0
  3 33  1  0
  7 34  1  0
  8 35  1  0
  9 36  1  0
 10 37  1  0
 12 38  1  0
 14 39  1  0
 19 40  1  0
 19 41  1  0
 20 42  1  0
 20 43  1  0
 22 44  1  0
 22 45  1  0
 23 46  1  0
 23 47  1  0
 25 48  1  0
 26 49  1  0
 27 50  1  0
 28 51  1  0
 29 52  1  0
 30 53  1  0
 30 54  1  0
 31 55  1  0
 31 56  1  0
M  END
>  <smiles>  (43) 
N=c1[nH]c2nc3ccccc3cc2cc1C(=O)N1CCN(CCc2ccccc2)CC1

>  <score_type>  (43) 
oracle

>  <origin>  (43) 
autodockgpu

>  <m_score__min__energy>  (43) 
-8.9700000000000006

>  <m_primary>  (43) 
energy

>  <rmsd>  (43) 
9.897567155736976

>  <m_score__min__rmsd>  (43) 
9.897567155736976

>  <meeko>  (43) 
{"free_energy": -8.4, "intermolecular_energy": -9.89, "internal_energy": -1.28, "cluster_size": 41, "cluster_id": 3, "rank_in_cluster": 18}

>  <energy>  (43) 
-8.33

>  <cluster_rmsd>  (43) 
0.57

>  <cluster>  (43) 
3

$$$$

     RDKit          3D

 56 60  0  0  0  0  0  0  0  0999 V2000
  141.1760   73.1120  221.2680 N   0  0  0  0  0  0  0  0  0  0  0  0
  140.6060   74.2150  221.6190 C   0  0  0  0  0  0  0  0  0  0  0  0
  141.3010   75.3660  221.7820 N   0  0  0  0  0  0  0  0  0  0  0  0
  140.7010   76.5230  222.1510 C   0  0  0  0  0  0  0  0  0  0  0  0
  141.4420   77.6490  222.2940 N   0  0  0  0  0  0  0  0  0  0  0  0
  140.8740   78.8310  222.6600 C   0  0  0  0  0  0  0  0  0  0  0  0
  141.6600   79.9790  222.8000 C   0  0  0  0  0  0  0  0  0  0  0  0
  141.0720   81.1900  223.1730 C   0  0  0  0  0  0  0  0  0  0  0  0
  139.7120   81.2690  223.4090 C   0  0  0  0  0  0  0  0  0  0  0  0
  138.9150   80.1310  223.2740 C   0  0  0  0  0  0  0  0  0  0  0  0
  139.5070   78.9260  222.9000 C   0  0  0  0  0  0  0  0  0  0  0  0
  138.7710   77.7700  222.7490 C   0  0  0  0  0  0  0  0  0  0  0  0
  139.3240   76.5670  222.3810 C   0  0  0  0  0  0  0  0  0  0  0  0
  138.5970   75.4060  222.2220 C   0  0  0  0  0  0  0  0  0  0  0  0
  139.2460   74.2270  221.8390 C   0  0  0  0  0  0  0  0  0  0  0  0
  138.3910   73.0590  221.6830 C   0  0  0  0  0  0  0  0  0  0  0  0
  137.5090   73.1540  220.7590 O   0  0  0  0  0  0  0  0  0  0  0  0
  138.4820   71.8870  222.4610 N   0  0  0  0  0  0  0  0  0  0  0  0
  139.4440   71.6750  223.5230 C   0  0  0  0  0  0  0  0  0  0  0  0
  139.9450   70.2200  223.5010 C   0  0  0  0  0  0  0  0  0  0  0  0
  138.8430   69.3840  223.7590 N   0  0  0  0  0  0  0  0  0  0  0  0
  138.7610   68.6900  224.9800 C   0  0  0  0  0  0  0  0  0  0  0  0
  140.0540   68.5460  225.7400 C   0  0  0  0  0  0  0  0  0  0  0  0
  140.2390   69.7500  226.6210 C   0  0  0  0  0  0  0  0  0  0  0  0
  139.5050   69.7940  227.8030 C   0  0  0  0  0  0  0  0  0  0  0  0
  139.6220   70.8620  228.6640 C   0  0  0  0  0  0  0  0  0  0  0  0
  140.4750   71.8860  228.3420 C   0  0  0  0  0  0  0  0  0  0  0  0
  141.2140   71.8600  227.1710 C   0  0  0  0  0  0  0  0  0  0  0  0
  141.0960   70.7750  226.2950 C   0  0  0  0  0  0  0  0  0  0  0  0
  137.5730   69.7340  223.2530 C   0  0  0  0  0  0  0  0  0  0  0  0
  137.5530   70.8050  222.1980 C   0  0  0  0  0  0  0  0  0  0  0  0
  140.6400   72.4850  220.6190 H   0  0  0  0  0  0  0  0  0  0  0  0
  142.3520   75.3650  221.6140 H   0  0  0  0  0  0  0  0  0  0  0  0
  142.7433   79.9284  222.6161 H   0  0  0  0  0  0  0  0  0  0  0  0
  141.6968   82.0890  223.2799 H   0  0  0  0  0  0  0  0  0  0  0  0
  139.2587   82.2272  223.7027 H   0  0  0  0  0  0  0  0  0  0  0  0
  137.8323   80.1847  223.4606 H   0  0  0  0  0  0  0  0  0  0  0  0
  137.6872   77.8128  222.9322 H   0  0  0  0  0  0  0  0  0  0  0  0
  137.5108   75.4068  222.3956 H   0  0  0  0  0  0  0  0  0  0  0  0
  140.2968   72.3555  223.3824 H   0  0  0  0  0  0  0  0  0  0  0  0
  138.9611   71.8746  224.4910 H   0  0  0  0  0  0  0  0  0  0  0  0
  140.3704   69.9852  222.5142 H   0  0  0  0  0  0  0  0  0  0  0  0
  140.7277   70.0706  224.2593 H   0  0  0  0  0  0  0  0  0  0  0  0
  138.0481   69.2246  225.6249 H   0  0  0  0  0  0  0  0  0  0  0  0
  138.4503   67.6668  224.7220 H   0  0  0  0  0  0  0  0  0  0  0  0
  140.0189   67.6375  226.3592 H   0  0  0  0  0  0  0  0  0  0  0  0
  140.8941   68.4687  225.0341 H   0  0  0  0  0  0  0  0  0  0  0  0
  138.8242   68.9666  228.0518 H   0  0  0  0  0  0  0  0  0  0  0  0
  139.0396   70.8933  229.5966 H   0  0  0  0  0  0  0  0  0  0  0  0
  140.5740   72.7425  229.0251 H   0  0  0  0  0  0  0  0  0  0  0  0
  141.8929   72.6912  226.9298 H   0  0  0  0  0  0  0  0  0  0  0  0
  141.6783   70.7426  225.3623 H   0  0  0  0  0  0  0  0  0  0  0  0
  137.1222   68.8284  222.8210 H   0  0  0  0  0  0  0  0  0  0  0  0
  137.0194   70.1508  224.1073 H   0  0  0  0  0  0  0  0  0  0  0  0
  137.8136   70.3482  221.2319 H   0  0  0  0  0  0  0  0  0  0  0  0
  136.5418   71.2380  222.1926 H   0  0  0  0  0  0  0  0  0  0  0  0
  1  2  2  3
  2  3  1  0
  3  4  1  0
  4  5  2  0
  5  6  1  0
  6  7  2  0
  7  8  1  0
  8  9  2  0
  9 10  1  0
 10 11  2  0
 11 12  1  0
 12 13  2  0
 13 14  1  0
 14 15  2  0
 15 16  1  0
 16 17  2  0
 16 18  1  0
 18 19  1  0
 19 20  1  0
 20 21  1  0
 21 22  1  0
 22 23  1  0
 23 24  1  0
 24 25  2  0
 25 26  1  0
 26 27  2  0
 27 28  1  0
 28 29  2  0
 21 30  1  0
 30 31  1  0
 15  2  1  0
 31 18  1  0
 13  4  1  0
 29 24  1  0
 11  6  1  0
  1 32  1  0
  3 33  1  0
  7 34  1  0
  8 35  1  0
  9 36  1  0
 10 37  1  0
 12 38  1  0
 14 39  1  0
 19 40  1  0
 19 41  1  0
 20 42  1  0
 20 43  1  0
 22 44  1  0
 22 45  1  0
 23 46  1  0
 23 47  1  0
 25 48  1  0
 26 49  1  0
 27 50  1  0
 28 51  1  0
 29 52  1  0
 30 53  1  0
 30 54  1  0
 31 55  1  0
 31 56  1  0
M  END
>  <smiles>  (44) 
N=c1[nH]c2nc3ccccc3cc2cc1C(=O)N1CCN(CCc2ccccc2)CC1

>  <score_type>  (44) 
oracle

>  <origin>  (44) 
autodockgpu

>  <m_score__min__energy>  (44) 
-8.9700000000000006

>  <m_primary>  (44) 
energy

>  <rmsd>  (44) 
3.7425603855488383

>  <m_score__min__rmsd>  (44) 
3.7425603855488383

>  <meeko>  (44) 
{"free_energy": -8.97, "intermolecular_energy": -10.46, "internal_energy": -0.69, "cluster_size": 4, "cluster_id": 1, "rank_in_cluster": 1}

>  <energy>  (44) 
-8.3

>  <cluster_rmsd>  (44) 
0.57

>  <cluster>  (44) 
3

$$$$

     RDKit          3D

 56 60  0  0  0  0  0  0  0  0999 V2000
  138.7710   71.1290  220.1980 N   0  0  0  0  0  0  0  0  0  0  0  0
  139.2310   71.2110  221.3990 C   0  0  0  0  0  0  0  0  0  0  0  0
  139.0850   70.2080  222.2980 N   0  0  0  0  0  0  0  0  0  0  0  0
  139.5690   70.2970  223.5600 C   0  0  0  0  0  0  0  0  0  0  0  0
  139.4010   69.2600  224.4190 N   0  0  0  0  0  0  0  0  0  0  0  0
  139.8760   69.3110  225.6940 C   0  0  0  0  0  0  0  0  0  0  0  0
  139.6910   68.2290  226.5590 C   0  0  0  0  0  0  0  0  0  0  0  0
  140.1830   68.2840  227.8660 C   0  0  0  0  0  0  0  0  0  0  0  0
  140.8550   69.4050  228.3180 C   0  0  0  0  0  0  0  0  0  0  0  0
  141.0470   70.4930  227.4640 C   0  0  0  0  0  0  0  0  0  0  0  0
  140.5550   70.4310  226.1620 C   0  0  0  0  0  0  0  0  0  0  0  0
  140.7160   71.4730  225.2740 C   0  0  0  0  0  0  0  0  0  0  0  0
  140.2440   71.4430  223.9830 C   0  0  0  0  0  0  0  0  0  0  0  0
  140.4030   72.4780  223.0850 C   0  0  0  0  0  0  0  0  0  0  0  0
  139.8920   72.3560  221.7890 C   0  0  0  0  0  0  0  0  0  0  0  0
  140.1250   73.4940  220.9100 C   0  0  0  0  0  0  0  0  0  0  0  0
  140.8050   73.2340  219.8570 O   0  0  0  0  0  0  0  0  0  0  0  0
  139.6600   74.8030  221.1520 N   0  0  0  0  0  0  0  0  0  0  0  0
  138.8800   75.2010  222.3060 C   0  0  0  0  0  0  0  0  0  0  0  0
  137.8030   76.2200  221.8910 C   0  0  0  0  0  0  0  0  0  0  0  0
  138.4630   77.3680  221.4140 N   0  0  0  0  0  0  0  0  0  0  0  0
  138.4270   78.5580  222.1620 C   0  0  0  0  0  0  0  0  0  0  0  0
  139.2310   79.7060  221.6080 C   0  0  0  0  0  0  0  0  0  0  0  0
  140.4180   79.9460  222.5000 C   0  0  0  0  0  0  0  0  0  0  0  0
  140.8150   78.8980  223.3270 C   0  0  0  0  0  0  0  0  0  0  0  0
  141.8950   79.0390  224.1700 C   0  0  0  0  0  0  0  0  0  0  0  0
  142.5760   80.2290  224.1850 C   0  0  0  0  0  0  0  0  0  0  0  0
  142.1960   81.2820  223.3690 C   0  0  0  0  0  0  0  0  0  0  0  0
  141.0990   81.1400  222.5120 C   0  0  0  0  0  0  0  0  0  0  0  0
  139.6630   77.2260  220.6860 C   0  0  0  0  0  0  0  0  0  0  0  0
  139.9780   75.8410  220.1920 C   0  0  0  0  0  0  0  0  0  0  0  0
  139.2310   71.7290  219.4690 H   0  0  0  0  0  0  0  0  0  0  0  0
  138.5760   69.3210  222.0050 H   0  0  0  0  0  0  0  0  0  0  0  0
  139.1572   67.3325  226.2106 H   0  0  0  0  0  0  0  0  0  0  0  0
  140.0344   67.4282  228.5410 H   0  0  0  0  0  0  0  0  0  0  0  0
  141.2377   69.4395  229.3487 H   0  0  0  0  0  0  0  0  0  0  0  0
  141.5805   71.3886  227.8152 H   0  0  0  0  0  0  0  0  0  0  0  0
  141.2485   72.3730  225.6152 H   0  0  0  0  0  0  0  0  0  0  0  0
  140.9295   73.3954  223.3871 H   0  0  0  0  0  0  0  0  0  0  0  0
  138.3942   74.3146  222.7400 H   0  0  0  0  0  0  0  0  0  0  0  0
  139.5465   75.6640  223.0486 H   0  0  0  0  0  0  0  0  0  0  0  0
  137.1702   75.7947  221.0981 H   0  0  0  0  0  0  0  0  0  0  0  0
  137.1602   76.4723  222.7473 H   0  0  0  0  0  0  0  0  0  0  0  0
  137.3781   78.8823  222.2297 H   0  0  0  0  0  0  0  0  0  0  0  0
  138.8839   78.3145  223.1326 H   0  0  0  0  0  0  0  0  0  0  0  0
  139.5759   79.4591  220.5931 H   0  0  0  0  0  0  0  0  0  0  0  0
  138.6075   80.6113  221.5664 H   0  0  0  0  0  0  0  0  0  0  0  0
  140.2605   77.9482  223.3067 H   0  0  0  0  0  0  0  0  0  0  0  0
  142.2066   78.2093  224.8215 H   0  0  0  0  0  0  0  0  0  0  0  0
  143.4389   80.3496  224.8565 H   0  0  0  0  0  0  0  0  0  0  0  0
  142.7559   82.2285  223.3947 H   0  0  0  0  0  0  0  0  0  0  0  0
  140.7872   81.9690  221.8596 H   0  0  0  0  0  0  0  0  0  0  0  0
  139.6055   77.8899  219.8108 H   0  0  0  0  0  0  0  0  0  0  0  0
  140.4681   77.4777  221.3920 H   0  0  0  0  0  0  0  0  0  0  0  0
  139.3989   75.6575  219.2749 H   0  0  0  0  0  0  0  0  0  0  0  0
  141.0626   75.7980  220.0135 H   0  0  0  0  0  0  0  0  0  0  0  0
  1  2  2  3
  2  3  1  0
  3  4  1  0
  4  5  2  0
  5  6  1  0
  6  7  2  0
  7  8  1  0
  8  9  2  0
  9 10  1  0
 10 11  2  0
 11 12  1  0
 12 13  2  0
 13 14  1  0
 14 15  2  0
 15 16  1  0
 16 17  2  0
 16 18  1  0
 18 19  1  0
 19 20  1  0
 20 21  1  0
 21 22  1  0
 22 23  1  0
 23 24  1  0
 24 25  2  0
 25 26  1  0
 26 27  2  0
 27 28  1  0
 28 29  2  0
 21 30  1  0
 30 31  1  0
 15  2  1  0
 31 18  1  0
 13  4  1  0
 29 24  1  0
 11  6  1  0
  1 32  1  0
  3 33  1  0
  7 34  1  0
  8 35  1  0
  9 36  1  0
 10 37  1  0
 12 38  1  0
 14 39  1  0
 19 40  1  0
 19 41  1  0
 20 42  1  0
 20 43  1  0
 22 44  1  0
 22 45  1  0
 23 46  1  0
 23 47  1  0
 25 48  1  0
 26 49  1  0
 27 50  1  0
 28 51  1  0
 29 52  1  0
 30 53  1  0
 30 54  1  0
 31 55  1  0
 31 56  1  0
M  END
>  <smiles>  (45) 
N=c1[nH]c2nc3ccccc3cc2cc1C(=O)N1CCN(CCc2ccccc2)CC1

>  <score_type>  (45) 
oracle

>  <origin>  (45) 
autodockgpu

>  <m_score__min__energy>  (45) 
-8.9700000000000006

>  <m_primary>  (45) 
energy

>  <rmsd>  (45) 
9.978543918644434

>  <m_score__min__rmsd>  (45) 
9.978543918644434

>  <meeko>  (45) 
{"free_energy": -8.2, "intermolecular_energy": -9.69, "internal_energy": -1.23, "cluster_size": 41, "cluster_id": 3, "rank_in_cluster": 39}

>  <energy>  (45) 
-8.2

>  <cluster_rmsd>  (45) 
0.6

>  <cluster>  (45) 
3

$$$$

     RDKit          3D

 56 60  0  0  0  0  0  0  0  0999 V2000
  139.1990   74.8320  222.3620 N   0  0  0  0  0  0  0  0  0  0  0  0
  139.9270   73.9660  221.7430 C   0  0  0  0  0  0  0  0  0  0  0  0
  141.0140   74.3240  221.0180 N   0  0  0  0  0  0  0  0  0  0  0  0
  141.7780   73.4130  220.3680 C   0  0  0  0  0  0  0  0  0  0  0  0
  142.8590   73.8250  219.6600 N   0  0  0  0  0  0  0  0  0  0  0  0
  143.6520   72.9380  218.9970 C   0  0  0  0  0  0  0  0  0  0  0  0
  144.7620   73.3880  218.2760 C   0  0  0  0  0  0  0  0  0  0  0  0
  145.5750   72.4750  217.5990 C   0  0  0  0  0  0  0  0  0  0  0  0
  145.2920   71.1220  217.6330 C   0  0  0  0  0  0  0  0  0  0  0  0
  144.1870   70.6590  218.3500 C   0  0  0  0  0  0  0  0  0  0  0  0
  143.3810   71.5750  219.0230 C   0  0  0  0  0  0  0  0  0  0  0  0
  142.2780   71.1770  219.7480 C   0  0  0  0  0  0  0  0  0  0  0  0
  141.4640   72.0540  220.4240 C   0  0  0  0  0  0  0  0  0  0  0  0
  140.3610   71.6660  221.1560 C   0  0  0  0  0  0  0  0  0  0  0  0
  139.5930   72.6310  221.8170 C   0  0  0  0  0  0  0  0  0  0  0  0
  138.4590   72.1220  222.5750 C   0  0  0  0  0  0  0  0  0  0  0  0
  137.3610   72.7600  222.4020 O   0  0  0  0  0  0  0  0  0  0  0  0
  138.5090   71.0170  223.4500 N   0  0  0  0  0  0  0  0  0  0  0  0
  139.6940   70.2270  223.7130 C   0  0  0  0  0  0  0  0  0  0  0  0
  139.3210   68.7380  223.8360 C   0  0  0  0  0  0  0  0  0  0  0  0
  138.4690   68.6020  224.9480 N   0  0  0  0  0  0  0  0  0  0  0  0
  138.9300   67.9500  226.1070 C   0  0  0  0  0  0  0  0  0  0  0  0
  140.3720   68.1950  226.4680 C   0  0  0  0  0  0  0  0  0  0  0  0
  140.5440   69.6430  226.8350 C   0  0  0  0  0  0  0  0  0  0  0  0
  139.8410   70.1070  227.9430 C   0  0  0  0  0  0  0  0  0  0  0  0
  139.9490   71.4200  228.3450 C   0  0  0  0  0  0  0  0  0  0  0  0
  140.7600   72.2680  227.6360 C   0  0  0  0  0  0  0  0  0  0  0  0
  141.4680   71.8240  226.5310 C   0  0  0  0  0  0  0  0  0  0  0  0
  141.3590   70.4900  226.1220 C   0  0  0  0  0  0  0  0  0  0  0  0
  137.5390   69.6220  225.2390 C   0  0  0  0  0  0  0  0  0  0  0  0
  137.3000   70.6300  224.1490 C   0  0  0  0  0  0  0  0  0  0  0  0
  138.4420   74.4580  222.9860 H   0  0  0  0  0  0  0  0  0  0  0  0
  141.2790   75.3530  220.9560 H   0  0  0  0  0  0  0  0  0  0  0  0
  144.9958   74.4623  218.2415 H   0  0  0  0  0  0  0  0  0  0  0  0
  146.4474   72.8357  217.0343 H   0  0  0  0  0  0  0  0  0  0  0  0
  145.9368   70.4110  217.0957 H   0  0  0  0  0  0  0  0  0  0  0  0
  143.9555   69.5841  218.3832 H   0  0  0  0  0  0  0  0  0  0  0  0
  142.0375   70.1043  219.7874 H   0  0  0  0  0  0  0  0  0  0  0  0
  140.0864   70.6027  221.2198 H   0  0  0  0  0  0  0  0  0  0  0  0
  140.4081   70.3561  222.8863 H   0  0  0  0  0  0  0  0  0  0  0  0
  140.1487   70.5633  224.6565 H   0  0  0  0  0  0  0  0  0  0  0  0
  138.8036   68.4046  222.9243 H   0  0  0  0  0  0  0  0  0  0  0  0
  140.2242   68.1234  223.9645 H   0  0  0  0  0  0  0  0  0  0  0  0
  138.3093   68.2840  226.9515 H   0  0  0  0  0  0  0  0  0  0  0  0
  138.8543   66.8735  225.8940 H   0  0  0  0  0  0  0  0  0  0  0  0
  140.6511   67.5619  227.3231 H   0  0  0  0  0  0  0  0  0  0  0  0
  141.0171   67.9488  225.6117 H   0  0  0  0  0  0  0  0  0  0  0  0
  139.1923   69.4179  228.5036 H   0  0  0  0  0  0  0  0  0  0  0  0
  139.3928   71.7828  229.2219 H   0  0  0  0  0  0  0  0  0  0  0  0
  140.8501   73.3185  227.9497 H   0  0  0  0  0  0  0  0  0  0  0  0
  142.1150   72.5191  225.9758 H   0  0  0  0  0  0  0  0  0  0  0  0
  141.9154   70.1258  225.2458 H   0  0  0  0  0  0  0  0  0  0  0  0
  136.5763   69.1429  225.4707 H   0  0  0  0  0  0  0  0  0  0  0  0
  137.9741   70.1888  226.0753 H   0  0  0  0  0  0  0  0  0  0  0  0
  136.5992   70.1965  223.4204 H   0  0  0  0  0  0  0  0  0  0  0  0
  136.8958   71.5352  224.6257 H   0  0  0  0  0  0  0  0  0  0  0  0
  1  2  2  3
  2  3  1  0
  3  4  1  0
  4  5  2  0
  5  6  1  0
  6  7  2  0
  7  8  1  0
  8  9  2  0
  9 10  1  0
 10 11  2  0
 11 12  1  0
 12 13  2  0
 13 14  1  0
 14 15  2  0
 15 16  1  0
 16 17  2  0
 16 18  1  0
 18 19  1  0
 19 20  1  0
 20 21  1  0
 21 22  1  0
 22 23  1  0
 23 24  1  0
 24 25  2  0
 25 26  1  0
 26 27  2  0
 27 28  1  0
 28 29  2  0
 21 30  1  0
 30 31  1  0
 15  2  1  0
 31 18  1  0
 13  4  1  0
 29 24  1  0
 11  6  1  0
  1 32  1  0
  3 33  1  0
  7 34  1  0
  8 35  1  0
  9 36  1  0
 10 37  1  0
 12 38  1  0
 14 39  1  0
 19 40  1  0
 19 41  1  0
 20 42  1  0
 20 43  1  0
 22 44  1  0
 22 45  1  0
 23 46  1  0
 23 47  1  0
 25 48  1  0
 26 49  1  0
 27 50  1  0
 28 51  1  0
 29 52  1  0
 30 53  1  0
 30 54  1  0
 31 55  1  0
 31 56  1  0
M  END
>  <smiles>  (46) 
N=c1[nH]c2nc3ccccc3cc2cc1C(=O)N1CCN(CCc2ccccc2)CC1

>  <score_type>  (46) 
oracle

>  <origin>  (46) 
autodockgpu

>  <m_score__min__energy>  (46) 
-8.9700000000000006

>  <m_primary>  (46) 
energy

>  <rmsd>  (46) 
7.357959141111001

>  <m_score__min__rmsd>  (46) 
7.357959141111001

>  <meeko>  (46) 
{"free_energy": -7.99, "intermolecular_energy": -9.49, "internal_energy": -1.41, "cluster_size": 1, "cluster_id": 4, "rank_in_cluster": 1}

>  <energy>  (46) 
-8.19

>  <cluster_rmsd>  (46) 
1.49

>  <cluster>  (46) 
3

$$$$

     RDKit          3D

 56 60  0  0  0  0  0  0  0  0999 V2000
  137.9340   69.8510  220.4810 N   0  0  0  0  0  0  0  0  0  0  0  0
  138.4010   70.1600  221.6430 C   0  0  0  0  0  0  0  0  0  0  0  0
  138.7510   69.2200  222.5540 N   0  0  0  0  0  0  0  0  0  0  0  0
  139.2410   69.5470  223.7740 C   0  0  0  0  0  0  0  0  0  0  0  0
  139.5810   68.5660  224.6460 N   0  0  0  0  0  0  0  0  0  0  0  0
  140.0810   68.8550  225.8800 C   0  0  0  0  0  0  0  0  0  0  0  0
  140.4250   67.8260  226.7600 C   0  0  0  0  0  0  0  0  0  0  0  0
  140.9390   68.1270  228.0240 C   0  0  0  0  0  0  0  0  0  0  0  0
  141.1120   69.4410  228.4180 C   0  0  0  0  0  0  0  0  0  0  0  0
  140.7730   70.4790  227.5480 C   0  0  0  0  0  0  0  0  0  0  0  0
  140.2610   70.1720  226.2890 C   0  0  0  0  0  0  0  0  0  0  0  0
  139.9090   71.1540  225.3880 C   0  0  0  0  0  0  0  0  0  0  0  0
  139.4030   70.8850  224.1380 C   0  0  0  0  0  0  0  0  0  0  0  0
  139.0530   71.8590  223.2270 C   0  0  0  0  0  0  0  0  0  0  0  0
  138.5500   71.4890  221.9750 C   0  0  0  0  0  0  0  0  0  0  0  0
  138.2240   72.5880  221.0780 C   0  0  0  0  0  0  0  0  0  0  0  0
  137.1280   72.4510  220.4300 O   0  0  0  0  0  0  0  0  0  0  0  0
  139.0180   73.7400  220.8960 N   0  0  0  0  0  0  0  0  0  0  0  0
  140.2680   73.9950  221.5810 C   0  0  0  0  0  0  0  0  0  0  0  0
  140.3760   75.4860  221.9490 C   0  0  0  0  0  0  0  0  0  0  0  0
  140.3960   76.2210  220.7500 N   0  0  0  0  0  0  0  0  0  0  0  0
  141.5780   76.8680  220.3440 C   0  0  0  0  0  0  0  0  0  0  0  0
  141.4740   78.3570  220.1380 C   0  0  0  0  0  0  0  0  0  0  0  0
  141.7580   79.0510  221.4410 C   0  0  0  0  0  0  0  0  0  0  0  0
  141.5200   78.3340  222.6100 C   0  0  0  0  0  0  0  0  0  0  0  0
  141.7590   78.9000  223.8430 C   0  0  0  0  0  0  0  0  0  0  0  0
  142.2360   80.1840  223.9040 C   0  0  0  0  0  0  0  0  0  0  0  0
  142.4800   80.9130  222.7510 C   0  0  0  0  0  0  0  0  0  0  0  0
  142.2380   80.3390  221.4980 C   0  0  0  0  0  0  0  0  0  0  0  0
  139.6190   75.7860  219.6560 C   0  0  0  0  0  0  0  0  0  0  0  0
  138.5720   74.7500  219.9580 C   0  0  0  0  0  0  0  0  0  0  0  0
  137.3440   70.5720  219.9980 H   0  0  0  0  0  0  0  0  0  0  0  0
  138.6390   68.1920  222.3050 H   0  0  0  0  0  0  0  0  0  0  0  0
  140.2910   66.7770  226.4573 H   0  0  0  0  0  0  0  0  0  0  0  0
  141.2083   67.3116  228.7115 H   0  0  0  0  0  0  0  0  0  0  0  0
  141.5162   69.6682  229.4155 H   0  0  0  0  0  0  0  0  0  0  0  0
  140.9085   71.5271  227.8530 H   0  0  0  0  0  0  0  0  0  0  0  0
  140.0394   72.2055  225.6837 H   0  0  0  0  0  0  0  0  0  0  0  0
  139.1687   72.9224  223.4835 H   0  0  0  0  0  0  0  0  0  0  0  0
  140.3098   73.3900  222.4987 H   0  0  0  0  0  0  0  0  0  0  0  0
  141.1031   73.7270  220.9171 H   0  0  0  0  0  0  0  0  0  0  0  0
  139.5102   75.7855  222.5578 H   0  0  0  0  0  0  0  0  0  0  0  0
  141.2896   75.6742  222.5321 H   0  0  0  0  0  0  0  0  0  0  0  0
  142.3432   76.6865  221.1131 H   0  0  0  0  0  0  0  0  0  0  0  0
  141.8251   76.4470  219.3583 H   0  0  0  0  0  0  0  0  0  0  0  0
  142.2063   78.6770  219.3821 H   0  0  0  0  0  0  0  0  0  0  0  0
  140.4624   78.6151  219.7916 H   0  0  0  0  0  0  0  0  0  0  0  0
  141.1371   77.3046  222.5487 H   0  0  0  0  0  0  0  0  0  0  0  0
  141.5700   78.3303  224.7648 H   0  0  0  0  0  0  0  0  0  0  0  0
  142.4283   80.6433  224.8849 H   0  0  0  0  0  0  0  0  0  0  0  0
  142.8634   81.9416  222.8207 H   0  0  0  0  0  0  0  0  0  0  0  0
  142.4281   80.9072  220.5755 H   0  0  0  0  0  0  0  0  0  0  0  0
  139.1098   76.6654  219.2348 H   0  0  0  0  0  0  0  0  0  0  0  0
  140.3253   75.2998  218.9670 H   0  0  0  0  0  0  0  0  0  0  0  0
  137.6923   75.2562  220.3822 H   0  0  0  0  0  0  0  0  0  0  0  0
  138.3398   74.2368  219.0131 H   0  0  0  0  0  0  0  0  0  0  0  0
  1  2  2  3
  2  3  1  0
  3  4  1  0
  4  5  2  0
  5  6  1  0
  6  7  2  0
  7  8  1  0
  8  9  2  0
  9 10  1  0
 10 11  2  0
 11 12  1  0
 12 13  2  0
 13 14  1  0
 14 15  2  0
 15 16  1  0
 16 17  2  0
 16 18  1  0
 18 19  1  0
 19 20  1  0
 20 21  1  0
 21 22  1  0
 22 23  1  0
 23 24  1  0
 24 25  2  0
 25 26  1  0
 26 27  2  0
 27 28  1  0
 28 29  2  0
 21 30  1  0
 30 31  1  0
 15  2  1  0
 31 18  1  0
 13  4  1  0
 29 24  1  0
 11  6  1  0
  1 32  1  0
  3 33  1  0
  7 34  1  0
  8 35  1  0
  9 36  1  0
 10 37  1  0
 12 38  1  0
 14 39  1  0
 19 40  1  0
 19 41  1  0
 20 42  1  0
 20 43  1  0
 22 44  1  0
 22 45  1  0
 23 46  1  0
 23 47  1  0
 25 48  1  0
 26 49  1  0
 27 50  1  0
 28 51  1  0
 29 52  1  0
 30 53  1  0
 30 54  1  0
 31 55  1  0
 31 56  1  0
M  END
>  <smiles>  (47) 
N=c1[nH]c2nc3ccccc3cc2cc1C(=O)N1CCN(CCc2ccccc2)CC1

>  <score_type>  (47) 
oracle

>  <origin>  (47) 
autodockgpu

>  <m_score__min__energy>  (47) 
-8.9700000000000006

>  <m_primary>  (47) 
energy

>  <rmsd>  (47) 
10.116879110883652

>  <m_score__min__rmsd>  (47) 
10.116879110883652

>  <meeko>  (47) 
{"free_energy": -8.19, "intermolecular_energy": -9.68, "internal_energy": -0.97, "cluster_size": 41, "cluster_id": 3, "rank_in_cluster": 40}

>  <energy>  (47) 
-8.12

>  <cluster_rmsd>  (47) 
0.61

>  <cluster>  (47) 
3

$$$$

     RDKit          3D

 56 60  0  0  0  0  0  0  0  0999 V2000
  139.0640   70.9070  220.0630 N   0  0  0  0  0  0  0  0  0  0  0  0
  139.4590   71.0490  221.2820 C   0  0  0  0  0  0  0  0  0  0  0  0
  139.2440   70.1000  222.2250 N   0  0  0  0  0  0  0  0  0  0  0  0
  139.6600   70.2500  223.5050 C   0  0  0  0  0  0  0  0  0  0  0  0
  139.4240   69.2660  224.4080 N   0  0  0  0  0  0  0  0  0  0  0  0
  139.8300   69.3790  225.7030 C   0  0  0  0  0  0  0  0  0  0  0  0
  139.5770   68.3500  226.6150 C   0  0  0  0  0  0  0  0  0  0  0  0
  139.9970   68.4690  227.9420 C   0  0  0  0  0  0  0  0  0  0  0  0
  140.6650   69.6010  228.3690 C   0  0  0  0  0  0  0  0  0  0  0  0
  140.9260   70.6370  227.4690 C   0  0  0  0  0  0  0  0  0  0  0  0
  140.5040   70.5120  226.1470 C   0  0  0  0  0  0  0  0  0  0  0  0
  140.7340   71.5000  225.2140 C   0  0  0  0  0  0  0  0  0  0  0  0
  140.3330   71.4070  223.9020 C   0  0  0  0  0  0  0  0  0  0  0  0
  140.5620   72.3870  222.9600 C   0  0  0  0  0  0  0  0  0  0  0  0
  140.1200   72.2020  221.6450 C   0  0  0  0  0  0  0  0  0  0  0  0
  140.4230   73.2850  220.7210 C   0  0  0  0  0  0  0  0  0  0  0  0
  141.1320   72.9500  219.7070 O   0  0  0  0  0  0  0  0  0  0  0  0
  139.9950   74.6190  220.8790 N   0  0  0  0  0  0  0  0  0  0  0  0
  139.1870   75.1000  221.9810 C   0  0  0  0  0  0  0  0  0  0  0  0
  138.1620   76.1310  221.4750 C   0  0  0  0  0  0  0  0  0  0  0  0
  138.8770   77.2310  220.9660 N   0  0  0  0  0  0  0  0  0  0  0  0
  138.8550   78.4590  221.6530 C   0  0  0  0  0  0  0  0  0  0  0  0
  139.3310   78.4210  223.0820 C   0  0  0  0  0  0  0  0  0  0  0  0
  140.5750   79.2560  223.2040 C   0  0  0  0  0  0  0  0  0  0  0  0
  141.7710   78.6830  222.7800 C   0  0  0  0  0  0  0  0  0  0  0  0
  142.9530   79.3850  222.8580 C   0  0  0  0  0  0  0  0  0  0  0  0
  142.9370   80.6610  223.3590 C   0  0  0  0  0  0  0  0  0  0  0  0
  141.7570   81.2480  223.7850 C   0  0  0  0  0  0  0  0  0  0  0  0
  140.5550   80.5350  223.7070 C   0  0  0  0  0  0  0  0  0  0  0  0
  140.0970   77.0140  220.2920 C   0  0  0  0  0  0  0  0  0  0  0  0
  140.3830   75.5960  219.8810 C   0  0  0  0  0  0  0  0  0  0  0  0
  139.5770   71.4560  219.3300 H   0  0  0  0  0  0  0  0  0  0  0  0
  138.7340   69.2060  221.9530 H   0  0  0  0  0  0  0  0  0  0  0  0
  139.0459   67.4444  226.2868 H   0  0  0  0  0  0  0  0  0  0  0  0
  139.7943   67.6547  228.6532 H   0  0  0  0  0  0  0  0  0  0  0  0
  140.9907   69.6861  229.4162 H   0  0  0  0  0  0  0  0  0  0  0  0
  141.4584   71.5408  227.8001 H   0  0  0  0  0  0  0  0  0  0  0  0
  141.2649   72.4084  225.5350 H   0  0  0  0  0  0  0  0  0  0  0  0
  141.0898   73.3104  223.2406 H   0  0  0  0  0  0  0  0  0  0  0  0
  138.6553   74.2530  222.4391 H   0  0  0  0  0  0  0  0  0  0  0  0
  139.8410   75.5780  222.7251 H   0  0  0  0  0  0  0  0  0  0  0  0
  137.5439   75.6862  220.6812 H   0  0  0  0  0  0  0  0  0  0  0  0
  137.4985   76.4480  222.2931 H   0  0  0  0  0  0  0  0  0  0  0  0
  139.4950   79.1646  221.1030 H   0  0  0  0  0  0  0  0  0  0  0  0
  137.7968   78.7560  221.6990 H   0  0  0  0  0  0  0  0  0  0  0  0
  138.5493   78.8246  223.7423 H   0  0  0  0  0  0  0  0  0  0  0  0
  139.5489   77.3832  223.3744 H   0  0  0  0  0  0  0  0  0  0  0  0
  141.7717   77.6589  222.3785 H   0  0  0  0  0  0  0  0  0  0  0  0
  143.8962   78.9287  222.5232 H   0  0  0  0  0  0  0  0  0  0  0  0
  143.8772   81.2283  223.4237 H   0  0  0  0  0  0  0  0  0  0  0  0
  141.7645   82.2730  224.1841 H   0  0  0  0  0  0  0  0  0  0  0  0
  139.6113   80.9901  224.0422 H   0  0  0  0  0  0  0  0  0  0  0  0
  140.0933   77.6331  219.3828 H   0  0  0  0  0  0  0  0  0  0  0  0
  140.8841   77.2766  221.0141 H   0  0  0  0  0  0  0  0  0  0  0  0
  139.8323   75.3840  218.9527 H   0  0  0  0  0  0  0  0  0  0  0  0
  141.4714   75.5095  219.7471 H   0  0  0  0  0  0  0  0  0  0  0  0
  1  2  2  3
  2  3  1  0
  3  4  1  0
  4  5  2  0
  5  6  1  0
  6  7  2  0
  7  8  1  0
  8  9  2  0
  9 10  1  0
 10 11  2  0
 11 12  1  0
 12 13  2  0
 13 14  1  0
 14 15  2  0
 15 16  1  0
 16 17  2  0
 16 18  1  0
 18 19  1  0
 19 20  1  0
 20 21  1  0
 21 22  1  0
 22 23  1  0
 23 24  1  0
 24 25  2  0
 25 26  1  0
 26 27  2  0
 27 28  1  0
 28 29  2  0
 21 30  1  0
 30 31  1  0
 15  2  1  0
 31 18  1  0
 13  4  1  0
 29 24  1  0
 11  6  1  0
  1 32  1  0
  3 33  1  0
  7 34  1  0
  8 35  1  0
  9 36  1  0
 10 37  1  0
 12 38  1  0
 14 39  1  0
 19 40  1  0
 19 41  1  0
 20 42  1  0
 20 43  1  0
 22 44  1  0
 22 45  1  0
 23 46  1  0
 23 47  1  0
 25 48  1  0
 26 49  1  0
 27 50  1  0
 28 51  1  0
 29 52  1  0
 30 53  1  0
 30 54  1  0
 31 55  1  0
 31 56  1  0
M  END
>  <smiles>  (48) 
N=c1[nH]c2nc3ccccc3cc2cc1C(=O)N1CCN(CCc2ccccc2)CC1

>  <score_type>  (48) 
oracle

>  <origin>  (48) 
autodockgpu

>  <m_score__min__energy>  (48) 
-8.9700000000000006

>  <m_primary>  (48) 
energy

>  <rmsd>  (48) 
9.869473598918512

>  <m_score__min__rmsd>  (48) 
9.869473598918512

>  <meeko>  (48) 
{"free_energy": -8.41, "intermolecular_energy": -9.91, "internal_energy": -1.27, "cluster_size": 41, "cluster_id": 3, "rank_in_cluster": 6}

>  <energy>  (48) 
-7.99

>  <cluster_rmsd>  (48) 
0.0

>  <cluster>  (48) 
4

$$$$

     RDKit          3D

 56 60  0  0  0  0  0  0  0  0999 V2000
  138.6940   71.2430  220.2180 N   0  0  0  0  0  0  0  0  0  0  0  0
  139.1670   71.3330  221.4150 C   0  0  0  0  0  0  0  0  0  0  0  0
  139.0000   70.3510  222.3320 N   0  0  0  0  0  0  0  0  0  0  0  0
  139.4970   70.4480  223.5890 C   0  0  0  0  0  0  0  0  0  0  0  0
  139.3060   69.4320  224.4670 N   0  0  0  0  0  0  0  0  0  0  0  0
  139.7950   69.4910  225.7370 C   0  0  0  0  0  0  0  0  0  0  0  0
  139.5860   68.4300  226.6230 C   0  0  0  0  0  0  0  0  0  0  0  0
  140.0900   68.4940  227.9250 C   0  0  0  0  0  0  0  0  0  0  0  0
  140.7980   69.6030  228.3510 C   0  0  0  0  0  0  0  0  0  0  0  0
  141.0140   70.6700  227.4770 C   0  0  0  0  0  0  0  0  0  0  0  0
  140.5090   70.5990  226.1800 C   0  0  0  0  0  0  0  0  0  0  0  0
  140.6920   71.6200  225.2720 C   0  0  0  0  0  0  0  0  0  0  0  0
  140.2080   71.5820  223.9860 C   0  0  0  0  0  0  0  0  0  0  0  0
  140.3890   72.5950  223.0680 C   0  0  0  0  0  0  0  0  0  0  0  0
  139.8640   72.4650  221.7780 C   0  0  0  0  0  0  0  0  0  0  0  0
  140.1210   73.5800  220.8780 C   0  0  0  0  0  0  0  0  0  0  0  0
  140.7760   73.2810  219.8180 O   0  0  0  0  0  0  0  0  0  0  0  0
  139.7060   74.9080  221.1050 N   0  0  0  0  0  0  0  0  0  0  0  0
  138.9580   75.3510  222.2640 C   0  0  0  0  0  0  0  0  0  0  0  0
  137.9100   76.4000  221.8490 C   0  0  0  0  0  0  0  0  0  0  0  0
  138.6010   77.5170  221.3430 N   0  0  0  0  0  0  0  0  0  0  0  0
  138.6180   78.7190  222.0720 C   0  0  0  0  0  0  0  0  0  0  0  0
  139.2890   78.6600  223.4200 C   0  0  0  0  0  0  0  0  0  0  0  0
  140.5630   79.4570  223.3660 C   0  0  0  0  0  0  0  0  0  0  0  0
  141.7410   78.7590  223.1170 C   0  0  0  0  0  0  0  0  0  0  0  0
  142.9490   79.4180  223.0500 C   0  0  0  0  0  0  0  0  0  0  0  0
  142.9750   80.7770  223.2310 C   0  0  0  0  0  0  0  0  0  0  0  0
  141.8130   81.4890  223.4790 C   0  0  0  0  0  0  0  0  0  0  0  0
  140.5860   80.8200  223.5480 C   0  0  0  0  0  0  0  0  0  0  0  0
  139.7840   77.3220  220.5990 C   0  0  0  0  0  0  0  0  0  0  0  0
  140.0440   75.9190  220.1230 C   0  0  0  0  0  0  0  0  0  0  0  0
  139.1620   71.8200  219.4770 H   0  0  0  0  0  0  0  0  0  0  0  0
  138.4630   69.4730  222.0600 H   0  0  0  0  0  0  0  0  0  0  0  0
  139.0239   67.5432  226.2948 H   0  0  0  0  0  0  0  0  0  0  0  0
  139.9221   67.6553  228.6167 H   0  0  0  0  0  0  0  0  0  0  0  0
  141.1907   69.6443  229.3777 H   0  0  0  0  0  0  0  0  0  0  0  0
  141.5759   71.5559  227.8080 H   0  0  0  0  0  0  0  0  0  0  0  0
  141.2536   72.5098  225.5927 H   0  0  0  0  0  0  0  0  0  0  0  0
  140.9443   73.5020  223.3492 H   0  0  0  0  0  0  0  0  0  0  0  0
  138.4490   74.4889  222.7197 H   0  0  0  0  0  0  0  0  0  0  0  0
  139.6515   75.8025  222.9887 H   0  0  0  0  0  0  0  0  0  0  0  0
  137.2504   75.9842  221.0731 H   0  0  0  0  0  0  0  0  0  0  0  0
  137.2902   76.6879  222.7110 H   0  0  0  0  0  0  0  0  0  0  0  0
  139.1424   79.4732  221.4669 H   0  0  0  0  0  0  0  0  0  0  0  0
  137.5640   78.9605  222.2737 H   0  0  0  0  0  0  0  0  0  0  0  0
  138.6206   79.0838  224.1839 H   0  0  0  0  0  0  0  0  0  0  0  0
  139.5143   77.6148  223.6784 H   0  0  0  0  0  0  0  0  0  0  0  0
  141.7072   77.6691  222.9721 H   0  0  0  0  0  0  0  0  0  0  0  0
  143.8782   78.8627  222.8544 H   0  0  0  0  0  0  0  0  0  0  0  0
  143.9353   81.3110  223.1783 H   0  0  0  0  0  0  0  0  0  0  0  0
  141.8548   82.5789  223.6215 H   0  0  0  0  0  0  0  0  0  0  0  0
  139.6564   81.3743  223.7443 H   0  0  0  0  0  0  0  0  0  0  0  0
  139.7353   77.9733  219.7139 H   0  0  0  0  0  0  0  0  0  0  0  0
  140.6082   77.5570  221.2885 H   0  0  0  0  0  0  0  0  0  0  0  0
  139.4446   75.7407  219.2180 H   0  0  0  0  0  0  0  0  0  0  0  0
  141.1235   75.8360  219.9286 H   0  0  0  0  0  0  0  0  0  0  0  0
  1  2  2  3
  2  3  1  0
  3  4  1  0
  4  5  2  0
  5  6  1  0
  6  7  2  0
  7  8  1  0
  8  9  2  0
  9 10  1  0
 10 11  2  0
 11 12  1  0
 12 13  2  0
 13 14  1  0
 14 15  2  0
 15 16  1  0
 16 17  2  0
 16 18  1  0
 18 19  1  0
 19 20  1  0
 20 21  1  0
 21 22  1  0
 22 23  1  0
 23 24  1  0
 24 25  2  0
 25 26  1  0
 26 27  2  0
 27 28  1  0
 28 29  2  0
 21 30  1  0
 30 31  1  0
 15  2  1  0
 31 18  1  0
 13  4  1  0
 29 24  1  0
 11  6  1  0
  1 32  1  0
  3 33  1  0
  7 34  1  0
  8 35  1  0
  9 36  1  0
 10 37  1  0
 12 38  1  0
 14 39  1  0
 19 40  1  0
 19 41  1  0
 20 42  1  0
 20 43  1  0
 22 44  1  0
 22 45  1  0
 23 46  1  0
 23 47  1  0
 25 48  1  0
 26 49  1  0
 27 50  1  0
 28 51  1  0
 29 52  1  0
 30 53  1  0
 30 54  1  0
 31 55  1  0
 31 56  1  0
M  END
>  <smiles>  (49) 
N=c1[nH]c2nc3ccccc3cc2cc1C(=O)N1CCN(CCc2ccccc2)CC1

>  <score_type>  (49) 
oracle

>  <origin>  (49) 
autodockgpu

>  <m_score__min__energy>  (49) 
-8.9700000000000006

>  <m_primary>  (49) 
energy

>  <rmsd>  (49) 
9.922825299440719

>  <m_score__min__rmsd>  (49) 
9.922825299440719

>  <meeko>  (49) 
{"free_energy": -8.35, "intermolecular_energy": -9.84, "internal_energy": -1.29, "cluster_size": 41, "cluster_id": 3, "rank_in_cluster": 36}

>  <energy>  (49) 
-7.98

>  <cluster_rmsd>  (49) 
0.0

>  <cluster>  (49) 
5

$$$$

     RDKit          3D

 56 60  0  0  0  0  0  0  0  0999 V2000
  135.7820   75.6920  221.8930 N   0  0  0  0  0  0  0  0  0  0  0  0
  137.0090   76.0820  221.9690 C   0  0  0  0  0  0  0  0  0  0  0  0
  137.3520   77.2910  222.4750 N   0  0  0  0  0  0  0  0  0  0  0  0
  138.6410   77.6990  222.5540 C   0  0  0  0  0  0  0  0  0  0  0  0
  138.9300   78.9180  223.0750 N   0  0  0  0  0  0  0  0  0  0  0  0
  140.2140   79.3610  223.1740 C   0  0  0  0  0  0  0  0  0  0  0  0
  140.4850   80.6200  223.7160 C   0  0  0  0  0  0  0  0  0  0  0  0
  141.8040   81.0700  223.8180 C   0  0  0  0  0  0  0  0  0  0  0  0
  142.8520   80.2790  223.3850 C   0  0  0  0  0  0  0  0  0  0  0  0
  142.5960   79.0190  222.8410 C   0  0  0  0  0  0  0  0  0  0  0  0
  141.2780   78.5760  222.7430 C   0  0  0  0  0  0  0  0  0  0  0  0
  140.9630   77.3420  222.2170 C   0  0  0  0  0  0  0  0  0  0  0  0
  139.6750   76.8750  222.1070 C   0  0  0  0  0  0  0  0  0  0  0  0
  139.3500   75.6400  221.5860 C   0  0  0  0  0  0  0  0  0  0  0  0
  138.0090   75.2470  221.5190 C   0  0  0  0  0  0  0  0  0  0  0  0
  137.7680   73.9210  220.9700 C   0  0  0  0  0  0  0  0  0  0  0  0
  137.0520   73.8960  219.9070 O   0  0  0  0  0  0  0  0  0  0  0  0
  138.2590   72.7200  221.5230 N   0  0  0  0  0  0  0  0  0  0  0  0
  139.0790   72.6370  222.7140 C   0  0  0  0  0  0  0  0  0  0  0  0
  140.1580   71.5520  222.5390 C   0  0  0  0  0  0  0  0  0  0  0  0
  139.5020   70.3160  222.3930 N   0  0  0  0  0  0  0  0  0  0  0  0
  139.5770   69.3580  223.4200 C   0  0  0  0  0  0  0  0  0  0  0  0
  138.6850   69.5990  224.6100 C   0  0  0  0  0  0  0  0  0  0  0  0
  139.5310   70.0420  225.7720 C   0  0  0  0  0  0  0  0  0  0  0  0
  139.5370   69.2280  226.9010 C   0  0  0  0  0  0  0  0  0  0  0  0
  140.2880   69.5640  228.0050 C   0  0  0  0  0  0  0  0  0  0  0  0
  141.0340   70.7150  227.9770 C   0  0  0  0  0  0  0  0  0  0  0  0
  141.0400   71.5370  226.8620 C   0  0  0  0  0  0  0  0  0  0  0  0
  140.2770   71.1960  225.7400 C   0  0  0  0  0  0  0  0  0  0  0  0
  138.2780   70.2590  221.6920 C   0  0  0  0  0  0  0  0  0  0  0  0
  137.9280   71.4680  220.8710 C   0  0  0  0  0  0  0  0  0  0  0  0
  135.5610   74.9540  221.1800 H   0  0  0  0  0  0  0  0  0  0  0  0
  136.5860   77.9420  222.8240 H   0  0  0  0  0  0  0  0  0  0  0  0
  139.6588   81.2579  224.0630 H   0  0  0  0  0  0  0  0  0  0  0  0
  142.0102   82.0619  224.2464 H   0  0  0  0  0  0  0  0  0  0  0  0
  143.8869   80.6422  223.4691 H   0  0  0  0  0  0  0  0  0  0  0  0
  143.4242   78.3836  222.4940 H   0  0  0  0  0  0  0  0  0  0  0  0
  141.7836   76.6982  221.8675 H   0  0  0  0  0  0  0  0  0  0  0  0
  140.1416   74.9671  221.2248 H   0  0  0  0  0  0  0  0  0  0  0  0
  139.5647   73.6082  222.8897 H   0  0  0  0  0  0  0  0  0  0  0  0
  138.4421   72.3764  223.5722 H   0  0  0  0  0  0  0  0  0  0  0  0
  140.7609   71.7642  221.6438 H   0  0  0  0  0  0  0  0  0  0  0  0
  140.8288   71.5316  223.4106 H   0  0  0  0  0  0  0  0  0  0  0  0
  139.3094   68.3814  222.9903 H   0  0  0  0  0  0  0  0  0  0  0  0
  140.6066   69.4121  223.8035 H   0  0  0  0  0  0  0  0  0  0  0  0
  137.9507   70.3816  224.3684 H   0  0  0  0  0  0  0  0  0  0  0  0
  138.1517   68.6725  224.8694 H   0  0  0  0  0  0  0  0  0  0  0  0
  138.9357   68.3070  226.9113 H   0  0  0  0  0  0  0  0  0  0  0  0
  140.2898   68.9192  228.8962 H   0  0  0  0  0  0  0  0  0  0  0  0
  141.6375   70.9898  228.8547 H   0  0  0  0  0  0  0  0  0  0  0  0
  141.6438   72.4565  226.8588 H   0  0  0  0  0  0  0  0  0  0  0  0
  140.2741   71.8399  224.8482 H   0  0  0  0  0  0  0  0  0  0  0  0
  138.3190   69.3934  221.0145 H   0  0  0  0  0  0  0  0  0  0  0  0
  137.4983   70.1917  222.4650 H   0  0  0  0  0  0  0  0  0  0  0  0
  138.4768   71.4144  219.9192 H   0  0  0  0  0  0  0  0  0  0  0  0
  136.8381   71.4564  220.7226 H   0  0  0  0  0  0  0  0  0  0  0  0
  1  2  2  3
  2  3  1  0
  3  4  1  0
  4  5  2  0
  5  6  1  0
  6  7  2  0
  7  8  1  0
  8  9  2  0
  9 10  1  0
 10 11  2  0
 11 12  1  0
 12 13  2  0
 13 14  1  0
 14 15  2  0
 15 16  1  0
 16 17  2  0
 16 18  1  0
 18 19  1  0
 19 20  1  0
 20 21  1  0
 21 22  1  0
 22 23  1  0
 23 24  1  0
 24 25  2  0
 25 26  1  0
 26 27  2  0
 27 28  1  0
 28 29  2  0
 21 30  1  0
 30 31  1  0
 15  2  1  0
 31 18  1  0
 13  4  1  0
 29 24  1  0
 11  6  1  0
  1 32  1  0
  3 33  1  0
  7 34  1  0
  8 35  1  0
  9 36  1  0
 10 37  1  0
 12 38  1  0
 14 39  1  0
 19 40  1  0
 19 41  1  0
 20 42  1  0
 20 43  1  0
 22 44  1  0
 22 45  1  0
 23 46  1  0
 23 47  1  0
 25 48  1  0
 26 49  1  0
 27 50  1  0
 28 51  1  0
 29 52  1  0
 30 53  1  0
 30 54  1  0
 31 55  1  0
 31 56  1  0
M  END
>  <smiles>  (50) 
N=c1[nH]c2nc3ccccc3cc2cc1C(=O)N1CCN(CCc2ccccc2)CC1

>  <score_type>  (50) 
oracle

>  <origin>  (50) 
autodockgpu

>  <m_score__min__energy>  (50) 
-8.9700000000000006

>  <m_primary>  (50) 
energy

>  <rmsd>  (50) 
3.6142659962935886

>  <m_score__min__rmsd>  (50) 
3.6142659962935886

>  <meeko>  (50) 
{"free_energy": -7.98, "intermolecular_energy": -9.47, "internal_energy": -1.23, "cluster_size": 1, "cluster_id": 5, "rank_in_cluster": 1}

>  <energy>  (50) 
-7.76

>  <cluster_rmsd>  (50) 
0.0

>  <cluster>  (50) 
6

$$$$
