
     RDKit          3D

 51 54  0  0  0  0  0  0  0  0999 V2000
  138.7850   75.7550  221.1170 O   0  0  0  0  0  0  0  0  0  0  0  0
  139.9260   75.3700  221.5340 C   0  0  0  0  0  0  0  0  0  0  0  0
  140.8590   76.3190  222.0090 N   0  0  0  0  0  0  0  0  0  0  0  0
  140.6080   77.7460  222.0620 C   0  0  0  0  0  0  0  0  0  0  0  0
  141.5880   78.5010  221.2280 C   0  0  0  0  0  0  0  0  0  0  0  0
  142.2630   79.6240  221.9840 C   0  0  0  0  0  0  0  0  0  0  0  0
  142.1860   79.3140  223.4700 C   0  0  0  0  0  0  0  0  0  0  0  0
  142.5350   80.6560  224.0800 C   0  0  0  0  0  0  0  0  0  0  0  0
  141.7880   81.6220  223.1980 C   0  0  0  0  0  0  0  0  0  0  0  0
  141.5280   80.9310  221.8880 C   0  0  0  0  0  0  0  0  0  0  0  0
  140.1690   73.9360  221.4790 C   0  0  0  0  0  0  0  0  0  0  0  0
  140.5470   73.3600  220.2840 C   0  0  0  0  0  0  0  0  0  0  0  0
  140.7960   72.0110  220.1450 C   0  0  0  0  0  0  0  0  0  0  0  0
  140.6520   71.2300  221.2740 C   0  0  0  0  0  0  0  0  0  0  0  0
  140.2790   71.7360  222.5030 C   0  0  0  0  0  0  0  0  0  0  0  0
  140.1340   70.8680  223.6920 C   0  0  0  0  0  0  0  0  0  0  0  0
  140.5860   71.3390  224.8020 N   0  0  0  0  0  0  0  0  0  0  0  0
  140.5190   70.6230  226.0270 C   0  0  0  0  0  0  0  0  0  0  0  0
  141.0370   71.2320  227.1520 C   0  0  0  0  0  0  0  0  0  0  0  0
  140.9690   70.5300  228.3420 C   0  0  0  0  0  0  0  0  0  0  0  0
  140.3960   69.2540  228.3920 C   0  0  0  0  0  0  0  0  0  0  0  0
  139.8830   68.6700  227.2370 C   0  0  0  0  0  0  0  0  0  0  0  0
  139.9480   69.3690  226.0460 C   0  0  0  0  0  0  0  0  0  0  0  0
  139.4410   68.8450  224.7870 C   0  0  0  0  0  0  0  0  0  0  0  0
  138.9200   67.6980  224.8100 O   0  0  0  0  0  0  0  0  0  0  0  0
  139.4990   69.5700  223.5000 C   0  0  0  0  0  0  0  0  0  0  0  0
  140.0460   73.0970  222.5630 C   0  0  0  0  0  0  0  0  0  0  0  0
  141.7860   75.9320  222.3390 H   0  0  0  0  0  0  0  0  0  0  0  0
  139.5923   77.9451  221.6895 H   0  0  0  0  0  0  0  0  0  0  0  0
  140.7123   78.0780  223.1055 H   0  0  0  0  0  0  0  0  0  0  0  0
  142.3603   77.8018  220.8748 H   0  0  0  0  0  0  0  0  0  0  0  0
  141.0319   78.9527  220.3933 H   0  0  0  0  0  0  0  0  0  0  0  0
  143.2746   79.7025  221.5592 H   0  0  0  0  0  0  0  0  0  0  0  0
  141.1753   78.9916  223.7609 H   0  0  0  0  0  0  0  0  0  0  0  0
  142.8436   78.4924  223.7902 H   0  0  0  0  0  0  0  0  0  0  0  0
  142.1888   80.7206  225.1221 H   0  0  0  0  0  0  0  0  0  0  0  0
  143.6171   80.8492  224.1224 H   0  0  0  0  0  0  0  0  0  0  0  0
  140.8349   81.9018  223.6705 H   0  0  0  0  0  0  0  0  0  0  0  0
  142.3763   82.5383  223.0422 H   0  0  0  0  0  0  0  0  0  0  0  0
  140.4505   80.7591  221.7490 H   0  0  0  0  0  0  0  0  0  0  0  0
  141.8647   81.5319  221.0304 H   0  0  0  0  0  0  0  0  0  0  0  0
  140.6548   74.0069  219.4009 H   0  0  0  0  0  0  0  0  0  0  0  0
  141.0955   71.5774  219.1794 H   0  0  0  0  0  0  0  0  0  0  0  0
  140.8441   70.1502  221.1902 H   0  0  0  0  0  0  0  0  0  0  0  0
  141.4858   72.2351  227.1043 H   0  0  0  0  0  0  0  0  0  0  0  0
  141.3707   70.9807  229.2615 H   0  0  0  0  0  0  0  0  0  0  0  0
  140.3508   68.7106  229.3474 H   0  0  0  0  0  0  0  0  0  0  0  0
  139.4325   67.6671  227.2715 H   0  0  0  0  0  0  0  0  0  0  0  0
  140.0818   68.9820  222.7757 H   0  0  0  0  0  0  0  0  0  0  0  0
  138.4772   69.7184  223.1207 H   0  0  0  0  0  0  0  0  0  0  0  0
  139.7466   73.5325  223.5277 H   0  0  0  0  0  0  0  0  0  0  0  0
  1  2  2  0
  2  3  1  0
  3  4  1  0
  4  5  1  0
  5  6  1  0
  6  7  1  0
  7  8  1  0
  8  9  1  0
  9 10  1  0
  2 11  1  0
 11 12  2  0
 12 13  1  0
 13 14  2  0
 14 15  1  0
 15 16  1  0
 16 17  2  0
 17 18  1  0
 18 19  2  0
 19 20  1  0
 20 21  2  0
 21 22  1  0
 22 23  2  0
 23 24  1  0
 24 25  2  0
 24 26  1  0
 15 27  2  0
 10  6  1  0
 27 11  1  0
 26 16  1  0
 23 18  1  0
  3 28  1  0
  4 29  1  0
  4 30  1  0
  5 31  1  0
  5 32  1  0
  6 33  1  0
  7 34  1  0
  7 35  1  0
  8 36  1  0
  8 37  1  0
  9 38  1  0
  9 39  1  0
 10 40  1  0
 10 41  1  0
 12 42  1  0
 13 43  1  0
 14 44  1  0
 19 45  1  0
 20 46  1  0
 21 47  1  0
 22 48  1  0
 26 49  1  0
 26 50  1  0
 27 51  1  0
M  END
>  <smiles>  (1) 
O=C(NCCC1CCCC1)c1cccc(C2=Nc3ccccc3C(=O)C2)c1

>  <score_type>  (1) 
oracle

>  <origin>  (1) 
autodockgpu

>  <m_score__min__energy>  (1) 
-9.5099999999999998

>  <m_primary>  (1) 
energy

>  <rmsd>  (1) 
4.321560194395425

>  <m_score__min__rmsd>  (1) 
4.321560194395425

>  <meeko>  (1) 
{"free_energy": -9.28, "intermolecular_energy": -10.78, "internal_energy": -0.76, "cluster_size": 50, "cluster_id": 1, "rank_in_cluster": 24}

>  <energy>  (1) 
-9.51

>  <cluster_rmsd>  (1) 
0.0

>  <cluster>  (1) 
1

$$$$

     RDKit          3D

 51 54  0  0  0  0  0  0  0  0999 V2000
  141.5040   74.9590  221.9510 O   0  0  0  0  0  0  0  0  0  0  0  0
  140.4190   74.8740  221.2850 C   0  0  0  0  0  0  0  0  0  0  0  0
  140.1310   75.8280  220.2840 N   0  0  0  0  0  0  0  0  0  0  0  0
  141.0050   76.9330  219.9410 C   0  0  0  0  0  0  0  0  0  0  0  0
  140.5900   78.1880  220.6340 C   0  0  0  0  0  0  0  0  0  0  0  0
  141.5670   78.6200  221.7030 C   0  0  0  0  0  0  0  0  0  0  0  0
  140.9720   78.2800  223.0600 C   0  0  0  0  0  0  0  0  0  0  0  0
  141.8470   79.0940  223.9910 C   0  0  0  0  0  0  0  0  0  0  0  0
  142.0060   80.3910  223.2410 C   0  0  0  0  0  0  0  0  0  0  0  0
  141.7340   80.1110  221.7890 C   0  0  0  0  0  0  0  0  0  0  0  0
  139.5490   73.7610  221.6350 C   0  0  0  0  0  0  0  0  0  0  0  0
  138.3700   73.5810  220.9420 C   0  0  0  0  0  0  0  0  0  0  0  0
  137.4900   72.5540  221.2100 C   0  0  0  0  0  0  0  0  0  0  0  0
  137.8360   71.6830  222.2230 C   0  0  0  0  0  0  0  0  0  0  0  0
  138.9990   71.8000  222.9570 C   0  0  0  0  0  0  0  0  0  0  0  0
  139.3370   70.8470  224.0370 C   0  0  0  0  0  0  0  0  0  0  0  0
  139.8990   71.3440  225.0840 N   0  0  0  0  0  0  0  0  0  0  0  0
  140.2820   70.5560  226.2020 C   0  0  0  0  0  0  0  0  0  0  0  0
  140.8770   71.2030  227.2660 C   0  0  0  0  0  0  0  0  0  0  0  0
  141.2480   70.4300  228.3520 C   0  0  0  0  0  0  0  0  0  0  0  0
  141.0250   69.0480  228.3600 C   0  0  0  0  0  0  0  0  0  0  0  0
  140.4220   68.4280  227.2690 C   0  0  0  0  0  0  0  0  0  0  0  0
  140.0500   69.1980  226.1820 C   0  0  0  0  0  0  0  0  0  0  0  0
  139.4150   68.6440  224.9950 C   0  0  0  0  0  0  0  0  0  0  0  0
  139.2040   67.4020  224.9820 O   0  0  0  0  0  0  0  0  0  0  0  0
  139.0070   69.4430  223.8200 C   0  0  0  0  0  0  0  0  0  0  0  0
  139.8290   72.8540  222.6320 C   0  0  0  0  0  0  0  0  0  0  0  0
  139.2150   75.6980  219.7710 H   0  0  0  0  0  0  0  0  0  0  0  0
  142.0336   76.6822  220.2394 H   0  0  0  0  0  0  0  0  0  0  0  0
  140.9444   77.0995  218.8554 H   0  0  0  0  0  0  0  0  0  0  0  0
  140.5093   78.9913  219.8869 H   0  0  0  0  0  0  0  0  0  0  0  0
  139.6271   77.9897  221.1274 H   0  0  0  0  0  0  0  0  0  0  0  0
  142.5174   78.1251  221.4543 H   0  0  0  0  0  0  0  0  0  0  0  0
  139.9189   78.5908  223.1254 H   0  0  0  0  0  0  0  0  0  0  0  0
  140.9601   77.2034  223.2855 H   0  0  0  0  0  0  0  0  0  0  0  0
  141.3537   79.2540  224.9611 H   0  0  0  0  0  0  0  0  0  0  0  0
  142.8036   78.6066  224.2305 H   0  0  0  0  0  0  0  0  0  0  0  0
  141.2895   81.1344  223.6206 H   0  0  0  0  0  0  0  0  0  0  0  0
  143.0212   80.7930  223.3740 H   0  0  0  0  0  0  0  0  0  0  0  0
  140.8162   80.6220  221.4624 H   0  0  0  0  0  0  0  0  0  0  0  0
  142.5451   80.4732  221.1402 H   0  0  0  0  0  0  0  0  0  0  0  0
  138.1203   74.2895  220.1385 H   0  0  0  0  0  0  0  0  0  0  0  0
  136.5553   72.4344  220.6426 H   0  0  0  0  0  0  0  0  0  0  0  0
  137.1511   70.8546  222.4570 H   0  0  0  0  0  0  0  0  0  0  0  0
  141.0493   72.2893  227.2513 H   0  0  0  0  0  0  0  0  0  0  0  0
  141.7245   70.9078  229.2207 H   0  0  0  0  0  0  0  0  0  0  0  0
  141.3275   68.4494  229.2319 H   0  0  0  0  0  0  0  0  0  0  0  0
  140.2442   67.3425  227.2715 H   0  0  0  0  0  0  0  0  0  0  0  0
  139.5368   69.0772  222.9281 H   0  0  0  0  0  0  0  0  0  0  0  0
  137.9213   69.3441  223.6735 H   0  0  0  0  0  0  0  0  0  0  0  0
  140.7634   72.9756  223.1996 H   0  0  0  0  0  0  0  0  0  0  0  0
  1  2  2  0
  2  3  1  0
  3  4  1  0
  4  5  1  0
  5  6  1  0
  6  7  1  0
  7  8  1  0
  8  9  1  0
  9 10  1  0
  2 11  1  0
 11 12  2  0
 12 13  1  0
 13 14  2  0
 14 15  1  0
 15 16  1  0
 16 17  2  0
 17 18  1  0
 18 19  2  0
 19 20  1  0
 20 21  2  0
 21 22  1  0
 22 23  2  0
 23 24  1  0
 24 25  2  0
 24 26  1  0
 15 27  2  0
 10  6  1  0
 27 11  1  0
 26 16  1  0
 23 18  1  0
  3 28  1  0
  4 29  1  0
  4 30  1  0
  5 31  1  0
  5 32  1  0
  6 33  1  0
  7 34  1  0
  7 35  1  0
  8 36  1  0
  8 37  1  0
  9 38  1  0
  9 39  1  0
 10 40  1  0
 10 41  1  0
 12 42  1  0
 13 43  1  0
 14 44  1  0
 19 45  1  0
 20 46  1  0
 21 47  1  0
 22 48  1  0
 26 49  1  0
 26 50  1  0
 27 51  1  0
M  END
>  <smiles>  (2) 
O=C(NCCC1CCCC1)c1cccc(C2=Nc3ccccc3C(=O)C2)c1

>  <score_type>  (2) 
oracle

>  <origin>  (2) 
autodockgpu

>  <m_score__min__energy>  (2) 
-9.5099999999999998

>  <m_primary>  (2) 
energy

>  <rmsd>  (2) 
4.83413971757823

>  <m_score__min__rmsd>  (2) 
4.83413971757823

>  <meeko>  (2) 
{"free_energy": -8.68, "intermolecular_energy": -10.17, "internal_energy": -0.92, "cluster_size": 50, "cluster_id": 1, "rank_in_cluster": 48}

>  <energy>  (2) 
-9.51

>  <cluster_rmsd>  (2) 
0.1

>  <cluster>  (2) 
1

$$$$

     RDKit          3D

 51 54  0  0  0  0  0  0  0  0999 V2000
  139.1230   75.8760  220.3910 O   0  0  0  0  0  0  0  0  0  0  0  0
  140.0790   75.3410  221.0430 C   0  0  0  0  0  0  0  0  0  0  0  0
  141.0570   76.1570  221.6560 N   0  0  0  0  0  0  0  0  0  0  0  0
  141.0550   77.6060  221.6000 C   0  0  0  0  0  0  0  0  0  0  0  0
  140.3030   78.1910  222.7480 C   0  0  0  0  0  0  0  0  0  0  0  0
  141.1420   79.1320  223.5830 C   0  0  0  0  0  0  0  0  0  0  0  0
  140.6780   80.5540  223.3130 C   0  0  0  0  0  0  0  0  0  0  0  0
  141.8210   81.3640  223.8910 C   0  0  0  0  0  0  0  0  0  0  0  0
  143.0310   80.5830  223.4490 C   0  0  0  0  0  0  0  0  0  0  0  0
  142.5830   79.1780  223.1600 C   0  0  0  0  0  0  0  0  0  0  0  0
  140.0730   73.8870  221.0960 C   0  0  0  0  0  0  0  0  0  0  0  0
  140.0900   73.1680  219.9190 C   0  0  0  0  0  0  0  0  0  0  0  0
  140.0840   71.7890  219.8800 C   0  0  0  0  0  0  0  0  0  0  0  0
  140.0630   71.1300  221.0930 C   0  0  0  0  0  0  0  0  0  0  0  0
  140.0460   71.7830  222.3090 C   0  0  0  0  0  0  0  0  0  0  0  0
  140.0230   71.0430  223.5900 C   0  0  0  0  0  0  0  0  0  0  0  0
  140.4760   71.6680  224.6200 N   0  0  0  0  0  0  0  0  0  0  0  0
  140.5190   71.0890  225.9170 C   0  0  0  0  0  0  0  0  0  0  0  0
  141.0270   71.8580  226.9430 C   0  0  0  0  0  0  0  0  0  0  0  0
  141.0660   71.2900  228.2040 C   0  0  0  0  0  0  0  0  0  0  0  0
  140.6050   69.9850  228.4180 C   0  0  0  0  0  0  0  0  0  0  0  0
  140.0990   69.2370  227.3580 C   0  0  0  0  0  0  0  0  0  0  0  0
  140.0580   69.8030  226.0970 C   0  0  0  0  0  0  0  0  0  0  0  0
  139.5480   69.1040  224.9270 C   0  0  0  0  0  0  0  0  0  0  0  0
  139.1270   67.9280  225.0980 O   0  0  0  0  0  0  0  0  0  0  0  0
  139.4930   69.6840  223.5690 C   0  0  0  0  0  0  0  0  0  0  0  0
  140.0510   73.1630  222.2670 C   0  0  0  0  0  0  0  0  0  0  0  0
  141.8220   75.6480  222.1800 H   0  0  0  0  0  0  0  0  0  0  0  0
  142.0935   77.9674  221.6303 H   0  0  0  0  0  0  0  0  0  0  0  0
  140.5622   77.9171  220.6671 H   0  0  0  0  0  0  0  0  0  0  0  0
  139.4387   78.7464  222.3549 H   0  0  0  0  0  0  0  0  0  0  0  0
  139.9939   77.3593  223.3982 H   0  0  0  0  0  0  0  0  0  0  0  0
  141.0405   78.7794  224.6200 H   0  0  0  0  0  0  0  0  0  0  0  0
  140.5596   80.7395  222.2352 H   0  0  0  0  0  0  0  0  0  0  0  0
  139.6961   80.7937  223.7470 H   0  0  0  0  0  0  0  0  0  0  0  0
  141.8338   82.3837  223.4787 H   0  0  0  0  0  0  0  0  0  0  0  0
  141.7580   81.4948  224.9814 H   0  0  0  0  0  0  0  0  0  0  0  0
  143.4584   81.0348  222.5417 H   0  0  0  0  0  0  0  0  0  0  0  0
  143.8029   80.5893  224.2327 H   0  0  0  0  0  0  0  0  0  0  0  0
  142.6778   78.9554  222.0869 H   0  0  0  0  0  0  0  0  0  0  0  0
  143.1928   78.4332  223.6923 H   0  0  0  0  0  0  0  0  0  0  0  0
  140.1092   73.7196  218.9675 H   0  0  0  0  0  0  0  0  0  0  0  0
  140.0954   71.2401  218.9268 H   0  0  0  0  0  0  0  0  0  0  0  0
  140.0597   70.0300  221.0903 H   0  0  0  0  0  0  0  0  0  0  0  0
  141.3869   72.8823  226.7658 H   0  0  0  0  0  0  0  0  0  0  0  0
  141.4641   71.8707  229.0491 H   0  0  0  0  0  0  0  0  0  0  0  0
  140.6428   69.5492  229.4273 H   0  0  0  0  0  0  0  0  0  0  0  0
  139.7373   68.2111  227.5214 H   0  0  0  0  0  0  0  0  0  0  0  0
  140.0944   69.0681  222.8842 H   0  0  0  0  0  0  0  0  0  0  0  0
  138.4481   69.7070  223.2261 H   0  0  0  0  0  0  0  0  0  0  0  0
  140.0366   73.7132  223.2194 H   0  0  0  0  0  0  0  0  0  0  0  0
  1  2  2  0
  2  3  1  0
  3  4  1  0
  4  5  1  0
  5  6  1  0
  6  7  1  0
  7  8  1  0
  8  9  1  0
  9 10  1  0
  2 11  1  0
 11 12  2  0
 12 13  1  0
 13 14  2  0
 14 15  1  0
 15 16  1  0
 16 17  2  0
 17 18  1  0
 18 19  2  0
 19 20  1  0
 20 21  2  0
 21 22  1  0
 22 23  2  0
 23 24  1  0
 24 25  2  0
 24 26  1  0
 15 27  2  0
 10  6  1  0
 27 11  1  0
 26 16  1  0
 23 18  1  0
  3 28  1  0
  4 29  1  0
  4 30  1  0
  5 31  1  0
  5 32  1  0
  6 33  1  0
  7 34  1  0
  7 35  1  0
  8 36  1  0
  8 37  1  0
  9 38  1  0
  9 39  1  0
 10 40  1  0
 10 41  1  0
 12 42  1  0
 13 43  1  0
 14 44  1  0
 19 45  1  0
 20 46  1  0
 21 47  1  0
 22 48  1  0
 26 49  1  0
 26 50  1  0
 27 51  1  0
M  END
>  <smiles>  (3) 
O=C(NCCC1CCCC1)c1cccc(C2=Nc3ccccc3C(=O)C2)c1

>  <score_type>  (3) 
oracle

>  <origin>  (3) 
autodockgpu

>  <m_score__min__energy>  (3) 
-9.5099999999999998

>  <m_primary>  (3) 
energy

>  <rmsd>  (3) 
4.426053005376547

>  <m_score__min__rmsd>  (3) 
4.426053005376547

>  <meeko>  (3) 
{"free_energy": -9.33, "intermolecular_energy": -10.82, "internal_energy": -0.78, "cluster_size": 50, "cluster_id": 1, "rank_in_cluster": 21}

>  <energy>  (3) 
-9.5

>  <cluster_rmsd>  (3) 
0.16

>  <cluster>  (3) 
1

$$$$

     RDKit          3D

 51 54  0  0  0  0  0  0  0  0999 V2000
  138.9220   75.9830  220.8420 O   0  0  0  0  0  0  0  0  0  0  0  0
  140.0030   75.4260  221.2250 C   0  0  0  0  0  0  0  0  0  0  0  0
  141.1020   76.2200  221.6230 N   0  0  0  0  0  0  0  0  0  0  0  0
  141.0930   77.6700  221.6310 C   0  0  0  0  0  0  0  0  0  0  0  0
  140.1730   78.2010  222.6790 C   0  0  0  0  0  0  0  0  0  0  0  0
  140.7360   79.4030  223.4020 C   0  0  0  0  0  0  0  0  0  0  0  0
  140.8650   80.5440  222.4060 C   0  0  0  0  0  0  0  0  0  0  0  0
  141.7680   81.5030  223.1550 C   0  0  0  0  0  0  0  0  0  0  0  0
  142.7760   80.5790  223.7860 C   0  0  0  0  0  0  0  0  0  0  0  0
  142.1540   79.2120  223.8600 C   0  0  0  0  0  0  0  0  0  0  0  0
  140.0020   73.9700  221.2160 C   0  0  0  0  0  0  0  0  0  0  0  0
  140.0040   73.3020  220.0100 C   0  0  0  0  0  0  0  0  0  0  0  0
  140.0040   71.9260  219.9130 C   0  0  0  0  0  0  0  0  0  0  0  0
  140.0010   71.2170  221.0960 C   0  0  0  0  0  0  0  0  0  0  0  0
  140.0000   71.8160  222.3390 C   0  0  0  0  0  0  0  0  0  0  0  0
  139.9970   71.0230  223.5870 C   0  0  0  0  0  0  0  0  0  0  0  0
  140.4470   71.6110  224.6410 N   0  0  0  0  0  0  0  0  0  0  0  0
  140.5080   70.9790  225.9110 C   0  0  0  0  0  0  0  0  0  0  0  0
  141.0110   71.7120  226.9670 C   0  0  0  0  0  0  0  0  0  0  0  0
  141.0670   71.0920  228.2020 C   0  0  0  0  0  0  0  0  0  0  0  0
  140.6300   69.7720  228.3630 C   0  0  0  0  0  0  0  0  0  0  0  0
  140.1280   69.0610  227.2760 C   0  0  0  0  0  0  0  0  0  0  0  0
  140.0700   69.6790  226.0400 C   0  0  0  0  0  0  0  0  0  0  0  0
  139.5630   69.0210  224.8440 C   0  0  0  0  0  0  0  0  0  0  0  0
  139.1640   67.8330  224.9670 O   0  0  0  0  0  0  0  0  0  0  0  0
  139.4900   69.6570  223.5130 C   0  0  0  0  0  0  0  0  0  0  0  0
  140.0000   73.1980  222.3560 C   0  0  0  0  0  0  0  0  0  0  0  0
  141.9670   75.6940  221.9290 H   0  0  0  0  0  0  0  0  0  0  0  0
  142.1118   78.0335  221.8310 H   0  0  0  0  0  0  0  0  0  0  0  0
  140.7403   78.0203  220.6497 H   0  0  0  0  0  0  0  0  0  0  0  0
  139.2260   78.4911  222.2004 H   0  0  0  0  0  0  0  0  0  0  0  0
  140.0280   77.4054  223.4247 H   0  0  0  0  0  0  0  0  0  0  0  0
  140.0619   79.5794  224.2532 H   0  0  0  0  0  0  0  0  0  0  0  0
  141.3286   80.2066  221.4673 H   0  0  0  0  0  0  0  0  0  0  0  0
  139.9032   80.9818  222.1006 H   0  0  0  0  0  0  0  0  0  0  0  0
  142.2538   82.2105  222.4670 H   0  0  0  0  0  0  0  0  0  0  0  0
  141.2327   82.1299  223.8833 H   0  0  0  0  0  0  0  0  0  0  0  0
  143.6883   80.5435  223.1724 H   0  0  0  0  0  0  0  0  0  0  0  0
  143.0506   80.9339  224.7903 H   0  0  0  0  0  0  0  0  0  0  0  0
  142.6827   78.5106  223.1978 H   0  0  0  0  0  0  0  0  0  0  0  0
  142.2066   78.7892  224.8741 H   0  0  0  0  0  0  0  0  0  0  0  0
  140.0057   73.8934  219.0825 H   0  0  0  0  0  0  0  0  0  0  0  0
  140.0063   71.4178  218.9374 H   0  0  0  0  0  0  0  0  0  0  0  0
  139.9993   70.1181  221.0460 H   0  0  0  0  0  0  0  0  0  0  0  0
  141.3538   72.7484  226.8316 H   0  0  0  0  0  0  0  0  0  0  0  0
  141.4600   71.6433  229.0689 H   0  0  0  0  0  0  0  0  0  0  0  0
  140.6834   69.2943  229.3524 H   0  0  0  0  0  0  0  0  0  0  0  0
  139.7829   68.0237  227.3985 H   0  0  0  0  0  0  0  0  0  0  0  0
  140.0973   69.0807  222.7996 H   0  0  0  0  0  0  0  0  0  0  0  0
  138.4424   69.6771  223.1782 H   0  0  0  0  0  0  0  0  0  0  0  0
  139.9983   73.7075  223.3309 H   0  0  0  0  0  0  0  0  0  0  0  0
  1  2  2  0
  2  3  1  0
  3  4  1  0
  4  5  1  0
  5  6  1  0
  6  7  1  0
  7  8  1  0
  8  9  1  0
  9 10  1  0
  2 11  1  0
 11 12  2  0
 12 13  1  0
 13 14  2  0
 14 15  1  0
 15 16  1  0
 16 17  2  0
 17 18  1  0
 18 19  2  0
 19 20  1  0
 20 21  2  0
 21 22  1  0
 22 23  2  0
 23 24  1  0
 24 25  2  0
 24 26  1  0
 15 27  2  0
 10  6  1  0
 27 11  1  0
 26 16  1  0
 23 18  1  0
  3 28  1  0
  4 29  1  0
  4 30  1  0
  5 31  1  0
  5 32  1  0
  6 33  1  0
  7 34  1  0
  7 35  1  0
  8 36  1  0
  8 37  1  0
  9 38  1  0
  9 39  1  0
 10 40  1  0
 10 41  1  0
 12 42  1  0
 13 43  1  0
 14 44  1  0
 19 45  1  0
 20 46  1  0
 21 47  1  0
 22 48  1  0
 26 49  1  0
 26 50  1  0
 27 51  1  0
M  END
>  <smiles>  (4) 
O=C(NCCC1CCCC1)c1cccc(C2=Nc3ccccc3C(=O)C2)c1

>  <score_type>  (4) 
oracle

>  <origin>  (4) 
autodockgpu

>  <m_score__min__energy>  (4) 
-9.5099999999999998

>  <m_primary>  (4) 
energy

>  <rmsd>  (4) 
4.339059477859931

>  <m_score__min__rmsd>  (4) 
4.339059477859931

>  <meeko>  (4) 
{"free_energy": -9.4, "intermolecular_energy": -10.9, "internal_energy": -0.81, "cluster_size": 50, "cluster_id": 1, "rank_in_cluster": 12}

>  <energy>  (4) 
-9.49

>  <cluster_rmsd>  (4) 
0.15

>  <cluster>  (4) 
1

$$$$

     RDKit          3D

 51 54  0  0  0  0  0  0  0  0999 V2000
  139.1650   75.8660  220.4790 O   0  0  0  0  0  0  0  0  0  0  0  0
  140.1910   75.5880  221.1840 C   0  0  0  0  0  0  0  0  0  0  0  0
  140.8970   76.6210  221.8390 N   0  0  0  0  0  0  0  0  0  0  0  0
  140.5300   78.0220  221.7720 C   0  0  0  0  0  0  0  0  0  0  0  0
  141.4980   78.7970  220.9420 C   0  0  0  0  0  0  0  0  0  0  0  0
  142.2020   79.8850  221.7200 C   0  0  0  0  0  0  0  0  0  0  0  0
  142.5590   79.3390  223.0920 C   0  0  0  0  0  0  0  0  0  0  0  0
  142.8850   80.6080  223.8520 C   0  0  0  0  0  0  0  0  0  0  0  0
  141.8170   81.5580  223.3770 C   0  0  0  0  0  0  0  0  0  0  0  0
  141.3110   81.0470  222.0570 C   0  0  0  0  0  0  0  0  0  0  0  0
  140.5500   74.1790  221.2470 C   0  0  0  0  0  0  0  0  0  0  0  0
  141.1830   73.5930  220.1710 C   0  0  0  0  0  0  0  0  0  0  0  0
  141.5570   72.2660  220.1490 C   0  0  0  0  0  0  0  0  0  0  0  0
  141.2700   71.5180  221.2730 C   0  0  0  0  0  0  0  0  0  0  0  0
  140.6410   72.0360  222.3870 C   0  0  0  0  0  0  0  0  0  0  0  0
  140.3490   71.2030  223.5740 C   0  0  0  0  0  0  0  0  0  0  0  0
  140.7470   71.6640  224.7090 N   0  0  0  0  0  0  0  0  0  0  0  0
  140.5400   70.9800  225.9360 C   0  0  0  0  0  0  0  0  0  0  0  0
  141.0120   71.5750  227.0880 C   0  0  0  0  0  0  0  0  0  0  0  0
  140.8070   70.9030  228.2790 C   0  0  0  0  0  0  0  0  0  0  0  0
  140.1470   69.6690  228.3050 C   0  0  0  0  0  0  0  0  0  0  0  0
  139.6840   69.0970  227.1230 C   0  0  0  0  0  0  0  0  0  0  0  0
  139.8860   69.7660  225.9300 C   0  0  0  0  0  0  0  0  0  0  0  0
  139.4410   69.2520  224.6430 C   0  0  0  0  0  0  0  0  0  0  0  0
  138.8440   68.1420  224.6430 O   0  0  0  0  0  0  0  0  0  0  0  0
  139.6440   69.9450  223.3540 C   0  0  0  0  0  0  0  0  0  0  0  0
  140.2960   73.3720  222.3330 C   0  0  0  0  0  0  0  0  0  0  0  0
  141.7370   76.3200  222.4060 H   0  0  0  0  0  0  0  0  0  0  0  0
  139.5274   78.1089  221.3280 H   0  0  0  0  0  0  0  0  0  0  0  0
  140.5408   78.4329  222.7923 H   0  0  0  0  0  0  0  0  0  0  0  0
  142.2544   78.1035  220.5459 H   0  0  0  0  0  0  0  0  0  0  0  0
  140.9269   79.2836  220.1376 H   0  0  0  0  0  0  0  0  0  0  0  0
  143.0479   80.1991  221.0909 H   0  0  0  0  0  0  0  0  0  0  0  0
  141.7096   78.8070  223.5454 H   0  0  0  0  0  0  0  0  0  0  0  0
  143.3762   78.6027  223.0809 H   0  0  0  0  0  0  0  0  0  0  0  0
  142.8199   80.4482  224.9384 H   0  0  0  0  0  0  0  0  0  0  0  0
  143.9070   80.9742  223.6748 H   0  0  0  0  0  0  0  0  0  0  0  0
  140.9943   81.5930  224.1063 H   0  0  0  0  0  0  0  0  0  0  0  0
  142.2235   82.5744  223.2685 H   0  0  0  0  0  0  0  0  0  0  0  0
  140.2649   80.7187  222.1453 H   0  0  0  0  0  0  0  0  0  0  0  0
  141.3337   81.8235  221.2782 H   0  0  0  0  0  0  0  0  0  0  0  0
  141.3997   74.2134  219.2889 H   0  0  0  0  0  0  0  0  0  0  0  0
  142.0605   71.8242  219.2765 H   0  0  0  0  0  0  0  0  0  0  0  0
  141.5569   70.4561  221.2813 H   0  0  0  0  0  0  0  0  0  0  0  0
  141.5304   72.5448  227.0601 H   0  0  0  0  0  0  0  0  0  0  0  0
  141.1679   71.3446  229.2196 H   0  0  0  0  0  0  0  0  0  0  0  0
  139.9936   69.1494  229.2623 H   0  0  0  0  0  0  0  0  0  0  0  0
  139.1652   68.1272  227.1381 H   0  0  0  0  0  0  0  0  0  0  0  0
  140.2388   69.3053  222.6854 H   0  0  0  0  0  0  0  0  0  0  0  0
  138.6658   70.1526  222.8957 H   0  0  0  0  0  0  0  0  0  0  0  0
  139.7913   73.8150  223.2042 H   0  0  0  0  0  0  0  0  0  0  0  0
  1  2  2  0
  2  3  1  0
  3  4  1  0
  4  5  1  0
  5  6  1  0
  6  7  1  0
  7  8  1  0
  8  9  1  0
  9 10  1  0
  2 11  1  0
 11 12  2  0
 12 13  1  0
 13 14  2  0
 14 15  1  0
 15 16  1  0
 16 17  2  0
 17 18  1  0
 18 19  2  0
 19 20  1  0
 20 21  2  0
 21 22  1  0
 22 23  2  0
 23 24  1  0
 24 25  2  0
 24 26  1  0
 15 27  2  0
 10  6  1  0
 27 11  1  0
 26 16  1  0
 23 18  1  0
  3 28  1  0
  4 29  1  0
  4 30  1  0
  5 31  1  0
  5 32  1  0
  6 33  1  0
  7 34  1  0
  7 35  1  0
  8 36  1  0
  8 37  1  0
  9 38  1  0
  9 39  1  0
 10 40  1  0
 10 41  1  0
 12 42  1  0
 13 43  1  0
 14 44  1  0
 19 45  1  0
 20 46  1  0
 21 47  1  0
 22 48  1  0
 26 49  1  0
 26 50  1  0
 27 51  1  0
M  END
>  <smiles>  (5) 
O=C(NCCC1CCCC1)c1cccc(C2=Nc3ccccc3C(=O)C2)c1

>  <score_type>  (5) 
oracle

>  <origin>  (5) 
autodockgpu

>  <m_score__min__energy>  (5) 
-9.5099999999999998

>  <m_primary>  (5) 
energy

>  <rmsd>  (5) 
4.183229694301476

>  <m_score__min__rmsd>  (5) 
4.183229694301476

>  <meeko>  (5) 
{"free_energy": -9.21, "intermolecular_energy": -10.7, "internal_energy": -0.79, "cluster_size": 50, "cluster_id": 1, "rank_in_cluster": 30}

>  <energy>  (5) 
-9.48

>  <cluster_rmsd>  (5) 
0.23

>  <cluster>  (5) 
1

$$$$

     RDKit          3D

 51 54  0  0  0  0  0  0  0  0999 V2000
  139.3490   75.7390  222.6860 O   0  0  0  0  0  0  0  0  0  0  0  0
  139.7710   75.2760  221.5760 C   0  0  0  0  0  0  0  0  0  0  0  0
  140.0680   76.1580  220.5130 N   0  0  0  0  0  0  0  0  0  0  0  0
  139.9280   77.5990  220.5920 C   0  0  0  0  0  0  0  0  0  0  0  0
  141.2340   78.2550  220.8920 C   0  0  0  0  0  0  0  0  0  0  0  0
  141.1430   79.2610  222.0170 C   0  0  0  0  0  0  0  0  0  0  0  0
  142.1560   80.3630  221.7560 C   0  0  0  0  0  0  0  0  0  0  0  0
  142.2160   81.0490  223.1060 C   0  0  0  0  0  0  0  0  0  0  0  0
  142.1930   79.8870  224.0650 C   0  0  0  0  0  0  0  0  0  0  0  0
  141.5940   78.7140  223.3420 C   0  0  0  0  0  0  0  0  0  0  0  0
  139.9110   73.8290  221.5060 C   0  0  0  0  0  0  0  0  0  0  0  0
  140.0790   73.2250  220.2780 C   0  0  0  0  0  0  0  0  0  0  0  0
  140.2180   71.8610  220.1240 C   0  0  0  0  0  0  0  0  0  0  0  0
  140.1840   71.0960  221.2720 C   0  0  0  0  0  0  0  0  0  0  0  0
  140.0200   71.6310  222.5340 C   0  0  0  0  0  0  0  0  0  0  0  0
  139.9880   70.7790  223.7430 C   0  0  0  0  0  0  0  0  0  0  0  0
  140.4530   71.3020  224.8240 N   0  0  0  0  0  0  0  0  0  0  0  0
  140.4890   70.6090  226.0630 C   0  0  0  0  0  0  0  0  0  0  0  0
  141.0110   71.2750  227.1530 C   0  0  0  0  0  0  0  0  0  0  0  0
  141.0440   70.5940  228.3570 C   0  0  0  0  0  0  0  0  0  0  0  0
  140.5640   69.2830  228.4540 C   0  0  0  0  0  0  0  0  0  0  0  0
  140.0440   68.6410  227.3340 C   0  0  0  0  0  0  0  0  0  0  0  0
  140.0090   69.3190  226.1290 C   0  0  0  0  0  0  0  0  0  0  0  0
  139.4860   68.7350  224.9020 C   0  0  0  0  0  0  0  0  0  0  0  0
  139.0480   67.5560  224.9680 O   0  0  0  0  0  0  0  0  0  0  0  0
  139.4370   69.4360  223.6020 C   0  0  0  0  0  0  0  0  0  0  0  0
  139.8860   73.0040  222.6080 C   0  0  0  0  0  0  0  0  0  0  0  0
  140.4130   75.7080  219.6200 H   0  0  0  0  0  0  0  0  0  0  0  0
  139.5505   77.9756  219.6299 H   0  0  0  0  0  0  0  0  0  0  0  0
  139.2258   77.8355  221.4050 H   0  0  0  0  0  0  0  0  0  0  0  0
  141.9602   77.4783  221.1737 H   0  0  0  0  0  0  0  0  0  0  0  0
  141.5455   78.7985  219.9878 H   0  0  0  0  0  0  0  0  0  0  0  0
  140.0888   79.5732  222.0520 H   0  0  0  0  0  0  0  0  0  0  0  0
  143.1349   79.9492  221.4723 H   0  0  0  0  0  0  0  0  0  0  0  0
  141.8849   81.0321  220.9261 H   0  0  0  0  0  0  0  0  0  0  0  0
  143.1410   81.6345  223.2134 H   0  0  0  0  0  0  0  0  0  0  0  0
  141.3992   81.7676  223.2689 H   0  0  0  0  0  0  0  0  0  0  0  0
  143.2168   79.6462  224.3873 H   0  0  0  0  0  0  0  0  0  0  0  0
  141.6003   80.1344  224.9580 H   0  0  0  0  0  0  0  0  0  0  0  0
  142.3457   77.9239  223.1982 H   0  0  0  0  0  0  0  0  0  0  0  0
  140.7646   78.2617  223.9055 H   0  0  0  0  0  0  0  0  0  0  0  0
  140.1033   73.8597  219.3799 H   0  0  0  0  0  0  0  0  0  0  0  0
  140.3498   71.4044  219.1320 H   0  0  0  0  0  0  0  0  0  0  0  0
  140.2930   70.0056  221.1768 H   0  0  0  0  0  0  0  0  0  0  0  0
  141.3858   72.3057  227.0681 H   0  0  0  0  0  0  0  0  0  0  0  0
  141.4530   71.0896  229.2498 H   0  0  0  0  0  0  0  0  0  0  0  0
  140.5978   68.7576  229.4198 H   0  0  0  0  0  0  0  0  0  0  0  0
  139.6667   67.6103  227.4060 H   0  0  0  0  0  0  0  0  0  0  0  0
  140.0272   68.8751  222.8623 H   0  0  0  0  0  0  0  0  0  0  0  0
  138.3917   69.5060  223.2667 H   0  0  0  0  0  0  0  0  0  0  0  0
  139.7524   73.4620  223.5991 H   0  0  0  0  0  0  0  0  0  0  0  0
  1  2  2  0
  2  3  1  0
  3  4  1  0
  4  5  1  0
  5  6  1  0
  6  7  1  0
  7  8  1  0
  8  9  1  0
  9 10  1  0
  2 11  1  0
 11 12  2  0
 12 13  1  0
 13 14  2  0
 14 15  1  0
 15 16  1  0
 16 17  2  0
 17 18  1  0
 18 19  2  0
 19 20  1  0
 20 21  2  0
 21 22  1  0
 22 23  2  0
 23 24  1  0
 24 25  2  0
 24 26  1  0
 15 27  2  0
 10  6  1  0
 27 11  1  0
 26 16  1  0
 23 18  1  0
  3 28  1  0
  4 29  1  0
  4 30  1  0
  5 31  1  0
  5 32  1  0
  6 33  1  0
  7 34  1  0
  7 35  1  0
  8 36  1  0
  8 37  1  0
  9 38  1  0
  9 39  1  0
 10 40  1  0
 10 41  1  0
 12 42  1  0
 13 43  1  0
 14 44  1  0
 19 45  1  0
 20 46  1  0
 21 47  1  0
 22 48  1  0
 26 49  1  0
 26 50  1  0
 27 51  1  0
M  END
>  <smiles>  (6) 
O=C(NCCC1CCCC1)c1cccc(C2=Nc3ccccc3C(=O)C2)c1

>  <score_type>  (6) 
oracle

>  <origin>  (6) 
autodockgpu

>  <m_score__min__energy>  (6) 
-9.5099999999999998

>  <m_primary>  (6) 
energy

>  <rmsd>  (6) 
4.554379364593223

>  <m_score__min__rmsd>  (6) 
4.554379364593223

>  <meeko>  (6) 
{"free_energy": -8.68, "intermolecular_energy": -10.17, "internal_energy": -0.86, "cluster_size": 50, "cluster_id": 1, "rank_in_cluster": 47}

>  <energy>  (6) 
-9.46

>  <cluster_rmsd>  (6) 
0.23

>  <cluster>  (6) 
1

$$$$

     RDKit          3D

 51 54  0  0  0  0  0  0  0  0999 V2000
  138.6990   75.6650  220.7030 O   0  0  0  0  0  0  0  0  0  0  0  0
  139.8780   75.5670  221.1800 C   0  0  0  0  0  0  0  0  0  0  0  0
  140.5840   76.7320  221.5540 N   0  0  0  0  0  0  0  0  0  0  0  0
  140.0520   78.0760  221.4370 C   0  0  0  0  0  0  0  0  0  0  0  0
  140.1650   78.8180  222.7270 C   0  0  0  0  0  0  0  0  0  0  0  0
  141.2210   79.8990  222.6930 C   0  0  0  0  0  0  0  0  0  0  0  0
  142.5460   79.2870  223.1150 C   0  0  0  0  0  0  0  0  0  0  0  0
  143.3770   80.5220  223.4000 C   0  0  0  0  0  0  0  0  0  0  0  0
  142.3960   81.4220  224.1050 C   0  0  0  0  0  0  0  0  0  0  0  0
  141.0130   80.9670  223.7290 C   0  0  0  0  0  0  0  0  0  0  0  0
  140.4030   74.2150  221.2950 C   0  0  0  0  0  0  0  0  0  0  0  0
  141.2230   73.7210  220.3030 C   0  0  0  0  0  0  0  0  0  0  0  0
  141.7620   72.4520  220.3350 C   0  0  0  0  0  0  0  0  0  0  0  0
  141.4470   71.6670  221.4250 C   0  0  0  0  0  0  0  0  0  0  0  0
  140.6350   72.0940  222.4560 C   0  0  0  0  0  0  0  0  0  0  0  0
  140.3180   71.2240  223.6100 C   0  0  0  0  0  0  0  0  0  0  0  0
  140.7250   71.6310  224.7620 N   0  0  0  0  0  0  0  0  0  0  0  0
  140.4970   70.9050  225.9620 C   0  0  0  0  0  0  0  0  0  0  0  0
  140.9820   71.4430  227.1360 C   0  0  0  0  0  0  0  0  0  0  0  0
  140.7570   70.7310  228.3010 C   0  0  0  0  0  0  0  0  0  0  0  0
  140.0650   69.5150  228.2770 C   0  0  0  0  0  0  0  0  0  0  0  0
  139.5900   69.0010  227.0740 C   0  0  0  0  0  0  0  0  0  0  0  0
  139.8120   69.7100  225.9070 C   0  0  0  0  0  0  0  0  0  0  0  0
  139.3570   69.2570  224.6010 C   0  0  0  0  0  0  0  0  0  0  0  0
  138.7310   68.1650  224.5580 O   0  0  0  0  0  0  0  0  0  0  0  0
  139.5810   69.9950  223.3400 C   0  0  0  0  0  0  0  0  0  0  0  0
  140.1320   73.3760  222.3530 C   0  0  0  0  0  0  0  0  0  0  0  0
  141.5560   76.5800  221.9410 H   0  0  0  0  0  0  0  0  0  0  0  0
  140.6138   78.6175  220.6617 H   0  0  0  0  0  0  0  0  0  0  0  0
  138.9875   78.0060  221.1688 H   0  0  0  0  0  0  0  0  0  0  0  0
  139.1936   79.2831  222.9507 H   0  0  0  0  0  0  0  0  0  0  0  0
  140.4593   78.0931  223.5002 H   0  0  0  0  0  0  0  0  0  0  0  0
  141.1850   80.3172  221.6762 H   0  0  0  0  0  0  0  0  0  0  0  0
  142.4318   78.6641  224.0144 H   0  0  0  0  0  0  0  0  0  0  0  0
  142.9872   78.6150  222.3641 H   0  0  0  0  0  0  0  0  0  0  0  0
  144.2336   80.2836  224.0476 H   0  0  0  0  0  0  0  0  0  0  0  0
  143.8143   80.9732  222.4971 H   0  0  0  0  0  0  0  0  0  0  0  0
  142.5329   81.3467  225.1938 H   0  0  0  0  0  0  0  0  0  0  0  0
  142.5519   82.4704  223.8107 H   0  0  0  0  0  0  0  0  0  0  0  0
  140.4893   80.5580  224.6056 H   0  0  0  0  0  0  0  0  0  0  0  0
  140.3955   81.7946  223.3498 H   0  0  0  0  0  0  0  0  0  0  0  0
  141.4584   74.3692  219.4460 H   0  0  0  0  0  0  0  0  0  0  0  0
  142.4129   72.0828  219.5288 H   0  0  0  0  0  0  0  0  0  0  0  0
  141.8638   70.6502  221.4748 H   0  0  0  0  0  0  0  0  0  0  0  0
  141.5256   72.3993  227.1457 H   0  0  0  0  0  0  0  0  0  0  0  0
  141.1270   71.1261  229.2586 H   0  0  0  0  0  0  0  0  0  0  0  0
  139.8957   68.9628  229.2132 H   0  0  0  0  0  0  0  0  0  0  0  0
  139.0461   68.0451  227.0515 H   0  0  0  0  0  0  0  0  0  0  0  0
  140.1602   69.3667  222.6474 H   0  0  0  0  0  0  0  0  0  0  0  0
  138.6096   70.2462  222.8892 H   0  0  0  0  0  0  0  0  0  0  0  0
  139.4807   73.7465  223.1583 H   0  0  0  0  0  0  0  0  0  0  0  0
  1  2  2  0
  2  3  1  0
  3  4  1  0
  4  5  1  0
  5  6  1  0
  6  7  1  0
  7  8  1  0
  8  9  1  0
  9 10  1  0
  2 11  1  0
 11 12  2  0
 12 13  1  0
 13 14  2  0
 14 15  1  0
 15 16  1  0
 16 17  2  0
 17 18  1  0
 18 19  2  0
 19 20  1  0
 20 21  2  0
 21 22  1  0
 22 23  2  0
 23 24  1  0
 24 25  2  0
 24 26  1  0
 15 27  2  0
 10  6  1  0
 27 11  1  0
 26 16  1  0
 23 18  1  0
  3 28  1  0
  4 29  1  0
  4 30  1  0
  5 31  1  0
  5 32  1  0
  6 33  1  0
  7 34  1  0
  7 35  1  0
  8 36  1  0
  8 37  1  0
  9 38  1  0
  9 39  1  0
 10 40  1  0
 10 41  1  0
 12 42  1  0
 13 43  1  0
 14 44  1  0
 19 45  1  0
 20 46  1  0
 21 47  1  0
 22 48  1  0
 26 49  1  0
 26 50  1  0
 27 51  1  0
M  END
>  <smiles>  (7) 
O=C(NCCC1CCCC1)c1cccc(C2=Nc3ccccc3C(=O)C2)c1

>  <score_type>  (7) 
oracle

>  <origin>  (7) 
autodockgpu

>  <m_score__min__energy>  (7) 
-9.5099999999999998

>  <m_primary>  (7) 
energy

>  <rmsd>  (7) 
4.404434021885052

>  <m_score__min__rmsd>  (7) 
4.404434021885052

>  <meeko>  (7) 
{"free_energy": -9.02, "intermolecular_energy": -10.51, "internal_energy": -0.76, "cluster_size": 50, "cluster_id": 1, "rank_in_cluster": 39}

>  <energy>  (7) 
-9.46

>  <cluster_rmsd>  (7) 
0.32

>  <cluster>  (7) 
1

$$$$

     RDKit          3D

 51 54  0  0  0  0  0  0  0  0999 V2000
  140.6790   76.3280  220.6410 O   0  0  0  0  0  0  0  0  0  0  0  0
  139.8130   75.5980  221.2270 C   0  0  0  0  0  0  0  0  0  0  0  0
  138.6740   76.1900  221.8160 N   0  0  0  0  0  0  0  0  0  0  0  0
  138.4030   77.6150  221.8030 C   0  0  0  0  0  0  0  0  0  0  0  0
  139.0200   78.2950  222.9780 C   0  0  0  0  0  0  0  0  0  0  0  0
  140.2490   79.0980  222.6140 C   0  0  0  0  0  0  0  0  0  0  0  0
  141.4750   78.3380  223.0930 C   0  0  0  0  0  0  0  0  0  0  0  0
  142.5470   79.4060  223.0130 C   0  0  0  0  0  0  0  0  0  0  0  0
  141.8340   80.6260  223.5330 C   0  0  0  0  0  0  0  0  0  0  0  0
  140.3580   80.3940  223.3660 C   0  0  0  0  0  0  0  0  0  0  0  0
  140.0920   74.1690  221.2340 C   0  0  0  0  0  0  0  0  0  0  0  0
  140.4900   73.5520  220.0670 C   0  0  0  0  0  0  0  0  0  0  0  0
  140.7740   72.2050  219.9870 C   0  0  0  0  0  0  0  0  0  0  0  0
  140.6440   71.4700  221.1480 C   0  0  0  0  0  0  0  0  0  0  0  0
  140.2510   72.0190  222.3520 C   0  0  0  0  0  0  0  0  0  0  0  0
  140.1220   71.1990  223.5770 C   0  0  0  0  0  0  0  0  0  0  0  0
  140.5910   71.7120  224.6610 N   0  0  0  0  0  0  0  0  0  0  0  0
  140.5400   71.0460  225.9150 C   0  0  0  0  0  0  0  0  0  0  0  0
  141.0760   71.6980  227.0070 C   0  0  0  0  0  0  0  0  0  0  0  0
  141.0240   71.0440  228.2250 C   0  0  0  0  0  0  0  0  0  0  0  0
  140.4490   69.7730  228.3340 C   0  0  0  0  0  0  0  0  0  0  0  0
  139.9180   69.1440  227.2110 C   0  0  0  0  0  0  0  0  0  0  0  0
  139.9680   69.7950  225.9910 C   0  0  0  0  0  0  0  0  0  0  0  0
  139.4410   69.2220  224.7620 C   0  0  0  0  0  0  0  0  0  0  0  0
  138.9190   68.0780  224.8370 O   0  0  0  0  0  0  0  0  0  0  0  0
  139.4820   69.8950  223.4460 C   0  0  0  0  0  0  0  0  0  0  0  0
  139.9840   73.3740  222.3530 C   0  0  0  0  0  0  0  0  0  0  0  0
  137.9970   75.5270  222.2860 H   0  0  0  0  0  0  0  0  0  0  0  0
  138.8151   78.0496  220.8804 H   0  0  0  0  0  0  0  0  0  0  0  0
  137.3138   77.7615  221.8497 H   0  0  0  0  0  0  0  0  0  0  0  0
  138.2762   78.9731  223.4217 H   0  0  0  0  0  0  0  0  0  0  0  0
  139.3337   77.5130  223.6851 H   0  0  0  0  0  0  0  0  0  0  0  0
  140.1806   79.2707  221.5298 H   0  0  0  0  0  0  0  0  0  0  0  0
  141.3454   77.9760  224.1236 H   0  0  0  0  0  0  0  0  0  0  0  0
  141.6988   77.4349  222.5062 H   0  0  0  0  0  0  0  0  0  0  0  0
  143.4100   79.1506  223.6454 H   0  0  0  0  0  0  0  0  0  0  0  0
  142.9590   79.5377  222.0016 H   0  0  0  0  0  0  0  0  0  0  0  0
  142.0725   80.7753  224.5964 H   0  0  0  0  0  0  0  0  0  0  0  0
  142.1495   81.5233  222.9805 H   0  0  0  0  0  0  0  0  0  0  0  0
  139.8661   80.3142  224.3466 H   0  0  0  0  0  0  0  0  0  0  0  0
  139.8679   81.2224  222.8335 H   0  0  0  0  0  0  0  0  0  0  0  0
  140.5855   74.1629  219.1572 H   0  0  0  0  0  0  0  0  0  0  0  0
  141.0894   71.7382  219.0422 H   0  0  0  0  0  0  0  0  0  0  0  0
  140.8646   70.3929  221.1120 H   0  0  0  0  0  0  0  0  0  0  0  0
  141.5263   72.6972  226.9127 H   0  0  0  0  0  0  0  0  0  0  0  0
  141.4403   71.5297  229.1199 H   0  0  0  0  0  0  0  0  0  0  0  0
  140.4163   69.2686  229.3110 H   0  0  0  0  0  0  0  0  0  0  0  0
  139.4656   68.1447  227.2924 H   0  0  0  0  0  0  0  0  0  0  0  0
  140.0536   69.2773  222.7377 H   0  0  0  0  0  0  0  0  0  0  0  0
  138.4552   70.0303  223.0754 H   0  0  0  0  0  0  0  0  0  0  0  0
  139.6686   73.8425  223.2969 H   0  0  0  0  0  0  0  0  0  0  0  0
  1  2  2  0
  2  3  1  0
  3  4  1  0
  4  5  1  0
  5  6  1  0
  6  7  1  0
  7  8  1  0
  8  9  1  0
  9 10  1  0
  2 11  1  0
 11 12  2  0
 12 13  1  0
 13 14  2  0
 14 15  1  0
 15 16  1  0
 16 17  2  0
 17 18  1  0
 18 19  2  0
 19 20  1  0
 20 21  2  0
 21 22  1  0
 22 23  2  0
 23 24  1  0
 24 25  2  0
 24 26  1  0
 15 27  2  0
 10  6  1  0
 27 11  1  0
 26 16  1  0
 23 18  1  0
  3 28  1  0
  4 29  1  0
  4 30  1  0
  5 31  1  0
  5 32  1  0
  6 33  1  0
  7 34  1  0
  7 35  1  0
  8 36  1  0
  8 37  1  0
  9 38  1  0
  9 39  1  0
 10 40  1  0
 10 41  1  0
 12 42  1  0
 13 43  1  0
 14 44  1  0
 19 45  1  0
 20 46  1  0
 21 47  1  0
 22 48  1  0
 26 49  1  0
 26 50  1  0
 27 51  1  0
M  END
>  <smiles>  (8) 
O=C(NCCC1CCCC1)c1cccc(C2=Nc3ccccc3C(=O)C2)c1

>  <score_type>  (8) 
oracle

>  <origin>  (8) 
autodockgpu

>  <m_score__min__energy>  (8) 
-9.5099999999999998

>  <m_primary>  (8) 
energy

>  <rmsd>  (8) 
4.602594451145285

>  <m_score__min__rmsd>  (8) 
4.602594451145285

>  <meeko>  (8) 
{"free_energy": -8.55, "intermolecular_energy": -10.04, "internal_energy": -0.96, "cluster_size": 50, "cluster_id": 1, "rank_in_cluster": 50}

>  <energy>  (8) 
-9.45

>  <cluster_rmsd>  (8) 
0.27

>  <cluster>  (8) 
1

$$$$

     RDKit          3D

 51 54  0  0  0  0  0  0  0  0999 V2000
  142.1440   74.6920  221.2040 O   0  0  0  0  0  0  0  0  0  0  0  0
  140.8740   74.7970  221.2180 C   0  0  0  0  0  0  0  0  0  0  0  0
  140.2710   76.0680  221.0880 N   0  0  0  0  0  0  0  0  0  0  0  0
  141.0120   77.3050  220.9320 C   0  0  0  0  0  0  0  0  0  0  0  0
  140.5410   78.3450  221.8930 C   0  0  0  0  0  0  0  0  0  0  0  0
  141.5920   79.3880  222.1940 C   0  0  0  0  0  0  0  0  0  0  0  0
  142.0450   79.2100  223.6330 C   0  0  0  0  0  0  0  0  0  0  0  0
  142.7720   80.5150  223.8890 C   0  0  0  0  0  0  0  0  0  0  0  0
  141.8800   81.5250  223.2160 C   0  0  0  0  0  0  0  0  0  0  0  0
  141.0550   80.7910  222.1950 C   0  0  0  0  0  0  0  0  0  0  0  0
  140.1380   73.5510  221.3730 C   0  0  0  0  0  0  0  0  0  0  0  0
  139.2830   73.1420  220.3710 C   0  0  0  0  0  0  0  0  0  0  0  0
  138.5490   71.9760  220.4390 C   0  0  0  0  0  0  0  0  0  0  0  0
  138.7010   71.2070  221.5750 C   0  0  0  0  0  0  0  0  0  0  0  0
  139.5380   71.5530  222.6170 C   0  0  0  0  0  0  0  0  0  0  0  0
  139.6760   70.7040  223.8200 C   0  0  0  0  0  0  0  0  0  0  0  0
  140.1790   71.2670  224.8630 N   0  0  0  0  0  0  0  0  0  0  0  0
  140.3740   70.5810  226.0920 C   0  0  0  0  0  0  0  0  0  0  0  0
  140.9230   71.2910  227.1400 C   0  0  0  0  0  0  0  0  0  0  0  0
  141.1090   70.6190  228.3340 C   0  0  0  0  0  0  0  0  0  0  0  0
  140.7530   69.2710  228.4630 C   0  0  0  0  0  0  0  0  0  0  0  0
  140.2020   68.5840  227.3840 C   0  0  0  0  0  0  0  0  0  0  0  0
  140.0130   69.2540  226.1890 C   0  0  0  0  0  0  0  0  0  0  0  0
  139.4460   68.6260  225.0060 C   0  0  0  0  0  0  0  0  0  0  0  0
  139.1170   67.4130  225.1000 O   0  0  0  0  0  0  0  0  0  0  0  0
  139.2330   69.3180  223.7170 C   0  0  0  0  0  0  0  0  0  0  0  0
  140.2390   72.7350  222.4770 C   0  0  0  0  0  0  0  0  0  0  0  0
  139.2140   76.0840  221.1090 H   0  0  0  0  0  0  0  0  0  0  0  0
  142.0792   77.1083  221.1117 H   0  0  0  0  0  0  0  0  0  0  0  0
  140.8515   77.6789  219.9100 H   0  0  0  0  0  0  0  0  0  0  0  0
  139.6615   78.8470  221.4634 H   0  0  0  0  0  0  0  0  0  0  0  0
  140.3015   77.8360  222.8383 H   0  0  0  0  0  0  0  0  0  0  0  0
  142.3675   79.2581  221.4248 H   0  0  0  0  0  0  0  0  0  0  0  0
  141.1876   79.0887  224.3113 H   0  0  0  0  0  0  0  0  0  0  0  0
  142.6619   78.3146  223.7998 H   0  0  0  0  0  0  0  0  0  0  0  0
  142.8580   80.7169  224.9669 H   0  0  0  0  0  0  0  0  0  0  0  0
  143.8048   80.5222  223.5105 H   0  0  0  0  0  0  0  0  0  0  0  0
  141.2225   81.9995  223.9593 H   0  0  0  0  0  0  0  0  0  0  0  0
  142.4798   82.3122  222.7358 H   0  0  0  0  0  0  0  0  0  0  0  0
  139.9925   80.7977  222.4797 H   0  0  0  0  0  0  0  0  0  0  0  0
  141.1185   81.2576  221.2009 H   0  0  0  0  0  0  0  0  0  0  0  0
  139.1818   73.7745  219.4767 H   0  0  0  0  0  0  0  0  0  0  0  0
  137.8736   71.6730  219.6253 H   0  0  0  0  0  0  0  0  0  0  0  0
  138.1268   70.2721  221.6541 H   0  0  0  0  0  0  0  0  0  0  0  0
  141.2016   72.3494  227.0300 H   0  0  0  0  0  0  0  0  0  0  0  0
  141.5424   71.1505  229.1940 H   0  0  0  0  0  0  0  0  0  0  0  0
  140.9092   68.7524  229.4205 H   0  0  0  0  0  0  0  0  0  0  0  0
  139.9214   67.5248  227.4808 H   0  0  0  0  0  0  0  0  0  0  0  0
  139.8082   68.8085  222.9298 H   0  0  0  0  0  0  0  0  0  0  0  0
  138.1621   69.2971  223.4667 H   0  0  0  0  0  0  0  0  0  0  0  0
  140.9135   73.0403  223.2906 H   0  0  0  0  0  0  0  0  0  0  0  0
  1  2  2  0
  2  3  1  0
  3  4  1  0
  4  5  1  0
  5  6  1  0
  6  7  1  0
  7  8  1  0
  8  9  1  0
  9 10  1  0
  2 11  1  0
 11 12  2  0
 12 13  1  0
 13 14  2  0
 14 15  1  0
 15 16  1  0
 16 17  2  0
 17 18  1  0
 18 19  2  0
 19 20  1  0
 20 21  2  0
 21 22  1  0
 22 23  2  0
 23 24  1  0
 24 25  2  0
 24 26  1  0
 15 27  2  0
 10  6  1  0
 27 11  1  0
 26 16  1  0
 23 18  1  0
  3 28  1  0
  4 29  1  0
  4 30  1  0
  5 31  1  0
  5 32  1  0
  6 33  1  0
  7 34  1  0
  7 35  1  0
  8 36  1  0
  8 37  1  0
  9 38  1  0
  9 39  1  0
 10 40  1  0
 10 41  1  0
 12 42  1  0
 13 43  1  0
 14 44  1  0
 19 45  1  0
 20 46  1  0
 21 47  1  0
 22 48  1  0
 26 49  1  0
 26 50  1  0
 27 51  1  0
M  END
>  <smiles>  (9) 
O=C(NCCC1CCCC1)c1cccc(C2=Nc3ccccc3C(=O)C2)c1

>  <score_type>  (9) 
oracle

>  <origin>  (9) 
autodockgpu

>  <m_score__min__energy>  (9) 
-9.5099999999999998

>  <m_primary>  (9) 
energy

>  <rmsd>  (9) 
4.625645070190071

>  <m_score__min__rmsd>  (9) 
4.625645070190071

>  <meeko>  (9) 
{"free_energy": -8.92, "intermolecular_energy": -10.41, "internal_energy": -0.72, "cluster_size": 50, "cluster_id": 1, "rank_in_cluster": 43}

>  <energy>  (9) 
-9.45

>  <cluster_rmsd>  (9) 
0.27

>  <cluster>  (9) 
1

$$$$

     RDKit          3D

 51 54  0  0  0  0  0  0  0  0999 V2000
  138.7790   75.8010  221.2530 O   0  0  0  0  0  0  0  0  0  0  0  0
  139.8980   75.3340  221.6480 C   0  0  0  0  0  0  0  0  0  0  0  0
  140.8930   76.2100  222.1350 N   0  0  0  0  0  0  0  0  0  0  0  0
  140.7330   77.6480  222.2270 C   0  0  0  0  0  0  0  0  0  0  0  0
  141.7240   78.3600  221.3690 C   0  0  0  0  0  0  0  0  0  0  0  0
  142.3200   79.5760  222.0410 C   0  0  0  0  0  0  0  0  0  0  0  0
  142.2080   79.3930  223.5460 C   0  0  0  0  0  0  0  0  0  0  0  0
  142.4730   80.7990  224.0450 C   0  0  0  0  0  0  0  0  0  0  0  0
  141.7120   81.6460  223.0590 C   0  0  0  0  0  0  0  0  0  0  0  0
  141.5290   80.8320  221.8090 C   0  0  0  0  0  0  0  0  0  0  0  0
  140.0490   73.8890  221.5540 C   0  0  0  0  0  0  0  0  0  0  0  0
  140.2480   73.3090  220.3190 C   0  0  0  0  0  0  0  0  0  0  0  0
  140.4000   71.9500  220.1420 C   0  0  0  0  0  0  0  0  0  0  0  0
  140.3470   71.1640  221.2750 C   0  0  0  0  0  0  0  0  0  0  0  0
  140.1520   71.6730  222.5420 C   0  0  0  0  0  0  0  0  0  0  0  0
  140.0990   70.7980  223.7340 C   0  0  0  0  0  0  0  0  0  0  0  0
  140.5500   71.2990  224.8320 N   0  0  0  0  0  0  0  0  0  0  0  0
  140.5660   70.5820  226.0580 C   0  0  0  0  0  0  0  0  0  0  0  0
  141.0740   71.2250  227.1680 C   0  0  0  0  0  0  0  0  0  0  0  0
  141.0870   70.5210  228.3590 C   0  0  0  0  0  0  0  0  0  0  0  0
  140.6020   69.2100  228.4240 C   0  0  0  0  0  0  0  0  0  0  0  0
  140.0970   68.5910  227.2840 C   0  0  0  0  0  0  0  0  0  0  0  0
  140.0820   69.2920  226.0910 C   0  0  0  0  0  0  0  0  0  0  0  0
  139.5750   68.7340  224.8470 C   0  0  0  0  0  0  0  0  0  0  0  0
  139.1330   67.5540  224.8830 O   0  0  0  0  0  0  0  0  0  0  0  0
  139.5470   69.4600  223.5600 C   0  0  0  0  0  0  0  0  0  0  0  0
  140.0070   73.0430  222.6390 C   0  0  0  0  0  0  0  0  0  0  0  0
  141.7970   75.7570  222.4460 H   0  0  0  0  0  0  0  0  0  0  0  0
  139.7177   77.9171  221.9004 H   0  0  0  0  0  0  0  0  0  0  0  0
  140.8987   77.9495  223.2718 H   0  0  0  0  0  0  0  0  0  0  0  0
  142.5376   77.6627  221.1203 H   0  0  0  0  0  0  0  0  0  0  0  0
  141.1926   78.7074  220.4707 H   0  0  0  0  0  0  0  0  0  0  0  0
  143.3402   79.6670  221.6398 H   0  0  0  0  0  0  0  0  0  0  0  0
  141.2044   79.0472  223.8346 H   0  0  0  0  0  0  0  0  0  0  0  0
  142.8925   78.6362  223.9567 H   0  0  0  0  0  0  0  0  0  0  0  0
  142.0890   80.9369  225.0665 H   0  0  0  0  0  0  0  0  0  0  0  0
  143.5428   81.0487  224.1024 H   0  0  0  0  0  0  0  0  0  0  0  0
  140.7314   81.9184  223.4764 H   0  0  0  0  0  0  0  0  0  0  0  0
  142.2620   82.5731  222.8399 H   0  0  0  0  0  0  0  0  0  0  0  0
  140.4659   80.5958  221.6541 H   0  0  0  0  0  0  0  0  0  0  0  0
  141.8666   81.3721  220.9122 H   0  0  0  0  0  0  0  0  0  0  0  0
  140.2873   73.9608  219.4338 H   0  0  0  0  0  0  0  0  0  0  0  0
  140.5561   71.5130  219.1447 H   0  0  0  0  0  0  0  0  0  0  0  0
  140.4663   70.0764  221.1619 H   0  0  0  0  0  0  0  0  0  0  0  0
  141.4534   72.2558  227.1085 H   0  0  0  0  0  0  0  0  0  0  0  0
  141.4840   70.9983  229.2671 H   0  0  0  0  0  0  0  0  0  0  0  0
  140.6199   68.6662  229.3800 H   0  0  0  0  0  0  0  0  0  0  0  0
  139.7157   67.5603  227.3308 H   0  0  0  0  0  0  0  0  0  0  0  0
  140.1465   68.9115  222.8185 H   0  0  0  0  0  0  0  0  0  0  0  0
  138.5068   69.5395  223.2112 H   0  0  0  0  0  0  0  0  0  0  0  0
  139.8497   73.4811  223.6357 H   0  0  0  0  0  0  0  0  0  0  0  0
  1  2  2  0
  2  3  1  0
  3  4  1  0
  4  5  1  0
  5  6  1  0
  6  7  1  0
  7  8  1  0
  8  9  1  0
  9 10  1  0
  2 11  1  0
 11 12  2  0
 12 13  1  0
 13 14  2  0
 14 15  1  0
 15 16  1  0
 16 17  2  0
 17 18  1  0
 18 19  2  0
 19 20  1  0
 20 21  2  0
 21 22  1  0
 22 23  2  0
 23 24  1  0
 24 25  2  0
 24 26  1  0
 15 27  2  0
 10  6  1  0
 27 11  1  0
 26 16  1  0
 23 18  1  0
  3 28  1  0
  4 29  1  0
  4 30  1  0
  5 31  1  0
  5 32  1  0
  6 33  1  0
  7 34  1  0
  7 35  1  0
  8 36  1  0
  8 37  1  0
  9 38  1  0
  9 39  1  0
 10 40  1  0
 10 41  1  0
 12 42  1  0
 13 43  1  0
 14 44  1  0
 19 45  1  0
 20 46  1  0
 21 47  1  0
 22 48  1  0
 26 49  1  0
 26 50  1  0
 27 51  1  0
M  END
>  <smiles>  (10) 
O=C(NCCC1CCCC1)c1cccc(C2=Nc3ccccc3C(=O)C2)c1

>  <score_type>  (10) 
oracle

>  <origin>  (10) 
autodockgpu

>  <m_score__min__energy>  (10) 
-9.5099999999999998

>  <m_primary>  (10) 
energy

>  <rmsd>  (10) 
4.349239041659448

>  <m_score__min__rmsd>  (10) 
4.349239041659448

>  <meeko>  (10) 
{"free_energy": -9.27, "intermolecular_energy": -10.77, "internal_energy": -0.75, "cluster_size": 50, "cluster_id": 1, "rank_in_cluster": 25}

>  <energy>  (10) 
-9.45

>  <cluster_rmsd>  (10) 
0.35

>  <cluster>  (10) 
1

$$$$

     RDKit          3D

 51 54  0  0  0  0  0  0  0  0999 V2000
  138.8620   75.7630  220.8150 O   0  0  0  0  0  0  0  0  0  0  0  0
  140.0690   75.5650  221.1760 C   0  0  0  0  0  0  0  0  0  0  0  0
  140.9070   76.6650  221.4670 N   0  0  0  0  0  0  0  0  0  0  0  0
  140.4840   78.0500  221.3860 C   0  0  0  0  0  0  0  0  0  0  0  0
  139.8560   78.5000  222.6610 C   0  0  0  0  0  0  0  0  0  0  0  0
  140.7610   79.3920  223.4810 C   0  0  0  0  0  0  0  0  0  0  0  0
  140.7060   80.7940  222.8990 C   0  0  0  0  0  0  0  0  0  0  0  0
  141.9100   81.4440  223.5510 C   0  0  0  0  0  0  0  0  0  0  0  0
  142.9450   80.3510  223.4890 C   0  0  0  0  0  0  0  0  0  0  0  0
  142.2170   79.0440  223.3490 C   0  0  0  0  0  0  0  0  0  0  0  0
  140.4840   74.1720  221.2570 C   0  0  0  0  0  0  0  0  0  0  0  0
  141.1790   73.6120  220.2070 C   0  0  0  0  0  0  0  0  0  0  0  0
  141.6090   72.3010  220.2030 C   0  0  0  0  0  0  0  0  0  0  0  0
  141.3120   71.5440  221.3170 C   0  0  0  0  0  0  0  0  0  0  0  0
  140.6210   72.0370  222.4060 C   0  0  0  0  0  0  0  0  0  0  0  0
  140.3200   71.1940  223.5840 C   0  0  0  0  0  0  0  0  0  0  0  0
  140.7170   71.6430  224.7240 N   0  0  0  0  0  0  0  0  0  0  0  0
  140.5020   70.9480  225.9440 C   0  0  0  0  0  0  0  0  0  0  0  0
  140.9730   71.5300  227.1030 C   0  0  0  0  0  0  0  0  0  0  0  0
  140.7610   70.8480  228.2880 C   0  0  0  0  0  0  0  0  0  0  0  0
  140.0940   69.6170  228.2990 C   0  0  0  0  0  0  0  0  0  0  0  0
  139.6320   69.0580  227.1100 C   0  0  0  0  0  0  0  0  0  0  0  0
  139.8420   69.7380  225.9240 C   0  0  0  0  0  0  0  0  0  0  0  0
  139.3980   69.2380  224.6320 C   0  0  0  0  0  0  0  0  0  0  0  0
  138.7950   68.1320  224.6190 O   0  0  0  0  0  0  0  0  0  0  0  0
  139.6100   69.9430  223.3500 C   0  0  0  0  0  0  0  0  0  0  0  0
  140.2230   73.3580  222.3360 C   0  0  0  0  0  0  0  0  0  0  0  0
  141.8950   76.4290  221.7600 H   0  0  0  0  0  0  0  0  0  0  0  0
  141.3605   78.6807  221.1761 H   0  0  0  0  0  0  0  0  0  0  0  0
  139.7389   78.1390  220.5816 H   0  0  0  0  0  0  0  0  0  0  0  0
  138.9375   79.0563  222.4225 H   0  0  0  0  0  0  0  0  0  0  0  0
  139.6470   77.6018  223.2606 H   0  0  0  0  0  0  0  0  0  0  0  0
  140.4180   79.2877  224.5209 H   0  0  0  0  0  0  0  0  0  0  0  0
  140.8032   80.7776  221.8034 H   0  0  0  0  0  0  0  0  0  0  0  0
  139.7580   81.3191  223.0874 H   0  0  0  0  0  0  0  0  0  0  0  0
  142.2354   82.3318  222.9889 H   0  0  0  0  0  0  0  0  0  0  0  0
  141.7142   81.8048  224.5715 H   0  0  0  0  0  0  0  0  0  0  0  0
  143.6047   80.5077  222.6228 H   0  0  0  0  0  0  0  0  0  0  0  0
  143.5643   80.3531  224.3981 H   0  0  0  0  0  0  0  0  0  0  0  0
  142.4188   78.5927  222.3664 H   0  0  0  0  0  0  0  0  0  0  0  0
  142.5361   78.3110  224.1045 H   0  0  0  0  0  0  0  0  0  0  0  0
  141.4013   74.2394  219.3313 H   0  0  0  0  0  0  0  0  0  0  0  0
  142.1627   71.8793  219.3512 H   0  0  0  0  0  0  0  0  0  0  0  0
  141.6422   70.4949  221.3390 H   0  0  0  0  0  0  0  0  0  0  0  0
  141.4961   72.4975  227.0855 H   0  0  0  0  0  0  0  0  0  0  0  0
  141.1212   71.2786  229.2340 H   0  0  0  0  0  0  0  0  0  0  0  0
  139.9342   69.0892  229.2508 H   0  0  0  0  0  0  0  0  0  0  0  0
  139.1082   68.0907  227.1140 H   0  0  0  0  0  0  0  0  0  0  0  0
  140.2040   69.3066  222.6776 H   0  0  0  0  0  0  0  0  0  0  0  0
  138.6346   70.1604  222.8904 H   0  0  0  0  0  0  0  0  0  0  0  0
  139.6688   73.7814  223.1866 H   0  0  0  0  0  0  0  0  0  0  0  0
  1  2  2  0
  2  3  1  0
  3  4  1  0
  4  5  1  0
  5  6  1  0
  6  7  1  0
  7  8  1  0
  8  9  1  0
  9 10  1  0
  2 11  1  0
 11 12  2  0
 12 13  1  0
 13 14  2  0
 14 15  1  0
 15 16  1  0
 16 17  2  0
 17 18  1  0
 18 19  2  0
 19 20  1  0
 20 21  2  0
 21 22  1  0
 22 23  2  0
 23 24  1  0
 24 25  2  0
 24 26  1  0
 15 27  2  0
 10  6  1  0
 27 11  1  0
 26 16  1  0
 23 18  1  0
  3 28  1  0
  4 29  1  0
  4 30  1  0
  5 31  1  0
  5 32  1  0
  6 33  1  0
  7 34  1  0
  7 35  1  0
  8 36  1  0
  8 37  1  0
  9 38  1  0
  9 39  1  0
 10 40  1  0
 10 41  1  0
 12 42  1  0
 13 43  1  0
 14 44  1  0
 19 45  1  0
 20 46  1  0
 21 47  1  0
 22 48  1  0
 26 49  1  0
 26 50  1  0
 27 51  1  0
M  END
>  <smiles>  (11) 
O=C(NCCC1CCCC1)c1cccc(C2=Nc3ccccc3C(=O)C2)c1

>  <score_type>  (11) 
oracle

>  <origin>  (11) 
autodockgpu

>  <m_score__min__energy>  (11) 
-9.5099999999999998

>  <m_primary>  (11) 
energy

>  <rmsd>  (11) 
4.313994876492192

>  <m_score__min__rmsd>  (11) 
4.313994876492192

>  <meeko>  (11) 
{"free_energy": -9.37, "intermolecular_energy": -10.86, "internal_energy": -0.83, "cluster_size": 50, "cluster_id": 1, "rank_in_cluster": 16}

>  <energy>  (11) 
-9.44

>  <cluster_rmsd>  (11) 
0.22

>  <cluster>  (11) 
1

$$$$

     RDKit          3D

 51 54  0  0  0  0  0  0  0  0999 V2000
  141.2040   75.4080  221.9660 O   0  0  0  0  0  0  0  0  0  0  0  0
  140.0070   75.1630  221.6010 C   0  0  0  0  0  0  0  0  0  0  0  0
  139.1560   76.2240  221.2210 N   0  0  0  0  0  0  0  0  0  0  0  0
  139.5530   77.6180  221.2120 C   0  0  0  0  0  0  0  0  0  0  0  0
  140.0120   78.0600  222.5610 C   0  0  0  0  0  0  0  0  0  0  0  0
  141.2060   78.9870  222.5020 C   0  0  0  0  0  0  0  0  0  0  0  0
  141.8290   79.0520  223.8870 C   0  0  0  0  0  0  0  0  0  0  0  0
  142.7250   80.2670  223.7610 C   0  0  0  0  0  0  0  0  0  0  0  0
  141.8680   81.2280  222.9800 C   0  0  0  0  0  0  0  0  0  0  0  0
  140.8340   80.4200  222.2470 C   0  0  0  0  0  0  0  0  0  0  0  0
  139.6180   73.7600  221.6110 C   0  0  0  0  0  0  0  0  0  0  0  0
  139.0440   73.2100  220.4840 C   0  0  0  0  0  0  0  0  0  0  0  0
  138.6470   71.8910  220.4100 C   0  0  0  0  0  0  0  0  0  0  0  0
  138.8480   71.1150  221.5330 C   0  0  0  0  0  0  0  0  0  0  0  0
  139.4160   71.5960  222.6950 C   0  0  0  0  0  0  0  0  0  0  0  0
  139.6150   70.7340  223.8800 C   0  0  0  0  0  0  0  0  0  0  0  0
  140.1310   71.2970  224.9180 N   0  0  0  0  0  0  0  0  0  0  0  0
  140.3830   70.6000  226.1290 C   0  0  0  0  0  0  0  0  0  0  0  0
  140.9400   71.3110  227.1720 C   0  0  0  0  0  0  0  0  0  0  0  0
  141.1820   70.6270  228.3500 C   0  0  0  0  0  0  0  0  0  0  0  0
  140.8720   69.2670  228.4670 C   0  0  0  0  0  0  0  0  0  0  0  0
  140.3120   68.5790  227.3940 C   0  0  0  0  0  0  0  0  0  0  0  0
  140.0670   69.2610  226.2160 C   0  0  0  0  0  0  0  0  0  0  0  0
  139.4850   68.6330  225.0390 C   0  0  0  0  0  0  0  0  0  0  0  0
  139.1980   67.4090  225.1230 O   0  0  0  0  0  0  0  0  0  0  0  0
  139.2130   69.3370  223.7680 C   0  0  0  0  0  0  0  0  0  0  0  0
  139.7870   72.9270  222.6930 C   0  0  0  0  0  0  0  0  0  0  0  0
  138.1760   75.9500  220.9300 H   0  0  0  0  0  0  0  0  0  0  0  0
  140.3742   77.7520  220.4925 H   0  0  0  0  0  0  0  0  0  0  0  0
  138.6815   78.2252  220.9258 H   0  0  0  0  0  0  0  0  0  0  0  0
  139.1838   78.5856  223.0588 H   0  0  0  0  0  0  0  0  0  0  0  0
  140.3189   77.1613  223.1161 H   0  0  0  0  0  0  0  0  0  0  0  0
  141.8493   78.5932  221.7013 H   0  0  0  0  0  0  0  0  0  0  0  0
  141.0645   79.1959  224.6647 H   0  0  0  0  0  0  0  0  0  0  0  0
  142.3583   78.1343  224.1832 H   0  0  0  0  0  0  0  0  0  0  0  0
  142.9805   80.6761  224.7496 H   0  0  0  0  0  0  0  0  0  0  0  0
  143.6900   80.0507  223.2794 H   0  0  0  0  0  0  0  0  0  0  0  0
  141.3761   81.9343  223.6650 H   0  0  0  0  0  0  0  0  0  0  0  0
  142.4807   81.8057  222.2723 H   0  0  0  0  0  0  0  0  0  0  0  0
  139.8282   80.6336  222.6380 H   0  0  0  0  0  0  0  0  0  0  0  0
  140.8115   80.6556  221.1728 H   0  0  0  0  0  0  0  0  0  0  0  0
  138.8960   73.8527  219.6036 H   0  0  0  0  0  0  0  0  0  0  0  0
  138.1915   71.4772  219.4983 H   0  0  0  0  0  0  0  0  0  0  0  0
  138.5399   70.0595  221.5004 H   0  0  0  0  0  0  0  0  0  0  0  0
  141.1821   72.3793  227.0710 H   0  0  0  0  0  0  0  0  0  0  0  0
  141.6237   71.1587  229.2057 H   0  0  0  0  0  0  0  0  0  0  0  0
  141.0718   68.7393  229.4113 H   0  0  0  0  0  0  0  0  0  0  0  0
  140.0683   67.5099  227.4817 H   0  0  0  0  0  0  0  0  0  0  0  0
  139.7806   68.8578  222.9567 H   0  0  0  0  0  0  0  0  0  0  0  0
  138.1364   69.2859  223.5483 H   0  0  0  0  0  0  0  0  0  0  0  0
  140.2414   73.3426  223.6045 H   0  0  0  0  0  0  0  0  0  0  0  0
  1  2  2  0
  2  3  1  0
  3  4  1  0
  4  5  1  0
  5  6  1  0
  6  7  1  0
  7  8  1  0
  8  9  1  0
  9 10  1  0
  2 11  1  0
 11 12  2  0
 12 13  1  0
 13 14  2  0
 14 15  1  0
 15 16  1  0
 16 17  2  0
 17 18  1  0
 18 19  2  0
 19 20  1  0
 20 21  2  0
 21 22  1  0
 22 23  2  0
 23 24  1  0
 24 25  2  0
 24 26  1  0
 15 27  2  0
 10  6  1  0
 27 11  1  0
 26 16  1  0
 23 18  1  0
  3 28  1  0
  4 29  1  0
  4 30  1  0
  5 31  1  0
  5 32  1  0
  6 33  1  0
  7 34  1  0
  7 35  1  0
  8 36  1  0
  8 37  1  0
  9 38  1  0
  9 39  1  0
 10 40  1  0
 10 41  1  0
 12 42  1  0
 13 43  1  0
 14 44  1  0
 19 45  1  0
 20 46  1  0
 21 47  1  0
 22 48  1  0
 26 49  1  0
 26 50  1  0
 27 51  1  0
M  END
>  <smiles>  (12) 
O=C(NCCC1CCCC1)c1cccc(C2=Nc3ccccc3C(=O)C2)c1

>  <score_type>  (12) 
oracle

>  <origin>  (12) 
autodockgpu

>  <m_score__min__energy>  (12) 
-9.5099999999999998

>  <m_primary>  (12) 
energy

>  <rmsd>  (12) 
4.7011672216842175

>  <m_score__min__rmsd>  (12) 
4.7011672216842175

>  <meeko>  (12) 
{"free_energy": -9.01, "intermolecular_energy": -10.5, "internal_energy": -0.81, "cluster_size": 50, "cluster_id": 1, "rank_in_cluster": 40}

>  <energy>  (12) 
-9.4

>  <cluster_rmsd>  (12) 
0.59

>  <cluster>  (12) 
1

$$$$

     RDKit          3D

 51 54  0  0  0  0  0  0  0  0999 V2000
  141.0650   75.6250  222.3300 O   0  0  0  0  0  0  0  0  0  0  0  0
  140.6850   75.0730  221.2440 C   0  0  0  0  0  0  0  0  0  0  0  0
  140.9480   75.7000  220.0060 N   0  0  0  0  0  0  0  0  0  0  0  0
  141.6440   76.9650  219.8700 C   0  0  0  0  0  0  0  0  0  0  0  0
  140.9410   78.0530  220.6110 C   0  0  0  0  0  0  0  0  0  0  0  0
  141.8150   78.7160  221.6520 C   0  0  0  0  0  0  0  0  0  0  0  0
  141.1560   78.5430  223.0100 C   0  0  0  0  0  0  0  0  0  0  0  0
  141.9130   79.5530  223.8480 C   0  0  0  0  0  0  0  0  0  0  0  0
  142.0350   80.7280  222.9140 C   0  0  0  0  0  0  0  0  0  0  0  0
  141.8780   80.2100  221.5110 C   0  0  0  0  0  0  0  0  0  0  0  0
  139.9900   73.8030  221.3900 C   0  0  0  0  0  0  0  0  0  0  0  0
  139.1450   73.3760  220.3880 C   0  0  0  0  0  0  0  0  0  0  0  0
  138.4480   72.1860  220.4480 C   0  0  0  0  0  0  0  0  0  0  0  0
  138.6300   71.4130  221.5760 C   0  0  0  0  0  0  0  0  0  0  0  0
  139.4590   71.7750  222.6180 C   0  0  0  0  0  0  0  0  0  0  0  0
  139.6290   70.9190  223.8120 C   0  0  0  0  0  0  0  0  0  0  0  0
  140.1200   71.4880  224.8580 N   0  0  0  0  0  0  0  0  0  0  0  0
  140.3410   70.7980  226.0800 C   0  0  0  0  0  0  0  0  0  0  0  0
  140.8730   71.5150  227.1320 C   0  0  0  0  0  0  0  0  0  0  0  0
  141.0860   70.8370  228.3190 C   0  0  0  0  0  0  0  0  0  0  0  0
  140.7720   69.4780  228.4370 C   0  0  0  0  0  0  0  0  0  0  0  0
  140.2370   68.7850  227.3540 C   0  0  0  0  0  0  0  0  0  0  0  0
  140.0220   69.4600  226.1660 C   0  0  0  0  0  0  0  0  0  0  0  0
  139.4680   68.8250  224.9800 C   0  0  0  0  0  0  0  0  0  0  0  0
  139.1780   67.6020  225.0640 O   0  0  0  0  0  0  0  0  0  0  0  0
  139.2290   69.5220  223.6980 C   0  0  0  0  0  0  0  0  0  0  0  0
  140.1220   72.9800  222.4860 C   0  0  0  0  0  0  0  0  0  0  0  0
  140.6060   75.1890  219.1460 H   0  0  0  0  0  0  0  0  0  0  0  0
  142.6627   76.8585  220.2712 H   0  0  0  0  0  0  0  0  0  0  0  0
  141.6718   77.2331  218.8035 H   0  0  0  0  0  0  0  0  0  0  0  0
  140.6153   78.8160  219.8886 H   0  0  0  0  0  0  0  0  0  0  0  0
  140.0892   77.5972  221.1369 H   0  0  0  0  0  0  0  0  0  0  0  0
  142.8103   78.2619  221.5374 H   0  0  0  0  0  0  0  0  0  0  0  0
  140.0827   78.7802  222.9683 H   0  0  0  0  0  0  0  0  0  0  0  0
  141.1997   77.5156  223.4005 H   0  0  0  0  0  0  0  0  0  0  0  0
  141.3479   79.8217  224.7527 H   0  0  0  0  0  0  0  0  0  0  0  0
  142.8819   79.1811  224.2126 H   0  0  0  0  0  0  0  0  0  0  0  0
  141.2477   81.4645  223.1325 H   0  0  0  0  0  0  0  0  0  0  0  0
  143.0106   81.2208  223.0376 H   0  0  0  0  0  0  0  0  0  0  0  0
  140.9523   80.5948  221.0583 H   0  0  0  0  0  0  0  0  0  0  0  0
  142.7043   80.5286  220.8585 H   0  0  0  0  0  0  0  0  0  0  0  0
  139.0204   74.0128  219.4998 H   0  0  0  0  0  0  0  0  0  0  0  0
  137.7788   71.8690  219.6345 H   0  0  0  0  0  0  0  0  0  0  0  0
  138.0865   70.4594  221.6485 H   0  0  0  0  0  0  0  0  0  0  0  0
  141.1179   72.5826  227.0310 H   0  0  0  0  0  0  0  0  0  0  0  0
  141.5079   71.3732  229.1819 H   0  0  0  0  0  0  0  0  0  0  0  0
  140.9485   68.9555  229.3887 H   0  0  0  0  0  0  0  0  0  0  0  0
  139.9891   67.7169  227.4420 H   0  0  0  0  0  0  0  0  0  0  0  0
  139.8167   69.0377  222.9042 H   0  0  0  0  0  0  0  0  0  0  0  0
  138.1583   69.4704  223.4513 H   0  0  0  0  0  0  0  0  0  0  0  0
  140.7905   73.2987  223.2993 H   0  0  0  0  0  0  0  0  0  0  0  0
  1  2  2  0
  2  3  1  0
  3  4  1  0
  4  5  1  0
  5  6  1  0
  6  7  1  0
  7  8  1  0
  8  9  1  0
  9 10  1  0
  2 11  1  0
 11 12  2  0
 12 13  1  0
 13 14  2  0
 14 15  1  0
 15 16  1  0
 16 17  2  0
 17 18  1  0
 18 19  2  0
 19 20  1  0
 20 21  2  0
 21 22  1  0
 22 23  2  0
 23 24  1  0
 24 25  2  0
 24 26  1  0
 15 27  2  0
 10  6  1  0
 27 11  1  0
 26 16  1  0
 23 18  1  0
  3 28  1  0
  4 29  1  0
  4 30  1  0
  5 31  1  0
  5 32  1  0
  6 33  1  0
  7 34  1  0
  7 35  1  0
  8 36  1  0
  8 37  1  0
  9 38  1  0
  9 39  1  0
 10 40  1  0
 10 41  1  0
 12 42  1  0
 13 43  1  0
 14 44  1  0
 19 45  1  0
 20 46  1  0
 21 47  1  0
 22 48  1  0
 26 49  1  0
 26 50  1  0
 27 51  1  0
M  END
>  <smiles>  (13) 
O=C(NCCC1CCCC1)c1cccc(C2=Nc3ccccc3C(=O)C2)c1

>  <score_type>  (13) 
oracle

>  <origin>  (13) 
autodockgpu

>  <m_score__min__energy>  (13) 
-9.5099999999999998

>  <m_primary>  (13) 
energy

>  <rmsd>  (13) 
4.622109339319876

>  <m_score__min__rmsd>  (13) 
4.622109339319876

>  <meeko>  (13) 
{"free_energy": -8.87, "intermolecular_energy": -10.36, "internal_energy": -0.89, "cluster_size": 50, "cluster_id": 1, "rank_in_cluster": 44}

>  <energy>  (13) 
-9.4

>  <cluster_rmsd>  (13) 
0.28

>  <cluster>  (13) 
1

$$$$

     RDKit          3D

 51 54  0  0  0  0  0  0  0  0999 V2000
  141.1560   75.0890  220.5240 O   0  0  0  0  0  0  0  0  0  0  0  0
  140.3120   74.9630  221.4710 C   0  0  0  0  0  0  0  0  0  0  0  0
  140.0410   76.0560  222.3240 N   0  0  0  0  0  0  0  0  0  0  0  0
  140.6690   77.3560  222.2000 C   0  0  0  0  0  0  0  0  0  0  0  0
  139.7560   78.4450  222.6530 C   0  0  0  0  0  0  0  0  0  0  0  0
  140.4790   79.5540  223.3850 C   0  0  0  0  0  0  0  0  0  0  0  0
  140.7680   80.6710  222.3960 C   0  0  0  0  0  0  0  0  0  0  0  0
  141.7930   81.4910  223.1520 C   0  0  0  0  0  0  0  0  0  0  0  0
  142.6620   80.4320  223.7790 C   0  0  0  0  0  0  0  0  0  0  0  0
  141.8560   79.1650  223.8430 C   0  0  0  0  0  0  0  0  0  0  0  0
  139.6840   73.6540  221.5880 C   0  0  0  0  0  0  0  0  0  0  0  0
  138.8330   73.2220  220.5930 C   0  0  0  0  0  0  0  0  0  0  0  0
  138.1980   71.9980  220.6260 C   0  0  0  0  0  0  0  0  0  0  0  0
  138.4490   71.1940  221.7190 C   0  0  0  0  0  0  0  0  0  0  0  0
  139.2890   71.5590  222.7510 C   0  0  0  0  0  0  0  0  0  0  0  0
  139.5340   70.6710  223.9080 C   0  0  0  0  0  0  0  0  0  0  0  0
  140.0600   71.2180  224.9480 N   0  0  0  0  0  0  0  0  0  0  0  0
  140.3550   70.4940  226.1350 C   0  0  0  0  0  0  0  0  0  0  0  0
  140.9180   71.1900  227.1850 C   0  0  0  0  0  0  0  0  0  0  0  0
  141.2030   70.4810  228.3370 C   0  0  0  0  0  0  0  0  0  0  0  0
  140.9260   69.1110  228.4250 C   0  0  0  0  0  0  0  0  0  0  0  0
  140.3570   68.4400  227.3460 C   0  0  0  0  0  0  0  0  0  0  0  0
  140.0710   69.1470  226.1920 C   0  0  0  0  0  0  0  0  0  0  0  0
  139.4770   68.5370  225.0120 C   0  0  0  0  0  0  0  0  0  0  0  0
  139.2190   67.3050  225.0690 O   0  0  0  0  0  0  0  0  0  0  0  0
  139.1610   69.2680  223.7670 C   0  0  0  0  0  0  0  0  0  0  0  0
  139.8870   72.8000  222.6480 C   0  0  0  0  0  0  0  0  0  0  0  0
  139.3310   75.8820  223.0890 H   0  0  0  0  0  0  0  0  0  0  0  0
  141.5806   77.3736  222.8154 H   0  0  0  0  0  0  0  0  0  0  0  0
  140.9112   77.5247  221.1403 H   0  0  0  0  0  0  0  0  0  0  0  0
  139.2568   78.8737  221.7715 H   0  0  0  0  0  0  0  0  0  0  0  0
  139.0360   78.0006  223.3559 H   0  0  0  0  0  0  0  0  0  0  0  0
  139.8340   79.8176  224.2362 H   0  0  0  0  0  0  0  0  0  0  0  0
  141.1829   80.2775  221.4563 H   0  0  0  0  0  0  0  0  0  0  0  0
  139.8772   81.2397  222.0911 H   0  0  0  0  0  0  0  0  0  0  0  0
  142.3738   82.1284  222.4691 H   0  0  0  0  0  0  0  0  0  0  0  0
  141.3481   82.1818  223.8833 H   0  0  0  0  0  0  0  0  0  0  0  0
  143.5621   80.2739  223.1667 H   0  0  0  0  0  0  0  0  0  0  0  0
  142.9811   80.7392  224.7859 H   0  0  0  0  0  0  0  0  0  0  0  0
  142.2833   78.4013  223.1766 H   0  0  0  0  0  0  0  0  0  0  0  0
  141.8473   78.7325  224.8544 H   0  0  0  0  0  0  0  0  0  0  0  0
  138.6521   73.8839  219.7333 H   0  0  0  0  0  0  0  0  0  0  0  0
  137.5230   71.6777  219.8187 H   0  0  0  0  0  0  0  0  0  0  0  0
  137.9546   70.2127  221.7701 H   0  0  0  0  0  0  0  0  0  0  0  0
  141.1316   72.2663  227.1084 H   0  0  0  0  0  0  0  0  0  0  0  0
  141.6534   70.9998  229.1961 H   0  0  0  0  0  0  0  0  0  0  0  0
  141.1588   68.5631  229.3500 H   0  0  0  0  0  0  0  0  0  0  0  0
  140.1382   67.3639  227.4102 H   0  0  0  0  0  0  0  0  0  0  0  0
  139.7209   68.8238  222.9309 H   0  0  0  0  0  0  0  0  0  0  0  0
  138.0811   69.1980  223.5695 H   0  0  0  0  0  0  0  0  0  0  0  0
  140.5607   73.1225  223.4555 H   0  0  0  0  0  0  0  0  0  0  0  0
  1  2  2  0
  2  3  1  0
  3  4  1  0
  4  5  1  0
  5  6  1  0
  6  7  1  0
  7  8  1  0
  8  9  1  0
  9 10  1  0
  2 11  1  0
 11 12  2  0
 12 13  1  0
 13 14  2  0
 14 15  1  0
 15 16  1  0
 16 17  2  0
 17 18  1  0
 18 19  2  0
 19 20  1  0
 20 21  2  0
 21 22  1  0
 22 23  2  0
 23 24  1  0
 24 25  2  0
 24 26  1  0
 15 27  2  0
 10  6  1  0
 27 11  1  0
 26 16  1  0
 23 18  1  0
  3 28  1  0
  4 29  1  0
  4 30  1  0
  5 31  1  0
  5 32  1  0
  6 33  1  0
  7 34  1  0
  7 35  1  0
  8 36  1  0
  8 37  1  0
  9 38  1  0
  9 39  1  0
 10 40  1  0
 10 41  1  0
 12 42  1  0
 13 43  1  0
 14 44  1  0
 19 45  1  0
 20 46  1  0
 21 47  1  0
 22 48  1  0
 26 49  1  0
 26 50  1  0
 27 51  1  0
M  END
>  <smiles>  (14) 
O=C(NCCC1CCCC1)c1cccc(C2=Nc3ccccc3C(=O)C2)c1

>  <score_type>  (14) 
oracle

>  <origin>  (14) 
autodockgpu

>  <m_score__min__energy>  (14) 
-9.5099999999999998

>  <m_primary>  (14) 
energy

>  <rmsd>  (14) 
4.654416691379577

>  <m_score__min__rmsd>  (14) 
4.654416691379577

>  <meeko>  (14) 
{"free_energy": -9.18, "intermolecular_energy": -10.67, "internal_energy": -0.74, "cluster_size": 50, "cluster_id": 1, "rank_in_cluster": 33}

>  <energy>  (14) 
-9.4

>  <cluster_rmsd>  (14) 
0.21

>  <cluster>  (14) 
1

$$$$

     RDKit          3D

 51 54  0  0  0  0  0  0  0  0999 V2000
  138.9100   75.7410  220.8420 O   0  0  0  0  0  0  0  0  0  0  0  0
  140.0090   75.3520  221.3590 C   0  0  0  0  0  0  0  0  0  0  0  0
  140.9060   76.2990  221.9010 N   0  0  0  0  0  0  0  0  0  0  0  0
  140.6630   77.7280  221.9190 C   0  0  0  0  0  0  0  0  0  0  0  0
  141.7520   78.4730  221.2230 C   0  0  0  0  0  0  0  0  0  0  0  0
  142.0590   79.8060  221.8660 C   0  0  0  0  0  0  0  0  0  0  0  0
  142.9430   79.5600  223.0770 C   0  0  0  0  0  0  0  0  0  0  0  0
  142.8400   80.8850  223.8060 C   0  0  0  0  0  0  0  0  0  0  0  0
  141.3810   81.2270  223.6590 C   0  0  0  0  0  0  0  0  0  0  0  0
  140.8540   80.4650  222.4750 C   0  0  0  0  0  0  0  0  0  0  0  0
  140.2440   73.9160  221.3380 C   0  0  0  0  0  0  0  0  0  0  0  0
  140.6200   73.3100  220.1580 C   0  0  0  0  0  0  0  0  0  0  0  0
  140.8620   71.9560  220.0520 C   0  0  0  0  0  0  0  0  0  0  0  0
  140.7120   71.2030  221.1990 C   0  0  0  0  0  0  0  0  0  0  0  0
  140.3390   71.7410  222.4140 C   0  0  0  0  0  0  0  0  0  0  0  0
  140.1880   70.9020  223.6230 C   0  0  0  0  0  0  0  0  0  0  0  0
  140.6340   71.3990  224.7240 N   0  0  0  0  0  0  0  0  0  0  0  0
  140.5610   70.7140  225.9660 C   0  0  0  0  0  0  0  0  0  0  0  0
  141.0730   71.3500  227.0780 C   0  0  0  0  0  0  0  0  0  0  0  0
  140.9990   70.6780  228.2850 C   0  0  0  0  0  0  0  0  0  0  0  0
  140.4240   69.4030  228.3630 C   0  0  0  0  0  0  0  0  0  0  0  0
  139.9170   68.7910  227.2200 C   0  0  0  0  0  0  0  0  0  0  0  0
  139.9890   69.4610  226.0130 C   0  0  0  0  0  0  0  0  0  0  0  0
  139.4880   68.9060  224.7640 C   0  0  0  0  0  0  0  0  0  0  0  0
  138.9660   67.7600  224.8120 O   0  0  0  0  0  0  0  0  0  0  0  0
  139.5530   69.5990  223.4600 C   0  0  0  0  0  0  0  0  0  0  0  0
  140.1140   73.1030  222.4410 C   0  0  0  0  0  0  0  0  0  0  0  0
  141.7990   75.9090  222.3130 H   0  0  0  0  0  0  0  0  0  0  0  0
  139.7080   77.9352  221.4140 H   0  0  0  0  0  0  0  0  0  0  0  0
  140.6301   78.0609  222.9669 H   0  0  0  0  0  0  0  0  0  0  0  0
  142.6636   77.8576  221.2391 H   0  0  0  0  0  0  0  0  0  0  0  0
  141.4103   78.6732  220.1968 H   0  0  0  0  0  0  0  0  0  0  0  0
  142.4934   80.4270  221.0687 H   0  0  0  0  0  0  0  0  0  0  0  0
  142.5593   78.7328  223.6923 H   0  0  0  0  0  0  0  0  0  0  0  0
  143.9731   79.2670  222.8261 H   0  0  0  0  0  0  0  0  0  0  0  0
  143.1183   80.7785  224.8649 H   0  0  0  0  0  0  0  0  0  0  0  0
  143.5133   81.6579  223.4069 H   0  0  0  0  0  0  0  0  0  0  0  0
  140.8336   80.9348  224.5673 H   0  0  0  0  0  0  0  0  0  0  0  0
  141.2502   82.3093  223.5120 H   0  0  0  0  0  0  0  0  0  0  0  0
  140.1219   79.7096  222.7966 H   0  0  0  0  0  0  0  0  0  0  0  0
  140.3372   81.1212  221.7593 H   0  0  0  0  0  0  0  0  0  0  0  0
  140.7322   73.9349  219.2597 H   0  0  0  0  0  0  0  0  0  0  0  0
  141.1606   71.4977  219.0976 H   0  0  0  0  0  0  0  0  0  0  0  0
  140.8990   70.1205  221.1419 H   0  0  0  0  0  0  0  0  0  0  0  0
  141.5222   72.3516  227.0077 H   0  0  0  0  0  0  0  0  0  0  0  0
  141.3967   71.1509  229.1950 H   0  0  0  0  0  0  0  0  0  0  0  0
  140.3729   68.8834  229.3312 H   0  0  0  0  0  0  0  0  0  0  0  0
  139.4659   67.7893  227.2765 H   0  0  0  0  0  0  0  0  0  0  0  0
  140.1392   68.9931  222.7535 H   0  0  0  0  0  0  0  0  0  0  0  0
  138.5332   69.7384  223.0720 H   0  0  0  0  0  0  0  0  0  0  0  0
  139.8150   73.5627  223.3945 H   0  0  0  0  0  0  0  0  0  0  0  0
  1  2  2  0
  2  3  1  0
  3  4  1  0
  4  5  1  0
  5  6  1  0
  6  7  1  0
  7  8  1  0
  8  9  1  0
  9 10  1  0
  2 11  1  0
 11 12  2  0
 12 13  1  0
 13 14  2  0
 14 15  1  0
 15 16  1  0
 16 17  2  0
 17 18  1  0
 18 19  2  0
 19 20  1  0
 20 21  2  0
 21 22  1  0
 22 23  2  0
 23 24  1  0
 24 25  2  0
 24 26  1  0
 15 27  2  0
 10  6  1  0
 27 11  1  0
 26 16  1  0
 23 18  1  0
  3 28  1  0
  4 29  1  0
  4 30  1  0
  5 31  1  0
  5 32  1  0
  6 33  1  0
  7 34  1  0
  7 35  1  0
  8 36  1  0
  8 37  1  0
  9 38  1  0
  9 39  1  0
 10 40  1  0
 10 41  1  0
 12 42  1  0
 13 43  1  0
 14 44  1  0
 19 45  1  0
 20 46  1  0
 21 47  1  0
 22 48  1  0
 26 49  1  0
 26 50  1  0
 27 51  1  0
M  END
>  <smiles>  (15) 
O=C(NCCC1CCCC1)c1cccc(C2=Nc3ccccc3C(=O)C2)c1

>  <score_type>  (15) 
oracle

>  <origin>  (15) 
autodockgpu

>  <m_score__min__energy>  (15) 
-9.5099999999999998

>  <m_primary>  (15) 
energy

>  <rmsd>  (15) 
4.305807548845152

>  <m_score__min__rmsd>  (15) 
4.305807548845152

>  <meeko>  (15) 
{"free_energy": -9.24, "intermolecular_energy": -10.74, "internal_energy": -0.76, "cluster_size": 50, "cluster_id": 1, "rank_in_cluster": 27}

>  <energy>  (15) 
-9.4

>  <cluster_rmsd>  (15) 
0.2

>  <cluster>  (15) 
1

$$$$

     RDKit          3D

 51 54  0  0  0  0  0  0  0  0999 V2000
  138.8880   75.9020  220.7630 O   0  0  0  0  0  0  0  0  0  0  0  0
  140.0470   75.5760  221.1830 C   0  0  0  0  0  0  0  0  0  0  0  0
  140.9620   76.5790  221.5750 N   0  0  0  0  0  0  0  0  0  0  0  0
  140.6720   77.9990  221.5370 C   0  0  0  0  0  0  0  0  0  0  0  0
  140.1670   78.4850  222.8540 C   0  0  0  0  0  0  0  0  0  0  0  0
  141.1880   79.3040  223.6110 C   0  0  0  0  0  0  0  0  0  0  0  0
  140.8710   80.7750  223.4020 C   0  0  0  0  0  0  0  0  0  0  0  0
  142.1520   81.4340  223.8730 C   0  0  0  0  0  0  0  0  0  0  0  0
  143.2130   80.5270  223.3080 C   0  0  0  0  0  0  0  0  0  0  0  0
  142.5770   79.1900  223.0510 C   0  0  0  0  0  0  0  0  0  0  0  0
  140.3280   74.1480  221.2200 C   0  0  0  0  0  0  0  0  0  0  0  0
  140.7970   73.5220  220.0840 C   0  0  0  0  0  0  0  0  0  0  0  0
  141.0870   72.1750  220.0330 C   0  0  0  0  0  0  0  0  0  0  0  0
  140.8890   71.4500  221.1910 C   0  0  0  0  0  0  0  0  0  0  0  0
  140.4250   72.0080  222.3640 C   0  0  0  0  0  0  0  0  0  0  0  0
  140.2240   71.1990  223.5860 C   0  0  0  0  0  0  0  0  0  0  0  0
  140.6720   71.7000  224.6840 N   0  0  0  0  0  0  0  0  0  0  0  0
  140.5550   71.0420  225.9380 C   0  0  0  0  0  0  0  0  0  0  0  0
  141.0740   71.6790  227.0460 C   0  0  0  0  0  0  0  0  0  0  0  0
  140.9570   71.0330  228.2630 C   0  0  0  0  0  0  0  0  0  0  0  0
  140.3340   69.7830  228.3560 C   0  0  0  0  0  0  0  0  0  0  0  0
  139.8210   69.1680  227.2170 C   0  0  0  0  0  0  0  0  0  0  0  0
  139.9370   69.8110  225.9980 C   0  0  0  0  0  0  0  0  0  0  0  0
  139.4340   69.2520  224.7520 C   0  0  0  0  0  0  0  0  0  0  0  0
  138.8690   68.1270  224.8140 O   0  0  0  0  0  0  0  0  0  0  0  0
  139.5430   69.9170  223.4370 C   0  0  0  0  0  0  0  0  0  0  0  0
  140.1550   73.3620  222.3370 C   0  0  0  0  0  0  0  0  0  0  0  0
  141.9050   76.2390  221.9130 H   0  0  0  0  0  0  0  0  0  0  0  0
  141.5918   78.5458  221.2821 H   0  0  0  0  0  0  0  0  0  0  0  0
  139.8927   78.1739  220.7806 H   0  0  0  0  0  0  0  0  0  0  0  0
  139.2769   79.1075  222.6803 H   0  0  0  0  0  0  0  0  0  0  0  0
  139.9355   77.6002  223.4651 H   0  0  0  0  0  0  0  0  0  0  0  0
  141.1460   78.9438  224.6495 H   0  0  0  0  0  0  0  0  0  0  0  0
  140.6720   80.9960  222.3429 H   0  0  0  0  0  0  0  0  0  0  0  0
  139.9706   81.1180  223.9326 H   0  0  0  0  0  0  0  0  0  0  0  0
  142.2455   82.4536  223.4709 H   0  0  0  0  0  0  0  0  0  0  0  0
  142.2098   81.5485  224.9655 H   0  0  0  0  0  0  0  0  0  0  0  0
  143.6017   80.9446  222.3675 H   0  0  0  0  0  0  0  0  0  0  0  0
  144.0516   80.4271  224.0128 H   0  0  0  0  0  0  0  0  0  0  0  0
  142.5424   78.9798  221.9718 H   0  0  0  0  0  0  0  0  0  0  0  0
  143.1425   78.3683  223.5148 H   0  0  0  0  0  0  0  0  0  0  0  0
  140.9466   74.1254  219.1765 H   0  0  0  0  0  0  0  0  0  0  0  0
  141.4587   71.7004  219.1129 H   0  0  0  0  0  0  0  0  0  0  0  0
  141.1125   70.3730  221.1776 H   0  0  0  0  0  0  0  0  0  0  0  0
  141.5615   72.6617  226.9647 H   0  0  0  0  0  0  0  0  0  0  0  0
  141.3589   71.5078  229.1702 H   0  0  0  0  0  0  0  0  0  0  0  0
  140.2493   69.2845  229.3329 H   0  0  0  0  0  0  0  0  0  0  0  0
  139.3309   68.1856  227.2856 H   0  0  0  0  0  0  0  0  0  0  0  0
  140.1162   69.2767  222.7504 H   0  0  0  0  0  0  0  0  0  0  0  0
  138.5347   70.0865  223.0312 H   0  0  0  0  0  0  0  0  0  0  0  0
  139.7821   73.8375  223.2562 H   0  0  0  0  0  0  0  0  0  0  0  0
  1  2  2  0
  2  3  1  0
  3  4  1  0
  4  5  1  0
  5  6  1  0
  6  7  1  0
  7  8  1  0
  8  9  1  0
  9 10  1  0
  2 11  1  0
 11 12  2  0
 12 13  1  0
 13 14  2  0
 14 15  1  0
 15 16  1  0
 16 17  2  0
 17 18  1  0
 18 19  2  0
 19 20  1  0
 20 21  2  0
 21 22  1  0
 22 23  2  0
 23 24  1  0
 24 25  2  0
 24 26  1  0
 15 27  2  0
 10  6  1  0
 27 11  1  0
 26 16  1  0
 23 18  1  0
  3 28  1  0
  4 29  1  0
  4 30  1  0
  5 31  1  0
  5 32  1  0
  6 33  1  0
  7 34  1  0
  7 35  1  0
  8 36  1  0
  8 37  1  0
  9 38  1  0
  9 39  1  0
 10 40  1  0
 10 41  1  0
 12 42  1  0
 13 43  1  0
 14 44  1  0
 19 45  1  0
 20 46  1  0
 21 47  1  0
 22 48  1  0
 26 49  1  0
 26 50  1  0
 27 51  1  0
M  END
>  <smiles>  (16) 
O=C(NCCC1CCCC1)c1cccc(C2=Nc3ccccc3C(=O)C2)c1

>  <score_type>  (16) 
oracle

>  <origin>  (16) 
autodockgpu

>  <m_score__min__energy>  (16) 
-9.5099999999999998

>  <m_primary>  (16) 
energy

>  <rmsd>  (16) 
4.364356918081192

>  <m_score__min__rmsd>  (16) 
4.364356918081192

>  <meeko>  (16) 
{"free_energy": -9.51, "intermolecular_energy": -11.0, "internal_energy": -0.81, "cluster_size": 50, "cluster_id": 1, "rank_in_cluster": 2}

>  <energy>  (16) 
-9.37

>  <cluster_rmsd>  (16) 
0.24

>  <cluster>  (16) 
1

$$$$

     RDKit          3D

 51 54  0  0  0  0  0  0  0  0999 V2000
  140.8140   75.6850  220.5370 O   0  0  0  0  0  0  0  0  0  0  0  0
  140.1260   75.0860  221.4280 C   0  0  0  0  0  0  0  0  0  0  0  0
  139.3840   75.8360  222.3670 N   0  0  0  0  0  0  0  0  0  0  0  0
  139.3400   77.2850  222.3940 C   0  0  0  0  0  0  0  0  0  0  0  0
  140.7020   77.8720  222.2360 C   0  0  0  0  0  0  0  0  0  0  0  0
  140.8950   79.1390  223.0390 C   0  0  0  0  0  0  0  0  0  0  0  0
  140.9710   80.3100  222.0740 C   0  0  0  0  0  0  0  0  0  0  0  0
  141.5350   81.4010  222.9620 C   0  0  0  0  0  0  0  0  0  0  0  0
  142.5780   80.6670  223.7630 C   0  0  0  0  0  0  0  0  0  0  0  0
  142.2240   79.2060  223.7350 C   0  0  0  0  0  0  0  0  0  0  0  0
  140.1750   73.6320  221.3930 C   0  0  0  0  0  0  0  0  0  0  0  0
  140.3090   72.9890  220.1800 C   0  0  0  0  0  0  0  0  0  0  0  0
  140.3630   71.6160  220.0590 C   0  0  0  0  0  0  0  0  0  0  0  0
  140.2760   70.8820  221.2240 C   0  0  0  0  0  0  0  0  0  0  0  0
  140.1420   71.4560  222.4720 C   0  0  0  0  0  0  0  0  0  0  0  0
  140.0520   70.6370  223.7010 C   0  0  0  0  0  0  0  0  0  0  0  0
  140.5380   71.1580  224.7730 N   0  0  0  0  0  0  0  0  0  0  0  0
  140.5250   70.4930  226.0290 C   0  0  0  0  0  0  0  0  0  0  0  0
  141.0770   71.1540  227.1070 C   0  0  0  0  0  0  0  0  0  0  0  0
  141.0610   70.5020  228.3270 C   0  0  0  0  0  0  0  0  0  0  0  0
  140.5060   69.2230  228.4510 C   0  0  0  0  0  0  0  0  0  0  0  0
  139.9580   68.5850  227.3410 C   0  0  0  0  0  0  0  0  0  0  0  0
  139.9710   69.2350  226.1200 C   0  0  0  0  0  0  0  0  0  0  0  0
  139.4250   68.6530  224.9030 C   0  0  0  0  0  0  0  0  0  0  0  0
  138.9190   67.5020  224.9930 O   0  0  0  0  0  0  0  0  0  0  0  0
  139.4260   69.3240  223.5870 C   0  0  0  0  0  0  0  0  0  0  0  0
  140.0940   72.8360  222.5130 C   0  0  0  0  0  0  0  0  0  0  0  0
  138.8370   75.2770  223.0790 H   0  0  0  0  0  0  0  0  0  0  0  0
  138.6997   77.6393  221.5727 H   0  0  0  0  0  0  0  0  0  0  0  0
  138.9363   77.6018  223.3670 H   0  0  0  0  0  0  0  0  0  0  0  0
  141.4441   77.1305  222.5670 H   0  0  0  0  0  0  0  0  0  0  0  0
  140.8276   78.1322  221.1746 H   0  0  0  0  0  0  0  0  0  0  0  0
  140.0654   79.1620  223.7610 H   0  0  0  0  0  0  0  0  0  0  0  0
  141.6424   80.0920  221.2304 H   0  0  0  0  0  0  0  0  0  0  0  0
  140.0094   80.5669  221.6057 H   0  0  0  0  0  0  0  0  0  0  0  0
  141.9875   82.2056  222.3637 H   0  0  0  0  0  0  0  0  0  0  0  0
  140.7743   81.8957  223.5837 H   0  0  0  0  0  0  0  0  0  0  0  0
  143.5715   80.8213  223.3168 H   0  0  0  0  0  0  0  0  0  0  0  0
  142.6048   81.0394  224.7977 H   0  0  0  0  0  0  0  0  0  0  0  0
  142.9813   78.6357  223.1771 H   0  0  0  0  0  0  0  0  0  0  0  0
  142.1827   78.7724  224.7451 H   0  0  0  0  0  0  0  0  0  0  0  0
  140.3759   73.5992  219.2672 H   0  0  0  0  0  0  0  0  0  0  0  0
  140.4705   71.1287  219.0787 H   0  0  0  0  0  0  0  0  0  0  0  0
  140.3154   69.7849  221.1548 H   0  0  0  0  0  0  0  0  0  0  0  0
  141.5121   72.1587  227.0007 H   0  0  0  0  0  0  0  0  0  0  0  0
  141.4902   70.9953  229.2115 H   0  0  0  0  0  0  0  0  0  0  0  0
  140.5027   68.7198  229.4291 H   0  0  0  0  0  0  0  0  0  0  0  0
  139.5215   67.5796  227.4338 H   0  0  0  0  0  0  0  0  0  0  0  0
  139.9887   68.7127  222.8661 H   0  0  0  0  0  0  0  0  0  0  0  0
  138.3889   69.4454  223.2410 H   0  0  0  0  0  0  0  0  0  0  0  0
  139.9853   73.3246  223.4925 H   0  0  0  0  0  0  0  0  0  0  0  0
  1  2  2  0
  2  3  1  0
  3  4  1  0
  4  5  1  0
  5  6  1  0
  6  7  1  0
  7  8  1  0
  8  9  1  0
  9 10  1  0
  2 11  1  0
 11 12  2  0
 12 13  1  0
 13 14  2  0
 14 15  1  0
 15 16  1  0
 16 17  2  0
 17 18  1  0
 18 19  2  0
 19 20  1  0
 20 21  2  0
 21 22  1  0
 22 23  2  0
 23 24  1  0
 24 25  2  0
 24 26  1  0
 15 27  2  0
 10  6  1  0
 27 11  1  0
 26 16  1  0
 23 18  1  0
  3 28  1  0
  4 29  1  0
  4 30  1  0
  5 31  1  0
  5 32  1  0
  6 33  1  0
  7 34  1  0
  7 35  1  0
  8 36  1  0
  8 37  1  0
  9 38  1  0
  9 39  1  0
 10 40  1  0
 10 41  1  0
 12 42  1  0
 13 43  1  0
 14 44  1  0
 19 45  1  0
 20 46  1  0
 21 47  1  0
 22 48  1  0
 26 49  1  0
 26 50  1  0
 27 51  1  0
M  END
>  <smiles>  (17) 
O=C(NCCC1CCCC1)c1cccc(C2=Nc3ccccc3C(=O)C2)c1

>  <score_type>  (17) 
oracle

>  <origin>  (17) 
autodockgpu

>  <m_score__min__energy>  (17) 
-9.5099999999999998

>  <m_primary>  (17) 
energy

>  <rmsd>  (17) 
4.618784315112506

>  <m_score__min__rmsd>  (17) 
4.618784315112506

>  <meeko>  (17) 
{"free_energy": -9.26, "intermolecular_energy": -10.75, "internal_energy": -0.69, "cluster_size": 50, "cluster_id": 1, "rank_in_cluster": 26}

>  <energy>  (17) 
-9.37

>  <cluster_rmsd>  (17) 
0.31

>  <cluster>  (17) 
1

$$$$

     RDKit          3D

 51 54  0  0  0  0  0  0  0  0999 V2000
  139.1500   75.8480  220.3860 O   0  0  0  0  0  0  0  0  0  0  0  0
  140.1890   75.4560  221.0130 C   0  0  0  0  0  0  0  0  0  0  0  0
  141.0650   76.4050  221.5870 N   0  0  0  0  0  0  0  0  0  0  0  0
  140.8640   77.8390  221.5180 C   0  0  0  0  0  0  0  0  0  0  0  0
  140.2250   78.3570  222.7630 C   0  0  0  0  0  0  0  0  0  0  0  0
  141.1460   79.2410  223.5730 C   0  0  0  0  0  0  0  0  0  0  0  0
  140.8020   80.6910  223.2750 C   0  0  0  0  0  0  0  0  0  0  0  0
  142.0130   81.4130  223.8300 C   0  0  0  0  0  0  0  0  0  0  0  0
  143.1500   80.5240  223.4010 C   0  0  0  0  0  0  0  0  0  0  0  0
  142.5830   79.1550  223.1440 C   0  0  0  0  0  0  0  0  0  0  0  0
  140.3820   74.0150  221.0780 C   0  0  0  0  0  0  0  0  0  0  0  0
  140.7510   73.3300  219.9400 C   0  0  0  0  0  0  0  0  0  0  0  0
  140.9530   71.9660  219.9160 C   0  0  0  0  0  0  0  0  0  0  0  0
  140.7710   71.2870  221.1030 C   0  0  0  0  0  0  0  0  0  0  0  0
  140.4040   71.9050  222.2810 C   0  0  0  0  0  0  0  0  0  0  0  0
  140.2180   71.1440  223.5350 C   0  0  0  0  0  0  0  0  0  0  0  0
  140.6660   71.6930  224.6100 N   0  0  0  0  0  0  0  0  0  0  0  0
  140.5610   71.0840  225.8900 C   0  0  0  0  0  0  0  0  0  0  0  0
  141.0800   71.7710  226.9680 C   0  0  0  0  0  0  0  0  0  0  0  0
  140.9750   71.1730  228.2110 C   0  0  0  0  0  0  0  0  0  0  0  0
  140.3650   69.9210  228.3580 C   0  0  0  0  0  0  0  0  0  0  0  0
  139.8530   69.2560  227.2470 C   0  0  0  0  0  0  0  0  0  0  0  0
  139.9560   69.8510  226.0030 C   0  0  0  0  0  0  0  0  0  0  0  0
  139.4530   69.2380  224.7830 C   0  0  0  0  0  0  0  0  0  0  0  0
  138.9000   68.1110  224.8920 O   0  0  0  0  0  0  0  0  0  0  0  0
  139.5490   69.8510  223.4420 C   0  0  0  0  0  0  0  0  0  0  0  0
  140.2190   73.2730  222.2260 C   0  0  0  0  0  0  0  0  0  0  0  0
  141.9070   76.0120  222.0910 H   0  0  0  0  0  0  0  0  0  0  0  0
  141.8384   78.3314  221.3837 H   0  0  0  0  0  0  0  0  0  0  0  0
  140.1983   78.0560  220.6697 H   0  0  0  0  0  0  0  0  0  0  0  0
  139.3347   78.9397  222.4843 H   0  0  0  0  0  0  0  0  0  0  0  0
  139.9671   77.4889  223.3875 H   0  0  0  0  0  0  0  0  0  0  0  0
  141.0216   78.9204  224.6179 H   0  0  0  0  0  0  0  0  0  0  0  0
  140.6926   80.8634  222.1941 H   0  0  0  0  0  0  0  0  0  0  0  0
  139.8467   81.0220  223.7085 H   0  0  0  0  0  0  0  0  0  0  0  0
  142.1095   82.4188  223.3953 H   0  0  0  0  0  0  0  0  0  0  0  0
  141.9677   81.5715  224.9176 H   0  0  0  0  0  0  0  0  0  0  0  0
  143.6090   80.9186  222.4825 H   0  0  0  0  0  0  0  0  0  0  0  0
  143.9239   80.4819  224.1815 H   0  0  0  0  0  0  0  0  0  0  0  0
  142.6528   78.9022  222.0757 H   0  0  0  0  0  0  0  0  0  0  0  0
  143.1304   78.3725  223.6899 H   0  0  0  0  0  0  0  0  0  0  0  0
  140.8908   73.8975  219.0081 H   0  0  0  0  0  0  0  0  0  0  0  0
  141.2457   71.4437  218.9932 H   0  0  0  0  0  0  0  0  0  0  0  0
  140.9262   70.1980  221.1108 H   0  0  0  0  0  0  0  0  0  0  0  0
  141.5578   72.7541  226.8442 H   0  0  0  0  0  0  0  0  0  0  0  0
  141.3763   71.6881  229.0963 H   0  0  0  0  0  0  0  0  0  0  0  0
  140.2901   69.4614  229.3546 H   0  0  0  0  0  0  0  0  0  0  0  0
  139.3737   68.2720  227.3572 H   0  0  0  0  0  0  0  0  0  0  0  0
  140.1249   69.1890  222.7785 H   0  0  0  0  0  0  0  0  0  0  0  0
  138.5369   69.9948  223.0357 H   0  0  0  0  0  0  0  0  0  0  0  0
  139.9261   73.7968  223.1479 H   0  0  0  0  0  0  0  0  0  0  0  0
  1  2  2  0
  2  3  1  0
  3  4  1  0
  4  5  1  0
  5  6  1  0
  6  7  1  0
  7  8  1  0
  8  9  1  0
  9 10  1  0
  2 11  1  0
 11 12  2  0
 12 13  1  0
 13 14  2  0
 14 15  1  0
 15 16  1  0
 16 17  2  0
 17 18  1  0
 18 19  2  0
 19 20  1  0
 20 21  2  0
 21 22  1  0
 22 23  2  0
 23 24  1  0
 24 25  2  0
 24 26  1  0
 15 27  2  0
 10  6  1  0
 27 11  1  0
 26 16  1  0
 23 18  1  0
  3 28  1  0
  4 29  1  0
  4 30  1  0
  5 31  1  0
  5 32  1  0
  6 33  1  0
  7 34  1  0
  7 35  1  0
  8 36  1  0
  8 37  1  0
  9 38  1  0
  9 39  1  0
 10 40  1  0
 10 41  1  0
 12 42  1  0
 13 43  1  0
 14 44  1  0
 19 45  1  0
 20 46  1  0
 21 47  1  0
 22 48  1  0
 26 49  1  0
 26 50  1  0
 27 51  1  0
M  END
>  <smiles>  (18) 
O=C(NCCC1CCCC1)c1cccc(C2=Nc3ccccc3C(=O)C2)c1

>  <score_type>  (18) 
oracle

>  <origin>  (18) 
autodockgpu

>  <m_score__min__energy>  (18) 
-9.5099999999999998

>  <m_primary>  (18) 
energy

>  <rmsd>  (18) 
4.37245797784476

>  <m_score__min__rmsd>  (18) 
4.37245797784476

>  <meeko>  (18) 
{"free_energy": -9.46, "intermolecular_energy": -10.95, "internal_energy": -0.79, "cluster_size": 50, "cluster_id": 1, "rank_in_cluster": 6}

>  <energy>  (18) 
-9.36

>  <cluster_rmsd>  (18) 
1.37

>  <cluster>  (18) 
1

$$$$

     RDKit          3D

 51 54  0  0  0  0  0  0  0  0999 V2000
  138.9440   75.9770  220.8210 O   0  0  0  0  0  0  0  0  0  0  0  0
  140.0900   75.5650  221.2000 C   0  0  0  0  0  0  0  0  0  0  0  0
  141.0850   76.4950  221.5730 N   0  0  0  0  0  0  0  0  0  0  0  0
  140.8970   77.9320  221.5610 C   0  0  0  0  0  0  0  0  0  0  0  0
  140.0900   78.3840  222.7310 C   0  0  0  0  0  0  0  0  0  0  0  0
  140.7540   79.4950  223.5110 C   0  0  0  0  0  0  0  0  0  0  0  0
  140.8580   80.7160  222.6120 C   0  0  0  0  0  0  0  0  0  0  0  0
  141.8530   81.5700  223.3700 C   0  0  0  0  0  0  0  0  0  0  0  0
  142.8650   80.5580  223.8390 C   0  0  0  0  0  0  0  0  0  0  0  0
  142.1930   79.2130  223.8410 C   0  0  0  0  0  0  0  0  0  0  0  0
  140.2690   74.1200  221.2120 C   0  0  0  0  0  0  0  0  0  0  0  0
  140.5970   73.4700  220.0410 C   0  0  0  0  0  0  0  0  0  0  0  0
  140.7850   72.1060  219.9650 C   0  0  0  0  0  0  0  0  0  0  0  0
  140.6300   71.3890  221.1330 C   0  0  0  0  0  0  0  0  0  0  0  0
  140.3040   71.9700  222.3420 C   0  0  0  0  0  0  0  0  0  0  0  0
  140.1460   71.1690  223.5750 C   0  0  0  0  0  0  0  0  0  0  0  0
  140.6160   71.6850  224.6570 N   0  0  0  0  0  0  0  0  0  0  0  0
  140.5400   71.0360  225.9180 C   0  0  0  0  0  0  0  0  0  0  0  0
  141.0790   71.6890  227.0070 C   0  0  0  0  0  0  0  0  0  0  0  0
  141.0020   71.0520  228.2330 C   0  0  0  0  0  0  0  0  0  0  0  0
  140.3990   69.7950  228.3520 C   0  0  0  0  0  0  0  0  0  0  0  0
  139.8640   69.1640  227.2310 C   0  0  0  0  0  0  0  0  0  0  0  0
  139.9400   69.7980  226.0050 C   0  0  0  0  0  0  0  0  0  0  0  0
  139.4120   69.2220  224.7770 C   0  0  0  0  0  0  0  0  0  0  0  0
  138.8640   68.0910  224.8620 O   0  0  0  0  0  0  0  0  0  0  0  0
  139.4790   69.8780  223.4540 C   0  0  0  0  0  0  0  0  0  0  0  0
  140.1310   73.3410  222.3380 C   0  0  0  0  0  0  0  0  0  0  0  0
  142.0120   76.0850  221.8770 H   0  0  0  0  0  0  0  0  0  0  0  0
  141.8812   78.4222  221.5940 H   0  0  0  0  0  0  0  0  0  0  0  0
  140.3570   78.2033  220.6419 H   0  0  0  0  0  0  0  0  0  0  0  0
  139.1163   78.7441  222.3674 H   0  0  0  0  0  0  0  0  0  0  0  0
  139.9821   77.5244  223.4088 H   0  0  0  0  0  0  0  0  0  0  0  0
  140.1517   79.6177  224.4232 H   0  0  0  0  0  0  0  0  0  0  0  0
  141.2367   80.4486  221.6145 H   0  0  0  0  0  0  0  0  0  0  0  0
  139.8958   81.2138  222.4210 H   0  0  0  0  0  0  0  0  0  0  0  0
  142.3165   82.3190  222.7110 H   0  0  0  0  0  0  0  0  0  0  0  0
  141.3993   82.1469  224.1894 H   0  0  0  0  0  0  0  0  0  0  0  0
  143.7276   80.5456  223.1565 H   0  0  0  0  0  0  0  0  0  0  0  0
  143.2273   80.8111  224.8463 H   0  0  0  0  0  0  0  0  0  0  0  0
  142.6419   78.5557  223.0817 H   0  0  0  0  0  0  0  0  0  0  0  0
  142.3016   78.6990  224.8074 H   0  0  0  0  0  0  0  0  0  0  0  0
  140.7142   74.0673  219.1248 H   0  0  0  0  0  0  0  0  0  0  0  0
  141.0464   71.6128  219.0171 H   0  0  0  0  0  0  0  0  0  0  0  0
  140.7734   70.2989  221.0994 H   0  0  0  0  0  0  0  0  0  0  0  0
  141.5514   72.6771  226.9048 H   0  0  0  0  0  0  0  0  0  0  0  0
  141.4203   71.5401  229.1256 H   0  0  0  0  0  0  0  0  0  0  0  0
  140.3472   69.3031  229.3345 H   0  0  0  0  0  0  0  0  0  0  0  0
  139.3883   68.1762  227.3202 H   0  0  0  0  0  0  0  0  0  0  0  0
  140.0431   69.2395  222.7582 H   0  0  0  0  0  0  0  0  0  0  0  0
  138.4586   70.0312  223.0729 H   0  0  0  0  0  0  0  0  0  0  0  0
  139.8691   73.8358  223.2849 H   0  0  0  0  0  0  0  0  0  0  0  0
  1  2  2  0
  2  3  1  0
  3  4  1  0
  4  5  1  0
  5  6  1  0
  6  7  1  0
  7  8  1  0
  8  9  1  0
  9 10  1  0
  2 11  1  0
 11 12  2  0
 12 13  1  0
 13 14  2  0
 14 15  1  0
 15 16  1  0
 16 17  2  0
 17 18  1  0
 18 19  2  0
 19 20  1  0
 20 21  2  0
 21 22  1  0
 22 23  2  0
 23 24  1  0
 24 25  2  0
 24 26  1  0
 15 27  2  0
 10  6  1  0
 27 11  1  0
 26 16  1  0
 23 18  1  0
  3 28  1  0
  4 29  1  0
  4 30  1  0
  5 31  1  0
  5 32  1  0
  6 33  1  0
  7 34  1  0
  7 35  1  0
  8 36  1  0
  8 37  1  0
  9 38  1  0
  9 39  1  0
 10 40  1  0
 10 41  1  0
 12 42  1  0
 13 43  1  0
 14 44  1  0
 19 45  1  0
 20 46  1  0
 21 47  1  0
 22 48  1  0
 26 49  1  0
 26 50  1  0
 27 51  1  0
M  END
>  <smiles>  (19) 
O=C(NCCC1CCCC1)c1cccc(C2=Nc3ccccc3C(=O)C2)c1

>  <score_type>  (19) 
oracle

>  <origin>  (19) 
autodockgpu

>  <m_score__min__energy>  (19) 
-9.5099999999999998

>  <m_primary>  (19) 
energy

>  <rmsd>  (19) 
4.296414711784486

>  <m_score__min__rmsd>  (19) 
4.296414711784486

>  <meeko>  (19) 
{"free_energy": -9.45, "intermolecular_energy": -10.94, "internal_energy": -0.81, "cluster_size": 50, "cluster_id": 1, "rank_in_cluster": 10}

>  <energy>  (19) 
-9.35

>  <cluster_rmsd>  (19) 
0.19

>  <cluster>  (19) 
1

$$$$

     RDKit          3D

 51 54  0  0  0  0  0  0  0  0999 V2000
  139.5690   75.5090  220.1420 O   0  0  0  0  0  0  0  0  0  0  0  0
  139.5830   74.9690  221.2970 C   0  0  0  0  0  0  0  0  0  0  0  0
  139.5270   75.7790  222.4540 N   0  0  0  0  0  0  0  0  0  0  0  0
  139.4480   77.2270  222.4260 C   0  0  0  0  0  0  0  0  0  0  0  0
  140.8020   77.8410  222.2960 C   0  0  0  0  0  0  0  0  0  0  0  0
  140.9170   79.1690  223.0080 C   0  0  0  0  0  0  0  0  0  0  0  0
  141.1000   80.2580  221.9640 C   0  0  0  0  0  0  0  0  0  0  0  0
  141.5750   81.4200  222.8130 C   0  0  0  0  0  0  0  0  0  0  0  0
  142.5250   80.7560  223.7750 C   0  0  0  0  0  0  0  0  0  0  0  0
  142.1670   79.2970  223.8310 C   0  0  0  0  0  0  0  0  0  0  0  0
  139.6600   73.5160  221.3150 C   0  0  0  0  0  0  0  0  0  0  0  0
  139.6750   72.8250  220.1220 C   0  0  0  0  0  0  0  0  0  0  0  0
  139.7460   71.4490  220.0510 C   0  0  0  0  0  0  0  0  0  0  0  0
  139.8040   70.7640  221.2470 C   0  0  0  0  0  0  0  0  0  0  0  0
  139.7940   71.3880  222.4790 C   0  0  0  0  0  0  0  0  0  0  0  0
  139.8570   70.6200  223.7410 C   0  0  0  0  0  0  0  0  0  0  0  0
  140.3230   71.2430  224.7680 N   0  0  0  0  0  0  0  0  0  0  0  0
  140.4450   70.6390  226.0480 C   0  0  0  0  0  0  0  0  0  0  0  0
  140.9580   71.4090  227.0710 C   0  0  0  0  0  0  0  0  0  0  0  0
  141.0750   70.8160  228.3150 C   0  0  0  0  0  0  0  0  0  0  0  0
  140.6840   69.4860  228.5160 C   0  0  0  0  0  0  0  0  0  0  0  0
  140.1700   68.7380  227.4610 C   0  0  0  0  0  0  0  0  0  0  0  0
  140.0520   69.3290  226.2160 C   0  0  0  0  0  0  0  0  0  0  0  0
  139.5270   68.6320  225.0510 C   0  0  0  0  0  0  0  0  0  0  0  0
  139.1690   67.4350  225.2100 O   0  0  0  0  0  0  0  0  0  0  0  0
  139.3900   69.2390  223.7100 C   0  0  0  0  0  0  0  0  0  0  0  0
  139.7200   72.7670  222.4690 C   0  0  0  0  0  0  0  0  0  0  0  0
  139.5430   75.2670  223.3790 H   0  0  0  0  0  0  0  0  0  0  0  0
  138.8307   77.5358  221.5695 H   0  0  0  0  0  0  0  0  0  0  0  0
  139.0008   77.5689  223.3710 H   0  0  0  0  0  0  0  0  0  0  0  0
  141.5434   77.1491  222.7221 H   0  0  0  0  0  0  0  0  0  0  0  0
  140.9798   78.0240  221.2260 H   0  0  0  0  0  0  0  0  0  0  0  0
  140.0166   79.2480  223.6349 H   0  0  0  0  0  0  0  0  0  0  0  0
  141.8542   79.9734  221.2156 H   0  0  0  0  0  0  0  0  0  0  0  0
  140.1935   80.4732  221.3792 H   0  0  0  0  0  0  0  0  0  0  0  0
  142.0918   82.1740  222.2011 H   0  0  0  0  0  0  0  0  0  0  0  0
  140.7571   81.9626  223.3096 H   0  0  0  0  0  0  0  0  0  0  0  0
  143.5602   80.8752  223.4227 H   0  0  0  0  0  0  0  0  0  0  0  0
  142.4468   81.2121  224.7729 H   0  0  0  0  0  0  0  0  0  0  0  0
  142.9748   78.6845  223.4041 H   0  0  0  0  0  0  0  0  0  0  0  0
  142.0181   78.9485  224.8636 H   0  0  0  0  0  0  0  0  0  0  0  0
  139.6282   73.3971  219.1836 H   0  0  0  0  0  0  0  0  0  0  0  0
  139.7559   70.9224  219.0853 H   0  0  0  0  0  0  0  0  0  0  0  0
  139.8611   69.6659  221.2179 H   0  0  0  0  0  0  0  0  0  0  0  0
  141.2619   72.4529  226.9041 H   0  0  0  0  0  0  0  0  0  0  0  0
  141.4802   71.3961  229.1572 H   0  0  0  0  0  0  0  0  0  0  0  0
  140.7837   69.0307  229.5124 H   0  0  0  0  0  0  0  0  0  0  0  0
  139.8624   67.6931  227.6148 H   0  0  0  0  0  0  0  0  0  0  0  0
  139.9905   68.6669  222.9875 H   0  0  0  0  0  0  0  0  0  0  0  0
  138.3318   69.2209  223.4104 H   0  0  0  0  0  0  0  0  0  0  0  0
  139.7084   73.2950  223.4339 H   0  0  0  0  0  0  0  0  0  0  0  0
  1  2  2  0
  2  3  1  0
  3  4  1  0
  4  5  1  0
  5  6  1  0
  6  7  1  0
  7  8  1  0
  8  9  1  0
  9 10  1  0
  2 11  1  0
 11 12  2  0
 12 13  1  0
 13 14  2  0
 14 15  1  0
 15 16  1  0
 16 17  2  0
 17 18  1  0
 18 19  2  0
 19 20  1  0
 20 21  2  0
 21 22  1  0
 22 23  2  0
 23 24  1  0
 24 25  2  0
 24 26  1  0
 15 27  2  0
 10  6  1  0
 27 11  1  0
 26 16  1  0
 23 18  1  0
  3 28  1  0
  4 29  1  0
  4 30  1  0
  5 31  1  0
  5 32  1  0
  6 33  1  0
  7 34  1  0
  7 35  1  0
  8 36  1  0
  8 37  1  0
  9 38  1  0
  9 39  1  0
 10 40  1  0
 10 41  1  0
 12 42  1  0
 13 43  1  0
 14 44  1  0
 19 45  1  0
 20 46  1  0
 21 47  1  0
 22 48  1  0
 26 49  1  0
 26 50  1  0
 27 51  1  0
M  END
>  <smiles>  (20) 
O=C(NCCC1CCCC1)c1cccc(C2=Nc3ccccc3C(=O)C2)c1

>  <score_type>  (20) 
oracle

>  <origin>  (20) 
autodockgpu

>  <m_score__min__energy>  (20) 
-9.5099999999999998

>  <m_primary>  (20) 
energy

>  <rmsd>  (20) 
4.621162736122738

>  <m_score__min__rmsd>  (20) 
4.621162736122738

>  <meeko>  (20) 
{"free_energy": -9.17, "intermolecular_energy": -10.66, "internal_energy": -0.73, "cluster_size": 50, "cluster_id": 1, "rank_in_cluster": 34}

>  <energy>  (20) 
-9.34

>  <cluster_rmsd>  (20) 
0.5

>  <cluster>  (20) 
1

$$$$

     RDKit          3D

 51 54  0  0  0  0  0  0  0  0999 V2000
  138.8310   75.7830  221.0500 O   0  0  0  0  0  0  0  0  0  0  0  0
  140.0240   75.3770  221.2450 C   0  0  0  0  0  0  0  0  0  0  0  0
  141.0620   76.3130  221.4490 N   0  0  0  0  0  0  0  0  0  0  0  0
  140.8680   77.7500  221.4560 C   0  0  0  0  0  0  0  0  0  0  0  0
  140.2440   78.2060  222.7330 C   0  0  0  0  0  0  0  0  0  0  0  0
  141.1500   79.1070  223.5410 C   0  0  0  0  0  0  0  0  0  0  0  0
  140.7190   80.5460  223.3170 C   0  0  0  0  0  0  0  0  0  0  0  0
  141.9120   81.3110  223.8520 C   0  0  0  0  0  0  0  0  0  0  0  0
  143.0760   80.5020  223.3420 C   0  0  0  0  0  0  0  0  0  0  0  0
  142.5710   79.1160  223.0530 C   0  0  0  0  0  0  0  0  0  0  0  0
  140.2090   73.9330  221.2380 C   0  0  0  0  0  0  0  0  0  0  0  0
  140.5050   73.2960  220.0520 C   0  0  0  0  0  0  0  0  0  0  0  0
  140.6950   71.9330  219.9580 C   0  0  0  0  0  0  0  0  0  0  0  0
  140.5780   71.2040  221.1240 C   0  0  0  0  0  0  0  0  0  0  0  0
  140.2860   71.7740  222.3470 C   0  0  0  0  0  0  0  0  0  0  0  0
  140.1670   70.9600  223.5770 C   0  0  0  0  0  0  0  0  0  0  0  0
  140.6100   71.4950  224.6610 N   0  0  0  0  0  0  0  0  0  0  0  0
  140.5660   70.8370  225.9200 C   0  0  0  0  0  0  0  0  0  0  0  0
  141.0720   71.5130  227.0120 C   0  0  0  0  0  0  0  0  0  0  0  0
  141.0260   70.8670  228.2340 C   0  0  0  0  0  0  0  0  0  0  0  0
  140.4860   69.5810  228.3480 C   0  0  0  0  0  0  0  0  0  0  0  0
  139.9850   68.9280  227.2250 C   0  0  0  0  0  0  0  0  0  0  0  0
  140.0290   69.5710  226.0010 C   0  0  0  0  0  0  0  0  0  0  0  0
  139.5310   68.9740  224.7700 C   0  0  0  0  0  0  0  0  0  0  0  0
  139.0400   67.8160  224.8510 O   0  0  0  0  0  0  0  0  0  0  0  0
  139.5660   69.6380  223.4500 C   0  0  0  0  0  0  0  0  0  0  0  0
  140.1070   73.1430  222.3610 C   0  0  0  0  0  0  0  0  0  0  0  0
  142.0270   75.9090  221.6040 H   0  0  0  0  0  0  0  0  0  0  0  0
  141.8436   78.2440  221.3373 H   0  0  0  0  0  0  0  0  0  0  0  0
  140.1952   78.0139  220.6267 H   0  0  0  0  0  0  0  0  0  0  0  0
  139.3218   78.7567  222.4961 H   0  0  0  0  0  0  0  0  0  0  0  0
  140.0416   77.3111  223.3398 H   0  0  0  0  0  0  0  0  0  0  0  0
  141.0856   78.7396  224.5758 H   0  0  0  0  0  0  0  0  0  0  0  0
  140.5554   80.7539  222.2493 H   0  0  0  0  0  0  0  0  0  0  0  0
  139.7669   80.8075  223.8020 H   0  0  0  0  0  0  0  0  0  0  0  0
  141.9368   82.3365  223.4550 H   0  0  0  0  0  0  0  0  0  0  0  0
  141.9041   81.4250  224.9461 H   0  0  0  0  0  0  0  0  0  0  0  0
  143.4746   80.9558  222.4226 H   0  0  0  0  0  0  0  0  0  0  0  0
  143.8836   80.4723  224.0882 H   0  0  0  0  0  0  0  0  0  0  0  0
  142.6098   78.9082  221.9735 H   0  0  0  0  0  0  0  0  0  0  0  0
  143.1807   78.3443  223.5457 H   0  0  0  0  0  0  0  0  0  0  0  0
  140.5938   73.9024  219.1386 H   0  0  0  0  0  0  0  0  0  0  0  0
  140.9290   71.4495  218.9981 H   0  0  0  0  0  0  0  0  0  0  0  0
  140.7247   70.1149  221.0765 H   0  0  0  0  0  0  0  0  0  0  0  0
  141.4945   72.5239  226.9143 H   0  0  0  0  0  0  0  0  0  0  0  0
  141.4194   71.3712  229.1290 H   0  0  0  0  0  0  0  0  0  0  0  0
  140.4572   69.0840  229.3289 H   0  0  0  0  0  0  0  0  0  0  0  0
  139.5608   67.9166  227.3098 H   0  0  0  0  0  0  0  0  0  0  0  0
  140.1620   69.0316  222.7521 H   0  0  0  0  0  0  0  0  0  0  0  0
  138.5394   69.7413  223.0685 H   0  0  0  0  0  0  0  0  0  0  0  0
  139.8705   73.6279  223.3196 H   0  0  0  0  0  0  0  0  0  0  0  0
  1  2  2  0
  2  3  1  0
  3  4  1  0
  4  5  1  0
  5  6  1  0
  6  7  1  0
  7  8  1  0
  8  9  1  0
  9 10  1  0
  2 11  1  0
 11 12  2  0
 12 13  1  0
 13 14  2  0
 14 15  1  0
 15 16  1  0
 16 17  2  0
 17 18  1  0
 18 19  2  0
 19 20  1  0
 20 21  2  0
 21 22  1  0
 22 23  2  0
 23 24  1  0
 24 25  2  0
 24 26  1  0
 15 27  2  0
 10  6  1  0
 27 11  1  0
 26 16  1  0
 23 18  1  0
  3 28  1  0
  4 29  1  0
  4 30  1  0
  5 31  1  0
  5 32  1  0
  6 33  1  0
  7 34  1  0
  7 35  1  0
  8 36  1  0
  8 37  1  0
  9 38  1  0
  9 39  1  0
 10 40  1  0
 10 41  1  0
 12 42  1  0
 13 43  1  0
 14 44  1  0
 19 45  1  0
 20 46  1  0
 21 47  1  0
 22 48  1  0
 26 49  1  0
 26 50  1  0
 27 51  1  0
M  END
>  <smiles>  (21) 
O=C(NCCC1CCCC1)c1cccc(C2=Nc3ccccc3C(=O)C2)c1

>  <score_type>  (21) 
oracle

>  <origin>  (21) 
autodockgpu

>  <m_score__min__energy>  (21) 
-9.5099999999999998

>  <m_primary>  (21) 
energy

>  <rmsd>  (21) 
4.431735694382432

>  <m_score__min__rmsd>  (21) 
4.431735694382432

>  <meeko>  (21) 
{"free_energy": -9.46, "intermolecular_energy": -10.95, "internal_energy": -0.81, "cluster_size": 50, "cluster_id": 1, "rank_in_cluster": 7}

>  <energy>  (21) 
-9.33

>  <cluster_rmsd>  (21) 
0.51

>  <cluster>  (21) 
1

$$$$

     RDKit          3D

 51 54  0  0  0  0  0  0  0  0999 V2000
  140.8350   75.8410  222.2990 O   0  0  0  0  0  0  0  0  0  0  0  0
  141.0070   75.1520  221.2400 C   0  0  0  0  0  0  0  0  0  0  0  0
  141.6870   75.7150  220.1370 N   0  0  0  0  0  0  0  0  0  0  0  0
  142.2260   77.0610  220.1180 C   0  0  0  0  0  0  0  0  0  0  0  0
  141.2650   78.0380  220.7080 C   0  0  0  0  0  0  0  0  0  0  0  0
  141.9280   79.0270  221.6390 C   0  0  0  0  0  0  0  0  0  0  0  0
  141.6090   78.6250  223.0700 C   0  0  0  0  0  0  0  0  0  0  0  0
  141.9930   79.8770  223.8320 C   0  0  0  0  0  0  0  0  0  0  0  0
  141.4770   80.9750  222.9400 C   0  0  0  0  0  0  0  0  0  0  0  0
  141.3450   80.4090  221.5540 C   0  0  0  0  0  0  0  0  0  0  0  0
  140.4650   73.8020  221.2690 C   0  0  0  0  0  0  0  0  0  0  0  0
  139.9330   73.2620  220.1170 C   0  0  0  0  0  0  0  0  0  0  0  0
  139.3990   71.9910  220.0580 C   0  0  0  0  0  0  0  0  0  0  0  0
  139.4160   71.2530  221.2240 C   0  0  0  0  0  0  0  0  0  0  0  0
  139.9320   71.7270  222.4140 C   0  0  0  0  0  0  0  0  0  0  0  0
  139.9320   70.9060  223.6440 C   0  0  0  0  0  0  0  0  0  0  0  0
  140.4190   71.4590  224.7010 N   0  0  0  0  0  0  0  0  0  0  0  0
  140.4880   70.7980  225.9560 C   0  0  0  0  0  0  0  0  0  0  0  0
  141.0320   71.4940  227.0160 C   0  0  0  0  0  0  0  0  0  0  0  0
  141.0960   70.8450  228.2360 C   0  0  0  0  0  0  0  0  0  0  0  0
  140.6250   69.5340  228.3780 C   0  0  0  0  0  0  0  0  0  0  0  0
  140.0820   68.8610  227.2870 C   0  0  0  0  0  0  0  0  0  0  0  0
  140.0160   69.5070  226.0660 C   0  0  0  0  0  0  0  0  0  0  0  0
  139.4670   68.8900  224.8670 C   0  0  0  0  0  0  0  0  0  0  0  0
  139.0370   67.7110  224.9730 O   0  0  0  0  0  0  0  0  0  0  0  0
  139.3850   69.5570  223.5510 C   0  0  0  0  0  0  0  0  0  0  0  0
  140.4470   73.0080  222.3940 C   0  0  0  0  0  0  0  0  0  0  0  0
  141.7940   75.0890  219.2910 H   0  0  0  0  0  0  0  0  0  0  0  0
  143.1598   77.0813  220.6991 H   0  0  0  0  0  0  0  0  0  0  0  0
  142.4124   77.3457  219.0720 H   0  0  0  0  0  0  0  0  0  0  0  0
  140.7837   78.5943  219.8901 H   0  0  0  0  0  0  0  0  0  0  0  0
  140.5349   77.4663  221.2997 H   0  0  0  0  0  0  0  0  0  0  0  0
  142.9928   79.0258  221.3629 H   0  0  0  0  0  0  0  0  0  0  0  0
  140.5409   78.3923  223.1928 H   0  0  0  0  0  0  0  0  0  0  0  0
  142.1326   77.7182  223.4070 H   0  0  0  0  0  0  0  0  0  0  0  0
  141.5078   79.9059  224.8188 H   0  0  0  0  0  0  0  0  0  0  0  0
  143.0710   79.9507  224.0380 H   0  0  0  0  0  0  0  0  0  0  0  0
  140.4964   81.3206  223.2992 H   0  0  0  0  0  0  0  0  0  0  0  0
  142.1664   81.8322  222.9436 H   0  0  0  0  0  0  0  0  0  0  0  0
  140.2876   80.3644  221.2541 H   0  0  0  0  0  0  0  0  0  0  0  0
  141.8599   81.0284  220.8049 H   0  0  0  0  0  0  0  0  0  0  0  0
  139.9344   73.8731  219.2023 H   0  0  0  0  0  0  0  0  0  0  0  0
  138.9796   71.5852  219.1256 H   0  0  0  0  0  0  0  0  0  0  0  0
  138.9974   70.2359  221.2045 H   0  0  0  0  0  0  0  0  0  0  0  0
  141.4000   72.5236  226.8958 H   0  0  0  0  0  0  0  0  0  0  0  0
  141.5225   71.3657  229.1060 H   0  0  0  0  0  0  0  0  0  0  0  0
  140.6843   69.0337  229.3559 H   0  0  0  0  0  0  0  0  0  0  0  0
  139.7111   67.8310  227.3945 H   0  0  0  0  0  0  0  0  0  0  0  0
  139.9611   68.9797  222.8128 H   0  0  0  0  0  0  0  0  0  0  0  0
  138.3319   69.6137  223.2383 H   0  0  0  0  0  0  0  0  0  0  0  0
  140.8651   73.4159  223.3261 H   0  0  0  0  0  0  0  0  0  0  0  0
  1  2  2  0
  2  3  1  0
  3  4  1  0
  4  5  1  0
  5  6  1  0
  6  7  1  0
  7  8  1  0
  8  9  1  0
  9 10  1  0
  2 11  1  0
 11 12  2  0
 12 13  1  0
 13 14  2  0
 14 15  1  0
 15 16  1  0
 16 17  2  0
 17 18  1  0
 18 19  2  0
 19 20  1  0
 20 21  2  0
 21 22  1  0
 22 23  2  0
 23 24  1  0
 24 25  2  0
 24 26  1  0
 15 27  2  0
 10  6  1  0
 27 11  1  0
 26 16  1  0
 23 18  1  0
  3 28  1  0
  4 29  1  0
  4 30  1  0
  5 31  1  0
  5 32  1  0
  6 33  1  0
  7 34  1  0
  7 35  1  0
  8 36  1  0
  8 37  1  0
  9 38  1  0
  9 39  1  0
 10 40  1  0
 10 41  1  0
 12 42  1  0
 13 43  1  0
 14 44  1  0
 19 45  1  0
 20 46  1  0
 21 47  1  0
 22 48  1  0
 26 49  1  0
 26 50  1  0
 27 51  1  0
M  END
>  <smiles>  (22) 
O=C(NCCC1CCCC1)c1cccc(C2=Nc3ccccc3C(=O)C2)c1

>  <score_type>  (22) 
oracle

>  <origin>  (22) 
autodockgpu

>  <m_score__min__energy>  (22) 
-9.5099999999999998

>  <m_primary>  (22) 
energy

>  <rmsd>  (22) 
4.465901912225102

>  <m_score__min__rmsd>  (22) 
4.465901912225102

>  <meeko>  (22) 
{"free_energy": -8.86, "intermolecular_energy": -10.35, "internal_energy": -0.79, "cluster_size": 50, "cluster_id": 1, "rank_in_cluster": 45}

>  <energy>  (22) 
-9.33

>  <cluster_rmsd>  (22) 
0.31

>  <cluster>  (22) 
1

$$$$

     RDKit          3D

 51 54  0  0  0  0  0  0  0  0999 V2000
  141.0620   75.4920  220.5650 O   0  0  0  0  0  0  0  0  0  0  0  0
  140.2580   75.0160  221.4320 C   0  0  0  0  0  0  0  0  0  0  0  0
  139.5990   75.8820  222.3320 N   0  0  0  0  0  0  0  0  0  0  0  0
  139.7690   77.3220  222.3440 C   0  0  0  0  0  0  0  0  0  0  0  0
  141.0910   77.7070  222.9170 C   0  0  0  0  0  0  0  0  0  0  0  0
  141.5210   79.1020  222.5210 C   0  0  0  0  0  0  0  0  0  0  0  0
  142.2020   79.7490  223.7150 C   0  0  0  0  0  0  0  0  0  0  0  0
  142.2170   81.2080  223.3050 C   0  0  0  0  0  0  0  0  0  0  0  0
  140.8580   81.3880  222.6820 C   0  0  0  0  0  0  0  0  0  0  0  0
  140.3670   80.0290  222.2650 C   0  0  0  0  0  0  0  0  0  0  0  0
  140.0920   73.5700  221.4130 C   0  0  0  0  0  0  0  0  0  0  0  0
  139.9340   72.9240  220.2050 C   0  0  0  0  0  0  0  0  0  0  0  0
  139.7700   71.5580  220.0980 C   0  0  0  0  0  0  0  0  0  0  0  0
  139.7710   70.8360  221.2730 C   0  0  0  0  0  0  0  0  0  0  0  0
  139.9250   71.4130  222.5180 C   0  0  0  0  0  0  0  0  0  0  0  0
  139.9190   70.6060  223.7570 C   0  0  0  0  0  0  0  0  0  0  0  0
  140.4290   71.1590  224.8030 N   0  0  0  0  0  0  0  0  0  0  0  0
  140.4960   70.5100  226.0640 C   0  0  0  0  0  0  0  0  0  0  0  0
  141.0650   71.2060  227.1110 C   0  0  0  0  0  0  0  0  0  0  0  0
  141.1270   70.5690  228.3380 C   0  0  0  0  0  0  0  0  0  0  0  0
  140.6300   69.2700  228.4980 C   0  0  0  0  0  0  0  0  0  0  0  0
  140.0630   68.5970  227.4200 C   0  0  0  0  0  0  0  0  0  0  0  0
  139.9980   69.2310  226.1930 C   0  0  0  0  0  0  0  0  0  0  0  0
  139.4250   68.6130  225.0060 C   0  0  0  0  0  0  0  0  0  0  0  0
  138.9710   67.4440  225.1290 O   0  0  0  0  0  0  0  0  0  0  0  0
  139.3440   69.2680  223.6840 C   0  0  0  0  0  0  0  0  0  0  0  0
  140.0820   72.7850  222.5440 C   0  0  0  0  0  0  0  0  0  0  0  0
  138.9470   75.4200  223.0260 H   0  0  0  0  0  0  0  0  0  0  0  0
  139.7018   77.6993  221.3129 H   0  0  0  0  0  0  0  0  0  0  0  0
  138.9782   77.7597  222.9709 H   0  0  0  0  0  0  0  0  0  0  0  0
  141.0256   77.6581  224.0140 H   0  0  0  0  0  0  0  0  0  0  0  0
  141.8396   77.0058  222.5196 H   0  0  0  0  0  0  0  0  0  0  0  0
  142.1410   78.9782  221.6208 H   0  0  0  0  0  0  0  0  0  0  0  0
  141.6229   79.5975  224.6379 H   0  0  0  0  0  0  0  0  0  0  0  0
  143.1971   79.3374  223.9393 H   0  0  0  0  0  0  0  0  0  0  0  0
  142.3436   81.8646  224.1784 H   0  0  0  0  0  0  0  0  0  0  0  0
  143.0458   81.4639  222.6285 H   0  0  0  0  0  0  0  0  0  0  0  0
  140.1651   81.8292  223.4136 H   0  0  0  0  0  0  0  0  0  0  0  0
  140.9163   82.0614  221.8142 H   0  0  0  0  0  0  0  0  0  0  0  0
  139.4934   79.7331  222.8643 H   0  0  0  0  0  0  0  0  0  0  0  0
  140.0483   80.0104  221.2123 H   0  0  0  0  0  0  0  0  0  0  0  0
  139.9389   73.5254  219.2840 H   0  0  0  0  0  0  0  0  0  0  0  0
  139.6444   71.0680  219.1212 H   0  0  0  0  0  0  0  0  0  0  0  0
  139.6426   69.7450  221.2155 H   0  0  0  0  0  0  0  0  0  0  0  0
  141.4537   72.2261  226.9757 H   0  0  0  0  0  0  0  0  0  0  0  0
  141.5724   71.0899  229.1984 H   0  0  0  0  0  0  0  0  0  0  0  0
  140.6880   68.7790  229.4806 H   0  0  0  0  0  0  0  0  0  0  0  0
  139.6724   67.5760  227.5422 H   0  0  0  0  0  0  0  0  0  0  0  0
  139.9010   68.6714  222.9466 H   0  0  0  0  0  0  0  0  0  0  0  0
  138.2892   69.3432  223.3811 H   0  0  0  0  0  0  0  0  0  0  0  0
  140.2056   73.2766  223.5202 H   0  0  0  0  0  0  0  0  0  0  0  0
  1  2  2  0
  2  3  1  0
  3  4  1  0
  4  5  1  0
  5  6  1  0
  6  7  1  0
  7  8  1  0
  8  9  1  0
  9 10  1  0
  2 11  1  0
 11 12  2  0
 12 13  1  0
 13 14  2  0
 14 15  1  0
 15 16  1  0
 16 17  2  0
 17 18  1  0
 18 19  2  0
 19 20  1  0
 20 21  2  0
 21 22  1  0
 22 23  2  0
 23 24  1  0
 24 25  2  0
 24 26  1  0
 15 27  2  0
 10  6  1  0
 27 11  1  0
 26 16  1  0
 23 18  1  0
  3 28  1  0
  4 29  1  0
  4 30  1  0
  5 31  1  0
  5 32  1  0
  6 33  1  0
  7 34  1  0
  7 35  1  0
  8 36  1  0
  8 37  1  0
  9 38  1  0
  9 39  1  0
 10 40  1  0
 10 41  1  0
 12 42  1  0
 13 43  1  0
 14 44  1  0
 19 45  1  0
 20 46  1  0
 21 47  1  0
 22 48  1  0
 26 49  1  0
 26 50  1  0
 27 51  1  0
M  END
>  <smiles>  (23) 
O=C(NCCC1CCCC1)c1cccc(C2=Nc3ccccc3C(=O)C2)c1

>  <score_type>  (23) 
oracle

>  <origin>  (23) 
autodockgpu

>  <m_score__min__energy>  (23) 
-9.5099999999999998

>  <m_primary>  (23) 
energy

>  <rmsd>  (23) 
4.51371139639585

>  <m_score__min__rmsd>  (23) 
4.51371139639585

>  <meeko>  (23) 
{"free_energy": -9.12, "intermolecular_energy": -10.61, "internal_energy": -0.79, "cluster_size": 50, "cluster_id": 1, "rank_in_cluster": 37}

>  <energy>  (23) 
-9.29

>  <cluster_rmsd>  (23) 
0.78

>  <cluster>  (23) 
1

$$$$

     RDKit          3D

 51 54  0  0  0  0  0  0  0  0999 V2000
  138.6410   75.7100  221.6960 O   0  0  0  0  0  0  0  0  0  0  0  0
  139.8590   75.3630  221.8440 C   0  0  0  0  0  0  0  0  0  0  0  0
  140.8410   76.3410  222.1210 N   0  0  0  0  0  0  0  0  0  0  0  0
  140.5600   77.7560  222.2570 C   0  0  0  0  0  0  0  0  0  0  0  0
  141.4340   78.3860  223.2900 C   0  0  0  0  0  0  0  0  0  0  0  0
  141.6520   79.8630  223.0550 C   0  0  0  0  0  0  0  0  0  0  0  0
  140.2960   80.5490  223.0290 C   0  0  0  0  0  0  0  0  0  0  0  0
  140.6440   81.8920  222.4190 C   0  0  0  0  0  0  0  0  0  0  0  0
  141.6210   81.5170  221.3360 C   0  0  0  0  0  0  0  0  0  0  0  0
  142.1980   80.1750  221.6910 C   0  0  0  0  0  0  0  0  0  0  0  0
  140.1320   73.9400  221.7070 C   0  0  0  0  0  0  0  0  0  0  0  0
  140.5410   73.4450  220.4870 C   0  0  0  0  0  0  0  0  0  0  0  0
  140.8200   72.1110  220.2720 C   0  0  0  0  0  0  0  0  0  0  0  0
  140.6730   71.2610  221.3490 C   0  0  0  0  0  0  0  0  0  0  0  0
  140.2690   71.6850  222.5990 C   0  0  0  0  0  0  0  0  0  0  0  0
  140.1210   70.7450  223.7310 C   0  0  0  0  0  0  0  0  0  0  0  0
  140.5840   71.1390  224.8660 N   0  0  0  0  0  0  0  0  0  0  0  0
  140.5160   70.3470  226.0440 C   0  0  0  0  0  0  0  0  0  0  0  0
  141.0470   70.8780  227.2020 C   0  0  0  0  0  0  0  0  0  0  0  0
  140.9780   70.1020  228.3460 C   0  0  0  0  0  0  0  0  0  0  0  0
  140.3920   68.8310  228.3170 C   0  0  0  0  0  0  0  0  0  0  0  0
  139.8670   68.3260  227.1310 C   0  0  0  0  0  0  0  0  0  0  0  0
  139.9340   69.0990  225.9860 C   0  0  0  0  0  0  0  0  0  0  0  0
  139.4140   68.6620  224.6990 C   0  0  0  0  0  0  0  0  0  0  0  0
  138.8820   67.5210  224.6520 O   0  0  0  0  0  0  0  0  0  0  0  0
  139.4730   69.4670  223.4610 C   0  0  0  0  0  0  0  0  0  0  0  0
  140.0070   73.0350  222.7360 C   0  0  0  0  0  0  0  0  0  0  0  0
  141.8310   75.9840  222.2310 H   0  0  0  0  0  0  0  0  0  0  0  0
  140.7346   78.2505  221.2900 H   0  0  0  0  0  0  0  0  0  0  0  0
  139.5122   77.8732  222.5706 H   0  0  0  0  0  0  0  0  0  0  0  0
  140.9642   78.2531  224.2757 H   0  0  0  0  0  0  0  0  0  0  0  0
  142.4166   77.8946  223.2351 H   0  0  0  0  0  0  0  0  0  0  0  0
  142.3433   80.1899  223.8458 H   0  0  0  0  0  0  0  0  0  0  0  0
  139.5794   79.9975  222.4027 H   0  0  0  0  0  0  0  0  0  0  0  0
  139.8109   80.6177  224.0139 H   0  0  0  0  0  0  0  0  0  0  0  0
  139.7525   82.3800  221.9981 H   0  0  0  0  0  0  0  0  0  0  0  0
  141.0507   82.6107  223.1457 H   0  0  0  0  0  0  0  0  0  0  0  0
  141.1032   81.4586  220.3672 H   0  0  0  0  0  0  0  0  0  0  0  0
  142.4174   82.2714  221.2553 H   0  0  0  0  0  0  0  0  0  0  0  0
  141.8797   79.4132  220.9641 H   0  0  0  0  0  0  0  0  0  0  0  0
  143.2979   80.1830  221.6792 H   0  0  0  0  0  0  0  0  0  0  0  0
  140.6499   74.1459  219.6462 H   0  0  0  0  0  0  0  0  0  0  0  0
  141.1445   71.7422  219.2878 H   0  0  0  0  0  0  0  0  0  0  0  0
  140.8885   70.1921  221.2042 H   0  0  0  0  0  0  0  0  0  0  0  0
  141.5064   71.8774  227.2152 H   0  0  0  0  0  0  0  0  0  0  0  0
  141.3889   70.4890  229.2901 H   0  0  0  0  0  0  0  0  0  0  0  0
  140.3462   68.2284  229.2361 H   0  0  0  0  0  0  0  0  0  0  0  0
  139.4060   67.3276  227.1047 H   0  0  0  0  0  0  0  0  0  0  0  0
  140.0470   68.9210  222.6978 H   0  0  0  0  0  0  0  0  0  0  0  0
  138.4507   69.6487  223.0978 H   0  0  0  0  0  0  0  0  0  0  0  0
  139.6815   73.4055  223.7192 H   0  0  0  0  0  0  0  0  0  0  0  0
  1  2  2  0
  2  3  1  0
  3  4  1  0
  4  5  1  0
  5  6  1  0
  6  7  1  0
  7  8  1  0
  8  9  1  0
  9 10  1  0
  2 11  1  0
 11 12  2  0
 12 13  1  0
 13 14  2  0
 14 15  1  0
 15 16  1  0
 16 17  2  0
 17 18  1  0
 18 19  2  0
 19 20  1  0
 20 21  2  0
 21 22  1  0
 22 23  2  0
 23 24  1  0
 24 25  2  0
 24 26  1  0
 15 27  2  0
 10  6  1  0
 27 11  1  0
 26 16  1  0
 23 18  1  0
  3 28  1  0
  4 29  1  0
  4 30  1  0
  5 31  1  0
  5 32  1  0
  6 33  1  0
  7 34  1  0
  7 35  1  0
  8 36  1  0
  8 37  1  0
  9 38  1  0
  9 39  1  0
 10 40  1  0
 10 41  1  0
 12 42  1  0
 13 43  1  0
 14 44  1  0
 19 45  1  0
 20 46  1  0
 21 47  1  0
 22 48  1  0
 26 49  1  0
 26 50  1  0
 27 51  1  0
M  END
>  <smiles>  (24) 
O=C(NCCC1CCCC1)c1cccc(C2=Nc3ccccc3C(=O)C2)c1

>  <score_type>  (24) 
oracle

>  <origin>  (24) 
autodockgpu

>  <m_score__min__energy>  (24) 
-9.5099999999999998

>  <m_primary>  (24) 
energy

>  <rmsd>  (24) 
4.197380764802965

>  <m_score__min__rmsd>  (24) 
4.197380764802965

>  <meeko>  (24) 
{"free_energy": -8.96, "intermolecular_energy": -10.46, "internal_energy": -0.75, "cluster_size": 50, "cluster_id": 1, "rank_in_cluster": 42}

>  <energy>  (24) 
-9.28

>  <cluster_rmsd>  (24) 
0.64

>  <cluster>  (24) 
1

$$$$

     RDKit          3D

 51 54  0  0  0  0  0  0  0  0999 V2000
  139.0100   75.8980  220.7420 O   0  0  0  0  0  0  0  0  0  0  0  0
  140.1680   75.5690  221.1620 C   0  0  0  0  0  0  0  0  0  0  0  0
  141.0890   76.5700  221.5450 N   0  0  0  0  0  0  0  0  0  0  0  0
  140.8080   77.9920  221.4970 C   0  0  0  0  0  0  0  0  0  0  0  0
  140.0230   78.4290  222.6890 C   0  0  0  0  0  0  0  0  0  0  0  0
  140.7360   79.4800  223.5090 C   0  0  0  0  0  0  0  0  0  0  0  0
  140.7920   80.7640  222.6980 C   0  0  0  0  0  0  0  0  0  0  0  0
  141.8330   81.5610  223.4580 C   0  0  0  0  0  0  0  0  0  0  0  0
  142.8660   80.5170  223.7920 C   0  0  0  0  0  0  0  0  0  0  0  0
  142.1900   79.1760  223.7340 C   0  0  0  0  0  0  0  0  0  0  0  0
  140.4420   74.1410  221.2080 C   0  0  0  0  0  0  0  0  0  0  0  0
  140.9390   73.5110  220.0870 C   0  0  0  0  0  0  0  0  0  0  0  0
  141.2250   72.1620  220.0460 C   0  0  0  0  0  0  0  0  0  0  0  0
  140.9920   71.4400  221.1980 C   0  0  0  0  0  0  0  0  0  0  0  0
  140.4960   72.0010  222.3580 C   0  0  0  0  0  0  0  0  0  0  0  0
  140.2580   71.1950  223.5740 C   0  0  0  0  0  0  0  0  0  0  0  0
  140.6930   71.6870  224.6820 N   0  0  0  0  0  0  0  0  0  0  0  0
  140.5390   71.0300  225.9320 C   0  0  0  0  0  0  0  0  0  0  0  0
  141.0470   71.6580  227.0510 C   0  0  0  0  0  0  0  0  0  0  0  0
  140.8940   71.0130  228.2650 C   0  0  0  0  0  0  0  0  0  0  0  0
  140.2490   69.7730  228.3440 C   0  0  0  0  0  0  0  0  0  0  0  0
  139.7490   69.1680  227.1940 C   0  0  0  0  0  0  0  0  0  0  0  0
  139.8990   69.8100  225.9790 C   0  0  0  0  0  0  0  0  0  0  0  0
  139.4120   69.2600  224.7220 C   0  0  0  0  0  0  0  0  0  0  0  0
  138.8280   68.1450  224.7710 O   0  0  0  0  0  0  0  0  0  0  0  0
  139.5600   69.9250  223.4110 C   0  0  0  0  0  0  0  0  0  0  0  0
  140.2340   73.3570  222.3210 C   0  0  0  0  0  0  0  0  0  0  0  0
  142.0310   76.2280  221.8830 H   0  0  0  0  0  0  0  0  0  0  0  0
  141.7587   78.5447  221.4715 H   0  0  0  0  0  0  0  0  0  0  0  0
  140.2140   78.1988  220.5946 H   0  0  0  0  0  0  0  0  0  0  0  0
  139.0637   78.8431  222.3451 H   0  0  0  0  0  0  0  0  0  0  0  0
  139.8811   77.5481  223.3323 H   0  0  0  0  0  0  0  0  0  0  0  0
  140.1880   79.5341  224.4613 H   0  0  0  0  0  0  0  0  0  0  0  0
  141.1112   80.5712  221.6631 H   0  0  0  0  0  0  0  0  0  0  0  0
  139.8221   81.2738  222.6006 H   0  0  0  0  0  0  0  0  0  0  0  0
  142.2608   82.3563  222.8299 H   0  0  0  0  0  0  0  0  0  0  0  0
  141.4299   82.0765  224.3422 H   0  0  0  0  0  0  0  0  0  0  0  0
  143.6878   80.5550  223.0618 H   0  0  0  0  0  0  0  0  0  0  0  0
  143.2867   80.6952  224.7926 H   0  0  0  0  0  0  0  0  0  0  0  0
  142.5921   78.5764  222.9040 H   0  0  0  0  0  0  0  0  0  0  0  0
  142.3518   78.5928  224.6526 H   0  0  0  0  0  0  0  0  0  0  0  0
  141.1158   74.1121  219.1829 H   0  0  0  0  0  0  0  0  0  0  0  0
  141.6203   71.6846  219.1373 H   0  0  0  0  0  0  0  0  0  0  0  0
  141.2126   70.3624  221.1922 H   0  0  0  0  0  0  0  0  0  0  0  0
  141.5531   72.6321  226.9803 H   0  0  0  0  0  0  0  0  0  0  0  0
  141.2844   71.4807  229.1808 H   0  0  0  0  0  0  0  0  0  0  0  0
  140.1368   69.2748  229.3183 H   0  0  0  0  0  0  0  0  0  0  0  0
  139.2420   68.1935  227.2514 H   0  0  0  0  0  0  0  0  0  0  0  0
  140.1370   69.2759  222.7359 H   0  0  0  0  0  0  0  0  0  0  0  0
  138.5630   70.1120  222.9855 H   0  0  0  0  0  0  0  0  0  0  0  0
  139.8382   73.8359  223.2288 H   0  0  0  0  0  0  0  0  0  0  0  0
  1  2  2  0
  2  3  1  0
  3  4  1  0
  4  5  1  0
  5  6  1  0
  6  7  1  0
  7  8  1  0
  8  9  1  0
  9 10  1  0
  2 11  1  0
 11 12  2  0
 12 13  1  0
 13 14  2  0
 14 15  1  0
 15 16  1  0
 16 17  2  0
 17 18  1  0
 18 19  2  0
 19 20  1  0
 20 21  2  0
 21 22  1  0
 22 23  2  0
 23 24  1  0
 24 25  2  0
 24 26  1  0
 15 27  2  0
 10  6  1  0
 27 11  1  0
 26 16  1  0
 23 18  1  0
  3 28  1  0
  4 29  1  0
  4 30  1  0
  5 31  1  0
  5 32  1  0
  6 33  1  0
  7 34  1  0
  7 35  1  0
  8 36  1  0
  8 37  1  0
  9 38  1  0
  9 39  1  0
 10 40  1  0
 10 41  1  0
 12 42  1  0
 13 43  1  0
 14 44  1  0
 19 45  1  0
 20 46  1  0
 21 47  1  0
 22 48  1  0
 26 49  1  0
 26 50  1  0
 27 51  1  0
M  END
>  <smiles>  (25) 
O=C(NCCC1CCCC1)c1cccc(C2=Nc3ccccc3C(=O)C2)c1

>  <score_type>  (25) 
oracle

>  <origin>  (25) 
autodockgpu

>  <m_score__min__energy>  (25) 
-9.5099999999999998

>  <m_primary>  (25) 
energy

>  <rmsd>  (25) 
4.292726835477995

>  <m_score__min__rmsd>  (25) 
4.292726835477995

>  <meeko>  (25) 
{"free_energy": -9.45, "intermolecular_energy": -10.94, "internal_energy": -0.82, "cluster_size": 50, "cluster_id": 1, "rank_in_cluster": 8}

>  <energy>  (25) 
-9.27

>  <cluster_rmsd>  (25) 
0.75

>  <cluster>  (25) 
1

$$$$

     RDKit          3D

 51 54  0  0  0  0  0  0  0  0999 V2000
  138.8750   75.8980  220.7660 O   0  0  0  0  0  0  0  0  0  0  0  0
  140.0200   75.5410  221.1990 C   0  0  0  0  0  0  0  0  0  0  0  0
  140.9530   76.5170  221.6140 N   0  0  0  0  0  0  0  0  0  0  0  0
  140.6980   77.9440  221.5880 C   0  0  0  0  0  0  0  0  0  0  0  0
  140.1750   78.4260  222.8990 C   0  0  0  0  0  0  0  0  0  0  0  0
  141.1860   79.2440  223.6710 C   0  0  0  0  0  0  0  0  0  0  0  0
  140.8390   80.7140  223.5040 C   0  0  0  0  0  0  0  0  0  0  0  0
  142.1110   81.3840  223.9840 C   0  0  0  0  0  0  0  0  0  0  0  0
  143.1860   80.5130  223.3880 C   0  0  0  0  0  0  0  0  0  0  0  0
  142.5730   79.1710  223.0990 C   0  0  0  0  0  0  0  0  0  0  0  0
  140.2670   74.1060  221.2240 C   0  0  0  0  0  0  0  0  0  0  0  0
  140.6780   73.4710  220.0720 C   0  0  0  0  0  0  0  0  0  0  0  0
  140.9330   72.1160  220.0100 C   0  0  0  0  0  0  0  0  0  0  0  0
  140.7580   71.3950  221.1730 C   0  0  0  0  0  0  0  0  0  0  0  0
  140.3500   71.9620  222.3630 C   0  0  0  0  0  0  0  0  0  0  0  0
  140.1730   71.1560  223.5900 C   0  0  0  0  0  0  0  0  0  0  0  0
  140.6320   71.6650  224.6810 N   0  0  0  0  0  0  0  0  0  0  0  0
  140.5370   71.0110  225.9380 C   0  0  0  0  0  0  0  0  0  0  0  0
  141.0660   71.6570  227.0360 C   0  0  0  0  0  0  0  0  0  0  0  0
  140.9700   71.0150  228.2580 C   0  0  0  0  0  0  0  0  0  0  0  0
  140.3600   69.7600  228.3640 C   0  0  0  0  0  0  0  0  0  0  0  0
  139.8370   69.1360  227.2340 C   0  0  0  0  0  0  0  0  0  0  0  0
  139.9300   69.7760  226.0120 C   0  0  0  0  0  0  0  0  0  0  0  0
  139.4150   69.2070  224.7750 C   0  0  0  0  0  0  0  0  0  0  0  0
  138.8610   68.0780  224.8480 O   0  0  0  0  0  0  0  0  0  0  0  0
  139.5010   69.8680  223.4560 C   0  0  0  0  0  0  0  0  0  0  0  0
  140.1130   73.3230  222.3460 C   0  0  0  0  0  0  0  0  0  0  0  0
  141.8830   76.1510  221.9620 H   0  0  0  0  0  0  0  0  0  0  0  0
  141.6362   78.4714  221.3609 H   0  0  0  0  0  0  0  0  0  0  0  0
  139.9404   78.1469  220.8167 H   0  0  0  0  0  0  0  0  0  0  0  0
  139.2868   79.0483  222.7152 H   0  0  0  0  0  0  0  0  0  0  0  0
  139.9356   77.5397  223.5049 H   0  0  0  0  0  0  0  0  0  0  0  0
  141.1587   78.8557  224.6998 H   0  0  0  0  0  0  0  0  0  0  0  0
  140.6280   80.9597  222.4527 H   0  0  0  0  0  0  0  0  0  0  0  0
  139.9360   81.0253  224.0495 H   0  0  0  0  0  0  0  0  0  0  0  0
  142.1824   82.4156  223.6089 H   0  0  0  0  0  0  0  0  0  0  0  0
  142.1742   81.4696  225.0788 H   0  0  0  0  0  0  0  0  0  0  0  0
  143.5604   80.9631  222.4567 H   0  0  0  0  0  0  0  0  0  0  0  0
  144.0314   80.4105  224.0843 H   0  0  0  0  0  0  0  0  0  0  0  0
  142.5347   78.9892  222.0148 H   0  0  0  0  0  0  0  0  0  0  0  0
  143.1569   78.3479  223.5367 H   0  0  0  0  0  0  0  0  0  0  0  0
  140.8088   74.0718  219.1599 H   0  0  0  0  0  0  0  0  0  0  0  0
  141.2604   71.6337  219.0771 H   0  0  0  0  0  0  0  0  0  0  0  0
  140.9537   70.3128  221.1506 H   0  0  0  0  0  0  0  0  0  0  0  0
  141.5449   72.6430  226.9438 H   0  0  0  0  0  0  0  0  0  0  0  0
  141.3786   71.4975  229.1581 H   0  0  0  0  0  0  0  0  0  0  0  0
  140.2933   69.2644  229.3437 H   0  0  0  0  0  0  0  0  0  0  0  0
  139.3574   68.1492  227.3126 H   0  0  0  0  0  0  0  0  0  0  0  0
  140.0703   69.2296  222.7643 H   0  0  0  0  0  0  0  0  0  0  0  0
  138.4859   70.0278  223.0636 H   0  0  0  0  0  0  0  0  0  0  0  0
  139.7840   73.8064  223.2777 H   0  0  0  0  0  0  0  0  0  0  0  0
  1  2  2  0
  2  3  1  0
  3  4  1  0
  4  5  1  0
  5  6  1  0
  6  7  1  0
  7  8  1  0
  8  9  1  0
  9 10  1  0
  2 11  1  0
 11 12  2  0
 12 13  1  0
 13 14  2  0
 14 15  1  0
 15 16  1  0
 16 17  2  0
 17 18  1  0
 18 19  2  0
 19 20  1  0
 20 21  2  0
 21 22  1  0
 22 23  2  0
 23 24  1  0
 24 25  2  0
 24 26  1  0
 15 27  2  0
 10  6  1  0
 27 11  1  0
 26 16  1  0
 23 18  1  0
  3 28  1  0
  4 29  1  0
  4 30  1  0
  5 31  1  0
  5 32  1  0
  6 33  1  0
  7 34  1  0
  7 35  1  0
  8 36  1  0
  8 37  1  0
  9 38  1  0
  9 39  1  0
 10 40  1  0
 10 41  1  0
 12 42  1  0
 13 43  1  0
 14 44  1  0
 19 45  1  0
 20 46  1  0
 21 47  1  0
 22 48  1  0
 26 49  1  0
 26 50  1  0
 27 51  1  0
M  END
>  <smiles>  (26) 
O=C(NCCC1CCCC1)c1cccc(C2=Nc3ccccc3C(=O)C2)c1

>  <score_type>  (26) 
oracle

>  <origin>  (26) 
autodockgpu

>  <m_score__min__energy>  (26) 
-9.5099999999999998

>  <m_primary>  (26) 
energy

>  <rmsd>  (26) 
4.397302078277241

>  <m_score__min__rmsd>  (26) 
4.397302078277241

>  <meeko>  (26) 
{"free_energy": -9.5, "intermolecular_energy": -10.99, "internal_energy": -0.8, "cluster_size": 50, "cluster_id": 1, "rank_in_cluster": 3}

>  <energy>  (26) 
-9.26

>  <cluster_rmsd>  (26) 
1.13

>  <cluster>  (26) 
1

$$$$

     RDKit          3D

 51 54  0  0  0  0  0  0  0  0999 V2000
  139.7610   75.5790  220.2250 O   0  0  0  0  0  0  0  0  0  0  0  0
  139.6210   75.0090  221.3580 C   0  0  0  0  0  0  0  0  0  0  0  0
  139.3750   75.7870  222.5110 N   0  0  0  0  0  0  0  0  0  0  0  0
  139.2630   77.2330  222.5060 C   0  0  0  0  0  0  0  0  0  0  0  0
  140.5100   77.8710  221.9920 C   0  0  0  0  0  0  0  0  0  0  0  0
  140.8290   79.1790  222.6810 C   0  0  0  0  0  0  0  0  0  0  0  0
  141.5750   80.0670  221.6990 C   0  0  0  0  0  0  0  0  0  0  0  0
  142.1430   81.1290  222.6190 C   0  0  0  0  0  0  0  0  0  0  0  0
  142.5870   80.3260  223.8130 C   0  0  0  0  0  0  0  0  0  0  0  0
  141.8170   79.0360  223.8030 C   0  0  0  0  0  0  0  0  0  0  0  0
  139.7330   73.5580  221.3540 C   0  0  0  0  0  0  0  0  0  0  0  0
  139.8060   72.8890  220.1500 C   0  0  0  0  0  0  0  0  0  0  0  0
  139.9130   71.5170  220.0580 C   0  0  0  0  0  0  0  0  0  0  0  0
  139.9460   70.8120  221.2440 C   0  0  0  0  0  0  0  0  0  0  0  0
  139.8790   71.4130  222.4850 C   0  0  0  0  0  0  0  0  0  0  0  0
  139.9170   70.6250  223.7360 C   0  0  0  0  0  0  0  0  0  0  0  0
  140.3760   71.2270  224.7780 N   0  0  0  0  0  0  0  0  0  0  0  0
  140.4740   70.6020  226.0490 C   0  0  0  0  0  0  0  0  0  0  0  0
  140.9830   71.3500  227.0910 C   0  0  0  0  0  0  0  0  0  0  0  0
  141.0760   70.7350  228.3270 C   0  0  0  0  0  0  0  0  0  0  0  0
  140.6700   69.4070  228.5020 C   0  0  0  0  0  0  0  0  0  0  0  0
  140.1610   68.6820  227.4280 C   0  0  0  0  0  0  0  0  0  0  0  0
  140.0660   69.2930  226.1910 C   0  0  0  0  0  0  0  0  0  0  0  0
  139.5490   68.6200  225.0090 C   0  0  0  0  0  0  0  0  0  0  0  0
  139.1770   67.4240  225.1440 O   0  0  0  0  0  0  0  0  0  0  0  0
  139.4360   69.2500  223.6760 C   0  0  0  0  0  0  0  0  0  0  0  0
  139.7720   72.7910  222.4960 C   0  0  0  0  0  0  0  0  0  0  0  0
  139.2700   75.2510  223.4170 H   0  0  0  0  0  0  0  0  0  0  0  0
  138.4197   77.5250  221.8629 H   0  0  0  0  0  0  0  0  0  0  0  0
  139.0996   77.5724  223.5395 H   0  0  0  0  0  0  0  0  0  0  0  0
  141.3494   77.1777  222.1491 H   0  0  0  0  0  0  0  0  0  0  0  0
  140.3535   78.0894  220.9253 H   0  0  0  0  0  0  0  0  0  0  0  0
  139.8655   79.5650  223.0454 H   0  0  0  0  0  0  0  0  0  0  0  0
  142.3738   79.5132  221.1839 H   0  0  0  0  0  0  0  0  0  0  0  0
  140.9460   80.4661  220.8896 H   0  0  0  0  0  0  0  0  0  0  0  0
  142.9929   81.6469  222.1505 H   0  0  0  0  0  0  0  0  0  0  0  0
  141.4230   81.9223  222.8685 H   0  0  0  0  0  0  0  0  0  0  0  0
  143.6655   80.1199  223.7467 H   0  0  0  0  0  0  0  0  0  0  0  0
  142.3996   80.8812  224.7440 H   0  0  0  0  0  0  0  0  0  0  0  0
  142.4902   78.1858  223.6188 H   0  0  0  0  0  0  0  0  0  0  0  0
  141.3219   78.8440  224.7663 H   0  0  0  0  0  0  0  0  0  0  0  0
  139.7776   73.4767  219.2206 H   0  0  0  0  0  0  0  0  0  0  0  0
  139.9694   71.0082  219.0844 H   0  0  0  0  0  0  0  0  0  0  0  0
  140.0299   69.7162  221.1981 H   0  0  0  0  0  0  0  0  0  0  0  0
  141.3018   72.3926  226.9450 H   0  0  0  0  0  0  0  0  0  0  0  0
  141.4746   71.2976  229.1841 H   0  0  0  0  0  0  0  0  0  0  0  0
  140.7534   68.9344  229.4918 H   0  0  0  0  0  0  0  0  0  0  0  0
  139.8392   67.6386  227.5613 H   0  0  0  0  0  0  0  0  0  0  0  0
  140.0400   68.6833  222.9521 H   0  0  0  0  0  0  0  0  0  0  0  0
  138.3818   69.2479  223.3620 H   0  0  0  0  0  0  0  0  0  0  0  0
  139.7150   73.3015  223.4687 H   0  0  0  0  0  0  0  0  0  0  0  0
  1  2  2  0
  2  3  1  0
  3  4  1  0
  4  5  1  0
  5  6  1  0
  6  7  1  0
  7  8  1  0
  8  9  1  0
  9 10  1  0
  2 11  1  0
 11 12  2  0
 12 13  1  0
 13 14  2  0
 14 15  1  0
 15 16  1  0
 16 17  2  0
 17 18  1  0
 18 19  2  0
 19 20  1  0
 20 21  2  0
 21 22  1  0
 22 23  2  0
 23 24  1  0
 24 25  2  0
 24 26  1  0
 15 27  2  0
 10  6  1  0
 27 11  1  0
 26 16  1  0
 23 18  1  0
  3 28  1  0
  4 29  1  0
  4 30  1  0
  5 31  1  0
  5 32  1  0
  6 33  1  0
  7 34  1  0
  7 35  1  0
  8 36  1  0
  8 37  1  0
  9 38  1  0
  9 39  1  0
 10 40  1  0
 10 41  1  0
 12 42  1  0
 13 43  1  0
 14 44  1  0
 19 45  1  0
 20 46  1  0
 21 47  1  0
 22 48  1  0
 26 49  1  0
 26 50  1  0
 27 51  1  0
M  END
>  <smiles>  (27) 
O=C(NCCC1CCCC1)c1cccc(C2=Nc3ccccc3C(=O)C2)c1

>  <score_type>  (27) 
oracle

>  <origin>  (27) 
autodockgpu

>  <m_score__min__energy>  (27) 
-9.5099999999999998

>  <m_primary>  (27) 
energy

>  <rmsd>  (27) 
4.673329286436417

>  <m_score__min__rmsd>  (27) 
4.673329286436417

>  <meeko>  (27) 
{"free_energy": -9.22, "intermolecular_energy": -10.71, "internal_energy": -0.75, "cluster_size": 50, "cluster_id": 1, "rank_in_cluster": 29}

>  <energy>  (27) 
-9.24

>  <cluster_rmsd>  (27) 
0.56

>  <cluster>  (27) 
1

$$$$

     RDKit          3D

 51 54  0  0  0  0  0  0  0  0999 V2000
  139.2340   75.7260  220.3220 O   0  0  0  0  0  0  0  0  0  0  0  0
  140.2740   75.1780  220.8150 C   0  0  0  0  0  0  0  0  0  0  0  0
  141.3650   75.9780  221.2240 N   0  0  0  0  0  0  0  0  0  0  0  0
  141.3910   77.4240  221.1250 C   0  0  0  0  0  0  0  0  0  0  0  0
  141.3040   78.0610  222.4710 C   0  0  0  0  0  0  0  0  0  0  0  0
  142.0850   79.3520  222.5630 C   0  0  0  0  0  0  0  0  0  0  0  0
  142.1100   79.7940  224.0170 C   0  0  0  0  0  0  0  0  0  0  0  0
  142.5660   81.2330  223.8910 C   0  0  0  0  0  0  0  0  0  0  0  0
  141.7960   81.7170  222.6900 C   0  0  0  0  0  0  0  0  0  0  0  0
  141.4050   80.5090  221.8860 C   0  0  0  0  0  0  0  0  0  0  0  0
  140.2370   73.7260  220.9130 C   0  0  0  0  0  0  0  0  0  0  0  0
  140.2610   72.9700  219.7600 C   0  0  0  0  0  0  0  0  0  0  0  0
  140.2290   71.5910  219.7640 C   0  0  0  0  0  0  0  0  0  0  0  0
  140.1720   70.9720  220.9950 C   0  0  0  0  0  0  0  0  0  0  0  0
  140.1470   71.6620  222.1900 C   0  0  0  0  0  0  0  0  0  0  0  0
  140.0850   70.9640  223.4930 C   0  0  0  0  0  0  0  0  0  0  0  0
  140.5430   71.6080  224.5100 N   0  0  0  0  0  0  0  0  0  0  0  0
  140.5520   71.0690  225.8240 C   0  0  0  0  0  0  0  0  0  0  0  0
  141.0690   71.8550  226.8340 C   0  0  0  0  0  0  0  0  0  0  0  0
  141.0750   71.3250  228.1110 C   0  0  0  0  0  0  0  0  0  0  0  0
  140.5750   70.0420  228.3590 C   0  0  0  0  0  0  0  0  0  0  0  0
  140.0610   69.2750  227.3160 C   0  0  0  0  0  0  0  0  0  0  0  0
  140.0530   69.8020  226.0380 C   0  0  0  0  0  0  0  0  0  0  0  0
  139.5380   69.0820  224.8830 C   0  0  0  0  0  0  0  0  0  0  0  0
  139.0820   67.9240  225.0840 O   0  0  0  0  0  0  0  0  0  0  0  0
  139.5180   69.6210  223.5070 C   0  0  0  0  0  0  0  0  0  0  0  0
  140.1800   73.0410  222.1050 C   0  0  0  0  0  0  0  0  0  0  0  0
  142.1950   75.4590  221.6240 H   0  0  0  0  0  0  0  0  0  0  0  0
  142.3298   77.7333  220.6422 H   0  0  0  0  0  0  0  0  0  0  0  0
  140.5232   77.7470  220.5312 H   0  0  0  0  0  0  0  0  0  0  0  0
  140.2474   78.2737  222.6909 H   0  0  0  0  0  0  0  0  0  0  0  0
  141.7403   77.3591  223.1969 H   0  0  0  0  0  0  0  0  0  0  0  0
  143.0628   79.1400  222.1058 H   0  0  0  0  0  0  0  0  0  0  0  0
  141.1114   79.7280  224.4737 H   0  0  0  0  0  0  0  0  0  0  0  0
  142.7527   79.1760  224.6612 H   0  0  0  0  0  0  0  0  0  0  0  0
  142.3060   81.8122  224.7893 H   0  0  0  0  0  0  0  0  0  0  0  0
  143.6556   81.3392  223.7844 H   0  0  0  0  0  0  0  0  0  0  0  0
  140.8957   82.2592  223.0148 H   0  0  0  0  0  0  0  0  0  0  0  0
  142.4103   82.4013  222.0865 H   0  0  0  0  0  0  0  0  0  0  0  0
  140.3132   80.3751  221.8961 H   0  0  0  0  0  0  0  0  0  0  0  0
  141.7020   80.6020  220.8309 H   0  0  0  0  0  0  0  0  0  0  0  0
  140.3078   73.4908  218.7922 H   0  0  0  0  0  0  0  0  0  0  0  0
  140.2481   71.0120  218.8289 H   0  0  0  0  0  0  0  0  0  0  0  0
  140.1451   69.8728  221.0260 H   0  0  0  0  0  0  0  0  0  0  0  0
  141.4606   72.8627  226.6311 H   0  0  0  0  0  0  0  0  0  0  0  0
  141.4784   71.9202  228.9434 H   0  0  0  0  0  0  0  0  0  0  0  0
  140.5878   69.6374  229.3818 H   0  0  0  0  0  0  0  0  0  0  0  0
  139.6676   68.2656  227.5063 H   0  0  0  0  0  0  0  0  0  0  0  0
  140.1113   68.9676  222.8505 H   0  0  0  0  0  0  0  0  0  0  0  0
  138.4788   69.6624  223.1489 H   0  0  0  0  0  0  0  0  0  0  0  0
  140.1596   73.6214  223.0392 H   0  0  0  0  0  0  0  0  0  0  0  0
  1  2  2  0
  2  3  1  0
  3  4  1  0
  4  5  1  0
  5  6  1  0
  6  7  1  0
  7  8  1  0
  8  9  1  0
  9 10  1  0
  2 11  1  0
 11 12  2  0
 12 13  1  0
 13 14  2  0
 14 15  1  0
 15 16  1  0
 16 17  2  0
 17 18  1  0
 18 19  2  0
 19 20  1  0
 20 21  2  0
 21 22  1  0
 22 23  2  0
 23 24  1  0
 24 25  2  0
 24 26  1  0
 15 27  2  0
 10  6  1  0
 27 11  1  0
 26 16  1  0
 23 18  1  0
  3 28  1  0
  4 29  1  0
  4 30  1  0
  5 31  1  0
  5 32  1  0
  6 33  1  0
  7 34  1  0
  7 35  1  0
  8 36  1  0
  8 37  1  0
  9 38  1  0
  9 39  1  0
 10 40  1  0
 10 41  1  0
 12 42  1  0
 13 43  1  0
 14 44  1  0
 19 45  1  0
 20 46  1  0
 21 47  1  0
 22 48  1  0
 26 49  1  0
 26 50  1  0
 27 51  1  0
M  END
>  <smiles>  (28) 
O=C(NCCC1CCCC1)c1cccc(C2=Nc3ccccc3C(=O)C2)c1

>  <score_type>  (28) 
oracle

>  <origin>  (28) 
autodockgpu

>  <m_score__min__energy>  (28) 
-9.5099999999999998

>  <m_primary>  (28) 
energy

>  <rmsd>  (28) 
4.322750661703366

>  <m_score__min__rmsd>  (28) 
4.322750661703366

>  <meeko>  (28) 
{"free_energy": -9.11, "intermolecular_energy": -10.6, "internal_energy": -0.72, "cluster_size": 50, "cluster_id": 1, "rank_in_cluster": 38}

>  <energy>  (28) 
-9.24

>  <cluster_rmsd>  (28) 
0.58

>  <cluster>  (28) 
1

$$$$

     RDKit          3D

 51 54  0  0  0  0  0  0  0  0999 V2000
  139.0260   75.7850  220.5940 O   0  0  0  0  0  0  0  0  0  0  0  0
  140.1570   75.5630  221.1410 C   0  0  0  0  0  0  0  0  0  0  0  0
  140.9420   76.6440  221.5980 N   0  0  0  0  0  0  0  0  0  0  0  0
  140.5470   78.0350  221.4930 C   0  0  0  0  0  0  0  0  0  0  0  0
  139.8730   78.5020  222.7390 C   0  0  0  0  0  0  0  0  0  0  0  0
  140.6880   79.5220  223.5030 C   0  0  0  0  0  0  0  0  0  0  0  0
  140.7320   80.8050  222.6900 C   0  0  0  0  0  0  0  0  0  0  0  0
  141.8580   81.5580  223.3680 C   0  0  0  0  0  0  0  0  0  0  0  0
  142.8730   80.4730  223.6200 C   0  0  0  0  0  0  0  0  0  0  0  0
  142.1420   79.1590  223.6130 C   0  0  0  0  0  0  0  0  0  0  0  0
  140.5450   74.1630  221.2440 C   0  0  0  0  0  0  0  0  0  0  0  0
  141.2370   73.5760  220.2060 C   0  0  0  0  0  0  0  0  0  0  0  0
  141.6410   72.2570  220.2230 C   0  0  0  0  0  0  0  0  0  0  0  0
  141.3230   71.5210  221.3460 C   0  0  0  0  0  0  0  0  0  0  0  0
  140.6330   72.0420  222.4230 C   0  0  0  0  0  0  0  0  0  0  0  0
  140.3080   71.2220  223.6100 C   0  0  0  0  0  0  0  0  0  0  0  0
  140.6890   71.6880  224.7490 N   0  0  0  0  0  0  0  0  0  0  0  0
  140.4500   71.0150  225.9770 C   0  0  0  0  0  0  0  0  0  0  0  0
  140.9070   71.6140  227.1330 C   0  0  0  0  0  0  0  0  0  0  0  0
  140.6710   70.9540  228.3260 C   0  0  0  0  0  0  0  0  0  0  0  0
  139.9960   69.7280  228.3470 C   0  0  0  0  0  0  0  0  0  0  0  0
  139.5500   69.1510  227.1610 C   0  0  0  0  0  0  0  0  0  0  0  0
  139.7830   69.8090  225.9670 C   0  0  0  0  0  0  0  0  0  0  0  0
  139.3570   69.2890  224.6760 C   0  0  0  0  0  0  0  0  0  0  0  0
  138.7470   68.1870  224.6730 O   0  0  0  0  0  0  0  0  0  0  0  0
  139.5930   69.9710  223.3860 C   0  0  0  0  0  0  0  0  0  0  0  0
  140.2610   73.3690  222.3320 C   0  0  0  0  0  0  0  0  0  0  0  0
  141.8680   76.3880  222.0410 H   0  0  0  0  0  0  0  0  0  0  0  0
  141.4423   78.6496  221.3179 H   0  0  0  0  0  0  0  0  0  0  0  0
  139.8386   78.1328  220.6572 H   0  0  0  0  0  0  0  0  0  0  0  0
  138.9085   78.9558  222.4672 H   0  0  0  0  0  0  0  0  0  0  0  0
  139.7442   77.6264  223.3923 H   0  0  0  0  0  0  0  0  0  0  0  0
  140.2183   79.5954  224.4950 H   0  0  0  0  0  0  0  0  0  0  0  0
  140.9634   80.6029  221.6338 H   0  0  0  0  0  0  0  0  0  0  0  0
  139.7783   81.3526  222.6669 H   0  0  0  0  0  0  0  0  0  0  0  0
  142.2665   82.3389  222.7098 H   0  0  0  0  0  0  0  0  0  0  0  0
  141.5446   82.0850  224.2812 H   0  0  0  0  0  0  0  0  0  0  0  0
  143.6367   80.4820  222.8283 H   0  0  0  0  0  0  0  0  0  0  0  0
  143.3768   80.6307  224.5850 H   0  0  0  0  0  0  0  0  0  0  0  0
  142.4538   78.5479  222.7532 H   0  0  0  0  0  0  0  0  0  0  0  0
  142.3520   78.5651  224.5148 H   0  0  0  0  0  0  0  0  0  0  0  0
  141.4780   74.1874  219.3239 H   0  0  0  0  0  0  0  0  0  0  0  0
  142.1911   71.8127  219.3804 H   0  0  0  0  0  0  0  0  0  0  0  0
  141.6346   70.4668  221.3854 H   0  0  0  0  0  0  0  0  0  0  0  0
  141.4375   72.5773  227.1072 H   0  0  0  0  0  0  0  0  0  0  0  0
  141.0184   71.3986  229.2703 H   0  0  0  0  0  0  0  0  0  0  0  0
  139.8171   69.2180  229.3050 H   0  0  0  0  0  0  0  0  0  0  0  0
  139.0206   68.1869  227.1734 H   0  0  0  0  0  0  0  0  0  0  0  0
  140.1930   69.3197  222.7334 H   0  0  0  0  0  0  0  0  0  0  0  0
  138.6261   70.1869  222.9080 H   0  0  0  0  0  0  0  0  0  0  0  0
  139.7091   73.8146  223.1727 H   0  0  0  0  0  0  0  0  0  0  0  0
  1  2  2  0
  2  3  1  0
  3  4  1  0
  4  5  1  0
  5  6  1  0
  6  7  1  0
  7  8  1  0
  8  9  1  0
  9 10  1  0
  2 11  1  0
 11 12  2  0
 12 13  1  0
 13 14  2  0
 14 15  1  0
 15 16  1  0
 16 17  2  0
 17 18  1  0
 18 19  2  0
 19 20  1  0
 20 21  2  0
 21 22  1  0
 22 23  2  0
 23 24  1  0
 24 25  2  0
 24 26  1  0
 15 27  2  0
 10  6  1  0
 27 11  1  0
 26 16  1  0
 23 18  1  0
  3 28  1  0
  4 29  1  0
  4 30  1  0
  5 31  1  0
  5 32  1  0
  6 33  1  0
  7 34  1  0
  7 35  1  0
  8 36  1  0
  8 37  1  0
  9 38  1  0
  9 39  1  0
 10 40  1  0
 10 41  1  0
 12 42  1  0
 13 43  1  0
 14 44  1  0
 19 45  1  0
 20 46  1  0
 21 47  1  0
 22 48  1  0
 26 49  1  0
 26 50  1  0
 27 51  1  0
M  END
>  <smiles>  (29) 
O=C(NCCC1CCCC1)c1cccc(C2=Nc3ccccc3C(=O)C2)c1

>  <score_type>  (29) 
oracle

>  <origin>  (29) 
autodockgpu

>  <m_score__min__energy>  (29) 
-9.5099999999999998

>  <m_primary>  (29) 
energy

>  <rmsd>  (29) 
4.29617007113555

>  <m_score__min__rmsd>  (29) 
4.29617007113555

>  <meeko>  (29) 
{"free_energy": -9.37, "intermolecular_energy": -10.86, "internal_energy": -0.82, "cluster_size": 50, "cluster_id": 1, "rank_in_cluster": 17}

>  <energy>  (29) 
-9.22

>  <cluster_rmsd>  (29) 
1.19

>  <cluster>  (29) 
1

$$$$

     RDKit          3D

 51 54  0  0  0  0  0  0  0  0999 V2000
  138.8710   75.8420  220.7700 O   0  0  0  0  0  0  0  0  0  0  0  0
  140.0580   75.5940  221.1620 C   0  0  0  0  0  0  0  0  0  0  0  0
  140.9230   76.6580  221.5040 N   0  0  0  0  0  0  0  0  0  0  0  0
  140.5490   78.0580  221.4440 C   0  0  0  0  0  0  0  0  0  0  0  0
  139.8960   78.4990  222.7100 C   0  0  0  0  0  0  0  0  0  0  0  0
  140.7710   79.4170  223.5350 C   0  0  0  0  0  0  0  0  0  0  0  0
  140.6670   80.8200  222.9600 C   0  0  0  0  0  0  0  0  0  0  0  0
  141.8480   81.5070  223.6160 C   0  0  0  0  0  0  0  0  0  0  0  0
  142.9200   80.4510  223.5480 C   0  0  0  0  0  0  0  0  0  0  0  0
  142.2370   79.1200  223.4000 C   0  0  0  0  0  0  0  0  0  0  0  0
  140.4250   74.1870  221.2210 C   0  0  0  0  0  0  0  0  0  0  0  0
  141.0440   73.6030  220.1360 C   0  0  0  0  0  0  0  0  0  0  0  0
  141.4230   72.2770  220.1090 C   0  0  0  0  0  0  0  0  0  0  0  0
  141.1570   71.5300  221.2380 C   0  0  0  0  0  0  0  0  0  0  0  0
  140.5410   72.0450  222.3610 C   0  0  0  0  0  0  0  0  0  0  0  0
  140.2710   71.2130  223.5530 C   0  0  0  0  0  0  0  0  0  0  0  0
  140.6790   71.6790  224.6820 N   0  0  0  0  0  0  0  0  0  0  0  0
  140.4930   70.9950  225.9130 C   0  0  0  0  0  0  0  0  0  0  0  0
  140.9740   71.5970  227.0580 C   0  0  0  0  0  0  0  0  0  0  0  0
  140.7900   70.9260  228.2530 C   0  0  0  0  0  0  0  0  0  0  0  0
  140.1400   69.6860  228.2880 C   0  0  0  0  0  0  0  0  0  0  0  0
  139.6670   69.1080  227.1130 C   0  0  0  0  0  0  0  0  0  0  0  0
  139.8490   69.7760  225.9170 C   0  0  0  0  0  0  0  0  0  0  0  0
  139.3930   69.2560  224.6370 C   0  0  0  0  0  0  0  0  0  0  0  0
  138.8050   68.1410  224.6460 O   0  0  0  0  0  0  0  0  0  0  0  0
  139.5740   69.9490  223.3440 C   0  0  0  0  0  0  0  0  0  0  0  0
  140.1900   73.3800  222.3120 C   0  0  0  0  0  0  0  0  0  0  0  0
  141.8940   76.3830  221.8200 H   0  0  0  0  0  0  0  0  0  0  0  0
  141.4521   78.6633  221.2769 H   0  0  0  0  0  0  0  0  0  0  0  0
  139.8332   78.1912  220.6194 H   0  0  0  0  0  0  0  0  0  0  0  0
  138.9671   79.0318  222.4587 H   0  0  0  0  0  0  0  0  0  0  0  0
  139.7017   77.5991  223.3121 H   0  0  0  0  0  0  0  0  0  0  0  0
  140.4331   79.2953  224.5747 H   0  0  0  0  0  0  0  0  0  0  0  0
  140.7647   80.8129  221.8644 H   0  0  0  0  0  0  0  0  0  0  0  0
  139.7014   81.3111  223.1506 H   0  0  0  0  0  0  0  0  0  0  0  0
  142.1427   82.4087  223.0591 H   0  0  0  0  0  0  0  0  0  0  0  0
  141.6399   81.8547  224.6386 H   0  0  0  0  0  0  0  0  0  0  0  0
  143.5740   80.6354  222.6830 H   0  0  0  0  0  0  0  0  0  0  0  0
  143.5388   80.4691  224.4573 H   0  0  0  0  0  0  0  0  0  0  0  0
  142.4534   78.6821  222.4144 H   0  0  0  0  0  0  0  0  0  0  0  0
  142.5818   78.3935  224.1505 H   0  0  0  0  0  0  0  0  0  0  0  0
  141.2450   74.2237  219.2504 H   0  0  0  0  0  0  0  0  0  0  0  0
  141.9141   71.8360  219.2290 H   0  0  0  0  0  0  0  0  0  0  0  0
  141.4507   70.4700  221.2436 H   0  0  0  0  0  0  0  0  0  0  0  0
  141.4832   72.5713  227.0214 H   0  0  0  0  0  0  0  0  0  0  0  0
  141.1590   71.3720  229.1884 H   0  0  0  0  0  0  0  0  0  0  0  0
  140.0026   69.1665  229.2478 H   0  0  0  0  0  0  0  0  0  0  0  0
  139.1561   68.1341  227.1363 H   0  0  0  0  0  0  0  0  0  0  0  0
  140.1656   69.3133  222.6689 H   0  0  0  0  0  0  0  0  0  0  0  0
  138.5884   70.1477  222.8979 H   0  0  0  0  0  0  0  0  0  0  0  0
  139.6969   73.8218  223.1904 H   0  0  0  0  0  0  0  0  0  0  0  0
  1  2  2  0
  2  3  1  0
  3  4  1  0
  4  5  1  0
  5  6  1  0
  6  7  1  0
  7  8  1  0
  8  9  1  0
  9 10  1  0
  2 11  1  0
 11 12  2  0
 12 13  1  0
 13 14  2  0
 14 15  1  0
 15 16  1  0
 16 17  2  0
 17 18  1  0
 18 19  2  0
 19 20  1  0
 20 21  2  0
 21 22  1  0
 22 23  2  0
 23 24  1  0
 24 25  2  0
 24 26  1  0
 15 27  2  0
 10  6  1  0
 27 11  1  0
 26 16  1  0
 23 18  1  0
  3 28  1  0
  4 29  1  0
  4 30  1  0
  5 31  1  0
  5 32  1  0
  6 33  1  0
  7 34  1  0
  7 35  1  0
  8 36  1  0
  8 37  1  0
  9 38  1  0
  9 39  1  0
 10 40  1  0
 10 41  1  0
 12 42  1  0
 13 43  1  0
 14 44  1  0
 19 45  1  0
 20 46  1  0
 21 47  1  0
 22 48  1  0
 26 49  1  0
 26 50  1  0
 27 51  1  0
M  END
>  <smiles>  (30) 
O=C(NCCC1CCCC1)c1cccc(C2=Nc3ccccc3C(=O)C2)c1

>  <score_type>  (30) 
oracle

>  <origin>  (30) 
autodockgpu

>  <m_score__min__energy>  (30) 
-9.5099999999999998

>  <m_primary>  (30) 
energy

>  <rmsd>  (30) 
4.289548927617621

>  <m_score__min__rmsd>  (30) 
4.289548927617621

>  <meeko>  (30) 
{"free_energy": -9.4, "intermolecular_energy": -10.89, "internal_energy": -0.83, "cluster_size": 50, "cluster_id": 1, "rank_in_cluster": 14}

>  <energy>  (30) 
-9.21

>  <cluster_rmsd>  (30) 
0.53

>  <cluster>  (30) 
1

$$$$

     RDKit          3D

 51 54  0  0  0  0  0  0  0  0999 V2000
  141.4590   75.2090  221.9150 O   0  0  0  0  0  0  0  0  0  0  0  0
  140.2240   75.1590  221.5990 C   0  0  0  0  0  0  0  0  0  0  0  0
  139.5550   76.3340  221.1900 N   0  0  0  0  0  0  0  0  0  0  0  0
  140.1860   77.6360  221.0950 C   0  0  0  0  0  0  0  0  0  0  0  0
  139.5030   78.6340  221.9700 C   0  0  0  0  0  0  0  0  0  0  0  0
  140.4600   79.6310  222.5830 C   0  0  0  0  0  0  0  0  0  0  0  0
  141.5880   79.8810  221.5960 C   0  0  0  0  0  0  0  0  0  0  0  0
  142.6170   80.5630  222.4740 C   0  0  0  0  0  0  0  0  0  0  0  0
  142.5350   79.7690  223.7520 C   0  0  0  0  0  0  0  0  0  0  0  0
  141.1910   79.0960  223.7800 C   0  0  0  0  0  0  0  0  0  0  0  0
  139.5990   73.8480  221.6940 C   0  0  0  0  0  0  0  0  0  0  0  0
  138.7230   73.4440  220.7100 C   0  0  0  0  0  0  0  0  0  0  0  0
  138.0880   72.2190  220.7240 C   0  0  0  0  0  0  0  0  0  0  0  0
  138.3670   71.3850  221.7870 C   0  0  0  0  0  0  0  0  0  0  0  0
  139.2330   71.7210  222.8080 C   0  0  0  0  0  0  0  0  0  0  0  0
  139.5070   70.8000  223.9330 C   0  0  0  0  0  0  0  0  0  0  0  0
  140.0220   71.3250  224.9900 N   0  0  0  0  0  0  0  0  0  0  0  0
  140.3410   70.5700  226.1500 C   0  0  0  0  0  0  0  0  0  0  0  0
  140.8890   71.2450  227.2220 C   0  0  0  0  0  0  0  0  0  0  0  0
  141.1970   70.5040  228.3480 C   0  0  0  0  0  0  0  0  0  0  0  0
  140.9590   69.1250  228.3890 C   0  0  0  0  0  0  0  0  0  0  0  0
  140.4050   68.4760  227.2890 C   0  0  0  0  0  0  0  0  0  0  0  0
  140.0950   69.2140  226.1610 C   0  0  0  0  0  0  0  0  0  0  0  0
  139.5140   68.6280  224.9620 C   0  0  0  0  0  0  0  0  0  0  0  0
  139.2910   67.3880  224.9770 O   0  0  0  0  0  0  0  0  0  0  0  0
  139.1740   69.3930  223.7440 C   0  0  0  0  0  0  0  0  0  0  0  0
  139.8290   72.9640  222.7240 C   0  0  0  0  0  0  0  0  0  0  0  0
  138.5320   76.2220  220.9420 H   0  0  0  0  0  0  0  0  0  0  0  0
  141.2378   77.5481  221.4048 H   0  0  0  0  0  0  0  0  0  0  0  0
  140.1152   77.9813  220.0530 H   0  0  0  0  0  0  0  0  0  0  0  0
  138.7639   79.1819  221.3670 H   0  0  0  0  0  0  0  0  0  0  0  0
  139.0294   78.0809  222.7945 H   0  0  0  0  0  0  0  0  0  0  0  0
  139.8475   80.5055  222.8476 H   0  0  0  0  0  0  0  0  0  0  0  0
  141.9753   78.9383  221.1821 H   0  0  0  0  0  0  0  0  0  0  0  0
  141.2899   80.4703  220.7163 H   0  0  0  0  0  0  0  0  0  0  0  0
  143.6218   80.4999  222.0309 H   0  0  0  0  0  0  0  0  0  0  0  0
  142.4302   81.6380  222.6135 H   0  0  0  0  0  0  0  0  0  0  0  0
  143.3340   79.0134  223.7767 H   0  0  0  0  0  0  0  0  0  0  0  0
  142.6575   80.4265  224.6253 H   0  0  0  0  0  0  0  0  0  0  0  0
  141.3043   78.0043  223.7070 H   0  0  0  0  0  0  0  0  0  0  0  0
  140.6497   79.2960  224.7165 H   0  0  0  0  0  0  0  0  0  0  0  0
  138.5205   74.1301  219.8744 H   0  0  0  0  0  0  0  0  0  0  0  0
  137.3923   71.9215  219.9255 H   0  0  0  0  0  0  0  0  0  0  0  0
  137.8742   70.4022  221.8227 H   0  0  0  0  0  0  0  0  0  0  0  0
  141.0733   72.3287  227.1821 H   0  0  0  0  0  0  0  0  0  0  0  0
  141.6352   71.0050  229.2238 H   0  0  0  0  0  0  0  0  0  0  0  0
  141.2107   68.5522  229.2937 H   0  0  0  0  0  0  0  0  0  0  0  0
  140.2166   67.3926  227.3165 H   0  0  0  0  0  0  0  0  0  0  0  0
  139.7441   68.9945  222.8919 H   0  0  0  0  0  0  0  0  0  0  0  0
  138.0960   69.2992  223.5464 H   0  0  0  0  0  0  0  0  0  0  0  0
  140.5241   73.2635  223.5222 H   0  0  0  0  0  0  0  0  0  0  0  0
  1  2  2  0
  2  3  1  0
  3  4  1  0
  4  5  1  0
  5  6  1  0
  6  7  1  0
  7  8  1  0
  8  9  1  0
  9 10  1  0
  2 11  1  0
 11 12  2  0
 12 13  1  0
 13 14  2  0
 14 15  1  0
 15 16  1  0
 16 17  2  0
 17 18  1  0
 18 19  2  0
 19 20  1  0
 20 21  2  0
 21 22  1  0
 22 23  2  0
 23 24  1  0
 24 25  2  0
 24 26  1  0
 15 27  2  0
 10  6  1  0
 27 11  1  0
 26 16  1  0
 23 18  1  0
  3 28  1  0
  4 29  1  0
  4 30  1  0
  5 31  1  0
  5 32  1  0
  6 33  1  0
  7 34  1  0
  7 35  1  0
  8 36  1  0
  8 37  1  0
  9 38  1  0
  9 39  1  0
 10 40  1  0
 10 41  1  0
 12 42  1  0
 13 43  1  0
 14 44  1  0
 19 45  1  0
 20 46  1  0
 21 47  1  0
 22 48  1  0
 26 49  1  0
 26 50  1  0
 27 51  1  0
M  END
>  <smiles>  (31) 
O=C(NCCC1CCCC1)c1cccc(C2=Nc3ccccc3C(=O)C2)c1

>  <score_type>  (31) 
oracle

>  <origin>  (31) 
autodockgpu

>  <m_score__min__energy>  (31) 
-9.5099999999999998

>  <m_primary>  (31) 
energy

>  <rmsd>  (31) 
4.671125701984253

>  <m_score__min__rmsd>  (31) 
4.671125701984253

>  <meeko>  (31) 
{"free_energy": -8.7, "intermolecular_energy": -10.19, "internal_energy": -0.87, "cluster_size": 50, "cluster_id": 1, "rank_in_cluster": 46}

>  <energy>  (31) 
-9.2

>  <cluster_rmsd>  (31) 
1.27

>  <cluster>  (31) 
1

$$$$

     RDKit          3D

 51 54  0  0  0  0  0  0  0  0999 V2000
  139.1000   75.8000  220.4720 O   0  0  0  0  0  0  0  0  0  0  0  0
  140.1660   75.5200  221.1120 C   0  0  0  0  0  0  0  0  0  0  0  0
  140.9360   76.5560  221.6860 N   0  0  0  0  0  0  0  0  0  0  0  0
  140.5930   77.9620  221.6030 C   0  0  0  0  0  0  0  0  0  0  0  0
  140.2120   78.5070  222.9380 C   0  0  0  0  0  0  0  0  0  0  0  0
  141.3570   79.2000  223.6410 C   0  0  0  0  0  0  0  0  0  0  0  0
  141.0240   80.6780  223.7560 C   0  0  0  0  0  0  0  0  0  0  0  0
  142.3740   81.2700  224.1070 C   0  0  0  0  0  0  0  0  0  0  0  0
  143.3120   80.5000  223.2140 C   0  0  0  0  0  0  0  0  0  0  0  0
  142.6260   79.2170  222.8370 C   0  0  0  0  0  0  0  0  0  0  0  0
  140.5020   74.1060  221.1930 C   0  0  0  0  0  0  0  0  0  0  0  0
  141.1010   73.4910  220.1140 C   0  0  0  0  0  0  0  0  0  0  0  0
  141.4510   72.1560  220.1080 C   0  0  0  0  0  0  0  0  0  0  0  0
  141.1740   71.4330  221.2500 C   0  0  0  0  0  0  0  0  0  0  0  0
  140.5780   71.9810  222.3680 C   0  0  0  0  0  0  0  0  0  0  0  0
  140.2960   71.1740  223.5750 C   0  0  0  0  0  0  0  0  0  0  0  0
  140.6940   71.6650  224.6970 N   0  0  0  0  0  0  0  0  0  0  0  0
  140.4960   71.0070  225.9410 C   0  0  0  0  0  0  0  0  0  0  0  0
  140.9680   71.6330  227.0760 C   0  0  0  0  0  0  0  0  0  0  0  0
  140.7720   70.9880  228.2840 C   0  0  0  0  0  0  0  0  0  0  0  0
  140.1220   69.7500  228.3410 C   0  0  0  0  0  0  0  0  0  0  0  0
  139.6590   69.1470  227.1740 C   0  0  0  0  0  0  0  0  0  0  0  0
  139.8520   69.7890  225.9650 C   0  0  0  0  0  0  0  0  0  0  0  0
  139.4060   69.2420  224.6920 C   0  0  0  0  0  0  0  0  0  0  0  0
  138.8170   68.1280  224.7200 O   0  0  0  0  0  0  0  0  0  0  0  0
  139.5990   69.9070  223.3870 C   0  0  0  0  0  0  0  0  0  0  0  0
  140.2560   73.3230  222.2980 C   0  0  0  0  0  0  0  0  0  0  0  0
  141.8080   76.2530  222.2030 H   0  0  0  0  0  0  0  0  0  0  0  0
  141.4608   78.5206  221.2224 H   0  0  0  0  0  0  0  0  0  0  0  0
  139.7329   78.0700  220.9258 H   0  0  0  0  0  0  0  0  0  0  0  0
  139.3950   79.2307  222.8011 H   0  0  0  0  0  0  0  0  0  0  0  0
  139.9062   77.6570  223.5657 H   0  0  0  0  0  0  0  0  0  0  0  0
  141.4923   78.6604  224.5900 H   0  0  0  0  0  0  0  0  0  0  0  0
  140.6454   81.0791  222.8043 H   0  0  0  0  0  0  0  0  0  0  0  0
  140.2339   80.9024  224.4877 H   0  0  0  0  0  0  0  0  0  0  0  0
  142.4061   82.3464  223.8827 H   0  0  0  0  0  0  0  0  0  0  0  0
  142.6226   81.1901  225.1756 H   0  0  0  0  0  0  0  0  0  0  0  0
  143.5357   81.0858  222.3103 H   0  0  0  0  0  0  0  0  0  0  0  0
  144.2597   80.2944  223.7333 H   0  0  0  0  0  0  0  0  0  0  0  0
  142.4011   79.2014  221.7604 H   0  0  0  0  0  0  0  0  0  0  0  0
  143.2550   78.3381  223.0416 H   0  0  0  0  0  0  0  0  0  0  0  0
  141.3095   74.0921  219.2167 H   0  0  0  0  0  0  0  0  0  0  0  0
  141.9286   71.6901  219.2335 H   0  0  0  0  0  0  0  0  0  0  0  0
  141.4415   70.3662  221.2706 H   0  0  0  0  0  0  0  0  0  0  0  0
  141.4794   72.6054  227.0227 H   0  0  0  0  0  0  0  0  0  0  0  0
  141.1321   71.4547  229.2127 H   0  0  0  0  0  0  0  0  0  0  0  0
  139.9763   69.2515  229.3107 H   0  0  0  0  0  0  0  0  0  0  0  0
  139.1472   68.1741  227.2137 H   0  0  0  0  0  0  0  0  0  0  0  0
  140.1954   69.2563  222.7305 H   0  0  0  0  0  0  0  0  0  0  0  0
  138.6174   70.0977  222.9285 H   0  0  0  0  0  0  0  0  0  0  0  0
  139.7778   73.7902  223.1715 H   0  0  0  0  0  0  0  0  0  0  0  0
  1  2  2  0
  2  3  1  0
  3  4  1  0
  4  5  1  0
  5  6  1  0
  6  7  1  0
  7  8  1  0
  8  9  1  0
  9 10  1  0
  2 11  1  0
 11 12  2  0
 12 13  1  0
 13 14  2  0
 14 15  1  0
 15 16  1  0
 16 17  2  0
 17 18  1  0
 18 19  2  0
 19 20  1  0
 20 21  2  0
 21 22  1  0
 22 23  2  0
 23 24  1  0
 24 25  2  0
 24 26  1  0
 15 27  2  0
 10  6  1  0
 27 11  1  0
 26 16  1  0
 23 18  1  0
  3 28  1  0
  4 29  1  0
  4 30  1  0
  5 31  1  0
  5 32  1  0
  6 33  1  0
  7 34  1  0
  7 35  1  0
  8 36  1  0
  8 37  1  0
  9 38  1  0
  9 39  1  0
 10 40  1  0
 10 41  1  0
 12 42  1  0
 13 43  1  0
 14 44  1  0
 19 45  1  0
 20 46  1  0
 21 47  1  0
 22 48  1  0
 26 49  1  0
 26 50  1  0
 27 51  1  0
M  END
>  <smiles>  (32) 
O=C(NCCC1CCCC1)c1cccc(C2=Nc3ccccc3C(=O)C2)c1

>  <score_type>  (32) 
oracle

>  <origin>  (32) 
autodockgpu

>  <m_score__min__energy>  (32) 
-9.5099999999999998

>  <m_primary>  (32) 
energy

>  <rmsd>  (32) 
4.4380572162507494

>  <m_score__min__rmsd>  (32) 
4.4380572162507494

>  <meeko>  (32) 
{"free_energy": -9.4, "intermolecular_energy": -10.89, "internal_energy": -0.79, "cluster_size": 50, "cluster_id": 1, "rank_in_cluster": 15}

>  <energy>  (32) 
-9.18

>  <cluster_rmsd>  (32) 
1.36

>  <cluster>  (32) 
1

$$$$

     RDKit          3D

 51 54  0  0  0  0  0  0  0  0999 V2000
  138.8240   75.7380  221.0090 O   0  0  0  0  0  0  0  0  0  0  0  0
  139.9600   75.3440  221.4340 C   0  0  0  0  0  0  0  0  0  0  0  0
  140.9070   76.2880  221.8900 N   0  0  0  0  0  0  0  0  0  0  0  0
  140.6770   77.7190  221.9160 C   0  0  0  0  0  0  0  0  0  0  0  0
  141.8230   78.4640  221.3170 C   0  0  0  0  0  0  0  0  0  0  0  0
  142.0190   79.8330  221.9280 C   0  0  0  0  0  0  0  0  0  0  0  0
  142.9620   79.6980  223.1120 C   0  0  0  0  0  0  0  0  0  0  0  0
  142.7530   81.0210  223.8210 C   0  0  0  0  0  0  0  0  0  0  0  0
  141.2630   81.2170  223.7180 C   0  0  0  0  0  0  0  0  0  0  0  0
  140.7760   80.3840  222.5660 C   0  0  0  0  0  0  0  0  0  0  0  0
  140.1810   73.9060  221.4050 C   0  0  0  0  0  0  0  0  0  0  0  0
  140.5120   73.2960  220.2140 C   0  0  0  0  0  0  0  0  0  0  0  0
  140.7380   71.9400  220.1000 C   0  0  0  0  0  0  0  0  0  0  0  0
  140.6200   71.1890  221.2510 C   0  0  0  0  0  0  0  0  0  0  0  0
  140.2930   71.7300  222.4780 C   0  0  0  0  0  0  0  0  0  0  0  0
  140.1740   70.8920  223.6920 C   0  0  0  0  0  0  0  0  0  0  0  0
  140.6140   71.4070  224.7870 N   0  0  0  0  0  0  0  0  0  0  0  0
  140.5690   70.7250  226.0330 C   0  0  0  0  0  0  0  0  0  0  0  0
  141.0730   71.3800  227.1380 C   0  0  0  0  0  0  0  0  0  0  0  0
  141.0260   70.7110  228.3480 C   0  0  0  0  0  0  0  0  0  0  0  0
  140.4880   69.4210  228.4360 C   0  0  0  0  0  0  0  0  0  0  0  0
  139.9890   68.7900  227.3000 C   0  0  0  0  0  0  0  0  0  0  0  0
  140.0340   69.4560  226.0890 C   0  0  0  0  0  0  0  0  0  0  0  0
  139.5390   68.8830  224.8460 C   0  0  0  0  0  0  0  0  0  0  0  0
  139.0500   67.7230  224.9030 O   0  0  0  0  0  0  0  0  0  0  0  0
  139.5740   69.5720  223.5390 C   0  0  0  0  0  0  0  0  0  0  0  0
  140.0800   73.0940  222.5130 C   0  0  0  0  0  0  0  0  0  0  0  0
  141.8280   75.8930  222.2270 H   0  0  0  0  0  0  0  0  0  0  0  0
  139.7647   77.9456  221.3448 H   0  0  0  0  0  0  0  0  0  0  0  0
  140.5685   78.0339  222.9644 H   0  0  0  0  0  0  0  0  0  0  0  0
  142.7409   77.8772  221.4690 H   0  0  0  0  0  0  0  0  0  0  0  0
  141.6010   78.6079  220.2493 H   0  0  0  0  0  0  0  0  0  0  0  0
  142.3649   80.4775  221.1064 H   0  0  0  0  0  0  0  0  0  0  0  0
  142.6814   78.8500  223.7539 H   0  0  0  0  0  0  0  0  0  0  0  0
  144.0072   79.5012  222.8312 H   0  0  0  0  0  0  0  0  0  0  0  0
  143.0743   80.9637  224.8715 H   0  0  0  0  0  0  0  0  0  0  0  0
  143.3342   81.8473  223.3857 H   0  0  0  0  0  0  0  0  0  0  0  0
  140.7762   80.8913  224.6491 H   0  0  0  0  0  0  0  0  0  0  0  0
  141.0222   82.2783  223.5576 H   0  0  0  0  0  0  0  0  0  0  0  0
  140.1319   79.5677  222.9249 H   0  0  0  0  0  0  0  0  0  0  0  0
  140.1752   80.9726  221.8570 H   0  0  0  0  0  0  0  0  0  0  0  0
  140.6000   73.9198  219.3122 H   0  0  0  0  0  0  0  0  0  0  0  0
  141.0001   71.4791  219.1362 H   0  0  0  0  0  0  0  0  0  0  0  0
  140.7952   70.1049  221.1879 H   0  0  0  0  0  0  0  0  0  0  0  0
  141.4950   72.3928  227.0599 H   0  0  0  0  0  0  0  0  0  0  0  0
  141.4165   71.1989  229.2532 H   0  0  0  0  0  0  0  0  0  0  0  0
  140.4597   68.9043  229.4067 H   0  0  0  0  0  0  0  0  0  0  0  0
  139.5653   67.7769  227.3647 H   0  0  0  0  0  0  0  0  0  0  0  0
  140.1709   68.9796  222.8299 H   0  0  0  0  0  0  0  0  0  0  0  0
  138.5476   69.6816  223.1588 H   0  0  0  0  0  0  0  0  0  0  0  0
  139.8160   73.5560  223.4757 H   0  0  0  0  0  0  0  0  0  0  0  0
  1  2  2  0
  2  3  1  0
  3  4  1  0
  4  5  1  0
  5  6  1  0
  6  7  1  0
  7  8  1  0
  8  9  1  0
  9 10  1  0
  2 11  1  0
 11 12  2  0
 12 13  1  0
 13 14  2  0
 14 15  1  0
 15 16  1  0
 16 17  2  0
 17 18  1  0
 18 19  2  0
 19 20  1  0
 20 21  2  0
 21 22  1  0
 22 23  2  0
 23 24  1  0
 24 25  2  0
 24 26  1  0
 15 27  2  0
 10  6  1  0
 27 11  1  0
 26 16  1  0
 23 18  1  0
  3 28  1  0
  4 29  1  0
  4 30  1  0
  5 31  1  0
  5 32  1  0
  6 33  1  0
  7 34  1  0
  7 35  1  0
  8 36  1  0
  8 37  1  0
  9 38  1  0
  9 39  1  0
 10 40  1  0
 10 41  1  0
 12 42  1  0
 13 43  1  0
 14 44  1  0
 19 45  1  0
 20 46  1  0
 21 47  1  0
 22 48  1  0
 26 49  1  0
 26 50  1  0
 27 51  1  0
M  END
>  <smiles>  (33) 
O=C(NCCC1CCCC1)c1cccc(C2=Nc3ccccc3C(=O)C2)c1

>  <score_type>  (33) 
oracle

>  <origin>  (33) 
autodockgpu

>  <m_score__min__energy>  (33) 
-9.5099999999999998

>  <m_primary>  (33) 
energy

>  <rmsd>  (33) 
4.318745926042443

>  <m_score__min__rmsd>  (33) 
4.318745926042443

>  <meeko>  (33) 
{"free_energy": -9.24, "intermolecular_energy": -10.73, "internal_energy": -0.75, "cluster_size": 50, "cluster_id": 1, "rank_in_cluster": 28}

>  <energy>  (33) 
-9.18

>  <cluster_rmsd>  (33) 
1.33

>  <cluster>  (33) 
1

$$$$

     RDKit          3D

 51 54  0  0  0  0  0  0  0  0999 V2000
  140.2360   75.3440  220.2750 O   0  0  0  0  0  0  0  0  0  0  0  0
  139.6740   74.8840  221.3240 C   0  0  0  0  0  0  0  0  0  0  0  0
  139.2280   75.7710  222.3290 N   0  0  0  0  0  0  0  0  0  0  0  0
  139.3630   77.2130  222.2570 C   0  0  0  0  0  0  0  0  0  0  0  0
  140.7950   77.6270  222.3210 C   0  0  0  0  0  0  0  0  0  0  0  0
  140.9730   79.0620  222.7640 C   0  0  0  0  0  0  0  0  0  0  0  0
  141.7700   79.7960  221.6980 C   0  0  0  0  0  0  0  0  0  0  0  0
  142.1850   81.0520  222.4380 C   0  0  0  0  0  0  0  0  0  0  0  0
  142.5460   80.5250  223.8020 C   0  0  0  0  0  0  0  0  0  0  0  0
  141.8480   79.2060  223.9770 C   0  0  0  0  0  0  0  0  0  0  0  0
  139.5410   73.4360  221.3870 C   0  0  0  0  0  0  0  0  0  0  0  0
  139.2500   72.7330  220.2370 C   0  0  0  0  0  0  0  0  0  0  0  0
  139.1070   71.3620  220.2100 C   0  0  0  0  0  0  0  0  0  0  0  0
  139.2690   70.6940  221.4060 C   0  0  0  0  0  0  0  0  0  0  0  0
  139.5620   71.3300  222.5960 C   0  0  0  0  0  0  0  0  0  0  0  0
  139.7290   70.5800  223.8600 C   0  0  0  0  0  0  0  0  0  0  0  0
  140.2550   71.2250  224.8430 N   0  0  0  0  0  0  0  0  0  0  0  0
  140.4790   70.6400  226.1180 C   0  0  0  0  0  0  0  0  0  0  0  0
  141.0500   71.4320  227.0920 C   0  0  0  0  0  0  0  0  0  0  0  0
  141.2660   70.8580  228.3320 C   0  0  0  0  0  0  0  0  0  0  0  0
  140.9150   69.5250  228.5770 C   0  0  0  0  0  0  0  0  0  0  0  0
  140.3410   68.7540  227.5690 C   0  0  0  0  0  0  0  0  0  0  0  0
  140.1230   69.3260  226.3290 C   0  0  0  0  0  0  0  0  0  0  0  0
  139.5300   68.6040  225.2130 C   0  0  0  0  0  0  0  0  0  0  0  0
  139.2060   67.4030  225.4120 O   0  0  0  0  0  0  0  0  0  0  0  0
  139.2870   69.1900  223.8790 C   0  0  0  0  0  0  0  0  0  0  0  0
  139.6890   72.7040  222.5430 C   0  0  0  0  0  0  0  0  0  0  0  0
  138.7720   75.3230  223.1720 H   0  0  0  0  0  0  0  0  0  0  0  0
  138.9297   77.5667  221.3098 H   0  0  0  0  0  0  0  0  0  0  0  0
  138.8351   77.6545  223.1151 H   0  0  0  0  0  0  0  0  0  0  0  0
  141.3183   76.9722  223.0333 H   0  0  0  0  0  0  0  0  0  0  0  0
  141.2094   77.5409  221.3057 H   0  0  0  0  0  0  0  0  0  0  0  0
  139.9586   79.4416  222.9558 H   0  0  0  0  0  0  0  0  0  0  0  0
  142.6450   79.2115  221.3774 H   0  0  0  0  0  0  0  0  0  0  0  0
  141.2082   79.9874  220.7719 H   0  0  0  0  0  0  0  0  0  0  0  0
  143.0501   81.5299  221.9551 H   0  0  0  0  0  0  0  0  0  0  0  0
  141.4030   81.8253  222.4604 H   0  0  0  0  0  0  0  0  0  0  0  0
  143.6348   80.3861  223.8747 H   0  0  0  0  0  0  0  0  0  0  0  0
  142.2369   81.2333  224.5848 H   0  0  0  0  0  0  0  0  0  0  0  0
  142.5792   78.3856  224.0253 H   0  0  0  0  0  0  0  0  0  0  0  0
  141.2676   79.1676  224.9107 H   0  0  0  0  0  0  0  0  0  0  0  0
  139.1262   73.2919  219.2977 H   0  0  0  0  0  0  0  0  0  0  0  0
  138.8745   70.8258  219.2781 H   0  0  0  0  0  0  0  0  0  0  0  0
  139.1592   69.5995  221.4120 H   0  0  0  0  0  0  0  0  0  0  0  0
  141.3228   72.4785  226.8909 H   0  0  0  0  0  0  0  0  0  0  0  0
  141.7194   71.4566  229.1358 H   0  0  0  0  0  0  0  0  0  0  0  0
  141.0932   69.0849  229.5693 H   0  0  0  0  0  0  0  0  0  0  0  0
  140.0652   67.7058  227.7565 H   0  0  0  0  0  0  0  0  0  0  0  0
  139.8455   68.6192  223.1225 H   0  0  0  0  0  0  0  0  0  0  0  0
  138.2107   69.1489  223.6557 H   0  0  0  0  0  0  0  0  0  0  0  0
  139.9207   73.2420  223.4741 H   0  0  0  0  0  0  0  0  0  0  0  0
  1  2  2  0
  2  3  1  0
  3  4  1  0
  4  5  1  0
  5  6  1  0
  6  7  1  0
  7  8  1  0
  8  9  1  0
  9 10  1  0
  2 11  1  0
 11 12  2  0
 12 13  1  0
 13 14  2  0
 14 15  1  0
 15 16  1  0
 16 17  2  0
 17 18  1  0
 18 19  2  0
 19 20  1  0
 20 21  2  0
 21 22  1  0
 22 23  2  0
 23 24  1  0
 24 25  2  0
 24 26  1  0
 15 27  2  0
 10  6  1  0
 27 11  1  0
 26 16  1  0
 23 18  1  0
  3 28  1  0
  4 29  1  0
  4 30  1  0
  5 31  1  0
  5 32  1  0
  6 33  1  0
  7 34  1  0
  7 35  1  0
  8 36  1  0
  8 37  1  0
  9 38  1  0
  9 39  1  0
 10 40  1  0
 10 41  1  0
 12 42  1  0
 13 43  1  0
 14 44  1  0
 19 45  1  0
 20 46  1  0
 21 47  1  0
 22 48  1  0
 26 49  1  0
 26 50  1  0
 27 51  1  0
M  END
>  <smiles>  (34) 
O=C(NCCC1CCCC1)c1cccc(C2=Nc3ccccc3C(=O)C2)c1

>  <score_type>  (34) 
oracle

>  <origin>  (34) 
autodockgpu

>  <m_score__min__energy>  (34) 
-9.5099999999999998

>  <m_primary>  (34) 
energy

>  <rmsd>  (34) 
4.775871480931522

>  <m_score__min__rmsd>  (34) 
4.775871480931522

>  <meeko>  (34) 
{"free_energy": -9.36, "intermolecular_energy": -10.85, "internal_energy": -0.75, "cluster_size": 50, "cluster_id": 1, "rank_in_cluster": 18}

>  <energy>  (34) 
-9.17

>  <cluster_rmsd>  (34) 
1.15

>  <cluster>  (34) 
1

$$$$

     RDKit          3D

 51 54  0  0  0  0  0  0  0  0999 V2000
  139.4160   75.7850  220.1020 O   0  0  0  0  0  0  0  0  0  0  0  0
  140.3430   75.4250  220.9010 C   0  0  0  0  0  0  0  0  0  0  0  0
  141.0820   76.4010  221.6070 N   0  0  0  0  0  0  0  0  0  0  0  0
  140.8570   77.8280  221.4920 C   0  0  0  0  0  0  0  0  0  0  0  0
  140.2430   78.3820  222.7330 C   0  0  0  0  0  0  0  0  0  0  0  0
  141.2010   79.2340  223.5350 C   0  0  0  0  0  0  0  0  0  0  0  0
  140.8350   80.6930  223.3240 C   0  0  0  0  0  0  0  0  0  0  0  0
  142.0710   81.3970  223.8480 C   0  0  0  0  0  0  0  0  0  0  0  0
  143.1880   80.5360  223.3190 C   0  0  0  0  0  0  0  0  0  0  0  0
  142.6140   79.1780  223.0280 C   0  0  0  0  0  0  0  0  0  0  0  0
  140.5610   73.9900  221.0120 C   0  0  0  0  0  0  0  0  0  0  0  0
  141.0190   73.2890  219.9160 C   0  0  0  0  0  0  0  0  0  0  0  0
  141.2500   71.9300  219.9360 C   0  0  0  0  0  0  0  0  0  0  0  0
  141.0030   71.2720  221.1240 C   0  0  0  0  0  0  0  0  0  0  0  0
  140.5450   71.9070  222.2600 C   0  0  0  0  0  0  0  0  0  0  0  0
  140.2900   71.1680  223.5160 C   0  0  0  0  0  0  0  0  0  0  0  0
  140.7020   71.7260  224.6020 N   0  0  0  0  0  0  0  0  0  0  0  0
  140.5310   71.1390  225.8840 C   0  0  0  0  0  0  0  0  0  0  0  0
  141.0150   71.8330  226.9740 C   0  0  0  0  0  0  0  0  0  0  0  0
  140.8450   71.2570  228.2200 C   0  0  0  0  0  0  0  0  0  0  0  0
  140.2070   70.0180  228.3580 C   0  0  0  0  0  0  0  0  0  0  0  0
  139.7310   69.3450  227.2360 C   0  0  0  0  0  0  0  0  0  0  0  0
  139.8980   69.9190  225.9890 C   0  0  0  0  0  0  0  0  0  0  0  0
  139.4370   69.2960  224.7570 C   0  0  0  0  0  0  0  0  0  0  0  0
  138.8590   68.1810  224.8590 O   0  0  0  0  0  0  0  0  0  0  0  0
  139.6030   69.8870  223.4130 C   0  0  0  0  0  0  0  0  0  0  0  0
  140.3360   73.2690  222.1620 C   0  0  0  0  0  0  0  0  0  0  0  0
  141.8360   76.0340  222.2510 H   0  0  0  0  0  0  0  0  0  0  0  0
  141.8198   78.3293  221.3141 H   0  0  0  0  0  0  0  0  0  0  0  0
  140.1658   78.0039  220.6546 H   0  0  0  0  0  0  0  0  0  0  0  0
  139.3770   78.9988  222.4508 H   0  0  0  0  0  0  0  0  0  0  0  0
  139.9511   77.5303  223.3649 H   0  0  0  0  0  0  0  0  0  0  0  0
  141.1331   78.8645  224.5688 H   0  0  0  0  0  0  0  0  0  0  0  0
  140.6677   80.9149  222.2597 H   0  0  0  0  0  0  0  0  0  0  0  0
  139.9024   80.9966  223.8221 H   0  0  0  0  0  0  0  0  0  0  0  0
  142.1402   82.4225  223.4560 H   0  0  0  0  0  0  0  0  0  0  0  0
  142.0823   81.5049  224.9426 H   0  0  0  0  0  0  0  0  0  0  0  0
  143.5969   80.9760  222.3975 H   0  0  0  0  0  0  0  0  0  0  0  0
  144.0019   80.4624  224.0554 H   0  0  0  0  0  0  0  0  0  0  0  0
  142.6287   78.9761  221.9468 H   0  0  0  0  0  0  0  0  0  0  0  0
  143.1925   78.3745  223.5073 H   0  0  0  0  0  0  0  0  0  0  0  0
  141.2087   73.8397  218.9829 H   0  0  0  0  0  0  0  0  0  0  0  0
  141.6142   71.3949  219.0466 H   0  0  0  0  0  0  0  0  0  0  0  0
  141.1802   70.1872  221.1671 H   0  0  0  0  0  0  0  0  0  0  0  0
  141.5159   72.8053  226.8567 H   0  0  0  0  0  0  0  0  0  0  0  0
  141.2159   71.7791  229.1144 H   0  0  0  0  0  0  0  0  0  0  0  0
  140.0814   69.5747  229.3569 H   0  0  0  0  0  0  0  0  0  0  0  0
  139.2297   68.3714  227.3399 H   0  0  0  0  0  0  0  0  0  0  0  0
  140.1952   69.2050  222.7852 H   0  0  0  0  0  0  0  0  0  0  0  0
  138.6124   70.0426  222.9609 H   0  0  0  0  0  0  0  0  0  0  0  0
  139.9705   73.8053  223.0501 H   0  0  0  0  0  0  0  0  0  0  0  0
  1  2  2  0
  2  3  1  0
  3  4  1  0
  4  5  1  0
  5  6  1  0
  6  7  1  0
  7  8  1  0
  8  9  1  0
  9 10  1  0
  2 11  1  0
 11 12  2  0
 12 13  1  0
 13 14  2  0
 14 15  1  0
 15 16  1  0
 16 17  2  0
 17 18  1  0
 18 19  2  0
 19 20  1  0
 20 21  2  0
 21 22  1  0
 22 23  2  0
 23 24  1  0
 24 25  2  0
 24 26  1  0
 15 27  2  0
 10  6  1  0
 27 11  1  0
 26 16  1  0
 23 18  1  0
  3 28  1  0
  4 29  1  0
  4 30  1  0
  5 31  1  0
  5 32  1  0
  6 33  1  0
  7 34  1  0
  7 35  1  0
  8 36  1  0
  8 37  1  0
  9 38  1  0
  9 39  1  0
 10 40  1  0
 10 41  1  0
 12 42  1  0
 13 43  1  0
 14 44  1  0
 19 45  1  0
 20 46  1  0
 21 47  1  0
 22 48  1  0
 26 49  1  0
 26 50  1  0
 27 51  1  0
M  END
>  <smiles>  (35) 
O=C(NCCC1CCCC1)c1cccc(C2=Nc3ccccc3C(=O)C2)c1

>  <score_type>  (35) 
oracle

>  <origin>  (35) 
autodockgpu

>  <m_score__min__energy>  (35) 
-9.5099999999999998

>  <m_primary>  (35) 
energy

>  <rmsd>  (35) 
4.377231422970669

>  <m_score__min__rmsd>  (35) 
4.377231422970669

>  <meeko>  (35) 
{"free_energy": -9.4, "intermolecular_energy": -10.9, "internal_energy": -0.79, "cluster_size": 50, "cluster_id": 1, "rank_in_cluster": 13}

>  <energy>  (35) 
-9.17

>  <cluster_rmsd>  (35) 
1.26

>  <cluster>  (35) 
1

$$$$

     RDKit          3D

 51 54  0  0  0  0  0  0  0  0999 V2000
  138.8140   75.9400  220.8230 O   0  0  0  0  0  0  0  0  0  0  0  0
  139.9740   75.5920  221.2220 C   0  0  0  0  0  0  0  0  0  0  0  0
  140.9090   76.5770  221.6110 N   0  0  0  0  0  0  0  0  0  0  0  0
  140.6410   78.0020  221.5940 C   0  0  0  0  0  0  0  0  0  0  0  0
  140.1450   78.4760  222.9190 C   0  0  0  0  0  0  0  0  0  0  0  0
  141.1570   79.3210  223.6580 C   0  0  0  0  0  0  0  0  0  0  0  0
  140.8520   80.7840  223.3800 C   0  0  0  0  0  0  0  0  0  0  0  0
  142.1290   81.4560  223.8440 C   0  0  0  0  0  0  0  0  0  0  0  0
  143.1950   80.5200  223.3380 C   0  0  0  0  0  0  0  0  0  0  0  0
  142.5550   79.1760  223.1270 C   0  0  0  0  0  0  0  0  0  0  0  0
  140.2340   74.1600  221.2380 C   0  0  0  0  0  0  0  0  0  0  0  0
  140.6620   73.5380  220.0840 C   0  0  0  0  0  0  0  0  0  0  0  0
  140.9310   72.1870  220.0130 C   0  0  0  0  0  0  0  0  0  0  0  0
  140.7540   71.4540  221.1690 C   0  0  0  0  0  0  0  0  0  0  0  0
  140.3290   72.0080  222.3600 C   0  0  0  0  0  0  0  0  0  0  0  0
  140.1500   71.1900  223.5790 C   0  0  0  0  0  0  0  0  0  0  0  0
  140.6080   71.6880  224.6750 N   0  0  0  0  0  0  0  0  0  0  0  0
  140.5110   71.0220  225.9250 C   0  0  0  0  0  0  0  0  0  0  0  0
  141.0400   71.6560  227.0300 C   0  0  0  0  0  0  0  0  0  0  0  0
  140.9430   71.0030  228.2460 C   0  0  0  0  0  0  0  0  0  0  0  0
  140.3300   69.7470  228.3390 C   0  0  0  0  0  0  0  0  0  0  0  0
  139.8080   69.1350  227.2030 C   0  0  0  0  0  0  0  0  0  0  0  0
  139.9030   69.7870  225.9860 C   0  0  0  0  0  0  0  0  0  0  0  0
  139.3880   69.2310  224.7440 C   0  0  0  0  0  0  0  0  0  0  0  0
  138.8330   68.1020  224.8050 O   0  0  0  0  0  0  0  0  0  0  0  0
  139.4770   69.9050  223.4310 C   0  0  0  0  0  0  0  0  0  0  0  0
  140.0800   73.3660  222.3520 C   0  0  0  0  0  0  0  0  0  0  0  0
  141.8520   76.2200  221.9300 H   0  0  0  0  0  0  0  0  0  0  0  0
  141.5689   78.5382  221.3460 H   0  0  0  0  0  0  0  0  0  0  0  0
  139.8639   78.2003  220.8411 H   0  0  0  0  0  0  0  0  0  0  0  0
  139.2366   79.0755  222.7597 H   0  0  0  0  0  0  0  0  0  0  0  0
  139.9457   77.5863  223.5343 H   0  0  0  0  0  0  0  0  0  0  0  0
  141.0952   79.0061  224.7102 H   0  0  0  0  0  0  0  0  0  0  0  0
  140.6722   80.9599  222.3092 H   0  0  0  0  0  0  0  0  0  0  0  0
  139.9448   81.1544  223.8797 H   0  0  0  0  0  0  0  0  0  0  0  0
  142.2354   82.4565  223.3995 H   0  0  0  0  0  0  0  0  0  0  0  0
  142.1685   81.6173  224.9314 H   0  0  0  0  0  0  0  0  0  0  0  0
  143.6033   80.8947  222.3878 H   0  0  0  0  0  0  0  0  0  0  0  0
  144.0203   80.4462  224.0615 H   0  0  0  0  0  0  0  0  0  0  0  0
  142.5373   78.9203  222.0573 H   0  0  0  0  0  0  0  0  0  0  0  0
  143.1076   78.3719  223.6349 H   0  0  0  0  0  0  0  0  0  0  0  0
  140.7951   74.1476  219.1781 H   0  0  0  0  0  0  0  0  0  0  0  0
  141.2707   71.7159  219.0788 H   0  0  0  0  0  0  0  0  0  0  0  0
  140.9620   70.3742  221.1399 H   0  0  0  0  0  0  0  0  0  0  0  0
  141.5202   72.6422  226.9477 H   0  0  0  0  0  0  0  0  0  0  0  0
  141.3523   71.4760  229.1508 H   0  0  0  0  0  0  0  0  0  0  0  0
  140.2608   69.2422  229.3139 H   0  0  0  0  0  0  0  0  0  0  0  0
  139.3272   68.1480  227.2716 H   0  0  0  0  0  0  0  0  0  0  0  0
  140.0467   69.2728  222.7340 H   0  0  0  0  0  0  0  0  0  0  0  0
  138.4628   70.0698  223.0383 H   0  0  0  0  0  0  0  0  0  0  0  0
  139.7405   73.8387  223.2855 H   0  0  0  0  0  0  0  0  0  0  0  0
  1  2  2  0
  2  3  1  0
  3  4  1  0
  4  5  1  0
  5  6  1  0
  6  7  1  0
  7  8  1  0
  8  9  1  0
  9 10  1  0
  2 11  1  0
 11 12  2  0
 12 13  1  0
 13 14  2  0
 14 15  1  0
 15 16  1  0
 16 17  2  0
 17 18  1  0
 18 19  2  0
 19 20  1  0
 20 21  2  0
 21 22  1  0
 22 23  2  0
 23 24  1  0
 24 25  2  0
 24 26  1  0
 15 27  2  0
 10  6  1  0
 27 11  1  0
 26 16  1  0
 23 18  1  0
  3 28  1  0
  4 29  1  0
  4 30  1  0
  5 31  1  0
  5 32  1  0
  6 33  1  0
  7 34  1  0
  7 35  1  0
  8 36  1  0
  8 37  1  0
  9 38  1  0
  9 39  1  0
 10 40  1  0
 10 41  1  0
 12 42  1  0
 13 43  1  0
 14 44  1  0
 19 45  1  0
 20 46  1  0
 21 47  1  0
 22 48  1  0
 26 49  1  0
 26 50  1  0
 27 51  1  0
M  END
>  <smiles>  (36) 
O=C(NCCC1CCCC1)c1cccc(C2=Nc3ccccc3C(=O)C2)c1

>  <score_type>  (36) 
oracle

>  <origin>  (36) 
autodockgpu

>  <m_score__min__energy>  (36) 
-9.5099999999999998

>  <m_primary>  (36) 
energy

>  <rmsd>  (36) 
4.362144236391422

>  <m_score__min__rmsd>  (36) 
4.362144236391422

>  <meeko>  (36) 
{"free_energy": -9.49, "intermolecular_energy": -10.98, "internal_energy": -0.81, "cluster_size": 50, "cluster_id": 1, "rank_in_cluster": 4}

>  <energy>  (36) 
-9.17

>  <cluster_rmsd>  (36) 
1.22

>  <cluster>  (36) 
1

$$$$

     RDKit          3D

 51 54  0  0  0  0  0  0  0  0999 V2000
  139.0200   75.8640  220.7110 O   0  0  0  0  0  0  0  0  0  0  0  0
  140.1650   75.5490  221.1750 C   0  0  0  0  0  0  0  0  0  0  0  0
  141.0590   76.5610  221.5910 N   0  0  0  0  0  0  0  0  0  0  0  0
  140.7620   77.9790  221.5330 C   0  0  0  0  0  0  0  0  0  0  0  0
  140.0050   78.4250  222.7390 C   0  0  0  0  0  0  0  0  0  0  0  0
  140.7380   79.4790  223.5370 C   0  0  0  0  0  0  0  0  0  0  0  0
  140.7870   80.7550  222.7130 C   0  0  0  0  0  0  0  0  0  0  0  0
  141.8450   81.5530  223.4480 C   0  0  0  0  0  0  0  0  0  0  0  0
  142.8780   80.5060  223.7730 C   0  0  0  0  0  0  0  0  0  0  0  0
  142.1940   79.1680  223.7390 C   0  0  0  0  0  0  0  0  0  0  0  0
  140.4540   74.1240  221.2310 C   0  0  0  0  0  0  0  0  0  0  0  0
  140.9830   73.4970  220.1230 C   0  0  0  0  0  0  0  0  0  0  0  0
  141.2850   72.1510  220.0930 C   0  0  0  0  0  0  0  0  0  0  0  0
  141.0350   71.4290  221.2420 C   0  0  0  0  0  0  0  0  0  0  0  0
  140.5090   71.9890  222.3890 C   0  0  0  0  0  0  0  0  0  0  0  0
  140.2530   71.1830  223.6030 C   0  0  0  0  0  0  0  0  0  0  0  0
  140.6660   71.6810  224.7170 N   0  0  0  0  0  0  0  0  0  0  0  0
  140.4940   71.0250  225.9650 C   0  0  0  0  0  0  0  0  0  0  0  0
  140.9790   71.6580  227.0910 C   0  0  0  0  0  0  0  0  0  0  0  0
  140.8090   71.0140  228.3040 C   0  0  0  0  0  0  0  0  0  0  0  0
  140.1690   69.7710  228.3740 C   0  0  0  0  0  0  0  0  0  0  0  0
  139.6930   69.1610  227.2170 C   0  0  0  0  0  0  0  0  0  0  0  0
  139.8600   69.8020  226.0030 C   0  0  0  0  0  0  0  0  0  0  0  0
  139.3980   69.2470  224.7400 C   0  0  0  0  0  0  0  0  0  0  0  0
  138.8190   68.1280  224.7810 O   0  0  0  0  0  0  0  0  0  0  0  0
  139.5650   69.9100  223.4290 C   0  0  0  0  0  0  0  0  0  0  0  0
  140.2310   73.3410  222.3420 C   0  0  0  0  0  0  0  0  0  0  0  0
  141.9920   76.2300  221.9640 H   0  0  0  0  0  0  0  0  0  0  0  0
  141.7060   78.5406  221.4748 H   0  0  0  0  0  0  0  0  0  0  0  0
  140.1412   78.1673  220.6446 H   0  0  0  0  0  0  0  0  0  0  0  0
  139.0393   78.8394  222.4139 H   0  0  0  0  0  0  0  0  0  0  0  0
  139.8757   77.5482  223.3905 H   0  0  0  0  0  0  0  0  0  0  0  0
  140.2075   79.5454  224.4983 H   0  0  0  0  0  0  0  0  0  0  0  0
  141.0876   80.5509  221.6747 H   0  0  0  0  0  0  0  0  0  0  0  0
  139.8184   81.2692  222.6270 H   0  0  0  0  0  0  0  0  0  0  0  0
  142.2660   82.3406  222.8058 H   0  0  0  0  0  0  0  0  0  0  0  0
  141.4601   82.0785  224.3344 H   0  0  0  0  0  0  0  0  0  0  0  0
  143.6869   80.5330  223.0280 H   0  0  0  0  0  0  0  0  0  0  0  0
  143.3171   80.6907  224.7645 H   0  0  0  0  0  0  0  0  0  0  0  0
  142.5779   78.5588  222.9074 H   0  0  0  0  0  0  0  0  0  0  0  0
  142.3690   78.5917  224.6594 H   0  0  0  0  0  0  0  0  0  0  0  0
  141.1731   74.0975  219.2212 H   0  0  0  0  0  0  0  0  0  0  0  0
  141.7056   71.6755  219.1947 H   0  0  0  0  0  0  0  0  0  0  0  0
  141.2664   70.3536  221.2442 H   0  0  0  0  0  0  0  0  0  0  0  0
  141.4805   72.6350  227.0271 H   0  0  0  0  0  0  0  0  0  0  0  0
  141.1818   71.4851  229.2255 H   0  0  0  0  0  0  0  0  0  0  0  0
  140.0418   69.2744  229.3472 H   0  0  0  0  0  0  0  0  0  0  0  0
  139.1913   68.1834  227.2675 H   0  0  0  0  0  0  0  0  0  0  0  0
  140.1571   69.2627  222.7654 H   0  0  0  0  0  0  0  0  0  0  0  0
  138.5750   70.0903  222.9847 H   0  0  0  0  0  0  0  0  0  0  0  0
  139.8092   73.8177  223.2392 H   0  0  0  0  0  0  0  0  0  0  0  0
  1  2  2  0
  2  3  1  0
  3  4  1  0
  4  5  1  0
  5  6  1  0
  6  7  1  0
  7  8  1  0
  8  9  1  0
  9 10  1  0
  2 11  1  0
 11 12  2  0
 12 13  1  0
 13 14  2  0
 14 15  1  0
 15 16  1  0
 16 17  2  0
 17 18  1  0
 18 19  2  0
 19 20  1  0
 20 21  2  0
 21 22  1  0
 22 23  2  0
 23 24  1  0
 24 25  2  0
 24 26  1  0
 15 27  2  0
 10  6  1  0
 27 11  1  0
 26 16  1  0
 23 18  1  0
  3 28  1  0
  4 29  1  0
  4 30  1  0
  5 31  1  0
  5 32  1  0
  6 33  1  0
  7 34  1  0
  7 35  1  0
  8 36  1  0
  8 37  1  0
  9 38  1  0
  9 39  1  0
 10 40  1  0
 10 41  1  0
 12 42  1  0
 13 43  1  0
 14 44  1  0
 19 45  1  0
 20 46  1  0
 21 47  1  0
 22 48  1  0
 26 49  1  0
 26 50  1  0
 27 51  1  0
M  END
>  <smiles>  (37) 
O=C(NCCC1CCCC1)c1cccc(C2=Nc3ccccc3C(=O)C2)c1

>  <score_type>  (37) 
oracle

>  <origin>  (37) 
autodockgpu

>  <m_score__min__energy>  (37) 
-9.5099999999999998

>  <m_primary>  (37) 
energy

>  <rmsd>  (37) 
4.3129139792297915

>  <m_score__min__rmsd>  (37) 
4.3129139792297915

>  <meeko>  (37) 
{"free_energy": -9.45, "intermolecular_energy": -10.94, "internal_energy": -0.81, "cluster_size": 50, "cluster_id": 1, "rank_in_cluster": 9}

>  <energy>  (37) 
-9.12

>  <cluster_rmsd>  (37) 
1.21

>  <cluster>  (37) 
1

$$$$

     RDKit          3D

 51 54  0  0  0  0  0  0  0  0999 V2000
  138.9800   75.9200  221.2740 O   0  0  0  0  0  0  0  0  0  0  0  0
  140.2130   75.5950  221.2730 C   0  0  0  0  0  0  0  0  0  0  0  0
  141.2060   76.6010  221.2600 N   0  0  0  0  0  0  0  0  0  0  0  0
  140.9200   78.0220  221.2510 C   0  0  0  0  0  0  0  0  0  0  0  0
  140.2380   78.4460  222.5090 C   0  0  0  0  0  0  0  0  0  0  0  0
  141.1360   79.2490  223.4230 C   0  0  0  0  0  0  0  0  0  0  0  0
  140.8140   80.7220  223.2360 C   0  0  0  0  0  0  0  0  0  0  0  0
  142.0090   81.3820  223.8930 C   0  0  0  0  0  0  0  0  0  0  0  0
  143.1540   80.5200  223.4310 C   0  0  0  0  0  0  0  0  0  0  0  0
  142.5870   79.1840  223.0400 C   0  0  0  0  0  0  0  0  0  0  0  0
  140.4910   74.1670  221.2840 C   0  0  0  0  0  0  0  0  0  0  0  0
  141.0210   73.5720  220.1580 C   0  0  0  0  0  0  0  0  0  0  0  0
  141.3130   72.2260  220.0850 C   0  0  0  0  0  0  0  0  0  0  0  0
  141.0520   71.4690  221.2080 C   0  0  0  0  0  0  0  0  0  0  0  0
  140.5240   71.9940  222.3700 C   0  0  0  0  0  0  0  0  0  0  0  0
  140.2560   71.1510  223.5550 C   0  0  0  0  0  0  0  0  0  0  0  0
  140.6730   71.6040  224.6860 N   0  0  0  0  0  0  0  0  0  0  0  0
  140.4910   70.9080  225.9110 C   0  0  0  0  0  0  0  0  0  0  0  0
  140.9830   71.4950  227.0590 C   0  0  0  0  0  0  0  0  0  0  0  0
  140.8030   70.8130  228.2490 C   0  0  0  0  0  0  0  0  0  0  0  0
  140.1460   69.5760  228.2750 C   0  0  0  0  0  0  0  0  0  0  0  0
  139.6630   69.0130  227.0980 C   0  0  0  0  0  0  0  0  0  0  0  0
  139.8410   69.6930  225.9060 C   0  0  0  0  0  0  0  0  0  0  0  0
  139.3730   69.1880  224.6240 C   0  0  0  0  0  0  0  0  0  0  0  0
  138.7790   68.0770  224.6260 O   0  0  0  0  0  0  0  0  0  0  0  0
  139.5500   69.8930  223.3380 C   0  0  0  0  0  0  0  0  0  0  0  0
  140.2560   73.3490  222.3670 C   0  0  0  0  0  0  0  0  0  0  0  0
  142.2080   76.2620  221.2590 H   0  0  0  0  0  0  0  0  0  0  0  0
  141.8645   78.5769  221.1509 H   0  0  0  0  0  0  0  0  0  0  0  0
  140.2511   78.2361  220.4044 H   0  0  0  0  0  0  0  0  0  0  0  0
  139.3653   79.0614  222.2449 H   0  0  0  0  0  0  0  0  0  0  0  0
  139.9467   77.5338  223.0503 H   0  0  0  0  0  0  0  0  0  0  0  0
  140.9715   78.8431  224.4321 H   0  0  0  0  0  0  0  0  0  0  0  0
  140.7457   80.9856  222.1702 H   0  0  0  0  0  0  0  0  0  0  0  0
  139.8459   81.0255  223.6611 H   0  0  0  0  0  0  0  0  0  0  0  0
  142.1289   82.4198  223.5486 H   0  0  0  0  0  0  0  0  0  0  0  0
  141.9253   81.4492  224.9878 H   0  0  0  0  0  0  0  0  0  0  0  0
  143.6488   80.9854  222.5658 H   0  0  0  0  0  0  0  0  0  0  0  0
  143.8988   80.4044  224.2322 H   0  0  0  0  0  0  0  0  0  0  0  0
  142.6940   79.0207  221.9575 H   0  0  0  0  0  0  0  0  0  0  0  0
  143.1083   78.3529  223.5374 H   0  0  0  0  0  0  0  0  0  0  0  0
  141.2200   74.2003  219.2773 H   0  0  0  0  0  0  0  0  0  0  0  0
  141.7345   71.7771  219.1735 H   0  0  0  0  0  0  0  0  0  0  0  0
  141.2760   70.3925  221.1758 H   0  0  0  0  0  0  0  0  0  0  0  0
  141.4979   72.4666  227.0290 H   0  0  0  0  0  0  0  0  0  0  0  0
  141.1804   71.2474  229.1865 H   0  0  0  0  0  0  0  0  0  0  0  0
  140.0114   69.0475  229.2303 H   0  0  0  0  0  0  0  0  0  0  0  0
  139.1472   68.0416  227.1147 H   0  0  0  0  0  0  0  0  0  0  0  0
  140.1335   69.2607  222.6526 H   0  0  0  0  0  0  0  0  0  0  0  0
  138.5626   70.1024  222.9007 H   0  0  0  0  0  0  0  0  0  0  0  0
  139.8326   73.7985  223.2774 H   0  0  0  0  0  0  0  0  0  0  0  0
  1  2  2  0
  2  3  1  0
  3  4  1  0
  4  5  1  0
  5  6  1  0
  6  7  1  0
  7  8  1  0
  8  9  1  0
  9 10  1  0
  2 11  1  0
 11 12  2  0
 12 13  1  0
 13 14  2  0
 14 15  1  0
 15 16  1  0
 16 17  2  0
 17 18  1  0
 18 19  2  0
 19 20  1  0
 20 21  2  0
 21 22  1  0
 22 23  2  0
 23 24  1  0
 24 25  2  0
 24 26  1  0
 15 27  2  0
 10  6  1  0
 27 11  1  0
 26 16  1  0
 23 18  1  0
  3 28  1  0
  4 29  1  0
  4 30  1  0
  5 31  1  0
  5 32  1  0
  6 33  1  0
  7 34  1  0
  7 35  1  0
  8 36  1  0
  8 37  1  0
  9 38  1  0
  9 39  1  0
 10 40  1  0
 10 41  1  0
 12 42  1  0
 13 43  1  0
 14 44  1  0
 19 45  1  0
 20 46  1  0
 21 47  1  0
 22 48  1  0
 26 49  1  0
 26 50  1  0
 27 51  1  0
M  END
>  <smiles>  (38) 
O=C(NCCC1CCCC1)c1cccc(C2=Nc3ccccc3C(=O)C2)c1

>  <score_type>  (38) 
oracle

>  <origin>  (38) 
autodockgpu

>  <m_score__min__energy>  (38) 
-9.5099999999999998

>  <m_primary>  (38) 
energy

>  <rmsd>  (38) 
4.347521921047588

>  <m_score__min__rmsd>  (38) 
4.347521921047588

>  <meeko>  (38) 
{"free_energy": -9.35, "intermolecular_energy": -10.84, "internal_energy": -0.83, "cluster_size": 50, "cluster_id": 1, "rank_in_cluster": 19}

>  <energy>  (38) 
-9.11

>  <cluster_rmsd>  (38) 
0.76

>  <cluster>  (38) 
1

$$$$

     RDKit          3D

 51 54  0  0  0  0  0  0  0  0999 V2000
  138.8630   75.7970  220.7490 O   0  0  0  0  0  0  0  0  0  0  0  0
  140.0450   75.5670  221.1700 C   0  0  0  0  0  0  0  0  0  0  0  0
  140.8880   76.6430  221.5270 N   0  0  0  0  0  0  0  0  0  0  0  0
  140.4980   78.0370  221.4500 C   0  0  0  0  0  0  0  0  0  0  0  0
  139.8450   78.4880  222.7140 C   0  0  0  0  0  0  0  0  0  0  0  0
  140.7300   79.3910  223.5430 C   0  0  0  0  0  0  0  0  0  0  0  0
  140.6280   80.8020  222.9880 C   0  0  0  0  0  0  0  0  0  0  0  0
  141.8170   81.4750  223.6440 C   0  0  0  0  0  0  0  0  0  0  0  0
  142.8840   80.4160  223.5540 C   0  0  0  0  0  0  0  0  0  0  0  0
  142.1940   79.0900  223.3950 C   0  0  0  0  0  0  0  0  0  0  0  0
  140.4270   74.1640  221.2460 C   0  0  0  0  0  0  0  0  0  0  0  0
  141.0650   73.5790  220.1730 C   0  0  0  0  0  0  0  0  0  0  0  0
  141.4600   72.2570  220.1620 C   0  0  0  0  0  0  0  0  0  0  0  0
  141.1900   71.5160  221.2950 C   0  0  0  0  0  0  0  0  0  0  0  0
  140.5560   72.0340  222.4060 C   0  0  0  0  0  0  0  0  0  0  0  0
  140.2830   71.2090  223.6020 C   0  0  0  0  0  0  0  0  0  0  0  0
  140.6870   71.6820  224.7300 N   0  0  0  0  0  0  0  0  0  0  0  0
  140.4980   71.0060  225.9640 C   0  0  0  0  0  0  0  0  0  0  0  0
  140.9760   71.6140  227.1060 C   0  0  0  0  0  0  0  0  0  0  0  0
  140.7880   70.9510  228.3050 C   0  0  0  0  0  0  0  0  0  0  0  0
  140.1390   69.7110  228.3470 C   0  0  0  0  0  0  0  0  0  0  0  0
  139.6700   69.1250  227.1740 C   0  0  0  0  0  0  0  0  0  0  0  0
  139.8550   69.7870  225.9730 C   0  0  0  0  0  0  0  0  0  0  0  0
  139.4020   69.2580  224.6960 C   0  0  0  0  0  0  0  0  0  0  0  0
  138.8140   68.1440  224.7100 O   0  0  0  0  0  0  0  0  0  0  0  0
  139.5870   69.9430  223.3990 C   0  0  0  0  0  0  0  0  0  0  0  0
  140.1900   73.3640  222.3410 C   0  0  0  0  0  0  0  0  0  0  0  0
  141.8540   76.3810  221.8680 H   0  0  0  0  0  0  0  0  0  0  0  0
  141.3934   78.6502  221.2707 H   0  0  0  0  0  0  0  0  0  0  0  0
  139.7771   78.1509  220.6270 H   0  0  0  0  0  0  0  0  0  0  0  0
  138.9259   79.0356  222.4584 H   0  0  0  0  0  0  0  0  0  0  0  0
  139.6331   77.5911  223.3146 H   0  0  0  0  0  0  0  0  0  0  0  0
  140.3987   79.2565  224.5833 H   0  0  0  0  0  0  0  0  0  0  0  0
  140.7172   80.8094  221.8917 H   0  0  0  0  0  0  0  0  0  0  0  0
  139.6661   81.2947  223.1929 H   0  0  0  0  0  0  0  0  0  0  0  0
  142.1113   82.3828  223.0969 H   0  0  0  0  0  0  0  0  0  0  0  0
  141.6180   81.8096  224.6728 H   0  0  0  0  0  0  0  0  0  0  0  0
  143.5317   80.6086  222.6860 H   0  0  0  0  0  0  0  0  0  0  0  0
  143.5105   80.4202  224.4581 H   0  0  0  0  0  0  0  0  0  0  0  0
  142.4021   78.6628  222.4030 H   0  0  0  0  0  0  0  0  0  0  0  0
  142.5404   78.3536  224.1351 H   0  0  0  0  0  0  0  0  0  0  0  0
  141.2686   74.1947  219.2845 H   0  0  0  0  0  0  0  0  0  0  0  0
  141.9662   71.8144  219.2914 H   0  0  0  0  0  0  0  0  0  0  0  0
  141.4956   70.4595  221.3132 H   0  0  0  0  0  0  0  0  0  0  0  0
  141.4864   72.5875  227.0647 H   0  0  0  0  0  0  0  0  0  0  0  0
  141.1533   71.4040  229.2385 H   0  0  0  0  0  0  0  0  0  0  0  0
  139.9991   69.1979  229.3099 H   0  0  0  0  0  0  0  0  0  0  0  0
  139.1602   68.1507  227.2017 H   0  0  0  0  0  0  0  0  0  0  0  0
  140.1811   69.3032  222.7299 H   0  0  0  0  0  0  0  0  0  0  0  0
  138.6027   70.1386  222.9486 H   0  0  0  0  0  0  0  0  0  0  0  0
  139.6822   73.8076  223.2101 H   0  0  0  0  0  0  0  0  0  0  0  0
  1  2  2  0
  2  3  1  0
  3  4  1  0
  4  5  1  0
  5  6  1  0
  6  7  1  0
  7  8  1  0
  8  9  1  0
  9 10  1  0
  2 11  1  0
 11 12  2  0
 12 13  1  0
 13 14  2  0
 14 15  1  0
 15 16  1  0
 16 17  2  0
 17 18  1  0
 18 19  2  0
 19 20  1  0
 20 21  2  0
 21 22  1  0
 22 23  2  0
 23 24  1  0
 24 25  2  0
 24 26  1  0
 15 27  2  0
 10  6  1  0
 27 11  1  0
 26 16  1  0
 23 18  1  0
  3 28  1  0
  4 29  1  0
  4 30  1  0
  5 31  1  0
  5 32  1  0
  6 33  1  0
  7 34  1  0
  7 35  1  0
  8 36  1  0
  8 37  1  0
  9 38  1  0
  9 39  1  0
 10 40  1  0
 10 41  1  0
 12 42  1  0
 13 43  1  0
 14 44  1  0
 19 45  1  0
 20 46  1  0
 21 47  1  0
 22 48  1  0
 26 49  1  0
 26 50  1  0
 27 51  1  0
M  END
>  <smiles>  (39) 
O=C(NCCC1CCCC1)c1cccc(C2=Nc3ccccc3C(=O)C2)c1

>  <score_type>  (39) 
oracle

>  <origin>  (39) 
autodockgpu

>  <m_score__min__energy>  (39) 
-9.5099999999999998

>  <m_primary>  (39) 
energy

>  <rmsd>  (39) 
4.310652791469837

>  <m_score__min__rmsd>  (39) 
4.310652791469837

>  <meeko>  (39) 
{"free_energy": -9.44, "intermolecular_energy": -10.93, "internal_energy": -0.83, "cluster_size": 50, "cluster_id": 1, "rank_in_cluster": 11}

>  <energy>  (39) 
-9.02

>  <cluster_rmsd>  (39) 
0.37

>  <cluster>  (39) 
1

$$$$

     RDKit          3D

 51 54  0  0  0  0  0  0  0  0999 V2000
  139.0660   75.8650  220.4500 O   0  0  0  0  0  0  0  0  0  0  0  0
  140.1340   75.4660  221.0190 C   0  0  0  0  0  0  0  0  0  0  0  0
  141.0470   76.4080  221.5440 N   0  0  0  0  0  0  0  0  0  0  0  0
  140.8540   77.8430  221.4860 C   0  0  0  0  0  0  0  0  0  0  0  0
  140.2270   78.3580  222.7390 C   0  0  0  0  0  0  0  0  0  0  0  0
  141.1630   79.2230  223.5520 C   0  0  0  0  0  0  0  0  0  0  0  0
  140.8140   80.6790  223.2930 C   0  0  0  0  0  0  0  0  0  0  0  0
  142.0350   81.3890  223.8420 C   0  0  0  0  0  0  0  0  0  0  0  0
  143.1640   80.5090  223.3730 C   0  0  0  0  0  0  0  0  0  0  0  0
  142.5920   79.1470  223.0960 C   0  0  0  0  0  0  0  0  0  0  0  0
  140.3190   74.0230  221.0750 C   0  0  0  0  0  0  0  0  0  0  0  0
  140.6660   73.3410  219.9280 C   0  0  0  0  0  0  0  0  0  0  0  0
  140.8590   71.9760  219.8940 C   0  0  0  0  0  0  0  0  0  0  0  0
  140.6920   71.2920  221.0810 C   0  0  0  0  0  0  0  0  0  0  0  0
  140.3470   71.9070  222.2680 C   0  0  0  0  0  0  0  0  0  0  0  0
  140.1760   71.1410  223.5220 C   0  0  0  0  0  0  0  0  0  0  0  0
  140.6360   71.6870  224.5930 N   0  0  0  0  0  0  0  0  0  0  0  0
  140.5460   71.0740  225.8720 C   0  0  0  0  0  0  0  0  0  0  0  0
  141.0750   71.7580  226.9470 C   0  0  0  0  0  0  0  0  0  0  0  0
  140.9850   71.1560  228.1890 C   0  0  0  0  0  0  0  0  0  0  0  0
  140.3790   69.9030  228.3380 C   0  0  0  0  0  0  0  0  0  0  0  0
  139.8560   69.2410  227.2310 C   0  0  0  0  0  0  0  0  0  0  0  0
  139.9440   69.8400  225.9870 C   0  0  0  0  0  0  0  0  0  0  0  0
  139.4280   69.2300  224.7710 C   0  0  0  0  0  0  0  0  0  0  0  0
  138.8780   68.1020  224.8830 O   0  0  0  0  0  0  0  0  0  0  0  0
  139.5090   69.8480  223.4310 C   0  0  0  0  0  0  0  0  0  0  0  0
  140.1690   73.2760  222.2220 C   0  0  0  0  0  0  0  0  0  0  0  0
  141.9120   76.0080  222.0030 H   0  0  0  0  0  0  0  0  0  0  0  0
  141.8304   78.3304  221.3476 H   0  0  0  0  0  0  0  0  0  0  0  0
  140.1829   78.0689  220.6442 H   0  0  0  0  0  0  0  0  0  0  0  0
  139.3428   78.9543  222.4697 H   0  0  0  0  0  0  0  0  0  0  0  0
  139.9608   77.4878  223.3570 H   0  0  0  0  0  0  0  0  0  0  0  0
  141.0576   78.8785  224.5913 H   0  0  0  0  0  0  0  0  0  0  0  0
  140.6850   80.8756  222.2184 H   0  0  0  0  0  0  0  0  0  0  0  0
  139.8668   80.9998  223.7512 H   0  0  0  0  0  0  0  0  0  0  0  0
  142.1241   82.4041  223.4277 H   0  0  0  0  0  0  0  0  0  0  0  0
  142.0093   81.5240  224.9334 H   0  0  0  0  0  0  0  0  0  0  0  0
  143.6069   80.9238  222.4555 H   0  0  0  0  0  0  0  0  0  0  0  0
  143.9516   80.4494  224.1385 H   0  0  0  0  0  0  0  0  0  0  0  0
  142.6428   78.9180  222.0213 H   0  0  0  0  0  0  0  0  0  0  0  0
  143.1487   78.3527  223.6149 H   0  0  0  0  0  0  0  0  0  0  0  0
  140.7949   73.9123  218.9968 H   0  0  0  0  0  0  0  0  0  0  0  0
  141.1333   71.4565  218.9640 H   0  0  0  0  0  0  0  0  0  0  0  0
  140.8413   70.2022  221.0814 H   0  0  0  0  0  0  0  0  0  0  0  0
  141.5493   72.7425  226.8214 H   0  0  0  0  0  0  0  0  0  0  0  0
  141.3952   71.6688  229.0715 H   0  0  0  0  0  0  0  0  0  0  0  0
  140.3159   69.4398  229.3337 H   0  0  0  0  0  0  0  0  0  0  0  0
  139.3796   68.2559  227.3436 H   0  0  0  0  0  0  0  0  0  0  0  0
  140.0793   69.1896  222.7593 H   0  0  0  0  0  0  0  0  0  0  0  0
  138.4926   69.9912  223.0355 H   0  0  0  0  0  0  0  0  0  0  0  0
  139.8929   73.7970  223.1506 H   0  0  0  0  0  0  0  0  0  0  0  0
  1  2  2  0
  2  3  1  0
  3  4  1  0
  4  5  1  0
  5  6  1  0
  6  7  1  0
  7  8  1  0
  8  9  1  0
  9 10  1  0
  2 11  1  0
 11 12  2  0
 12 13  1  0
 13 14  2  0
 14 15  1  0
 15 16  1  0
 16 17  2  0
 17 18  1  0
 18 19  2  0
 19 20  1  0
 20 21  2  0
 21 22  1  0
 22 23  2  0
 23 24  1  0
 24 25  2  0
 24 26  1  0
 15 27  2  0
 10  6  1  0
 27 11  1  0
 26 16  1  0
 23 18  1  0
  3 28  1  0
  4 29  1  0
  4 30  1  0
  5 31  1  0
  5 32  1  0
  6 33  1  0
  7 34  1  0
  7 35  1  0
  8 36  1  0
  8 37  1  0
  9 38  1  0
  9 39  1  0
 10 40  1  0
 10 41  1  0
 12 42  1  0
 13 43  1  0
 14 44  1  0
 19 45  1  0
 20 46  1  0
 21 47  1  0
 22 48  1  0
 26 49  1  0
 26 50  1  0
 27 51  1  0
M  END
>  <smiles>  (40) 
O=C(NCCC1CCCC1)c1cccc(C2=Nc3ccccc3C(=O)C2)c1

>  <score_type>  (40) 
oracle

>  <origin>  (40) 
autodockgpu

>  <m_score__min__energy>  (40) 
-9.5099999999999998

>  <m_primary>  (40) 
energy

>  <rmsd>  (40) 
4.368964994636215

>  <m_score__min__rmsd>  (40) 
4.368964994636215

>  <meeko>  (40) 
{"free_energy": -9.48, "intermolecular_energy": -10.97, "internal_energy": -0.79, "cluster_size": 50, "cluster_id": 1, "rank_in_cluster": 5}

>  <energy>  (40) 
-9.01

>  <cluster_rmsd>  (40) 
1.4

>  <cluster>  (40) 
1

$$$$

     RDKit          3D

 51 54  0  0  0  0  0  0  0  0999 V2000
  139.0100   75.7150  220.5990 O   0  0  0  0  0  0  0  0  0  0  0  0
  140.1510   75.5350  221.1410 C   0  0  0  0  0  0  0  0  0  0  0  0
  140.9010   76.6460  221.5870 N   0  0  0  0  0  0  0  0  0  0  0  0
  140.4570   78.0210  221.4760 C   0  0  0  0  0  0  0  0  0  0  0  0
  139.8420   78.4970  222.7490 C   0  0  0  0  0  0  0  0  0  0  0  0
  140.7390   79.4400  223.5200 C   0  0  0  0  0  0  0  0  0  0  0  0
  140.7370   80.7860  222.8130 C   0  0  0  0  0  0  0  0  0  0  0  0
  141.9320   81.4660  223.4500 C   0  0  0  0  0  0  0  0  0  0  0  0
  142.9430   80.3520  223.5250 C   0  0  0  0  0  0  0  0  0  0  0  0
  142.1890   79.0530  223.4740 C   0  0  0  0  0  0  0  0  0  0  0  0
  140.5880   74.1510  221.2500 C   0  0  0  0  0  0  0  0  0  0  0  0
  141.3390   73.5970  220.2360 C   0  0  0  0  0  0  0  0  0  0  0  0
  141.7920   72.2940  220.2600 C   0  0  0  0  0  0  0  0  0  0  0  0
  141.4610   71.5390  221.3670 C   0  0  0  0  0  0  0  0  0  0  0  0
  140.7140   72.0260  222.4200 C   0  0  0  0  0  0  0  0  0  0  0  0
  140.3780   71.1860  223.5910 C   0  0  0  0  0  0  0  0  0  0  0  0
  140.7530   71.6300  224.7400 N   0  0  0  0  0  0  0  0  0  0  0  0
  140.5030   70.9370  225.9540 C   0  0  0  0  0  0  0  0  0  0  0  0
  140.9530   71.5130  227.1240 C   0  0  0  0  0  0  0  0  0  0  0  0
  140.7070   70.8330  228.3030 C   0  0  0  0  0  0  0  0  0  0  0  0
  140.0270   69.6090  228.2980 C   0  0  0  0  0  0  0  0  0  0  0  0
  139.5870   69.0560  227.0990 C   0  0  0  0  0  0  0  0  0  0  0  0
  139.8310   69.7340  225.9180 C   0  0  0  0  0  0  0  0  0  0  0  0
  139.4120   69.2390  224.6150 C   0  0  0  0  0  0  0  0  0  0  0  0
  138.7980   68.1390  224.5880 O   0  0  0  0  0  0  0  0  0  0  0  0
  139.6600   69.9420  223.3390 C   0  0  0  0  0  0  0  0  0  0  0  0
  140.2950   73.3390  222.3230 C   0  0  0  0  0  0  0  0  0  0  0  0
  141.8380   76.4250  222.0260 H   0  0  0  0  0  0  0  0  0  0  0  0
  141.3209   78.6581  221.2354 H   0  0  0  0  0  0  0  0  0  0  0  0
  139.6981   78.0775  220.6817 H   0  0  0  0  0  0  0  0  0  0  0  0
  138.9041   79.0204  222.5114 H   0  0  0  0  0  0  0  0  0  0  0  0
  139.6693   77.6143  223.3822 H   0  0  0  0  0  0  0  0  0  0  0  0
  140.3578   79.4357  224.5518 H   0  0  0  0  0  0  0  0  0  0  0  0
  140.8727   80.6696  221.7276 H   0  0  0  0  0  0  0  0  0  0  0  0
  139.7955   81.3451  222.9175 H   0  0  0  0  0  0  0  0  0  0  0  0
  142.2984   82.2932  222.8242 H   0  0  0  0  0  0  0  0  0  0  0  0
  141.7078   81.9197  224.4267 H   0  0  0  0  0  0  0  0  0  0  0  0
  143.6371   80.4169  222.6741 H   0  0  0  0  0  0  0  0  0  0  0  0
  143.5295   80.4231  224.4528 H   0  0  0  0  0  0  0  0  0  0  0  0
  142.4148   78.5117  222.5434 H   0  0  0  0  0  0  0  0  0  0  0  0
  142.4635   78.3844  224.3032 H   0  0  0  0  0  0  0  0  0  0  0  0
  141.5890   74.2230  219.3667 H   0  0  0  0  0  0  0  0  0  0  0  0
  142.3889   71.8765  219.4357 H   0  0  0  0  0  0  0  0  0  0  0  0
  141.8102   70.4969  221.4121 H   0  0  0  0  0  0  0  0  0  0  0  0
  141.4864   72.4750  227.1194 H   0  0  0  0  0  0  0  0  0  0  0  0
  141.0501   71.2594  229.2572 H   0  0  0  0  0  0  0  0  0  0  0  0
  139.8398   69.0824  229.2455 H   0  0  0  0  0  0  0  0  0  0  0  0
  139.0532   68.0942  227.0905 H   0  0  0  0  0  0  0  0  0  0  0  0
  140.2624   69.2999  222.6796 H   0  0  0  0  0  0  0  0  0  0  0  0
  138.6977   70.1696  222.8571 H   0  0  0  0  0  0  0  0  0  0  0  0
  139.6963   73.7575  223.1455 H   0  0  0  0  0  0  0  0  0  0  0  0
  1  2  2  0
  2  3  1  0
  3  4  1  0
  4  5  1  0
  5  6  1  0
  6  7  1  0
  7  8  1  0
  8  9  1  0
  9 10  1  0
  2 11  1  0
 11 12  2  0
 12 13  1  0
 13 14  2  0
 14 15  1  0
 15 16  1  0
 16 17  2  0
 17 18  1  0
 18 19  2  0
 19 20  1  0
 20 21  2  0
 21 22  1  0
 22 23  2  0
 23 24  1  0
 24 25  2  0
 24 26  1  0
 15 27  2  0
 10  6  1  0
 27 11  1  0
 26 16  1  0
 23 18  1  0
  3 28  1  0
  4 29  1  0
  4 30  1  0
  5 31  1  0
  5 32  1  0
  6 33  1  0
  7 34  1  0
  7 35  1  0
  8 36  1  0
  8 37  1  0
  9 38  1  0
  9 39  1  0
 10 40  1  0
 10 41  1  0
 12 42  1  0
 13 43  1  0
 14 44  1  0
 19 45  1  0
 20 46  1  0
 21 47  1  0
 22 48  1  0
 26 49  1  0
 26 50  1  0
 27 51  1  0
M  END
>  <smiles>  (41) 
O=C(NCCC1CCCC1)c1cccc(C2=Nc3ccccc3C(=O)C2)c1

>  <score_type>  (41) 
oracle

>  <origin>  (41) 
autodockgpu

>  <m_score__min__energy>  (41) 
-9.5099999999999998

>  <m_primary>  (41) 
energy

>  <rmsd>  (41) 
4.32996195148704

>  <m_score__min__rmsd>  (41) 
4.32996195148704

>  <meeko>  (41) 
{"free_energy": -9.33, "intermolecular_energy": -10.82, "internal_energy": -0.82, "cluster_size": 50, "cluster_id": 1, "rank_in_cluster": 22}

>  <energy>  (41) 
-8.98

>  <cluster_rmsd>  (41) 
1.48

>  <cluster>  (41) 
1

$$$$

     RDKit          3D

 51 54  0  0  0  0  0  0  0  0999 V2000
  141.6310   74.9170  220.8620 O   0  0  0  0  0  0  0  0  0  0  0  0
  140.5180   74.9850  221.4800 C   0  0  0  0  0  0  0  0  0  0  0  0
  140.0580   76.2290  221.9670 N   0  0  0  0  0  0  0  0  0  0  0  0
  140.7780   77.4770  221.8110 C   0  0  0  0  0  0  0  0  0  0  0  0
  140.1700   78.5620  222.6350 C   0  0  0  0  0  0  0  0  0  0  0  0
  141.1770   79.2710  223.5120 C   0  0  0  0  0  0  0  0  0  0  0  0
  140.8830   80.7610  223.4690 C   0  0  0  0  0  0  0  0  0  0  0  0
  142.1570   81.3410  224.0490 C   0  0  0  0  0  0  0  0  0  0  0  0
  143.2250   80.4910  223.4100 C   0  0  0  0  0  0  0  0  0  0  0  0
  142.5810   79.2030  222.9800 C   0  0  0  0  0  0  0  0  0  0  0  0
  139.8000   73.7280  221.6300 C   0  0  0  0  0  0  0  0  0  0  0  0
  138.8670   73.3640  220.6820 C   0  0  0  0  0  0  0  0  0  0  0  0
  138.1440   72.1910  220.7490 C   0  0  0  0  0  0  0  0  0  0  0  0
  138.3910   71.3670  221.8280 C   0  0  0  0  0  0  0  0  0  0  0  0
  139.3090   71.6650  222.8150 C   0  0  0  0  0  0  0  0  0  0  0  0
  139.5470   70.7570  223.9580 C   0  0  0  0  0  0  0  0  0  0  0  0
  140.0860   71.2810  225.0030 N   0  0  0  0  0  0  0  0  0  0  0  0
  140.3750   70.5370  226.1780 C   0  0  0  0  0  0  0  0  0  0  0  0
  140.9530   71.2110  227.2350 C   0  0  0  0  0  0  0  0  0  0  0  0
  141.2330   70.4810  228.3760 C   0  0  0  0  0  0  0  0  0  0  0  0
  140.9370   69.1140  228.4460 C   0  0  0  0  0  0  0  0  0  0  0  0
  140.3540   68.4670  227.3600 C   0  0  0  0  0  0  0  0  0  0  0  0
  140.0720   69.1930  226.2180 C   0  0  0  0  0  0  0  0  0  0  0  0
  139.4640   68.6090  225.0320 C   0  0  0  0  0  0  0  0  0  0  0  0
  139.1890   67.3800  225.0730 O   0  0  0  0  0  0  0  0  0  0  0  0
  139.1530   69.3620  223.7990 C   0  0  0  0  0  0  0  0  0  0  0  0
  139.9930   72.8570  222.6790 C   0  0  0  0  0  0  0  0  0  0  0  0
  139.1270   76.2140  222.4700 H   0  0  0  0  0  0  0  0  0  0  0  0
  141.8216   77.3301  222.1262 H   0  0  0  0  0  0  0  0  0  0  0  0
  140.7284   77.7758  220.7535 H   0  0  0  0  0  0  0  0  0  0  0  0
  139.7116   79.2999  221.9602 H   0  0  0  0  0  0  0  0  0  0  0  0
  139.4266   78.0951  223.2979 H   0  0  0  0  0  0  0  0  0  0  0  0
  141.1005   78.7923  224.4994 H   0  0  0  0  0  0  0  0  0  0  0  0
  140.7173   81.1077  222.4383 H   0  0  0  0  0  0  0  0  0  0  0  0
  139.9716   81.0527  224.0114 H   0  0  0  0  0  0  0  0  0  0  0  0
  142.2734   82.3993  223.7726 H   0  0  0  0  0  0  0  0  0  0  0  0
  142.1844   81.3251  225.1485 H   0  0  0  0  0  0  0  0  0  0  0  0
  143.6456   81.0105  222.5364 H   0  0  0  0  0  0  0  0  0  0  0  0
  144.0421   80.2970  224.1205 H   0  0  0  0  0  0  0  0  0  0  0  0
  142.5749   79.1216  221.8830 H   0  0  0  0  0  0  0  0  0  0  0  0
  143.1234   78.3242  223.3589 H   0  0  0  0  0  0  0  0  0  0  0  0
  138.6911   74.0406  219.8327 H   0  0  0  0  0  0  0  0  0  0  0  0
  137.4053   71.9250  219.9785 H   0  0  0  0  0  0  0  0  0  0  0  0
  137.8280   70.4252  221.9056 H   0  0  0  0  0  0  0  0  0  0  0  0
  141.1817   72.2851  227.1724 H   0  0  0  0  0  0  0  0  0  0  0  0
  141.6945   70.9811  229.2403 H   0  0  0  0  0  0  0  0  0  0  0  0
  141.1659   68.5497  229.3621 H   0  0  0  0  0  0  0  0  0  0  0  0
  140.1210   67.3931  227.4099 H   0  0  0  0  0  0  0  0  0  0  0  0
  139.7026   68.9216  222.9540 H   0  0  0  0  0  0  0  0  0  0  0  0
  138.0713   69.3104  223.6057 H   0  0  0  0  0  0  0  0  0  0  0  0
  140.7310   73.1249  223.4494 H   0  0  0  0  0  0  0  0  0  0  0  0
  1  2  2  0
  2  3  1  0
  3  4  1  0
  4  5  1  0
  5  6  1  0
  6  7  1  0
  7  8  1  0
  8  9  1  0
  9 10  1  0
  2 11  1  0
 11 12  2  0
 12 13  1  0
 13 14  2  0
 14 15  1  0
 15 16  1  0
 16 17  2  0
 17 18  1  0
 18 19  2  0
 19 20  1  0
 20 21  2  0
 21 22  1  0
 22 23  2  0
 23 24  1  0
 24 25  2  0
 24 26  1  0
 15 27  2  0
 10  6  1  0
 27 11  1  0
 26 16  1  0
 23 18  1  0
  3 28  1  0
  4 29  1  0
  4 30  1  0
  5 31  1  0
  5 32  1  0
  6 33  1  0
  7 34  1  0
  7 35  1  0
  8 36  1  0
  8 37  1  0
  9 38  1  0
  9 39  1  0
 10 40  1  0
 10 41  1  0
 12 42  1  0
 13 43  1  0
 14 44  1  0
 19 45  1  0
 20 46  1  0
 21 47  1  0
 22 48  1  0
 26 49  1  0
 26 50  1  0
 27 51  1  0
M  END
>  <smiles>  (42) 
O=C(NCCC1CCCC1)c1cccc(C2=Nc3ccccc3C(=O)C2)c1

>  <score_type>  (42) 
oracle

>  <origin>  (42) 
autodockgpu

>  <m_score__min__energy>  (42) 
-9.5099999999999998

>  <m_primary>  (42) 
energy

>  <rmsd>  (42) 
4.755255304366496

>  <m_score__min__rmsd>  (42) 
4.755255304366496

>  <meeko>  (42) 
{"free_energy": -9.2, "intermolecular_energy": -10.69, "internal_energy": -0.73, "cluster_size": 50, "cluster_id": 1, "rank_in_cluster": 31}

>  <energy>  (42) 
-8.96

>  <cluster_rmsd>  (42) 
0.89

>  <cluster>  (42) 
1

$$$$

     RDKit          3D

 51 54  0  0  0  0  0  0  0  0999 V2000
  141.0130   75.2040  220.3190 O   0  0  0  0  0  0  0  0  0  0  0  0
  140.3580   74.9800  221.3890 C   0  0  0  0  0  0  0  0  0  0  0  0
  140.2470   75.9900  222.3710 N   0  0  0  0  0  0  0  0  0  0  0  0
  140.8380   77.3080  222.2480 C   0  0  0  0  0  0  0  0  0  0  0  0
  139.8760   78.3740  222.6530 C   0  0  0  0  0  0  0  0  0  0  0  0
  140.5390   79.5210  223.3800 C   0  0  0  0  0  0  0  0  0  0  0  0
  140.8250   80.6250  222.3750 C   0  0  0  0  0  0  0  0  0  0  0  0
  141.8000   81.4940  223.1440 C   0  0  0  0  0  0  0  0  0  0  0  0
  142.6800   80.4770  223.8240 C   0  0  0  0  0  0  0  0  0  0  0  0
  141.9120   79.1870  223.8920 C   0  0  0  0  0  0  0  0  0  0  0  0
  139.7660   73.6550  221.5040 C   0  0  0  0  0  0  0  0  0  0  0  0
  138.9820   73.1750  220.4770 C   0  0  0  0  0  0  0  0  0  0  0  0
  138.3840   71.9320  220.5050 C   0  0  0  0  0  0  0  0  0  0  0  0
  138.6040   71.1590  221.6280 C   0  0  0  0  0  0  0  0  0  0  0  0
  139.3770   71.5730  222.6930 C   0  0  0  0  0  0  0  0  0  0  0  0
  139.5900   70.7180  223.8810 C   0  0  0  0  0  0  0  0  0  0  0  0
  140.1060   71.2890  224.9130 N   0  0  0  0  0  0  0  0  0  0  0  0
  140.3700   70.5990  226.1260 C   0  0  0  0  0  0  0  0  0  0  0  0
  140.9260   71.3190  227.1630 C   0  0  0  0  0  0  0  0  0  0  0  0
  141.1810   70.6420  228.3420 C   0  0  0  0  0  0  0  0  0  0  0  0
  140.8830   69.2800  228.4670 C   0  0  0  0  0  0  0  0  0  0  0  0
  140.3220   68.5840  227.3990 C   0  0  0  0  0  0  0  0  0  0  0  0
  140.0660   69.2580  226.2190 C   0  0  0  0  0  0  0  0  0  0  0  0
  139.4830   68.6200  225.0480 C   0  0  0  0  0  0  0  0  0  0  0  0
  139.2060   67.3940  225.1390 O   0  0  0  0  0  0  0  0  0  0  0  0
  139.1990   69.3170  223.7760 C   0  0  0  0  0  0  0  0  0  0  0  0
  139.9410   72.8300  222.5920 C   0  0  0  0  0  0  0  0  0  0  0  0
  139.6900   75.7380  223.2340 H   0  0  0  0  0  0  0  0  0  0  0  0
  141.7269   77.3636  222.8935 H   0  0  0  0  0  0  0  0  0  0  0  0
  141.1109   77.4689  221.1946 H   0  0  0  0  0  0  0  0  0  0  0  0
  139.3873   78.7672  221.7493 H   0  0  0  0  0  0  0  0  0  0  0  0
  139.1525   77.9191  223.3455 H   0  0  0  0  0  0  0  0  0  0  0  0
  139.8581   79.7829  224.2033 H   0  0  0  0  0  0  0  0  0  0  0  0
  141.2817   80.2243  221.4580 H   0  0  0  0  0  0  0  0  0  0  0  0
  139.9272   81.1585  222.0295 H   0  0  0  0  0  0  0  0  0  0  0  0
  142.3833   82.1333  222.4649 H   0  0  0  0  0  0  0  0  0  0  0  0
  141.3106   82.1873  223.8439 H   0  0  0  0  0  0  0  0  0  0  0  0
  143.6043   80.3335  223.2452 H   0  0  0  0  0  0  0  0  0  0  0  0
  142.9557   80.8169  224.8332 H   0  0  0  0  0  0  0  0  0  0  0  0
  142.3849   78.4222  223.2584 H   0  0  0  0  0  0  0  0  0  0  0  0
  141.8829   78.7781  224.9128 H   0  0  0  0  0  0  0  0  0  0  0  0
  138.8259   73.8125  219.5942 H   0  0  0  0  0  0  0  0  0  0  0  0
  137.7613   71.5736  219.6721 H   0  0  0  0  0  0  0  0  0  0  0  0
  138.1395   70.1630  221.6757 H   0  0  0  0  0  0  0  0  0  0  0  0
  141.1574   72.3891  227.0566 H   0  0  0  0  0  0  0  0  0  0  0  0
  141.6238   71.1810  229.1925 H   0  0  0  0  0  0  0  0  0  0  0  0
  141.0926   68.7576  229.4121 H   0  0  0  0  0  0  0  0  0  0  0  0
  140.0860   67.5137  227.4928 H   0  0  0  0  0  0  0  0  0  0  0  0
  139.7666   68.8396  222.9636 H   0  0  0  0  0  0  0  0  0  0  0  0
  138.1218   69.2562  223.5618 H   0  0  0  0  0  0  0  0  0  0  0  0
  140.5626   73.1907  223.4248 H   0  0  0  0  0  0  0  0  0  0  0  0
  1  2  2  0
  2  3  1  0
  3  4  1  0
  4  5  1  0
  5  6  1  0
  6  7  1  0
  7  8  1  0
  8  9  1  0
  9 10  1  0
  2 11  1  0
 11 12  2  0
 12 13  1  0
 13 14  2  0
 14 15  1  0
 15 16  1  0
 16 17  2  0
 17 18  1  0
 18 19  2  0
 19 20  1  0
 20 21  2  0
 21 22  1  0
 22 23  2  0
 23 24  1  0
 24 25  2  0
 24 26  1  0
 15 27  2  0
 10  6  1  0
 27 11  1  0
 26 16  1  0
 23 18  1  0
  3 28  1  0
  4 29  1  0
  4 30  1  0
  5 31  1  0
  5 32  1  0
  6 33  1  0
  7 34  1  0
  7 35  1  0
  8 36  1  0
  8 37  1  0
  9 38  1  0
  9 39  1  0
 10 40  1  0
 10 41  1  0
 12 42  1  0
 13 43  1  0
 14 44  1  0
 19 45  1  0
 20 46  1  0
 21 47  1  0
 22 48  1  0
 26 49  1  0
 26 50  1  0
 27 51  1  0
M  END
>  <smiles>  (43) 
O=C(NCCC1CCCC1)c1cccc(C2=Nc3ccccc3C(=O)C2)c1

>  <score_type>  (43) 
oracle

>  <origin>  (43) 
autodockgpu

>  <m_score__min__energy>  (43) 
-9.5099999999999998

>  <m_primary>  (43) 
energy

>  <rmsd>  (43) 
4.626318484358249

>  <m_score__min__rmsd>  (43) 
4.626318484358249

>  <meeko>  (43) 
{"free_energy": -9.17, "intermolecular_energy": -10.66, "internal_energy": -0.74, "cluster_size": 50, "cluster_id": 1, "rank_in_cluster": 35}

>  <energy>  (43) 
-8.92

>  <cluster_rmsd>  (43) 
1.33

>  <cluster>  (43) 
1

$$$$

     RDKit          3D

 51 54  0  0  0  0  0  0  0  0999 V2000
  141.1580   75.2570  221.9740 O   0  0  0  0  0  0  0  0  0  0  0  0
  139.9860   75.0450  221.5200 C   0  0  0  0  0  0  0  0  0  0  0  0
  139.2260   76.1180  221.0030 N   0  0  0  0  0  0  0  0  0  0  0  0
  139.6960   77.4890  220.9440 C   0  0  0  0  0  0  0  0  0  0  0  0
  139.7430   78.1050  222.3020 C   0  0  0  0  0  0  0  0  0  0  0  0
  141.1270   78.5760  222.6880 C   0  0  0  0  0  0  0  0  0  0  0  0
  140.9960   79.5500  223.8460 C   0  0  0  0  0  0  0  0  0  0  0  0
  142.3630   80.2020  223.8540 C   0  0  0  0  0  0  0  0  0  0  0  0
  142.6450   80.3920  222.3870 C   0  0  0  0  0  0  0  0  0  0  0  0
  141.7850   79.4170  221.6310 C   0  0  0  0  0  0  0  0  0  0  0  0
  139.5240   73.6660  221.5820 C   0  0  0  0  0  0  0  0  0  0  0  0
  138.8390   73.1340  220.5090 C   0  0  0  0  0  0  0  0  0  0  0  0
  138.3670   71.8380  220.4860 C   0  0  0  0  0  0  0  0  0  0  0  0
  138.6090   71.0660  221.6040 C   0  0  0  0  0  0  0  0  0  0  0  0
  139.2870   71.5300  222.7130 C   0  0  0  0  0  0  0  0  0  0  0  0
  139.5270   70.6730  223.8940 C   0  0  0  0  0  0  0  0  0  0  0  0
  140.0350   71.2500  224.9270 N   0  0  0  0  0  0  0  0  0  0  0  0
  140.3220   70.5600  226.1350 C   0  0  0  0  0  0  0  0  0  0  0  0
  140.8660   71.2870  227.1730 C   0  0  0  0  0  0  0  0  0  0  0  0
  141.1440   70.6090  228.3470 C   0  0  0  0  0  0  0  0  0  0  0  0
  140.8800   69.2390  228.4640 C   0  0  0  0  0  0  0  0  0  0  0  0
  140.3320   68.5360  227.3950 C   0  0  0  0  0  0  0  0  0  0  0  0
  140.0520   69.2110  226.2210 C   0  0  0  0  0  0  0  0  0  0  0  0
  139.4790   68.5660  225.0490 C   0  0  0  0  0  0  0  0  0  0  0  0
  139.2340   67.3330  225.1340 O   0  0  0  0  0  0  0  0  0  0  0  0
  139.1710   69.2630  223.7830 C   0  0  0  0  0  0  0  0  0  0  0  0
  139.7280   72.8380  222.6620 C   0  0  0  0  0  0  0  0  0  0  0  0
  138.2620   75.8730  220.6440 H   0  0  0  0  0  0  0  0  0  0  0  0
  140.7063   77.5030  220.5090 H   0  0  0  0  0  0  0  0  0  0  0  0
  138.9970   78.0692  220.3236 H   0  0  0  0  0  0  0  0  0  0  0  0
  139.0612   78.9680  222.3195 H   0  0  0  0  0  0  0  0  0  0  0  0
  139.4443   77.3319  223.0252 H   0  0  0  0  0  0  0  0  0  0  0  0
  141.7058   77.6626  222.8896 H   0  0  0  0  0  0  0  0  0  0  0  0
  140.2009   80.2875  223.6618 H   0  0  0  0  0  0  0  0  0  0  0  0
  140.7216   79.0758  224.7998 H   0  0  0  0  0  0  0  0  0  0  0  0
  142.3397   81.1667  224.3821 H   0  0  0  0  0  0  0  0  0  0  0  0
  143.1286   79.6067  224.3731 H   0  0  0  0  0  0  0  0  0  0  0  0
  142.3982   81.4212  222.0874 H   0  0  0  0  0  0  0  0  0  0  0  0
  143.7095   80.2175  222.1715 H   0  0  0  0  0  0  0  0  0  0  0  0
  141.0292   79.9497  221.0351 H   0  0  0  0  0  0  0  0  0  0  0  0
  142.3717   78.8094  220.9262 H   0  0  0  0  0  0  0  0  0  0  0  0
  138.6610   73.7728  219.6314 H   0  0  0  0  0  0  0  0  0  0  0  0
  137.8232   71.4386  219.6172 H   0  0  0  0  0  0  0  0  0  0  0  0
  138.2431   70.0287  221.6117 H   0  0  0  0  0  0  0  0  0  0  0  0
  141.0708   72.3630  227.0718 H   0  0  0  0  0  0  0  0  0  0  0  0
  141.5778   71.1532  229.1988 H   0  0  0  0  0  0  0  0  0  0  0  0
  141.1067   68.7160  229.4048 H   0  0  0  0  0  0  0  0  0  0  0  0
  140.1247   67.4593  227.4827 H   0  0  0  0  0  0  0  0  0  0  0  0
  139.7462   68.8048  222.9650 H   0  0  0  0  0  0  0  0  0  0  0  0
  138.0945   69.1764  223.5742 H   0  0  0  0  0  0  0  0  0  0  0  0
  140.2709   73.2389  223.5306 H   0  0  0  0  0  0  0  0  0  0  0  0
  1  2  2  0
  2  3  1  0
  3  4  1  0
  4  5  1  0
  5  6  1  0
  6  7  1  0
  7  8  1  0
  8  9  1  0
  9 10  1  0
  2 11  1  0
 11 12  2  0
 12 13  1  0
 13 14  2  0
 14 15  1  0
 15 16  1  0
 16 17  2  0
 17 18  1  0
 18 19  2  0
 19 20  1  0
 20 21  2  0
 21 22  1  0
 22 23  2  0
 23 24  1  0
 24 25  2  0
 24 26  1  0
 15 27  2  0
 10  6  1  0
 27 11  1  0
 26 16  1  0
 23 18  1  0
  3 28  1  0
  4 29  1  0
  4 30  1  0
  5 31  1  0
  5 32  1  0
  6 33  1  0
  7 34  1  0
  7 35  1  0
  8 36  1  0
  8 37  1  0
  9 38  1  0
  9 39  1  0
 10 40  1  0
 10 41  1  0
 12 42  1  0
 13 43  1  0
 14 44  1  0
 19 45  1  0
 20 46  1  0
 21 47  1  0
 22 48  1  0
 26 49  1  0
 26 50  1  0
 27 51  1  0
M  END
>  <smiles>  (44) 
O=C(NCCC1CCCC1)c1cccc(C2=Nc3ccccc3C(=O)C2)c1

>  <score_type>  (44) 
oracle

>  <origin>  (44) 
autodockgpu

>  <m_score__min__energy>  (44) 
-9.5099999999999998

>  <m_primary>  (44) 
energy

>  <rmsd>  (44) 
4.793070465683085

>  <m_score__min__rmsd>  (44) 
4.793070465683085

>  <meeko>  (44) 
{"free_energy": -8.98, "intermolecular_energy": -10.47, "internal_energy": -0.87, "cluster_size": 50, "cluster_id": 1, "rank_in_cluster": 41}

>  <energy>  (44) 
-8.87

>  <cluster_rmsd>  (44) 
1.39

>  <cluster>  (44) 
1

$$$$

     RDKit          3D

 51 54  0  0  0  0  0  0  0  0999 V2000
  141.4140   75.1630  220.4730 O   0  0  0  0  0  0  0  0  0  0  0  0
  140.5490   74.9520  221.3850 C   0  0  0  0  0  0  0  0  0  0  0  0
  140.1710   76.0000  222.2530 N   0  0  0  0  0  0  0  0  0  0  0  0
  140.7070   77.3450  222.1810 C   0  0  0  0  0  0  0  0  0  0  0  0
  139.7640   78.3380  222.7740 C   0  0  0  0  0  0  0  0  0  0  0  0
  140.4710   79.4880  223.4550 C   0  0  0  0  0  0  0  0  0  0  0  0
  140.7580   80.5570  222.4140 C   0  0  0  0  0  0  0  0  0  0  0  0
  141.7700   81.4230  223.1360 C   0  0  0  0  0  0  0  0  0  0  0  0
  142.6420   80.4050  223.8230 C   0  0  0  0  0  0  0  0  0  0  0  0
  141.8470   79.1350  223.9440 C   0  0  0  0  0  0  0  0  0  0  0  0
  140.0140   73.5990  221.4490 C   0  0  0  0  0  0  0  0  0  0  0  0
  139.3690   73.0750  220.3500 C   0  0  0  0  0  0  0  0  0  0  0  0
  138.8340   71.8040  220.3270 C   0  0  0  0  0  0  0  0  0  0  0  0
  138.9690   71.0490  221.4740 C   0  0  0  0  0  0  0  0  0  0  0  0
  139.6030   71.5060  222.6110 C   0  0  0  0  0  0  0  0  0  0  0  0
  139.7290   70.6680  223.8240 C   0  0  0  0  0  0  0  0  0  0  0  0
  140.2280   71.2390  224.8650 N   0  0  0  0  0  0  0  0  0  0  0  0
  140.4110   70.5650  226.1010 C   0  0  0  0  0  0  0  0  0  0  0  0
  140.9560   71.2820  227.1460 C   0  0  0  0  0  0  0  0  0  0  0  0
  141.1320   70.6200  228.3480 C   0  0  0  0  0  0  0  0  0  0  0  0
  140.7690   69.2750  228.4870 C   0  0  0  0  0  0  0  0  0  0  0  0
  140.2220   68.5810  227.4110 C   0  0  0  0  0  0  0  0  0  0  0  0
  140.0440   69.2400  226.2090 C   0  0  0  0  0  0  0  0  0  0  0  0
  139.4820   68.6030  225.0270 C   0  0  0  0  0  0  0  0  0  0  0  0
  139.1470   67.3930  225.1310 O   0  0  0  0  0  0  0  0  0  0  0  0
  139.2810   69.2840  223.7310 C   0  0  0  0  0  0  0  0  0  0  0  0
  140.1120   72.7890  222.5580 C   0  0  0  0  0  0  0  0  0  0  0  0
  139.4490   75.7560  222.9870 H   0  0  0  0  0  0  0  0  0  0  0  0
  141.6584   77.3813  222.7319 H   0  0  0  0  0  0  0  0  0  0  0  0
  140.8597   77.6012  221.1222 H   0  0  0  0  0  0  0  0  0  0  0  0
  139.1295   78.7421  221.9714 H   0  0  0  0  0  0  0  0  0  0  0  0
  139.1725   77.8146  223.5397 H   0  0  0  0  0  0  0  0  0  0  0  0
  139.8167   79.7879  224.2868 H   0  0  0  0  0  0  0  0  0  0  0  0
  141.1837   80.1211  221.4982 H   0  0  0  0  0  0  0  0  0  0  0  0
  139.8647   81.1018  222.0746 H   0  0  0  0  0  0  0  0  0  0  0  0
  142.3515   82.0299  222.4264 H   0  0  0  0  0  0  0  0  0  0  0  0
  141.3131   82.1461  223.8277 H   0  0  0  0  0  0  0  0  0  0  0  0
  143.5490   80.2247  223.2274 H   0  0  0  0  0  0  0  0  0  0  0  0
  142.9487   80.7655  224.8160 H   0  0  0  0  0  0  0  0  0  0  0  0
  142.2872   78.3427  223.3206 H   0  0  0  0  0  0  0  0  0  0  0  0
  141.8331   78.7536  224.9757 H   0  0  0  0  0  0  0  0  0  0  0  0
  139.2765   73.6994  219.4491 H   0  0  0  0  0  0  0  0  0  0  0  0
  138.3234   71.4105  219.4357 H   0  0  0  0  0  0  0  0  0  0  0  0
  138.5502   70.0319  221.4823 H   0  0  0  0  0  0  0  0  0  0  0  0
  141.2394   72.3383  227.0282 H   0  0  0  0  0  0  0  0  0  0  0  0
  141.5628   71.1574  229.2057 H   0  0  0  0  0  0  0  0  0  0  0  0
  140.9165   68.7645  229.4501 H   0  0  0  0  0  0  0  0  0  0  0  0
  139.9358   67.5241  227.5159 H   0  0  0  0  0  0  0  0  0  0  0  0
  139.8592   68.7648  222.9525 H   0  0  0  0  0  0  0  0  0  0  0  0
  138.2116   69.2656  223.4738 H   0  0  0  0  0  0  0  0  0  0  0  0
  140.6224   73.1843  223.4486 H   0  0  0  0  0  0  0  0  0  0  0  0
  1  2  2  0
  2  3  1  0
  3  4  1  0
  4  5  1  0
  5  6  1  0
  6  7  1  0
  7  8  1  0
  8  9  1  0
  9 10  1  0
  2 11  1  0
 11 12  2  0
 12 13  1  0
 13 14  2  0
 14 15  1  0
 15 16  1  0
 16 17  2  0
 17 18  1  0
 18 19  2  0
 19 20  1  0
 20 21  2  0
 21 22  1  0
 22 23  2  0
 23 24  1  0
 24 25  2  0
 24 26  1  0
 15 27  2  0
 10  6  1  0
 27 11  1  0
 26 16  1  0
 23 18  1  0
  3 28  1  0
  4 29  1  0
  4 30  1  0
  5 31  1  0
  5 32  1  0
  6 33  1  0
  7 34  1  0
  7 35  1  0
  8 36  1  0
  8 37  1  0
  9 38  1  0
  9 39  1  0
 10 40  1  0
 10 41  1  0
 12 42  1  0
 13 43  1  0
 14 44  1  0
 19 45  1  0
 20 46  1  0
 21 47  1  0
 22 48  1  0
 26 49  1  0
 26 50  1  0
 27 51  1  0
M  END
>  <smiles>  (45) 
O=C(NCCC1CCCC1)c1cccc(C2=Nc3ccccc3C(=O)C2)c1

>  <score_type>  (45) 
oracle

>  <origin>  (45) 
autodockgpu

>  <m_score__min__energy>  (45) 
-9.5099999999999998

>  <m_primary>  (45) 
energy

>  <rmsd>  (45) 
4.631661678458443

>  <m_score__min__rmsd>  (45) 
4.631661678458443

>  <meeko>  (45) 
{"free_energy": -9.17, "intermolecular_energy": -10.66, "internal_energy": -0.74, "cluster_size": 50, "cluster_id": 1, "rank_in_cluster": 36}

>  <energy>  (45) 
-8.86

>  <cluster_rmsd>  (45) 
1.22

>  <cluster>  (45) 
1

$$$$

     RDKit          3D

 51 54  0  0  0  0  0  0  0  0999 V2000
  139.2380   75.9330  220.3280 O   0  0  0  0  0  0  0  0  0  0  0  0
  140.1990   75.4610  221.0220 C   0  0  0  0  0  0  0  0  0  0  0  0
  141.0900   76.3390  221.6790 N   0  0  0  0  0  0  0  0  0  0  0  0
  140.9890   77.7850  221.6270 C   0  0  0  0  0  0  0  0  0  0  0  0
  140.1250   78.3080  222.7250 C   0  0  0  0  0  0  0  0  0  0  0  0
  140.6730   79.5690  223.3550 C   0  0  0  0  0  0  0  0  0  0  0  0
  140.9380   80.5790  222.2510 C   0  0  0  0  0  0  0  0  0  0  0  0
  141.8120   81.5900  222.9660 C   0  0  0  0  0  0  0  0  0  0  0  0
  142.7190   80.7150  223.7900 C   0  0  0  0  0  0  0  0  0  0  0  0
  142.0350   79.3880  223.9620 C   0  0  0  0  0  0  0  0  0  0  0  0
  140.2910   74.0100  221.0700 C   0  0  0  0  0  0  0  0  0  0  0  0
  140.5250   73.3080  219.9060 C   0  0  0  0  0  0  0  0  0  0  0  0
  140.6260   71.9330  219.8650 C   0  0  0  0  0  0  0  0  0  0  0  0
  140.4820   71.2600  221.0610 C   0  0  0  0  0  0  0  0  0  0  0  0
  140.2470   71.8950  222.2640 C   0  0  0  0  0  0  0  0  0  0  0  0
  140.0970   71.1400  223.5270 C   0  0  0  0  0  0  0  0  0  0  0  0
  140.5760   71.6950  224.5860 N   0  0  0  0  0  0  0  0  0  0  0  0
  140.5080   71.0930  225.8710 C   0  0  0  0  0  0  0  0  0  0  0  0
  141.0570   71.7860  226.9300 C   0  0  0  0  0  0  0  0  0  0  0  0
  140.9880   71.1950  228.1790 C   0  0  0  0  0  0  0  0  0  0  0  0
  140.3840   69.9430  228.3490 C   0  0  0  0  0  0  0  0  0  0  0  0
  139.8410   69.2720  227.2570 C   0  0  0  0  0  0  0  0  0  0  0  0
  139.9080   69.8600  226.0070 C   0  0  0  0  0  0  0  0  0  0  0  0
  139.3700   69.2400  224.8060 C   0  0  0  0  0  0  0  0  0  0  0  0
  138.8210   68.1130  224.9370 O   0  0  0  0  0  0  0  0  0  0  0  0
  139.4280   69.8460  223.4590 C   0  0  0  0  0  0  0  0  0  0  0  0
  140.1580   73.2730  222.2250 C   0  0  0  0  0  0  0  0  0  0  0  0
  141.8640   75.8820  222.2360 H   0  0  0  0  0  0  0  0  0  0  0  0
  141.9953   78.2182  221.7256 H   0  0  0  0  0  0  0  0  0  0  0  0
  140.5364   78.0670  220.6649 H   0  0  0  0  0  0  0  0  0  0  0  0
  139.1282   78.5256  222.3139 H   0  0  0  0  0  0  0  0  0  0  0  0
  140.0851   77.5376  223.5092 H   0  0  0  0  0  0  0  0  0  0  0  0
  139.9346   79.8665  224.1141 H   0  0  0  0  0  0  0  0  0  0  0  0
  141.4677   80.1183  221.4042 H   0  0  0  0  0  0  0  0  0  0  0  0
  140.0267   81.0084  221.8093 H   0  0  0  0  0  0  0  0  0  0  0  0
  142.3871   82.1949  222.2495 H   0  0  0  0  0  0  0  0  0  0  0  0
  141.2418   82.3157  223.5645 H   0  0  0  0  0  0  0  0  0  0  0  0
  143.6798   80.5777  223.2723 H   0  0  0  0  0  0  0  0  0  0  0  0
  142.9183   81.1771  224.7681 H   0  0  0  0  0  0  0  0  0  0  0  0
  142.5898   78.5965  223.4370 H   0  0  0  0  0  0  0  0  0  0  0  0
  141.9790   79.0868  225.0185 H   0  0  0  0  0  0  0  0  0  0  0  0
  140.6362   73.8705  218.9673 H   0  0  0  0  0  0  0  0  0  0  0  0
  140.8127   71.3976  218.9224 H   0  0  0  0  0  0  0  0  0  0  0  0
  140.5583   70.1627  221.0555 H   0  0  0  0  0  0  0  0  0  0  0  0
  141.5304   72.7686  226.7871 H   0  0  0  0  0  0  0  0  0  0  0  0
  141.4131   71.7153  229.0499 H   0  0  0  0  0  0  0  0  0  0  0  0
  140.3385   69.4880  229.3495 H   0  0  0  0  0  0  0  0  0  0  0  0
  139.3656   68.2885  227.3864 H   0  0  0  0  0  0  0  0  0  0  0  0
  139.9865   69.1814  222.7835 H   0  0  0  0  0  0  0  0  0  0  0  0
  138.4050   69.9859  223.0797 H   0  0  0  0  0  0  0  0  0  0  0  0
  139.9710   73.8098  223.1668 H   0  0  0  0  0  0  0  0  0  0  0  0
  1  2  2  0
  2  3  1  0
  3  4  1  0
  4  5  1  0
  5  6  1  0
  6  7  1  0
  7  8  1  0
  8  9  1  0
  9 10  1  0
  2 11  1  0
 11 12  2  0
 12 13  1  0
 13 14  2  0
 14 15  1  0
 15 16  1  0
 16 17  2  0
 17 18  1  0
 18 19  2  0
 19 20  1  0
 20 21  2  0
 21 22  1  0
 22 23  2  0
 23 24  1  0
 24 25  2  0
 24 26  1  0
 15 27  2  0
 10  6  1  0
 27 11  1  0
 26 16  1  0
 23 18  1  0
  3 28  1  0
  4 29  1  0
  4 30  1  0
  5 31  1  0
  5 32  1  0
  6 33  1  0
  7 34  1  0
  7 35  1  0
  8 36  1  0
  8 37  1  0
  9 38  1  0
  9 39  1  0
 10 40  1  0
 10 41  1  0
 12 42  1  0
 13 43  1  0
 14 44  1  0
 19 45  1  0
 20 46  1  0
 21 47  1  0
 22 48  1  0
 26 49  1  0
 26 50  1  0
 27 51  1  0
M  END
>  <smiles>  (46) 
O=C(NCCC1CCCC1)c1cccc(C2=Nc3ccccc3C(=O)C2)c1

>  <score_type>  (46) 
oracle

>  <origin>  (46) 
autodockgpu

>  <m_score__min__energy>  (46) 
-9.5099999999999998

>  <m_primary>  (46) 
energy

>  <rmsd>  (46) 
4.260148174367037

>  <m_score__min__rmsd>  (46) 
4.260148174367037

>  <meeko>  (46) 
{"free_energy": -9.34, "intermolecular_energy": -10.83, "internal_energy": -0.79, "cluster_size": 50, "cluster_id": 1, "rank_in_cluster": 20}

>  <energy>  (46) 
-8.7

>  <cluster_rmsd>  (46) 
1.45

>  <cluster>  (46) 
1

$$$$

     RDKit          3D

 51 54  0  0  0  0  0  0  0  0999 V2000
  138.9170   75.8640  220.8430 O   0  0  0  0  0  0  0  0  0  0  0  0
  140.1090   75.5690  221.1870 C   0  0  0  0  0  0  0  0  0  0  0  0
  141.0300   76.5980  221.4880 N   0  0  0  0  0  0  0  0  0  0  0  0
  140.7110   78.0110  221.4370 C   0  0  0  0  0  0  0  0  0  0  0  0
  140.1670   78.4920  222.7400 C   0  0  0  0  0  0  0  0  0  0  0  0
  141.1730   79.2870  223.5410 C   0  0  0  0  0  0  0  0  0  0  0  0
  140.8680   80.7650  223.3600 C   0  0  0  0  0  0  0  0  0  0  0  0
  142.1400   81.4050  223.8770 C   0  0  0  0  0  0  0  0  0  0  0  0
  143.2110   80.5060  223.3160 C   0  0  0  0  0  0  0  0  0  0  0  0
  142.5750   79.1790  223.0120 C   0  0  0  0  0  0  0  0  0  0  0  0
  140.4200   74.1480  221.2380 C   0  0  0  0  0  0  0  0  0  0  0  0
  140.9600   73.5340  220.1270 C   0  0  0  0  0  0  0  0  0  0  0  0
  141.2820   72.1940  220.0910 C   0  0  0  0  0  0  0  0  0  0  0  0
  141.0420   71.4630  221.2370 C   0  0  0  0  0  0  0  0  0  0  0  0
  140.5050   72.0090  222.3850 C   0  0  0  0  0  0  0  0  0  0  0  0
  140.2600   71.1940  223.5950 C   0  0  0  0  0  0  0  0  0  0  0  0
  140.6820   71.6820  224.7090 N   0  0  0  0  0  0  0  0  0  0  0  0
  140.5210   71.0170  225.9540 C   0  0  0  0  0  0  0  0  0  0  0  0
  141.0160   71.6400  227.0810 C   0  0  0  0  0  0  0  0  0  0  0  0
  140.8560   70.9880  228.2900 C   0  0  0  0  0  0  0  0  0  0  0  0
  140.2170   69.7440  228.3560 C   0  0  0  0  0  0  0  0  0  0  0  0
  139.7300   69.1430  227.1980 C   0  0  0  0  0  0  0  0  0  0  0  0
  139.8880   69.7930  225.9880 C   0  0  0  0  0  0  0  0  0  0  0  0
  139.4140   69.2480  224.7240 C   0  0  0  0  0  0  0  0  0  0  0  0
  138.8350   68.1300  224.7610 O   0  0  0  0  0  0  0  0  0  0  0  0
  139.5700   69.9210  223.4180 C   0  0  0  0  0  0  0  0  0  0  0  0
  140.2070   73.3570  222.3440 C   0  0  0  0  0  0  0  0  0  0  0  0
  142.0010   76.2830  221.7660 H   0  0  0  0  0  0  0  0  0  0  0  0
  141.6245   78.5761  221.1997 H   0  0  0  0  0  0  0  0  0  0  0  0
  139.9450   78.1659  220.6629 H   0  0  0  0  0  0  0  0  0  0  0  0
  139.2935   79.1304  222.5413 H   0  0  0  0  0  0  0  0  0  0  0  0
  139.8999   77.6051  223.3334 H   0  0  0  0  0  0  0  0  0  0  0  0
  141.1041   78.9022  224.5692 H   0  0  0  0  0  0  0  0  0  0  0  0
  140.6956   81.0125  222.3022 H   0  0  0  0  0  0  0  0  0  0  0  0
  139.9567   81.1001  223.8770 H   0  0  0  0  0  0  0  0  0  0  0  0
  142.2480   82.4334  223.5019 H   0  0  0  0  0  0  0  0  0  0  0  0
  142.1718   81.4925  224.9730 H   0  0  0  0  0  0  0  0  0  0  0  0
  143.6243   80.9438  222.3954 H   0  0  0  0  0  0  0  0  0  0  0  0
  144.0321   80.3852  224.0380 H   0  0  0  0  0  0  0  0  0  0  0  0
  142.5655   78.9946  221.9276 H   0  0  0  0  0  0  0  0  0  0  0  0
  143.1251   78.3436  223.4697 H   0  0  0  0  0  0  0  0  0  0  0  0
  141.1421   74.1416  219.2283 H   0  0  0  0  0  0  0  0  0  0  0  0
  141.7103   71.7290  219.1908 H   0  0  0  0  0  0  0  0  0  0  0  0
  141.2913   70.3916  221.2351 H   0  0  0  0  0  0  0  0  0  0  0  0
  141.5182   72.6168  227.0203 H   0  0  0  0  0  0  0  0  0  0  0  0
  141.2357   71.4528  229.2118 H   0  0  0  0  0  0  0  0  0  0  0  0
  140.0992   69.2394  229.3263 H   0  0  0  0  0  0  0  0  0  0  0  0
  139.2272   68.1658  227.2453 H   0  0  0  0  0  0  0  0  0  0  0  0
  140.1564   69.2788  222.7444 H   0  0  0  0  0  0  0  0  0  0  0  0
  138.5760   70.1050  222.9842 H   0  0  0  0  0  0  0  0  0  0  0  0
  139.7767   73.8230  223.2427 H   0  0  0  0  0  0  0  0  0  0  0  0
  1  2  2  0
  2  3  1  0
  3  4  1  0
  4  5  1  0
  5  6  1  0
  6  7  1  0
  7  8  1  0
  8  9  1  0
  9 10  1  0
  2 11  1  0
 11 12  2  0
 12 13  1  0
 13 14  2  0
 14 15  1  0
 15 16  1  0
 16 17  2  0
 17 18  1  0
 18 19  2  0
 19 20  1  0
 20 21  2  0
 21 22  1  0
 22 23  2  0
 23 24  1  0
 24 25  2  0
 24 26  1  0
 15 27  2  0
 10  6  1  0
 27 11  1  0
 26 16  1  0
 23 18  1  0
  3 28  1  0
  4 29  1  0
  4 30  1  0
  5 31  1  0
  5 32  1  0
  6 33  1  0
  7 34  1  0
  7 35  1  0
  8 36  1  0
  8 37  1  0
  9 38  1  0
  9 39  1  0
 10 40  1  0
 10 41  1  0
 12 42  1  0
 13 43  1  0
 14 44  1  0
 19 45  1  0
 20 46  1  0
 21 47  1  0
 22 48  1  0
 26 49  1  0
 26 50  1  0
 27 51  1  0
M  END
>  <smiles>  (47) 
O=C(NCCC1CCCC1)c1cccc(C2=Nc3ccccc3C(=O)C2)c1

>  <score_type>  (47) 
oracle

>  <origin>  (47) 
autodockgpu

>  <m_score__min__energy>  (47) 
-9.5099999999999998

>  <m_primary>  (47) 
energy

>  <rmsd>  (47) 
4.3656186054683745

>  <m_score__min__rmsd>  (47) 
4.3656186054683745

>  <meeko>  (47) 
{"free_energy": -9.51, "intermolecular_energy": -11.0, "internal_energy": -0.82, "cluster_size": 50, "cluster_id": 1, "rank_in_cluster": 1}

>  <energy>  (47) 
-8.68

>  <cluster_rmsd>  (47) 
1.05

>  <cluster>  (47) 
1

$$$$

     RDKit          3D

 51 54  0  0  0  0  0  0  0  0999 V2000
  139.6370   75.7630  222.6930 O   0  0  0  0  0  0  0  0  0  0  0  0
  139.9170   75.2600  221.5550 C   0  0  0  0  0  0  0  0  0  0  0  0
  140.2070   76.1080  220.4620 N   0  0  0  0  0  0  0  0  0  0  0  0
  140.2150   77.5550  220.5400 C   0  0  0  0  0  0  0  0  0  0  0  0
  141.6000   78.0970  220.4220 C   0  0  0  0  0  0  0  0  0  0  0  0
  142.0950   78.7310  221.7020 C   0  0  0  0  0  0  0  0  0  0  0  0
  141.1030   78.4130  222.8090 C   0  0  0  0  0  0  0  0  0  0  0  0
  141.5130   79.4010  223.8810 C   0  0  0  0  0  0  0  0  0  0  0  0
  141.7920   80.6500  223.0860 C   0  0  0  0  0  0  0  0  0  0  0  0
  142.0720   80.2330  221.6700 C   0  0  0  0  0  0  0  0  0  0  0  0
  139.9080   73.8060  221.4870 C   0  0  0  0  0  0  0  0  0  0  0  0
  139.8750   73.1870  220.2550 C   0  0  0  0  0  0  0  0  0  0  0  0
  139.8640   71.8160  220.1020 C   0  0  0  0  0  0  0  0  0  0  0  0
  139.8890   71.0590  221.2560 C   0  0  0  0  0  0  0  0  0  0  0  0
  139.9240   71.6090  222.5220 C   0  0  0  0  0  0  0  0  0  0  0  0
  139.9490   70.7650  223.7370 C   0  0  0  0  0  0  0  0  0  0  0  0
  140.4020   71.3180  224.8080 N   0  0  0  0  0  0  0  0  0  0  0  0
  140.4890   70.6360  226.0510 C   0  0  0  0  0  0  0  0  0  0  0  0
  140.9920   71.3340  227.1290 C   0  0  0  0  0  0  0  0  0  0  0  0
  141.0740   70.6650  228.3370 C   0  0  0  0  0  0  0  0  0  0  0  0
  140.6610   69.3330  228.4500 C   0  0  0  0  0  0  0  0  0  0  0  0
  140.1580   68.6580  227.3400 C   0  0  0  0  0  0  0  0  0  0  0  0
  140.0740   69.3240  226.1310 C   0  0  0  0  0  0  0  0  0  0  0  0
  139.5640   68.7070  224.9160 C   0  0  0  0  0  0  0  0  0  0  0  0
  139.1850   67.5080  224.9960 O   0  0  0  0  0  0  0  0  0  0  0  0
  139.4630   69.3960  223.6120 C   0  0  0  0  0  0  0  0  0  0  0  0
  139.9310   72.9880  222.5940 C   0  0  0  0  0  0  0  0  0  0  0  0
  140.4290   75.6250  219.5480 H   0  0  0  0  0  0  0  0  0  0  0  0
  139.6005   77.9612  219.7230 H   0  0  0  0  0  0  0  0  0  0  0  0
  139.8082   77.8521  221.5179 H   0  0  0  0  0  0  0  0  0  0  0  0
  142.2776   77.2731  220.1536 H   0  0  0  0  0  0  0  0  0  0  0  0
  141.5829   78.8810  219.6506 H   0  0  0  0  0  0  0  0  0  0  0  0
  143.1169   78.3500  221.8455 H   0  0  0  0  0  0  0  0  0  0  0  0
  140.0672   78.5843  222.4807 H   0  0  0  0  0  0  0  0  0  0  0  0
  141.1219   77.3635  223.1379 H   0  0  0  0  0  0  0  0  0  0  0  0
  140.6997   79.5634  224.6036 H   0  0  0  0  0  0  0  0  0  0  0  0
  142.3702   79.0640  224.4823 H   0  0  0  0  0  0  0  0  0  0  0  0
  140.9174   81.3165  223.1149 H   0  0  0  0  0  0  0  0  0  0  0  0
  142.6517   81.1922  223.5066 H   0  0  0  0  0  0  0  0  0  0  0  0
  141.2794   80.5929  220.9975 H   0  0  0  0  0  0  0  0  0  0  0  0
  143.0179   80.6520  221.2962 H   0  0  0  0  0  0  0  0  0  0  0  0
  139.8566   73.8156  219.3525 H   0  0  0  0  0  0  0  0  0  0  0  0
  139.8366   71.3480  219.1069 H   0  0  0  0  0  0  0  0  0  0  0  0
  139.8806   69.9630  221.1624 H   0  0  0  0  0  0  0  0  0  0  0  0
  141.3151   72.3810  227.0320 H   0  0  0  0  0  0  0  0  0  0  0  0
  141.4693   71.1873  229.2207 H   0  0  0  0  0  0  0  0  0  0  0  0
  140.7337   68.8169  229.4187 H   0  0  0  0  0  0  0  0  0  0  0  0
  139.8324   67.6106  227.4240 H   0  0  0  0  0  0  0  0  0  0  0  0
  140.0700   68.8597  222.8678 H   0  0  0  0  0  0  0  0  0  0  0  0
  138.4111   69.4123  223.2907 H   0  0  0  0  0  0  0  0  0  0  0  0
  139.9563   73.4576  223.5884 H   0  0  0  0  0  0  0  0  0  0  0  0
  1  2  2  0
  2  3  1  0
  3  4  1  0
  4  5  1  0
  5  6  1  0
  6  7  1  0
  7  8  1  0
  8  9  1  0
  9 10  1  0
  2 11  1  0
 11 12  2  0
 12 13  1  0
 13 14  2  0
 14 15  1  0
 15 16  1  0
 16 17  2  0
 17 18  1  0
 18 19  2  0
 19 20  1  0
 20 21  2  0
 21 22  1  0
 22 23  2  0
 23 24  1  0
 24 25  2  0
 24 26  1  0
 15 27  2  0
 10  6  1  0
 27 11  1  0
 26 16  1  0
 23 18  1  0
  3 28  1  0
  4 29  1  0
  4 30  1  0
  5 31  1  0
  5 32  1  0
  6 33  1  0
  7 34  1  0
  7 35  1  0
  8 36  1  0
  8 37  1  0
  9 38  1  0
  9 39  1  0
 10 40  1  0
 10 41  1  0
 12 42  1  0
 13 43  1  0
 14 44  1  0
 19 45  1  0
 20 46  1  0
 21 47  1  0
 22 48  1  0
 26 49  1  0
 26 50  1  0
 27 51  1  0
M  END
>  <smiles>  (48) 
O=C(NCCC1CCCC1)c1cccc(C2=Nc3ccccc3C(=O)C2)c1

>  <score_type>  (48) 
oracle

>  <origin>  (48) 
autodockgpu

>  <m_score__min__energy>  (48) 
-9.5099999999999998

>  <m_primary>  (48) 
energy

>  <rmsd>  (48) 
4.532720470179699

>  <m_score__min__rmsd>  (48) 
4.532720470179699

>  <meeko>  (48) 
{"free_energy": -8.65, "intermolecular_energy": -10.14, "internal_energy": -0.93, "cluster_size": 50, "cluster_id": 1, "rank_in_cluster": 49}

>  <energy>  (48) 
-8.68

>  <cluster_rmsd>  (48) 
1.56

>  <cluster>  (48) 
1

$$$$

     RDKit          3D

 51 54  0  0  0  0  0  0  0  0999 V2000
  139.1990   75.3440  220.0850 O   0  0  0  0  0  0  0  0  0  0  0  0
  139.2810   74.8430  221.2540 C   0  0  0  0  0  0  0  0  0  0  0  0
  139.4080   75.6910  222.3770 N   0  0  0  0  0  0  0  0  0  0  0  0
  139.4500   77.1380  222.2990 C   0  0  0  0  0  0  0  0  0  0  0  0
  140.8540   77.6370  222.2340 C   0  0  0  0  0  0  0  0  0  0  0  0
  140.9950   79.0630  222.7160 C   0  0  0  0  0  0  0  0  0  0  0  0
  141.7670   79.8490  221.6690 C   0  0  0  0  0  0  0  0  0  0  0  0
  142.1510   81.0940  222.4420 C   0  0  0  0  0  0  0  0  0  0  0  0
  142.5310   80.5390  223.7900 C   0  0  0  0  0  0  0  0  0  0  0  0
  141.8700   79.1970  223.9300 C   0  0  0  0  0  0  0  0  0  0  0  0
  139.2370   73.3890  221.3230 C   0  0  0  0  0  0  0  0  0  0  0  0
  139.0040   72.6650  220.1740 C   0  0  0  0  0  0  0  0  0  0  0  0
  138.9450   71.2870  220.1520 C   0  0  0  0  0  0  0  0  0  0  0  0
  139.1340   70.6350  221.3540 C   0  0  0  0  0  0  0  0  0  0  0  0
  139.3730   71.2930  222.5430 C   0  0  0  0  0  0  0  0  0  0  0  0
  139.5700   70.5610  223.8130 C   0  0  0  0  0  0  0  0  0  0  0  0
  140.0660   71.2350  224.7920 N   0  0  0  0  0  0  0  0  0  0  0  0
  140.3130   70.6710  226.0720 C   0  0  0  0  0  0  0  0  0  0  0  0
  140.8480   71.4940  227.0410 C   0  0  0  0  0  0  0  0  0  0  0  0
  141.0860   70.9380  228.2850 C   0  0  0  0  0  0  0  0  0  0  0  0
  140.7940   69.5930  228.5390 C   0  0  0  0  0  0  0  0  0  0  0  0
  140.2560   68.7910  227.5370 C   0  0  0  0  0  0  0  0  0  0  0  0
  140.0150   69.3430  226.2920 C   0  0  0  0  0  0  0  0  0  0  0  0
  139.4560   68.5880  225.1810 C   0  0  0  0  0  0  0  0  0  0  0  0
  139.1840   67.3760  225.3880 O   0  0  0  0  0  0  0  0  0  0  0  0
  139.1890   69.1540  223.8420 C   0  0  0  0  0  0  0  0  0  0  0  0
  139.4160   72.6730  222.4850 C   0  0  0  0  0  0  0  0  0  0  0  0
  139.4720   75.2090  223.3160 H   0  0  0  0  0  0  0  0  0  0  0  0
  138.9118   77.4639  221.3967 H   0  0  0  0  0  0  0  0  0  0  0  0
  138.9774   77.5482  223.2037 H   0  0  0  0  0  0  0  0  0  0  0  0
  141.4855   76.9906  222.8611 H   0  0  0  0  0  0  0  0  0  0  0  0
  141.1640   77.6133  221.1788 H   0  0  0  0  0  0  0  0  0  0  0  0
  139.9711   79.4089  222.9211 H   0  0  0  0  0  0  0  0  0  0  0  0
  142.6561   79.2980  221.3287 H   0  0  0  0  0  0  0  0  0  0  0  0
  141.1956   80.0515  220.7511 H   0  0  0  0  0  0  0  0  0  0  0  0
  143.0013   81.6081  221.9701 H   0  0  0  0  0  0  0  0  0  0  0  0
  141.3489   81.8453  222.4883 H   0  0  0  0  0  0  0  0  0  0  0  0
  143.6234   80.4280  223.8558 H   0  0  0  0  0  0  0  0  0  0  0  0
  142.2052   81.2164  224.5931 H   0  0  0  0  0  0  0  0  0  0  0  0
  142.6235   78.3959  223.9532 H   0  0  0  0  0  0  0  0  0  0  0  0
  141.2943   79.1166  224.8638 H   0  0  0  0  0  0  0  0  0  0  0  0
  138.8583   73.2113  219.2304 H   0  0  0  0  0  0  0  0  0  0  0  0
  138.7562   70.7336  219.2203 H   0  0  0  0  0  0  0  0  0  0  0  0
  139.0920   69.5359  221.3644 H   0  0  0  0  0  0  0  0  0  0  0  0
  141.0762   72.5498  226.8329 H   0  0  0  0  0  0  0  0  0  0  0  0
  141.5106   71.5615  229.0856 H   0  0  0  0  0  0  0  0  0  0  0  0
  140.9905   69.1682  229.5345 H   0  0  0  0  0  0  0  0  0  0  0  0
  140.0257   67.7333  227.7324 H   0  0  0  0  0  0  0  0  0  0  0  0
  139.7724   68.6026  223.0900 H   0  0  0  0  0  0  0  0  0  0  0  0
  138.1156   69.0648  223.6186 H   0  0  0  0  0  0  0  0  0  0  0  0
  139.6030   73.2283  223.4159 H   0  0  0  0  0  0  0  0  0  0  0  0
  1  2  2  0
  2  3  1  0
  3  4  1  0
  4  5  1  0
  5  6  1  0
  6  7  1  0
  7  8  1  0
  8  9  1  0
  9 10  1  0
  2 11  1  0
 11 12  2  0
 12 13  1  0
 13 14  2  0
 14 15  1  0
 15 16  1  0
 16 17  2  0
 17 18  1  0
 18 19  2  0
 19 20  1  0
 20 21  2  0
 21 22  1  0
 22 23  2  0
 23 24  1  0
 24 25  2  0
 24 26  1  0
 15 27  2  0
 10  6  1  0
 27 11  1  0
 26 16  1  0
 23 18  1  0
  3 28  1  0
  4 29  1  0
  4 30  1  0
  5 31  1  0
  5 32  1  0
  6 33  1  0
  7 34  1  0
  7 35  1  0
  8 36  1  0
  8 37  1  0
  9 38  1  0
  9 39  1  0
 10 40  1  0
 10 41  1  0
 12 42  1  0
 13 43  1  0
 14 44  1  0
 19 45  1  0
 20 46  1  0
 21 47  1  0
 22 48  1  0
 26 49  1  0
 26 50  1  0
 27 51  1  0
M  END
>  <smiles>  (49) 
O=C(NCCC1CCCC1)c1cccc(C2=Nc3ccccc3C(=O)C2)c1

>  <score_type>  (49) 
oracle

>  <origin>  (49) 
autodockgpu

>  <m_score__min__energy>  (49) 
-9.5099999999999998

>  <m_primary>  (49) 
energy

>  <rmsd>  (49) 
4.757726165020942

>  <m_score__min__rmsd>  (49) 
4.757726165020942

>  <meeko>  (49) 
{"free_energy": -9.18, "intermolecular_energy": -10.67, "internal_energy": -0.73, "cluster_size": 50, "cluster_id": 1, "rank_in_cluster": 32}

>  <energy>  (49) 
-8.65

>  <cluster_rmsd>  (49) 
1.1

>  <cluster>  (49) 
1

$$$$

     RDKit          3D

 51 54  0  0  0  0  0  0  0  0999 V2000
  138.7380   75.7170  221.2350 O   0  0  0  0  0  0  0  0  0  0  0  0
  139.8620   75.2640  221.6330 C   0  0  0  0  0  0  0  0  0  0  0  0
  140.8450   76.1520  222.1230 N   0  0  0  0  0  0  0  0  0  0  0  0
  140.6680   77.5880  222.2140 C   0  0  0  0  0  0  0  0  0  0  0  0
  141.5800   78.3080  221.2780 C   0  0  0  0  0  0  0  0  0  0  0  0
  142.2300   79.5200  221.9060 C   0  0  0  0  0  0  0  0  0  0  0  0
  142.2240   79.3400  223.4140 C   0  0  0  0  0  0  0  0  0  0  0  0
  142.5330   80.7440  223.8920 C   0  0  0  0  0  0  0  0  0  0  0  0
  141.7090   81.5950  222.9620 C   0  0  0  0  0  0  0  0  0  0  0  0
  141.4330   80.7810  221.7280 C   0  0  0  0  0  0  0  0  0  0  0  0
  140.0310   73.8210  221.5400 C   0  0  0  0  0  0  0  0  0  0  0  0
  140.2480   73.2440  220.3070 C   0  0  0  0  0  0  0  0  0  0  0  0
  140.4170   71.8870  220.1310 C   0  0  0  0  0  0  0  0  0  0  0  0
  140.3630   71.0990  221.2630 C   0  0  0  0  0  0  0  0  0  0  0  0
  140.1510   71.6060  222.5290 C   0  0  0  0  0  0  0  0  0  0  0  0
  140.0980   70.7310  223.7200 C   0  0  0  0  0  0  0  0  0  0  0  0
  140.5440   71.2320  224.8190 N   0  0  0  0  0  0  0  0  0  0  0  0
  140.5590   70.5140  226.0450 C   0  0  0  0  0  0  0  0  0  0  0  0
  141.0620   71.1580  227.1570 C   0  0  0  0  0  0  0  0  0  0  0  0
  141.0750   70.4540  228.3470 C   0  0  0  0  0  0  0  0  0  0  0  0
  140.5940   69.1410  228.4100 C   0  0  0  0  0  0  0  0  0  0  0  0
  140.0930   68.5210  227.2680 C   0  0  0  0  0  0  0  0  0  0  0  0
  140.0790   69.2220  226.0760 C   0  0  0  0  0  0  0  0  0  0  0  0
  139.5770   68.6640  224.8300 C   0  0  0  0  0  0  0  0  0  0  0  0
  139.1390   67.4830  224.8640 O   0  0  0  0  0  0  0  0  0  0  0  0
  139.5510   69.3900  223.5430 C   0  0  0  0  0  0  0  0  0  0  0  0
  139.9890   72.9750  222.6250 C   0  0  0  0  0  0  0  0  0  0  0  0
  141.7540   75.7100  222.4360 H   0  0  0  0  0  0  0  0  0  0  0  0
  139.6267   77.8372  221.9620 H   0  0  0  0  0  0  0  0  0  0  0  0
  140.9063   77.9024  223.2408 H   0  0  0  0  0  0  0  0  0  0  0  0
  142.3699   77.6142  220.9544 H   0  0  0  0  0  0  0  0  0  0  0  0
  140.9728   78.6605  220.4312 H   0  0  0  0  0  0  0  0  0  0  0  0
  143.2204   79.6030  221.4345 H   0  0  0  0  0  0  0  0  0  0  0  0
  141.2412   79.0012  223.7735 H   0  0  0  0  0  0  0  0  0  0  0  0
  142.9314   78.5793  223.7758 H   0  0  0  0  0  0  0  0  0  0  0  0
  142.2236   80.8846  224.9382 H   0  0  0  0  0  0  0  0  0  0  0  0
  143.6057   80.9870  223.8732 H   0  0  0  0  0  0  0  0  0  0  0  0
  140.7621   81.8732  223.4477 H   0  0  0  0  0  0  0  0  0  0  0  0
  142.2473   82.5189  222.7038 H   0  0  0  0  0  0  0  0  0  0  0  0
  140.3601   80.5519  221.6482 H   0  0  0  0  0  0  0  0  0  0  0  0
  141.7102   81.3180  220.8089 H   0  0  0  0  0  0  0  0  0  0  0  0
  140.2882   73.8966  219.4224 H   0  0  0  0  0  0  0  0  0  0  0  0
  140.5870   71.4526  219.1348 H   0  0  0  0  0  0  0  0  0  0  0  0
  140.4955   70.0128  221.1505 H   0  0  0  0  0  0  0  0  0  0  0  0
  141.4376   72.1902  227.0990 H   0  0  0  0  0  0  0  0  0  0  0  0
  141.4685   70.9321  229.2562 H   0  0  0  0  0  0  0  0  0  0  0  0
  140.6118   68.5965  229.3656 H   0  0  0  0  0  0  0  0  0  0  0  0
  139.7142   67.4893  227.3135 H   0  0  0  0  0  0  0  0  0  0  0  0
  140.1552   68.8439  222.8036 H   0  0  0  0  0  0  0  0  0  0  0  0
  138.5119   69.4656  223.1900 H   0  0  0  0  0  0  0  0  0  0  0  0
  139.8176   73.4113  223.6201 H   0  0  0  0  0  0  0  0  0  0  0  0
  1  2  2  0
  2  3  1  0
  3  4  1  0
  4  5  1  0
  5  6  1  0
  6  7  1  0
  7  8  1  0
  8  9  1  0
  9 10  1  0
  2 11  1  0
 11 12  2  0
 12 13  1  0
 13 14  2  0
 14 15  1  0
 15 16  1  0
 16 17  2  0
 17 18  1  0
 18 19  2  0
 19 20  1  0
 20 21  2  0
 21 22  1  0
 22 23  2  0
 23 24  1  0
 24 25  2  0
 24 26  1  0
 15 27  2  0
 10  6  1  0
 27 11  1  0
 26 16  1  0
 23 18  1  0
  3 28  1  0
  4 29  1  0
  4 30  1  0
  5 31  1  0
  5 32  1  0
  6 33  1  0
  7 34  1  0
  7 35  1  0
  8 36  1  0
  8 37  1  0
  9 38  1  0
  9 39  1  0
 10 40  1  0
 10 41  1  0
 12 42  1  0
 13 43  1  0
 14 44  1  0
 19 45  1  0
 20 46  1  0
 21 47  1  0
 22 48  1  0
 26 49  1  0
 26 50  1  0
 27 51  1  0
M  END
>  <smiles>  (50) 
O=C(NCCC1CCCC1)c1cccc(C2=Nc3ccccc3C(=O)C2)c1

>  <score_type>  (50) 
oracle

>  <origin>  (50) 
autodockgpu

>  <m_score__min__energy>  (50) 
-9.5099999999999998

>  <m_primary>  (50) 
energy

>  <rmsd>  (50) 
4.359427799647437

>  <m_score__min__rmsd>  (50) 
4.359427799647437

>  <meeko>  (50) 
{"free_energy": -9.29, "intermolecular_energy": -10.78, "internal_energy": -0.75, "cluster_size": 50, "cluster_id": 1, "rank_in_cluster": 23}

>  <energy>  (50) 
-8.55

>  <cluster_rmsd>  (50) 
1.14

>  <cluster>  (50) 
1

$$$$
