
     RDKit          3D

 54 57  0  0  0  0  0  0  0  0999 V2000
  141.2800   72.6410  221.8700 O   0  0  0  0  0  0  0  0  0  0  0  0
  140.2760   72.5610  222.6090 C   0  0  0  0  0  0  0  0  0  0  0  0
  139.1880   73.4450  222.3470 N   0  0  0  0  0  0  0  0  0  0  0  0
  139.3160   74.3640  221.2570 C   0  0  0  0  0  0  0  0  0  0  0  0
  139.4930   75.7580  221.6570 C   0  0  0  0  0  0  0  0  0  0  0  0
  138.7040   76.4050  222.3970 O   0  0  0  0  0  0  0  0  0  0  0  0
  140.6380   76.4630  221.1860 N   0  0  0  0  0  0  0  0  0  0  0  0
  141.8770   75.7590  220.8150 C   0  0  0  0  0  0  0  0  0  0  0  0
  142.1680   76.0520  219.3500 C   0  0  0  0  0  0  0  0  0  0  0  0
  142.1950   77.5310  219.0950 C   0  0  0  0  0  0  0  0  0  0  0  0
  140.8950   78.1230  219.5420 C   0  0  0  0  0  0  0  0  0  0  0  0
  140.6740   77.9060  221.0360 C   0  0  2  0  0  0  0  0  0  0  0  0
  141.7870   78.5310  221.8480 C   0  0  0  0  0  0  0  0  0  0  0  0
  141.8890   80.0010  221.5330 C   0  0  0  0  0  0  0  0  0  0  0  0
  141.9660   80.7380  222.8440 C   0  0  0  0  0  0  0  0  0  0  0  0
  142.1820   79.6980  223.8930 C   0  0  0  0  0  0  0  0  0  0  0  0
  141.4500   78.4870  223.3000 C   0  0  0  0  0  0  0  0  0  0  0  0
  140.1900   71.6100  223.7080 C   0  0  0  0  0  0  0  0  0  0  0  0
  139.5940   70.4020  223.4760 C   0  0  0  0  0  0  0  0  0  0  0  0
  139.4710   69.4420  224.4590 C   0  0  0  0  0  0  0  0  0  0  0  0
  139.9620   69.7160  225.7050 C   0  0  0  0  0  0  0  0  0  0  0  0
  139.8290   68.7440  226.6770 C   0  0  0  0  0  0  0  0  0  0  0  0
  140.3310   69.0370  227.9300 C   0  0  0  0  0  0  0  0  0  0  0  0
  140.9280   70.2470  228.1660 C   0  0  0  0  0  0  0  0  0  0  0  0
  141.0650   71.2240  227.2000 C   0  0  0  0  0  0  0  0  0  0  0  0
  140.5620   70.9360  225.9340 C   0  0  0  0  0  0  0  0  0  0  0  0
  140.6630   71.8550  224.9350 N   0  0  0  0  0  0  0  0  0  0  0  0
  138.3600   73.3640  222.9750 H   0  0  0  0  0  0  0  0  0  0  0  0
  140.1881   74.0655  220.6567 H   0  0  0  0  0  0  0  0  0  0  0  0
  138.3710   74.3173  220.6960 H   0  0  0  0  0  0  0  0  0  0  0  0
  142.7096   76.1160  221.4390 H   0  0  0  0  0  0  0  0  0  0  0  0
  141.7609   74.6763  220.9709 H   0  0  0  0  0  0  0  0  0  0  0  0
  143.1452   75.6227  219.0840 H   0  0  0  0  0  0  0  0  0  0  0  0
  141.3720   75.6040  218.7370 H   0  0  0  0  0  0  0  0  0  0  0  0
  143.0221   77.9879  219.6582 H   0  0  0  0  0  0  0  0  0  0  0  0
  142.3424   77.7219  218.0218 H   0  0  0  0  0  0  0  0  0  0  0  0
  140.9022   79.2031  219.3336 H   0  0  0  0  0  0  0  0  0  0  0  0
  140.0801   77.6274  218.9940 H   0  0  0  0  0  0  0  0  0  0  0  0
  139.7509   78.3795  221.4017 H   0  0  0  0  0  0  0  0  0  0  0  0
  142.7100   77.9808  221.6127 H   0  0  0  0  0  0  0  0  0  0  0  0
  142.7935   80.1962  220.9382 H   0  0  0  0  0  0  0  0  0  0  0  0
  141.0178   80.3348  220.9503 H   0  0  0  0  0  0  0  0  0  0  0  0
  142.8052   81.4491  222.8332 H   0  0  0  0  0  0  0  0  0  0  0  0
  141.0493   81.3155  223.0342 H   0  0  0  0  0  0  0  0  0  0  0  0
  143.2527   79.4882  224.0329 H   0  0  0  0  0  0  0  0  0  0  0  0
  141.8181   79.9913  224.8888 H   0  0  0  0  0  0  0  0  0  0  0  0
  141.8091   77.5525  223.7557 H   0  0  0  0  0  0  0  0  0  0  0  0
  140.3657   78.5194  223.4821 H   0  0  0  0  0  0  0  0  0  0  0  0
  139.1992   70.1882  222.4718 H   0  0  0  0  0  0  0  0  0  0  0  0
  138.9883   68.4770  224.2449 H   0  0  0  0  0  0  0  0  0  0  0  0
  139.3450   67.7797  226.4629 H   0  0  0  0  0  0  0  0  0  0  0  0
  140.2512   68.2971  228.7400 H   0  0  0  0  0  0  0  0  0  0  0  0
  141.3173   70.4503  229.1745 H   0  0  0  0  0  0  0  0  0  0  0  0
  141.5497   72.1865  227.4206 H   0  0  0  0  0  0  0  0  0  0  0  0
  1  2  2  0
  2  3  1  0
  3  4  1  0
  4  5  1  0
  5  6  2  0
  5  7  1  0
  7  8  1  0
  8  9  1  0
  9 10  1  0
 10 11  1  0
 11 12  1  0
 12 13  1  0
 13 14  1  0
 14 15  1  0
 15 16  1  0
 16 17  1  0
  2 18  1  0
 18 19  2  0
 19 20  1  0
 20 21  2  0
 21 22  1  0
 22 23  2  0
 23 24  1  0
 24 25  2  0
 25 26  1  0
 26 27  2  0
 12  7  1  0
 17 13  1  0
 27 18  1  0
 26 21  1  0
  3 28  1  0
  4 29  1  0
  4 30  1  0
  8 31  1  0
  8 32  1  0
  9 33  1  0
  9 34  1  0
 10 35  1  0
 10 36  1  0
 11 37  1  0
 11 38  1  0
 12 39  1  1
 13 40  1  0
 14 41  1  0
 14 42  1  0
 15 43  1  0
 15 44  1  0
 16 45  1  0
 16 46  1  0
 17 47  1  0
 17 48  1  0
 19 49  1  0
 20 50  1  0
 22 51  1  0
 23 52  1  0
 24 53  1  0
 25 54  1  0
M  END
>  <smiles>  (1) 
O=C(NCC(=O)N1CCCCC1C1CCCC1)c1ccc2ccccc2n1

>  <score_type>  (1) 
oracle

>  <origin>  (1) 
autodockgpu

>  <m_score__min__energy>  (1) 
-8.9100000000000001

>  <m_primary>  (1) 
energy

>  <rmsd>  (1) 
2.0873306128839504

>  <m_score__min__rmsd>  (1) 
2.0873306128839504

>  <meeko>  (1) 
{"free_energy": -8.84, "intermolecular_energy": -10.33, "internal_energy": -1.42, "cluster_size": 41, "cluster_id": 1, "rank_in_cluster": 16}

>  <energy>  (1) 
-8.91

>  <cluster_rmsd>  (1) 
0.0

>  <cluster>  (1) 
1

$$$$

     RDKit          3D

 54 57  0  0  0  0  0  0  0  0999 V2000
  137.7550   75.0960  222.1460 O   0  0  0  0  0  0  0  0  0  0  0  0
  138.9490   75.4440  222.2660 C   0  0  0  0  0  0  0  0  0  0  0  0
  139.9510   74.4460  222.0890 N   0  0  0  0  0  0  0  0  0  0  0  0
  139.5270   73.1130  221.7850 C   0  0  0  0  0  0  0  0  0  0  0  0
  140.2260   72.0700  222.5310 C   0  0  0  0  0  0  0  0  0  0  0  0
  141.4250   71.7270  222.3470 O   0  0  0  0  0  0  0  0  0  0  0  0
  139.5200   71.3710  223.5510 N   0  0  0  0  0  0  0  0  0  0  0  0
  138.0630   71.5140  223.7170 C   0  0  0  0  0  0  0  0  0  0  0  0
  137.4300   70.1410  223.5420 C   0  0  0  0  0  0  0  0  0  0  0  0
  138.0620   69.1380  224.4620 C   0  0  0  0  0  0  0  0  0  0  0  0
  139.5380   69.1150  224.2120 C   0  0  0  0  0  0  0  0  0  0  0  0
  140.1670   70.4750  224.4930 C   0  0  2  0  0  0  0  0  0  0  0  0
  139.9330   70.8980  225.9270 C   0  0  0  0  0  0  0  0  0  0  0  0
  140.1390   69.7230  226.8480 C   0  0  0  0  0  0  0  0  0  0  0  0
  141.0190   70.1870  227.9790 C   0  0  0  0  0  0  0  0  0  0  0  0
  141.0980   71.6730  227.8620 C   0  0  0  0  0  0  0  0  0  0  0  0
  140.9710   71.8830  226.3480 C   0  0  0  0  0  0  0  0  0  0  0  0
  139.3330   76.8140  222.5770 C   0  0  0  0  0  0  0  0  0  0  0  0
  138.3460   77.7430  222.7440 C   0  0  0  0  0  0  0  0  0  0  0  0
  138.6210   79.0620  223.0400 C   0  0  0  0  0  0  0  0  0  0  0  0
  139.9270   79.4450  223.1670 C   0  0  0  0  0  0  0  0  0  0  0  0
  140.1830   80.7700  223.4640 C   0  0  0  0  0  0  0  0  0  0  0  0
  141.5080   81.1390  223.5880 C   0  0  0  0  0  0  0  0  0  0  0  0
  142.5010   80.2100  223.4200 C   0  0  0  0  0  0  0  0  0  0  0  0
  142.2520   78.8840  223.1250 C   0  0  0  0  0  0  0  0  0  0  0  0
  140.9190   78.5030  222.9970 C   0  0  0  0  0  0  0  0  0  0  0  0
  140.6040   77.2120  222.7060 N   0  0  0  0  0  0  0  0  0  0  0  0
  140.9410   74.7560  222.1940 H   0  0  0  0  0  0  0  0  0  0  0  0
  138.4529   73.0346  222.0092 H   0  0  0  0  0  0  0  0  0  0  0  0
  139.7580   72.9459  220.7226 H   0  0  0  0  0  0  0  0  0  0  0  0
  137.8386   71.9028  224.7212 H   0  0  0  0  0  0  0  0  0  0  0  0
  137.6617   72.2164  222.9716 H   0  0  0  0  0  0  0  0  0  0  0  0
  136.3553   70.2087  223.7669 H   0  0  0  0  0  0  0  0  0  0  0  0
  137.5857   69.8123  222.5039 H   0  0  0  0  0  0  0  0  0  0  0  0
  137.8686   69.4219  225.5070 H   0  0  0  0  0  0  0  0  0  0  0  0
  137.6364   68.1409  224.2760 H   0  0  0  0  0  0  0  0  0  0  0  0
  140.0012   68.3632  224.8680 H   0  0  0  0  0  0  0  0  0  0  0  0
  139.7078   68.8650  223.1543 H   0  0  0  0  0  0  0  0  0  0  0  0
  141.2600   70.4702  224.3693 H   0  0  0  0  0  0  0  0  0  0  0  0
  138.9144   71.3095  225.9830 H   0  0  0  0  0  0  0  0  0  0  0  0
  139.1710   69.3792  227.2413 H   0  0  0  0  0  0  0  0  0  0  0  0
  140.6066   68.8850  226.3103 H   0  0  0  0  0  0  0  0  0  0  0  0
  140.5783   69.9035  228.9462 H   0  0  0  0  0  0  0  0  0  0  0  0
  142.0167   69.7269  227.9255 H   0  0  0  0  0  0  0  0  0  0  0  0
  140.2738   72.1606  228.4033 H   0  0  0  0  0  0  0  0  0  0  0  0
  142.0141   72.1029  228.2933 H   0  0  0  0  0  0  0  0  0  0  0  0
  140.6482   72.9101  226.1225 H   0  0  0  0  0  0  0  0  0  0  0  0
  141.9260   71.7392  225.8214 H   0  0  0  0  0  0  0  0  0  0  0  0
  137.2970   77.4291  222.6390 H   0  0  0  0  0  0  0  0  0  0  0  0
  137.8068   79.7899  223.1710 H   0  0  0  0  0  0  0  0  0  0  0  0
  139.3686   81.4976  223.5957 H   0  0  0  0  0  0  0  0  0  0  0  0
  141.7670   82.1821  223.8224 H   0  0  0  0  0  0  0  0  0  0  0  0
  143.5464   80.5359  223.5251 H   0  0  0  0  0  0  0  0  0  0  0  0
  143.0708   78.1607  222.9968 H   0  0  0  0  0  0  0  0  0  0  0  0
  1  2  2  0
  2  3  1  0
  3  4  1  0
  4  5  1  0
  5  6  2  0
  5  7  1  0
  7  8  1  0
  8  9  1  0
  9 10  1  0
 10 11  1  0
 11 12  1  0
 12 13  1  0
 13 14  1  0
 14 15  1  0
 15 16  1  0
 16 17  1  0
  2 18  1  0
 18 19  2  0
 19 20  1  0
 20 21  2  0
 21 22  1  0
 22 23  2  0
 23 24  1  0
 24 25  2  0
 25 26  1  0
 26 27  2  0
 12  7  1  0
 17 13  1  0
 27 18  1  0
 26 21  1  0
  3 28  1  0
  4 29  1  0
  4 30  1  0
  8 31  1  0
  8 32  1  0
  9 33  1  0
  9 34  1  0
 10 35  1  0
 10 36  1  0
 11 37  1  0
 11 38  1  0
 12 39  1  6
 13 40  1  0
 14 41  1  0
 14 42  1  0
 15 43  1  0
 15 44  1  0
 16 45  1  0
 16 46  1  0
 17 47  1  0
 17 48  1  0
 19 49  1  0
 20 50  1  0
 22 51  1  0
 23 52  1  0
 24 53  1  0
 25 54  1  0
M  END
>  <smiles>  (2) 
O=C(NCC(=O)N1CCCCC1C1CCCC1)c1ccc2ccccc2n1

>  <score_type>  (2) 
oracle

>  <origin>  (2) 
autodockgpu

>  <m_score__min__energy>  (2) 
-8.9100000000000001

>  <m_primary>  (2) 
energy

>  <rmsd>  (2) 
8.362078529659117

>  <m_score__min__rmsd>  (2) 
8.362078529659117

>  <meeko>  (2) 
{"free_energy": -8.05, "intermolecular_energy": -9.54, "internal_energy": -1.61, "cluster_size": 7, "cluster_id": 2, "rank_in_cluster": 7}

>  <energy>  (2) 
-8.91

>  <cluster_rmsd>  (2) 
0.16

>  <cluster>  (2) 
1

$$$$

     RDKit          3D

 54 57  0  0  0  0  0  0  0  0999 V2000
  140.9010   74.0160  220.4980 O   0  0  0  0  0  0  0  0  0  0  0  0
  140.4800   74.7870  221.3860 C   0  0  0  0  0  0  0  0  0  0  0  0
  139.5260   74.2720  222.3120 N   0  0  0  0  0  0  0  0  0  0  0  0
  139.1140   72.9090  222.1660 C   0  0  0  0  0  0  0  0  0  0  0  0
  139.9370   71.9460  222.8920 C   0  0  0  0  0  0  0  0  0  0  0  0
  141.1550   71.7160  222.6640 O   0  0  0  0  0  0  0  0  0  0  0  0
  139.3400   71.1960  223.9460 N   0  0  0  0  0  0  0  0  0  0  0  0
  137.8860   71.2190  224.1800 C   0  0  0  0  0  0  0  0  0  0  0  0
  137.3610   69.7970  224.0360 C   0  0  0  0  0  0  0  0  0  0  0  0
  138.1170   68.8550  224.9260 C   0  0  0  0  0  0  0  0  0  0  0  0
  139.5760   68.9520  224.6070 C   0  0  0  0  0  0  0  0  0  0  0  0
  140.1030   70.3620  224.8560 C   0  0  2  0  0  0  0  0  0  0  0  0
  139.9030   70.7700  226.2990 C   0  0  0  0  0  0  0  0  0  0  0  0
  140.1860   69.6020  227.2080 C   0  0  0  0  0  0  0  0  0  0  0  0
  141.0870   70.0970  228.3090 C   0  0  0  0  0  0  0  0  0  0  0  0
  141.1030   71.5850  228.1960 C   0  0  0  0  0  0  0  0  0  0  0  0
  140.9150   71.7950  226.6880 C   0  0  0  0  0  0  0  0  0  0  0  0
  140.9270   76.1690  221.4960 C   0  0  0  0  0  0  0  0  0  0  0  0
  141.3160   76.8180  220.3580 C   0  0  0  0  0  0  0  0  0  0  0  0
  141.7530   78.1260  220.3710 C   0  0  0  0  0  0  0  0  0  0  0  0
  141.7970   78.7880  221.5660 C   0  0  0  0  0  0  0  0  0  0  0  0
  142.2380   80.0970  221.5600 C   0  0  0  0  0  0  0  0  0  0  0  0
  142.2770   80.7520  222.7750 C   0  0  0  0  0  0  0  0  0  0  0  0
  141.8880   80.1030  223.9190 C   0  0  0  0  0  0  0  0  0  0  0  0
  141.4460   78.7950  223.9320 C   0  0  0  0  0  0  0  0  0  0  0  0
  141.4040   78.1290  222.7110 C   0  0  0  0  0  0  0  0  0  0  0  0
  140.9790   76.8370  222.6530 N   0  0  0  0  0  0  0  0  0  0  0  0
  139.1850   74.9310  223.0450 H   0  0  0  0  0  0  0  0  0  0  0  0
  138.0802   72.8217  222.5314 H   0  0  0  0  0  0  0  0  0  0  0  0
  139.2153   72.6645  221.0983 H   0  0  0  0  0  0  0  0  0  0  0  0
  137.6773   71.5926  225.1933 H   0  0  0  0  0  0  0  0  0  0  0  0
  137.3936   71.8823  223.4537 H   0  0  0  0  0  0  0  0  0  0  0  0
  136.2962   69.7765  224.3115 H   0  0  0  0  0  0  0  0  0  0  0  0
  137.4937   69.4772  222.9919 H   0  0  0  0  0  0  0  0  0  0  0  0
  137.9503   69.1276  225.9786 H   0  0  0  0  0  0  0  0  0  0  0  0
  137.7673   67.8252  224.7612 H   0  0  0  0  0  0  0  0  0  0  0  0
  140.1298   68.2447  225.2418 H   0  0  0  0  0  0  0  0  0  0  0  0
  139.7166   68.7106  223.5431 H   0  0  0  0  0  0  0  0  0  0  0  0
  141.1853   70.4480  224.6796 H   0  0  0  0  0  0  0  0  0  0  0  0
  138.8712   71.1398  226.3919 H   0  0  0  0  0  0  0  0  0  0  0  0
  139.2463   69.2206  227.6339 H   0  0  0  0  0  0  0  0  0  0  0  0
  140.6660   68.7836  226.6513 H   0  0  0  0  0  0  0  0  0  0  0  0
  140.6928   69.7932  229.2900 H   0  0  0  0  0  0  0  0  0  0  0  0
  142.0996   69.6770  228.2178 H   0  0  0  0  0  0  0  0  0  0  0  0
  140.2796   72.0377  228.7679 H   0  0  0  0  0  0  0  0  0  0  0  0
  142.0159   72.0495  228.5970 H   0  0  0  0  0  0  0  0  0  0  0  0
  140.5436   72.8090  226.4787 H   0  0  0  0  0  0  0  0  0  0  0  0
  141.8560   71.6918  226.1277 H   0  0  0  0  0  0  0  0  0  0  0  0
  141.2793   76.2792  219.3997 H   0  0  0  0  0  0  0  0  0  0  0  0
  142.0594   78.6255  219.4401 H   0  0  0  0  0  0  0  0  0  0  0  0
  142.5446   80.5956  220.6286 H   0  0  0  0  0  0  0  0  0  0  0  0
  142.6205   81.7958  222.8255 H   0  0  0  0  0  0  0  0  0  0  0  0
  141.9302   80.6509  224.8719 H   0  0  0  0  0  0  0  0  0  0  0  0
  141.1406   78.3013  224.8663 H   0  0  0  0  0  0  0  0  0  0  0  0
  1  2  2  0
  2  3  1  0
  3  4  1  0
  4  5  1  0
  5  6  2  0
  5  7  1  0
  7  8  1  0
  8  9  1  0
  9 10  1  0
 10 11  1  0
 11 12  1  0
 12 13  1  0
 13 14  1  0
 14 15  1  0
 15 16  1  0
 16 17  1  0
  2 18  1  0
 18 19  2  0
 19 20  1  0
 20 21  2  0
 21 22  1  0
 22 23  2  0
 23 24  1  0
 24 25  2  0
 25 26  1  0
 26 27  2  0
 12  7  1  0
 17 13  1  0
 27 18  1  0
 26 21  1  0
  3 28  1  0
  4 29  1  0
  4 30  1  0
  8 31  1  0
  8 32  1  0
  9 33  1  0
  9 34  1  0
 10 35  1  0
 10 36  1  0
 11 37  1  0
 11 38  1  0
 12 39  1  6
 13 40  1  0
 14 41  1  0
 14 42  1  0
 15 43  1  0
 15 44  1  0
 16 45  1  0
 16 46  1  0
 17 47  1  0
 17 48  1  0
 19 49  1  0
 20 50  1  0
 22 51  1  0
 23 52  1  0
 24 53  1  0
 25 54  1  0
M  END
>  <smiles>  (3) 
O=C(NCC(=O)N1CCCCC1C1CCCC1)c1ccc2ccccc2n1

>  <score_type>  (3) 
oracle

>  <origin>  (3) 
autodockgpu

>  <m_score__min__energy>  (3) 
-8.9100000000000001

>  <m_primary>  (3) 
energy

>  <rmsd>  (3) 
8.44294228116384

>  <m_score__min__rmsd>  (3) 
8.44294228116384

>  <meeko>  (3) 
{"free_energy": -8.73, "intermolecular_energy": -10.22, "internal_energy": -1.41, "cluster_size": 7, "cluster_id": 2, "rank_in_cluster": 2}

>  <energy>  (3) 
-8.89

>  <cluster_rmsd>  (3) 
0.3

>  <cluster>  (3) 
1

$$$$

     RDKit          3D

 54 57  0  0  0  0  0  0  0  0999 V2000
  141.2680   72.8530  221.9960 O   0  0  0  0  0  0  0  0  0  0  0  0
  140.2150   72.6850  222.6470 C   0  0  0  0  0  0  0  0  0  0  0  0
  139.1000   73.5160  222.3310 N   0  0  0  0  0  0  0  0  0  0  0  0
  139.2590   74.4870  221.2910 C   0  0  0  0  0  0  0  0  0  0  0  0
  139.4920   75.8490  221.7640 C   0  0  0  0  0  0  0  0  0  0  0  0
  138.7730   76.4580  222.6020 O   0  0  0  0  0  0  0  0  0  0  0  0
  140.6100   76.5670  221.2540 N   0  0  0  0  0  0  0  0  0  0  0  0
  141.8400   75.8760  220.8290 C   0  0  0  0  0  0  0  0  0  0  0  0
  142.0700   76.1820  219.3550 C   0  0  0  0  0  0  0  0  0  0  0  0
  142.0750   77.6620  219.1100 C   0  0  0  0  0  0  0  0  0  0  0  0
  140.7880   78.2410  219.6130 C   0  0  0  0  0  0  0  0  0  0  0  0
  140.6290   78.0110  221.1120 C   0  0  2  0  0  0  0  0  0  0  0  0
  141.7680   78.6410  221.8840 C   0  0  0  0  0  0  0  0  0  0  0  0
  141.9040   80.0930  221.5050 C   0  0  0  0  0  0  0  0  0  0  0  0
  142.0170   80.8820  222.7830 C   0  0  0  0  0  0  0  0  0  0  0  0
  142.2190   79.8820  223.8730 C   0  0  0  0  0  0  0  0  0  0  0  0
  141.4480   78.6670  223.3410 C   0  0  0  0  0  0  0  0  0  0  0  0
  140.1000   71.6830  223.6980 C   0  0  0  0  0  0  0  0  0  0  0  0
  139.4220   70.5300  223.4240 C   0  0  0  0  0  0  0  0  0  0  0  0
  139.2650   69.5290  224.3600 C   0  0  0  0  0  0  0  0  0  0  0  0
  139.8090   69.7050  225.6010 C   0  0  0  0  0  0  0  0  0  0  0  0
  139.6420   68.6920  226.5260 C   0  0  0  0  0  0  0  0  0  0  0  0
  140.1970   68.8860  227.7760 C   0  0  0  0  0  0  0  0  0  0  0  0
  140.8780   70.0420  228.0540 C   0  0  0  0  0  0  0  0  0  0  0  0
  141.0500   71.0580  227.1350 C   0  0  0  0  0  0  0  0  0  0  0  0
  140.4930   70.8710  225.8730 C   0  0  0  0  0  0  0  0  0  0  0  0
  140.6230   71.8330  224.9200 N   0  0  0  0  0  0  0  0  0  0  0  0
  138.2310   73.3610  222.8860 H   0  0  0  0  0  0  0  0  0  0  0  0
  140.1161   74.1878  220.6698 H   0  0  0  0  0  0  0  0  0  0  0  0
  138.3104   74.5073  220.7345 H   0  0  0  0  0  0  0  0  0  0  0  0
  142.6937   76.2359  221.4220 H   0  0  0  0  0  0  0  0  0  0  0  0
  141.7396   74.7913  220.9816 H   0  0  0  0  0  0  0  0  0  0  0  0
  143.0392   75.7627  219.0471 H   0  0  0  0  0  0  0  0  0  0  0  0
  141.2537   75.7318  218.7710 H   0  0  0  0  0  0  0  0  0  0  0  0
  142.9202   78.1218  219.6432 H   0  0  0  0  0  0  0  0  0  0  0  0
  142.1779   77.8614  218.0331 H   0  0  0  0  0  0  0  0  0  0  0  0
  140.7786   79.3226  219.4129 H   0  0  0  0  0  0  0  0  0  0  0  0
  139.9556   77.7435  219.0938 H   0  0  0  0  0  0  0  0  0  0  0  0
  139.7170   78.4736  221.5174 H   0  0  0  0  0  0  0  0  0  0  0  0
  142.6738   78.0576  221.6620 H   0  0  0  0  0  0  0  0  0  0  0  0
  142.8055   80.2389  220.8918 H   0  0  0  0  0  0  0  0  0  0  0  0
  141.0346   80.4250  220.9185 H   0  0  0  0  0  0  0  0  0  0  0  0
  142.8743   81.5693  222.7323 H   0  0  0  0  0  0  0  0  0  0  0  0
  141.1180   81.4910  222.9591 H   0  0  0  0  0  0  0  0  0  0  0  0
  143.2855   79.6498  224.0092 H   0  0  0  0  0  0  0  0  0  0  0  0
  141.8756   80.2270  224.8595 H   0  0  0  0  0  0  0  0  0  0  0  0
  141.7883   77.7433  223.8319 H   0  0  0  0  0  0  0  0  0  0  0  0
  140.3673   78.7356  223.5343 H   0  0  0  0  0  0  0  0  0  0  0  0
  138.9863   70.3948  222.4231 H   0  0  0  0  0  0  0  0  0  0  0  0
  138.7141   68.6095  224.1129 H   0  0  0  0  0  0  0  0  0  0  0  0
  139.0917   67.7724  226.2780 H   0  0  0  0  0  0  0  0  0  0  0  0
  140.0921   68.1111  228.5496 H   0  0  0  0  0  0  0  0  0  0  0  0
  141.3088   70.1667  229.0584 H   0  0  0  0  0  0  0  0  0  0  0  0
  141.6027   71.9746  227.3888 H   0  0  0  0  0  0  0  0  0  0  0  0
  1  2  2  0
  2  3  1  0
  3  4  1  0
  4  5  1  0
  5  6  2  0
  5  7  1  0
  7  8  1  0
  8  9  1  0
  9 10  1  0
 10 11  1  0
 11 12  1  0
 12 13  1  0
 13 14  1  0
 14 15  1  0
 15 16  1  0
 16 17  1  0
  2 18  1  0
 18 19  2  0
 19 20  1  0
 20 21  2  0
 21 22  1  0
 22 23  2  0
 23 24  1  0
 24 25  2  0
 25 26  1  0
 26 27  2  0
 12  7  1  0
 17 13  1  0
 27 18  1  0
 26 21  1  0
  3 28  1  0
  4 29  1  0
  4 30  1  0
  8 31  1  0
  8 32  1  0
  9 33  1  0
  9 34  1  0
 10 35  1  0
 10 36  1  0
 11 37  1  0
 11 38  1  0
 12 39  1  1
 13 40  1  0
 14 41  1  0
 14 42  1  0
 15 43  1  0
 15 44  1  0
 16 45  1  0
 16 46  1  0
 17 47  1  0
 17 48  1  0
 19 49  1  0
 20 50  1  0
 22 51  1  0
 23 52  1  0
 24 53  1  0
 25 54  1  0
M  END
>  <smiles>  (4) 
O=C(NCC(=O)N1CCCCC1C1CCCC1)c1ccc2ccccc2n1

>  <score_type>  (4) 
oracle

>  <origin>  (4) 
autodockgpu

>  <m_score__min__energy>  (4) 
-8.9100000000000001

>  <m_primary>  (4) 
energy

>  <rmsd>  (4) 
2.1266467132424483

>  <m_score__min__rmsd>  (4) 
2.1266467132424483

>  <meeko>  (4) 
{"free_energy": -8.85, "intermolecular_energy": -10.35, "internal_energy": -1.41, "cluster_size": 41, "cluster_id": 1, "rank_in_cluster": 13}

>  <energy>  (4) 
-8.88

>  <cluster_rmsd>  (4) 
0.33

>  <cluster>  (4) 
1

$$$$

     RDKit          3D

 54 57  0  0  0  0  0  0  0  0999 V2000
  141.2610   72.8380  221.9860 O   0  0  0  0  0  0  0  0  0  0  0  0
  140.2090   72.6700  222.6390 C   0  0  0  0  0  0  0  0  0  0  0  0
  139.0930   73.5000  222.3220 N   0  0  0  0  0  0  0  0  0  0  0  0
  139.2500   74.4680  221.2780 C   0  0  0  0  0  0  0  0  0  0  0  0
  139.4790   75.8310  221.7460 C   0  0  0  0  0  0  0  0  0  0  0  0
  138.7620   76.4400  222.5860 O   0  0  0  0  0  0  0  0  0  0  0  0
  140.5930   76.5530  221.2290 N   0  0  0  0  0  0  0  0  0  0  0  0
  141.8210   75.8650  220.7940 C   0  0  0  0  0  0  0  0  0  0  0  0
  142.0400   76.1730  219.3200 C   0  0  0  0  0  0  0  0  0  0  0  0
  142.0400   77.6540  219.0760 C   0  0  0  0  0  0  0  0  0  0  0  0
  140.7560   78.2290  219.5890 C   0  0  0  0  0  0  0  0  0  0  0  0
  140.6070   77.9970  221.0890 C   0  0  2  0  0  0  0  0  0  0  0  0
  141.7510   78.6280  221.8540 C   0  0  0  0  0  0  0  0  0  0  0  0
  141.8740   80.0840  221.4860 C   0  0  0  0  0  0  0  0  0  0  0  0
  141.9950   80.8640  222.7690 C   0  0  0  0  0  0  0  0  0  0  0  0
  142.2150   79.8560  223.8480 C   0  0  0  0  0  0  0  0  0  0  0  0
  141.4470   78.6400  223.3140 C   0  0  0  0  0  0  0  0  0  0  0  0
  140.0960   71.6720  223.6930 C   0  0  0  0  0  0  0  0  0  0  0  0
  139.4290   70.5120  223.4190 C   0  0  0  0  0  0  0  0  0  0  0  0
  139.2750   69.5130  224.3590 C   0  0  0  0  0  0  0  0  0  0  0  0
  139.8100   69.6990  225.6030 C   0  0  0  0  0  0  0  0  0  0  0  0
  139.6460   68.6880  226.5310 C   0  0  0  0  0  0  0  0  0  0  0  0
  140.1920   68.8920  227.7820 C   0  0  0  0  0  0  0  0  0  0  0  0
  140.8610   70.0560  228.0600 C   0  0  0  0  0  0  0  0  0  0  0  0
  141.0300   71.0690  227.1380 C   0  0  0  0  0  0  0  0  0  0  0  0
  140.4820   70.8720  225.8740 C   0  0  0  0  0  0  0  0  0  0  0  0
  140.6110   71.8310  224.9170 N   0  0  0  0  0  0  0  0  0  0  0  0
  138.2250   73.3460  222.8780 H   0  0  0  0  0  0  0  0  0  0  0  0
  140.1081   74.1688  220.6583 H   0  0  0  0  0  0  0  0  0  0  0  0
  138.3017   74.4837  220.7208 H   0  0  0  0  0  0  0  0  0  0  0  0
  142.6782   76.2257  221.3814 H   0  0  0  0  0  0  0  0  0  0  0  0
  141.7234   74.7799  220.9457 H   0  0  0  0  0  0  0  0  0  0  0  0
  143.0080   75.7562  219.0050 H   0  0  0  0  0  0  0  0  0  0  0  0
  141.2205   75.7217  218.7414 H   0  0  0  0  0  0  0  0  0  0  0  0
  142.8881   78.1153  219.6032 H   0  0  0  0  0  0  0  0  0  0  0  0
  142.1346   77.8547  217.9986 H   0  0  0  0  0  0  0  0  0  0  0  0
  140.7429   79.3108  219.3904 H   0  0  0  0  0  0  0  0  0  0  0  0
  139.9214   77.7297  219.0752 H   0  0  0  0  0  0  0  0  0  0  0  0
  139.6967   78.4571  221.5009 H   0  0  0  0  0  0  0  0  0  0  0  0
  142.6577   78.0521  221.6170 H   0  0  0  0  0  0  0  0  0  0  0  0
  142.7683   80.2406  220.8649 H   0  0  0  0  0  0  0  0  0  0  0  0
  140.9963   80.4150  220.9114 H   0  0  0  0  0  0  0  0  0  0  0  0
  142.8471   81.5575  222.7151 H   0  0  0  0  0  0  0  0  0  0  0  0
  141.0943   81.4660  222.9594 H   0  0  0  0  0  0  0  0  0  0  0  0
  143.2845   79.6301  223.9712 H   0  0  0  0  0  0  0  0  0  0  0  0
  141.8792   80.1902  224.8408 H   0  0  0  0  0  0  0  0  0  0  0  0
  141.7992   77.7148  223.7935 H   0  0  0  0  0  0  0  0  0  0  0  0
  140.3680   78.6996  223.5193 H   0  0  0  0  0  0  0  0  0  0  0  0
  139.0004   70.3692  222.4161 H   0  0  0  0  0  0  0  0  0  0  0  0
  138.7337   68.5877  224.1124 H   0  0  0  0  0  0  0  0  0  0  0  0
  139.1049   67.7628  226.2837 H   0  0  0  0  0  0  0  0  0  0  0  0
  140.0902   68.1189  228.5578 H   0  0  0  0  0  0  0  0  0  0  0  0
  141.2836   70.1890  229.0668 H   0  0  0  0  0  0  0  0  0  0  0  0
  141.5737   71.9912  227.3910 H   0  0  0  0  0  0  0  0  0  0  0  0
  1  2  2  0
  2  3  1  0
  3  4  1  0
  4  5  1  0
  5  6  2  0
  5  7  1  0
  7  8  1  0
  8  9  1  0
  9 10  1  0
 10 11  1  0
 11 12  1  0
 12 13  1  0
 13 14  1  0
 14 15  1  0
 15 16  1  0
 16 17  1  0
  2 18  1  0
 18 19  2  0
 19 20  1  0
 20 21  2  0
 21 22  1  0
 22 23  2  0
 23 24  1  0
 24 25  2  0
 25 26  1  0
 26 27  2  0
 12  7  1  0
 17 13  1  0
 27 18  1  0
 26 21  1  0
  3 28  1  0
  4 29  1  0
  4 30  1  0
  8 31  1  0
  8 32  1  0
  9 33  1  0
  9 34  1  0
 10 35  1  0
 10 36  1  0
 11 37  1  0
 11 38  1  0
 12 39  1  1
 13 40  1  0
 14 41  1  0
 14 42  1  0
 15 43  1  0
 15 44  1  0
 16 45  1  0
 16 46  1  0
 17 47  1  0
 17 48  1  0
 19 49  1  0
 20 50  1  0
 22 51  1  0
 23 52  1  0
 24 53  1  0
 25 54  1  0
M  END
>  <smiles>  (5) 
O=C(NCC(=O)N1CCCCC1C1CCCC1)c1ccc2ccccc2n1

>  <score_type>  (5) 
oracle

>  <origin>  (5) 
autodockgpu

>  <m_score__min__energy>  (5) 
-8.9100000000000001

>  <m_primary>  (5) 
energy

>  <rmsd>  (5) 
2.1063282706275728

>  <m_score__min__rmsd>  (5) 
2.1063282706275728

>  <meeko>  (5) 
{"free_energy": -8.86, "intermolecular_energy": -10.35, "internal_energy": -1.41, "cluster_size": 41, "cluster_id": 1, "rank_in_cluster": 12}

>  <energy>  (5) 
-8.88

>  <cluster_rmsd>  (5) 
0.29

>  <cluster>  (5) 
1

$$$$

     RDKit          3D

 54 57  0  0  0  0  0  0  0  0999 V2000
  140.2930   73.2690  222.6700 O   0  0  0  0  0  0  0  0  0  0  0  0
  140.0310   72.0500  222.7590 C   0  0  0  0  0  0  0  0  0  0  0  0
  139.6090   71.3750  221.5760 N   0  0  0  0  0  0  0  0  0  0  0  0
  139.5140   72.1340  220.3660 C   0  0  0  0  0  0  0  0  0  0  0  0
  140.6510   71.9810  219.4640 C   0  0  0  0  0  0  0  0  0  0  0  0
  140.9270   70.9340  218.8170 O   0  0  0  0  0  0  0  0  0  0  0  0
  141.5330   73.0840  219.2820 N   0  0  0  0  0  0  0  0  0  0  0  0
  141.5570   73.8520  218.0260 C   0  0  0  0  0  0  0  0  0  0  0  0
  141.2080   75.2980  218.3480 C   0  0  0  0  0  0  0  0  0  0  0  0
  142.1050   75.8400  219.4220 C   0  0  0  0  0  0  0  0  0  0  0  0
  142.0090   74.9540  220.6250 C   0  0  0  0  0  0  0  0  0  0  0  0
  142.4620   73.5340  220.3030 C   0  0  2  0  0  0  0  0  0  0  0  0
  143.8930   73.5170  219.8120 C   0  0  0  0  0  0  0  0  0  0  0  0
  144.7640   74.3220  220.7410 C   0  0  0  0  0  0  0  0  0  0  0  0
  145.9850   73.4940  221.0460 C   0  0  0  0  0  0  0  0  0  0  0  0
  145.9540   72.3430  220.0940 C   0  0  0  0  0  0  0  0  0  0  0  0
  144.4470   72.1340  219.8920 C   0  0  0  0  0  0  0  0  0  0  0  0
  140.1410   71.3190  224.0130 C   0  0  0  0  0  0  0  0  0  0  0  0
  140.7040   71.9500  225.0860 C   0  0  0  0  0  0  0  0  0  0  0  0
  140.8480   71.3320  226.3110 C   0  0  0  0  0  0  0  0  0  0  0  0
  140.4120   70.0450  226.4480 C   0  0  0  0  0  0  0  0  0  0  0  0
  140.5640   69.4410  227.6820 C   0  0  0  0  0  0  0  0  0  0  0  0
  140.1180   68.1400  227.8030 C   0  0  0  0  0  0  0  0  0  0  0  0
  139.5530   67.5030  226.7280 C   0  0  0  0  0  0  0  0  0  0  0  0
  139.3970   68.1000  225.4930 C   0  0  0  0  0  0  0  0  0  0  0  0
  139.8440   69.4110  225.3620 C   0  0  0  0  0  0  0  0  0  0  0  0
  139.7220   70.0580  224.1720 N   0  0  0  0  0  0  0  0  0  0  0  0
  139.3940   70.3590  221.6710 H   0  0  0  0  0  0  0  0  0  0  0  0
  138.6065   71.8163  219.8316 H   0  0  0  0  0  0  0  0  0  0  0  0
  139.4905   73.1931  220.6624 H   0  0  0  0  0  0  0  0  0  0  0  0
  142.5602   73.8017  217.5776 H   0  0  0  0  0  0  0  0  0  0  0  0
  140.8320   73.4355  217.3112 H   0  0  0  0  0  0  0  0  0  0  0  0
  141.3251   75.9074  217.4397 H   0  0  0  0  0  0  0  0  0  0  0  0
  140.1686   75.3369  218.7060 H   0  0  0  0  0  0  0  0  0  0  0  0
  143.1436   75.8607  219.0603 H   0  0  0  0  0  0  0  0  0  0  0  0
  141.7960   76.8622  219.6857 H   0  0  0  0  0  0  0  0  0  0  0  0
  142.6474   75.3619  221.4226 H   0  0  0  0  0  0  0  0  0  0  0  0
  140.9582   74.9190  220.9483 H   0  0  0  0  0  0  0  0  0  0  0  0
  142.4524   72.8757  221.1842 H   0  0  0  0  0  0  0  0  0  0  0  0
  143.8892   73.9108  218.7849 H   0  0  0  0  0  0  0  0  0  0  0  0
  145.0602   75.2640  220.2564 H   0  0  0  0  0  0  0  0  0  0  0  0
  144.2213   74.5682  221.6656 H   0  0  0  0  0  0  0  0  0  0  0  0
  146.8975   74.0896  220.8952 H   0  0  0  0  0  0  0  0  0  0  0  0
  145.9869   73.1509  222.0911 H   0  0  0  0  0  0  0  0  0  0  0  0
  146.4528   72.5949  219.1465 H   0  0  0  0  0  0  0  0  0  0  0  0
  146.4795   71.4495  220.4622 H   0  0  0  0  0  0  0  0  0  0  0  0
  144.2511   71.5809  218.9616 H   0  0  0  0  0  0  0  0  0  0  0  0
  143.9914   71.5438  220.7008 H   0  0  0  0  0  0  0  0  0  0  0  0
  141.0544   72.9861  224.9692 H   0  0  0  0  0  0  0  0  0  0  0  0
  141.3040   71.8642  227.1588 H   0  0  0  0  0  0  0  0  0  0  0  0
  141.0200   69.9732  228.5299 H   0  0  0  0  0  0  0  0  0  0  0  0
  140.2161   67.6133  228.7637 H   0  0  0  0  0  0  0  0  0  0  0  0
  139.2075   66.4665  226.8559 H   0  0  0  0  0  0  0  0  0  0  0  0
  138.9393   67.5626  224.6494 H   0  0  0  0  0  0  0  0  0  0  0  0
  1  2  2  0
  2  3  1  0
  3  4  1  0
  4  5  1  0
  5  6  2  0
  5  7  1  0
  7  8  1  0
  8  9  1  0
  9 10  1  0
 10 11  1  0
 11 12  1  0
 12 13  1  0
 13 14  1  0
 14 15  1  0
 15 16  1  0
 16 17  1  0
  2 18  1  0
 18 19  2  0
 19 20  1  0
 20 21  2  0
 21 22  1  0
 22 23  2  0
 23 24  1  0
 24 25  2  0
 25 26  1  0
 26 27  2  0
 12  7  1  0
 17 13  1  0
 27 18  1  0
 26 21  1  0
  3 28  1  0
  4 29  1  0
  4 30  1  0
  8 31  1  0
  8 32  1  0
  9 33  1  0
  9 34  1  0
 10 35  1  0
 10 36  1  0
 11 37  1  0
 11 38  1  0
 12 39  1  1
 13 40  1  0
 14 41  1  0
 14 42  1  0
 15 43  1  0
 15 44  1  0
 16 45  1  0
 16 46  1  0
 17 47  1  0
 17 48  1  0
 19 49  1  0
 20 50  1  0
 22 51  1  0
 23 52  1  0
 24 53  1  0
 25 54  1  0
M  END
>  <smiles>  (6) 
O=C(NCC(=O)N1CCCCC1C1CCCC1)c1ccc2ccccc2n1

>  <score_type>  (6) 
oracle

>  <origin>  (6) 
autodockgpu

>  <m_score__min__energy>  (6) 
-8.9100000000000001

>  <m_primary>  (6) 
energy

>  <rmsd>  (6) 
3.355455937929437

>  <m_score__min__rmsd>  (6) 
3.355455937929437

>  <meeko>  (6) 
{"free_energy": -7.42, "intermolecular_energy": -8.91, "internal_energy": -1.88, "cluster_size": 1, "cluster_id": 4, "rank_in_cluster": 1}

>  <energy>  (6) 
-8.88

>  <cluster_rmsd>  (6) 
0.21

>  <cluster>  (6) 
1

$$$$

     RDKit          3D

 54 57  0  0  0  0  0  0  0  0999 V2000
  141.2780   72.5430  221.8660 O   0  0  0  0  0  0  0  0  0  0  0  0
  140.2930   72.5170  222.6330 C   0  0  0  0  0  0  0  0  0  0  0  0
  139.2270   73.4280  222.3740 N   0  0  0  0  0  0  0  0  0  0  0  0
  139.3550   74.3110  221.2540 C   0  0  0  0  0  0  0  0  0  0  0  0
  139.4990   75.7210  221.6070 C   0  0  0  0  0  0  0  0  0  0  0  0
  138.6770   76.3820  222.2980 O   0  0  0  0  0  0  0  0  0  0  0  0
  140.6470   76.4260  221.1470 N   0  0  0  0  0  0  0  0  0  0  0  0
  141.8930   75.7230  220.7940 C   0  0  0  0  0  0  0  0  0  0  0  0
  142.2000   76.0100  219.3320 C   0  0  0  0  0  0  0  0  0  0  0  0
  142.2280   77.4880  219.0700 C   0  0  0  0  0  0  0  0  0  0  0  0
  140.9210   78.0790  219.4980 C   0  0  0  0  0  0  0  0  0  0  0  0
  140.6820   77.8690  220.9900 C   0  0  2  0  0  0  0  0  0  0  0  0
  141.7840   78.5000  221.8120 C   0  0  0  0  0  0  0  0  0  0  0  0
  141.8710   79.9740  221.5100 C   0  0  0  0  0  0  0  0  0  0  0  0
  141.9320   80.7010  222.8270 C   0  0  0  0  0  0  0  0  0  0  0  0
  142.1550   79.6550  223.8690 C   0  0  0  0  0  0  0  0  0  0  0  0
  141.4400   78.4410  223.2630 C   0  0  0  0  0  0  0  0  0  0  0  0
  140.2070   71.6010  223.7610 C   0  0  0  0  0  0  0  0  0  0  0  0
  139.6280   70.3790  223.5630 C   0  0  0  0  0  0  0  0  0  0  0  0
  139.5050   69.4510  224.5760 C   0  0  0  0  0  0  0  0  0  0  0  0
  139.9800   69.7700  225.8160 C   0  0  0  0  0  0  0  0  0  0  0  0
  139.8490   68.8280  226.8180 C   0  0  0  0  0  0  0  0  0  0  0  0
  140.3350   69.1670  228.0660 C   0  0  0  0  0  0  0  0  0  0  0  0
  140.9160   70.3920  228.2680 C   0  0  0  0  0  0  0  0  0  0  0  0
  141.0510   71.3380  227.2720 C   0  0  0  0  0  0  0  0  0  0  0  0
  140.5640   71.0040  226.0110 C   0  0  0  0  0  0  0  0  0  0  0  0
  140.6650   71.8910  224.9840 N   0  0  0  0  0  0  0  0  0  0  0  0
  138.4140   73.3920  223.0250 H   0  0  0  0  0  0  0  0  0  0  0  0
  140.2421   74.0088  220.6780 H   0  0  0  0  0  0  0  0  0  0  0  0
  138.4201   74.2262  220.6806 H   0  0  0  0  0  0  0  0  0  0  0  0
  142.7173   76.0851  221.4261 H   0  0  0  0  0  0  0  0  0  0  0  0
  141.7782   74.6407  220.9538 H   0  0  0  0  0  0  0  0  0  0  0  0
  143.1808   75.5809  219.0791 H   0  0  0  0  0  0  0  0  0  0  0  0
  141.4113   75.5584  218.7123 H   0  0  0  0  0  0  0  0  0  0  0  0
  143.0470   77.9492  219.6414 H   0  0  0  0  0  0  0  0  0  0  0  0
  142.3891   77.6744  217.9979 H   0  0  0  0  0  0  0  0  0  0  0  0
  140.9281   79.1580  219.2843 H   0  0  0  0  0  0  0  0  0  0  0  0
  140.1142   77.5785  218.9425 H   0  0  0  0  0  0  0  0  0  0  0  0
  139.7536   78.3424  221.3420 H   0  0  0  0  0  0  0  0  0  0  0  0
  142.7140   77.9620  221.5762 H   0  0  0  0  0  0  0  0  0  0  0  0
  142.7766   80.1845  220.9221 H   0  0  0  0  0  0  0  0  0  0  0  0
  140.9992   80.3026  220.9252 H   0  0  0  0  0  0  0  0  0  0  0  0
  142.7626   81.4222  222.8265 H   0  0  0  0  0  0  0  0  0  0  0  0
  141.0074   81.2658  223.0168 H   0  0  0  0  0  0  0  0  0  0  0  0
  143.2274   79.4564  224.0124 H   0  0  0  0  0  0  0  0  0  0  0  0
  141.7831   79.9361  224.8653 H   0  0  0  0  0  0  0  0  0  0  0  0
  141.8073   77.5070  223.7133 H   0  0  0  0  0  0  0  0  0  0  0  0
  140.3545   78.4599  223.4397 H   0  0  0  0  0  0  0  0  0  0  0  0
  139.2473   70.1271  222.5622 H   0  0  0  0  0  0  0  0  0  0  0  0
  139.0342   68.4746  224.3890 H   0  0  0  0  0  0  0  0  0  0  0  0
  139.3786   67.8515  226.6305 H   0  0  0  0  0  0  0  0  0  0  0  0
  140.2556   68.4528  228.8988 H   0  0  0  0  0  0  0  0  0  0  0  0
  141.2930   70.6329  229.2729 H   0  0  0  0  0  0  0  0  0  0  0  0
  141.5225   72.3127  227.4659 H   0  0  0  0  0  0  0  0  0  0  0  0
  1  2  2  0
  2  3  1  0
  3  4  1  0
  4  5  1  0
  5  6  2  0
  5  7  1  0
  7  8  1  0
  8  9  1  0
  9 10  1  0
 10 11  1  0
 11 12  1  0
 12 13  1  0
 13 14  1  0
 14 15  1  0
 15 16  1  0
 16 17  1  0
  2 18  1  0
 18 19  2  0
 19 20  1  0
 20 21  2  0
 21 22  1  0
 22 23  2  0
 23 24  1  0
 24 25  2  0
 25 26  1  0
 26 27  2  0
 12  7  1  0
 17 13  1  0
 27 18  1  0
 26 21  1  0
  3 28  1  0
  4 29  1  0
  4 30  1  0
  8 31  1  0
  8 32  1  0
  9 33  1  0
  9 34  1  0
 10 35  1  0
 10 36  1  0
 11 37  1  0
 11 38  1  0
 12 39  1  1
 13 40  1  0
 14 41  1  0
 14 42  1  0
 15 43  1  0
 15 44  1  0
 16 45  1  0
 16 46  1  0
 17 47  1  0
 17 48  1  0
 19 49  1  0
 20 50  1  0
 22 51  1  0
 23 52  1  0
 24 53  1  0
 25 54  1  0
M  END
>  <smiles>  (7) 
O=C(NCC(=O)N1CCCCC1C1CCCC1)c1ccc2ccccc2n1

>  <score_type>  (7) 
oracle

>  <origin>  (7) 
autodockgpu

>  <m_score__min__energy>  (7) 
-8.9100000000000001

>  <m_primary>  (7) 
energy

>  <rmsd>  (7) 
2.080123733857311

>  <m_score__min__rmsd>  (7) 
2.080123733857311

>  <meeko>  (7) 
{"free_energy": -8.82, "intermolecular_energy": -10.31, "internal_energy": -1.42, "cluster_size": 41, "cluster_id": 1, "rank_in_cluster": 18}

>  <energy>  (7) 
-8.88

>  <cluster_rmsd>  (7) 
0.22

>  <cluster>  (7) 
1

$$$$

     RDKit          3D

 54 57  0  0  0  0  0  0  0  0999 V2000
  141.2240   72.9680  222.0460 O   0  0  0  0  0  0  0  0  0  0  0  0
  140.1630   72.7570  222.6710 C   0  0  0  0  0  0  0  0  0  0  0  0
  139.0290   73.5570  222.3400 N   0  0  0  0  0  0  0  0  0  0  0  0
  139.1800   74.5460  221.3150 C   0  0  0  0  0  0  0  0  0  0  0  0
  139.4760   75.8880  221.8080 C   0  0  0  0  0  0  0  0  0  0  0  0
  138.8060   76.5040  222.6800 O   0  0  0  0  0  0  0  0  0  0  0  0
  140.6030   76.5770  221.2770 N   0  0  0  0  0  0  0  0  0  0  0  0
  141.8260   75.8600  220.8770 C   0  0  0  0  0  0  0  0  0  0  0  0
  142.0620   76.1150  219.3950 C   0  0  0  0  0  0  0  0  0  0  0  0
  142.0830   77.5870  219.1020 C   0  0  0  0  0  0  0  0  0  0  0  0
  140.8020   78.1950  219.5820 C   0  0  0  0  0  0  0  0  0  0  0  0
  140.6370   78.0160  221.0880 C   0  0  2  0  0  0  0  0  0  0  0  0
  141.7820   78.6580  221.8410 C   0  0  0  0  0  0  0  0  0  0  0  0
  141.8800   80.1170  221.4800 C   0  0  0  0  0  0  0  0  0  0  0  0
  142.0070   80.8930  222.7650 C   0  0  0  0  0  0  0  0  0  0  0  0
  142.2540   79.8820  223.8360 C   0  0  0  0  0  0  0  0  0  0  0  0
  141.4960   78.6590  223.3060 C   0  0  0  0  0  0  0  0  0  0  0  0
  140.0560   71.7400  223.7060 C   0  0  0  0  0  0  0  0  0  0  0  0
  139.3760   70.5900  223.4190 C   0  0  0  0  0  0  0  0  0  0  0  0
  139.2270   69.5740  224.3410 C   0  0  0  0  0  0  0  0  0  0  0  0
  139.7800   69.7310  225.5800 C   0  0  0  0  0  0  0  0  0  0  0  0
  139.6210   68.7030  226.4900 C   0  0  0  0  0  0  0  0  0  0  0  0
  140.1860   68.8780  227.7380 C   0  0  0  0  0  0  0  0  0  0  0  0
  140.8690   70.0300  228.0300 C   0  0  0  0  0  0  0  0  0  0  0  0
  141.0330   71.0600  227.1250 C   0  0  0  0  0  0  0  0  0  0  0  0
  140.4660   70.8930  225.8650 C   0  0  0  0  0  0  0  0  0  0  0  0
  140.5890   71.8700  224.9260 N   0  0  0  0  0  0  0  0  0  0  0  0
  138.1540   73.3670  222.8720 H   0  0  0  0  0  0  0  0  0  0  0  0
  140.0021   74.2335  220.6544 H   0  0  0  0  0  0  0  0  0  0  0  0
  138.2121   74.6095  220.7963 H   0  0  0  0  0  0  0  0  0  0  0  0
  142.6824   76.2301  221.4598 H   0  0  0  0  0  0  0  0  0  0  0  0
  141.7136   74.7819  221.0644 H   0  0  0  0  0  0  0  0  0  0  0  0
  143.0274   75.6758  219.1031 H   0  0  0  0  0  0  0  0  0  0  0  0
  141.2423   75.6544  218.8240 H   0  0  0  0  0  0  0  0  0  0  0  0
  142.9317   78.0550  219.6223 H   0  0  0  0  0  0  0  0  0  0  0  0
  142.1905   77.7501  218.0195 H   0  0  0  0  0  0  0  0  0  0  0  0
  140.8044   79.2695  219.3465 H   0  0  0  0  0  0  0  0  0  0  0  0
  139.9656   77.6893  219.0773 H   0  0  0  0  0  0  0  0  0  0  0  0
  139.7291   78.5012  221.4758 H   0  0  0  0  0  0  0  0  0  0  0  0
  142.6932   78.0956  221.5890 H   0  0  0  0  0  0  0  0  0  0  0  0
  142.7638   80.2892  220.8482 H   0  0  0  0  0  0  0  0  0  0  0  0
  140.9899   80.4384  220.9193 H   0  0  0  0  0  0  0  0  0  0  0  0
  142.8492   81.5979  222.7037 H   0  0  0  0  0  0  0  0  0  0  0  0
  141.1013   81.4827  222.9698 H   0  0  0  0  0  0  0  0  0  0  0  0
  143.3279   79.6698  223.9445 H   0  0  0  0  0  0  0  0  0  0  0  0
  141.9262   80.2067  224.8346 H   0  0  0  0  0  0  0  0  0  0  0  0
  141.8665   77.7363  223.7765 H   0  0  0  0  0  0  0  0  0  0  0  0
  140.4190   78.7031  223.5251 H   0  0  0  0  0  0  0  0  0  0  0  0
  138.9325   70.4701  222.4195 H   0  0  0  0  0  0  0  0  0  0  0  0
  138.6751   68.6579  224.0837 H   0  0  0  0  0  0  0  0  0  0  0  0
  139.0694   67.7869  226.2320 H   0  0  0  0  0  0  0  0  0  0  0  0
  140.0876   68.0907  228.4999 H   0  0  0  0  0  0  0  0  0  0  0  0
  141.3073   70.1392  229.0330 H   0  0  0  0  0  0  0  0  0  0  0  0
  141.5876   71.9727  227.3885 H   0  0  0  0  0  0  0  0  0  0  0  0
  1  2  2  0
  2  3  1  0
  3  4  1  0
  4  5  1  0
  5  6  2  0
  5  7  1  0
  7  8  1  0
  8  9  1  0
  9 10  1  0
 10 11  1  0
 11 12  1  0
 12 13  1  0
 13 14  1  0
 14 15  1  0
 15 16  1  0
 16 17  1  0
  2 18  1  0
 18 19  2  0
 19 20  1  0
 20 21  2  0
 21 22  1  0
 22 23  2  0
 23 24  1  0
 24 25  2  0
 25 26  1  0
 26 27  2  0
 12  7  1  0
 17 13  1  0
 27 18  1  0
 26 21  1  0
  3 28  1  0
  4 29  1  0
  4 30  1  0
  8 31  1  0
  8 32  1  0
  9 33  1  0
  9 34  1  0
 10 35  1  0
 10 36  1  0
 11 37  1  0
 11 38  1  0
 12 39  1  1
 13 40  1  0
 14 41  1  0
 14 42  1  0
 15 43  1  0
 15 44  1  0
 16 45  1  0
 16 46  1  0
 17 47  1  0
 17 48  1  0
 19 49  1  0
 20 50  1  0
 22 51  1  0
 23 52  1  0
 24 53  1  0
 25 54  1  0
M  END
>  <smiles>  (8) 
O=C(NCC(=O)N1CCCCC1C1CCCC1)c1ccc2ccccc2n1

>  <score_type>  (8) 
oracle

>  <origin>  (8) 
autodockgpu

>  <m_score__min__energy>  (8) 
-8.9100000000000001

>  <m_primary>  (8) 
energy

>  <rmsd>  (8) 
2.1328099721502336

>  <m_score__min__rmsd>  (8) 
2.1328099721502336

>  <meeko>  (8) 
{"free_energy": -8.81, "intermolecular_energy": -10.3, "internal_energy": -1.43, "cluster_size": 41, "cluster_id": 1, "rank_in_cluster": 20}

>  <energy>  (8) 
-8.88

>  <cluster_rmsd>  (8) 
0.11

>  <cluster>  (8) 
1

$$$$

     RDKit          3D

 54 57  0  0  0  0  0  0  0  0999 V2000
  141.2700   72.8360  221.9990 O   0  0  0  0  0  0  0  0  0  0  0  0
  140.2220   72.6790  222.6610 C   0  0  0  0  0  0  0  0  0  0  0  0
  139.1070   73.5100  222.3460 N   0  0  0  0  0  0  0  0  0  0  0  0
  139.2600   74.4690  221.2930 C   0  0  0  0  0  0  0  0  0  0  0  0
  139.4800   75.8380  221.7490 C   0  0  0  0  0  0  0  0  0  0  0  0
  138.7520   76.4540  222.5730 O   0  0  0  0  0  0  0  0  0  0  0  0
  140.5990   76.5560  221.2370 N   0  0  0  0  0  0  0  0  0  0  0  0
  141.8310   75.8660  220.8190 C   0  0  0  0  0  0  0  0  0  0  0  0
  142.0640   76.1640  219.3450 C   0  0  0  0  0  0  0  0  0  0  0  0
  142.0660   77.6430  219.0910 C   0  0  0  0  0  0  0  0  0  0  0  0
  140.7770   78.2210  219.5870 C   0  0  0  0  0  0  0  0  0  0  0  0
  140.6140   78.0000  221.0870 C   0  0  2  0  0  0  0  0  0  0  0  0
  141.7490   78.6370  221.8580 C   0  0  0  0  0  0  0  0  0  0  0  0
  141.8700   80.0920  221.4860 C   0  0  0  0  0  0  0  0  0  0  0  0
  141.9790   80.8760  222.7670 C   0  0  0  0  0  0  0  0  0  0  0  0
  142.1950   79.8730  223.8520 C   0  0  0  0  0  0  0  0  0  0  0  0
  141.4340   78.6530  223.3160 C   0  0  0  0  0  0  0  0  0  0  0  0
  140.1130   71.6890  223.7240 C   0  0  0  0  0  0  0  0  0  0  0  0
  139.4570   70.5210  223.4580 C   0  0  0  0  0  0  0  0  0  0  0  0
  139.3070   69.5300  224.4060 C   0  0  0  0  0  0  0  0  0  0  0  0
  139.8350   69.7310  225.6500 C   0  0  0  0  0  0  0  0  0  0  0  0
  139.6760   68.7280  226.5870 C   0  0  0  0  0  0  0  0  0  0  0  0
  140.2160   68.9480  227.8390 C   0  0  0  0  0  0  0  0  0  0  0  0
  140.8740   70.1190  228.1090 C   0  0  0  0  0  0  0  0  0  0  0  0
  141.0380   71.1250  227.1780 C   0  0  0  0  0  0  0  0  0  0  0  0
  140.4970   70.9120  225.9140 C   0  0  0  0  0  0  0  0  0  0  0  0
  140.6210   71.8630  224.9490 N   0  0  0  0  0  0  0  0  0  0  0  0
  138.2430   73.3630  222.9090 H   0  0  0  0  0  0  0  0  0  0  0  0
  140.1210   74.1692  220.6776 H   0  0  0  0  0  0  0  0  0  0  0  0
  138.3128   74.4737  220.7338 H   0  0  0  0  0  0  0  0  0  0  0  0
  142.6823   76.2313  221.4122 H   0  0  0  0  0  0  0  0  0  0  0  0
  141.7326   74.7819  220.9773 H   0  0  0  0  0  0  0  0  0  0  0  0
  143.0351   75.7453  219.0421 H   0  0  0  0  0  0  0  0  0  0  0  0
  141.2502   75.7085  218.7617 H   0  0  0  0  0  0  0  0  0  0  0  0
  142.9086   78.1082  219.6236 H   0  0  0  0  0  0  0  0  0  0  0  0
  142.1713   77.8363  218.0133 H   0  0  0  0  0  0  0  0  0  0  0  0
  140.7652   79.3013  219.3802 H   0  0  0  0  0  0  0  0  0  0  0  0
  139.9475   77.7176  219.0688 H   0  0  0  0  0  0  0  0  0  0  0  0
  139.6998   78.4627  221.4872 H   0  0  0  0  0  0  0  0  0  0  0  0
  142.6593   78.0632  221.6299 H   0  0  0  0  0  0  0  0  0  0  0  0
  142.7683   80.2495  220.8710 H   0  0  0  0  0  0  0  0  0  0  0  0
  140.9956   80.4184  220.9038 H   0  0  0  0  0  0  0  0  0  0  0  0
  142.8290   81.5724  222.7167 H   0  0  0  0  0  0  0  0  0  0  0  0
  141.0743   81.4747  222.9488 H   0  0  0  0  0  0  0  0  0  0  0  0
  143.2643   79.6508  223.9836 H   0  0  0  0  0  0  0  0  0  0  0  0
  141.8520   80.2097  224.8415 H   0  0  0  0  0  0  0  0  0  0  0  0
  141.7849   77.7302  223.8011 H   0  0  0  0  0  0  0  0  0  0  0  0
  140.3533   78.7105  223.5130 H   0  0  0  0  0  0  0  0  0  0  0  0
  139.0342   70.3653  222.4545 H   0  0  0  0  0  0  0  0  0  0  0  0
  138.7739   68.5983  224.1656 H   0  0  0  0  0  0  0  0  0  0  0  0
  139.1432   67.7961  226.3466 H   0  0  0  0  0  0  0  0  0  0  0  0
  140.1176   68.1811  228.6214 H   0  0  0  0  0  0  0  0  0  0  0  0
  141.2917   70.2646  229.1161 H   0  0  0  0  0  0  0  0  0  0  0  0
  141.5728   72.0541  227.4246 H   0  0  0  0  0  0  0  0  0  0  0  0
  1  2  2  0
  2  3  1  0
  3  4  1  0
  4  5  1  0
  5  6  2  0
  5  7  1  0
  7  8  1  0
  8  9  1  0
  9 10  1  0
 10 11  1  0
 11 12  1  0
 12 13  1  0
 13 14  1  0
 14 15  1  0
 15 16  1  0
 16 17  1  0
  2 18  1  0
 18 19  2  0
 19 20  1  0
 20 21  2  0
 21 22  1  0
 22 23  2  0
 23 24  1  0
 24 25  2  0
 25 26  1  0
 26 27  2  0
 12  7  1  0
 17 13  1  0
 27 18  1  0
 26 21  1  0
  3 28  1  0
  4 29  1  0
  4 30  1  0
  8 31  1  0
  8 32  1  0
  9 33  1  0
  9 34  1  0
 10 35  1  0
 10 36  1  0
 11 37  1  0
 11 38  1  0
 12 39  1  1
 13 40  1  0
 14 41  1  0
 14 42  1  0
 15 43  1  0
 15 44  1  0
 16 45  1  0
 16 46  1  0
 17 47  1  0
 17 48  1  0
 19 49  1  0
 20 50  1  0
 22 51  1  0
 23 52  1  0
 24 53  1  0
 25 54  1  0
M  END
>  <smiles>  (9) 
O=C(NCC(=O)N1CCCCC1C1CCCC1)c1ccc2ccccc2n1

>  <score_type>  (9) 
oracle

>  <origin>  (9) 
autodockgpu

>  <m_score__min__energy>  (9) 
-8.9100000000000001

>  <m_primary>  (9) 
energy

>  <rmsd>  (9) 
2.117321934959292

>  <m_score__min__rmsd>  (9) 
2.117321934959292

>  <meeko>  (9) 
{"free_energy": -8.87, "intermolecular_energy": -10.37, "internal_energy": -1.41, "cluster_size": 41, "cluster_id": 1, "rank_in_cluster": 9}

>  <energy>  (9) 
-8.87

>  <cluster_rmsd>  (9) 
0.34

>  <cluster>  (9) 
1

$$$$

     RDKit          3D

 54 57  0  0  0  0  0  0  0  0999 V2000
  141.3390   71.9630  221.6120 O   0  0  0  0  0  0  0  0  0  0  0  0
  140.5520   72.3120  222.5170 C   0  0  0  0  0  0  0  0  0  0  0  0
  139.8630   73.5510  222.3550 N   0  0  0  0  0  0  0  0  0  0  0  0
  140.1180   74.3110  221.1690 C   0  0  0  0  0  0  0  0  0  0  0  0
  139.8920   75.7470  221.3090 C   0  0  0  0  0  0  0  0  0  0  0  0
  138.8520   76.2740  221.7880 O   0  0  0  0  0  0  0  0  0  0  0  0
  140.9120   76.6430  220.8790 N   0  0  0  0  0  0  0  0  0  0  0  0
  142.1940   76.1520  220.3440 C   0  0  0  0  0  0  0  0  0  0  0  0
  142.3430   76.6700  218.9210 C   0  0  0  0  0  0  0  0  0  0  0  0
  142.1830   78.1610  218.8740 C   0  0  0  0  0  0  0  0  0  0  0  0
  140.8590   78.5250  219.4710 C   0  0  0  0  0  0  0  0  0  0  0  0
  140.7720   78.0870  220.9290 C   0  0  2  0  0  0  0  0  0  0  0  0
  141.8620   78.7320  221.7570 C   0  0  0  0  0  0  0  0  0  0  0  0
  141.9060   80.2130  221.4850 C   0  0  0  0  0  0  0  0  0  0  0  0
  141.9570   80.9140  222.8170 C   0  0  0  0  0  0  0  0  0  0  0  0
  142.2160   79.8530  223.8350 C   0  0  0  0  0  0  0  0  0  0  0  0
  141.5310   78.6320  223.2090 C   0  0  0  0  0  0  0  0  0  0  0  0
  140.3250   71.5060  223.7080 C   0  0  0  0  0  0  0  0  0  0  0  0
  139.6840   70.3070  223.5680 C   0  0  0  0  0  0  0  0  0  0  0  0
  139.4280   69.4800  224.6420 C   0  0  0  0  0  0  0  0  0  0  0  0
  139.8310   69.8810  225.8850 C   0  0  0  0  0  0  0  0  0  0  0  0
  139.5670   69.0400  226.9490 C   0  0  0  0  0  0  0  0  0  0  0  0
  139.9800   69.4590  228.1980 C   0  0  0  0  0  0  0  0  0  0  0  0
  140.6230   70.6610  228.3420 C   0  0  0  0  0  0  0  0  0  0  0  0
  140.8910   71.5060  227.2840 C   0  0  0  0  0  0  0  0  0  0  0  0
  140.4770   71.0910  226.0210 C   0  0  0  0  0  0  0  0  0  0  0  0
  140.7100   71.8760  224.9340 N   0  0  0  0  0  0  0  0  0  0  0  0
  139.2120   73.8260  223.1210 H   0  0  0  0  0  0  0  0  0  0  0  0
  141.1679   74.1551  220.8803 H   0  0  0  0  0  0  0  0  0  0  0  0
  139.4055   73.9549  220.4103 H   0  0  0  0  0  0  0  0  0  0  0  0
  143.0232   76.5229  220.9643 H   0  0  0  0  0  0  0  0  0  0  0  0
  142.2140   75.0522  220.3528 H   0  0  0  0  0  0  0  0  0  0  0  0
  143.3410   76.4029  218.5433 H   0  0  0  0  0  0  0  0  0  0  0  0
  141.5608   76.2130  218.2971 H   0  0  0  0  0  0  0  0  0  0  0  0
  142.9909   78.6375  219.4487 H   0  0  0  0  0  0  0  0  0  0  0  0
  142.2303   78.5085  217.8314 H   0  0  0  0  0  0  0  0  0  0  0  0
  140.7283   79.6158  219.4157 H   0  0  0  0  0  0  0  0  0  0  0  0
  140.0686   78.0103  218.9051 H   0  0  0  0  0  0  0  0  0  0  0  0
  139.8291   78.3905  221.4074 H   0  0  0  0  0  0  0  0  0  0  0  0
  142.8052   78.2258  221.5038 H   0  0  0  0  0  0  0  0  0  0  0  0
  142.8010   80.4606  220.8953 H   0  0  0  0  0  0  0  0  0  0  0  0
  141.0212   80.5294  220.9131 H   0  0  0  0  0  0  0  0  0  0  0  0
  142.7676   81.6575  222.8261 H   0  0  0  0  0  0  0  0  0  0  0  0
  141.0188   81.4493  223.0250 H   0  0  0  0  0  0  0  0  0  0  0  0
  143.2945   79.6815  223.9673 H   0  0  0  0  0  0  0  0  0  0  0  0
  141.8429   80.1030  224.8392 H   0  0  0  0  0  0  0  0  0  0  0  0
  141.9284   77.6997  223.6366 H   0  0  0  0  0  0  0  0  0  0  0  0
  140.4468   78.6156  223.3942 H   0  0  0  0  0  0  0  0  0  0  0  0
  139.3614   69.9908  222.5650 H   0  0  0  0  0  0  0  0  0  0  0  0
  138.9111   68.5193  224.5012 H   0  0  0  0  0  0  0  0  0  0  0  0
  139.0506   68.0791  226.8072 H   0  0  0  0  0  0  0  0  0  0  0  0
  139.7928   68.8273  229.0789 H   0  0  0  0  0  0  0  0  0  0  0  0
  140.9408   70.9670  229.3496 H   0  0  0  0  0  0  0  0  0  0  0  0
  141.4089   72.4651  227.4321 H   0  0  0  0  0  0  0  0  0  0  0  0
  1  2  2  0
  2  3  1  0
  3  4  1  0
  4  5  1  0
  5  6  2  0
  5  7  1  0
  7  8  1  0
  8  9  1  0
  9 10  1  0
 10 11  1  0
 11 12  1  0
 12 13  1  0
 13 14  1  0
 14 15  1  0
 15 16  1  0
 16 17  1  0
  2 18  1  0
 18 19  2  0
 19 20  1  0
 20 21  2  0
 21 22  1  0
 22 23  2  0
 23 24  1  0
 24 25  2  0
 25 26  1  0
 26 27  2  0
 12  7  1  0
 17 13  1  0
 27 18  1  0
 26 21  1  0
  3 28  1  0
  4 29  1  0
  4 30  1  0
  8 31  1  0
  8 32  1  0
  9 33  1  0
  9 34  1  0
 10 35  1  0
 10 36  1  0
 11 37  1  0
 11 38  1  0
 12 39  1  1
 13 40  1  0
 14 41  1  0
 14 42  1  0
 15 43  1  0
 15 44  1  0
 16 45  1  0
 16 46  1  0
 17 47  1  0
 17 48  1  0
 19 49  1  0
 20 50  1  0
 22 51  1  0
 23 52  1  0
 24 53  1  0
 25 54  1  0
M  END
>  <smiles>  (10) 
O=C(NCC(=O)N1CCCCC1C1CCCC1)c1ccc2ccccc2n1

>  <score_type>  (10) 
oracle

>  <origin>  (10) 
autodockgpu

>  <m_score__min__energy>  (10) 
-8.9100000000000001

>  <m_primary>  (10) 
energy

>  <rmsd>  (10) 
2.204857396880315

>  <m_score__min__rmsd>  (10) 
2.204857396880315

>  <meeko>  (10) 
{"free_energy": -8.88, "intermolecular_energy": -10.37, "internal_energy": -1.37, "cluster_size": 41, "cluster_id": 1, "rank_in_cluster": 7}

>  <energy>  (10) 
-8.87

>  <cluster_rmsd>  (10) 
0.31

>  <cluster>  (10) 
1

$$$$

     RDKit          3D

 54 57  0  0  0  0  0  0  0  0999 V2000
  138.7680   71.4170  221.3440 O   0  0  0  0  0  0  0  0  0  0  0  0
  139.1430   71.9930  222.3870 C   0  0  0  0  0  0  0  0  0  0  0  0
  139.2530   73.4140  222.3560 N   0  0  0  0  0  0  0  0  0  0  0  0
  138.9280   74.0870  221.1350 C   0  0  0  0  0  0  0  0  0  0  0  0
  139.0730   75.5390  221.1860 C   0  0  0  0  0  0  0  0  0  0  0  0
  138.1250   76.3580  221.3290 O   0  0  0  0  0  0  0  0  0  0  0  0
  140.3770   76.1000  221.0670 N   0  0  0  0  0  0  0  0  0  0  0  0
  141.5870   75.2770  221.2320 C   0  0  0  0  0  0  0  0  0  0  0  0
  142.3840   75.3410  219.9370 C   0  0  0  0  0  0  0  0  0  0  0  0
  142.6520   76.7640  219.5430 C   0  0  0  0  0  0  0  0  0  0  0  0
  141.3470   77.4920  219.4400 C   0  0  0  0  0  0  0  0  0  0  0  0
  140.6140   77.5030  220.7780 C   0  0  2  0  0  0  0  0  0  0  0  0
  141.4480   78.1680  221.8500 C   0  0  0  0  0  0  0  0  0  0  0  0
  141.7740   79.5820  221.4450 C   0  0  0  0  0  0  0  0  0  0  0  0
  141.4780   80.4690  222.6250 C   0  0  0  0  0  0  0  0  0  0  0  0
  141.2470   79.5560  223.7830 C   0  0  0  0  0  0  0  0  0  0  0  0
  140.6500   78.3180  223.1020 C   0  0  0  0  0  0  0  0  0  0  0  0
  139.4630   71.2660  223.6070 C   0  0  0  0  0  0  0  0  0  0  0  0
  139.2460   69.9170  223.6350 C   0  0  0  0  0  0  0  0  0  0  0  0
  139.5210   69.1510  224.7490 C   0  0  0  0  0  0  0  0  0  0  0  0
  140.0260   69.7690  225.8580 C   0  0  0  0  0  0  0  0  0  0  0  0
  140.2960   68.9860  226.9640 C   0  0  0  0  0  0  0  0  0  0  0  0
  140.8050   69.6270  228.0760 C   0  0  0  0  0  0  0  0  0  0  0  0
  141.0230   70.9800  228.0520 C   0  0  0  0  0  0  0  0  0  0  0  0
  140.7570   71.7680  226.9500 C   0  0  0  0  0  0  0  0  0  0  0  0
  140.2430   71.1300  225.8250 C   0  0  0  0  0  0  0  0  0  0  0  0
  139.9570   71.8480  224.7050 N   0  0  0  0  0  0  0  0  0  0  0  0
  139.5670   73.8770  223.2360 H   0  0  0  0  0  0  0  0  0  0  0  0
  139.5899   73.7033  220.3447 H   0  0  0  0  0  0  0  0  0  0  0  0
  137.8641   73.8858  220.9409 H   0  0  0  0  0  0  0  0  0  0  0  0
  142.1933   75.6680  222.0624 H   0  0  0  0  0  0  0  0  0  0  0  0
  141.3116   74.2364  221.4583 H   0  0  0  0  0  0  0  0  0  0  0  0
  143.3423   74.8197  220.0778 H   0  0  0  0  0  0  0  0  0  0  0  0
  141.7984   74.8599  219.1397 H   0  0  0  0  0  0  0  0  0  0  0  0
  143.2843   77.2451  220.3037 H   0  0  0  0  0  0  0  0  0  0  0  0
  143.1718   76.7912  218.5740 H   0  0  0  0  0  0  0  0  0  0  0  0
  141.5384   78.5291  219.1273 H   0  0  0  0  0  0  0  0  0  0  0  0
  140.7168   76.9743  218.7019 H   0  0  0  0  0  0  0  0  0  0  0  0
  139.6772   78.0786  220.7447 H   0  0  0  0  0  0  0  0  0  0  0  0
  142.3461   77.5492  221.9932 H   0  0  0  0  0  0  0  0  0  0  0  0
  142.8372   79.6596  221.1739 H   0  0  0  0  0  0  0  0  0  0  0  0
  141.1752   79.8837  220.5730 H   0  0  0  0  0  0  0  0  0  0  0  0
  142.3315   81.1329  222.8269 H   0  0  0  0  0  0  0  0  0  0  0  0
  140.6028   81.1083  222.4370 H   0  0  0  0  0  0  0  0  0  0  0  0
  142.1900   79.3142  224.2952 H   0  0  0  0  0  0  0  0  0  0  0  0
  140.6022   79.9858  224.5637 H   0  0  0  0  0  0  0  0  0  0  0  0
  140.7583   77.4302  223.7424 H   0  0  0  0  0  0  0  0  0  0  0  0
  139.5730   78.4239  222.9049 H   0  0  0  0  0  0  0  0  0  0  0  0
  138.8384   69.4255  222.7393 H   0  0  0  0  0  0  0  0  0  0  0  0
  139.3377   68.0664  224.7445 H   0  0  0  0  0  0  0  0  0  0  0  0
  140.1137   67.9012  226.9588 H   0  0  0  0  0  0  0  0  0  0  0  0
  141.0362   69.0502  228.9837 H   0  0  0  0  0  0  0  0  0  0  0  0
  141.4293   71.4610  228.9539 H   0  0  0  0  0  0  0  0  0  0  0  0
  140.9431   72.8521  226.9607 H   0  0  0  0  0  0  0  0  0  0  0  0
  1  2  2  0
  2  3  1  0
  3  4  1  0
  4  5  1  0
  5  6  2  0
  5  7  1  0
  7  8  1  0
  8  9  1  0
  9 10  1  0
 10 11  1  0
 11 12  1  0
 12 13  1  0
 13 14  1  0
 14 15  1  0
 15 16  1  0
 16 17  1  0
  2 18  1  0
 18 19  2  0
 19 20  1  0
 20 21  2  0
 21 22  1  0
 22 23  2  0
 23 24  1  0
 24 25  2  0
 25 26  1  0
 26 27  2  0
 12  7  1  0
 17 13  1  0
 27 18  1  0
 26 21  1  0
  3 28  1  0
  4 29  1  0
  4 30  1  0
  8 31  1  0
  8 32  1  0
  9 33  1  0
  9 34  1  0
 10 35  1  0
 10 36  1  0
 11 37  1  0
 11 38  1  0
 12 39  1  6
 13 40  1  0
 14 41  1  0
 14 42  1  0
 15 43  1  0
 15 44  1  0
 16 45  1  0
 16 46  1  0
 17 47  1  0
 17 48  1  0
 19 49  1  0
 20 50  1  0
 22 51  1  0
 23 52  1  0
 24 53  1  0
 25 54  1  0
M  END
>  <smiles>  (11) 
O=C(NCC(=O)N1CCCCC1C1CCCC1)c1ccc2ccccc2n1

>  <score_type>  (11) 
oracle

>  <origin>  (11) 
autodockgpu

>  <m_score__min__energy>  (11) 
-8.9100000000000001

>  <m_primary>  (11) 
energy

>  <rmsd>  (11) 
1.982173635884014

>  <m_score__min__rmsd>  (11) 
1.982173635884014

>  <meeko>  (11) 
{"free_energy": -8.12, "intermolecular_energy": -9.61, "internal_energy": -1.6, "cluster_size": 41, "cluster_id": 1, "rank_in_cluster": 38}

>  <energy>  (11) 
-8.86

>  <cluster_rmsd>  (11) 
0.4

>  <cluster>  (11) 
1

$$$$

     RDKit          3D

 54 57  0  0  0  0  0  0  0  0999 V2000
  137.8450   75.3470  222.2770 O   0  0  0  0  0  0  0  0  0  0  0  0
  139.0500   75.6760  222.2760 C   0  0  0  0  0  0  0  0  0  0  0  0
  140.0120   74.6670  221.9760 N   0  0  0  0  0  0  0  0  0  0  0  0
  139.5350   73.3460  221.6950 C   0  0  0  0  0  0  0  0  0  0  0  0
  140.2360   72.2840  222.4110 C   0  0  0  0  0  0  0  0  0  0  0  0
  141.4490   71.9800  222.2520 O   0  0  0  0  0  0  0  0  0  0  0  0
  139.5150   71.5170  223.3710 N   0  0  0  0  0  0  0  0  0  0  0  0
  138.0510   71.6170  223.4930 C   0  0  0  0  0  0  0  0  0  0  0  0
  137.4580   70.2410  223.2280 C   0  0  0  0  0  0  0  0  0  0  0  0
  138.0850   69.2070  224.1170 C   0  0  0  0  0  0  0  0  0  0  0  0
  139.5680   69.2310  223.9170 C   0  0  0  0  0  0  0  0  0  0  0  0
  140.1530   70.5900  224.2870 C   0  0  2  0  0  0  0  0  0  0  0  0
  139.8620   70.9330  225.7320 C   0  0  0  0  0  0  0  0  0  0  0  0
  139.9980   69.7010  226.5890 C   0  0  0  0  0  0  0  0  0  0  0  0
  140.8350   70.0750  227.7850 C   0  0  0  0  0  0  0  0  0  0  0  0
  140.9520   71.5630  227.7610 C   0  0  0  0  0  0  0  0  0  0  0  0
  140.9010   71.8660  226.2580 C   0  0  0  0  0  0  0  0  0  0  0  0
  139.4880   77.0330  222.5680 C   0  0  0  0  0  0  0  0  0  0  0  0
  138.5370   77.9910  222.7790 C   0  0  0  0  0  0  0  0  0  0  0  0
  138.8640   79.3010  223.0610 C   0  0  0  0  0  0  0  0  0  0  0  0
  140.1840   79.6450  223.1310 C   0  0  0  0  0  0  0  0  0  0  0  0
  140.4930   80.9620  223.4150 C   0  0  0  0  0  0  0  0  0  0  0  0
  141.8320   81.2920  223.4820 C   0  0  0  0  0  0  0  0  0  0  0  0
  142.7880   80.3330  223.2710 C   0  0  0  0  0  0  0  0  0  0  0  0
  142.4880   79.0160  222.9870 C   0  0  0  0  0  0  0  0  0  0  0  0
  141.1410   78.6750  222.9180 C   0  0  0  0  0  0  0  0  0  0  0  0
  140.7740   77.3930  222.6420 N   0  0  0  0  0  0  0  0  0  0  0  0
  141.0120   74.9600  221.9810 H   0  0  0  0  0  0  0  0  0  0  0  0
  138.4705   73.2998  221.9681 H   0  0  0  0  0  0  0  0  0  0  0  0
  139.7122   73.1707  220.6236 H   0  0  0  0  0  0  0  0  0  0  0  0
  137.7834   71.9490  224.5070 H   0  0  0  0  0  0  0  0  0  0  0  0
  137.6579   72.3465  222.7696 H   0  0  0  0  0  0  0  0  0  0  0  0
  136.3754   70.2724  223.4201 H   0  0  0  0  0  0  0  0  0  0  0  0
  137.6547   69.9695  222.1803 H   0  0  0  0  0  0  0  0  0  0  0  0
  137.8504   69.4322  225.1678 H   0  0  0  0  0  0  0  0  0  0  0  0
  137.6911   68.2111  223.8659 H   0  0  0  0  0  0  0  0  0  0  0  0
  140.0279   68.4581  224.5503 H   0  0  0  0  0  0  0  0  0  0  0  0
  139.7791   69.0387  222.8547 H   0  0  0  0  0  0  0  0  0  0  0  0
  141.2492   70.6176  224.1997 H   0  0  0  0  0  0  0  0  0  0  0  0
  138.8512   71.3656  225.7667 H   0  0  0  0  0  0  0  0  0  0  0  0
  139.0051   69.3594  226.9168 H   0  0  0  0  0  0  0  0  0  0  0  0
  140.4710   68.8845  226.0236 H   0  0  0  0  0  0  0  0  0  0  0  0
  140.3437   69.7458  228.7125 H   0  0  0  0  0  0  0  0  0  0  0  0
  141.8236   69.5941  227.7492 H   0  0  0  0  0  0  0  0  0  0  0  0
  140.1142   72.0379  228.2926 H   0  0  0  0  0  0  0  0  0  0  0  0
  141.8562   71.9436  228.2585 H   0  0  0  0  0  0  0  0  0  0  0  0
  140.6117   72.9123  226.0805 H   0  0  0  0  0  0  0  0  0  0  0  0
  141.8762   71.7307  225.7674 H   0  0  0  0  0  0  0  0  0  0  0  0
  137.4755   77.7082  222.7221 H   0  0  0  0  0  0  0  0  0  0  0  0
  138.0782   80.0529  223.2261 H   0  0  0  0  0  0  0  0  0  0  0  0
  139.7071   81.7137  223.5803 H   0  0  0  0  0  0  0  0  0  0  0  0
  142.1320   82.3265  223.7051 H   0  0  0  0  0  0  0  0  0  0  0  0
  143.8462   80.6272  223.3309 H   0  0  0  0  0  0  0  0  0  0  0  0
  143.2788   78.2693  222.8225 H   0  0  0  0  0  0  0  0  0  0  0  0
  1  2  2  0
  2  3  1  0
  3  4  1  0
  4  5  1  0
  5  6  2  0
  5  7  1  0
  7  8  1  0
  8  9  1  0
  9 10  1  0
 10 11  1  0
 11 12  1  0
 12 13  1  0
 13 14  1  0
 14 15  1  0
 15 16  1  0
 16 17  1  0
  2 18  1  0
 18 19  2  0
 19 20  1  0
 20 21  2  0
 21 22  1  0
 22 23  2  0
 23 24  1  0
 24 25  2  0
 25 26  1  0
 26 27  2  0
 12  7  1  0
 17 13  1  0
 27 18  1  0
 26 21  1  0
  3 28  1  0
  4 29  1  0
  4 30  1  0
  8 31  1  0
  8 32  1  0
  9 33  1  0
  9 34  1  0
 10 35  1  0
 10 36  1  0
 11 37  1  0
 11 38  1  0
 12 39  1  1
 13 40  1  0
 14 41  1  0
 14 42  1  0
 15 43  1  0
 15 44  1  0
 16 45  1  0
 16 46  1  0
 17 47  1  0
 17 48  1  0
 19 49  1  0
 20 50  1  0
 22 51  1  0
 23 52  1  0
 24 53  1  0
 25 54  1  0
M  END
>  <smiles>  (12) 
O=C(NCC(=O)N1CCCCC1C1CCCC1)c1ccc2ccccc2n1

>  <score_type>  (12) 
oracle

>  <origin>  (12) 
autodockgpu

>  <m_score__min__energy>  (12) 
-8.9100000000000001

>  <m_primary>  (12) 
energy

>  <rmsd>  (12) 
8.389128154056154

>  <m_score__min__rmsd>  (12) 
8.389128154056154

>  <meeko>  (12) 
{"free_energy": -8.1, "intermolecular_energy": -9.59, "internal_energy": -1.59, "cluster_size": 7, "cluster_id": 2, "rank_in_cluster": 6}

>  <energy>  (12) 
-8.86

>  <cluster_rmsd>  (12) 
0.36

>  <cluster>  (12) 
1

$$$$

     RDKit          3D

 54 57  0  0  0  0  0  0  0  0999 V2000
  141.2460   72.1040  221.6790 O   0  0  0  0  0  0  0  0  0  0  0  0
  140.3790   72.3400  222.5470 C   0  0  0  0  0  0  0  0  0  0  0  0
  139.5130   73.4530  222.3330 N   0  0  0  0  0  0  0  0  0  0  0  0
  139.6930   74.2250  221.1400 C   0  0  0  0  0  0  0  0  0  0  0  0
  140.5330   75.4080  221.3050 C   0  0  0  0  0  0  0  0  0  0  0  0
  141.7870   75.3940  221.4340 O   0  0  0  0  0  0  0  0  0  0  0  0
  139.9120   76.6890  221.3260 N   0  0  0  0  0  0  0  0  0  0  0  0
  139.3490   77.2920  220.1050 C   0  0  0  0  0  0  0  0  0  0  0  0
  137.8630   77.5270  220.3350 C   0  0  0  0  0  0  0  0  0  0  0  0
  137.6340   78.3270  221.5830 C   0  0  0  0  0  0  0  0  0  0  0  0
  138.2790   77.6220  222.7360 C   0  0  0  0  0  0  0  0  0  0  0  0
  139.7840   77.4900  222.5300 C   0  0  2  0  0  0  0  0  0  0  0  0
  140.4340   78.8480  222.3780 C   0  0  0  0  0  0  0  0  0  0  0  0
  140.5550   79.5130  223.7240 C   0  0  0  0  0  0  0  0  0  0  0  0
  141.9620   80.0390  223.8410 C   0  0  0  0  0  0  0  0  0  0  0  0
  142.5630   79.9240  222.4800 C   0  0  0  0  0  0  0  0  0  0  0  0
  141.8440   78.6930  221.9140 C   0  0  0  0  0  0  0  0  0  0  0  0
  140.2330   71.5270  223.7450 C   0  0  0  0  0  0  0  0  0  0  0  0
  139.5850   70.3280  223.6410 C   0  0  0  0  0  0  0  0  0  0  0  0
  139.4030   69.4950  224.7260 C   0  0  0  0  0  0  0  0  0  0  0  0
  139.8880   69.8880  225.9410 C   0  0  0  0  0  0  0  0  0  0  0  0
  139.6970   69.0410  227.0150 C   0  0  0  0  0  0  0  0  0  0  0  0
  140.1930   69.4540  228.2360 C   0  0  0  0  0  0  0  0  0  0  0  0
  140.8430   70.6560  228.3440 C   0  0  0  0  0  0  0  0  0  0  0  0
  141.0390   71.5070  227.2740 C   0  0  0  0  0  0  0  0  0  0  0  0
  140.5410   71.0980  226.0400 C   0  0  0  0  0  0  0  0  0  0  0  0
  140.6990   71.8900  224.9450 N   0  0  0  0  0  0  0  0  0  0  0  0
  138.7970   73.6350  223.0680 H   0  0  0  0  0  0  0  0  0  0  0  0
  140.1552   73.5789  220.3792 H   0  0  0  0  0  0  0  0  0  0  0  0
  138.6961   74.5874  220.8486 H   0  0  0  0  0  0  0  0  0  0  0  0
  139.8499   78.2490  219.8968 H   0  0  0  0  0  0  0  0  0  0  0  0
  139.5002   76.6228  219.2451 H   0  0  0  0  0  0  0  0  0  0  0  0
  137.4477   78.0737  219.4756 H   0  0  0  0  0  0  0  0  0  0  0  0
  137.3664   76.5519  220.4468 H   0  0  0  0  0  0  0  0  0  0  0  0
  138.0771   79.3271  221.4670 H   0  0  0  0  0  0  0  0  0  0  0  0
  136.5544   78.4309  221.7663 H   0  0  0  0  0  0  0  0  0  0  0  0
  138.0918   78.1943  223.6566 H   0  0  0  0  0  0  0  0  0  0  0  0
  137.8482   76.6127  222.8121 H   0  0  0  0  0  0  0  0  0  0  0  0
  140.2905   77.0234  223.3877 H   0  0  0  0  0  0  0  0  0  0  0  0
  139.8191   79.4260  221.6725 H   0  0  0  0  0  0  0  0  0  0  0  0
  139.8360   80.3420  223.7999 H   0  0  0  0  0  0  0  0  0  0  0  0
  140.3389   78.7981  224.5316 H   0  0  0  0  0  0  0  0  0  0  0  0
  141.9506   81.0900  224.1654 H   0  0  0  0  0  0  0  0  0  0  0  0
  142.5416   79.4724  224.5847 H   0  0  0  0  0  0  0  0  0  0  0  0
  142.3570   80.8197  221.8756 H   0  0  0  0  0  0  0  0  0  0  0  0
  143.6591   79.8321  222.4866 H   0  0  0  0  0  0  0  0  0  0  0  0
  141.8943   78.6825  220.8152 H   0  0  0  0  0  0  0  0  0  0  0  0
  142.2970   77.7486  222.2499 H   0  0  0  0  0  0  0  0  0  0  0  0
  139.1959   70.0169  222.6603 H   0  0  0  0  0  0  0  0  0  0  0  0
  138.8783   68.5346  224.6148 H   0  0  0  0  0  0  0  0  0  0  0  0
  139.1732   68.0802  226.9029 H   0  0  0  0  0  0  0  0  0  0  0  0
  140.0661   68.8170  229.1238 H   0  0  0  0  0  0  0  0  0  0  0  0
  141.2268   70.9572  229.3299 H   0  0  0  0  0  0  0  0  0  0  0  0
  141.5654   72.4657  227.3917 H   0  0  0  0  0  0  0  0  0  0  0  0
  1  2  2  0
  2  3  1  0
  3  4  1  0
  4  5  1  0
  5  6  2  0
  5  7  1  0
  7  8  1  0
  8  9  1  0
  9 10  1  0
 10 11  1  0
 11 12  1  0
 12 13  1  0
 13 14  1  0
 14 15  1  0
 15 16  1  0
 16 17  1  0
  2 18  1  0
 18 19  2  0
 19 20  1  0
 20 21  2  0
 21 22  1  0
 22 23  2  0
 23 24  1  0
 24 25  2  0
 25 26  1  0
 26 27  2  0
 12  7  1  0
 17 13  1  0
 27 18  1  0
 26 21  1  0
  3 28  1  0
  4 29  1  0
  4 30  1  0
  8 31  1  0
  8 32  1  0
  9 33  1  0
  9 34  1  0
 10 35  1  0
 10 36  1  0
 11 37  1  0
 11 38  1  0
 12 39  1  1
 13 40  1  0
 14 41  1  0
 14 42  1  0
 15 43  1  0
 15 44  1  0
 16 45  1  0
 16 46  1  0
 17 47  1  0
 17 48  1  0
 19 49  1  0
 20 50  1  0
 22 51  1  0
 23 52  1  0
 24 53  1  0
 25 54  1  0
M  END
>  <smiles>  (13) 
O=C(NCC(=O)N1CCCCC1C1CCCC1)c1ccc2ccccc2n1

>  <score_type>  (13) 
oracle

>  <origin>  (13) 
autodockgpu

>  <m_score__min__energy>  (13) 
-8.9100000000000001

>  <m_primary>  (13) 
energy

>  <rmsd>  (13) 
2.740154004270541

>  <m_score__min__rmsd>  (13) 
2.740154004270541

>  <meeko>  (13) 
{"free_energy": -8.51, "intermolecular_energy": -10.0, "internal_energy": -1.35, "cluster_size": 41, "cluster_id": 1, "rank_in_cluster": 26}

>  <energy>  (13) 
-8.85

>  <cluster_rmsd>  (13) 
0.37

>  <cluster>  (13) 
1

$$$$

     RDKit          3D

 54 57  0  0  0  0  0  0  0  0999 V2000
  138.6520   72.7190  222.1850 O   0  0  0  0  0  0  0  0  0  0  0  0
  139.7370   72.3920  222.7130 C   0  0  0  0  0  0  0  0  0  0  0  0
  140.9240   73.0130  222.2260 N   0  0  0  0  0  0  0  0  0  0  0  0
  140.7980   73.9680  221.1680 C   0  0  0  0  0  0  0  0  0  0  0  0
  140.4510   75.3170  221.6070 C   0  0  0  0  0  0  0  0  0  0  0  0
  139.5720   75.5950  222.4660 O   0  0  0  0  0  0  0  0  0  0  0  0
  141.1460   76.4210  221.0360 N   0  0  0  0  0  0  0  0  0  0  0  0
  142.3410   76.2280  220.1970 C   0  0  0  0  0  0  0  0  0  0  0  0
  142.0520   76.8110  218.8210 C   0  0  0  0  0  0  0  0  0  0  0  0
  141.5940   78.2360  218.9270 C   0  0  0  0  0  0  0  0  0  0  0  0
  140.3990   78.2940  219.8270 C   0  0  0  0  0  0  0  0  0  0  0  0
  140.7390   77.8010  221.2300 C   0  0  2  0  0  0  0  0  0  0  0  0
  141.8410   78.6340  221.8470 C   0  0  0  0  0  0  0  0  0  0  0  0
  141.6610   80.0820  221.4730 C   0  0  0  0  0  0  0  0  0  0  0  0
  141.8030   80.8940  222.7340 C   0  0  0  0  0  0  0  0  0  0  0  0
  142.3280   79.9600  223.7720 C   0  0  0  0  0  0  0  0  0  0  0  0
  141.7240   78.6190  223.3350 C   0  0  0  0  0  0  0  0  0  0  0  0
  139.8170   71.4130  223.7880 C   0  0  0  0  0  0  0  0  0  0  0  0
  139.2660   70.1790  223.5850 C   0  0  0  0  0  0  0  0  0  0  0  0
  139.2960   69.1930  224.5490 C   0  0  0  0  0  0  0  0  0  0  0  0
  139.8990   69.4670  225.7450 C   0  0  0  0  0  0  0  0  0  0  0  0
  139.9210   68.4670  226.6980 C   0  0  0  0  0  0  0  0  0  0  0  0
  140.5330   68.7600  227.9000 C   0  0  0  0  0  0  0  0  0  0  0  0
  141.0860   69.9970  228.1070 C   0  0  0  0  0  0  0  0  0  0  0  0
  141.0690   71.0000  227.1590 C   0  0  0  0  0  0  0  0  0  0  0  0
  140.4540   70.7130  225.9450 C   0  0  0  0  0  0  0  0  0  0  0  0
  140.4010   71.6570  224.9660 N   0  0  0  0  0  0  0  0  0  0  0  0
  141.8190   72.7260  222.6780 H   0  0  0  0  0  0  0  0  0  0  0  0
  141.7582   74.0171  220.6335 H   0  0  0  0  0  0  0  0  0  0  0  0
  139.9688   73.6231  220.5328 H   0  0  0  0  0  0  0  0  0  0  0  0
  143.2007   76.7452  220.6480 H   0  0  0  0  0  0  0  0  0  0  0  0
  142.5800   75.1574  220.1147 H   0  0  0  0  0  0  0  0  0  0  0  0
  142.9684   76.7718  218.2138 H   0  0  0  0  0  0  0  0  0  0  0  0
  141.2527   76.2197  218.3503 H   0  0  0  0  0  0  0  0  0  0  0  0
  142.4022   78.8537  219.3456 H   0  0  0  0  0  0  0  0  0  0  0  0
  141.3294   78.6183  217.9301 H   0  0  0  0  0  0  0  0  0  0  0  0
  140.0463   79.3341  219.8881 H   0  0  0  0  0  0  0  0  0  0  0  0
  139.6172   77.6425  219.4094 H   0  0  0  0  0  0  0  0  0  0  0  0
  139.8914   77.8838  221.9262 H   0  0  0  0  0  0  0  0  0  0  0  0
  142.7975   78.2203  221.4951 H   0  0  0  0  0  0  0  0  0  0  0  0
  142.4296   80.3806  220.7450 H   0  0  0  0  0  0  0  0  0  0  0  0
  140.6742   80.2451  221.0151 H   0  0  0  0  0  0  0  0  0  0  0  0
  142.5075   81.7239  222.5761 H   0  0  0  0  0  0  0  0  0  0  0  0
  140.8418   81.3335  223.0388 H   0  0  0  0  0  0  0  0  0  0  0  0
  143.4274   79.9257  223.7586 H   0  0  0  0  0  0  0  0  0  0  0  0
  142.0651   80.2490  224.8003 H   0  0  0  0  0  0  0  0  0  0  0  0
  142.2898   77.7782  223.7626 H   0  0  0  0  0  0  0  0  0  0  0  0
  140.6856   78.4930  223.6754 H   0  0  0  0  0  0  0  0  0  0  0  0
  138.7824   69.9649  222.6205 H   0  0  0  0  0  0  0  0  0  0  0  0
  138.8447   68.2079  224.3597 H   0  0  0  0  0  0  0  0  0  0  0  0
  139.4710   67.4815  226.5074 H   0  0  0  0  0  0  0  0  0  0  0  0
  140.5770   67.9993  228.6933 H   0  0  0  0  0  0  0  0  0  0  0  0
  141.5665   70.2001  229.0754 H   0  0  0  0  0  0  0  0  0  0  0  0
  141.5219   71.9831  227.3550 H   0  0  0  0  0  0  0  0  0  0  0  0
  1  2  2  0
  2  3  1  0
  3  4  1  0
  4  5  1  0
  5  6  2  0
  5  7  1  0
  7  8  1  0
  8  9  1  0
  9 10  1  0
 10 11  1  0
 11 12  1  0
 12 13  1  0
 13 14  1  0
 14 15  1  0
 15 16  1  0
 16 17  1  0
  2 18  1  0
 18 19  2  0
 19 20  1  0
 20 21  2  0
 21 22  1  0
 22 23  2  0
 23 24  1  0
 24 25  2  0
 25 26  1  0
 26 27  2  0
 12  7  1  0
 17 13  1  0
 27 18  1  0
 26 21  1  0
  3 28  1  0
  4 29  1  0
  4 30  1  0
  8 31  1  0
  8 32  1  0
  9 33  1  0
  9 34  1  0
 10 35  1  0
 10 36  1  0
 11 37  1  0
 11 38  1  0
 12 39  1  1
 13 40  1  0
 14 41  1  0
 14 42  1  0
 15 43  1  0
 15 44  1  0
 16 45  1  0
 16 46  1  0
 17 47  1  0
 17 48  1  0
 19 49  1  0
 20 50  1  0
 22 51  1  0
 23 52  1  0
 24 53  1  0
 25 54  1  0
M  END
>  <smiles>  (14) 
O=C(NCC(=O)N1CCCCC1C1CCCC1)c1ccc2ccccc2n1

>  <score_type>  (14) 
oracle

>  <origin>  (14) 
autodockgpu

>  <m_score__min__energy>  (14) 
-8.9100000000000001

>  <m_primary>  (14) 
energy

>  <rmsd>  (14) 
2.266363285970722

>  <m_score__min__rmsd>  (14) 
2.266363285970722

>  <meeko>  (14) 
{"free_energy": -8.35, "intermolecular_energy": -9.84, "internal_energy": -1.28, "cluster_size": 41, "cluster_id": 1, "rank_in_cluster": 31}

>  <energy>  (14) 
-8.85

>  <cluster_rmsd>  (14) 
0.26

>  <cluster>  (14) 
1

$$$$

     RDKit          3D

 54 57  0  0  0  0  0  0  0  0999 V2000
  141.2820   72.8080  221.9640 O   0  0  0  0  0  0  0  0  0  0  0  0
  140.2440   72.6600  222.6430 C   0  0  0  0  0  0  0  0  0  0  0  0
  139.1300   73.4980  222.3430 N   0  0  0  0  0  0  0  0  0  0  0  0
  139.2730   74.4540  221.2860 C   0  0  0  0  0  0  0  0  0  0  0  0
  139.4800   75.8280  221.7360 C   0  0  0  0  0  0  0  0  0  0  0  0
  138.7420   76.4410  222.5540 O   0  0  0  0  0  0  0  0  0  0  0  0
  140.5930   76.5540  221.2240 N   0  0  0  0  0  0  0  0  0  0  0  0
  141.8270   75.8720  220.7980 C   0  0  0  0  0  0  0  0  0  0  0  0
  142.0530   76.1780  219.3250 C   0  0  0  0  0  0  0  0  0  0  0  0
  142.0470   77.6590  219.0780 C   0  0  0  0  0  0  0  0  0  0  0  0
  140.7570   78.2280  219.5820 C   0  0  0  0  0  0  0  0  0  0  0  0
  140.6010   77.9980  221.0820 C   0  0  2  0  0  0  0  0  0  0  0  0
  141.7360   78.6360  221.8520 C   0  0  0  0  0  0  0  0  0  0  0  0
  141.8370   80.0980  221.5020 C   0  0  0  0  0  0  0  0  0  0  0  0
  141.9490   80.8640  222.7940 C   0  0  0  0  0  0  0  0  0  0  0  0
  142.1860   79.8460  223.8610 C   0  0  0  0  0  0  0  0  0  0  0  0
  141.4340   78.6260  223.3130 C   0  0  0  0  0  0  0  0  0  0  0  0
  140.1440   71.6730  223.7100 C   0  0  0  0  0  0  0  0  0  0  0  0
  139.5130   70.4910  223.4440 C   0  0  0  0  0  0  0  0  0  0  0  0
  139.3740   69.5020  224.3950 C   0  0  0  0  0  0  0  0  0  0  0  0
  139.8870   69.7190  225.6430 C   0  0  0  0  0  0  0  0  0  0  0  0
  139.7380   68.7180  226.5830 C   0  0  0  0  0  0  0  0  0  0  0  0
  140.2620   68.9530  227.8390 C   0  0  0  0  0  0  0  0  0  0  0  0
  140.8960   70.1380  228.1090 C   0  0  0  0  0  0  0  0  0  0  0  0
  141.0490   71.1430  227.1740 C   0  0  0  0  0  0  0  0  0  0  0  0
  140.5240   70.9140  225.9060 C   0  0  0  0  0  0  0  0  0  0  0  0
  140.6380   71.8630  224.9380 N   0  0  0  0  0  0  0  0  0  0  0  0
  138.2740   73.3600  222.9200 H   0  0  0  0  0  0  0  0  0  0  0  0
  140.1366   74.1600  220.6713 H   0  0  0  0  0  0  0  0  0  0  0  0
  138.3253   74.4471  220.7276 H   0  0  0  0  0  0  0  0  0  0  0  0
  142.6787   76.2387  221.3897 H   0  0  0  0  0  0  0  0  0  0  0  0
  141.7345   74.7867  220.9515 H   0  0  0  0  0  0  0  0  0  0  0  0
  143.0249   75.7654  219.0165 H   0  0  0  0  0  0  0  0  0  0  0  0
  141.2392   75.7214  218.7425 H   0  0  0  0  0  0  0  0  0  0  0  0
  142.8894   78.1257  219.6095 H   0  0  0  0  0  0  0  0  0  0  0  0
  142.1474   77.8583  218.0009 H   0  0  0  0  0  0  0  0  0  0  0  0
  140.7391   79.3093  219.3811 H   0  0  0  0  0  0  0  0  0  0  0  0
  139.9280   77.7234  219.0643 H   0  0  0  0  0  0  0  0  0  0  0  0
  139.6863   78.4544  221.4884 H   0  0  0  0  0  0  0  0  0  0  0  0
  142.6506   78.0765  221.6063 H   0  0  0  0  0  0  0  0  0  0  0  0
  142.7277   80.2753  220.8814 H   0  0  0  0  0  0  0  0  0  0  0  0
  140.9534   80.4231  220.9332 H   0  0  0  0  0  0  0  0  0  0  0  0
  142.7908   81.5706  222.7470 H   0  0  0  0  0  0  0  0  0  0  0  0
  141.0398   81.4502  222.9933 H   0  0  0  0  0  0  0  0  0  0  0  0
  143.2588   79.6338  223.9794 H   0  0  0  0  0  0  0  0  0  0  0  0
  141.8481   80.1632  224.8586 H   0  0  0  0  0  0  0  0  0  0  0  0
  141.7996   77.6999  223.7806 H   0  0  0  0  0  0  0  0  0  0  0  0
  140.3546   78.6682  223.5205 H   0  0  0  0  0  0  0  0  0  0  0  0
  139.1021   70.3224  222.4377 H   0  0  0  0  0  0  0  0  0  0  0  0
  138.8614   68.5590  224.1543 H   0  0  0  0  0  0  0  0  0  0  0  0
  139.2248   67.7754  226.3419 H   0  0  0  0  0  0  0  0  0  0  0  0
  140.1704   68.1880  228.6241 H   0  0  0  0  0  0  0  0  0  0  0  0
  141.3024   70.2961  229.1188 H   0  0  0  0  0  0  0  0  0  0  0  0
  141.5634   72.0834  227.4210 H   0  0  0  0  0  0  0  0  0  0  0  0
  1  2  2  0
  2  3  1  0
  3  4  1  0
  4  5  1  0
  5  6  2  0
  5  7  1  0
  7  8  1  0
  8  9  1  0
  9 10  1  0
 10 11  1  0
 11 12  1  0
 12 13  1  0
 13 14  1  0
 14 15  1  0
 15 16  1  0
 16 17  1  0
  2 18  1  0
 18 19  2  0
 19 20  1  0
 20 21  2  0
 21 22  1  0
 22 23  2  0
 23 24  1  0
 24 25  2  0
 25 26  1  0
 26 27  2  0
 12  7  1  0
 17 13  1  0
 27 18  1  0
 26 21  1  0
  3 28  1  0
  4 29  1  0
  4 30  1  0
  8 31  1  0
  8 32  1  0
  9 33  1  0
  9 34  1  0
 10 35  1  0
 10 36  1  0
 11 37  1  0
 11 38  1  0
 12 39  1  1
 13 40  1  0
 14 41  1  0
 14 42  1  0
 15 43  1  0
 15 44  1  0
 16 45  1  0
 16 46  1  0
 17 47  1  0
 17 48  1  0
 19 49  1  0
 20 50  1  0
 22 51  1  0
 23 52  1  0
 24 53  1  0
 25 54  1  0
M  END
>  <smiles>  (15) 
O=C(NCC(=O)N1CCCCC1C1CCCC1)c1ccc2ccccc2n1

>  <score_type>  (15) 
oracle

>  <origin>  (15) 
autodockgpu

>  <m_score__min__energy>  (15) 
-8.9100000000000001

>  <m_primary>  (15) 
energy

>  <rmsd>  (15) 
2.109108588322572

>  <m_score__min__rmsd>  (15) 
2.109108588322572

>  <meeko>  (15) 
{"free_energy": -8.88, "intermolecular_energy": -10.38, "internal_energy": -1.41, "cluster_size": 41, "cluster_id": 1, "rank_in_cluster": 4}

>  <energy>  (15) 
-8.84

>  <cluster_rmsd>  (15) 
0.22

>  <cluster>  (15) 
1

$$$$

     RDKit          3D

 54 57  0  0  0  0  0  0  0  0999 V2000
  139.9800   71.4600  221.3030 O   0  0  0  0  0  0  0  0  0  0  0  0
  139.8610   72.0380  222.4040 C   0  0  0  0  0  0  0  0  0  0  0  0
  139.6070   73.4410  222.3900 N   0  0  0  0  0  0  0  0  0  0  0  0
  139.5040   74.0940  221.1200 C   0  0  0  0  0  0  0  0  0  0  0  0
  139.5260   75.5530  221.1850 C   0  0  0  0  0  0  0  0  0  0  0  0
  138.5350   76.2810  221.4650 O   0  0  0  0  0  0  0  0  0  0  0  0
  140.7490   76.2300  220.9160 N   0  0  0  0  0  0  0  0  0  0  0  0
  142.0280   75.5040  220.8260 C   0  0  0  0  0  0  0  0  0  0  0  0
  142.6020   75.7280  219.4340 C   0  0  0  0  0  0  0  0  0  0  0  0
  142.6980   77.1920  219.1230 C   0  0  0  0  0  0  0  0  0  0  0  0
  141.3440   77.8110  219.2800 C   0  0  0  0  0  0  0  0  0  0  0  0
  140.8330   77.6650  220.7100 C   0  0  2  0  0  0  0  0  0  0  0  0
  141.7760   78.3230  221.6950 C   0  0  0  0  0  0  0  0  0  0  0  0
  141.8240   79.8080  221.4460 C   0  0  0  0  0  0  0  0  0  0  0  0
  141.6630   80.4930  222.7780 C   0  0  0  0  0  0  0  0  0  0  0  0
  141.7960   79.4250  223.8130 C   0  0  0  0  0  0  0  0  0  0  0  0
  141.2380   78.1970  223.0810 C   0  0  0  0  0  0  0  0  0  0  0  0
  139.9730   71.3320  223.6720 C   0  0  0  0  0  0  0  0  0  0  0  0
  139.5840   70.0240  223.7240 C   0  0  0  0  0  0  0  0  0  0  0  0
  139.6560   69.2800  224.8830 C   0  0  0  0  0  0  0  0  0  0  0  0
  140.1340   69.8790  226.0140 C   0  0  0  0  0  0  0  0  0  0  0  0
  140.2000   69.1190  227.1660 C   0  0  0  0  0  0  0  0  0  0  0  0
  140.6850   69.7400  228.3000 C   0  0  0  0  0  0  0  0  0  0  0  0
  141.0770   71.0530  228.2520 C   0  0  0  0  0  0  0  0  0  0  0  0
  141.0150   71.8180  227.1050 C   0  0  0  0  0  0  0  0  0  0  0  0
  140.5270   71.2000  225.9570 C   0  0  0  0  0  0  0  0  0  0  0  0
  140.4380   71.8970  224.7920 N   0  0  0  0  0  0  0  0  0  0  0  0
  139.5110   73.9070  223.3180 H   0  0  0  0  0  0  0  0  0  0  0  0
  140.3476   73.7653  220.4953 H   0  0  0  0  0  0  0  0  0  0  0  0
  138.5252   73.8144  220.7032 H   0  0  0  0  0  0  0  0  0  0  0  0
  142.7278   75.8862  221.5838 H   0  0  0  0  0  0  0  0  0  0  0  0
  141.8701   74.4302  221.0048 H   0  0  0  0  0  0  0  0  0  0  0  0
  143.6064   75.2825  219.3828 H   0  0  0  0  0  0  0  0  0  0  0  0
  141.9339   75.2559  218.6986 H   0  0  0  0  0  0  0  0  0  0  0  0
  143.4055   77.6710  219.8158 H   0  0  0  0  0  0  0  0  0  0  0  0
  143.0541   77.3313  218.0916 H   0  0  0  0  0  0  0  0  0  0  0  0
  141.4069   78.8801  219.0289 H   0  0  0  0  0  0  0  0  0  0  0  0
  140.6447   77.2947  218.6059 H   0  0  0  0  0  0  0  0  0  0  0  0
  139.8626   78.1588  220.8663 H   0  0  0  0  0  0  0  0  0  0  0  0
  142.7580   77.8413  221.5783 H   0  0  0  0  0  0  0  0  0  0  0  0
  142.7894   80.0829  220.9960 H   0  0  0  0  0  0  0  0  0  0  0  0
  141.0251   80.1120  220.7536 H   0  0  0  0  0  0  0  0  0  0  0  0
  142.4455   81.2543  222.9126 H   0  0  0  0  0  0  0  0  0  0  0  0
  140.6919   81.0044  222.8515 H   0  0  0  0  0  0  0  0  0  0  0  0
  142.8474   79.2754  224.0996 H   0  0  0  0  0  0  0  0  0  0  0  0
  141.2752   79.6537  224.7545 H   0  0  0  0  0  0  0  0  0  0  0  0
  141.5897   77.2679  223.5533 H   0  0  0  0  0  0  0  0  0  0  0  0
  140.1391   78.1549  223.1048 H   0  0  0  0  0  0  0  0  0  0  0  0
  139.2000   69.5474  222.8100 H   0  0  0  0  0  0  0  0  0  0  0  0
  139.3357   68.2277  224.8965 H   0  0  0  0  0  0  0  0  0  0  0  0
  139.8805   68.0665  227.1792 H   0  0  0  0  0  0  0  0  0  0  0  0
  140.7570   69.1800  229.2440 H   0  0  0  0  0  0  0  0  0  0  0  0
  141.4593   71.5191  229.1721 H   0  0  0  0  0  0  0  0  0  0  0  0
  141.3370   72.8698  227.0982 H   0  0  0  0  0  0  0  0  0  0  0  0
  1  2  2  0
  2  3  1  0
  3  4  1  0
  4  5  1  0
  5  6  2  0
  5  7  1  0
  7  8  1  0
  8  9  1  0
  9 10  1  0
 10 11  1  0
 11 12  1  0
 12 13  1  0
 13 14  1  0
 14 15  1  0
 15 16  1  0
 16 17  1  0
  2 18  1  0
 18 19  2  0
 19 20  1  0
 20 21  2  0
 21 22  1  0
 22 23  2  0
 23 24  1  0
 24 25  2  0
 25 26  1  0
 26 27  2  0
 12  7  1  0
 17 13  1  0
 27 18  1  0
 26 21  1  0
  3 28  1  0
  4 29  1  0
  4 30  1  0
  8 31  1  0
  8 32  1  0
  9 33  1  0
  9 34  1  0
 10 35  1  0
 10 36  1  0
 11 37  1  0
 11 38  1  0
 12 39  1  6
 13 40  1  0
 14 41  1  0
 14 42  1  0
 15 43  1  0
 15 44  1  0
 16 45  1  0
 16 46  1  0
 17 47  1  0
 17 48  1  0
 19 49  1  0
 20 50  1  0
 22 51  1  0
 23 52  1  0
 24 53  1  0
 25 54  1  0
M  END
>  <smiles>  (16) 
O=C(NCC(=O)N1CCCCC1C1CCCC1)c1ccc2ccccc2n1

>  <score_type>  (16) 
oracle

>  <origin>  (16) 
autodockgpu

>  <m_score__min__energy>  (16) 
-8.9100000000000001

>  <m_primary>  (16) 
energy

>  <rmsd>  (16) 
2.0383021215039157

>  <m_score__min__rmsd>  (16) 
2.0383021215039157

>  <meeko>  (16) 
{"free_energy": -8.53, "intermolecular_energy": -10.02, "internal_energy": -1.51, "cluster_size": 41, "cluster_id": 1, "rank_in_cluster": 25}

>  <energy>  (16) 
-8.84

>  <cluster_rmsd>  (16) 
0.29

>  <cluster>  (16) 
1

$$$$

     RDKit          3D

 54 57  0  0  0  0  0  0  0  0999 V2000
  138.6450   72.4880  222.3470 O   0  0  0  0  0  0  0  0  0  0  0  0
  139.7320   72.1110  222.8340 C   0  0  0  0  0  0  0  0  0  0  0  0
  140.9300   72.6230  222.2530 N   0  0  0  0  0  0  0  0  0  0  0  0
  140.8100   73.5320  221.1540 C   0  0  0  0  0  0  0  0  0  0  0  0
  140.4800   74.9030  221.5350 C   0  0  0  0  0  0  0  0  0  0  0  0
  139.5720   75.2310  222.3460 O   0  0  0  0  0  0  0  0  0  0  0  0
  141.2260   75.9700  220.9590 N   0  0  0  0  0  0  0  0  0  0  0  0
  142.5290   75.7370  220.3110 C   0  0  0  0  0  0  0  0  0  0  0  0
  142.4210   76.1790  218.8590 C   0  0  0  0  0  0  0  0  0  0  0  0
  141.9270   77.5930  218.7650 C   0  0  0  0  0  0  0  0  0  0  0  0
  140.6190   77.6980  219.4850 C   0  0  0  0  0  0  0  0  0  0  0  0
  140.7720   77.3480  220.9620 C   0  0  2  0  0  0  0  0  0  0  0  0
  141.7640   78.2690  221.6390 C   0  0  0  0  0  0  0  0  0  0  0  0
  141.5640   79.6820  221.1570 C   0  0  0  0  0  0  0  0  0  0  0  0
  141.5330   80.5720  222.3720 C   0  0  0  0  0  0  0  0  0  0  0  0
  141.9810   79.7260  223.5180 C   0  0  0  0  0  0  0  0  0  0  0  0
  141.4850   78.3350  223.1030 C   0  0  0  0  0  0  0  0  0  0  0  0
  139.8060   71.1830  223.9530 C   0  0  0  0  0  0  0  0  0  0  0  0
  139.2530   69.9420  223.8050 C   0  0  0  0  0  0  0  0  0  0  0  0
  139.2780   69.0020  224.8140 C   0  0  0  0  0  0  0  0  0  0  0  0
  139.8770   69.3290  225.9980 C   0  0  0  0  0  0  0  0  0  0  0  0
  139.8930   68.3740  226.9970 C   0  0  0  0  0  0  0  0  0  0  0  0
  140.5010   68.7220  228.1870 C   0  0  0  0  0  0  0  0  0  0  0  0
  141.0560   69.9660  228.3380 C   0  0  0  0  0  0  0  0  0  0  0  0
  141.0450   70.9240  227.3450 C   0  0  0  0  0  0  0  0  0  0  0  0
  140.4330   70.5820  226.1420 C   0  0  0  0  0  0  0  0  0  0  0  0
  140.3860   71.4810  225.1210 N   0  0  0  0  0  0  0  0  0  0  0  0
  141.8270   72.2960  222.6720 H   0  0  0  0  0  0  0  0  0  0  0  0
  141.7683   73.5467  220.6141 H   0  0  0  0  0  0  0  0  0  0  0  0
  139.9744   73.1689  220.5376 H   0  0  0  0  0  0  0  0  0  0  0  0
  143.3089   76.3211  220.8215 H   0  0  0  0  0  0  0  0  0  0  0  0
  142.7967   74.6715  220.3660 H   0  0  0  0  0  0  0  0  0  0  0  0
  143.4125   76.1118  218.3874 H   0  0  0  0  0  0  0  0  0  0  0  0
  141.7051   75.5216  218.3438 H   0  0  0  0  0  0  0  0  0  0  0  0
  142.6588   78.2714  219.2278 H   0  0  0  0  0  0  0  0  0  0  0  0
  141.7950   77.8725  217.7093 H   0  0  0  0  0  0  0  0  0  0  0  0
  140.2431   78.7281  219.3975 H   0  0  0  0  0  0  0  0  0  0  0  0
  139.9133   76.9873  219.0302 H   0  0  0  0  0  0  0  0  0  0  0  0
  139.8354   77.4687  221.5262 H   0  0  0  0  0  0  0  0  0  0  0  0
  142.7702   77.8833  221.4182 H   0  0  0  0  0  0  0  0  0  0  0  0
  142.3938   79.9752  220.4972 H   0  0  0  0  0  0  0  0  0  0  0  0
  140.6269   79.7692  220.5875 H   0  0  0  0  0  0  0  0  0  0  0  0
  142.2148   81.4247  222.2378 H   0  0  0  0  0  0  0  0  0  0  0  0
  140.5265   80.9810  222.5444 H   0  0  0  0  0  0  0  0  0  0  0  0
  143.0757   79.7444  223.6240 H   0  0  0  0  0  0  0  0  0  0  0  0
  141.5961   80.0608  224.4926 H   0  0  0  0  0  0  0  0  0  0  0  0
  142.0345   77.5483  223.6408 H   0  0  0  0  0  0  0  0  0  0  0  0
  140.4214   78.1798  223.3367 H   0  0  0  0  0  0  0  0  0  0  0  0
  138.7722   69.6844  222.8498 H   0  0  0  0  0  0  0  0  0  0  0  0
  138.8253   68.0100  224.6688 H   0  0  0  0  0  0  0  0  0  0  0  0
  139.4418   67.3815  226.8507 H   0  0  0  0  0  0  0  0  0  0  0  0
  140.5400   67.9993  229.0154 H   0  0  0  0  0  0  0  0  0  0  0  0
  141.5335   70.2128  229.2977 H   0  0  0  0  0  0  0  0  0  0  0  0
  141.4996   71.9141  227.4970 H   0  0  0  0  0  0  0  0  0  0  0  0
  1  2  2  0
  2  3  1  0
  3  4  1  0
  4  5  1  0
  5  6  2  0
  5  7  1  0
  7  8  1  0
  8  9  1  0
  9 10  1  0
 10 11  1  0
 11 12  1  0
 12 13  1  0
 13 14  1  0
 14 15  1  0
 15 16  1  0
 16 17  1  0
  2 18  1  0
 18 19  2  0
 19 20  1  0
 20 21  2  0
 21 22  1  0
 22 23  2  0
 23 24  1  0
 24 25  2  0
 25 26  1  0
 26 27  2  0
 12  7  1  0
 17 13  1  0
 27 18  1  0
 26 21  1  0
  3 28  1  0
  4 29  1  0
  4 30  1  0
  8 31  1  0
  8 32  1  0
  9 33  1  0
  9 34  1  0
 10 35  1  0
 10 36  1  0
 11 37  1  0
 11 38  1  0
 12 39  1  1
 13 40  1  0
 14 41  1  0
 14 42  1  0
 15 43  1  0
 15 44  1  0
 16 45  1  0
 16 46  1  0
 17 47  1  0
 17 48  1  0
 19 49  1  0
 20 50  1  0
 22 51  1  0
 23 52  1  0
 24 53  1  0
 25 54  1  0
M  END
>  <smiles>  (17) 
O=C(NCC(=O)N1CCCCC1C1CCCC1)c1ccc2ccccc2n1

>  <score_type>  (17) 
oracle

>  <origin>  (17) 
autodockgpu

>  <m_score__min__energy>  (17) 
-8.9100000000000001

>  <m_primary>  (17) 
energy

>  <rmsd>  (17) 
2.206753290788163

>  <m_score__min__rmsd>  (17) 
2.206753290788163

>  <meeko>  (17) 
{"free_energy": -8.34, "intermolecular_energy": -9.83, "internal_energy": -1.28, "cluster_size": 41, "cluster_id": 1, "rank_in_cluster": 32}

>  <energy>  (17) 
-8.83

>  <cluster_rmsd>  (17) 
0.41

>  <cluster>  (17) 
1

$$$$

     RDKit          3D

 54 57  0  0  0  0  0  0  0  0999 V2000
  141.3490   72.8100  221.9940 O   0  0  0  0  0  0  0  0  0  0  0  0
  140.3060   72.6600  222.6640 C   0  0  0  0  0  0  0  0  0  0  0  0
  139.1890   73.4880  222.3470 N   0  0  0  0  0  0  0  0  0  0  0  0
  139.3360   74.4370  221.2850 C   0  0  0  0  0  0  0  0  0  0  0  0
  139.5180   75.8170  221.7250 C   0  0  0  0  0  0  0  0  0  0  0  0
  138.7560   76.4310  222.5200 O   0  0  0  0  0  0  0  0  0  0  0  0
  140.6370   76.5490  221.2330 N   0  0  0  0  0  0  0  0  0  0  0  0
  141.8740   75.8710  220.8090 C   0  0  0  0  0  0  0  0  0  0  0  0
  142.1130   76.1980  219.3410 C   0  0  0  0  0  0  0  0  0  0  0  0
  142.1100   77.6810  219.1150 C   0  0  0  0  0  0  0  0  0  0  0  0
  140.8170   78.2450  219.6160 C   0  0  0  0  0  0  0  0  0  0  0  0
  140.6470   77.9950  221.1110 C   0  0  2  0  0  0  0  0  0  0  0  0
  141.7770   78.6210  221.8990 C   0  0  0  0  0  0  0  0  0  0  0  0
  141.9230   80.0720  221.5230 C   0  0  0  0  0  0  0  0  0  0  0  0
  142.0180   80.8620  222.8020 C   0  0  0  0  0  0  0  0  0  0  0  0
  142.2010   79.8610  223.8950 C   0  0  0  0  0  0  0  0  0  0  0  0
  141.4350   78.6480  223.3510 C   0  0  0  0  0  0  0  0  0  0  0  0
  140.2030   71.6810  223.7370 C   0  0  0  0  0  0  0  0  0  0  0  0
  139.5770   70.4950  223.4760 C   0  0  0  0  0  0  0  0  0  0  0  0
  139.4350   69.5120  224.4340 C   0  0  0  0  0  0  0  0  0  0  0  0
  139.9400   69.7400  225.6830 C   0  0  0  0  0  0  0  0  0  0  0  0
  139.7890   68.7450  226.6300 C   0  0  0  0  0  0  0  0  0  0  0  0
  140.3040   68.9920  227.8870 C   0  0  0  0  0  0  0  0  0  0  0  0
  140.9320   70.1810  228.1520 C   0  0  0  0  0  0  0  0  0  0  0  0
  141.0870   71.1790  227.2120 C   0  0  0  0  0  0  0  0  0  0  0  0
  140.5700   70.9390  225.9420 C   0  0  0  0  0  0  0  0  0  0  0  0
  140.6880   71.8810  224.9670 N   0  0  0  0  0  0  0  0  0  0  0  0
  138.3280   73.3480  222.9180 H   0  0  0  0  0  0  0  0  0  0  0  0
  140.2128   74.1491  220.6864 H   0  0  0  0  0  0  0  0  0  0  0  0
  138.3968   74.4131  220.7129 H   0  0  0  0  0  0  0  0  0  0  0  0
  142.7209   76.2282  221.4133 H   0  0  0  0  0  0  0  0  0  0  0  0
  141.7793   74.7838  220.9469 H   0  0  0  0  0  0  0  0  0  0  0  0
  143.0873   75.7891  219.0351 H   0  0  0  0  0  0  0  0  0  0  0  0
  141.3039   75.7503  218.7452 H   0  0  0  0  0  0  0  0  0  0  0  0
  142.9485   78.1393  219.6598 H   0  0  0  0  0  0  0  0  0  0  0  0
  142.2188   77.8947  218.0415 H   0  0  0  0  0  0  0  0  0  0  0  0
  140.8026   79.3290  219.4298 H   0  0  0  0  0  0  0  0  0  0  0  0
  139.9919   77.7485  219.0844 H   0  0  0  0  0  0  0  0  0  0  0  0
  139.7292   78.4465  221.5156 H   0  0  0  0  0  0  0  0  0  0  0  0
  142.6841   78.0350  221.6898 H   0  0  0  0  0  0  0  0  0  0  0  0
  142.8345   80.2152  220.9241 H   0  0  0  0  0  0  0  0  0  0  0  0
  141.0634   80.4060  220.9234 H   0  0  0  0  0  0  0  0  0  0  0  0
  142.8775   81.5474  222.7643 H   0  0  0  0  0  0  0  0  0  0  0  0
  141.1182   81.4737  222.9641 H   0  0  0  0  0  0  0  0  0  0  0  0
  143.2648   79.6260  224.0473 H   0  0  0  0  0  0  0  0  0  0  0  0
  141.8436   80.2066  224.8762 H   0  0  0  0  0  0  0  0  0  0  0  0
  141.7653   77.7234  223.8470 H   0  0  0  0  0  0  0  0  0  0  0  0
  140.3516   78.7197  223.5277 H   0  0  0  0  0  0  0  0  0  0  0  0
  139.1726   70.3178  222.4685 H   0  0  0  0  0  0  0  0  0  0  0  0
  138.9265   68.5657  224.1974 H   0  0  0  0  0  0  0  0  0  0  0  0
  139.2812   67.7985  226.3930 H   0  0  0  0  0  0  0  0  0  0  0  0
  140.2101   68.2328  228.6775 H   0  0  0  0  0  0  0  0  0  0  0  0
  141.3318   70.3477  229.1631 H   0  0  0  0  0  0  0  0  0  0  0  0
  141.5967   72.1229  227.4555 H   0  0  0  0  0  0  0  0  0  0  0  0
  1  2  2  0
  2  3  1  0
  3  4  1  0
  4  5  1  0
  5  6  2  0
  5  7  1  0
  7  8  1  0
  8  9  1  0
  9 10  1  0
 10 11  1  0
 11 12  1  0
 12 13  1  0
 13 14  1  0
 14 15  1  0
 15 16  1  0
 16 17  1  0
  2 18  1  0
 18 19  2  0
 19 20  1  0
 20 21  2  0
 21 22  1  0
 22 23  2  0
 23 24  1  0
 24 25  2  0
 25 26  1  0
 26 27  2  0
 12  7  1  0
 17 13  1  0
 27 18  1  0
 26 21  1  0
  3 28  1  0
  4 29  1  0
  4 30  1  0
  8 31  1  0
  8 32  1  0
  9 33  1  0
  9 34  1  0
 10 35  1  0
 10 36  1  0
 11 37  1  0
 11 38  1  0
 12 39  1  1
 13 40  1  0
 14 41  1  0
 14 42  1  0
 15 43  1  0
 15 44  1  0
 16 45  1  0
 16 46  1  0
 17 47  1  0
 17 48  1  0
 19 49  1  0
 20 50  1  0
 22 51  1  0
 23 52  1  0
 24 53  1  0
 25 54  1  0
M  END
>  <smiles>  (18) 
O=C(NCC(=O)N1CCCCC1C1CCCC1)c1ccc2ccccc2n1

>  <score_type>  (18) 
oracle

>  <origin>  (18) 
autodockgpu

>  <m_score__min__energy>  (18) 
-8.9100000000000001

>  <m_primary>  (18) 
energy

>  <rmsd>  (18) 
2.1349679507798394

>  <m_score__min__rmsd>  (18) 
2.1349679507798394

>  <meeko>  (18) 
{"free_energy": -8.87, "intermolecular_energy": -10.36, "internal_energy": -1.4, "cluster_size": 41, "cluster_id": 1, "rank_in_cluster": 10}

>  <energy>  (18) 
-8.82

>  <cluster_rmsd>  (18) 
0.27

>  <cluster>  (18) 
1

$$$$

     RDKit          3D

 54 57  0  0  0  0  0  0  0  0999 V2000
  141.3690   72.0270  221.6250 O   0  0  0  0  0  0  0  0  0  0  0  0
  140.5480   72.3470  222.5110 C   0  0  0  0  0  0  0  0  0  0  0  0
  139.8290   73.5670  222.3380 N   0  0  0  0  0  0  0  0  0  0  0  0
  140.0940   74.3430  221.1640 C   0  0  0  0  0  0  0  0  0  0  0  0
  139.8500   75.7740  221.3170 C   0  0  0  0  0  0  0  0  0  0  0  0
  138.8070   76.2830  221.8100 O   0  0  0  0  0  0  0  0  0  0  0  0
  140.8520   76.6880  220.8820 N   0  0  0  0  0  0  0  0  0  0  0  0
  142.1310   76.2180  220.3230 C   0  0  0  0  0  0  0  0  0  0  0  0
  142.2530   76.7550  218.9040 C   0  0  0  0  0  0  0  0  0  0  0  0
  142.0750   78.2450  218.8780 C   0  0  0  0  0  0  0  0  0  0  0  0
  140.7560   78.5860  219.5000 C   0  0  0  0  0  0  0  0  0  0  0  0
  140.6970   78.1290  220.9540 C   0  0  2  0  0  0  0  0  0  0  0  0
  141.7920   78.7760  221.7730 C   0  0  0  0  0  0  0  0  0  0  0  0
  141.8300   80.2580  221.5010 C   0  0  0  0  0  0  0  0  0  0  0  0
  141.8900   80.9590  222.8330 C   0  0  0  0  0  0  0  0  0  0  0  0
  142.1600   79.8980  223.8490 C   0  0  0  0  0  0  0  0  0  0  0  0
  141.4720   78.6750  223.2270 C   0  0  0  0  0  0  0  0  0  0  0  0
  140.3120   71.5250  223.6890 C   0  0  0  0  0  0  0  0  0  0  0  0
  139.6600   70.3350  223.5310 C   0  0  0  0  0  0  0  0  0  0  0  0
  139.3960   69.4950  224.5920 C   0  0  0  0  0  0  0  0  0  0  0  0
  139.8010   69.8730  225.8410 C   0  0  0  0  0  0  0  0  0  0  0  0
  139.5280   69.0190  226.8930 C   0  0  0  0  0  0  0  0  0  0  0  0
  139.9440   69.4170  228.1480 C   0  0  0  0  0  0  0  0  0  0  0  0
  140.5970   70.6100  228.3110 C   0  0  0  0  0  0  0  0  0  0  0  0
  140.8750   71.4680  227.2650 C   0  0  0  0  0  0  0  0  0  0  0  0
  140.4580   71.0750  225.9960 C   0  0  0  0  0  0  0  0  0  0  0  0
  140.6990   71.8740  224.9210 N   0  0  0  0  0  0  0  0  0  0  0  0
  139.1500   73.8170  223.0880 H   0  0  0  0  0  0  0  0  0  0  0  0
  141.1499   74.2018  220.8898 H   0  0  0  0  0  0  0  0  0  0  0  0
  139.3977   73.9877  220.3901 H   0  0  0  0  0  0  0  0  0  0  0  0
  142.9651   76.5908  220.9357 H   0  0  0  0  0  0  0  0  0  0  0  0
  142.1636   75.1185  220.3184 H   0  0  0  0  0  0  0  0  0  0  0  0
  143.2483   76.5043  218.5084 H   0  0  0  0  0  0  0  0  0  0  0  0
  141.4671   76.2964  218.2859 H   0  0  0  0  0  0  0  0  0  0  0  0
  142.8861   78.7239  219.4461 H   0  0  0  0  0  0  0  0  0  0  0  0
  142.1021   78.6059  217.8392 H   0  0  0  0  0  0  0  0  0  0  0  0
  140.6117   79.6758  219.4603 H   0  0  0  0  0  0  0  0  0  0  0  0
  139.9629   78.0690  218.9400 H   0  0  0  0  0  0  0  0  0  0  0  0
  139.7590   78.4157  221.4519 H   0  0  0  0  0  0  0  0  0  0  0  0
  142.7346   78.2724  221.5123 H   0  0  0  0  0  0  0  0  0  0  0  0
  142.7195   80.5080  220.9041 H   0  0  0  0  0  0  0  0  0  0  0  0
  140.9398   80.5722  220.9365 H   0  0  0  0  0  0  0  0  0  0  0  0
  142.6988   81.7045  222.8357 H   0  0  0  0  0  0  0  0  0  0  0  0
  140.9522   81.4919  223.0487 H   0  0  0  0  0  0  0  0  0  0  0  0
  143.2399   79.7289  223.9724 H   0  0  0  0  0  0  0  0  0  0  0  0
  141.7949   80.1466  224.8564 H   0  0  0  0  0  0  0  0  0  0  0  0
  141.8741   77.7432  223.6513 H   0  0  0  0  0  0  0  0  0  0  0  0
  140.3892   78.6567  223.4202 H   0  0  0  0  0  0  0  0  0  0  0  0
  139.3347   70.0369  222.5234 H   0  0  0  0  0  0  0  0  0  0  0  0
  138.8707   68.5412  224.4363 H   0  0  0  0  0  0  0  0  0  0  0  0
  139.0029   68.0651  226.7374 H   0  0  0  0  0  0  0  0  0  0  0  0
  139.7505   68.7742  229.0194 H   0  0  0  0  0  0  0  0  0  0  0  0
  140.9153   70.8986  229.3236 H   0  0  0  0  0  0  0  0  0  0  0  0
  141.4024   72.4196  227.4272 H   0  0  0  0  0  0  0  0  0  0  0  0
  1  2  2  0
  2  3  1  0
  3  4  1  0
  4  5  1  0
  5  6  2  0
  5  7  1  0
  7  8  1  0
  8  9  1  0
  9 10  1  0
 10 11  1  0
 11 12  1  0
 12 13  1  0
 13 14  1  0
 14 15  1  0
 15 16  1  0
 16 17  1  0
  2 18  1  0
 18 19  2  0
 19 20  1  0
 20 21  2  0
 21 22  1  0
 22 23  2  0
 23 24  1  0
 24 25  2  0
 25 26  1  0
 26 27  2  0
 12  7  1  0
 17 13  1  0
 27 18  1  0
 26 21  1  0
  3 28  1  0
  4 29  1  0
  4 30  1  0
  8 31  1  0
  8 32  1  0
  9 33  1  0
  9 34  1  0
 10 35  1  0
 10 36  1  0
 11 37  1  0
 11 38  1  0
 12 39  1  1
 13 40  1  0
 14 41  1  0
 14 42  1  0
 15 43  1  0
 15 44  1  0
 16 45  1  0
 16 46  1  0
 17 47  1  0
 17 48  1  0
 19 49  1  0
 20 50  1  0
 22 51  1  0
 23 52  1  0
 24 53  1  0
 25 54  1  0
M  END
>  <smiles>  (19) 
O=C(NCC(=O)N1CCCCC1C1CCCC1)c1ccc2ccccc2n1

>  <score_type>  (19) 
oracle

>  <origin>  (19) 
autodockgpu

>  <m_score__min__energy>  (19) 
-8.9100000000000001

>  <m_primary>  (19) 
energy

>  <rmsd>  (19) 
2.2055622542629076

>  <m_score__min__rmsd>  (19) 
2.2055622542629076

>  <meeko>  (19) 
{"free_energy": -8.88, "intermolecular_energy": -10.37, "internal_energy": -1.37, "cluster_size": 41, "cluster_id": 1, "rank_in_cluster": 6}

>  <energy>  (19) 
-8.81

>  <cluster_rmsd>  (19) 
0.41

>  <cluster>  (19) 
1

$$$$

     RDKit          3D

 54 57  0  0  0  0  0  0  0  0999 V2000
  139.4480   71.2360  221.3380 O   0  0  0  0  0  0  0  0  0  0  0  0
  139.5640   71.8810  222.4020 C   0  0  0  0  0  0  0  0  0  0  0  0
  139.4520   73.3010  222.3310 N   0  0  0  0  0  0  0  0  0  0  0  0
  139.2160   73.8940  221.0490 C   0  0  0  0  0  0  0  0  0  0  0  0
  140.3700   73.8850  220.1550 C   0  0  0  0  0  0  0  0  0  0  0  0
  140.5640   73.0490  219.2310 O   0  0  0  0  0  0  0  0  0  0  0  0
  141.3680   74.8870  220.3180 N   0  0  0  0  0  0  0  0  0  0  0  0
  142.7570   74.5410  220.6660 C   0  0  0  0  0  0  0  0  0  0  0  0
  143.6640   75.0440  219.5520 C   0  0  0  0  0  0  0  0  0  0  0  0
  143.4360   76.5040  219.2940 C   0  0  0  0  0  0  0  0  0  0  0  0
  141.9870   76.7210  218.9840 C   0  0  0  0  0  0  0  0  0  0  0  0
  141.1030   76.3050  220.1550 C   0  0  2  0  0  0  0  0  0  0  0  0
  141.4460   77.0910  221.4020 C   0  0  0  0  0  0  0  0  0  0  0  0
  141.7210   78.5280  221.0440 C   0  0  0  0  0  0  0  0  0  0  0  0
  140.9460   79.3880  222.0060 C   0  0  0  0  0  0  0  0  0  0  0  0
  140.4490   78.4720  223.0750 C   0  0  0  0  0  0  0  0  0  0  0  0
  140.2630   77.1560  222.3090 C   0  0  0  0  0  0  0  0  0  0  0  0
  139.8050   71.2340  223.6840 C   0  0  0  0  0  0  0  0  0  0  0  0
  139.5190   69.9040  223.8040 C   0  0  0  0  0  0  0  0  0  0  0  0
  139.7170   69.2120  224.9810 C   0  0  0  0  0  0  0  0  0  0  0  0
  140.2150   69.8880  226.0590 C   0  0  0  0  0  0  0  0  0  0  0  0
  140.4070   69.1790  227.2300 C   0  0  0  0  0  0  0  0  0  0  0  0
  140.9100   69.8770  228.3100 C   0  0  0  0  0  0  0  0  0  0  0  0
  141.1970   71.2120  228.1930 C   0  0  0  0  0  0  0  0  0  0  0  0
  141.0090   71.9260  227.0270 C   0  0  0  0  0  0  0  0  0  0  0  0
  140.5020   71.2310  225.9340 C   0  0  0  0  0  0  0  0  0  0  0  0
  140.2910   71.8740  224.7530 N   0  0  0  0  0  0  0  0  0  0  0  0
  139.5530   73.8220  223.2280 H   0  0  0  0  0  0  0  0  0  0  0  0
  138.3991   73.3424  220.5607 H   0  0  0  0  0  0  0  0  0  0  0  0
  138.9722   74.9506  221.2337 H   0  0  0  0  0  0  0  0  0  0  0  0
  143.0335   75.0203  221.6167 H   0  0  0  0  0  0  0  0  0  0  0  0
  142.8611   73.4518  220.7790 H   0  0  0  0  0  0  0  0  0  0  0  0
  144.7131   74.8895  219.8444 H   0  0  0  0  0  0  0  0  0  0  0  0
  143.4349   74.4848  218.6329 H   0  0  0  0  0  0  0  0  0  0  0  0
  143.7138   77.0845  220.1861 H   0  0  0  0  0  0  0  0  0  0  0  0
  144.0524   76.8332  218.4445 H   0  0  0  0  0  0  0  0  0  0  0  0
  141.8217   77.7874  218.7710 H   0  0  0  0  0  0  0  0  0  0  0  0
  141.7218   76.1051  218.1120 H   0  0  0  0  0  0  0  0  0  0  0  0
  140.0365   76.5041  219.9734 H   0  0  0  0  0  0  0  0  0  0  0  0
  142.3101   76.5972  221.8705 H   0  0  0  0  0  0  0  0  0  0  0  0
  142.7969   78.7386  221.1342 H   0  0  0  0  0  0  0  0  0  0  0  0
  141.4175   78.7348  220.0071 H   0  0  0  0  0  0  0  0  0  0  0  0
  141.5991   80.1602  222.4386 H   0  0  0  0  0  0  0  0  0  0  0  0
  140.1157   79.9049  221.5026 H   0  0  0  0  0  0  0  0  0  0  0  0
  141.1877   78.3630  223.8827 H   0  0  0  0  0  0  0  0  0  0  0  0
  139.5349   78.8275  223.5729 H   0  0  0  0  0  0  0  0  0  0  0  0
  140.2536   76.3002  223.0000 H   0  0  0  0  0  0  0  0  0  0  0  0
  139.3095   77.1178  221.7618 H   0  0  0  0  0  0  0  0  0  0  0  0
  139.1171   69.3662  222.9326 H   0  0  0  0  0  0  0  0  0  0  0  0
  139.4793   68.1402  225.0501 H   0  0  0  0  0  0  0  0  0  0  0  0
  140.1698   68.1071  227.2984 H   0  0  0  0  0  0  0  0  0  0  0  0
  141.0807   69.3606  229.2661 H   0  0  0  0  0  0  0  0  0  0  0  0
  141.5967   71.7402  229.0712 H   0  0  0  0  0  0  0  0  0  0  0  0
  141.2495   72.9976  226.9648 H   0  0  0  0  0  0  0  0  0  0  0  0
  1  2  2  0
  2  3  1  0
  3  4  1  0
  4  5  1  0
  5  6  2  0
  5  7  1  0
  7  8  1  0
  8  9  1  0
  9 10  1  0
 10 11  1  0
 11 12  1  0
 12 13  1  0
 13 14  1  0
 14 15  1  0
 15 16  1  0
 16 17  1  0
  2 18  1  0
 18 19  2  0
 19 20  1  0
 20 21  2  0
 21 22  1  0
 22 23  2  0
 23 24  1  0
 24 25  2  0
 25 26  1  0
 26 27  2  0
 12  7  1  0
 17 13  1  0
 27 18  1  0
 26 21  1  0
  3 28  1  0
  4 29  1  0
  4 30  1  0
  8 31  1  0
  8 32  1  0
  9 33  1  0
  9 34  1  0
 10 35  1  0
 10 36  1  0
 11 37  1  0
 11 38  1  0
 12 39  1  6
 13 40  1  0
 14 41  1  0
 14 42  1  0
 15 43  1  0
 15 44  1  0
 16 45  1  0
 16 46  1  0
 17 47  1  0
 17 48  1  0
 19 49  1  0
 20 50  1  0
 22 51  1  0
 23 52  1  0
 24 53  1  0
 25 54  1  0
M  END
>  <smiles>  (20) 
O=C(NCC(=O)N1CCCCC1C1CCCC1)c1ccc2ccccc2n1

>  <score_type>  (20) 
oracle

>  <origin>  (20) 
autodockgpu

>  <m_score__min__energy>  (20) 
-8.9100000000000001

>  <m_primary>  (20) 
energy

>  <rmsd>  (20) 
2.218127288426001

>  <m_score__min__rmsd>  (20) 
2.218127288426001

>  <meeko>  (20) 
{"free_energy": -7.77, "intermolecular_energy": -9.26, "internal_energy": -1.62, "cluster_size": 41, "cluster_id": 1, "rank_in_cluster": 40}

>  <energy>  (20) 
-8.81

>  <cluster_rmsd>  (20) 
0.42

>  <cluster>  (20) 
1

$$$$

     RDKit          3D

 54 57  0  0  0  0  0  0  0  0999 V2000
  141.2470   72.1210  221.7010 O   0  0  0  0  0  0  0  0  0  0  0  0
  140.3470   72.3240  222.5420 C   0  0  0  0  0  0  0  0  0  0  0  0
  139.4360   73.3930  222.2930 N   0  0  0  0  0  0  0  0  0  0  0  0
  139.6110   74.1610  221.0980 C   0  0  0  0  0  0  0  0  0  0  0  0
  140.7640   75.0570  221.1170 C   0  0  0  0  0  0  0  0  0  0  0  0
  141.0350   75.8700  222.0430 O   0  0  0  0  0  0  0  0  0  0  0  0
  141.6680   75.0310  220.0170 N   0  0  0  0  0  0  0  0  0  0  0  0
  141.2450   74.5680  218.6840 C   0  0  0  0  0  0  0  0  0  0  0  0
  141.4400   75.7130  217.7010 C   0  0  0  0  0  0  0  0  0  0  0  0
  142.8460   76.2350  217.7580 C   0  0  0  0  0  0  0  0  0  0  0  0
  143.1550   76.6410  219.1660 C   0  0  0  0  0  0  0  0  0  0  0  0
  143.0530   75.4530  220.1170 C   0  0  2  0  0  0  0  0  0  0  0  0
  144.0100   74.3510  219.7180 C   0  0  0  0  0  0  0  0  0  0  0  0
  145.2930   74.4780  220.4970 C   0  0  0  0  0  0  0  0  0  0  0  0
  145.6290   73.1120  221.0370 C   0  0  0  0  0  0  0  0  0  0  0  0
  144.7060   72.1570  220.3530 C   0  0  0  0  0  0  0  0  0  0  0  0
  143.4610   73.0240  220.1220 C   0  0  0  0  0  0  0  0  0  0  0  0
  140.2070   71.5160  223.7460 C   0  0  0  0  0  0  0  0  0  0  0  0
  139.5510   70.3210  223.6530 C   0  0  0  0  0  0  0  0  0  0  0  0
  139.3730   69.4930  224.7420 C   0  0  0  0  0  0  0  0  0  0  0  0
  139.8720   69.8890  225.9510 C   0  0  0  0  0  0  0  0  0  0  0  0
  139.6850   69.0470  227.0300 C   0  0  0  0  0  0  0  0  0  0  0  0
  140.1960   69.4620  228.2450 C   0  0  0  0  0  0  0  0  0  0  0  0
  140.8540   70.6600  228.3420 C   0  0  0  0  0  0  0  0  0  0  0  0
  141.0450   71.5060  227.2670 C   0  0  0  0  0  0  0  0  0  0  0  0
  140.5340   71.0950  226.0400 C   0  0  0  0  0  0  0  0  0  0  0  0
  140.6870   71.8820  224.9400 N   0  0  0  0  0  0  0  0  0  0  0  0
  138.6920   73.5470  223.0070 H   0  0  0  0  0  0  0  0  0  0  0  0
  139.7318   73.4635  220.2560 H   0  0  0  0  0  0  0  0  0  0  0  0
  138.7203   74.7995  221.0034 H   0  0  0  0  0  0  0  0  0  0  0  0
  141.8557   73.7058  218.3778 H   0  0  0  0  0  0  0  0  0  0  0  0
  140.1892   74.2601  218.7052 H   0  0  0  0  0  0  0  0  0  0  0  0
  141.2306   75.3530  216.6829 H   0  0  0  0  0  0  0  0  0  0  0  0
  140.7517   76.5278  217.9699 H   0  0  0  0  0  0  0  0  0  0  0  0
  143.5453   75.4484  217.4384 H   0  0  0  0  0  0  0  0  0  0  0  0
  142.9496   77.1016  217.0885 H   0  0  0  0  0  0  0  0  0  0  0  0
  144.1767   77.0465  219.2066 H   0  0  0  0  0  0  0  0  0  0  0  0
  142.4236   77.4011  219.4781 H   0  0  0  0  0  0  0  0  0  0  0  0
  143.3284   75.7124  221.1499 H   0  0  0  0  0  0  0  0  0  0  0  0
  144.1636   74.4304  218.6317 H   0  0  0  0  0  0  0  0  0  0  0  0
  146.0999   74.8306  219.8377 H   0  0  0  0  0  0  0  0  0  0  0  0
  145.1797   75.2027  221.3167 H   0  0  0  0  0  0  0  0  0  0  0  0
  146.6755   72.8592  220.8114 H   0  0  0  0  0  0  0  0  0  0  0  0
  145.5107   73.0719  222.1299 H   0  0  0  0  0  0  0  0  0  0  0  0
  145.1296   71.8047  219.4009 H   0  0  0  0  0  0  0  0  0  0  0  0
  144.5076   71.2422  220.9307 H   0  0  0  0  0  0  0  0  0  0  0  0
  142.8339   72.6015  219.3231 H   0  0  0  0  0  0  0  0  0  0  0  0
  142.8195   73.0867  221.0134 H   0  0  0  0  0  0  0  0  0  0  0  0
  139.1513   70.0087  222.6769 H   0  0  0  0  0  0  0  0  0  0  0  0
  138.8413   68.5355  224.6395 H   0  0  0  0  0  0  0  0  0  0  0  0
  139.1534   68.0895  226.9267 H   0  0  0  0  0  0  0  0  0  0  0  0
  140.0743   68.8291  229.1364 H   0  0  0  0  0  0  0  0  0  0  0  0
  141.2491   70.9625  229.3230 H   0  0  0  0  0  0  0  0  0  0  0  0
  141.5775   72.4623  227.3762 H   0  0  0  0  0  0  0  0  0  0  0  0
  1  2  2  0
  2  3  1  0
  3  4  1  0
  4  5  1  0
  5  6  2  0
  5  7  1  0
  7  8  1  0
  8  9  1  0
  9 10  1  0
 10 11  1  0
 11 12  1  0
 12 13  1  0
 13 14  1  0
 14 15  1  0
 15 16  1  0
 16 17  1  0
  2 18  1  0
 18 19  2  0
 19 20  1  0
 20 21  2  0
 21 22  1  0
 22 23  2  0
 23 24  1  0
 24 25  2  0
 25 26  1  0
 26 27  2  0
 12  7  1  0
 17 13  1  0
 27 18  1  0
 26 21  1  0
  3 28  1  0
  4 29  1  0
  4 30  1  0
  8 31  1  0
  8 32  1  0
  9 33  1  0
  9 34  1  0
 10 35  1  0
 10 36  1  0
 11 37  1  0
 11 38  1  0
 12 39  1  1
 13 40  1  0
 14 41  1  0
 14 42  1  0
 15 43  1  0
 15 44  1  0
 16 45  1  0
 16 46  1  0
 17 47  1  0
 17 48  1  0
 19 49  1  0
 20 50  1  0
 22 51  1  0
 23 52  1  0
 24 53  1  0
 25 54  1  0
M  END
>  <smiles>  (21) 
O=C(NCC(=O)N1CCCCC1C1CCCC1)c1ccc2ccccc2n1

>  <score_type>  (21) 
oracle

>  <origin>  (21) 
autodockgpu

>  <m_score__min__energy>  (21) 
-8.9100000000000001

>  <m_primary>  (21) 
energy

>  <rmsd>  (21) 
1.8221829924991608

>  <m_score__min__rmsd>  (21) 
1.8221829924991608

>  <meeko>  (21) 
{"free_energy": -8.39, "intermolecular_energy": -9.88, "internal_energy": -1.56, "cluster_size": 41, "cluster_id": 1, "rank_in_cluster": 29}

>  <energy>  (21) 
-8.81

>  <cluster_rmsd>  (21) 
0.29

>  <cluster>  (21) 
1

$$$$

     RDKit          3D

 54 57  0  0  0  0  0  0  0  0999 V2000
  141.4310   72.0430  221.6210 O   0  0  0  0  0  0  0  0  0  0  0  0
  140.5910   72.3430  222.4960 C   0  0  0  0  0  0  0  0  0  0  0  0
  139.8550   73.5510  222.3200 N   0  0  0  0  0  0  0  0  0  0  0  0
  140.1250   74.3400  221.1560 C   0  0  0  0  0  0  0  0  0  0  0  0
  139.8770   75.7700  221.3220 C   0  0  0  0  0  0  0  0  0  0  0  0
  138.8420   76.2710  221.8390 O   0  0  0  0  0  0  0  0  0  0  0  0
  140.8660   76.6910  220.8740 N   0  0  0  0  0  0  0  0  0  0  0  0
  142.1430   76.2310  220.3010 C   0  0  0  0  0  0  0  0  0  0  0  0
  142.2430   76.7650  218.8790 C   0  0  0  0  0  0  0  0  0  0  0  0
  142.0520   78.2530  218.8510 C   0  0  0  0  0  0  0  0  0  0  0  0
  140.7380   78.5850  219.4880 C   0  0  0  0  0  0  0  0  0  0  0  0
  140.6990   78.1310  220.9430 C   0  0  2  0  0  0  0  0  0  0  0  0
  141.7980   78.7900  221.7480 C   0  0  0  0  0  0  0  0  0  0  0  0
  141.7970   80.2760  221.4990 C   0  0  0  0  0  0  0  0  0  0  0  0
  141.8720   80.9570  222.8400 C   0  0  0  0  0  0  0  0  0  0  0  0
  142.1880   79.8870  223.8330 C   0  0  0  0  0  0  0  0  0  0  0  0
  141.5140   78.6600  223.2070 C   0  0  0  0  0  0  0  0  0  0  0  0
  140.3500   71.5080  223.6640 C   0  0  0  0  0  0  0  0  0  0  0  0
  139.7090   70.3140  223.4880 C   0  0  0  0  0  0  0  0  0  0  0  0
  139.4410   69.4630  224.5400 C   0  0  0  0  0  0  0  0  0  0  0  0
  139.8300   69.8330  225.7960 C   0  0  0  0  0  0  0  0  0  0  0  0
  139.5530   68.9670  226.8370 C   0  0  0  0  0  0  0  0  0  0  0  0
  139.9540   69.3560  228.1000 C   0  0  0  0  0  0  0  0  0  0  0  0
  140.5960   70.5540  228.2800 C   0  0  0  0  0  0  0  0  0  0  0  0
  140.8770   71.4230  227.2450 C   0  0  0  0  0  0  0  0  0  0  0  0
  140.4770   71.0380  225.9690 C   0  0  0  0  0  0  0  0  0  0  0  0
  140.7220   71.8490  224.9030 N   0  0  0  0  0  0  0  0  0  0  0  0
  139.1590   73.7850  223.0600 H   0  0  0  0  0  0  0  0  0  0  0  0
  141.1828   74.2038  220.8866 H   0  0  0  0  0  0  0  0  0  0  0  0
  139.4335   73.9914  220.3748 H   0  0  0  0  0  0  0  0  0  0  0  0
  142.9808   76.6133  220.9026 H   0  0  0  0  0  0  0  0  0  0  0  0
  142.1859   75.1318  220.2992 H   0  0  0  0  0  0  0  0  0  0  0  0
  143.2355   76.5216  218.4719 H   0  0  0  0  0  0  0  0  0  0  0  0
  141.4535   76.2979  218.2719 H   0  0  0  0  0  0  0  0  0  0  0  0
  142.8660   78.7404  219.4077 H   0  0  0  0  0  0  0  0  0  0  0  0
  142.0632   78.6109  217.8109 H   0  0  0  0  0  0  0  0  0  0  0  0
  140.5849   79.6735  219.4478 H   0  0  0  0  0  0  0  0  0  0  0  0
  139.9426   78.0603  218.9385 H   0  0  0  0  0  0  0  0  0  0  0  0
  139.7637   78.4104  221.4500 H   0  0  0  0  0  0  0  0  0  0  0  0
  142.7450   78.3113  221.4583 H   0  0  0  0  0  0  0  0  0  0  0  0
  142.6668   80.5552  220.8863 H   0  0  0  0  0  0  0  0  0  0  0  0
  140.8874   80.5790  220.9597 H   0  0  0  0  0  0  0  0  0  0  0  0
  142.6642   81.7201  222.8365 H   0  0  0  0  0  0  0  0  0  0  0  0
  140.9278   81.4654  223.0850 H   0  0  0  0  0  0  0  0  0  0  0  0
  143.2738   79.7402  223.9301 H   0  0  0  0  0  0  0  0  0  0  0  0
  141.8403   80.1117  224.8521 H   0  0  0  0  0  0  0  0  0  0  0  0
  141.9462   77.7310  223.6072 H   0  0  0  0  0  0  0  0  0  0  0  0
  140.4365   78.6150  223.4238 H   0  0  0  0  0  0  0  0  0  0  0  0
  139.3966   70.0221  222.4745 H   0  0  0  0  0  0  0  0  0  0  0  0
  138.9248   68.5064  224.3710 H   0  0  0  0  0  0  0  0  0  0  0  0
  139.0363   68.0109  226.6671 H   0  0  0  0  0  0  0  0  0  0  0  0
  139.7579   68.7033  228.9634 H   0  0  0  0  0  0  0  0  0  0  0  0
  140.9019   70.8362  229.2982 H   0  0  0  0  0  0  0  0  0  0  0  0
  141.3943   72.3777  227.4211 H   0  0  0  0  0  0  0  0  0  0  0  0
  1  2  2  0
  2  3  1  0
  3  4  1  0
  4  5  1  0
  5  6  2  0
  5  7  1  0
  7  8  1  0
  8  9  1  0
  9 10  1  0
 10 11  1  0
 11 12  1  0
 12 13  1  0
 13 14  1  0
 14 15  1  0
 15 16  1  0
 16 17  1  0
  2 18  1  0
 18 19  2  0
 19 20  1  0
 20 21  2  0
 21 22  1  0
 22 23  2  0
 23 24  1  0
 24 25  2  0
 25 26  1  0
 26 27  2  0
 12  7  1  0
 17 13  1  0
 27 18  1  0
 26 21  1  0
  3 28  1  0
  4 29  1  0
  4 30  1  0
  8 31  1  0
  8 32  1  0
  9 33  1  0
  9 34  1  0
 10 35  1  0
 10 36  1  0
 11 37  1  0
 11 38  1  0
 12 39  1  1
 13 40  1  0
 14 41  1  0
 14 42  1  0
 15 43  1  0
 15 44  1  0
 16 45  1  0
 16 46  1  0
 17 47  1  0
 17 48  1  0
 19 49  1  0
 20 50  1  0
 22 51  1  0
 23 52  1  0
 24 53  1  0
 25 54  1  0
M  END
>  <smiles>  (22) 
O=C(NCC(=O)N1CCCCC1C1CCCC1)c1ccc2ccccc2n1

>  <score_type>  (22) 
oracle

>  <origin>  (22) 
autodockgpu

>  <m_score__min__energy>  (22) 
-8.9100000000000001

>  <m_primary>  (22) 
energy

>  <rmsd>  (22) 
2.2047117209142475

>  <m_score__min__rmsd>  (22) 
2.2047117209142475

>  <meeko>  (22) 
{"free_energy": -8.84, "intermolecular_energy": -10.33, "internal_energy": -1.37, "cluster_size": 41, "cluster_id": 1, "rank_in_cluster": 15}

>  <energy>  (22) 
-8.77

>  <cluster_rmsd>  (22) 
0.34

>  <cluster>  (22) 
1

$$$$

     RDKit          3D

 54 57  0  0  0  0  0  0  0  0999 V2000
  135.9670   77.4850  223.0410 O   0  0  0  0  0  0  0  0  0  0  0  0
  136.1660   76.3230  223.4550 C   0  0  0  0  0  0  0  0  0  0  0  0
  137.3430   75.6530  223.0070 N   0  0  0  0  0  0  0  0  0  0  0  0
  138.2170   76.3530  222.1150 C   0  0  0  0  0  0  0  0  0  0  0  0
  139.5290   75.7360  221.9440 C   0  0  0  0  0  0  0  0  0  0  0  0
  139.8260   74.5580  222.2810 O   0  0  0  0  0  0  0  0  0  0  0  0
  140.5730   76.5040  221.3520 N   0  0  0  0  0  0  0  0  0  0  0  0
  141.8010   75.8700  220.8420 C   0  0  0  0  0  0  0  0  0  0  0  0
  141.9090   76.1770  219.3550 C   0  0  0  0  0  0  0  0  0  0  0  0
  141.8250   77.6540  219.1050 C   0  0  0  0  0  0  0  0  0  0  0  0
  140.5520   78.1740  219.6970 C   0  0  0  0  0  0  0  0  0  0  0  0
  140.5110   77.9470  221.2050 C   0  0  2  0  0  0  0  0  0  0  0  0
  141.6710   78.6350  221.8910 C   0  0  0  0  0  0  0  0  0  0  0  0
  141.7100   80.0890  221.5000 C   0  0  0  0  0  0  0  0  0  0  0  0
  141.8750   80.8910  222.7640 C   0  0  0  0  0  0  0  0  0  0  0  0
  142.2030   79.9080  223.8390 C   0  0  0  0  0  0  0  0  0  0  0  0
  141.4560   78.6540  223.3670 C   0  0  0  0  0  0  0  0  0  0  0  0
  135.2480   75.6500  224.3630 C   0  0  0  0  0  0  0  0  0  0  0  0
  134.3680   76.4110  225.0780 C   0  0  0  0  0  0  0  0  0  0  0  0
  133.4630   75.8560  225.9600 C   0  0  0  0  0  0  0  0  0  0  0  0
  133.4550   74.4990  226.1180 C   0  0  0  0  0  0  0  0  0  0  0  0
  132.5420   73.9600  227.0050 C   0  0  0  0  0  0  0  0  0  0  0  0
  132.5470   72.5880  227.1540 C   0  0  0  0  0  0  0  0  0  0  0  0
  133.4290   71.8210  226.4380 C   0  0  0  0  0  0  0  0  0  0  0  0
  134.3430   72.3520  225.5500 C   0  0  0  0  0  0  0  0  0  0  0  0
  134.3450   73.7350  225.3940 C   0  0  0  0  0  0  0  0  0  0  0  0
  135.2210   74.3230  224.5350 N   0  0  0  0  0  0  0  0  0  0  0  0
  137.4920   74.6850  223.3630 H   0  0  0  0  0  0  0  0  0  0  0  0
  137.7313   76.4060  221.1295 H   0  0  0  0  0  0  0  0  0  0  0  0
  138.3928   77.3426  222.5620 H   0  0  0  0  0  0  0  0  0  0  0  0
  142.6767   76.2744  221.3708 H   0  0  0  0  0  0  0  0  0  0  0  0
  141.7646   74.7828  221.0051 H   0  0  0  0  0  0  0  0  0  0  0  0
  142.8726   75.8025  218.9791 H   0  0  0  0  0  0  0  0  0  0  0  0
  141.0751   75.6846  218.8333 H   0  0  0  0  0  0  0  0  0  0  0  0
  142.6832   78.1574  219.5742 H   0  0  0  0  0  0  0  0  0  0  0  0
  141.8405   77.8505  218.0228 H   0  0  0  0  0  0  0  0  0  0  0  0
  140.4765   79.2526  219.4945 H   0  0  0  0  0  0  0  0  0  0  0  0
  139.7096   77.6335  219.2406 H   0  0  0  0  0  0  0  0  0  0  0  0
  139.6090   78.3682  221.6730 H   0  0  0  0  0  0  0  0  0  0  0  0
  142.5853   78.0942  221.6053 H   0  0  0  0  0  0  0  0  0  0  0  0
  142.5578   80.2739  220.8240 H   0  0  0  0  0  0  0  0  0  0  0  0
  140.7860   80.3753  220.9762 H   0  0  0  0  0  0  0  0  0  0  0  0
  142.6918   81.6189  222.6503 H   0  0  0  0  0  0  0  0  0  0  0  0
  140.9625   81.4572  223.0024 H   0  0  0  0  0  0  0  0  0  0  0  0
  143.2866   79.7284  223.8987 H   0  0  0  0  0  0  0  0  0  0  0  0
  141.9147   80.2417  224.8467 H   0  0  0  0  0  0  0  0  0  0  0  0
  141.8755   77.7508  223.8342 H   0  0  0  0  0  0  0  0  0  0  0  0
  140.3900   78.6712  223.6377 H   0  0  0  0  0  0  0  0  0  0  0  0
  134.3808   77.5031  224.9466 H   0  0  0  0  0  0  0  0  0  0  0  0
  132.7640   76.4919  226.5230 H   0  0  0  0  0  0  0  0  0  0  0  0
  131.8426   74.5963  227.5671 H   0  0  0  0  0  0  0  0  0  0  0  0
  131.8416   72.1089  227.8489 H   0  0  0  0  0  0  0  0  0  0  0  0
  133.4075   70.7301  226.5777 H   0  0  0  0  0  0  0  0  0  0  0  0
  135.0392   71.7101  224.9903 H   0  0  0  0  0  0  0  0  0  0  0  0
  1  2  2  0
  2  3  1  0
  3  4  1  0
  4  5  1  0
  5  6  2  0
  5  7  1  0
  7  8  1  0
  8  9  1  0
  9 10  1  0
 10 11  1  0
 11 12  1  0
 12 13  1  0
 13 14  1  0
 14 15  1  0
 15 16  1  0
 16 17  1  0
  2 18  1  0
 18 19  2  0
 19 20  1  0
 20 21  2  0
 21 22  1  0
 22 23  2  0
 23 24  1  0
 24 25  2  0
 25 26  1  0
 26 27  2  0
 12  7  1  0
 17 13  1  0
 27 18  1  0
 26 21  1  0
  3 28  1  0
  4 29  1  0
  4 30  1  0
  8 31  1  0
  8 32  1  0
  9 33  1  0
  9 34  1  0
 10 35  1  0
 10 36  1  0
 11 37  1  0
 11 38  1  0
 12 39  1  1
 13 40  1  0
 14 41  1  0
 14 42  1  0
 15 43  1  0
 15 44  1  0
 16 45  1  0
 16 46  1  0
 17 47  1  0
 17 48  1  0
 19 49  1  0
 20 50  1  0
 22 51  1  0
 23 52  1  0
 24 53  1  0
 25 54  1  0
M  END
>  <smiles>  (23) 
O=C(NCC(=O)N1CCCCC1C1CCCC1)c1ccc2ccccc2n1

>  <score_type>  (23) 
oracle

>  <origin>  (23) 
autodockgpu

>  <m_score__min__energy>  (23) 
-8.9100000000000001

>  <m_primary>  (23) 
energy

>  <rmsd>  (23) 
5.958818993536727

>  <m_score__min__rmsd>  (23) 
5.958818993536727

>  <meeko>  (23) 
{"free_energy": -7.51, "intermolecular_energy": -9.01, "internal_energy": -1.68, "cluster_size": 1, "cluster_id": 3, "rank_in_cluster": 1}

>  <energy>  (23) 
-8.77

>  <cluster_rmsd>  (23) 
0.36

>  <cluster>  (23) 
1

$$$$

     RDKit          3D

 54 57  0  0  0  0  0  0  0  0999 V2000
  140.8650   74.0120  220.4530 O   0  0  0  0  0  0  0  0  0  0  0  0
  140.4810   74.7670  221.3720 C   0  0  0  0  0  0  0  0  0  0  0  0
  139.5680   74.2340  222.3290 N   0  0  0  0  0  0  0  0  0  0  0  0
  139.1520   72.8720  222.1760 C   0  0  0  0  0  0  0  0  0  0  0  0
  139.9640   71.9050  222.9100 C   0  0  0  0  0  0  0  0  0  0  0  0
  141.1810   71.6630  222.6870 O   0  0  0  0  0  0  0  0  0  0  0  0
  139.3570   71.1640  223.9630 N   0  0  0  0  0  0  0  0  0  0  0  0
  137.9020   71.1990  224.1910 C   0  0  0  0  0  0  0  0  0  0  0  0
  137.3660   69.7820  224.0510 C   0  0  0  0  0  0  0  0  0  0  0  0
  138.1100   68.8360  224.9480 C   0  0  0  0  0  0  0  0  0  0  0  0
  139.5710   68.9210  224.6340 C   0  0  0  0  0  0  0  0  0  0  0  0
  140.1090   70.3270  224.8810 C   0  0  2  0  0  0  0  0  0  0  0  0
  139.9050   70.7430  226.3210 C   0  0  0  0  0  0  0  0  0  0  0  0
  140.1840   69.5790  227.2360 C   0  0  0  0  0  0  0  0  0  0  0  0
  141.0830   70.0770  228.3380 C   0  0  0  0  0  0  0  0  0  0  0  0
  141.1010   71.5650  228.2170 C   0  0  0  0  0  0  0  0  0  0  0  0
  140.9180   71.7680  226.7080 C   0  0  0  0  0  0  0  0  0  0  0  0
  140.9310   76.1470  221.4870 C   0  0  0  0  0  0  0  0  0  0  0  0
  141.3460   76.7910  220.3550 C   0  0  0  0  0  0  0  0  0  0  0  0
  141.7880   78.0970  220.3730 C   0  0  0  0  0  0  0  0  0  0  0  0
  141.8080   78.7630  221.5660 C   0  0  0  0  0  0  0  0  0  0  0  0
  142.2530   80.0710  221.5660 C   0  0  0  0  0  0  0  0  0  0  0  0
  142.2680   80.7300  222.7790 C   0  0  0  0  0  0  0  0  0  0  0  0
  141.8530   80.0870  223.9160 C   0  0  0  0  0  0  0  0  0  0  0  0
  141.4060   78.7800  223.9250 C   0  0  0  0  0  0  0  0  0  0  0  0
  141.3880   78.1090  222.7050 C   0  0  0  0  0  0  0  0  0  0  0  0
  140.9600   76.8190  222.6430 N   0  0  0  0  0  0  0  0  0  0  0  0
  139.2590   74.8790  223.0870 H   0  0  0  0  0  0  0  0  0  0  0  0
  138.1139   72.7879  222.5299 H   0  0  0  0  0  0  0  0  0  0  0  0
  139.2635   72.6286  221.1091 H   0  0  0  0  0  0  0  0  0  0  0  0
  137.6923   71.5785  225.2019 H   0  0  0  0  0  0  0  0  0  0  0  0
  137.4181   71.8629  223.4595 H   0  0  0  0  0  0  0  0  0  0  0  0
  136.3000   69.7719  224.3221 H   0  0  0  0  0  0  0  0  0  0  0  0
  137.5009   69.4570  223.0088 H   0  0  0  0  0  0  0  0  0  0  0  0
  137.9411   69.1133  225.9990 H   0  0  0  0  0  0  0  0  0  0  0  0
  137.7523   67.8085  224.7860 H   0  0  0  0  0  0  0  0  0  0  0  0
  140.1169   68.2109  225.2726 H   0  0  0  0  0  0  0  0  0  0  0  0
  139.7130   68.6762  223.5710 H   0  0  0  0  0  0  0  0  0  0  0  0
  141.1931   70.4028  224.7108 H   0  0  0  0  0  0  0  0  0  0  0  0
  138.8737   71.1153  226.4090 H   0  0  0  0  0  0  0  0  0  0  0  0
  139.2425   69.2008  227.6609 H   0  0  0  0  0  0  0  0  0  0  0  0
  140.6647   68.7579  226.6841 H   0  0  0  0  0  0  0  0  0  0  0  0
  140.6854   69.7786  229.3192 H   0  0  0  0  0  0  0  0  0  0  0  0
  142.0951   69.6546  228.2528 H   0  0  0  0  0  0  0  0  0  0  0  0
  140.2763   72.0215  228.7840 H   0  0  0  0  0  0  0  0  0  0  0  0
  142.0134   72.0302  228.6183 H   0  0  0  0  0  0  0  0  0  0  0  0
  140.5492   72.7817  226.4926 H   0  0  0  0  0  0  0  0  0  0  0  0
  141.8604   71.6603  226.1510 H   0  0  0  0  0  0  0  0  0  0  0  0
  141.3267   76.2494  219.3978 H   0  0  0  0  0  0  0  0  0  0  0  0
  142.1172   78.5918  219.4474 H   0  0  0  0  0  0  0  0  0  0  0  0
  142.5810   80.5657  220.6399 H   0  0  0  0  0  0  0  0  0  0  0  0
  142.6136   81.7729  222.8331 H   0  0  0  0  0  0  0  0  0  0  0  0
  141.8770   80.6384  224.8675 H   0  0  0  0  0  0  0  0  0  0  0  0
  141.0789   78.2911  224.8545 H   0  0  0  0  0  0  0  0  0  0  0  0
  1  2  2  0
  2  3  1  0
  3  4  1  0
  4  5  1  0
  5  6  2  0
  5  7  1  0
  7  8  1  0
  8  9  1  0
  9 10  1  0
 10 11  1  0
 11 12  1  0
 12 13  1  0
 13 14  1  0
 14 15  1  0
 15 16  1  0
 16 17  1  0
  2 18  1  0
 18 19  2  0
 19 20  1  0
 20 21  2  0
 21 22  1  0
 22 23  2  0
 23 24  1  0
 24 25  2  0
 25 26  1  0
 26 27  2  0
 12  7  1  0
 17 13  1  0
 27 18  1  0
 26 21  1  0
  3 28  1  0
  4 29  1  0
  4 30  1  0
  8 31  1  0
  8 32  1  0
  9 33  1  0
  9 34  1  0
 10 35  1  0
 10 36  1  0
 11 37  1  0
 11 38  1  0
 12 39  1  6
 13 40  1  0
 14 41  1  0
 14 42  1  0
 15 43  1  0
 15 44  1  0
 16 45  1  0
 16 46  1  0
 17 47  1  0
 17 48  1  0
 19 49  1  0
 20 50  1  0
 22 51  1  0
 23 52  1  0
 24 53  1  0
 25 54  1  0
M  END
>  <smiles>  (24) 
O=C(NCC(=O)N1CCCCC1C1CCCC1)c1ccc2ccccc2n1

>  <score_type>  (24) 
oracle

>  <origin>  (24) 
autodockgpu

>  <m_score__min__energy>  (24) 
-8.9100000000000001

>  <m_primary>  (24) 
energy

>  <rmsd>  (24) 
8.446806217089852

>  <m_score__min__rmsd>  (24) 
8.446806217089852

>  <meeko>  (24) 
{"free_energy": -8.73, "intermolecular_energy": -10.22, "internal_energy": -1.44, "cluster_size": 7, "cluster_id": 2, "rank_in_cluster": 3}

>  <energy>  (24) 
-8.74

>  <cluster_rmsd>  (24) 
0.3

>  <cluster>  (24) 
1

$$$$

     RDKit          3D

 54 57  0  0  0  0  0  0  0  0999 V2000
  141.4020   71.5490  222.0790 O   0  0  0  0  0  0  0  0  0  0  0  0
  140.5300   71.8060  222.9360 C   0  0  0  0  0  0  0  0  0  0  0  0
  139.5230   72.7550  222.5930 N   0  0  0  0  0  0  0  0  0  0  0  0
  139.5750   73.3510  221.2930 C   0  0  0  0  0  0  0  0  0  0  0  0
  140.2720   74.6330  221.2410 C   0  0  0  0  0  0  0  0  0  0  0  0
  140.0970   75.5870  222.0470 O   0  0  0  0  0  0  0  0  0  0  0  0
  141.2290   74.8490  220.2080 N   0  0  0  0  0  0  0  0  0  0  0  0
  140.8740   74.7010  218.7860 C   0  0  0  0  0  0  0  0  0  0  0  0
  141.1130   76.0370  218.0970 C   0  0  0  0  0  0  0  0  0  0  0  0
  142.5120   76.5220  218.3390 C   0  0  0  0  0  0  0  0  0  0  0  0
  142.7500   76.5980  219.8150 C   0  0  0  0  0  0  0  0  0  0  0  0
  142.6060   75.2280  220.4690 C   0  0  2  0  0  0  0  0  0  0  0  0
  143.5860   74.2380  219.8790 C   0  0  0  0  0  0  0  0  0  0  0  0
  144.9570   74.4620  220.4610 C   0  0  0  0  0  0  0  0  0  0  0  0
  145.4940   73.1190  220.8800 C   0  0  0  0  0  0  0  0  0  0  0  0
  144.5680   72.1020  220.2990 C   0  0  0  0  0  0  0  0  0  0  0  0
  143.2290   72.8510  220.2980 C   0  0  0  0  0  0  0  0  0  0  0  0
  140.5170   71.1750  224.2480 C   0  0  0  0  0  0  0  0  0  0  0  0
  141.0090   71.8780  225.3120 C   0  0  0  0  0  0  0  0  0  0  0  0
  141.0350   71.3570  226.5890 C   0  0  0  0  0  0  0  0  0  0  0  0
  140.5510   70.0950  226.7890 C   0  0  0  0  0  0  0  0  0  0  0  0
  140.5850   69.5890  228.0750 C   0  0  0  0  0  0  0  0  0  0  0  0
  140.0930   68.3120  228.2590 C   0  0  0  0  0  0  0  0  0  0  0  0
  139.6000   67.6040  227.1950 C   0  0  0  0  0  0  0  0  0  0  0  0
  139.5620   68.1030  225.9080 C   0  0  0  0  0  0  0  0  0  0  0  0
  140.0560   69.3890  225.7130 C   0  0  0  0  0  0  0  0  0  0  0  0
  140.0500   69.9410  224.4690 N   0  0  0  0  0  0  0  0  0  0  0  0
  138.8050   72.9570  223.3220 H   0  0  0  0  0  0  0  0  0  0  0  0
  140.0888   72.6531  220.6156 H   0  0  0  0  0  0  0  0  0  0  0  0
  138.5339   73.5493  220.9984 H   0  0  0  0  0  0  0  0  0  0  0  0
  141.5023   73.9255  218.3237 H   0  0  0  0  0  0  0  0  0  0  0  0
  139.8197   74.4038  218.6855 H   0  0  0  0  0  0  0  0  0  0  0  0
  140.9555   75.9173  217.0149 H   0  0  0  0  0  0  0  0  0  0  0  0
  140.4091   76.7754  218.5086 H   0  0  0  0  0  0  0  0  0  0  0  0
  143.2291   75.8224  217.8848 H   0  0  0  0  0  0  0  0  0  0  0  0
  142.6450   77.5165  217.8882 H   0  0  0  0  0  0  0  0  0  0  0  0
  143.7670   76.9763  219.9953 H   0  0  0  0  0  0  0  0  0  0  0  0
  142.0009   77.2735  220.2539 H   0  0  0  0  0  0  0  0  0  0  0  0
  142.8284   75.2464  221.5461 H   0  0  0  0  0  0  0  0  0  0  0  0
  143.5620   74.3685  218.7870 H   0  0  0  0  0  0  0  0  0  0  0  0
  145.6174   74.9116  219.7049 H   0  0  0  0  0  0  0  0  0  0  0  0
  144.9064   75.1454  221.3215 H   0  0  0  0  0  0  0  0  0  0  0  0
  146.5120   72.9760  220.4884 H   0  0  0  0  0  0  0  0  0  0  0  0
  145.5490   73.0326  221.9752 H   0  0  0  0  0  0  0  0  0  0  0  0
  144.8704   71.8231  219.2788 H   0  0  0  0  0  0  0  0  0  0  0  0
  144.5449   71.1542  220.8568 H   0  0  0  0  0  0  0  0  0  0  0  0
  142.5278   72.3957  219.5831 H   0  0  0  0  0  0  0  0  0  0  0  0
  142.7292   72.8221  221.2775 H   0  0  0  0  0  0  0  0  0  0  0  0
  141.3973   72.8934  225.1443 H   0  0  0  0  0  0  0  0  0  0  0  0
  141.4365   71.9446  227.4278 H   0  0  0  0  0  0  0  0  0  0  0  0
  140.9859   70.1770  228.9138 H   0  0  0  0  0  0  0  0  0  0  0  0
  140.0970   67.8620  229.2627 H   0  0  0  0  0  0  0  0  0  0  0  0
  139.2159   66.5890  227.3745 H   0  0  0  0  0  0  0  0  0  0  0  0
  139.1590   67.5100  225.0738 H   0  0  0  0  0  0  0  0  0  0  0  0
  1  2  2  0
  2  3  1  0
  3  4  1  0
  4  5  1  0
  5  6  2  0
  5  7  1  0
  7  8  1  0
  8  9  1  0
  9 10  1  0
 10 11  1  0
 11 12  1  0
 12 13  1  0
 13 14  1  0
 14 15  1  0
 15 16  1  0
 16 17  1  0
  2 18  1  0
 18 19  2  0
 19 20  1  0
 20 21  2  0
 21 22  1  0
 22 23  2  0
 23 24  1  0
 24 25  2  0
 25 26  1  0
 26 27  2  0
 12  7  1  0
 17 13  1  0
 27 18  1  0
 26 21  1  0
  3 28  1  0
  4 29  1  0
  4 30  1  0
  8 31  1  0
  8 32  1  0
  9 33  1  0
  9 34  1  0
 10 35  1  0
 10 36  1  0
 11 37  1  0
 11 38  1  0
 12 39  1  1
 13 40  1  0
 14 41  1  0
 14 42  1  0
 15 43  1  0
 15 44  1  0
 16 45  1  0
 16 46  1  0
 17 47  1  0
 17 48  1  0
 19 49  1  0
 20 50  1  0
 22 51  1  0
 23 52  1  0
 24 53  1  0
 25 54  1  0
M  END
>  <smiles>  (25) 
O=C(NCC(=O)N1CCCCC1C1CCCC1)c1ccc2ccccc2n1

>  <score_type>  (25) 
oracle

>  <origin>  (25) 
autodockgpu

>  <m_score__min__energy>  (25) 
-8.9100000000000001

>  <m_primary>  (25) 
energy

>  <rmsd>  (25) 
2.847517321050831

>  <m_score__min__rmsd>  (25) 
2.847517321050831

>  <meeko>  (25) 
{"free_energy": -8.21, "intermolecular_energy": -9.7, "internal_energy": -1.61, "cluster_size": 41, "cluster_id": 1, "rank_in_cluster": 35}

>  <energy>  (25) 
-8.53

>  <cluster_rmsd>  (25) 
0.6

>  <cluster>  (25) 
1

$$$$

     RDKit          3D

 54 57  0  0  0  0  0  0  0  0999 V2000
  141.3530   72.4650  221.9190 O   0  0  0  0  0  0  0  0  0  0  0  0
  140.3400   72.4860  222.6490 C   0  0  0  0  0  0  0  0  0  0  0  0
  139.3090   73.4160  222.3240 N   0  0  0  0  0  0  0  0  0  0  0  0
  139.5010   74.2630  221.1860 C   0  0  0  0  0  0  0  0  0  0  0  0
  140.3620   75.4170  221.4270 C   0  0  0  0  0  0  0  0  0  0  0  0
  141.6020   75.3620  221.6520 O   0  0  0  0  0  0  0  0  0  0  0  0
  139.7810   76.7170  221.4120 N   0  0  0  0  0  0  0  0  0  0  0  0
  139.2390   77.3040  220.1750 C   0  0  0  0  0  0  0  0  0  0  0  0
  137.7610   77.5910  220.3950 C   0  0  0  0  0  0  0  0  0  0  0  0
  137.5550   78.4320  221.6210 C   0  0  0  0  0  0  0  0  0  0  0  0
  138.1760   77.7380  222.7940 C   0  0  0  0  0  0  0  0  0  0  0  0
  139.6770   77.5530  222.5940 C   0  0  2  0  0  0  0  0  0  0  0  0
  140.3690   78.8860  222.4070 C   0  0  0  0  0  0  0  0  0  0  0  0
  140.4990   79.5880  223.7330 C   0  0  0  0  0  0  0  0  0  0  0  0
  141.9200   80.0750  223.8490 C   0  0  0  0  0  0  0  0  0  0  0  0
  142.5290   79.9000  222.4970 C   0  0  0  0  0  0  0  0  0  0  0  0
  141.7780   78.6740  221.9620 C   0  0  0  0  0  0  0  0  0  0  0  0
  140.1880   71.6060  223.7990 C   0  0  0  0  0  0  0  0  0  0  0  0
  139.5010   70.4360  223.6340 C   0  0  0  0  0  0  0  0  0  0  0  0
  139.3100   69.5440  224.6690 C   0  0  0  0  0  0  0  0  0  0  0  0
  139.8270   69.8470  225.8970 C   0  0  0  0  0  0  0  0  0  0  0  0
  139.6270   68.9420  226.9210 C   0  0  0  0  0  0  0  0  0  0  0  0
  140.1560   69.2640  228.1550 C   0  0  0  0  0  0  0  0  0  0  0  0
  140.8440   70.4370  228.3240 C   0  0  0  0  0  0  0  0  0  0  0  0
  141.0500   71.3460  227.3050 C   0  0  0  0  0  0  0  0  0  0  0  0
  140.5200   71.0290  226.0580 C   0  0  0  0  0  0  0  0  0  0  0  0
  140.6850   71.8810  225.0100 N   0  0  0  0  0  0  0  0  0  0  0  0
  138.4720   73.4200  222.9450 H   0  0  0  0  0  0  0  0  0  0  0  0
  139.9503   73.6614  220.3822 H   0  0  0  0  0  0  0  0  0  0  0  0
  138.5102   74.6621  220.9231 H   0  0  0  0  0  0  0  0  0  0  0  0
  139.7697   78.2391  219.9425 H   0  0  0  0  0  0  0  0  0  0  0  0
  139.3705   76.6076  219.3337 H   0  0  0  0  0  0  0  0  0  0  0  0
  137.3641   78.1267  219.5201 H   0  0  0  0  0  0  0  0  0  0  0  0
  137.2342   76.6352  220.5321 H   0  0  0  0  0  0  0  0  0  0  0  0
  138.0294   79.4142  221.4792 H   0  0  0  0  0  0  0  0  0  0  0  0
  136.4789   78.5751  221.7989 H   0  0  0  0  0  0  0  0  0  0  0  0
  138.0061   78.3404  223.6986 H   0  0  0  0  0  0  0  0  0  0  0  0
  137.7132   76.7454  222.8966 H   0  0  0  0  0  0  0  0  0  0  0  0
  140.1680   77.0933  223.4644 H   0  0  0  0  0  0  0  0  0  0  0  0
  139.7778   79.4603  221.6786 H   0  0  0  0  0  0  0  0  0  0  0  0
  139.8049   80.4403  223.7766 H   0  0  0  0  0  0  0  0  0  0  0  0
  140.2546   78.9044  224.5594 H   0  0  0  0  0  0  0  0  0  0  0  0
  141.9376   81.1353  224.1414 H   0  0  0  0  0  0  0  0  0  0  0  0
  142.4755   79.5150  224.6157 H   0  0  0  0  0  0  0  0  0  0  0  0
  142.3552   80.7824  221.8636 H   0  0  0  0  0  0  0  0  0  0  0  0
  143.6218   79.7756  222.5167 H   0  0  0  0  0  0  0  0  0  0  0  0
  141.8380   78.6278  220.8646 H   0  0  0  0  0  0  0  0  0  0  0  0
  142.1990   77.7272  222.3313 H   0  0  0  0  0  0  0  0  0  0  0  0
  139.0867   70.1977  222.6433 H   0  0  0  0  0  0  0  0  0  0  0  0
  138.7534   68.6088  224.5091 H   0  0  0  0  0  0  0  0  0  0  0  0
  139.0711   68.0065  226.7606 H   0  0  0  0  0  0  0  0  0  0  0  0
  140.0249   68.5774  229.0044 H   0  0  0  0  0  0  0  0  0  0  0  0
  141.2520   70.6656  229.3196 H   0  0  0  0  0  0  0  0  0  0  0  0
  141.6082   72.2791  227.4716 H   0  0  0  0  0  0  0  0  0  0  0  0
  1  2  2  0
  2  3  1  0
  3  4  1  0
  4  5  1  0
  5  6  2  0
  5  7  1  0
  7  8  1  0
  8  9  1  0
  9 10  1  0
 10 11  1  0
 11 12  1  0
 12 13  1  0
 13 14  1  0
 14 15  1  0
 15 16  1  0
 16 17  1  0
  2 18  1  0
 18 19  2  0
 19 20  1  0
 20 21  2  0
 21 22  1  0
 22 23  2  0
 23 24  1  0
 24 25  2  0
 25 26  1  0
 26 27  2  0
 12  7  1  0
 17 13  1  0
 27 18  1  0
 26 21  1  0
  3 28  1  0
  4 29  1  0
  4 30  1  0
  8 31  1  0
  8 32  1  0
  9 33  1  0
  9 34  1  0
 10 35  1  0
 10 36  1  0
 11 37  1  0
 11 38  1  0
 12 39  1  1
 13 40  1  0
 14 41  1  0
 14 42  1  0
 15 43  1  0
 15 44  1  0
 16 45  1  0
 16 46  1  0
 17 47  1  0
 17 48  1  0
 19 49  1  0
 20 50  1  0
 22 51  1  0
 23 52  1  0
 24 53  1  0
 25 54  1  0
M  END
>  <smiles>  (26) 
O=C(NCC(=O)N1CCCCC1C1CCCC1)c1ccc2ccccc2n1

>  <score_type>  (26) 
oracle

>  <origin>  (26) 
autodockgpu

>  <m_score__min__energy>  (26) 
-8.9100000000000001

>  <m_primary>  (26) 
energy

>  <rmsd>  (26) 
2.78691308451715

>  <m_score__min__rmsd>  (26) 
2.78691308451715

>  <meeko>  (26) 
{"free_energy": -8.45, "intermolecular_energy": -9.94, "internal_energy": -1.33, "cluster_size": 41, "cluster_id": 1, "rank_in_cluster": 28}

>  <energy>  (26) 
-8.51

>  <cluster_rmsd>  (26) 
1.32

>  <cluster>  (26) 
1

$$$$

     RDKit          3D

 54 57  0  0  0  0  0  0  0  0999 V2000
  140.5520   71.5220  221.3190 O   0  0  0  0  0  0  0  0  0  0  0  0
  140.1260   72.0510  222.3670 C   0  0  0  0  0  0  0  0  0  0  0  0
  139.6240   73.3820  222.2810 N   0  0  0  0  0  0  0  0  0  0  0  0
  139.6400   74.0260  221.0020 C   0  0  0  0  0  0  0  0  0  0  0  0
  140.5660   75.1500  220.9000 C   0  0  0  0  0  0  0  0  0  0  0  0
  140.5550   76.1670  221.6450 O   0  0  0  0  0  0  0  0  0  0  0  0
  141.5680   75.1200  219.8890 N   0  0  0  0  0  0  0  0  0  0  0  0
  141.2440   74.7800  218.4930 C   0  0  0  0  0  0  0  0  0  0  0  0
  141.6220   75.9670  217.6180 C   0  0  0  0  0  0  0  0  0  0  0  0
  143.0510   76.3650  217.8420 C   0  0  0  0  0  0  0  0  0  0  0  0
  143.2510   76.6510  219.2980 C   0  0  0  0  0  0  0  0  0  0  0  0
  142.9660   75.4180  220.1480 C   0  0  2  0  0  0  0  0  0  0  0  0
  143.8700   74.2680  219.7600 C   0  0  0  0  0  0  0  0  0  0  0  0
  145.1900   74.3890  220.4750 C   0  0  0  0  0  0  0  0  0  0  0  0
  145.5090   73.0400  221.0640 C   0  0  0  0  0  0  0  0  0  0  0  0
  144.5270   72.0850  220.4690 C   0  0  0  0  0  0  0  0  0  0  0  0
  143.3000   72.9790  220.2510 C   0  0  0  0  0  0  0  0  0  0  0  0
  140.1300   71.3570  223.6480 C   0  0  0  0  0  0  0  0  0  0  0  0
  139.6340   70.0850  223.6980 C   0  0  0  0  0  0  0  0  0  0  0  0
  139.5990   69.3560  224.8690 C   0  0  0  0  0  0  0  0  0  0  0  0
  140.0780   69.9320  226.0110 C   0  0  0  0  0  0  0  0  0  0  0  0
  140.0360   69.1860  227.1740 C   0  0  0  0  0  0  0  0  0  0  0  0
  140.5240   69.7830  228.3200 C   0  0  0  0  0  0  0  0  0  0  0  0
  141.0210   71.0590  228.2730 C   0  0  0  0  0  0  0  0  0  0  0  0
  141.0680   71.8100  227.1150 C   0  0  0  0  0  0  0  0  0  0  0  0
  140.5780   71.2150  225.9550 C   0  0  0  0  0  0  0  0  0  0  0  0
  140.5930   71.9000  224.7790 N   0  0  0  0  0  0  0  0  0  0  0  0
  139.2740   73.8070  223.1660 H   0  0  0  0  0  0  0  0  0  0  0  0
  139.9219   73.2792  220.2452 H   0  0  0  0  0  0  0  0  0  0  0  0
  138.6316   74.4373  220.8470 H   0  0  0  0  0  0  0  0  0  0  0  0
  141.8144   73.8918  218.1834 H   0  0  0  0  0  0  0  0  0  0  0  0
  140.1710   74.5591  218.3934 H   0  0  0  0  0  0  0  0  0  0  0  0
  141.4860   75.6930  216.5614 H   0  0  0  0  0  0  0  0  0  0  0  0
  140.9755   76.8171  217.8813 H   0  0  0  0  0  0  0  0  0  0  0  0
  143.7158   75.5454  217.5317 H   0  0  0  0  0  0  0  0  0  0  0  0
  143.2859   77.2618  217.2498 H   0  0  0  0  0  0  0  0  0  0  0  0
  144.2920   76.9664  219.4617 H   0  0  0  0  0  0  0  0  0  0  0  0
  142.5524   77.4470  219.5951 H   0  0  0  0  0  0  0  0  0  0  0  0
  143.1580   75.5865  221.2179 H   0  0  0  0  0  0  0  0  0  0  0  0
  143.9761   74.2922  218.6654 H   0  0  0  0  0  0  0  0  0  0  0  0
  145.9764   74.6846  219.7650 H   0  0  0  0  0  0  0  0  0  0  0  0
  145.1356   75.1539  221.2636 H   0  0  0  0  0  0  0  0  0  0  0  0
  146.5358   72.7431  220.8039 H   0  0  0  0  0  0  0  0  0  0  0  0
  145.4404   73.0547  222.1618 H   0  0  0  0  0  0  0  0  0  0  0  0
  144.8958   71.6744  219.5175 H   0  0  0  0  0  0  0  0  0  0  0  0
  144.3274   71.2059  221.0993 H   0  0  0  0  0  0  0  0  0  0  0  0
  142.6254   72.5398  219.5013 H   0  0  0  0  0  0  0  0  0  0  0  0
  142.7013   73.1037  221.1653 H   0  0  0  0  0  0  0  0  0  0  0  0
  139.2500   69.6270  222.7745 H   0  0  0  0  0  0  0  0  0  0  0  0
  139.1942   68.3333  224.8825 H   0  0  0  0  0  0  0  0  0  0  0  0
  139.6321   68.1629  227.1863 H   0  0  0  0  0  0  0  0  0  0  0  0
  140.5136   69.2328  229.2725 H   0  0  0  0  0  0  0  0  0  0  0  0
  141.4011   71.5070  229.2029 H   0  0  0  0  0  0  0  0  0  0  0  0
  141.4742   72.8322  227.1091 H   0  0  0  0  0  0  0  0  0  0  0  0
  1  2  2  0
  2  3  1  0
  3  4  1  0
  4  5  1  0
  5  6  2  0
  5  7  1  0
  7  8  1  0
  8  9  1  0
  9 10  1  0
 10 11  1  0
 11 12  1  0
 12 13  1  0
 13 14  1  0
 14 15  1  0
 15 16  1  0
 16 17  1  0
  2 18  1  0
 18 19  2  0
 19 20  1  0
 20 21  2  0
 21 22  1  0
 22 23  2  0
 23 24  1  0
 24 25  2  0
 25 26  1  0
 26 27  2  0
 12  7  1  0
 17 13  1  0
 27 18  1  0
 26 21  1  0
  3 28  1  0
  4 29  1  0
  4 30  1  0
  8 31  1  0
  8 32  1  0
  9 33  1  0
  9 34  1  0
 10 35  1  0
 10 36  1  0
 11 37  1  0
 11 38  1  0
 12 39  1  1
 13 40  1  0
 14 41  1  0
 14 42  1  0
 15 43  1  0
 15 44  1  0
 16 45  1  0
 16 46  1  0
 17 47  1  0
 17 48  1  0
 19 49  1  0
 20 50  1  0
 22 51  1  0
 23 52  1  0
 24 53  1  0
 25 54  1  0
M  END
>  <smiles>  (27) 
O=C(NCC(=O)N1CCCCC1C1CCCC1)c1ccc2ccccc2n1

>  <score_type>  (27) 
oracle

>  <origin>  (27) 
autodockgpu

>  <m_score__min__energy>  (27) 
-8.9100000000000001

>  <m_primary>  (27) 
energy

>  <rmsd>  (27) 
1.8034233522234595

>  <m_score__min__rmsd>  (27) 
1.8034233522234595

>  <meeko>  (27) 
{"free_energy": -8.22, "intermolecular_energy": -9.71, "internal_energy": -1.72, "cluster_size": 41, "cluster_id": 1, "rank_in_cluster": 34}

>  <energy>  (27) 
-8.5

>  <cluster_rmsd>  (27) 
0.6

>  <cluster>  (27) 
1

$$$$

     RDKit          3D

 54 57  0  0  0  0  0  0  0  0999 V2000
  141.3640   71.8810  221.5770 O   0  0  0  0  0  0  0  0  0  0  0  0
  140.6240   72.3020  222.4920 C   0  0  0  0  0  0  0  0  0  0  0  0
  140.0530   73.6000  222.3370 N   0  0  0  0  0  0  0  0  0  0  0  0
  140.3640   74.3340  221.1470 C   0  0  0  0  0  0  0  0  0  0  0  0
  139.9830   75.7430  221.1880 C   0  0  0  0  0  0  0  0  0  0  0  0
  138.8640   76.1810  221.5700 O   0  0  0  0  0  0  0  0  0  0  0  0
  140.9320   76.7180  220.7680 N   0  0  0  0  0  0  0  0  0  0  0  0
  142.2030   76.3330  220.1320 C   0  0  0  0  0  0  0  0  0  0  0  0
  142.2440   76.9540  218.7430 C   0  0  0  0  0  0  0  0  0  0  0  0
  142.0100   78.4350  218.8110 C   0  0  0  0  0  0  0  0  0  0  0  0
  140.7070   78.6880  219.5040 C   0  0  0  0  0  0  0  0  0  0  0  0
  140.7260   78.1460  220.9300 C   0  0  2  0  0  0  0  0  0  0  0  0
  141.8300   78.7880  221.7410 C   0  0  0  0  0  0  0  0  0  0  0  0
  141.8450   80.2760  221.5010 C   0  0  0  0  0  0  0  0  0  0  0  0
  141.9240   80.9490  222.8470 C   0  0  0  0  0  0  0  0  0  0  0  0
  142.2260   79.8690  223.8330 C   0  0  0  0  0  0  0  0  0  0  0  0
  141.5400   78.6530  223.1990 C   0  0  0  0  0  0  0  0  0  0  0  0
  140.3370   71.5200  223.6860 C   0  0  0  0  0  0  0  0  0  0  0  0
  139.6650   70.3390  223.5420 C   0  0  0  0  0  0  0  0  0  0  0  0
  139.3520   69.5350  224.6180 C   0  0  0  0  0  0  0  0  0  0  0  0
  139.7290   69.9410  225.8670 C   0  0  0  0  0  0  0  0  0  0  0  0
  139.4070   69.1240  226.9340 C   0  0  0  0  0  0  0  0  0  0  0  0
  139.7950   69.5480  228.1890 C   0  0  0  0  0  0  0  0  0  0  0  0
  140.4690   70.7330  228.3370 C   0  0  0  0  0  0  0  0  0  0  0  0
  140.7950   71.5540  227.2760 C   0  0  0  0  0  0  0  0  0  0  0  0
  140.4070   71.1330  226.0080 C   0  0  0  0  0  0  0  0  0  0  0  0
  140.6960   71.8960  224.9180 N   0  0  0  0  0  0  0  0  0  0  0  0
  139.4400   73.9340  223.1100 H   0  0  0  0  0  0  0  0  0  0  0  0
  141.4500   74.2764  220.9817 H   0  0  0  0  0  0  0  0  0  0  0  0
  139.7805   73.8755  220.3350 H   0  0  0  0  0  0  0  0  0  0  0  0
  143.0473   76.7042  220.7314 H   0  0  0  0  0  0  0  0  0  0  0  0
  142.2777   75.2378  220.0621 H   0  0  0  0  0  0  0  0  0  0  0  0
  143.2300   76.7655  218.2932 H   0  0  0  0  0  0  0  0  0  0  0  0
  141.4497   76.5005  218.1318 H   0  0  0  0  0  0  0  0  0  0  0  0
  142.8261   78.9125  219.3731 H   0  0  0  0  0  0  0  0  0  0  0  0
  141.9797   78.8549  217.7948 H   0  0  0  0  0  0  0  0  0  0  0  0
  140.5214   79.7718  219.5346 H   0  0  0  0  0  0  0  0  0  0  0  0
  139.9104   78.1736  218.9465 H   0  0  0  0  0  0  0  0  0  0  0  0
  139.7993   78.3660  221.4803 H   0  0  0  0  0  0  0  0  0  0  0  0
  142.7726   78.3009  221.4507 H   0  0  0  0  0  0  0  0  0  0  0  0
  142.7191   80.5498  220.8919 H   0  0  0  0  0  0  0  0  0  0  0  0
  140.9397   80.5915  220.9617 H   0  0  0  0  0  0  0  0  0  0  0  0
  142.7244   81.7035  222.8502 H   0  0  0  0  0  0  0  0  0  0  0  0
  140.9852   81.4667  223.0931 H   0  0  0  0  0  0  0  0  0  0  0  0
  143.3100   79.7097  223.9309 H   0  0  0  0  0  0  0  0  0  0  0  0
  141.8783   80.0912  224.8527 H   0  0  0  0  0  0  0  0  0  0  0  0
  141.9606   77.7171  223.5954 H   0  0  0  0  0  0  0  0  0  0  0  0
  140.4615   78.6186  223.4127 H   0  0  0  0  0  0  0  0  0  0  0  0
  139.3634   70.0187  222.5338 H   0  0  0  0  0  0  0  0  0  0  0  0
  138.8110   68.5881  224.4739 H   0  0  0  0  0  0  0  0  0  0  0  0
  138.8654   68.1775  226.7896 H   0  0  0  0  0  0  0  0  0  0  0  0
  139.5631   68.9342  229.0719 H   0  0  0  0  0  0  0  0  0  0  0  0
  140.7641   71.0444  229.3499 H   0  0  0  0  0  0  0  0  0  0  0  0
  141.3374   72.4990  227.4265 H   0  0  0  0  0  0  0  0  0  0  0  0
  1  2  2  0
  2  3  1  0
  3  4  1  0
  4  5  1  0
  5  6  2  0
  5  7  1  0
  7  8  1  0
  8  9  1  0
  9 10  1  0
 10 11  1  0
 11 12  1  0
 12 13  1  0
 13 14  1  0
 14 15  1  0
 15 16  1  0
 16 17  1  0
  2 18  1  0
 18 19  2  0
 19 20  1  0
 20 21  2  0
 21 22  1  0
 22 23  2  0
 23 24  1  0
 24 25  2  0
 25 26  1  0
 26 27  2  0
 12  7  1  0
 17 13  1  0
 27 18  1  0
 26 21  1  0
  3 28  1  0
  4 29  1  0
  4 30  1  0
  8 31  1  0
  8 32  1  0
  9 33  1  0
  9 34  1  0
 10 35  1  0
 10 36  1  0
 11 37  1  0
 11 38  1  0
 12 39  1  1
 13 40  1  0
 14 41  1  0
 14 42  1  0
 15 43  1  0
 15 44  1  0
 16 45  1  0
 16 46  1  0
 17 47  1  0
 17 48  1  0
 19 49  1  0
 20 50  1  0
 22 51  1  0
 23 52  1  0
 24 53  1  0
 25 54  1  0
M  END
>  <smiles>  (28) 
O=C(NCC(=O)N1CCCCC1C1CCCC1)c1ccc2ccccc2n1

>  <score_type>  (28) 
oracle

>  <origin>  (28) 
autodockgpu

>  <m_score__min__energy>  (28) 
-8.9100000000000001

>  <m_primary>  (28) 
energy

>  <rmsd>  (28) 
2.258526516589489

>  <m_score__min__rmsd>  (28) 
2.258526516589489

>  <meeko>  (28) 
{"free_energy": -8.77, "intermolecular_energy": -10.26, "internal_energy": -1.35, "cluster_size": 41, "cluster_id": 1, "rank_in_cluster": 23}

>  <energy>  (28) 
-8.45

>  <cluster_rmsd>  (28) 
1.34

>  <cluster>  (28) 
1

$$$$

     RDKit          3D

 54 57  0  0  0  0  0  0  0  0999 V2000
  141.2500   72.8950  222.0470 O   0  0  0  0  0  0  0  0  0  0  0  0
  140.1880   72.6830  222.6690 C   0  0  0  0  0  0  0  0  0  0  0  0
  139.0540   73.4810  222.3350 N   0  0  0  0  0  0  0  0  0  0  0  0
  139.2060   74.4700  221.3110 C   0  0  0  0  0  0  0  0  0  0  0  0
  139.4770   75.8170  221.8050 C   0  0  0  0  0  0  0  0  0  0  0  0
  138.7940   76.4200  222.6770 O   0  0  0  0  0  0  0  0  0  0  0  0
  140.5930   76.5260  221.2770 N   0  0  0  0  0  0  0  0  0  0  0  0
  141.8190   75.8280  220.8540 C   0  0  0  0  0  0  0  0  0  0  0  0
  142.0390   76.1130  219.3750 C   0  0  0  0  0  0  0  0  0  0  0  0
  142.0430   77.5890  219.1080 C   0  0  0  0  0  0  0  0  0  0  0  0
  140.7610   78.1760  219.6110 C   0  0  0  0  0  0  0  0  0  0  0  0
  140.6110   77.9690  221.1150 C   0  0  2  0  0  0  0  0  0  0  0  0
  141.7570   78.6080  221.8690 C   0  0  0  0  0  0  0  0  0  0  0  0
  141.8680   80.0630  221.4970 C   0  0  0  0  0  0  0  0  0  0  0  0
  141.9940   80.8470  222.7770 C   0  0  0  0  0  0  0  0  0  0  0  0
  142.2280   79.8430  223.8580 C   0  0  0  0  0  0  0  0  0  0  0  0
  141.4630   78.6220  223.3320 C   0  0  0  0  0  0  0  0  0  0  0  0
  140.0800   71.6650  223.7050 C   0  0  0  0  0  0  0  0  0  0  0  0
  139.3990   70.5160  223.4170 C   0  0  0  0  0  0  0  0  0  0  0  0
  139.2490   69.5000  224.3390 C   0  0  0  0  0  0  0  0  0  0  0  0
  139.8020   69.6560  225.5780 C   0  0  0  0  0  0  0  0  0  0  0  0
  139.6410   68.6280  226.4880 C   0  0  0  0  0  0  0  0  0  0  0  0
  140.2060   68.8020  227.7360 C   0  0  0  0  0  0  0  0  0  0  0  0
  140.8900   69.9540  228.0280 C   0  0  0  0  0  0  0  0  0  0  0  0
  141.0550   70.9840  227.1240 C   0  0  0  0  0  0  0  0  0  0  0  0
  140.4880   70.8170  225.8640 C   0  0  0  0  0  0  0  0  0  0  0  0
  140.6120   71.7940  224.9250 N   0  0  0  0  0  0  0  0  0  0  0  0
  138.1770   73.2900  222.8660 H   0  0  0  0  0  0  0  0  0  0  0  0
  140.0414   74.1674  220.6625 H   0  0  0  0  0  0  0  0  0  0  0  0
  138.2444   74.5196  220.7791 H   0  0  0  0  0  0  0  0  0  0  0  0
  142.6770   76.1954  221.4362 H   0  0  0  0  0  0  0  0  0  0  0  0
  141.7189   74.7457  221.0228 H   0  0  0  0  0  0  0  0  0  0  0  0
  143.0059   75.6888  219.0666 H   0  0  0  0  0  0  0  0  0  0  0  0
  141.2182   75.6552  218.8035 H   0  0  0  0  0  0  0  0  0  0  0  0
  142.8922   78.0561  219.6282 H   0  0  0  0  0  0  0  0  0  0  0  0
  142.1383   77.7721  218.0275 H   0  0  0  0  0  0  0  0  0  0  0  0
  140.7512   79.2545  219.3947 H   0  0  0  0  0  0  0  0  0  0  0  0
  139.9250   77.6708  219.1052 H   0  0  0  0  0  0  0  0  0  0  0  0
  139.7025   78.4385  221.5202 H   0  0  0  0  0  0  0  0  0  0  0  0
  142.6655   78.0371  221.6265 H   0  0  0  0  0  0  0  0  0  0  0  0
  142.7565   80.2237  220.8687 H   0  0  0  0  0  0  0  0  0  0  0  0
  140.9837   80.3870  220.9286 H   0  0  0  0  0  0  0  0  0  0  0  0
  142.8417   81.5453  222.7148 H   0  0  0  0  0  0  0  0  0  0  0  0
  141.0911   81.4441  222.9724 H   0  0  0  0  0  0  0  0  0  0  0  0
  143.2996   79.6234  223.9741 H   0  0  0  0  0  0  0  0  0  0  0  0
  141.8981   80.1778  224.8525 H   0  0  0  0  0  0  0  0  0  0  0  0
  141.8234   77.6997  223.8112 H   0  0  0  0  0  0  0  0  0  0  0  0
  140.3851   78.6765  223.5446 H   0  0  0  0  0  0  0  0  0  0  0  0
  138.9557   70.3968  222.4174 H   0  0  0  0  0  0  0  0  0  0  0  0
  138.6961   68.5846  224.0816 H   0  0  0  0  0  0  0  0  0  0  0  0
  139.0879   67.7129  226.2298 H   0  0  0  0  0  0  0  0  0  0  0  0
  140.1071   68.0146  228.4977 H   0  0  0  0  0  0  0  0  0  0  0  0
  141.3284   70.0626  229.0310 H   0  0  0  0  0  0  0  0  0  0  0  0
  141.6100   71.8964  227.3878 H   0  0  0  0  0  0  0  0  0  0  0  0
  1  2  2  0
  2  3  1  0
  3  4  1  0
  4  5  1  0
  5  6  2  0
  5  7  1  0
  7  8  1  0
  8  9  1  0
  9 10  1  0
 10 11  1  0
 11 12  1  0
 12 13  1  0
 13 14  1  0
 14 15  1  0
 15 16  1  0
 16 17  1  0
  2 18  1  0
 18 19  2  0
 19 20  1  0
 20 21  2  0
 21 22  1  0
 22 23  2  0
 23 24  1  0
 24 25  2  0
 25 26  1  0
 26 27  2  0
 12  7  1  0
 17 13  1  0
 27 18  1  0
 26 21  1  0
  3 28  1  0
  4 29  1  0
  4 30  1  0
  8 31  1  0
  8 32  1  0
  9 33  1  0
  9 34  1  0
 10 35  1  0
 10 36  1  0
 11 37  1  0
 11 38  1  0
 12 39  1  1
 13 40  1  0
 14 41  1  0
 14 42  1  0
 15 43  1  0
 15 44  1  0
 16 45  1  0
 16 46  1  0
 17 47  1  0
 17 48  1  0
 19 49  1  0
 20 50  1  0
 22 51  1  0
 23 52  1  0
 24 53  1  0
 25 54  1  0
M  END
>  <smiles>  (29) 
O=C(NCC(=O)N1CCCCC1C1CCCC1)c1ccc2ccccc2n1

>  <score_type>  (29) 
oracle

>  <origin>  (29) 
autodockgpu

>  <m_score__min__energy>  (29) 
-8.9100000000000001

>  <m_primary>  (29) 
energy

>  <rmsd>  (29) 
2.1132814560580293

>  <m_score__min__rmsd>  (29) 
2.1132814560580293

>  <meeko>  (29) 
{"free_energy": -8.83, "intermolecular_energy": -10.33, "internal_energy": -1.42, "cluster_size": 41, "cluster_id": 1, "rank_in_cluster": 17}

>  <energy>  (29) 
-8.39

>  <cluster_rmsd>  (29) 
1.89

>  <cluster>  (29) 
1

$$$$

     RDKit          3D

 54 57  0  0  0  0  0  0  0  0999 V2000
  140.8760   71.1850  221.8460 O   0  0  0  0  0  0  0  0  0  0  0  0
  140.3260   71.7230  222.8310 C   0  0  0  0  0  0  0  0  0  0  0  0
  139.6560   72.9630  222.6200 N   0  0  0  0  0  0  0  0  0  0  0  0
  139.6560   73.5110  221.2970 C   0  0  0  0  0  0  0  0  0  0  0  0
  140.3420   74.7940  221.1720 C   0  0  0  0  0  0  0  0  0  0  0  0
  140.1360   75.8000  221.9050 O   0  0  0  0  0  0  0  0  0  0  0  0
  141.3230   74.9480  220.1520 N   0  0  0  0  0  0  0  0  0  0  0  0
  140.9900   74.7630  218.7290 C   0  0  0  0  0  0  0  0  0  0  0  0
  141.2810   76.0680  218.0020 C   0  0  0  0  0  0  0  0  0  0  0  0
  142.6890   76.5200  218.2540 C   0  0  0  0  0  0  0  0  0  0  0  0
  142.9030   76.6380  219.7310 C   0  0  0  0  0  0  0  0  0  0  0  0
  142.7060   75.2940  220.4260 C   0  0  2  0  0  0  0  0  0  0  0  0
  143.6660   74.2570  219.8870 C   0  0  0  0  0  0  0  0  0  0  0  0
  145.0370   74.4720  220.4740 C   0  0  0  0  0  0  0  0  0  0  0  0
  145.5380   73.1350  220.9520 C   0  0  0  0  0  0  0  0  0  0  0  0
  144.5920   72.1170  220.4050 C   0  0  0  0  0  0  0  0  0  0  0  0
  143.2720   72.8980  220.3600 C   0  0  0  0  0  0  0  0  0  0  0  0
  140.3520   71.1280  224.1600 C   0  0  0  0  0  0  0  0  0  0  0  0
  140.8190   71.8820  225.1990 C   0  0  0  0  0  0  0  0  0  0  0  0
  140.8790   71.3980  226.4900 C   0  0  0  0  0  0  0  0  0  0  0  0
  140.4550   70.1210  226.7280 C   0  0  0  0  0  0  0  0  0  0  0  0
  140.5220   69.6530  228.0270 C   0  0  0  0  0  0  0  0  0  0  0  0
  140.0900   68.3610  228.2510 C   0  0  0  0  0  0  0  0  0  0  0  0
  139.6220   67.6020  227.2100 C   0  0  0  0  0  0  0  0  0  0  0  0
  139.5510   68.0620  225.9110 C   0  0  0  0  0  0  0  0  0  0  0  0
  139.9850   69.3640  225.6760 C   0  0  0  0  0  0  0  0  0  0  0  0
  139.9430   69.8810  224.4180 N   0  0  0  0  0  0  0  0  0  0  0  0
  139.2040   73.3970  223.4530 H   0  0  0  0  0  0  0  0  0  0  0  0
  140.1492   72.7912  220.6272 H   0  0  0  0  0  0  0  0  0  0  0  0
  138.6034   73.6926  221.0341 H   0  0  0  0  0  0  0  0  0  0  0  0
  141.6037   73.9548  218.3045 H   0  0  0  0  0  0  0  0  0  0  0  0
  139.9295   74.4929  218.6177 H   0  0  0  0  0  0  0  0  0  0  0  0
  141.1392   75.9175  216.9216 H   0  0  0  0  0  0  0  0  0  0  0  0
  140.5923   76.8396  218.3767 H   0  0  0  0  0  0  0  0  0  0  0  0
  143.3931   75.7853  217.8363 H   0  0  0  0  0  0  0  0  0  0  0  0
  142.8593   77.4947  217.7735 H   0  0  0  0  0  0  0  0  0  0  0  0
  143.9276   76.9919  219.9180 H   0  0  0  0  0  0  0  0  0  0  0  0
  142.1674   77.3497  220.1339 H   0  0  0  0  0  0  0  0  0  0  0  0
  142.9098   75.3406  221.5059 H   0  0  0  0  0  0  0  0  0  0  0  0
  143.6546   74.3422  218.7904 H   0  0  0  0  0  0  0  0  0  0  0  0
  145.7150   74.8752  219.7074 H   0  0  0  0  0  0  0  0  0  0  0  0
  144.9945   75.1904  221.3059 H   0  0  0  0  0  0  0  0  0  0  0  0
  146.5552   72.9519  220.5754 H   0  0  0  0  0  0  0  0  0  0  0  0
  145.5824   73.0924  222.0503 H   0  0  0  0  0  0  0  0  0  0  0  0
  144.8961   71.7882  219.4003 H   0  0  0  0  0  0  0  0  0  0  0  0
  144.5407   71.1942  221.0015 H   0  0  0  0  0  0  0  0  0  0  0  0
  142.5658   72.4303  219.6582 H   0  0  0  0  0  0  0  0  0  0  0  0
  142.7638   72.9225  221.3353 H   0  0  0  0  0  0  0  0  0  0  0  0
  141.1585   72.9092  225.0000 H   0  0  0  0  0  0  0  0  0  0  0  0
  141.2596   72.0261  227.3090 H   0  0  0  0  0  0  0  0  0  0  0  0
  140.9025   70.2818  228.8455 H   0  0  0  0  0  0  0  0  0  0  0  0
  140.1214   67.9399  229.2667 H   0  0  0  0  0  0  0  0  0  0  0  0
  139.2865   66.5758  227.4205 H   0  0  0  0  0  0  0  0  0  0  0  0
  139.1685   67.4283  225.0973 H   0  0  0  0  0  0  0  0  0  0  0  0
  1  2  2  0
  2  3  1  0
  3  4  1  0
  4  5  1  0
  5  6  2  0
  5  7  1  0
  7  8  1  0
  8  9  1  0
  9 10  1  0
 10 11  1  0
 11 12  1  0
 12 13  1  0
 13 14  1  0
 14 15  1  0
 15 16  1  0
 16 17  1  0
  2 18  1  0
 18 19  2  0
 19 20  1  0
 20 21  2  0
 21 22  1  0
 22 23  2  0
 23 24  1  0
 24 25  2  0
 25 26  1  0
 26 27  2  0
 12  7  1  0
 17 13  1  0
 27 18  1  0
 26 21  1  0
  3 28  1  0
  4 29  1  0
  4 30  1  0
  8 31  1  0
  8 32  1  0
  9 33  1  0
  9 34  1  0
 10 35  1  0
 10 36  1  0
 11 37  1  0
 11 38  1  0
 12 39  1  1
 13 40  1  0
 14 41  1  0
 14 42  1  0
 15 43  1  0
 15 44  1  0
 16 45  1  0
 16 46  1  0
 17 47  1  0
 17 48  1  0
 19 49  1  0
 20 50  1  0
 22 51  1  0
 23 52  1  0
 24 53  1  0
 25 54  1  0
M  END
>  <smiles>  (30) 
O=C(NCC(=O)N1CCCCC1C1CCCC1)c1ccc2ccccc2n1

>  <score_type>  (30) 
oracle

>  <origin>  (30) 
autodockgpu

>  <m_score__min__energy>  (30) 
-8.9100000000000001

>  <m_primary>  (30) 
energy

>  <rmsd>  (30) 
2.828692119395251

>  <m_score__min__rmsd>  (30) 
2.828692119395251

>  <meeko>  (30) 
{"free_energy": -8.17, "intermolecular_energy": -9.66, "internal_energy": -1.59, "cluster_size": 41, "cluster_id": 1, "rank_in_cluster": 37}

>  <energy>  (30) 
-8.36

>  <cluster_rmsd>  (30) 
0.71

>  <cluster>  (30) 
1

$$$$

     RDKit          3D

 54 57  0  0  0  0  0  0  0  0999 V2000
  141.2670   72.1790  221.6610 O   0  0  0  0  0  0  0  0  0  0  0  0
  140.3900   72.3830  222.5270 C   0  0  0  0  0  0  0  0  0  0  0  0
  139.5260   73.5020  222.3460 N   0  0  0  0  0  0  0  0  0  0  0  0
  139.7180   74.3190  221.1850 C   0  0  0  0  0  0  0  0  0  0  0  0
  139.6510   75.7550  221.4370 C   0  0  0  0  0  0  0  0  0  0  0  0
  138.7060   76.3430  222.0310 O   0  0  0  0  0  0  0  0  0  0  0  0
  140.7210   76.5790  220.9860 N   0  0  0  0  0  0  0  0  0  0  0  0
  141.9810   76.0010  220.4890 C   0  0  0  0  0  0  0  0  0  0  0  0
  142.1740   76.4530  219.0480 C   0  0  0  0  0  0  0  0  0  0  0  0
  142.0940   77.9470  218.9410 C   0  0  0  0  0  0  0  0  0  0  0  0
  140.7840   78.4040  219.5050 C   0  0  0  0  0  0  0  0  0  0  0  0
  140.6580   78.0290  220.9780 C   0  0  2  0  0  0  0  0  0  0  0  0
  141.7710   78.6480  221.7950 C   0  0  0  0  0  0  0  0  0  0  0  0
  141.8500   80.1270  221.5180 C   0  0  0  0  0  0  0  0  0  0  0  0
  141.9300   80.8310  222.8470 C   0  0  0  0  0  0  0  0  0  0  0  0
  142.1710   79.7670  223.8670 C   0  0  0  0  0  0  0  0  0  0  0  0
  141.4490   78.5620  223.2500 C   0  0  0  0  0  0  0  0  0  0  0  0
  140.2320   71.5240  223.6930 C   0  0  0  0  0  0  0  0  0  0  0  0
  139.5870   70.3300  223.5370 C   0  0  0  0  0  0  0  0  0  0  0  0
  139.3940   69.4570  224.5870 C   0  0  0  0  0  0  0  0  0  0  0  0
  139.8650   69.8050  225.8220 C   0  0  0  0  0  0  0  0  0  0  0  0
  139.6620   68.9180  226.8610 C   0  0  0  0  0  0  0  0  0  0  0  0
  140.1440   69.2850  228.1020 C   0  0  0  0  0  0  0  0  0  0  0  0
  140.7910   70.4830  228.2620 C   0  0  0  0  0  0  0  0  0  0  0  0
  140.9980   71.3740  227.2280 C   0  0  0  0  0  0  0  0  0  0  0  0
  140.5150   71.0110  225.9740 C   0  0  0  0  0  0  0  0  0  0  0  0
  140.6840   71.8430  224.9110 N   0  0  0  0  0  0  0  0  0  0  0  0
  138.8020   73.6560  223.0790 H   0  0  0  0  0  0  0  0  0  0  0  0
  140.7080   74.0900  220.7638 H   0  0  0  0  0  0  0  0  0  0  0  0
  138.8926   74.0835  220.4971 H   0  0  0  0  0  0  0  0  0  0  0  0
  142.8212   76.3529  221.1056 H   0  0  0  0  0  0  0  0  0  0  0  0
  141.9430   74.9029  220.5417 H   0  0  0  0  0  0  0  0  0  0  0  0
  143.1607   76.1188  218.6947 H   0  0  0  0  0  0  0  0  0  0  0  0
  141.3762   76.0130  218.4316 H   0  0  0  0  0  0  0  0  0  0  0  0
  142.9192   78.4026  219.5079 H   0  0  0  0  0  0  0  0  0  0  0  0
  142.1719   78.2499  217.8864 H   0  0  0  0  0  0  0  0  0  0  0  0
  140.7120   79.4971  219.4054 H   0  0  0  0  0  0  0  0  0  0  0  0
  139.9735   77.9102  218.9488 H   0  0  0  0  0  0  0  0  0  0  0  0
  139.7275   78.4006  221.4319 H   0  0  0  0  0  0  0  0  0  0  0  0
  142.6987   78.1167  221.5360 H   0  0  0  0  0  0  0  0  0  0  0  0
  142.7459   80.3501  220.9199 H   0  0  0  0  0  0  0  0  0  0  0  0
  140.9684   80.4637  220.9528 H   0  0  0  0  0  0  0  0  0  0  0  0
  142.7591   81.5539  222.8465 H   0  0  0  0  0  0  0  0  0  0  0  0
  141.0074   81.3904  223.0610 H   0  0  0  0  0  0  0  0  0  0  0  0
  143.2458   79.5683  223.9906 H   0  0  0  0  0  0  0  0  0  0  0  0
  141.8138   80.0295  224.8737 H   0  0  0  0  0  0  0  0  0  0  0  0
  141.8250   77.6209  223.6778 H   0  0  0  0  0  0  0  0  0  0  0  0
  140.3662   78.5752  223.4435 H   0  0  0  0  0  0  0  0  0  0  0  0
  139.2091   70.0558  222.5410 H   0  0  0  0  0  0  0  0  0  0  0  0
  138.8721   68.5009  224.4338 H   0  0  0  0  0  0  0  0  0  0  0  0
  139.1399   67.9622  226.7069 H   0  0  0  0  0  0  0  0  0  0  0  0
  140.0085   68.6149  228.9637 H   0  0  0  0  0  0  0  0  0  0  0  0
  141.1633   70.7471  229.2628 H   0  0  0  0  0  0  0  0  0  0  0  0
  141.5213   72.3282  227.3880 H   0  0  0  0  0  0  0  0  0  0  0  0
  1  2  2  0
  2  3  1  0
  3  4  1  0
  4  5  1  0
  5  6  2  0
  5  7  1  0
  7  8  1  0
  8  9  1  0
  9 10  1  0
 10 11  1  0
 11 12  1  0
 12 13  1  0
 13 14  1  0
 14 15  1  0
 15 16  1  0
 16 17  1  0
  2 18  1  0
 18 19  2  0
 19 20  1  0
 20 21  2  0
 21 22  1  0
 22 23  2  0
 23 24  1  0
 24 25  2  0
 25 26  1  0
 26 27  2  0
 12  7  1  0
 17 13  1  0
 27 18  1  0
 26 21  1  0
  3 28  1  0
  4 29  1  0
  4 30  1  0
  8 31  1  0
  8 32  1  0
  9 33  1  0
  9 34  1  0
 10 35  1  0
 10 36  1  0
 11 37  1  0
 11 38  1  0
 12 39  1  1
 13 40  1  0
 14 41  1  0
 14 42  1  0
 15 43  1  0
 15 44  1  0
 16 45  1  0
 16 46  1  0
 17 47  1  0
 17 48  1  0
 19 49  1  0
 20 50  1  0
 22 51  1  0
 23 52  1  0
 24 53  1  0
 25 54  1  0
M  END
>  <smiles>  (31) 
O=C(NCC(=O)N1CCCCC1C1CCCC1)c1ccc2ccccc2n1

>  <score_type>  (31) 
oracle

>  <origin>  (31) 
autodockgpu

>  <m_score__min__energy>  (31) 
-8.9100000000000001

>  <m_primary>  (31) 
energy

>  <rmsd>  (31) 
2.1076249287608513

>  <m_score__min__rmsd>  (31) 
2.1076249287608513

>  <meeko>  (31) 
{"free_energy": -8.91, "intermolecular_energy": -10.41, "internal_energy": -1.38, "cluster_size": 41, "cluster_id": 1, "rank_in_cluster": 1}

>  <energy>  (31) 
-8.35

>  <cluster_rmsd>  (31) 
0.99

>  <cluster>  (31) 
1

$$$$

     RDKit          3D

 54 57  0  0  0  0  0  0  0  0999 V2000
  140.3150   71.3560  221.2700 O   0  0  0  0  0  0  0  0  0  0  0  0
  139.9960   71.9340  222.3310 C   0  0  0  0  0  0  0  0  0  0  0  0
  139.5620   73.2890  222.2430 N   0  0  0  0  0  0  0  0  0  0  0  0
  139.5210   73.8990  220.9480 C   0  0  0  0  0  0  0  0  0  0  0  0
  140.2910   75.1340  220.8350 C   0  0  0  0  0  0  0  0  0  0  0  0
  140.0760   76.1860  221.4960 O   0  0  0  0  0  0  0  0  0  0  0  0
  141.3750   75.1810  219.9130 N   0  0  0  0  0  0  0  0  0  0  0  0
  141.1590   75.0390  218.4620 C   0  0  0  0  0  0  0  0  0  0  0  0
  141.6600   76.3050  217.7830 C   0  0  0  0  0  0  0  0  0  0  0  0
  143.0800   76.5960  218.1720 C   0  0  0  0  0  0  0  0  0  0  0  0
  143.1650   76.6850  219.6640 C   0  0  0  0  0  0  0  0  0  0  0  0
  142.7560   75.3700  220.3190 C   0  0  2  0  0  0  0  0  0  0  0  0
  143.6420   74.2330  219.8580 C   0  0  0  0  0  0  0  0  0  0  0  0
  145.0210   74.3870  220.4440 C   0  0  0  0  0  0  0  0  0  0  0  0
  145.4210   73.0510  221.0130 C   0  0  0  0  0  0  0  0  0  0  0  0
  144.4070   72.0710  220.5220 C   0  0  0  0  0  0  0  0  0  0  0  0
  143.1470   72.9400  220.4130 C   0  0  0  0  0  0  0  0  0  0  0  0
  140.0550   71.2730  223.6270 C   0  0  0  0  0  0  0  0  0  0  0  0
  139.6000   69.9870  223.7210 C   0  0  0  0  0  0  0  0  0  0  0  0
  139.6180   69.2860  224.9090 C   0  0  0  0  0  0  0  0  0  0  0  0
  140.1090   69.9050  226.0240 C   0  0  0  0  0  0  0  0  0  0  0  0
  140.1200   69.1870  227.2050 C   0  0  0  0  0  0  0  0  0  0  0  0
  140.6190   69.8270  228.3230 C   0  0  0  0  0  0  0  0  0  0  0  0
  141.0750   71.1160  228.2320 C   0  0  0  0  0  0  0  0  0  0  0  0
  141.0680   71.8390  227.0560 C   0  0  0  0  0  0  0  0  0  0  0  0
  140.5670   71.2010  225.9240 C   0  0  0  0  0  0  0  0  0  0  0  0
  140.5300   71.8570  224.7320 N   0  0  0  0  0  0  0  0  0  0  0  0
  139.3010   73.7540  223.1380 H   0  0  0  0  0  0  0  0  0  0  0  0
  139.9172   73.1792  220.2166 H   0  0  0  0  0  0  0  0  0  0  0  0
  138.4706   74.1676  220.7623 H   0  0  0  0  0  0  0  0  0  0  0  0
  141.7163   74.1686  218.0856 H   0  0  0  0  0  0  0  0  0  0  0  0
  140.0902   74.8898  218.2488 H   0  0  0  0  0  0  0  0  0  0  0  0
  141.6051   76.1744  216.6922 H   0  0  0  0  0  0  0  0  0  0  0  0
  141.0289   77.1477  218.1016 H   0  0  0  0  0  0  0  0  0  0  0  0
  143.7344   75.7883  217.8123 H   0  0  0  0  0  0  0  0  0  0  0  0
  143.4023   77.5469  217.7227 H   0  0  0  0  0  0  0  0  0  0  0  0
  144.2001   76.9221  219.9509 H   0  0  0  0  0  0  0  0  0  0  0  0
  142.4777   77.4729  220.0057 H   0  0  0  0  0  0  0  0  0  0  0  0
  142.8614   75.3907  221.4137 H   0  0  0  0  0  0  0  0  0  0  0  0
  143.6438   74.2467  218.7581 H   0  0  0  0  0  0  0  0  0  0  0  0
  145.7309   74.6894  219.6601 H   0  0  0  0  0  0  0  0  0  0  0  0
  145.0259   75.1596  221.2270 H   0  0  0  0  0  0  0  0  0  0  0  0
  146.4246   72.7709  220.6603 H   0  0  0  0  0  0  0  0  0  0  0  0
  145.4556   73.0766  222.1122 H   0  0  0  0  0  0  0  0  0  0  0  0
  144.6926   71.6572  219.5436 H   0  0  0  0  0  0  0  0  0  0  0  0
  144.2853   71.1948  221.1758 H   0  0  0  0  0  0  0  0  0  0  0  0
  142.4130   72.4798  219.7351 H   0  0  0  0  0  0  0  0  0  0  0  0
  142.6355   73.0640  221.3789 H   0  0  0  0  0  0  0  0  0  0  0  0
  139.2065   69.4950  222.8193 H   0  0  0  0  0  0  0  0  0  0  0  0
  139.2455   68.2521  224.9577 H   0  0  0  0  0  0  0  0  0  0  0  0
  139.7483   68.1528  227.2526 H   0  0  0  0  0  0  0  0  0  0  0  0
  140.6504   69.3007  229.2884 H   0  0  0  0  0  0  0  0  0  0  0  0
  141.4657   71.5981  229.1403 H   0  0  0  0  0  0  0  0  0  0  0  0
  141.4414   72.8728  227.0149 H   0  0  0  0  0  0  0  0  0  0  0  0
  1  2  2  0
  2  3  1  0
  3  4  1  0
  4  5  1  0
  5  6  2  0
  5  7  1  0
  7  8  1  0
  8  9  1  0
  9 10  1  0
 10 11  1  0
 11 12  1  0
 12 13  1  0
 13 14  1  0
 14 15  1  0
 15 16  1  0
 16 17  1  0
  2 18  1  0
 18 19  2  0
 19 20  1  0
 20 21  2  0
 21 22  1  0
 22 23  2  0
 23 24  1  0
 24 25  2  0
 25 26  1  0
 26 27  2  0
 12  7  1  0
 17 13  1  0
 27 18  1  0
 26 21  1  0
  3 28  1  0
  4 29  1  0
  4 30  1  0
  8 31  1  0
  8 32  1  0
  9 33  1  0
  9 34  1  0
 10 35  1  0
 10 36  1  0
 11 37  1  0
 11 38  1  0
 12 39  1  1
 13 40  1  0
 14 41  1  0
 14 42  1  0
 15 43  1  0
 15 44  1  0
 16 45  1  0
 16 46  1  0
 17 47  1  0
 17 48  1  0
 19 49  1  0
 20 50  1  0
 22 51  1  0
 23 52  1  0
 24 53  1  0
 25 54  1  0
M  END
>  <smiles>  (32) 
O=C(NCC(=O)N1CCCCC1C1CCCC1)c1ccc2ccccc2n1

>  <score_type>  (32) 
oracle

>  <origin>  (32) 
autodockgpu

>  <m_score__min__energy>  (32) 
-8.9100000000000001

>  <m_primary>  (32) 
energy

>  <rmsd>  (32) 
1.7796562990284102

>  <m_score__min__rmsd>  (32) 
1.7796562990284102

>  <meeko>  (32) 
{"free_energy": -8.06, "intermolecular_energy": -9.55, "internal_energy": -1.76, "cluster_size": 41, "cluster_id": 1, "rank_in_cluster": 39}

>  <energy>  (32) 
-8.34

>  <cluster_rmsd>  (32) 
1.1

>  <cluster>  (32) 
1

$$$$

     RDKit          3D

 54 57  0  0  0  0  0  0  0  0999 V2000
  141.1500   72.0530  221.5040 O   0  0  0  0  0  0  0  0  0  0  0  0
  140.3650   72.3410  222.4320 C   0  0  0  0  0  0  0  0  0  0  0  0
  139.5880   73.5300  222.2980 N   0  0  0  0  0  0  0  0  0  0  0  0
  139.7580   74.3140  221.1120 C   0  0  0  0  0  0  0  0  0  0  0  0
  139.6700   75.7570  221.3220 C   0  0  0  0  0  0  0  0  0  0  0  0
  138.6900   76.3550  221.8410 O   0  0  0  0  0  0  0  0  0  0  0  0
  140.7640   76.5730  220.9160 N   0  0  0  0  0  0  0  0  0  0  0  0
  142.0420   75.9870  220.4780 C   0  0  0  0  0  0  0  0  0  0  0  0
  142.3010   76.4330  219.0460 C   0  0  0  0  0  0  0  0  0  0  0  0
  142.2340   77.9280  218.9300 C   0  0  0  0  0  0  0  0  0  0  0  0
  140.9030   78.3930  219.4340 C   0  0  0  0  0  0  0  0  0  0  0  0
  140.7090   78.0240  220.9010 C   0  0  2  0  0  0  0  0  0  0  0  0
  141.7870   78.6400  221.7650 C   0  0  0  0  0  0  0  0  0  0  0  0
  141.8700   80.1220  221.5050 C   0  0  0  0  0  0  0  0  0  0  0  0
  141.8970   80.8130  222.8430 C   0  0  0  0  0  0  0  0  0  0  0  0
  142.1040   79.7400  223.8610 C   0  0  0  0  0  0  0  0  0  0  0  0
  141.4120   78.5380  223.2060 C   0  0  0  0  0  0  0  0  0  0  0  0
  140.2260   71.5130  223.6210 C   0  0  0  0  0  0  0  0  0  0  0  0
  139.6070   70.3010  223.4990 C   0  0  0  0  0  0  0  0  0  0  0  0
  139.4330   69.4530  224.5730 C   0  0  0  0  0  0  0  0  0  0  0  0
  139.8970   69.8450  225.7970 C   0  0  0  0  0  0  0  0  0  0  0  0
  139.7140   68.9830  226.8610 C   0  0  0  0  0  0  0  0  0  0  0  0
  140.1880   69.3950  228.0910 C   0  0  0  0  0  0  0  0  0  0  0  0
  140.8090   70.6110  228.2170 C   0  0  0  0  0  0  0  0  0  0  0  0
  140.9960   71.4770  227.1580 C   0  0  0  0  0  0  0  0  0  0  0  0
  140.5210   71.0690  225.9150 C   0  0  0  0  0  0  0  0  0  0  0  0
  140.6710   71.8750  224.8290 N   0  0  0  0  0  0  0  0  0  0  0  0
  138.9400   73.7540  223.0830 H   0  0  0  0  0  0  0  0  0  0  0  0
  140.7483   74.0880  220.6897 H   0  0  0  0  0  0  0  0  0  0  0  0
  138.9314   74.0449  220.4379 H   0  0  0  0  0  0  0  0  0  0  0  0
  142.8556   76.3370  221.1304 H   0  0  0  0  0  0  0  0  0  0  0  0
  141.9964   74.8893  220.5328 H   0  0  0  0  0  0  0  0  0  0  0  0
  143.3005   76.0923  218.7379 H   0  0  0  0  0  0  0  0  0  0  0  0
  141.5286   75.9952  218.3965 H   0  0  0  0  0  0  0  0  0  0  0  0
  143.0358   78.3816  219.5312 H   0  0  0  0  0  0  0  0  0  0  0  0
  142.3603   78.2269  217.8789 H   0  0  0  0  0  0  0  0  0  0  0  0
  140.8411   79.4861  219.3278 H   0  0  0  0  0  0  0  0  0  0  0  0
  140.1159   77.9007  218.8441 H   0  0  0  0  0  0  0  0  0  0  0  0
  139.7612   78.4020  221.3118 H   0  0  0  0  0  0  0  0  0  0  0  0
  142.7262   78.1152  221.5358 H   0  0  0  0  0  0  0  0  0  0  0  0
  142.7867   80.3544  220.9432 H   0  0  0  0  0  0  0  0  0  0  0  0
  141.0090   80.4608  220.9101 H   0  0  0  0  0  0  0  0  0  0  0  0
  142.7225   81.5391  222.8808 H   0  0  0  0  0  0  0  0  0  0  0  0
  140.9646   81.3666  223.0275 H   0  0  0  0  0  0  0  0  0  0  0  0
  143.1743   79.5448  224.0234 H   0  0  0  0  0  0  0  0  0  0  0  0
  141.7073   79.9911  224.8558 H   0  0  0  0  0  0  0  0  0  0  0  0
  141.7769   77.5946  223.6382 H   0  0  0  0  0  0  0  0  0  0  0  0
  140.3228   78.5440  223.3593 H   0  0  0  0  0  0  0  0  0  0  0  0
  139.2350   69.9911  222.5113 H   0  0  0  0  0  0  0  0  0  0  0  0
  138.9315   68.4821  224.4468 H   0  0  0  0  0  0  0  0  0  0  0  0
  139.2131   68.0119  226.7341 H   0  0  0  0  0  0  0  0  0  0  0  0
  140.0671   68.7465  228.9712 H   0  0  0  0  0  0  0  0  0  0  0  0
  141.1759   70.9110  229.2096 H   0  0  0  0  0  0  0  0  0  0  0  0
  141.4982   72.4466  227.2908 H   0  0  0  0  0  0  0  0  0  0  0  0
  1  2  2  0
  2  3  1  0
  3  4  1  0
  4  5  1  0
  5  6  2  0
  5  7  1  0
  7  8  1  0
  8  9  1  0
  9 10  1  0
 10 11  1  0
 11 12  1  0
 12 13  1  0
 13 14  1  0
 14 15  1  0
 15 16  1  0
 16 17  1  0
  2 18  1  0
 18 19  2  0
 19 20  1  0
 20 21  2  0
 21 22  1  0
 22 23  2  0
 23 24  1  0
 24 25  2  0
 25 26  1  0
 26 27  2  0
 12  7  1  0
 17 13  1  0
 27 18  1  0
 26 21  1  0
  3 28  1  0
  4 29  1  0
  4 30  1  0
  8 31  1  0
  8 32  1  0
  9 33  1  0
  9 34  1  0
 10 35  1  0
 10 36  1  0
 11 37  1  0
 11 38  1  0
 12 39  1  1
 13 40  1  0
 14 41  1  0
 14 42  1  0
 15 43  1  0
 15 44  1  0
 16 45  1  0
 16 46  1  0
 17 47  1  0
 17 48  1  0
 19 49  1  0
 20 50  1  0
 22 51  1  0
 23 52  1  0
 24 53  1  0
 25 54  1  0
M  END
>  <smiles>  (33) 
O=C(NCC(=O)N1CCCCC1C1CCCC1)c1ccc2ccccc2n1

>  <score_type>  (33) 
oracle

>  <origin>  (33) 
autodockgpu

>  <m_score__min__energy>  (33) 
-8.9100000000000001

>  <m_primary>  (33) 
energy

>  <rmsd>  (33) 
2.106286137541675

>  <m_score__min__rmsd>  (33) 
2.106286137541675

>  <meeko>  (33) 
{"free_energy": -8.88, "intermolecular_energy": -10.37, "internal_energy": -1.39, "cluster_size": 41, "cluster_id": 1, "rank_in_cluster": 8}

>  <energy>  (33) 
-8.25

>  <cluster_rmsd>  (33) 
1.86

>  <cluster>  (33) 
1

$$$$

     RDKit          3D

 54 57  0  0  0  0  0  0  0  0999 V2000
  141.2230   72.9200  221.9480 O   0  0  0  0  0  0  0  0  0  0  0  0
  140.1920   72.7150  222.6230 C   0  0  0  0  0  0  0  0  0  0  0  0
  139.0460   73.5140  222.3420 N   0  0  0  0  0  0  0  0  0  0  0  0
  139.1490   74.4970  221.3060 C   0  0  0  0  0  0  0  0  0  0  0  0
  139.4390   75.8480  221.7790 C   0  0  0  0  0  0  0  0  0  0  0  0
  138.7450   76.4880  222.6140 O   0  0  0  0  0  0  0  0  0  0  0  0
  140.5910   76.5160  221.2730 N   0  0  0  0  0  0  0  0  0  0  0  0
  141.8200   75.7800  220.9320 C   0  0  0  0  0  0  0  0  0  0  0  0
  142.1090   76.0020  219.4540 C   0  0  0  0  0  0  0  0  0  0  0  0
  142.1540   77.4660  219.1300 C   0  0  0  0  0  0  0  0  0  0  0  0
  140.8630   78.0960  219.5540 C   0  0  0  0  0  0  0  0  0  0  0  0
  140.6440   77.9500  221.0560 C   0  0  2  0  0  0  0  0  0  0  0  0
  141.7680   78.5980  221.8350 C   0  0  0  0  0  0  0  0  0  0  0  0
  141.8550   80.0620  221.4900 C   0  0  0  0  0  0  0  0  0  0  0  0
  141.9500   80.8250  222.7850 C   0  0  0  0  0  0  0  0  0  0  0  0
  142.1930   79.8070  223.8500 C   0  0  0  0  0  0  0  0  0  0  0  0
  141.4580   78.5800  223.2950 C   0  0  0  0  0  0  0  0  0  0  0  0
  140.1340   71.7030  223.6690 C   0  0  0  0  0  0  0  0  0  0  0  0
  139.5470   70.5030  223.3780 C   0  0  0  0  0  0  0  0  0  0  0  0
  139.4490   69.4890  224.3080 C   0  0  0  0  0  0  0  0  0  0  0  0
  139.9560   69.6990  225.5590 C   0  0  0  0  0  0  0  0  0  0  0  0
  139.8490   68.6720  226.4780 C   0  0  0  0  0  0  0  0  0  0  0  0
  140.3670   68.9000  227.7370 C   0  0  0  0  0  0  0  0  0  0  0  0
  140.9550   70.1020  228.0320 C   0  0  0  0  0  0  0  0  0  0  0  0
  141.0670   71.1330  227.1190 C   0  0  0  0  0  0  0  0  0  0  0  0
  140.5470   70.9110  225.8470 C   0  0  0  0  0  0  0  0  0  0  0  0
  140.6230   71.8840  224.9000 N   0  0  0  0  0  0  0  0  0  0  0  0
  138.1960   73.3290  222.9160 H   0  0  0  0  0  0  0  0  0  0  0  0
  139.9549   74.1921  220.6221 H   0  0  0  0  0  0  0  0  0  0  0  0
  138.1642   74.5413  220.8180 H   0  0  0  0  0  0  0  0  0  0  0  0
  142.6591   76.1549  221.5365 H   0  0  0  0  0  0  0  0  0  0  0  0
  141.6917   74.7072  221.1385 H   0  0  0  0  0  0  0  0  0  0  0  0
  143.0796   75.5483  219.2049 H   0  0  0  0  0  0  0  0  0  0  0  0
  141.3044   75.5370  218.8654 H   0  0  0  0  0  0  0  0  0  0  0  0
  142.9895   77.9378  219.6680 H   0  0  0  0  0  0  0  0  0  0  0  0
  142.2990   77.6043  218.0484 H   0  0  0  0  0  0  0  0  0  0  0  0
  140.8844   79.1653  219.2970 H   0  0  0  0  0  0  0  0  0  0  0  0
  140.0396   77.5873  219.0313 H   0  0  0  0  0  0  0  0  0  0  0  0
  139.7275   78.4505  221.4018 H   0  0  0  0  0  0  0  0  0  0  0  0
  142.6900   78.0491  221.5929 H   0  0  0  0  0  0  0  0  0  0  0  0
  142.7477   80.2511  220.8758 H   0  0  0  0  0  0  0  0  0  0  0  0
  140.9716   80.3790  220.9163 H   0  0  0  0  0  0  0  0  0  0  0  0
  142.7833   81.5419  222.7452 H   0  0  0  0  0  0  0  0  0  0  0  0
  141.0325   81.3994  222.9807 H   0  0  0  0  0  0  0  0  0  0  0  0
  143.2676   79.6068  223.9734 H   0  0  0  0  0  0  0  0  0  0  0  0
  141.8462   80.1175  224.8466 H   0  0  0  0  0  0  0  0  0  0  0  0
  141.8318   77.6569  223.7620 H   0  0  0  0  0  0  0  0  0  0  0  0
  140.3771   78.6089  223.4970 H   0  0  0  0  0  0  0  0  0  0  0  0
  139.1395   70.3408  222.3692 H   0  0  0  0  0  0  0  0  0  0  0  0
  138.9730   68.5321  224.0479 H   0  0  0  0  0  0  0  0  0  0  0  0
  139.3722   67.7155  226.2176 H   0  0  0  0  0  0  0  0  0  0  0  0
  140.3076   68.1150  228.5052 H   0  0  0  0  0  0  0  0  0  0  0  0
  141.3573   70.2534  229.0445 H   0  0  0  0  0  0  0  0  0  0  0  0
  141.5458   72.0868  227.3855 H   0  0  0  0  0  0  0  0  0  0  0  0
  1  2  2  0
  2  3  1  0
  3  4  1  0
  4  5  1  0
  5  6  2  0
  5  7  1  0
  7  8  1  0
  8  9  1  0
  9 10  1  0
 10 11  1  0
 11 12  1  0
 12 13  1  0
 13 14  1  0
 14 15  1  0
 15 16  1  0
 16 17  1  0
  2 18  1  0
 18 19  2  0
 19 20  1  0
 20 21  2  0
 21 22  1  0
 22 23  2  0
 23 24  1  0
 24 25  2  0
 25 26  1  0
 26 27  2  0
 12  7  1  0
 17 13  1  0
 27 18  1  0
 26 21  1  0
  3 28  1  0
  4 29  1  0
  4 30  1  0
  8 31  1  0
  8 32  1  0
  9 33  1  0
  9 34  1  0
 10 35  1  0
 10 36  1  0
 11 37  1  0
 11 38  1  0
 12 39  1  1
 13 40  1  0
 14 41  1  0
 14 42  1  0
 15 43  1  0
 15 44  1  0
 16 45  1  0
 16 46  1  0
 17 47  1  0
 17 48  1  0
 19 49  1  0
 20 50  1  0
 22 51  1  0
 23 52  1  0
 24 53  1  0
 25 54  1  0
M  END
>  <smiles>  (34) 
O=C(NCC(=O)N1CCCCC1C1CCCC1)c1ccc2ccccc2n1

>  <score_type>  (34) 
oracle

>  <origin>  (34) 
autodockgpu

>  <m_score__min__energy>  (34) 
-8.9100000000000001

>  <m_primary>  (34) 
energy

>  <rmsd>  (34) 
2.1117140237805523

>  <m_score__min__rmsd>  (34) 
2.1117140237805523

>  <meeko>  (34) 
{"free_energy": -8.81, "intermolecular_energy": -10.3, "internal_energy": -1.44, "cluster_size": 41, "cluster_id": 1, "rank_in_cluster": 19}

>  <energy>  (34) 
-8.22

>  <cluster_rmsd>  (34) 
1.87

>  <cluster>  (34) 
1

$$$$

     RDKit          3D

 54 57  0  0  0  0  0  0  0  0999 V2000
  139.0430   71.0640  221.5820 O   0  0  0  0  0  0  0  0  0  0  0  0
  139.4060   71.5670  222.6660 C   0  0  0  0  0  0  0  0  0  0  0  0
  139.6200   72.9760  222.7040 N   0  0  0  0  0  0  0  0  0  0  0  0
  139.4050   73.7220  221.5000 C   0  0  0  0  0  0  0  0  0  0  0  0
  139.4260   75.1710  221.6730 C   0  0  0  0  0  0  0  0  0  0  0  0
  138.5180   75.8480  222.2290 O   0  0  0  0  0  0  0  0  0  0  0  0
  140.5460   75.9020  221.1840 N   0  0  0  0  0  0  0  0  0  0  0  0
  141.8440   75.2490  220.9410 C   0  0  0  0  0  0  0  0  0  0  0  0
  142.1890   75.4160  219.4680 C   0  0  0  0  0  0  0  0  0  0  0  0
  142.1380   76.8610  219.0660 C   0  0  0  0  0  0  0  0  0  0  0  0
  140.7830   77.4070  219.3940 C   0  0  0  0  0  0  0  0  0  0  0  0
  140.5010   77.3220  220.8910 C   0  0  2  0  0  0  0  0  0  0  0  0
  141.5320   78.0970  221.6830 C   0  0  0  0  0  0  0  0  0  0  0  0
  141.5590   79.5320  221.2270 C   0  0  0  0  0  0  0  0  0  0  0  0
  141.5240   80.3980  222.4590 C   0  0  0  0  0  0  0  0  0  0  0  0
  141.7510   79.4820  223.6160 C   0  0  0  0  0  0  0  0  0  0  0  0
  141.1250   78.1730  223.1170 C   0  0  0  0  0  0  0  0  0  0  0  0
  139.6120   70.7690  223.8660 C   0  0  0  0  0  0  0  0  0  0  0  0
  139.2170   69.4610  223.8510 C   0  0  0  0  0  0  0  0  0  0  0  0
  139.3740   68.6330  224.9430 C   0  0  0  0  0  0  0  0  0  0  0  0
  139.9460   69.1450  226.0740 C   0  0  0  0  0  0  0  0  0  0  0  0
  140.0960   68.3020  227.1580 C   0  0  0  0  0  0  0  0  0  0  0  0
  140.6750   68.8350  228.2930 C   0  0  0  0  0  0  0  0  0  0  0  0
  141.0720   70.1470  228.3110 C   0  0  0  0  0  0  0  0  0  0  0  0
  140.9260   70.9950  227.2310 C   0  0  0  0  0  0  0  0  0  0  0  0
  140.3430   70.4650  226.0840 C   0  0  0  0  0  0  0  0  0  0  0  0
  140.1690   71.2470  224.9840 N   0  0  0  0  0  0  0  0  0  0  0  0
  139.9230   73.3780  223.6170 H   0  0  0  0  0  0  0  0  0  0  0  0
  140.1932   73.4504  220.7823 H   0  0  0  0  0  0  0  0  0  0  0  0
  138.3951   73.4639  221.1486 H   0  0  0  0  0  0  0  0  0  0  0  0
  142.6204   75.7203  221.5615 H   0  0  0  0  0  0  0  0  0  0  0  0
  141.7881   74.1815  221.2006 H   0  0  0  0  0  0  0  0  0  0  0  0
  143.2027   75.0282  219.2894 H   0  0  0  0  0  0  0  0  0  0  0  0
  141.4532   74.8588  218.8696 H   0  0  0  0  0  0  0  0  0  0  0  0
  142.9064   77.4247  219.6154 H   0  0  0  0  0  0  0  0  0  0  0  0
  142.3268   76.9549  217.9864 H   0  0  0  0  0  0  0  0  0  0  0  0
  140.7346   78.4598  219.0791 H   0  0  0  0  0  0  0  0  0  0  0  0
  140.0285   76.8081  218.8630 H   0  0  0  0  0  0  0  0  0  0  0  0
  139.5331   77.7656  221.1672 H   0  0  0  0  0  0  0  0  0  0  0  0
  142.4980   77.5895  221.5440 H   0  0  0  0  0  0  0  0  0  0  0  0
  142.4787   79.7277  220.6561 H   0  0  0  0  0  0  0  0  0  0  0  0
  140.6991   79.7485  220.5761 H   0  0  0  0  0  0  0  0  0  0  0  0
  142.3170   81.1590  222.4133 H   0  0  0  0  0  0  0  0  0  0  0  0
  140.5651   80.9294  222.5494 H   0  0  0  0  0  0  0  0  0  0  0  0
  142.8243   79.3580  223.8226 H   0  0  0  0  0  0  0  0  0  0  0  0
  141.3207   79.8467  224.5604 H   0  0  0  0  0  0  0  0  0  0  0  0
  141.5172   77.3133  223.6801 H   0  0  0  0  0  0  0  0  0  0  0  0
  140.0329   78.1513  223.2472 H   0  0  0  0  0  0  0  0  0  0  0  0
  138.7584   69.0547  222.9374 H   0  0  0  0  0  0  0  0  0  0  0  0
  139.0461   67.5837  224.9045 H   0  0  0  0  0  0  0  0  0  0  0  0
  139.7687   67.2525  227.1190 H   0  0  0  0  0  0  0  0  0  0  0  0
  140.8178   68.2058  229.1839 H   0  0  0  0  0  0  0  0  0  0  0  0
  141.5288   70.5433  229.2299 H   0  0  0  0  0  0  0  0  0  0  0  0
  141.2560   72.0434  227.2754 H   0  0  0  0  0  0  0  0  0  0  0  0
  1  2  2  0
  2  3  1  0
  3  4  1  0
  4  5  1  0
  5  6  2  0
  5  7  1  0
  7  8  1  0
  8  9  1  0
  9 10  1  0
 10 11  1  0
 11 12  1  0
 12 13  1  0
 13 14  1  0
 14 15  1  0
 15 16  1  0
 16 17  1  0
  2 18  1  0
 18 19  2  0
 19 20  1  0
 20 21  2  0
 21 22  1  0
 22 23  2  0
 23 24  1  0
 24 25  2  0
 25 26  1  0
 26 27  2  0
 12  7  1  0
 17 13  1  0
 27 18  1  0
 26 21  1  0
  3 28  1  0
  4 29  1  0
  4 30  1  0
  8 31  1  0
  8 32  1  0
  9 33  1  0
  9 34  1  0
 10 35  1  0
 10 36  1  0
 11 37  1  0
 11 38  1  0
 12 39  1  6
 13 40  1  0
 14 41  1  0
 14 42  1  0
 15 43  1  0
 15 44  1  0
 16 45  1  0
 16 46  1  0
 17 47  1  0
 17 48  1  0
 19 49  1  0
 20 50  1  0
 22 51  1  0
 23 52  1  0
 24 53  1  0
 25 54  1  0
M  END
>  <smiles>  (35) 
O=C(NCC(=O)N1CCCCC1C1CCCC1)c1ccc2ccccc2n1

>  <score_type>  (35) 
oracle

>  <origin>  (35) 
autodockgpu

>  <m_score__min__energy>  (35) 
-8.9100000000000001

>  <m_primary>  (35) 
energy

>  <rmsd>  (35) 
1.906236477181675

>  <m_score__min__rmsd>  (35) 
1.906236477181675

>  <meeko>  (35) 
{"free_energy": -8.2, "intermolecular_energy": -9.69, "internal_energy": -1.53, "cluster_size": 41, "cluster_id": 1, "rank_in_cluster": 36}

>  <energy>  (35) 
-8.21

>  <cluster_rmsd>  (35) 
1.93

>  <cluster>  (35) 
1

$$$$

     RDKit          3D

 54 57  0  0  0  0  0  0  0  0999 V2000
  139.3480   71.2230  221.3840 O   0  0  0  0  0  0  0  0  0  0  0  0
  139.5100   71.8780  222.4360 C   0  0  0  0  0  0  0  0  0  0  0  0
  139.4230   73.2990  222.3510 N   0  0  0  0  0  0  0  0  0  0  0  0
  139.1570   73.8820  221.0710 C   0  0  0  0  0  0  0  0  0  0  0  0
  140.3010   73.9000  220.1640 C   0  0  0  0  0  0  0  0  0  0  0  0
  140.4630   73.1190  219.1870 O   0  0  0  0  0  0  0  0  0  0  0  0
  141.3270   74.8640  220.3770 N   0  0  0  0  0  0  0  0  0  0  0  0
  142.6710   74.4700  220.8310 C   0  0  0  0  0  0  0  0  0  0  0  0
  143.6750   74.9090  219.7750 C   0  0  0  0  0  0  0  0  0  0  0  0
  143.5280   76.3710  219.4700 C   0  0  0  0  0  0  0  0  0  0  0  0
  142.1160   76.6390  219.0520 C   0  0  0  0  0  0  0  0  0  0  0  0
  141.1340   76.2870  220.1660 C   0  0  2  0  0  0  0  0  0  0  0  0
  141.4210   77.0880  221.4170 C   0  0  0  0  0  0  0  0  0  0  0  0
  141.7290   78.5170  221.0530 C   0  0  0  0  0  0  0  0  0  0  0  0
  140.9140   79.3990  221.9620 C   0  0  0  0  0  0  0  0  0  0  0  0
  140.3540   78.5030  223.0170 C   0  0  0  0  0  0  0  0  0  0  0  0
  140.1940   77.1780  222.2610 C   0  0  0  0  0  0  0  0  0  0  0  0
  139.7800   71.2420  223.7170 C   0  0  0  0  0  0  0  0  0  0  0  0
  139.5270   69.9050  223.8440 C   0  0  0  0  0  0  0  0  0  0  0  0
  139.7530   69.2220  225.0210 C   0  0  0  0  0  0  0  0  0  0  0  0
  140.2460   69.9130  226.0920 C   0  0  0  0  0  0  0  0  0  0  0  0
  140.4670   69.2130  227.2630 C   0  0  0  0  0  0  0  0  0  0  0  0
  140.9650   69.9260  228.3350 C   0  0  0  0  0  0  0  0  0  0  0  0
  141.2190   71.2670  228.2120 C   0  0  0  0  0  0  0  0  0  0  0  0
  141.0020   71.9730  227.0450 C   0  0  0  0  0  0  0  0  0  0  0  0
  140.5000   71.2620  225.9590 C   0  0  0  0  0  0  0  0  0  0  0  0
  140.2620   71.8960  224.7790 N   0  0  0  0  0  0  0  0  0  0  0  0
  139.5620   73.8280  223.2390 H   0  0  0  0  0  0  0  0  0  0  0  0
  138.3490   73.3083  220.5935 H   0  0  0  0  0  0  0  0  0  0  0  0
  138.8878   74.9324  221.2557 H   0  0  0  0  0  0  0  0  0  0  0  0
  142.8994   74.9600  221.7890 H   0  0  0  0  0  0  0  0  0  0  0  0
  142.7205   73.3804  220.9739 H   0  0  0  0  0  0  0  0  0  0  0  0
  144.6932   74.7191  220.1454 H   0  0  0  0  0  0  0  0  0  0  0  0
  143.4880   74.3377  218.8538 H   0  0  0  0  0  0  0  0  0  0  0  0
  143.7659   76.9612  220.3672 H   0  0  0  0  0  0  0  0  0  0  0  0
  144.2167   76.6541  218.6603 H   0  0  0  0  0  0  0  0  0  0  0  0
  142.0112   77.7058  218.8053 H   0  0  0  0  0  0  0  0  0  0  0  0
  141.8876   76.0139  218.1762 H   0  0  0  0  0  0  0  0  0  0  0  0
  140.0922   76.5246  219.9047 H   0  0  0  0  0  0  0  0  0  0  0  0
  142.2549   76.5929  221.9362 H   0  0  0  0  0  0  0  0  0  0  0  0
  142.8009   78.7186  221.1955 H   0  0  0  0  0  0  0  0  0  0  0  0
  141.4815   78.7113  219.9990 H   0  0  0  0  0  0  0  0  0  0  0  0
  141.5517   80.1715  222.4165 H   0  0  0  0  0  0  0  0  0  0  0  0
  140.1158   79.9164  221.4095 H   0  0  0  0  0  0  0  0  0  0  0  0
  141.0495   78.3987  223.8628 H   0  0  0  0  0  0  0  0  0  0  0  0
  139.4193   78.8741  223.4626 H   0  0  0  0  0  0  0  0  0  0  0  0
  140.1402   76.3325  222.9626 H   0  0  0  0  0  0  0  0  0  0  0  0
  139.2696   77.1413  221.6660 H   0  0  0  0  0  0  0  0  0  0  0  0
  139.1296   69.3548  222.9783 H   0  0  0  0  0  0  0  0  0  0  0  0
  139.5411   68.1452  225.0958 H   0  0  0  0  0  0  0  0  0  0  0  0
  140.2556   68.1361  227.3374 H   0  0  0  0  0  0  0  0  0  0  0  0
  141.1585   69.4164  229.2905 H   0  0  0  0  0  0  0  0  0  0  0  0
  141.6147   71.8071  229.0847 H   0  0  0  0  0  0  0  0  0  0  0  0
  141.2165   73.0497  226.9769 H   0  0  0  0  0  0  0  0  0  0  0  0
  1  2  2  0
  2  3  1  0
  3  4  1  0
  4  5  1  0
  5  6  2  0
  5  7  1  0
  7  8  1  0
  8  9  1  0
  9 10  1  0
 10 11  1  0
 11 12  1  0
 12 13  1  0
 13 14  1  0
 14 15  1  0
 15 16  1  0
 16 17  1  0
  2 18  1  0
 18 19  2  0
 19 20  1  0
 20 21  2  0
 21 22  1  0
 22 23  2  0
 23 24  1  0
 24 25  2  0
 25 26  1  0
 26 27  2  0
 12  7  1  0
 17 13  1  0
 27 18  1  0
 26 21  1  0
  3 28  1  0
  4 29  1  0
  4 30  1  0
  8 31  1  0
  8 32  1  0
  9 33  1  0
  9 34  1  0
 10 35  1  0
 10 36  1  0
 11 37  1  0
 11 38  1  0
 12 39  1  6
 13 40  1  0
 14 41  1  0
 14 42  1  0
 15 43  1  0
 15 44  1  0
 16 45  1  0
 16 46  1  0
 17 47  1  0
 17 48  1  0
 19 49  1  0
 20 50  1  0
 22 51  1  0
 23 52  1  0
 24 53  1  0
 25 54  1  0
M  END
>  <smiles>  (36) 
O=C(NCC(=O)N1CCCCC1C1CCCC1)c1ccc2ccccc2n1

>  <score_type>  (36) 
oracle

>  <origin>  (36) 
autodockgpu

>  <m_score__min__energy>  (36) 
-8.9100000000000001

>  <m_primary>  (36) 
energy

>  <rmsd>  (36) 
2.2584696301719056

>  <m_score__min__rmsd>  (36) 
2.2584696301719056

>  <meeko>  (36) 
{"free_energy": -7.74, "intermolecular_energy": -9.23, "internal_energy": -1.66, "cluster_size": 41, "cluster_id": 1, "rank_in_cluster": 41}

>  <energy>  (36) 
-8.2

>  <cluster_rmsd>  (36) 
0.89

>  <cluster>  (36) 
1

$$$$

     RDKit          3D

 54 57  0  0  0  0  0  0  0  0999 V2000
  141.3990   71.9830  221.6330 O   0  0  0  0  0  0  0  0  0  0  0  0
  140.5950   72.3400  222.5200 C   0  0  0  0  0  0  0  0  0  0  0  0
  139.9290   73.5890  222.3470 N   0  0  0  0  0  0  0  0  0  0  0  0
  140.2230   74.3500  221.1700 C   0  0  0  0  0  0  0  0  0  0  0  0
  139.8980   75.7700  221.2700 C   0  0  0  0  0  0  0  0  0  0  0  0
  138.8150   76.2360  221.7190 O   0  0  0  0  0  0  0  0  0  0  0  0
  140.8610   76.7240  220.8340 N   0  0  0  0  0  0  0  0  0  0  0  0
  142.1380   76.3070  220.2280 C   0  0  0  0  0  0  0  0  0  0  0  0
  142.2040   76.8840  218.8210 C   0  0  0  0  0  0  0  0  0  0  0  0
  141.9830   78.3680  218.8400 C   0  0  0  0  0  0  0  0  0  0  0  0
  140.6730   78.6540  219.5060 C   0  0  0  0  0  0  0  0  0  0  0  0
  140.6670   78.1580  220.9480 C   0  0  2  0  0  0  0  0  0  0  0  0
  141.7660   78.8150  221.7550 C   0  0  0  0  0  0  0  0  0  0  0  0
  141.7650   80.3010  221.5080 C   0  0  0  0  0  0  0  0  0  0  0  0
  141.8400   80.9800  222.8510 C   0  0  0  0  0  0  0  0  0  0  0  0
  142.1550   79.9090  223.8420 C   0  0  0  0  0  0  0  0  0  0  0  0
  141.4810   78.6820  223.2140 C   0  0  0  0  0  0  0  0  0  0  0  0
  140.3270   71.5320  223.7020 C   0  0  0  0  0  0  0  0  0  0  0  0
  139.6760   70.3420  223.5400 C   0  0  0  0  0  0  0  0  0  0  0  0
  139.3830   69.5140  224.6040 C   0  0  0  0  0  0  0  0  0  0  0  0
  139.7580   69.9050  225.8590 C   0  0  0  0  0  0  0  0  0  0  0  0
  139.4560   69.0640  226.9120 C   0  0  0  0  0  0  0  0  0  0  0  0
  139.8420   69.4740  228.1730 C   0  0  0  0  0  0  0  0  0  0  0  0
  140.4940   70.6680  228.3390 C   0  0  0  0  0  0  0  0  0  0  0  0
  140.8000   71.5130  227.2910 C   0  0  0  0  0  0  0  0  0  0  0  0
  140.4150   71.1070  226.0170 C   0  0  0  0  0  0  0  0  0  0  0  0
  140.6840   71.8930  224.9390 N   0  0  0  0  0  0  0  0  0  0  0  0
  139.2630   73.8700  223.0980 H   0  0  0  0  0  0  0  0  0  0  0  0
  141.2991   74.2577  220.9611 H   0  0  0  0  0  0  0  0  0  0  0  0
  139.5923   73.9406  220.3672 H   0  0  0  0  0  0  0  0  0  0  0  0
  142.9775   76.6889  220.8274 H   0  0  0  0  0  0  0  0  0  0  0  0
  142.2032   75.2095  220.1934 H   0  0  0  0  0  0  0  0  0  0  0  0
  143.1943   76.6728  218.3912 H   0  0  0  0  0  0  0  0  0  0  0  0
  141.4141   76.4188  218.2129 H   0  0  0  0  0  0  0  0  0  0  0  0
  142.7956   78.8553  219.3987 H   0  0  0  0  0  0  0  0  0  0  0  0
  141.9709   78.7565  217.8110 H   0  0  0  0  0  0  0  0  0  0  0  0
  140.4967   79.7398  219.4994 H   0  0  0  0  0  0  0  0  0  0  0  0
  139.8798   78.1287  218.9539 H   0  0  0  0  0  0  0  0  0  0  0  0
  139.7351   78.4046  221.4777 H   0  0  0  0  0  0  0  0  0  0  0  0
  142.7134   78.3368  221.4656 H   0  0  0  0  0  0  0  0  0  0  0  0
  142.6349   80.5811  220.8958 H   0  0  0  0  0  0  0  0  0  0  0  0
  140.8556   80.6049  220.9689 H   0  0  0  0  0  0  0  0  0  0  0  0
  142.6326   81.7427  222.8489 H   0  0  0  0  0  0  0  0  0  0  0  0
  140.8959   81.4883  223.0965 H   0  0  0  0  0  0  0  0  0  0  0  0
  143.2408   79.7620  223.9395 H   0  0  0  0  0  0  0  0  0  0  0  0
  141.8064   80.1324  224.8611 H   0  0  0  0  0  0  0  0  0  0  0  0
  141.9133   77.7525  223.6129 H   0  0  0  0  0  0  0  0  0  0  0  0
  140.4035   78.6359  223.4306 H   0  0  0  0  0  0  0  0  0  0  0  0
  139.3754   70.0337  222.5277 H   0  0  0  0  0  0  0  0  0  0  0  0
  138.8590   68.5599  224.4458 H   0  0  0  0  0  0  0  0  0  0  0  0
  138.9314   68.1102  226.7534 H   0  0  0  0  0  0  0  0  0  0  0  0
  139.6257   68.8408  229.0461 H   0  0  0  0  0  0  0  0  0  0  0  0
  140.7876   70.9674  229.3560 H   0  0  0  0  0  0  0  0  0  0  0  0
  141.3251   72.4654  227.4559 H   0  0  0  0  0  0  0  0  0  0  0  0
  1  2  2  0
  2  3  1  0
  3  4  1  0
  4  5  1  0
  5  6  2  0
  5  7  1  0
  7  8  1  0
  8  9  1  0
  9 10  1  0
 10 11  1  0
 11 12  1  0
 12 13  1  0
 13 14  1  0
 14 15  1  0
 15 16  1  0
 16 17  1  0
  2 18  1  0
 18 19  2  0
 19 20  1  0
 20 21  2  0
 21 22  1  0
 22 23  2  0
 23 24  1  0
 24 25  2  0
 25 26  1  0
 26 27  2  0
 12  7  1  0
 17 13  1  0
 27 18  1  0
 26 21  1  0
  3 28  1  0
  4 29  1  0
  4 30  1  0
  8 31  1  0
  8 32  1  0
  9 33  1  0
  9 34  1  0
 10 35  1  0
 10 36  1  0
 11 37  1  0
 11 38  1  0
 12 39  1  1
 13 40  1  0
 14 41  1  0
 14 42  1  0
 15 43  1  0
 15 44  1  0
 16 45  1  0
 16 46  1  0
 17 47  1  0
 17 48  1  0
 19 49  1  0
 20 50  1  0
 22 51  1  0
 23 52  1  0
 24 53  1  0
 25 54  1  0
M  END
>  <smiles>  (37) 
O=C(NCC(=O)N1CCCCC1C1CCCC1)c1ccc2ccccc2n1

>  <score_type>  (37) 
oracle

>  <origin>  (37) 
autodockgpu

>  <m_score__min__energy>  (37) 
-8.9100000000000001

>  <m_primary>  (37) 
energy

>  <rmsd>  (37) 
2.2352994168636955

>  <m_score__min__rmsd>  (37) 
2.2352994168636955

>  <meeko>  (37) 
{"free_energy": -8.81, "intermolecular_energy": -10.3, "internal_energy": -1.37, "cluster_size": 41, "cluster_id": 1, "rank_in_cluster": 21}

>  <energy>  (37) 
-8.17

>  <cluster_rmsd>  (37) 
1.93

>  <cluster>  (37) 
1

$$$$

     RDKit          3D

 54 57  0  0  0  0  0  0  0  0999 V2000
  141.4460   72.4320  221.6280 O   0  0  0  0  0  0  0  0  0  0  0  0
  140.5430   72.6040  222.4740 C   0  0  0  0  0  0  0  0  0  0  0  0
  139.7290   73.7680  222.3460 N   0  0  0  0  0  0  0  0  0  0  0  0
  140.0000   74.6630  221.2610 C   0  0  0  0  0  0  0  0  0  0  0  0
  139.8900   76.0780  221.6010 C   0  0  0  0  0  0  0  0  0  0  0  0
  139.0080   76.5780  222.3510 O   0  0  0  0  0  0  0  0  0  0  0  0
  140.8420   76.9870  221.0560 N   0  0  0  0  0  0  0  0  0  0  0  0
  142.0640   76.5120  220.3860 C   0  0  0  0  0  0  0  0  0  0  0  0
  142.0470   77.0220  218.9520 C   0  0  0  0  0  0  0  0  0  0  0  0
  141.8600   78.5100  218.9150 C   0  0  0  0  0  0  0  0  0  0  0  0
  140.6040   78.8580  219.6530 C   0  0  0  0  0  0  0  0  0  0  0  0
  140.6860   78.4290  221.1140 C   0  0  2  0  0  0  0  0  0  0  0  0
  141.8500   79.0960  221.8140 C   0  0  0  0  0  0  0  0  0  0  0  0
  141.7870   80.5870  221.6090 C   0  0  0  0  0  0  0  0  0  0  0  0
  141.9920   81.2350  222.9530 C   0  0  0  0  0  0  0  0  0  0  0  0
  142.4400   80.1490  223.8740 C   0  0  0  0  0  0  0  0  0  0  0  0
  141.7310   78.9200  223.2910 C   0  0  0  0  0  0  0  0  0  0  0  0
  140.3040   71.6670  223.5620 C   0  0  0  0  0  0  0  0  0  0  0  0
  139.6440   70.5030  223.2840 C   0  0  0  0  0  0  0  0  0  0  0  0
  139.3760   69.5600  224.2540 C   0  0  0  0  0  0  0  0  0  0  0  0
  139.7870   69.8050  225.5340 C   0  0  0  0  0  0  0  0  0  0  0  0
  139.5110   68.8490  226.4920 C   0  0  0  0  0  0  0  0  0  0  0  0
  139.9330   69.1120  227.7800 C   0  0  0  0  0  0  0  0  0  0  0  0
  140.5950   70.2780  228.0630 C   0  0  0  0  0  0  0  0  0  0  0  0
  140.8760   71.2370  227.1110 C   0  0  0  0  0  0  0  0  0  0  0  0
  140.4530   70.9800  225.8100 C   0  0  0  0  0  0  0  0  0  0  0  0
  140.6970   71.8840  224.8220 N   0  0  0  0  0  0  0  0  0  0  0  0
  138.9810   73.8950  223.0610 H   0  0  0  0  0  0  0  0  0  0  0  0
  141.0241   74.4734  220.9070 H   0  0  0  0  0  0  0  0  0  0  0  0
  139.2361   74.4654  220.4946 H   0  0  0  0  0  0  0  0  0  0  0  0
  142.9505   76.8999  220.9090 H   0  0  0  0  0  0  0  0  0  0  0  0
  142.1023   75.4127  220.3986 H   0  0  0  0  0  0  0  0  0  0  0  0
  143.0011   76.7668  218.4677 H   0  0  0  0  0  0  0  0  0  0  0  0
  141.2078   76.5491  218.4208 H   0  0  0  0  0  0  0  0  0  0  0  0
  142.7188   79.0024  219.3945 H   0  0  0  0  0  0  0  0  0  0  0  0
  141.7869   78.8513  217.8718 H   0  0  0  0  0  0  0  0  0  0  0  0
  140.4504   79.9462  219.6067 H   0  0  0  0  0  0  0  0  0  0  0  0
  139.7641   78.3273  219.1808 H   0  0  0  0  0  0  0  0  0  0  0  0
  139.7973   78.7220  221.6923 H   0  0  0  0  0  0  0  0  0  0  0  0
  142.7709   78.6504  221.4097 H   0  0  0  0  0  0  0  0  0  0  0  0
  142.5780   80.9048  220.9137 H   0  0  0  0  0  0  0  0  0  0  0  0
  140.8171   80.8797  221.1804 H   0  0  0  0  0  0  0  0  0  0  0  0
  142.7606   82.0190  222.8853 H   0  0  0  0  0  0  0  0  0  0  0  0
  141.0685   81.7114  223.3137 H   0  0  0  0  0  0  0  0  0  0  0  0
  143.5331   80.0291  223.8479 H   0  0  0  0  0  0  0  0  0  0  0  0
  142.2004   80.3382  224.9308 H   0  0  0  0  0  0  0  0  0  0  0  0
  142.2271   77.9931  223.6148 H   0  0  0  0  0  0  0  0  0  0  0  0
  140.6854   78.8394  223.6231 H   0  0  0  0  0  0  0  0  0  0  0  0
  139.3155   70.3118  222.2518 H   0  0  0  0  0  0  0  0  0  0  0  0
  138.8431   68.6310  224.0028 H   0  0  0  0  0  0  0  0  0  0  0  0
  138.9789   67.9198  226.2401 H   0  0  0  0  0  0  0  0  0  0  0  0
  139.7374   68.3838  228.5809 H   0  0  0  0  0  0  0  0  0  0  0  0
  140.9180   70.4584  229.0989 H   0  0  0  0  0  0  0  0  0  0  0  0
  141.4105   72.1632  227.3689 H   0  0  0  0  0  0  0  0  0  0  0  0
  1  2  2  0
  2  3  1  0
  3  4  1  0
  4  5  1  0
  5  6  2  0
  5  7  1  0
  7  8  1  0
  8  9  1  0
  9 10  1  0
 10 11  1  0
 11 12  1  0
 12 13  1  0
 13 14  1  0
 14 15  1  0
 15 16  1  0
 16 17  1  0
  2 18  1  0
 18 19  2  0
 19 20  1  0
 20 21  2  0
 21 22  1  0
 22 23  2  0
 23 24  1  0
 24 25  2  0
 25 26  1  0
 26 27  2  0
 12  7  1  0
 17 13  1  0
 27 18  1  0
 26 21  1  0
  3 28  1  0
  4 29  1  0
  4 30  1  0
  8 31  1  0
  8 32  1  0
  9 33  1  0
  9 34  1  0
 10 35  1  0
 10 36  1  0
 11 37  1  0
 11 38  1  0
 12 39  1  1
 13 40  1  0
 14 41  1  0
 14 42  1  0
 15 43  1  0
 15 44  1  0
 16 45  1  0
 16 46  1  0
 17 47  1  0
 17 48  1  0
 19 49  1  0
 20 50  1  0
 22 51  1  0
 23 52  1  0
 24 53  1  0
 25 54  1  0
M  END
>  <smiles>  (38) 
O=C(NCC(=O)N1CCCCC1C1CCCC1)c1ccc2ccccc2n1

>  <score_type>  (38) 
oracle

>  <origin>  (38) 
autodockgpu

>  <m_score__min__energy>  (38) 
-8.9100000000000001

>  <m_primary>  (38) 
energy

>  <rmsd>  (38) 
2.297170455517417

>  <m_score__min__rmsd>  (38) 
2.297170455517417

>  <meeko>  (38) 
{"free_energy": -8.86, "intermolecular_energy": -10.35, "internal_energy": -1.38, "cluster_size": 41, "cluster_id": 1, "rank_in_cluster": 11}

>  <energy>  (38) 
-8.12

>  <cluster_rmsd>  (38) 
0.88

>  <cluster>  (38) 
1

$$$$

     RDKit          3D

 54 57  0  0  0  0  0  0  0  0999 V2000
  141.3170   72.7700  221.9710 O   0  0  0  0  0  0  0  0  0  0  0  0
  140.2760   72.6370  222.6480 C   0  0  0  0  0  0  0  0  0  0  0  0
  139.1700   73.4830  222.3370 N   0  0  0  0  0  0  0  0  0  0  0  0
  139.3250   74.4260  221.2710 C   0  0  0  0  0  0  0  0  0  0  0  0
  139.4850   75.8110  221.7060 C   0  0  0  0  0  0  0  0  0  0  0  0
  138.7110   76.4160  222.4960 O   0  0  0  0  0  0  0  0  0  0  0  0
  140.5930   76.5570  221.2140 N   0  0  0  0  0  0  0  0  0  0  0  0
  141.8230   75.8940  220.7490 C   0  0  0  0  0  0  0  0  0  0  0  0
  142.0360   76.2600  219.2870 C   0  0  0  0  0  0  0  0  0  0  0  0
  142.0270   77.7500  219.1010 C   0  0  0  0  0  0  0  0  0  0  0  0
  140.7420   78.2980  219.6400 C   0  0  0  0  0  0  0  0  0  0  0  0
  140.6000   78.0070  221.1310 C   0  0  2  0  0  0  0  0  0  0  0  0
  141.7430   78.6130  221.9150 C   0  0  0  0  0  0  0  0  0  0  0  0
  141.9710   80.0350  221.4750 C   0  0  0  0  0  0  0  0  0  0  0  0
  142.0790   80.8800  222.7170 C   0  0  0  0  0  0  0  0  0  0  0  0
  142.1870   79.9250  223.8600 C   0  0  0  0  0  0  0  0  0  0  0  0
  141.3720   78.7280  223.3560 C   0  0  0  0  0  0  0  0  0  0  0  0
  140.1640   71.6630  223.7240 C   0  0  0  0  0  0  0  0  0  0  0  0
  139.5440   70.4740  223.4620 C   0  0  0  0  0  0  0  0  0  0  0  0
  139.3950   69.4950  224.4230 C   0  0  0  0  0  0  0  0  0  0  0  0
  139.8860   69.7300  225.6760 C   0  0  0  0  0  0  0  0  0  0  0  0
  139.7280   68.7380  226.6250 C   0  0  0  0  0  0  0  0  0  0  0  0
  140.2290   68.9910  227.8860 C   0  0  0  0  0  0  0  0  0  0  0  0
  140.8520   70.1830  228.1530 C   0  0  0  0  0  0  0  0  0  0  0  0
  141.0140   71.1780  227.2100 C   0  0  0  0  0  0  0  0  0  0  0  0
  140.5110   70.9310  225.9360 C   0  0  0  0  0  0  0  0  0  0  0  0
  140.6360   71.8690  224.9590 N   0  0  0  0  0  0  0  0  0  0  0  0
  138.3110   73.3570  222.9130 H   0  0  0  0  0  0  0  0  0  0  0  0
  140.2148   74.1436  220.6892 H   0  0  0  0  0  0  0  0  0  0  0  0
  138.3964   74.3882  220.6825 H   0  0  0  0  0  0  0  0  0  0  0  0
  142.6800   76.2367  221.3475 H   0  0  0  0  0  0  0  0  0  0  0  0
  141.7318   74.8033  220.8586 H   0  0  0  0  0  0  0  0  0  0  0  0
  143.0054   75.8612  218.9534 H   0  0  0  0  0  0  0  0  0  0  0  0
  141.2176   75.8267  218.6933 H   0  0  0  0  0  0  0  0  0  0  0  0
  142.8745   78.1950  219.6430 H   0  0  0  0  0  0  0  0  0  0  0  0
  142.1165   77.9928  218.0319 H   0  0  0  0  0  0  0  0  0  0  0  0
  140.7226   79.3866  219.4835 H   0  0  0  0  0  0  0  0  0  0  0  0
  139.9079   77.8149  219.1100 H   0  0  0  0  0  0  0  0  0  0  0  0
  139.6895   78.4462  221.5646 H   0  0  0  0  0  0  0  0  0  0  0  0
  142.6229   77.9725  221.7550 H   0  0  0  0  0  0  0  0  0  0  0  0
  142.9012   80.1034  220.8919 H   0  0  0  0  0  0  0  0  0  0  0  0
  141.1424   80.3823  220.8403 H   0  0  0  0  0  0  0  0  0  0  0  0
  142.9732   81.5188  222.6675 H   0  0  0  0  0  0  0  0  0  0  0  0
  141.2086   81.5432  222.8286 H   0  0  0  0  0  0  0  0  0  0  0  0
  143.2338   79.6445  224.0485 H   0  0  0  0  0  0  0  0  0  0  0  0
  141.8270   80.3351  224.8151 H   0  0  0  0  0  0  0  0  0  0  0  0
  141.6436   77.8131  223.9030 H   0  0  0  0  0  0  0  0  0  0  0  0
  140.2903   78.8630  223.5030 H   0  0  0  0  0  0  0  0  0  0  0  0
  139.1505   70.2910  222.4512 H   0  0  0  0  0  0  0  0  0  0  0  0
  138.8919   68.5461  224.1854 H   0  0  0  0  0  0  0  0  0  0  0  0
  139.2254   67.7891  226.3861 H   0  0  0  0  0  0  0  0  0  0  0  0
  140.1283   68.2348  228.6785 H   0  0  0  0  0  0  0  0  0  0  0  0
  141.2414   70.3546  229.1674 H   0  0  0  0  0  0  0  0  0  0  0  0
  141.5184   72.1244  227.4547 H   0  0  0  0  0  0  0  0  0  0  0  0
  1  2  2  0
  2  3  1  0
  3  4  1  0
  4  5  1  0
  5  6  2  0
  5  7  1  0
  7  8  1  0
  8  9  1  0
  9 10  1  0
 10 11  1  0
 11 12  1  0
 12 13  1  0
 13 14  1  0
 14 15  1  0
 15 16  1  0
 16 17  1  0
  2 18  1  0
 18 19  2  0
 19 20  1  0
 20 21  2  0
 21 22  1  0
 22 23  2  0
 23 24  1  0
 24 25  2  0
 25 26  1  0
 26 27  2  0
 12  7  1  0
 17 13  1  0
 27 18  1  0
 26 21  1  0
  3 28  1  0
  4 29  1  0
  4 30  1  0
  8 31  1  0
  8 32  1  0
  9 33  1  0
  9 34  1  0
 10 35  1  0
 10 36  1  0
 11 37  1  0
 11 38  1  0
 12 39  1  1
 13 40  1  0
 14 41  1  0
 14 42  1  0
 15 43  1  0
 15 44  1  0
 16 45  1  0
 16 46  1  0
 17 47  1  0
 17 48  1  0
 19 49  1  0
 20 50  1  0
 22 51  1  0
 23 52  1  0
 24 53  1  0
 25 54  1  0
M  END
>  <smiles>  (39) 
O=C(NCC(=O)N1CCCCC1C1CCCC1)c1ccc2ccccc2n1

>  <score_type>  (39) 
oracle

>  <origin>  (39) 
autodockgpu

>  <m_score__min__energy>  (39) 
-8.9100000000000001

>  <m_primary>  (39) 
energy

>  <rmsd>  (39) 
2.114511646709593

>  <m_score__min__rmsd>  (39) 
2.114511646709593

>  <meeko>  (39) 
{"free_energy": -8.89, "intermolecular_energy": -10.38, "internal_energy": -1.38, "cluster_size": 41, "cluster_id": 1, "rank_in_cluster": 3}

>  <energy>  (39) 
-8.06

>  <cluster_rmsd>  (39) 
1.8

>  <cluster>  (39) 
1

$$$$

     RDKit          3D

 54 57  0  0  0  0  0  0  0  0999 V2000
  140.8870   71.4430  221.4880 O   0  0  0  0  0  0  0  0  0  0  0  0
  140.2140   71.8350  222.4640 C   0  0  0  0  0  0  0  0  0  0  0  0
  139.4940   73.0580  222.3240 N   0  0  0  0  0  0  0  0  0  0  0  0
  139.5880   73.7550  221.0770 C   0  0  0  0  0  0  0  0  0  0  0  0
  140.4980   74.8970  221.0880 C   0  0  0  0  0  0  0  0  0  0  0  0
  140.4810   75.8290  221.9380 O   0  0  0  0  0  0  0  0  0  0  0  0
  141.4900   74.9890  220.0710 N   0  0  0  0  0  0  0  0  0  0  0  0
  141.1600   74.7770  218.6510 C   0  0  0  0  0  0  0  0  0  0  0  0
  141.4990   76.0510  217.8910 C   0  0  0  0  0  0  0  0  0  0  0  0
  142.9200   76.4620  218.1410 C   0  0  0  0  0  0  0  0  0  0  0  0
  143.1280   76.6130  219.6160 C   0  0  0  0  0  0  0  0  0  0  0  0
  142.8820   75.2960  220.3460 C   0  0  2  0  0  0  0  0  0  0  0  0
  143.8100   74.2120  219.8420 C   0  0  0  0  0  0  0  0  0  0  0  0
  145.1650   74.3580  220.4830 C   0  0  0  0  0  0  0  0  0  0  0  0
  145.5790   72.9960  220.9770 C   0  0  0  0  0  0  0  0  0  0  0  0
  144.6050   72.0290  220.3890 C   0  0  0  0  0  0  0  0  0  0  0  0
  143.3290   72.8740  220.2950 C   0  0  0  0  0  0  0  0  0  0  0  0
  140.1480   71.0920  223.7150 C   0  0  0  0  0  0  0  0  0  0  0  0
  139.5810   69.8490  223.7030 C   0  0  0  0  0  0  0  0  0  0  0  0
  139.4770   69.0770  224.8410 C   0  0  0  0  0  0  0  0  0  0  0  0
  139.9600   69.5790  226.0170 C   0  0  0  0  0  0  0  0  0  0  0  0
  139.8480   68.7920  227.1470 C   0  0  0  0  0  0  0  0  0  0  0  0
  140.3400   69.3140  228.3260 C   0  0  0  0  0  0  0  0  0  0  0  0
  140.9090   70.5610  228.3420 C   0  0  0  0  0  0  0  0  0  0  0  0
  141.0250   71.3530  227.2170 C   0  0  0  0  0  0  0  0  0  0  0  0
  140.5310   70.8340  226.0240 C   0  0  0  0  0  0  0  0  0  0  0  0
  140.6130   71.5620  224.8780 N   0  0  0  0  0  0  0  0  0  0  0  0
  138.9390   73.3690  223.1500 H   0  0  0  0  0  0  0  0  0  0  0  0
  139.9367   73.0453  220.3123 H   0  0  0  0  0  0  0  0  0  0  0  0
  138.5856   74.1561  220.8668 H   0  0  0  0  0  0  0  0  0  0  0  0
  141.7488   73.9375  218.2528 H   0  0  0  0  0  0  0  0  0  0  0  0
  140.0917   74.5399  218.5396 H   0  0  0  0  0  0  0  0  0  0  0  0
  141.3590   75.8759  216.8141 H   0  0  0  0  0  0  0  0  0  0  0  0
  140.8343   76.8552  218.2394 H   0  0  0  0  0  0  0  0  0  0  0  0
  143.6015   75.6928  217.7487 H   0  0  0  0  0  0  0  0  0  0  0  0
  143.1266   77.4169  217.6355 H   0  0  0  0  0  0  0  0  0  0  0  0
  144.1625   76.9379  219.8010 H   0  0  0  0  0  0  0  0  0  0  0  0
  142.4135   77.3592  219.9938 H   0  0  0  0  0  0  0  0  0  0  0  0
  143.0809   75.3657  221.4256 H   0  0  0  0  0  0  0  0  0  0  0  0
  143.8470   74.2980  218.7460 H   0  0  0  0  0  0  0  0  0  0  0  0
  145.8922   74.7273  219.7449 H   0  0  0  0  0  0  0  0  0  0  0  0
  145.1259   75.0773  221.3143 H   0  0  0  0  0  0  0  0  0  0  0  0
  146.5998   72.7619  220.6407 H   0  0  0  0  0  0  0  0  0  0  0  0
  145.5780   72.9495  222.0760 H   0  0  0  0  0  0  0  0  0  0  0  0
  144.9317   71.6876  219.3957 H   0  0  0  0  0  0  0  0  0  0  0  0
  144.4837   71.1091  220.9798 H   0  0  0  0  0  0  0  0  0  0  0  0
  142.6285   72.4432  219.5645 H   0  0  0  0  0  0  0  0  0  0  0  0
  142.7840   72.9226  221.2492 H   0  0  0  0  0  0  0  0  0  0  0  0
  139.1943   69.4505  222.7534 H   0  0  0  0  0  0  0  0  0  0  0  0
  139.0155   68.0792  224.8031 H   0  0  0  0  0  0  0  0  0  0  0  0
  139.3873   67.7939  227.1087 H   0  0  0  0  0  0  0  0  0  0  0  0
  140.2754   68.7282  229.2548 H   0  0  0  0  0  0  0  0  0  0  0  0
  141.2917   70.9495  229.2973 H   0  0  0  0  0  0  0  0  0  0  0  0
  141.4874   72.3501  227.2617 H   0  0  0  0  0  0  0  0  0  0  0  0
  1  2  2  0
  2  3  1  0
  3  4  1  0
  4  5  1  0
  5  6  2  0
  5  7  1  0
  7  8  1  0
  8  9  1  0
  9 10  1  0
 10 11  1  0
 11 12  1  0
 12 13  1  0
 13 14  1  0
 14 15  1  0
 15 16  1  0
 16 17  1  0
  2 18  1  0
 18 19  2  0
 19 20  1  0
 20 21  2  0
 21 22  1  0
 22 23  2  0
 23 24  1  0
 24 25  2  0
 25 26  1  0
 26 27  2  0
 12  7  1  0
 17 13  1  0
 27 18  1  0
 26 21  1  0
  3 28  1  0
  4 29  1  0
  4 30  1  0
  8 31  1  0
  8 32  1  0
  9 33  1  0
  9 34  1  0
 10 35  1  0
 10 36  1  0
 11 37  1  0
 11 38  1  0
 12 39  1  1
 13 40  1  0
 14 41  1  0
 14 42  1  0
 15 43  1  0
 15 44  1  0
 16 45  1  0
 16 46  1  0
 17 47  1  0
 17 48  1  0
 19 49  1  0
 20 50  1  0
 22 51  1  0
 23 52  1  0
 24 53  1  0
 25 54  1  0
M  END
>  <smiles>  (40) 
O=C(NCC(=O)N1CCCCC1C1CCCC1)c1ccc2ccccc2n1

>  <score_type>  (40) 
oracle

>  <origin>  (40) 
autodockgpu

>  <m_score__min__energy>  (40) 
-8.9100000000000001

>  <m_primary>  (40) 
energy

>  <rmsd>  (40) 
1.7542300991434545

>  <m_score__min__rmsd>  (40) 
1.7542300991434545

>  <meeko>  (40) 
{"free_energy": -8.25, "intermolecular_energy": -9.74, "internal_energy": -1.67, "cluster_size": 41, "cluster_id": 1, "rank_in_cluster": 33}

>  <energy>  (40) 
-7.77

>  <cluster_rmsd>  (40) 
1.19

>  <cluster>  (40) 
1

$$$$

     RDKit          3D

 54 57  0  0  0  0  0  0  0  0999 V2000
  141.4530   72.0260  221.6400 O   0  0  0  0  0  0  0  0  0  0  0  0
  140.6300   72.3550  222.5200 C   0  0  0  0  0  0  0  0  0  0  0  0
  139.9240   73.5810  222.3410 N   0  0  0  0  0  0  0  0  0  0  0  0
  140.2030   74.3530  221.1690 C   0  0  0  0  0  0  0  0  0  0  0  0
  139.9380   75.7820  221.3060 C   0  0  0  0  0  0  0  0  0  0  0  0
  138.8860   76.2810  221.7930 O   0  0  0  0  0  0  0  0  0  0  0  0
  140.9260   76.7070  220.8640 N   0  0  0  0  0  0  0  0  0  0  0  0
  142.2000   76.2510  220.2800 C   0  0  0  0  0  0  0  0  0  0  0  0
  142.2950   76.8000  218.8640 C   0  0  0  0  0  0  0  0  0  0  0  0
  142.1060   78.2890  218.8520 C   0  0  0  0  0  0  0  0  0  0  0  0
  140.7950   78.6150  219.4970 C   0  0  0  0  0  0  0  0  0  0  0  0
  140.7610   78.1470  220.9480 C   0  0  2  0  0  0  0  0  0  0  0  0
  141.8640   78.7950  221.7560 C   0  0  0  0  0  0  0  0  0  0  0  0
  141.8790   80.2810  221.5050 C   0  0  0  0  0  0  0  0  0  0  0  0
  141.9570   80.9630  222.8450 C   0  0  0  0  0  0  0  0  0  0  0  0
  142.2590   79.8920  223.8400 C   0  0  0  0  0  0  0  0  0  0  0  0
  141.5750   78.6700  223.2140 C   0  0  0  0  0  0  0  0  0  0  0  0
  140.3780   71.5370  223.6980 C   0  0  0  0  0  0  0  0  0  0  0  0
  139.7280   70.3460  223.5350 C   0  0  0  0  0  0  0  0  0  0  0  0
  139.4490   69.5100  224.5950 C   0  0  0  0  0  0  0  0  0  0  0  0
  139.8390   69.8910  225.8480 C   0  0  0  0  0  0  0  0  0  0  0  0
  139.5520   69.0410  226.8980 C   0  0  0  0  0  0  0  0  0  0  0  0
  139.9520   69.4420  228.1580 C   0  0  0  0  0  0  0  0  0  0  0  0
  140.6040   70.6360  228.3250 C   0  0  0  0  0  0  0  0  0  0  0  0
  140.8950   71.4900  227.2810 C   0  0  0  0  0  0  0  0  0  0  0  0
  140.4950   71.0940  226.0080 C   0  0  0  0  0  0  0  0  0  0  0  0
  140.7500   71.8890  224.9340 N   0  0  0  0  0  0  0  0  0  0  0  0
  139.2420   73.8390  223.0860 H   0  0  0  0  0  0  0  0  0  0  0  0
  141.2661   74.2236  220.9178 H   0  0  0  0  0  0  0  0  0  0  0  0
  139.5265   73.9841  220.3840 H   0  0  0  0  0  0  0  0  0  0  0  0
  143.0411   76.6252  220.8821 H   0  0  0  0  0  0  0  0  0  0  0  0
  142.2406   75.1518  220.2658 H   0  0  0  0  0  0  0  0  0  0  0  0
  143.2855   76.5595  218.4504 H   0  0  0  0  0  0  0  0  0  0  0  0
  141.5021   76.3406  218.2555 H   0  0  0  0  0  0  0  0  0  0  0  0
  142.9225   78.7696  219.4109 H   0  0  0  0  0  0  0  0  0  0  0  0
  142.1143   78.6581  217.8158 H   0  0  0  0  0  0  0  0  0  0  0  0
  140.6420   79.7039  219.4678 H   0  0  0  0  0  0  0  0  0  0  0  0
  139.9975   78.0956  218.9454 H   0  0  0  0  0  0  0  0  0  0  0  0
  139.8280   78.4239  221.4607 H   0  0  0  0  0  0  0  0  0  0  0  0
  142.8067   78.3056  221.4700 H   0  0  0  0  0  0  0  0  0  0  0  0
  142.7535   80.5504  220.8945 H   0  0  0  0  0  0  0  0  0  0  0  0
  140.9741   80.5925  220.9627 H   0  0  0  0  0  0  0  0  0  0  0  0
  142.7570   81.7180  222.8427 H   0  0  0  0  0  0  0  0  0  0  0  0
  141.0173   81.4813  223.0865 H   0  0  0  0  0  0  0  0  0  0  0  0
  143.3430   79.7348  223.9408 H   0  0  0  0  0  0  0  0  0  0  0  0
  141.9099   80.1219  224.8575 H   0  0  0  0  0  0  0  0  0  0  0  0
  141.9974   77.7376  223.6168 H   0  0  0  0  0  0  0  0  0  0  0  0
  140.4966   78.6354  223.4281 H   0  0  0  0  0  0  0  0  0  0  0  0
  139.4169   70.0443  222.5240 H   0  0  0  0  0  0  0  0  0  0  0  0
  138.9237   68.5567  224.4356 H   0  0  0  0  0  0  0  0  0  0  0  0
  139.0282   68.0870  226.7381 H   0  0  0  0  0  0  0  0  0  0  0  0
  139.7469   68.8020  229.0288 H   0  0  0  0  0  0  0  0  0  0  0  0
  140.9101   70.9276  229.3405 H   0  0  0  0  0  0  0  0  0  0  0  0
  141.4201   72.4421  227.4475 H   0  0  0  0  0  0  0  0  0  0  0  0
  1  2  2  0
  2  3  1  0
  3  4  1  0
  4  5  1  0
  5  6  2  0
  5  7  1  0
  7  8  1  0
  8  9  1  0
  9 10  1  0
 10 11  1  0
 11 12  1  0
 12 13  1  0
 13 14  1  0
 14 15  1  0
 15 16  1  0
 16 17  1  0
  2 18  1  0
 18 19  2  0
 19 20  1  0
 20 21  2  0
 21 22  1  0
 22 23  2  0
 23 24  1  0
 24 25  2  0
 25 26  1  0
 26 27  2  0
 12  7  1  0
 17 13  1  0
 27 18  1  0
 26 21  1  0
  3 28  1  0
  4 29  1  0
  4 30  1  0
  8 31  1  0
  8 32  1  0
  9 33  1  0
  9 34  1  0
 10 35  1  0
 10 36  1  0
 11 37  1  0
 11 38  1  0
 12 39  1  1
 13 40  1  0
 14 41  1  0
 14 42  1  0
 15 43  1  0
 15 44  1  0
 16 45  1  0
 16 46  1  0
 17 47  1  0
 17 48  1  0
 19 49  1  0
 20 50  1  0
 22 51  1  0
 23 52  1  0
 24 53  1  0
 25 54  1  0
M  END
>  <smiles>  (41) 
O=C(NCC(=O)N1CCCCC1C1CCCC1)c1ccc2ccccc2n1

>  <score_type>  (41) 
oracle

>  <origin>  (41) 
autodockgpu

>  <m_score__min__energy>  (41) 
-8.9100000000000001

>  <m_primary>  (41) 
energy

>  <rmsd>  (41) 
2.2394826708673135

>  <m_score__min__rmsd>  (41) 
2.2394826708673135

>  <meeko>  (41) 
{"free_energy": -8.85, "intermolecular_energy": -10.34, "internal_energy": -1.37, "cluster_size": 41, "cluster_id": 1, "rank_in_cluster": 14}

>  <energy>  (41) 
-7.74

>  <cluster_rmsd>  (41) 
1.22

>  <cluster>  (41) 
1

$$$$

     RDKit          3D

 54 57  0  0  0  0  0  0  0  0999 V2000
  140.6530   71.7330  221.2860 O   0  0  0  0  0  0  0  0  0  0  0  0
  140.2550   72.2170  222.3660 C   0  0  0  0  0  0  0  0  0  0  0  0
  139.8480   73.5830  222.3700 N   0  0  0  0  0  0  0  0  0  0  0  0
  139.9220   74.3110  221.1400 C   0  0  0  0  0  0  0  0  0  0  0  0
  139.7680   75.7560  221.2800 C   0  0  0  0  0  0  0  0  0  0  0  0
  138.7450   76.3350  221.7380 O   0  0  0  0  0  0  0  0  0  0  0  0
  140.8400   76.6000  220.8740 N   0  0  0  0  0  0  0  0  0  0  0  0
  142.1260   76.0450  220.4160 C   0  0  0  0  0  0  0  0  0  0  0  0
  142.3610   76.5140  218.9870 C   0  0  0  0  0  0  0  0  0  0  0  0
  142.2620   78.0090  218.8910 C   0  0  0  0  0  0  0  0  0  0  0  0
  140.9270   78.4400  219.4140 C   0  0  0  0  0  0  0  0  0  0  0  0
  140.7550   78.0490  220.8780 C   0  0  2  0  0  0  0  0  0  0  0  0
  141.8300   78.6760  221.7390 C   0  0  0  0  0  0  0  0  0  0  0  0
  141.8880   80.1610  221.4880 C   0  0  0  0  0  0  0  0  0  0  0  0
  141.9130   80.8430  222.8310 C   0  0  0  0  0  0  0  0  0  0  0  0
  142.1430   79.7670  223.8400 C   0  0  0  0  0  0  0  0  0  0  0  0
  141.4660   78.5590  223.1810 C   0  0  0  0  0  0  0  0  0  0  0  0
  140.1970   71.4380  223.5950 C   0  0  0  0  0  0  0  0  0  0  0  0
  139.6500   70.1860  223.5450 C   0  0  0  0  0  0  0  0  0  0  0  0
  139.5550   69.3810  224.6610 C   0  0  0  0  0  0  0  0  0  0  0  0
  140.0250   69.8570  225.8520 C   0  0  0  0  0  0  0  0  0  0  0  0
  139.9230   69.0360  226.9590 C   0  0  0  0  0  0  0  0  0  0  0  0
  140.4020   69.5320  228.1550 C   0  0  0  0  0  0  0  0  0  0  0  0
  140.9510   70.7870  228.2080 C   0  0  0  0  0  0  0  0  0  0  0  0
  141.0580   71.6130  227.1070 C   0  0  0  0  0  0  0  0  0  0  0  0
  140.5760   71.1200  225.8970 C   0  0  0  0  0  0  0  0  0  0  0  0
  140.6500   71.8820  224.7720 N   0  0  0  0  0  0  0  0  0  0  0  0
  139.5190   73.9690  223.2810 H   0  0  0  0  0  0  0  0  0  0  0  0
  140.9025   74.1130  220.6823 H   0  0  0  0  0  0  0  0  0  0  0  0
  139.0802   73.9658  220.5217 H   0  0  0  0  0  0  0  0  0  0  0  0
  142.9390   76.4034  221.0646 H   0  0  0  0  0  0  0  0  0  0  0  0
  142.1034   74.9460  220.4577 H   0  0  0  0  0  0  0  0  0  0  0  0
  143.3641   76.1980  218.6645 H   0  0  0  0  0  0  0  0  0  0  0  0
  141.5913   76.0684  218.3397 H   0  0  0  0  0  0  0  0  0  0  0  0
  143.0603   78.4714  219.4901 H   0  0  0  0  0  0  0  0  0  0  0  0
  142.3714   78.3237  217.8427 H   0  0  0  0  0  0  0  0  0  0  0  0
  140.8416   79.5328  219.3222 H   0  0  0  0  0  0  0  0  0  0  0  0
  140.1444   77.9387  218.8256 H   0  0  0  0  0  0  0  0  0  0  0  0
  139.8039   78.4024  221.3028 H   0  0  0  0  0  0  0  0  0  0  0  0
  142.7757   78.1674  221.5004 H   0  0  0  0  0  0  0  0  0  0  0  0
  142.7972   80.4116  220.9218 H   0  0  0  0  0  0  0  0  0  0  0  0
  141.0182   80.4904  220.9007 H   0  0  0  0  0  0  0  0  0  0  0  0
  142.7274   81.5815  222.8686 H   0  0  0  0  0  0  0  0  0  0  0  0
  140.9732   81.3806  223.0253 H   0  0  0  0  0  0  0  0  0  0  0  0
  143.2172   79.5876  223.9946 H   0  0  0  0  0  0  0  0  0  0  0  0
  141.7486   80.0051  224.8389 H   0  0  0  0  0  0  0  0  0  0  0  0
  141.8483   77.6186  223.6046 H   0  0  0  0  0  0  0  0  0  0  0  0
  140.3777   78.5472  223.3409 H   0  0  0  0  0  0  0  0  0  0  0  0
  139.2732   69.8082  222.5831 H   0  0  0  0  0  0  0  0  0  0  0  0
  139.1103   68.3772  224.5934 H   0  0  0  0  0  0  0  0  0  0  0  0
  139.4797   68.0316  226.8902 H   0  0  0  0  0  0  0  0  0  0  0  0
  140.3430   68.9193  229.0667 H   0  0  0  0  0  0  0  0  0  0  0  0
  141.3247   71.1539  229.1753 H   0  0  0  0  0  0  0  0  0  0  0  0
  141.5040   72.6157  227.1821 H   0  0  0  0  0  0  0  0  0  0  0  0
  1  2  2  0
  2  3  1  0
  3  4  1  0
  4  5  1  0
  5  6  2  0
  5  7  1  0
  7  8  1  0
  8  9  1  0
  9 10  1  0
 10 11  1  0
 11 12  1  0
 12 13  1  0
 13 14  1  0
 14 15  1  0
 15 16  1  0
 16 17  1  0
  2 18  1  0
 18 19  2  0
 19 20  1  0
 20 21  2  0
 21 22  1  0
 22 23  2  0
 23 24  1  0
 24 25  2  0
 25 26  1  0
 26 27  2  0
 12  7  1  0
 17 13  1  0
 27 18  1  0
 26 21  1  0
  3 28  1  0
  4 29  1  0
  4 30  1  0
  8 31  1  0
  8 32  1  0
  9 33  1  0
  9 34  1  0
 10 35  1  0
 10 36  1  0
 11 37  1  0
 11 38  1  0
 12 39  1  1
 13 40  1  0
 14 41  1  0
 14 42  1  0
 15 43  1  0
 15 44  1  0
 16 45  1  0
 16 46  1  0
 17 47  1  0
 17 48  1  0
 19 49  1  0
 20 50  1  0
 22 51  1  0
 23 52  1  0
 24 53  1  0
 25 54  1  0
M  END
>  <smiles>  (42) 
O=C(NCC(=O)N1CCCCC1C1CCCC1)c1ccc2ccccc2n1

>  <score_type>  (42) 
oracle

>  <origin>  (42) 
autodockgpu

>  <m_score__min__energy>  (42) 
-8.9100000000000001

>  <m_primary>  (42) 
energy

>  <rmsd>  (42) 
2.116726685269855

>  <m_score__min__rmsd>  (42) 
2.116726685269855

>  <meeko>  (42) 
{"free_energy": -8.74, "intermolecular_energy": -10.23, "internal_energy": -1.41, "cluster_size": 41, "cluster_id": 1, "rank_in_cluster": 24}

>  <energy>  (42) 
-8.87

>  <cluster_rmsd>  (42) 
0.0

>  <cluster>  (42) 
2

$$$$

     RDKit          3D

 54 57  0  0  0  0  0  0  0  0999 V2000
  140.9930   74.8640  220.9610 O   0  0  0  0  0  0  0  0  0  0  0  0
  140.2000   75.3030  221.8210 C   0  0  0  0  0  0  0  0  0  0  0  0
  139.2270   74.4030  222.3460 N   0  0  0  0  0  0  0  0  0  0  0  0
  139.2200   73.0580  221.8540 C   0  0  0  0  0  0  0  0  0  0  0  0
  140.0270   72.1240  222.6330 C   0  0  0  0  0  0  0  0  0  0  0  0
  141.2590   71.9120  222.4620 O   0  0  0  0  0  0  0  0  0  0  0  0
  139.4000   71.3820  223.6740 N   0  0  0  0  0  0  0  0  0  0  0  0
  137.9440   71.4400  223.8910 C   0  0  0  0  0  0  0  0  0  0  0  0
  137.3850   70.0330  223.7310 C   0  0  0  0  0  0  0  0  0  0  0  0
  138.1060   69.0660  224.6240 C   0  0  0  0  0  0  0  0  0  0  0  0
  139.5710   69.1290  224.3240 C   0  0  0  0  0  0  0  0  0  0  0  0
  140.1300   70.5240  224.5890 C   0  0  2  0  0  0  0  0  0  0  0  0
  139.9220   70.9280  226.0320 C   0  0  0  0  0  0  0  0  0  0  0  0
  140.1010   69.7330  226.9310 C   0  0  0  0  0  0  0  0  0  0  0  0
  141.0050   70.1500  228.0610 C   0  0  0  0  0  0  0  0  0  0  0  0
  141.1270   71.6350  227.9680 C   0  0  0  0  0  0  0  0  0  0  0  0
  140.9930   71.8750  226.4590 C   0  0  0  0  0  0  0  0  0  0  0  0
  140.2440   76.6800  222.2910 C   0  0  0  0  0  0  0  0  0  0  0  0
  139.0640   77.3090  222.5710 C   0  0  0  0  0  0  0  0  0  0  0  0
  139.0130   78.6120  223.0210 C   0  0  0  0  0  0  0  0  0  0  0  0
  140.1870   79.2900  223.1890 C   0  0  0  0  0  0  0  0  0  0  0  0
  140.1170   80.5940  223.6410 C   0  0  0  0  0  0  0  0  0  0  0  0
  141.3130   81.2660  223.8060 C   0  0  0  0  0  0  0  0  0  0  0  0
  142.4990   80.6390  223.5260 C   0  0  0  0  0  0  0  0  0  0  0  0
  142.5760   79.3360  223.0750 C   0  0  0  0  0  0  0  0  0  0  0  0
  141.3760   78.6520  222.9060 C   0  0  0  0  0  0  0  0  0  0  0  0
  141.3800   77.3650  222.4640 N   0  0  0  0  0  0  0  0  0  0  0  0
  138.5740   74.7880  223.0620 H   0  0  0  0  0  0  0  0  0  0  0  0
  138.1808   72.6974  221.8546 H   0  0  0  0  0  0  0  0  0  0  0  0
  139.6635   73.0907  220.8479 H   0  0  0  0  0  0  0  0  0  0  0  0
  137.7327   71.8120  224.9044 H   0  0  0  0  0  0  0  0  0  0  0  0
  137.4773   72.1203  223.1634 H   0  0  0  0  0  0  0  0  0  0  0  0
  136.3167   70.0378  223.9933 H   0  0  0  0  0  0  0  0  0  0  0  0
  137.5225   69.7167  222.6865 H   0  0  0  0  0  0  0  0  0  0  0  0
  137.9326   69.3354  225.6763 H   0  0  0  0  0  0  0  0  0  0  0  0
  137.7329   68.0464  224.4475 H   0  0  0  0  0  0  0  0  0  0  0  0
  140.0990   68.4041  224.9610 H   0  0  0  0  0  0  0  0  0  0  0  0
  139.7189   68.8912  223.2602 H   0  0  0  0  0  0  0  0  0  0  0  0
  141.2164   70.5843  224.4275 H   0  0  0  0  0  0  0  0  0  0  0  0
  138.9163   71.3676  226.1050 H   0  0  0  0  0  0  0  0  0  0  0  0
  139.1266   69.4120  227.3280 H   0  0  0  0  0  0  0  0  0  0  0  0
  140.5384   68.8909  226.3747 H   0  0  0  0  0  0  0  0  0  0  0  0
  140.5651   69.8630  229.0275 H   0  0  0  0  0  0  0  0  0  0  0  0
  141.9878   69.6611  227.9904 H   0  0  0  0  0  0  0  0  0  0  0  0
  140.3224   72.1373  228.5251 H   0  0  0  0  0  0  0  0  0  0  0  0
  142.0593   72.0301  228.3977 H   0  0  0  0  0  0  0  0  0  0  0  0
  140.6989   72.9149  226.2539 H   0  0  0  0  0  0  0  0  0  0  0  0
  141.9385   71.7126  225.9207 H   0  0  0  0  0  0  0  0  0  0  0  0
  138.1223   76.7575  222.4329 H   0  0  0  0  0  0  0  0  0  0  0  0
  138.0488   79.0942  223.2396 H   0  0  0  0  0  0  0  0  0  0  0  0
  139.1524   81.0754  223.8597 H   0  0  0  0  0  0  0  0  0  0  0  0
  141.3132   82.3065  224.1629 H   0  0  0  0  0  0  0  0  0  0  0  0
  143.4343   81.2004  223.6672 H   0  0  0  0  0  0  0  0  0  0  0  0
  143.5436   78.8596  222.8588 H   0  0  0  0  0  0  0  0  0  0  0  0
  1  2  2  0
  2  3  1  0
  3  4  1  0
  4  5  1  0
  5  6  2  0
  5  7  1  0
  7  8  1  0
  8  9  1  0
  9 10  1  0
 10 11  1  0
 11 12  1  0
 12 13  1  0
 13 14  1  0
 14 15  1  0
 15 16  1  0
 16 17  1  0
  2 18  1  0
 18 19  2  0
 19 20  1  0
 20 21  2  0
 21 22  1  0
 22 23  2  0
 23 24  1  0
 24 25  2  0
 25 26  1  0
 26 27  2  0
 12  7  1  0
 17 13  1  0
 27 18  1  0
 26 21  1  0
  3 28  1  0
  4 29  1  0
  4 30  1  0
  8 31  1  0
  8 32  1  0
  9 33  1  0
  9 34  1  0
 10 35  1  0
 10 36  1  0
 11 37  1  0
 11 38  1  0
 12 39  1  6
 13 40  1  0
 14 41  1  0
 14 42  1  0
 15 43  1  0
 15 44  1  0
 16 45  1  0
 16 46  1  0
 17 47  1  0
 17 48  1  0
 19 49  1  0
 20 50  1  0
 22 51  1  0
 23 52  1  0
 24 53  1  0
 25 54  1  0
M  END
>  <smiles>  (43) 
O=C(NCC(=O)N1CCCCC1C1CCCC1)c1ccc2ccccc2n1

>  <score_type>  (43) 
oracle

>  <origin>  (43) 
autodockgpu

>  <m_score__min__energy>  (43) 
-8.9100000000000001

>  <m_primary>  (43) 
energy

>  <rmsd>  (43) 
8.348837576062735

>  <m_score__min__rmsd>  (43) 
8.348837576062735

>  <meeko>  (43) 
{"free_energy": -8.87, "intermolecular_energy": -10.36, "internal_energy": -1.23, "cluster_size": 7, "cluster_id": 2, "rank_in_cluster": 1}

>  <energy>  (43) 
-8.73

>  <cluster_rmsd>  (43) 
0.94

>  <cluster>  (43) 
2

$$$$

     RDKit          3D

 54 57  0  0  0  0  0  0  0  0999 V2000
  141.3140   72.7350  221.8920 O   0  0  0  0  0  0  0  0  0  0  0  0
  140.2990   72.6260  222.6120 C   0  0  0  0  0  0  0  0  0  0  0  0
  139.1990   73.4910  222.3410 N   0  0  0  0  0  0  0  0  0  0  0  0
  139.3270   74.4260  221.2640 C   0  0  0  0  0  0  0  0  0  0  0  0
  139.5070   75.8130  221.6820 C   0  0  0  0  0  0  0  0  0  0  0  0
  138.7360   76.4420  222.4570 O   0  0  0  0  0  0  0  0  0  0  0  0
  140.6330   76.5330  221.1920 N   0  0  0  0  0  0  0  0  0  0  0  0
  141.8720   75.8450  220.7890 C   0  0  0  0  0  0  0  0  0  0  0  0
  142.1270   76.1520  219.3200 C   0  0  0  0  0  0  0  0  0  0  0  0
  142.1330   77.6330  219.0750 C   0  0  0  0  0  0  0  0  0  0  0  0
  140.8370   78.2080  219.5560 C   0  0  0  0  0  0  0  0  0  0  0  0
  140.6510   77.9780  221.0520 C   0  0  2  0  0  0  0  0  0  0  0  0
  141.7750   78.6090  221.8440 C   0  0  0  0  0  0  0  0  0  0  0  0
  141.9070   80.0650  221.4790 C   0  0  0  0  0  0  0  0  0  0  0  0
  141.9960   80.8450  222.7640 C   0  0  0  0  0  0  0  0  0  0  0  0
  142.1900   79.8380  223.8490 C   0  0  0  0  0  0  0  0  0  0  0  0
  141.4350   78.6220  223.2970 C   0  0  0  0  0  0  0  0  0  0  0  0
  140.2140   71.6600  223.6980 C   0  0  0  0  0  0  0  0  0  0  0  0
  139.6130   70.4580  223.4520 C   0  0  0  0  0  0  0  0  0  0  0  0
  139.4890   69.4860  224.4230 C   0  0  0  0  0  0  0  0  0  0  0  0
  139.9860   69.7410  225.6700 C   0  0  0  0  0  0  0  0  0  0  0  0
  139.8530   68.7560  226.6300 C   0  0  0  0  0  0  0  0  0  0  0  0
  140.3600   69.0310  227.8850 C   0  0  0  0  0  0  0  0  0  0  0  0
  140.9630   70.2350  228.1350 C   0  0  0  0  0  0  0  0  0  0  0  0
  141.1000   71.2240  227.1810 C   0  0  0  0  0  0  0  0  0  0  0  0
  140.5920   70.9560  225.9140 C   0  0  0  0  0  0  0  0  0  0  0  0
  140.6920   71.8870  224.9270 N   0  0  0  0  0  0  0  0  0  0  0  0
  138.3610   73.3860  222.9530 H   0  0  0  0  0  0  0  0  0  0  0  0
  140.1976   74.1345  220.6581 H   0  0  0  0  0  0  0  0  0  0  0  0
  138.3805   74.3891  220.7048 H   0  0  0  0  0  0  0  0  0  0  0  0
  142.7141   76.2068  221.3972 H   0  0  0  0  0  0  0  0  0  0  0  0
  141.7717   74.7600  220.9398 H   0  0  0  0  0  0  0  0  0  0  0  0
  143.1024   75.7350  219.0291 H   0  0  0  0  0  0  0  0  0  0  0  0
  141.3219   75.7003  218.7219 H   0  0  0  0  0  0  0  0  0  0  0  0
  142.9679   78.0947  219.6225 H   0  0  0  0  0  0  0  0  0  0  0  0
  142.2540   77.8330  218.0001 H   0  0  0  0  0  0  0  0  0  0  0  0
  140.8285   79.2896  219.3558 H   0  0  0  0  0  0  0  0  0  0  0  0
  140.0155   77.7074  219.0226 H   0  0  0  0  0  0  0  0  0  0  0  0
  139.7313   78.4390  221.4415 H   0  0  0  0  0  0  0  0  0  0  0  0
  142.6871   78.0329  221.6292 H   0  0  0  0  0  0  0  0  0  0  0  0
  142.8164   80.2216  220.8803 H   0  0  0  0  0  0  0  0  0  0  0  0
  141.0438   80.3958  220.8828 H   0  0  0  0  0  0  0  0  0  0  0  0
  142.8488   81.5390  222.7307 H   0  0  0  0  0  0  0  0  0  0  0  0
  141.0903   81.4462  222.9319 H   0  0  0  0  0  0  0  0  0  0  0  0
  143.2562   79.6121  223.9982 H   0  0  0  0  0  0  0  0  0  0  0  0
  141.8307   80.1729  224.8333 H   0  0  0  0  0  0  0  0  0  0  0  0
  141.7749   77.6969  223.7855 H   0  0  0  0  0  0  0  0  0  0  0  0
  140.3513   78.6821  223.4757 H   0  0  0  0  0  0  0  0  0  0  0  0
  139.2147   70.2586  222.4462 H   0  0  0  0  0  0  0  0  0  0  0  0
  139.0006   68.5264  224.1982 H   0  0  0  0  0  0  0  0  0  0  0  0
  139.3653   67.7961  226.4048 H   0  0  0  0  0  0  0  0  0  0  0  0
  140.2793   68.2811  228.6857 H   0  0  0  0  0  0  0  0  0  0  0  0
  141.3572   70.4233  229.1445 H   0  0  0  0  0  0  0  0  0  0  0  0
  141.5893   72.1815  227.4127 H   0  0  0  0  0  0  0  0  0  0  0  0
  1  2  2  0
  2  3  1  0
  3  4  1  0
  4  5  1  0
  5  6  2  0
  5  7  1  0
  7  8  1  0
  8  9  1  0
  9 10  1  0
 10 11  1  0
 11 12  1  0
 12 13  1  0
 13 14  1  0
 14 15  1  0
 15 16  1  0
 16 17  1  0
  2 18  1  0
 18 19  2  0
 19 20  1  0
 20 21  2  0
 21 22  1  0
 22 23  2  0
 23 24  1  0
 24 25  2  0
 25 26  1  0
 26 27  2  0
 12  7  1  0
 17 13  1  0
 27 18  1  0
 26 21  1  0
  3 28  1  0
  4 29  1  0
  4 30  1  0
  8 31  1  0
  8 32  1  0
  9 33  1  0
  9 34  1  0
 10 35  1  0
 10 36  1  0
 11 37  1  0
 11 38  1  0
 12 39  1  1
 13 40  1  0
 14 41  1  0
 14 42  1  0
 15 43  1  0
 15 44  1  0
 16 45  1  0
 16 46  1  0
 17 47  1  0
 17 48  1  0
 19 49  1  0
 20 50  1  0
 22 51  1  0
 23 52  1  0
 24 53  1  0
 25 54  1  0
M  END
>  <smiles>  (44) 
O=C(NCC(=O)N1CCCCC1C1CCCC1)c1ccc2ccccc2n1

>  <score_type>  (44) 
oracle

>  <origin>  (44) 
autodockgpu

>  <m_score__min__energy>  (44) 
-8.9100000000000001

>  <m_primary>  (44) 
energy

>  <rmsd>  (44) 
2.109608416873951

>  <m_score__min__rmsd>  (44) 
2.109608416873951

>  <meeko>  (44) 
{"free_energy": -8.88, "intermolecular_energy": -10.38, "internal_energy": -1.41, "cluster_size": 41, "cluster_id": 1, "rank_in_cluster": 5}

>  <energy>  (44) 
-8.73

>  <cluster_rmsd>  (44) 
0.95

>  <cluster>  (44) 
2

$$$$

     RDKit          3D

 54 57  0  0  0  0  0  0  0  0999 V2000
  141.4090   72.0960  221.6800 O   0  0  0  0  0  0  0  0  0  0  0  0
  140.5480   72.3660  222.5440 C   0  0  0  0  0  0  0  0  0  0  0  0
  139.7600   73.5390  222.3510 N   0  0  0  0  0  0  0  0  0  0  0  0
  140.0050   74.3290  221.1820 C   0  0  0  0  0  0  0  0  0  0  0  0
  139.8390   75.7660  221.3760 C   0  0  0  0  0  0  0  0  0  0  0  0
  138.8370   76.3140  221.9120 O   0  0  0  0  0  0  0  0  0  0  0  0
  140.8730   76.6390  220.9340 N   0  0  0  0  0  0  0  0  0  0  0  0
  142.1470   76.1190  220.4070 C   0  0  0  0  0  0  0  0  0  0  0  0
  142.3050   76.6150  218.9760 C   0  0  0  0  0  0  0  0  0  0  0  0
  142.1700   78.1080  218.9090 C   0  0  0  0  0  0  0  0  0  0  0  0
  140.8530   78.5030  219.5010 C   0  0  0  0  0  0  0  0  0  0  0  0
  140.7580   78.0860  220.9650 C   0  0  2  0  0  0  0  0  0  0  0  0
  141.8590   78.7230  221.7850 C   0  0  0  0  0  0  0  0  0  0  0  0
  141.9360   80.1970  221.4840 C   0  0  0  0  0  0  0  0  0  0  0  0
  141.9970   80.9230  222.8020 C   0  0  0  0  0  0  0  0  0  0  0  0
  142.2300   79.8770  223.8420 C   0  0  0  0  0  0  0  0  0  0  0  0
  141.5210   78.6590  223.2370 C   0  0  0  0  0  0  0  0  0  0  0  0
  140.3340   71.5330  223.7190 C   0  0  0  0  0  0  0  0  0  0  0  0
  139.6970   70.3350  223.5580 C   0  0  0  0  0  0  0  0  0  0  0  0
  139.4530   69.4840  224.6150 C   0  0  0  0  0  0  0  0  0  0  0  0
  139.8650   69.8580  225.8630 C   0  0  0  0  0  0  0  0  0  0  0  0
  139.6130   68.9930  226.9110 C   0  0  0  0  0  0  0  0  0  0  0  0
  140.0360   69.3870  228.1650 C   0  0  0  0  0  0  0  0  0  0  0  0
  140.6750   70.5880  228.3300 C   0  0  0  0  0  0  0  0  0  0  0  0
  140.9310   71.4570  227.2890 C   0  0  0  0  0  0  0  0  0  0  0  0
  140.5080   71.0680  226.0210 C   0  0  0  0  0  0  0  0  0  0  0  0
  140.7280   71.8780  224.9500 N   0  0  0  0  0  0  0  0  0  0  0  0
  139.0480   73.7480  223.0830 H   0  0  0  0  0  0  0  0  0  0  0  0
  141.0382   74.1440  220.8528 H   0  0  0  0  0  0  0  0  0  0  0  0
  139.2548   74.0255  220.4369 H   0  0  0  0  0  0  0  0  0  0  0  0
  142.9821   76.4846  221.0226 H   0  0  0  0  0  0  0  0  0  0  0  0
  142.1489   75.0193  220.4314 H   0  0  0  0  0  0  0  0  0  0  0  0
  143.2984   76.3260  218.6022 H   0  0  0  0  0  0  0  0  0  0  0  0
  141.5155   76.1626  218.3579 H   0  0  0  0  0  0  0  0  0  0  0  0
  142.9861   78.5784  219.4771 H   0  0  0  0  0  0  0  0  0  0  0  0
  142.2224   78.4403  217.8617 H   0  0  0  0  0  0  0  0  0  0  0  0
  140.7415   79.5951  219.4312 H   0  0  0  0  0  0  0  0  0  0  0  0
  140.0537   77.9946  218.9419 H   0  0  0  0  0  0  0  0  0  0  0  0
  139.8205   78.4121  221.4390 H   0  0  0  0  0  0  0  0  0  0  0  0
  142.7918   78.1913  221.5459 H   0  0  0  0  0  0  0  0  0  0  0  0
  142.8384   80.4135  220.8933 H   0  0  0  0  0  0  0  0  0  0  0  0
  141.0605   80.5209  220.9022 H   0  0  0  0  0  0  0  0  0  0  0  0
  142.8231   81.6494  222.7996 H   0  0  0  0  0  0  0  0  0  0  0  0
  141.0696   81.4819  222.9956 H   0  0  0  0  0  0  0  0  0  0  0  0
  143.3041   79.6851  223.9817 H   0  0  0  0  0  0  0  0  0  0  0  0
  141.8593   80.1545  224.8398 H   0  0  0  0  0  0  0  0  0  0  0  0
  141.8966   77.7269  223.6843 H   0  0  0  0  0  0  0  0  0  0  0  0
  140.4361   78.6699  223.4181 H   0  0  0  0  0  0  0  0  0  0  0  0
  139.3677   70.0394  222.5509 H   0  0  0  0  0  0  0  0  0  0  0  0
  138.9379   68.5250  224.4571 H   0  0  0  0  0  0  0  0  0  0  0  0
  139.0985   68.0336  226.7532 H   0  0  0  0  0  0  0  0  0  0  0  0
  139.8596   68.7354  229.0335 H   0  0  0  0  0  0  0  0  0  0  0  0
  140.9997   70.8732  229.3415 H   0  0  0  0  0  0  0  0  0  0  0  0
  141.4465   72.4147  227.4538 H   0  0  0  0  0  0  0  0  0  0  0  0
  1  2  2  0
  2  3  1  0
  3  4  1  0
  4  5  1  0
  5  6  2  0
  5  7  1  0
  7  8  1  0
  8  9  1  0
  9 10  1  0
 10 11  1  0
 11 12  1  0
 12 13  1  0
 13 14  1  0
 14 15  1  0
 15 16  1  0
 16 17  1  0
  2 18  1  0
 18 19  2  0
 19 20  1  0
 20 21  2  0
 21 22  1  0
 22 23  2  0
 23 24  1  0
 24 25  2  0
 25 26  1  0
 26 27  2  0
 12  7  1  0
 17 13  1  0
 27 18  1  0
 26 21  1  0
  3 28  1  0
  4 29  1  0
  4 30  1  0
  8 31  1  0
  8 32  1  0
  9 33  1  0
  9 34  1  0
 10 35  1  0
 10 36  1  0
 11 37  1  0
 11 38  1  0
 12 39  1  1
 13 40  1  0
 14 41  1  0
 14 42  1  0
 15 43  1  0
 15 44  1  0
 16 45  1  0
 16 46  1  0
 17 47  1  0
 17 48  1  0
 19 49  1  0
 20 50  1  0
 22 51  1  0
 23 52  1  0
 24 53  1  0
 25 54  1  0
M  END
>  <smiles>  (45) 
O=C(NCC(=O)N1CCCCC1C1CCCC1)c1ccc2ccccc2n1

>  <score_type>  (45) 
oracle

>  <origin>  (45) 
autodockgpu

>  <m_score__min__energy>  (45) 
-8.9100000000000001

>  <m_primary>  (45) 
energy

>  <rmsd>  (45) 
2.193279963560934

>  <m_score__min__rmsd>  (45) 
2.193279963560934

>  <meeko>  (45) 
{"free_energy": -8.91, "intermolecular_energy": -10.4, "internal_energy": -1.37, "cluster_size": 41, "cluster_id": 1, "rank_in_cluster": 2}

>  <energy>  (45) 
-8.69

>  <cluster_rmsd>  (45) 
0.95

>  <cluster>  (45) 
2

$$$$

     RDKit          3D

 54 57  0  0  0  0  0  0  0  0999 V2000
  141.1360   74.1520  221.8150 O   0  0  0  0  0  0  0  0  0  0  0  0
  140.0490   74.7520  221.9570 C   0  0  0  0  0  0  0  0  0  0  0  0
  138.8500   74.0010  221.7780 N   0  0  0  0  0  0  0  0  0  0  0  0
  138.9690   72.6120  221.4490 C   0  0  0  0  0  0  0  0  0  0  0  0
  139.8110   71.8430  222.3610 C   0  0  0  0  0  0  0  0  0  0  0  0
  141.0480   71.6490  222.2150 O   0  0  0  0  0  0  0  0  0  0  0  0
  139.2120   71.2550  223.5110 N   0  0  0  0  0  0  0  0  0  0  0  0
  137.7810   71.4360  223.8120 C   0  0  0  0  0  0  0  0  0  0  0  0
  137.1260   70.0620  223.8370 C   0  0  0  0  0  0  0  0  0  0  0  0
  137.8450   69.1420  224.7790 C   0  0  0  0  0  0  0  0  0  0  0  0
  139.2870   69.0730  224.3820 C   0  0  0  0  0  0  0  0  0  0  0  0
  139.9490   70.4450  224.4630 C   0  0  2  0  0  0  0  0  0  0  0  0
  139.8680   71.0060  225.8660 C   0  0  0  0  0  0  0  0  0  0  0  0
  140.0090   69.8940  226.8730 C   0  0  0  0  0  0  0  0  0  0  0  0
  141.0150   70.3420  227.9000 C   0  0  0  0  0  0  0  0  0  0  0  0
  141.2480   71.7950  227.6470 C   0  0  0  0  0  0  0  0  0  0  0  0
  141.0360   71.8950  226.1320 C   0  0  0  0  0  0  0  0  0  0  0  0
  139.9760   76.1670  222.2920 C   0  0  0  0  0  0  0  0  0  0  0  0
  138.7430   76.7440  222.4110 C   0  0  0  0  0  0  0  0  0  0  0  0
  138.5830   78.0770  222.7260 C   0  0  0  0  0  0  0  0  0  0  0  0
  139.6990   78.8400  222.9230 C   0  0  0  0  0  0  0  0  0  0  0  0
  139.5190   80.1740  223.2380 C   0  0  0  0  0  0  0  0  0  0  0  0
  140.6570   80.9310  223.4340 C   0  0  0  0  0  0  0  0  0  0  0  0
  141.8950   80.3550  223.3150 C   0  0  0  0  0  0  0  0  0  0  0  0
  142.0830   79.0240  223.0020 C   0  0  0  0  0  0  0  0  0  0  0  0
  140.9410   78.2540  222.8030 C   0  0  0  0  0  0  0  0  0  0  0  0
  141.0540   76.9340  222.4900 N   0  0  0  0  0  0  0  0  0  0  0  0
  137.9530   74.5180  221.9000 H   0  0  0  0  0  0  0  0  0  0  0  0
  137.9618   72.1698  221.4562 H   0  0  0  0  0  0  0  0  0  0  0  0
  139.4528   72.5649  220.4622 H   0  0  0  0  0  0  0  0  0  0  0  0
  137.6646   71.9225  224.7917 H   0  0  0  0  0  0  0  0  0  0  0  0
  137.3079   72.0701  223.0478 H   0  0  0  0  0  0  0  0  0  0  0  0
  136.0811   70.1673  224.1642 H   0  0  0  0  0  0  0  0  0  0  0  0
  137.1710   69.6333  222.8250 H   0  0  0  0  0  0  0  0  0  0  0  0
  137.7627   69.5270  225.8062 H   0  0  0  0  0  0  0  0  0  0  0  0
  137.3974   68.1382  224.7344 H   0  0  0  0  0  0  0  0  0  0  0  0
  139.8120   68.3811  225.0570 H   0  0  0  0  0  0  0  0  0  0  0  0
  139.3449   68.7198  223.3419 H   0  0  0  0  0  0  0  0  0  0  0  0
  141.0231   70.4131  224.2277 H   0  0  0  0  0  0  0  0  0  0  0  0
  138.9075   71.5356  225.9492 H   0  0  0  0  0  0  0  0  0  0  0  0
  139.0401   69.6988  227.3558 H   0  0  0  0  0  0  0  0  0  0  0  0
  140.3402   68.9662  226.3836 H   0  0  0  0  0  0  0  0  0  0  0  0
  140.6179   70.1903  228.9145 H   0  0  0  0  0  0  0  0  0  0  0  0
  141.9494   69.7666  227.8241 H   0  0  0  0  0  0  0  0  0  0  0  0
  140.5235   72.4167  228.1935 H   0  0  0  0  0  0  0  0  0  0  0  0
  142.2344   72.1498  227.9803 H   0  0  0  0  0  0  0  0  0  0  0  0
  140.8129   72.9309  225.8369 H   0  0  0  0  0  0  0  0  0  0  0  0
  141.9288   71.5994  225.5614 H   0  0  0  0  0  0  0  0  0  0  0  0
  137.8483   76.1246  222.2502 H   0  0  0  0  0  0  0  0  0  0  0  0
  137.5786   78.5164  222.8167 H   0  0  0  0  0  0  0  0  0  0  0  0
  138.5143   80.6127  223.3284 H   0  0  0  0  0  0  0  0  0  0  0  0
  140.5699   81.9982  223.6861 H   0  0  0  0  0  0  0  0  0  0  0  0
  142.7824   80.9845  223.4769 H   0  0  0  0  0  0  0  0  0  0  0  0
  143.0904   78.5912  222.9138 H   0  0  0  0  0  0  0  0  0  0  0  0
  1  2  2  0
  2  3  1  0
  3  4  1  0
  4  5  1  0
  5  6  2  0
  5  7  1  0
  7  8  1  0
  8  9  1  0
  9 10  1  0
 10 11  1  0
 11 12  1  0
 12 13  1  0
 13 14  1  0
 14 15  1  0
 15 16  1  0
 16 17  1  0
  2 18  1  0
 18 19  2  0
 19 20  1  0
 20 21  2  0
 21 22  1  0
 22 23  2  0
 23 24  1  0
 24 25  2  0
 25 26  1  0
 26 27  2  0
 12  7  1  0
 17 13  1  0
 27 18  1  0
 26 21  1  0
  3 28  1  0
  4 29  1  0
  4 30  1  0
  8 31  1  0
  8 32  1  0
  9 33  1  0
  9 34  1  0
 10 35  1  0
 10 36  1  0
 11 37  1  0
 11 38  1  0
 12 39  1  6
 13 40  1  0
 14 41  1  0
 14 42  1  0
 15 43  1  0
 15 44  1  0
 16 45  1  0
 16 46  1  0
 17 47  1  0
 17 48  1  0
 19 49  1  0
 20 50  1  0
 22 51  1  0
 23 52  1  0
 24 53  1  0
 25 54  1  0
M  END
>  <smiles>  (46) 
O=C(NCC(=O)N1CCCCC1C1CCCC1)c1ccc2ccccc2n1

>  <score_type>  (46) 
oracle

>  <origin>  (46) 
autodockgpu

>  <m_score__min__energy>  (46) 
-8.9100000000000001

>  <m_primary>  (46) 
energy

>  <rmsd>  (46) 
8.183398380868823

>  <m_score__min__rmsd>  (46) 
8.183398380868823

>  <meeko>  (46) 
{"free_energy": -8.33, "intermolecular_energy": -9.82, "internal_energy": -1.15, "cluster_size": 7, "cluster_id": 2, "rank_in_cluster": 5}

>  <energy>  (46) 
-8.33

>  <cluster_rmsd>  (46) 
0.6

>  <cluster>  (46) 
2

$$$$

     RDKit          3D

 54 57  0  0  0  0  0  0  0  0999 V2000
  139.3600   71.5120  221.2210 O   0  0  0  0  0  0  0  0  0  0  0  0
  139.4880   72.0800  222.3270 C   0  0  0  0  0  0  0  0  0  0  0  0
  139.4070   73.5030  222.3540 N   0  0  0  0  0  0  0  0  0  0  0  0
  139.1840   74.1880  221.1170 C   0  0  0  0  0  0  0  0  0  0  0  0
  139.3010   75.6410  221.1990 C   0  0  0  0  0  0  0  0  0  0  0  0
  138.3520   76.4320  221.4510 O   0  0  0  0  0  0  0  0  0  0  0  0
  140.5760   76.2370  220.9810 N   0  0  0  0  0  0  0  0  0  0  0  0
  141.8130   75.4380  221.0030 C   0  0  0  0  0  0  0  0  0  0  0  0
  142.4840   75.5670  219.6420 C   0  0  0  0  0  0  0  0  0  0  0  0
  142.6850   77.0090  219.2780 C   0  0  0  0  0  0  0  0  0  0  0  0
  141.3610   77.7080  219.3240 C   0  0  0  0  0  0  0  0  0  0  0  0
  140.7560   77.6540  220.7230 C   0  0  2  0  0  0  0  0  0  0  0  0
  141.6730   78.3010  221.7380 C   0  0  0  0  0  0  0  0  0  0  0  0
  141.7650   79.7820  221.4760 C   0  0  0  0  0  0  0  0  0  0  0  0
  141.5680   80.4860  222.7930 C   0  0  0  0  0  0  0  0  0  0  0  0
  141.6340   79.4270  223.8440 C   0  0  0  0  0  0  0  0  0  0  0  0
  141.0780   78.2040  223.1030 C   0  0  0  0  0  0  0  0  0  0  0  0
  139.7140   71.3410  223.5610 C   0  0  0  0  0  0  0  0  0  0  0  0
  139.4160   70.0080  223.5830 C   0  0  0  0  0  0  0  0  0  0  0  0
  139.5990   69.2320  224.7100 C   0  0  0  0  0  0  0  0  0  0  0  0
  140.0950   69.8250  225.8370 C   0  0  0  0  0  0  0  0  0  0  0  0
  140.2720   69.0330  226.9550 C   0  0  0  0  0  0  0  0  0  0  0  0
  140.7730   69.6470  228.0860 C   0  0  0  0  0  0  0  0  0  0  0  0
  141.0730   70.9840  228.0670 C   0  0  0  0  0  0  0  0  0  0  0  0
  140.9000   71.7820  226.9530 C   0  0  0  0  0  0  0  0  0  0  0  0
  140.3940   71.1700  225.8090 C   0  0  0  0  0  0  0  0  0  0  0  0
  140.1980   71.8980  224.6770 N   0  0  0  0  0  0  0  0  0  0  0  0
  139.5170   73.9580  223.2860 H   0  0  0  0  0  0  0  0  0  0  0  0
  139.9211   73.8249  220.3856 H   0  0  0  0  0  0  0  0  0  0  0  0
  138.1455   73.9742  220.8242 H   0  0  0  0  0  0  0  0  0  0  0  0
  142.4859   75.8142  221.7876 H   0  0  0  0  0  0  0  0  0  0  0  0
  141.5819   74.3838  221.2155 H   0  0  0  0  0  0  0  0  0  0  0  0
  143.4617   75.0639  219.6735 H   0  0  0  0  0  0  0  0  0  0  0  0
  141.8359   75.1008  218.8853 H   0  0  0  0  0  0  0  0  0  0  0  0
  143.3757   77.4782  219.9941 H   0  0  0  0  0  0  0  0  0  0  0  0
  143.1116   77.0831  218.2668 H   0  0  0  0  0  0  0  0  0  0  0  0
  141.5005   78.7599  219.0340 H   0  0  0  0  0  0  0  0  0  0  0  0
  140.6756   77.2011  218.6288 H   0  0  0  0  0  0  0  0  0  0  0  0
  139.8083   78.2075  220.7972 H   0  0  0  0  0  0  0  0  0  0  0  0
  142.6470   77.7950  221.6657 H   0  0  0  0  0  0  0  0  0  0  0  0
  142.7533   80.0297  221.0615 H   0  0  0  0  0  0  0  0  0  0  0  0
  141.0007   80.0960  220.7498 H   0  0  0  0  0  0  0  0  0  0  0  0
  142.3627   81.2300  222.9506 H   0  0  0  0  0  0  0  0  0  0  0  0
  140.6074   81.0212  222.8223 H   0  0  0  0  0  0  0  0  0  0  0  0
  142.6691   79.2568  224.1749 H   0  0  0  0  0  0  0  0  0  0  0  0
  141.0808   79.6783  224.7610 H   0  0  0  0  0  0  0  0  0  0  0  0
  141.3892   77.2727  223.5989 H   0  0  0  0  0  0  0  0  0  0  0  0
  139.9783   78.1877  223.0830 H   0  0  0  0  0  0  0  0  0  0  0  0
  139.0169   69.5373  222.6724 H   0  0  0  0  0  0  0  0  0  0  0  0
  139.3511   68.1603  224.7011 H   0  0  0  0  0  0  0  0  0  0  0  0
  140.0249   67.9612  226.9448 H   0  0  0  0  0  0  0  0  0  0  0  0
  140.9315   69.0618  229.0038 H   0  0  0  0  0  0  0  0  0  0  0  0
  141.4709   71.4440  228.9835 H   0  0  0  0  0  0  0  0  0  0  0  0
  141.1507   72.8529  226.9687 H   0  0  0  0  0  0  0  0  0  0  0  0
  1  2  2  0
  2  3  1  0
  3  4  1  0
  4  5  1  0
  5  6  2  0
  5  7  1  0
  7  8  1  0
  8  9  1  0
  9 10  1  0
 10 11  1  0
 11 12  1  0
 12 13  1  0
 13 14  1  0
 14 15  1  0
 15 16  1  0
 16 17  1  0
  2 18  1  0
 18 19  2  0
 19 20  1  0
 20 21  2  0
 21 22  1  0
 22 23  2  0
 23 24  1  0
 24 25  2  0
 25 26  1  0
 26 27  2  0
 12  7  1  0
 17 13  1  0
 27 18  1  0
 26 21  1  0
  3 28  1  0
  4 29  1  0
  4 30  1  0
  8 31  1  0
  8 32  1  0
  9 33  1  0
  9 34  1  0
 10 35  1  0
 10 36  1  0
 11 37  1  0
 11 38  1  0
 12 39  1  6
 13 40  1  0
 14 41  1  0
 14 42  1  0
 15 43  1  0
 15 44  1  0
 16 45  1  0
 16 46  1  0
 17 47  1  0
 17 48  1  0
 19 49  1  0
 20 50  1  0
 22 51  1  0
 23 52  1  0
 24 53  1  0
 25 54  1  0
M  END
>  <smiles>  (47) 
O=C(NCC(=O)N1CCCCC1C1CCCC1)c1ccc2ccccc2n1

>  <score_type>  (47) 
oracle

>  <origin>  (47) 
autodockgpu

>  <m_score__min__energy>  (47) 
-8.9100000000000001

>  <m_primary>  (47) 
energy

>  <rmsd>  (47) 
1.9881122038247574

>  <m_score__min__rmsd>  (47) 
1.9881122038247574

>  <meeko>  (47) 
{"free_energy": -8.36, "intermolecular_energy": -9.85, "internal_energy": -1.58, "cluster_size": 41, "cluster_id": 1, "rank_in_cluster": 30}

>  <energy>  (47) 
-8.1

>  <cluster_rmsd>  (47) 
0.98

>  <cluster>  (47) 
2

$$$$

     RDKit          3D

 54 57  0  0  0  0  0  0  0  0999 V2000
  141.1130   71.7390  221.4740 O   0  0  0  0  0  0  0  0  0  0  0  0
  140.5220   72.2250  222.4610 C   0  0  0  0  0  0  0  0  0  0  0  0
  140.0450   73.5650  222.3540 N   0  0  0  0  0  0  0  0  0  0  0  0
  140.2730   74.2630  221.1250 C   0  0  0  0  0  0  0  0  0  0  0  0
  139.9390   75.6840  221.1640 C   0  0  0  0  0  0  0  0  0  0  0  0
  138.8260   76.1570  221.5230 O   0  0  0  0  0  0  0  0  0  0  0  0
  140.9280   76.6290  220.7710 N   0  0  0  0  0  0  0  0  0  0  0  0
  142.2090   76.2030  220.1810 C   0  0  0  0  0  0  0  0  0  0  0  0
  142.3160   76.8120  218.7910 C   0  0  0  0  0  0  0  0  0  0  0  0
  142.1220   78.2990  218.8410 C   0  0  0  0  0  0  0  0  0  0  0  0
  140.8030   78.5940  219.4860 C   0  0  0  0  0  0  0  0  0  0  0  0
  140.7580   78.0630  220.9150 C   0  0  2  0  0  0  0  0  0  0  0  0
  141.8500   78.6810  221.7610 C   0  0  0  0  0  0  0  0  0  0  0  0
  141.9450   80.1580  221.4790 C   0  0  0  0  0  0  0  0  0  0  0  0
  141.9910   80.8670  222.8070 C   0  0  0  0  0  0  0  0  0  0  0  0
  142.1980   79.8060  223.8380 C   0  0  0  0  0  0  0  0  0  0  0  0
  141.4880   78.6020  223.2060 C   0  0  0  0  0  0  0  0  0  0  0  0
  140.3140   71.4760  223.6930 C   0  0  0  0  0  0  0  0  0  0  0  0
  139.6520   70.2830  223.6220 C   0  0  0  0  0  0  0  0  0  0  0  0
  139.4110   69.5090  224.7390 C   0  0  0  0  0  0  0  0  0  0  0  0
  139.8520   69.9580  225.9520 C   0  0  0  0  0  0  0  0  0  0  0  0
  139.6020   69.1700  227.0590 C   0  0  0  0  0  0  0  0  0  0  0  0
  140.0540   69.6380  228.2770 C   0  0  0  0  0  0  0  0  0  0  0  0
  140.7180   70.8350  228.3510 C   0  0  0  0  0  0  0  0  0  0  0  0
  140.9720   71.6270  227.2490 C   0  0  0  0  0  0  0  0  0  0  0  0
  140.5190   71.1630  226.0180 C   0  0  0  0  0  0  0  0  0  0  0  0
  140.7360   71.8950  224.8910 N   0  0  0  0  0  0  0  0  0  0  0  0
  139.5550   73.9530  223.1880 H   0  0  0  0  0  0  0  0  0  0  0  0
  141.3384   74.1675  220.8683 H   0  0  0  0  0  0  0  0  0  0  0  0
  139.6076   73.8059  220.3778 H   0  0  0  0  0  0  0  0  0  0  0  0
  143.0426   76.5541  220.8069 H   0  0  0  0  0  0  0  0  0  0  0  0
  142.2539   75.1056  220.1203 H   0  0  0  0  0  0  0  0  0  0  0  0
  143.3113   76.5925  218.3774 H   0  0  0  0  0  0  0  0  0  0  0  0
  141.5309   76.3765  218.1554 H   0  0  0  0  0  0  0  0  0  0  0  0
  142.9312   78.7575  219.4284 H   0  0  0  0  0  0  0  0  0  0  0  0
  142.1393   78.7119  217.8216 H   0  0  0  0  0  0  0  0  0  0  0  0
  140.6470   79.6828  219.5025 H   0  0  0  0  0  0  0  0  0  0  0  0
  140.0118   78.0981  218.9046 H   0  0  0  0  0  0  0  0  0  0  0  0
  139.8193   78.3134  221.4309 H   0  0  0  0  0  0  0  0  0  0  0  0
  142.7822   78.1442  221.5309 H   0  0  0  0  0  0  0  0  0  0  0  0
  142.8587   80.3735  220.9057 H   0  0  0  0  0  0  0  0  0  0  0  0
  141.0822   80.4971  220.8869 H   0  0  0  0  0  0  0  0  0  0  0  0
  142.8233   81.5859  222.8270 H   0  0  0  0  0  0  0  0  0  0  0  0
  141.0654   81.4316  222.9926 H   0  0  0  0  0  0  0  0  0  0  0  0
  143.2679   79.6027  223.9927 H   0  0  0  0  0  0  0  0  0  0  0  0
  141.8138   80.0745  224.8331 H   0  0  0  0  0  0  0  0  0  0  0  0
  141.8479   77.6609  223.6475 H   0  0  0  0  0  0  0  0  0  0  0  0
  140.4004   78.6206  223.3696 H   0  0  0  0  0  0  0  0  0  0  0  0
  139.2995   69.9277  222.6424 H   0  0  0  0  0  0  0  0  0  0  0  0
  138.8757   68.5517  224.6547 H   0  0  0  0  0  0  0  0  0  0  0  0
  139.0669   68.2127  226.9739 H   0  0  0  0  0  0  0  0  0  0  0  0
  139.8809   69.0491  229.1898 H   0  0  0  0  0  0  0  0  0  0  0  0
  141.0651   71.1811  229.3357 H   0  0  0  0  0  0  0  0  0  0  0  0
  141.5089   72.5827  227.3402 H   0  0  0  0  0  0  0  0  0  0  0  0
  1  2  2  0
  2  3  1  0
  3  4  1  0
  4  5  1  0
  5  6  2  0
  5  7  1  0
  7  8  1  0
  8  9  1  0
  9 10  1  0
 10 11  1  0
 11 12  1  0
 12 13  1  0
 13 14  1  0
 14 15  1  0
 15 16  1  0
 16 17  1  0
  2 18  1  0
 18 19  2  0
 19 20  1  0
 20 21  2  0
 21 22  1  0
 22 23  2  0
 23 24  1  0
 24 25  2  0
 25 26  1  0
 26 27  2  0
 12  7  1  0
 17 13  1  0
 27 18  1  0
 26 21  1  0
  3 28  1  0
  4 29  1  0
  4 30  1  0
  8 31  1  0
  8 32  1  0
  9 33  1  0
  9 34  1  0
 10 35  1  0
 10 36  1  0
 11 37  1  0
 11 38  1  0
 12 39  1  1
 13 40  1  0
 14 41  1  0
 14 42  1  0
 15 43  1  0
 15 44  1  0
 16 45  1  0
 16 46  1  0
 17 47  1  0
 17 48  1  0
 19 49  1  0
 20 50  1  0
 22 51  1  0
 23 52  1  0
 24 53  1  0
 25 54  1  0
M  END
>  <smiles>  (48) 
O=C(NCC(=O)N1CCCCC1C1CCCC1)c1ccc2ccccc2n1

>  <score_type>  (48) 
oracle

>  <origin>  (48) 
autodockgpu

>  <m_score__min__energy>  (48) 
-8.9100000000000001

>  <m_primary>  (48) 
energy

>  <rmsd>  (48) 
2.2122252890268683

>  <m_score__min__rmsd>  (48) 
2.2122252890268683

>  <meeko>  (48) 
{"free_energy": -8.77, "intermolecular_energy": -10.26, "internal_energy": -1.34, "cluster_size": 41, "cluster_id": 1, "rank_in_cluster": 22}

>  <energy>  (48) 
-8.05

>  <cluster_rmsd>  (48) 
0.93

>  <cluster>  (48) 
2

$$$$

     RDKit          3D

 54 57  0  0  0  0  0  0  0  0999 V2000
  140.9290   74.0400  220.4340 O   0  0  0  0  0  0  0  0  0  0  0  0
  140.5290   74.7820  221.3560 C   0  0  0  0  0  0  0  0  0  0  0  0
  139.6200   74.2280  222.3050 N   0  0  0  0  0  0  0  0  0  0  0  0
  139.2250   72.8610  222.1400 C   0  0  0  0  0  0  0  0  0  0  0  0
  140.0220   71.9040  222.9020 C   0  0  0  0  0  0  0  0  0  0  0  0
  141.2400   71.6500  222.6980 O   0  0  0  0  0  0  0  0  0  0  0  0
  139.3980   71.1880  223.9630 N   0  0  0  0  0  0  0  0  0  0  0  0
  137.9440   71.2550  224.1860 C   0  0  0  0  0  0  0  0  0  0  0  0
  137.3810   69.8460  224.0630 C   0  0  0  0  0  0  0  0  0  0  0  0
  138.1040   68.8980  224.9740 C   0  0  0  0  0  0  0  0  0  0  0  0
  139.5680   68.9510  224.6640 C   0  0  0  0  0  0  0  0  0  0  0  0
  140.1320   70.3490  224.8930 C   0  0  2  0  0  0  0  0  0  0  0  0
  139.9320   70.7870  226.3280 C   0  0  0  0  0  0  0  0  0  0  0  0
  140.2120   69.6370  227.2600 C   0  0  0  0  0  0  0  0  0  0  0  0
  141.1150   70.1500  228.3510 C   0  0  0  0  0  0  0  0  0  0  0  0
  141.1350   71.6360  228.2080 C   0  0  0  0  0  0  0  0  0  0  0  0
  140.9490   71.8160  226.6960 C   0  0  0  0  0  0  0  0  0  0  0  0
  140.9570   76.1680  221.4840 C   0  0  0  0  0  0  0  0  0  0  0  0
  141.3420   76.8350  220.3560 C   0  0  0  0  0  0  0  0  0  0  0  0
  141.7610   78.1490  220.3860 C   0  0  0  0  0  0  0  0  0  0  0  0
  141.7910   78.7970  221.5880 C   0  0  0  0  0  0  0  0  0  0  0  0
  142.2140   80.1130  221.5990 C   0  0  0  0  0  0  0  0  0  0  0  0
  142.2390   80.7530  222.8230 C   0  0  0  0  0  0  0  0  0  0  0  0
  141.8550   80.0870  223.9560 C   0  0  0  0  0  0  0  0  0  0  0  0
  141.4300   78.7730  223.9530 C   0  0  0  0  0  0  0  0  0  0  0  0
  141.4020   78.1200  222.7240 C   0  0  0  0  0  0  0  0  0  0  0  0
  140.9950   76.8230  222.6500 N   0  0  0  0  0  0  0  0  0  0  0  0
  139.2970   74.8620  223.0670 H   0  0  0  0  0  0  0  0  0  0  0  0
  138.1765   72.7655  222.4586 H   0  0  0  0  0  0  0  0  0  0  0  0
  139.3758   72.6179  221.0778 H   0  0  0  0  0  0  0  0  0  0  0  0
  137.7389   71.6520  225.1912 H   0  0  0  0  0  0  0  0  0  0  0  0
  137.4750   71.9187  223.4447 H   0  0  0  0  0  0  0  0  0  0  0  0
  136.3143   69.8599  224.3312 H   0  0  0  0  0  0  0  0  0  0  0  0
  137.5124   69.5048  223.0255 H   0  0  0  0  0  0  0  0  0  0  0  0
  137.9371   69.1919  226.0208 H   0  0  0  0  0  0  0  0  0  0  0  0
  137.7274   67.8755  224.8236 H   0  0  0  0  0  0  0  0  0  0  0  0
  140.0981   68.2397  225.3144 H   0  0  0  0  0  0  0  0  0  0  0  0
  139.7086   68.6888  223.6050 H   0  0  0  0  0  0  0  0  0  0  0  0
  141.2176   70.4024  224.7236 H   0  0  0  0  0  0  0  0  0  0  0  0
  138.9014   71.1619  226.4135 H   0  0  0  0  0  0  0  0  0  0  0  0
  139.2712   69.2671  227.6937 H   0  0  0  0  0  0  0  0  0  0  0  0
  140.6897   68.8067  226.7193 H   0  0  0  0  0  0  0  0  0  0  0  0
  140.7202   69.8668  229.3379 H   0  0  0  0  0  0  0  0  0  0  0  0
  142.1262   69.7249  228.2685 H   0  0  0  0  0  0  0  0  0  0  0  0
  140.3122   72.1023  228.7698 H   0  0  0  0  0  0  0  0  0  0  0  0
  142.0487   72.1061  228.6005 H   0  0  0  0  0  0  0  0  0  0  0  0
  140.5822   72.8271  226.4655 H   0  0  0  0  0  0  0  0  0  0  0  0
  141.8897   71.6975  226.1383 H   0  0  0  0  0  0  0  0  0  0  0  0
  141.3171   76.3068  219.3914 H   0  0  0  0  0  0  0  0  0  0  0  0
  142.0643   78.6635  219.4623 H   0  0  0  0  0  0  0  0  0  0  0  0
  142.5170   80.6273  220.6750 H   0  0  0  0  0  0  0  0  0  0  0  0
  142.5683   81.8006  222.8876 H   0  0  0  0  0  0  0  0  0  0  0  0
  141.8865   80.6246  224.9151 H   0  0  0  0  0  0  0  0  0  0  0  0
  141.1271   78.2650  224.8805 H   0  0  0  0  0  0  0  0  0  0  0  0
  1  2  2  0
  2  3  1  0
  3  4  1  0
  4  5  1  0
  5  6  2  0
  5  7  1  0
  7  8  1  0
  8  9  1  0
  9 10  1  0
 10 11  1  0
 11 12  1  0
 12 13  1  0
 13 14  1  0
 14 15  1  0
 15 16  1  0
 16 17  1  0
  2 18  1  0
 18 19  2  0
 19 20  1  0
 20 21  2  0
 21 22  1  0
 22 23  2  0
 23 24  1  0
 24 25  2  0
 25 26  1  0
 26 27  2  0
 12  7  1  0
 17 13  1  0
 27 18  1  0
 26 21  1  0
  3 28  1  0
  4 29  1  0
  4 30  1  0
  8 31  1  0
  8 32  1  0
  9 33  1  0
  9 34  1  0
 10 35  1  0
 10 36  1  0
 11 37  1  0
 11 38  1  0
 12 39  1  6
 13 40  1  0
 14 41  1  0
 14 42  1  0
 15 43  1  0
 15 44  1  0
 16 45  1  0
 16 46  1  0
 17 47  1  0
 17 48  1  0
 19 49  1  0
 20 50  1  0
 22 51  1  0
 23 52  1  0
 24 53  1  0
 25 54  1  0
M  END
>  <smiles>  (49) 
O=C(NCC(=O)N1CCCCC1C1CCCC1)c1ccc2ccccc2n1

>  <score_type>  (49) 
oracle

>  <origin>  (49) 
autodockgpu

>  <m_score__min__energy>  (49) 
-8.9100000000000001

>  <m_primary>  (49) 
energy

>  <rmsd>  (49) 
8.447547904988237

>  <m_score__min__rmsd>  (49) 
8.447547904988237

>  <meeko>  (49) 
{"free_energy": -8.69, "intermolecular_energy": -10.18, "internal_energy": -1.44, "cluster_size": 7, "cluster_id": 2, "rank_in_cluster": 4}

>  <energy>  (49) 
-7.51

>  <cluster_rmsd>  (49) 
0.0

>  <cluster>  (49) 
3

$$$$

     RDKit          3D

 54 57  0  0  0  0  0  0  0  0999 V2000
  139.9260   71.5120  221.2000 O   0  0  0  0  0  0  0  0  0  0  0  0
  139.7770   72.0500  222.3170 C   0  0  0  0  0  0  0  0  0  0  0  0
  139.4660   73.4420  222.3450 N   0  0  0  0  0  0  0  0  0  0  0  0
  139.3450   74.1300  221.0950 C   0  0  0  0  0  0  0  0  0  0  0  0
  139.4280   75.5840  221.1930 C   0  0  0  0  0  0  0  0  0  0  0  0
  138.4730   76.3450  221.5070 O   0  0  0  0  0  0  0  0  0  0  0  0
  140.6740   76.2170  220.9190 N   0  0  0  0  0  0  0  0  0  0  0  0
  141.9280   75.4470  220.8390 C   0  0  0  0  0  0  0  0  0  0  0  0
  142.5110   75.6350  219.4460 C   0  0  0  0  0  0  0  0  0  0  0  0
  142.6570   77.0920  219.1180 C   0  0  0  0  0  0  0  0  0  0  0  0
  141.3240   77.7580  219.2660 C   0  0  0  0  0  0  0  0  0  0  0  0
  140.8070   77.6450  220.6970 C   0  0  2  0  0  0  0  0  0  0  0  0
  141.7690   78.2820  221.6750 C   0  0  0  0  0  0  0  0  0  0  0  0
  141.8300   79.7690  221.4420 C   0  0  0  0  0  0  0  0  0  0  0  0
  141.6950   80.4420  222.7830 C   0  0  0  0  0  0  0  0  0  0  0  0
  141.8300   79.3620  223.8040 C   0  0  0  0  0  0  0  0  0  0  0  0
  141.2490   78.1480  223.0680 C   0  0  0  0  0  0  0  0  0  0  0  0
  139.9100   71.3100  223.5640 C   0  0  0  0  0  0  0  0  0  0  0  0
  139.5310   69.9970  223.5830 C   0  0  0  0  0  0  0  0  0  0  0  0
  139.6230   69.2220  224.7200 C   0  0  0  0  0  0  0  0  0  0  0  0
  140.1100   69.7930  225.8620 C   0  0  0  0  0  0  0  0  0  0  0  0
  140.1960   69.0020  226.9910 C   0  0  0  0  0  0  0  0  0  0  0  0
  140.6900   69.5950  228.1370 C   0  0  0  0  0  0  0  0  0  0  0  0
  141.0700   70.9110  228.1210 C   0  0  0  0  0  0  0  0  0  0  0  0
  140.9880   71.7080  226.9960 C   0  0  0  0  0  0  0  0  0  0  0  0
  140.4910   71.1180  225.8380 C   0  0  0  0  0  0  0  0  0  0  0  0
  140.3830   71.8470  224.6930 N   0  0  0  0  0  0  0  0  0  0  0  0
  139.3460   73.8730  223.2870 H   0  0  0  0  0  0  0  0  0  0  0  0
  140.1523   73.7838  220.4329 H   0  0  0  0  0  0  0  0  0  0  0  0
  138.3417   73.8997  220.7074 H   0  0  0  0  0  0  0  0  0  0  0  0
  142.6395   75.8139  221.5935 H   0  0  0  0  0  0  0  0  0  0  0  0
  141.7333   74.3813  221.0297 H   0  0  0  0  0  0  0  0  0  0  0  0
  143.4999   75.1552  219.4018 H   0  0  0  0  0  0  0  0  0  0  0  0
  141.8284   75.1772  218.7149 H   0  0  0  0  0  0  0  0  0  0  0  0
  143.3796   77.5549  219.8062 H   0  0  0  0  0  0  0  0  0  0  0  0
  143.0189   77.2074  218.0857 H   0  0  0  0  0  0  0  0  0  0  0  0
  141.4231   78.8215  219.0032 H   0  0  0  0  0  0  0  0  0  0  0  0
  140.6085   77.2582  218.5965 H   0  0  0  0  0  0  0  0  0  0  0  0
  139.8535   78.1727  220.8464 H   0  0  0  0  0  0  0  0  0  0  0  0
  142.7435   77.7903  221.5389 H   0  0  0  0  0  0  0  0  0  0  0  0
  142.7921   80.0381  220.9816 H   0  0  0  0  0  0  0  0  0  0  0  0
  141.0246   80.0889  220.7645 H   0  0  0  0  0  0  0  0  0  0  0  0
  142.4879   81.1930  222.9147 H   0  0  0  0  0  0  0  0  0  0  0  0
  140.7311   80.9638  222.8753 H   0  0  0  0  0  0  0  0  0  0  0  0
  142.8835   79.1980  224.0746 H   0  0  0  0  0  0  0  0  0  0  0  0
  141.3241   79.5865  224.7546 H   0  0  0  0  0  0  0  0  0  0  0  0
  141.5972   77.2105  223.5261 H   0  0  0  0  0  0  0  0  0  0  0  0
  140.1501   78.1176  223.1068 H   0  0  0  0  0  0  0  0  0  0  0  0
  139.1395   69.5433  222.6606 H   0  0  0  0  0  0  0  0  0  0  0  0
  139.3112   68.1672  224.7079 H   0  0  0  0  0  0  0  0  0  0  0  0
  139.8850   67.9469  226.9783 H   0  0  0  0  0  0  0  0  0  0  0  0
  140.7783   69.0093  229.0639 H   0  0  0  0  0  0  0  0  0  0  0  0
  141.4594   71.3545  229.0493 H   0  0  0  0  0  0  0  0  0  0  0  0
  141.3016   72.7622  227.0146 H   0  0  0  0  0  0  0  0  0  0  0  0
  1  2  2  0
  2  3  1  0
  3  4  1  0
  4  5  1  0
  5  6  2  0
  5  7  1  0
  7  8  1  0
  8  9  1  0
  9 10  1  0
 10 11  1  0
 11 12  1  0
 12 13  1  0
 13 14  1  0
 14 15  1  0
 15 16  1  0
 16 17  1  0
  2 18  1  0
 18 19  2  0
 19 20  1  0
 20 21  2  0
 21 22  1  0
 22 23  2  0
 23 24  1  0
 24 25  2  0
 25 26  1  0
 26 27  2  0
 12  7  1  0
 17 13  1  0
 27 18  1  0
 26 21  1  0
  3 28  1  0
  4 29  1  0
  4 30  1  0
  8 31  1  0
  8 32  1  0
  9 33  1  0
  9 34  1  0
 10 35  1  0
 10 36  1  0
 11 37  1  0
 11 38  1  0
 12 39  1  6
 13 40  1  0
 14 41  1  0
 14 42  1  0
 15 43  1  0
 15 44  1  0
 16 45  1  0
 16 46  1  0
 17 47  1  0
 17 48  1  0
 19 49  1  0
 20 50  1  0
 22 51  1  0
 23 52  1  0
 24 53  1  0
 25 54  1  0
M  END
>  <smiles>  (50) 
O=C(NCC(=O)N1CCCCC1C1CCCC1)c1ccc2ccccc2n1

>  <score_type>  (50) 
oracle

>  <origin>  (50) 
autodockgpu

>  <m_score__min__energy>  (50) 
-8.9100000000000001

>  <m_primary>  (50) 
energy

>  <rmsd>  (50) 
1.9741397158866951

>  <m_score__min__rmsd>  (50) 
1.9741397158866951

>  <meeko>  (50) 
{"free_energy": -8.5, "intermolecular_energy": -9.99, "internal_energy": -1.51, "cluster_size": 41, "cluster_id": 1, "rank_in_cluster": 27}

>  <energy>  (50) 
-7.42

>  <cluster_rmsd>  (50) 
0.0

>  <cluster>  (50) 
4

$$$$

     RDKit          3D

 54 57  0  0  0  0  0  0  0  0999 V2000
  141.1250   73.6330  220.3440 O   0  0  0  0  0  0  0  0  0  0  0  0
  140.6330   74.4030  221.2360 C   0  0  0  0  0  0  0  0  0  0  0  0
  139.6960   73.9220  222.1990 N   0  0  0  0  0  0  0  0  0  0  0  0
  139.2730   72.5350  222.1900 C   0  0  0  0  0  0  0  0  0  0  0  0
  139.7140   71.8140  223.3940 C   0  0  0  0  0  0  0  0  0  0  0  0
  140.7160   72.2540  224.0140 O   0  0  0  0  0  0  0  0  0  0  0  0
  138.9850   70.6620  223.7890 N   0  0  0  0  0  0  0  0  0  0  0  0
  138.1800   69.8760  222.8610 C   0  0  0  0  0  0  0  0  0  0  0  0
  136.7710   69.9720  223.3720 C   0  0  0  0  0  0  0  0  0  0  0  0
  136.7160   69.2850  224.7190 C   0  0  0  0  0  0  0  0  0  0  0  0
  138.0740   68.9790  225.2780 C   0  0  0  0  0  0  0  0  0  0  0  0
  138.9890   70.1750  225.1760 C   0  0  1  0  0  0  0  0  0  0  0  0
  140.3550   69.8720  225.6690 C   0  0  0  0  0  0  0  0  0  0  0  0
  140.5170   68.5220  226.2790 C   0  0  0  0  0  0  0  0  0  0  0  0
  140.9440   68.7480  227.7330 C   0  0  0  0  0  0  0  0  0  0  0  0
  140.7440   70.2000  228.0320 C   0  0  0  0  0  0  0  0  0  0  0  0
  140.7430   70.8940  226.6910 C   0  0  0  0  0  0  0  0  0  0  0  0
  141.0390   75.8040  221.2700 C   0  0  0  0  0  0  0  0  0  0  0  0
  141.7650   76.3460  220.2360 C   0  0  0  0  0  0  0  0  0  0  0  0
  142.1580   77.6880  220.2620 C   0  0  0  0  0  0  0  0  0  0  0  0
  141.7970   78.4670  221.3620 C   0  0  0  0  0  0  0  0  0  0  0  0
  142.1430   79.7970  221.4670 C   0  0  0  0  0  0  0  0  0  0  0  0
  141.7820   80.5610  222.5580 C   0  0  0  0  0  0  0  0  0  0  0  0
  141.0500   79.9820  223.5810 C   0  0  0  0  0  0  0  0  0  0  0  0
  140.7040   78.6520  223.4740 C   0  0  0  0  0  0  0  0  0  0  0  0
  141.0650   77.8870  222.3850 C   0  0  0  0  0  0  0  0  0  0  0  0
  140.7040   76.5870  222.3240 N   0  0  0  0  0  0  0  0  0  0  0  0
  139.3380   74.6240  222.9030 H   0  0  0  0  0  0  0  0  0  0  0  0
  138.1748   72.4995  222.1376 H   0  0  0  0  0  0  0  0  0  0  0  0
  139.7303   72.0471  221.3166 H   0  0  0  0  0  0  0  0  0  0  0  0
  138.2496   70.2912  221.8447 H   0  0  0  0  0  0  0  0  0  0  0  0
  138.5237   68.8326  222.8049 H   0  0  0  0  0  0  0  0  0  0  0  0
  136.4837   71.0284  223.4794 H   0  0  0  0  0  0  0  0  0  0  0  0
  136.0751   69.4915  222.6685 H   0  0  0  0  0  0  0  0  0  0  0  0
  136.1860   69.9409  225.4254 H   0  0  0  0  0  0  0  0  0  0  0  0
  136.1952   68.3265  224.5779 H   0  0  0  0  0  0  0  0  0  0  0  0
  137.9709   68.6954  226.3358 H   0  0  0  0  0  0  0  0  0  0  0  0
  138.5123   68.1548  224.6961 H   0  0  0  0  0  0  0  0  0  0  0  0
  138.6137   70.9757  225.8302 H   0  0  0  0  0  0  0  0  0  0  0  0
  141.0020   69.8939  224.7796 H   0  0  0  0  0  0  0  0  0  0  0  0
  139.5646   67.9727  226.2440 H   0  0  0  0  0  0  0  0  0  0  0  0
  141.2643   67.9270  225.7336 H   0  0  0  0  0  0  0  0  0  0  0  0
  140.3264   68.1359  228.4067 H   0  0  0  0  0  0  0  0  0  0  0  0
  141.9954   68.4601  227.8805 H   0  0  0  0  0  0  0  0  0  0  0  0
  139.7847   70.3575  228.5466 H   0  0  0  0  0  0  0  0  0  0  0  0
  141.5314   70.5919  228.6926 H   0  0  0  0  0  0  0  0  0  0  0  0
  140.0165   71.7200  226.6938 H   0  0  0  0  0  0  0  0  0  0  0  0
  141.7337   71.3162  226.4671 H   0  0  0  0  0  0  0  0  0  0  0  0
  142.0403   75.7161  219.3772 H   0  0  0  0  0  0  0  0  0  0  0  0
  142.7388   78.1198  219.4336 H   0  0  0  0  0  0  0  0  0  0  0  0
  142.7239   80.2631  220.6575 H   0  0  0  0  0  0  0  0  0  0  0  0
  142.0730   81.6203  222.6145 H   0  0  0  0  0  0  0  0  0  0  0  0
  140.7509   80.5711  224.4605 H   0  0  0  0  0  0  0  0  0  0  0  0
  140.1216   78.1863  224.2827 H   0  0  0  0  0  0  0  0  0  0  0  0
  1  2  2  0
  2  3  1  0
  3  4  1  0
  4  5  1  0
  5  6  2  0
  5  7  1  0
  7  8  1  0
  8  9  1  0
  9 10  1  0
 10 11  1  0
 11 12  1  0
 12 13  1  0
 13 14  1  0
 14 15  1  0
 15 16  1  0
 16 17  1  0
  2 18  1  0
 18 19  2  0
 19 20  1  0
 20 21  2  0
 21 22  1  0
 22 23  2  0
 23 24  1  0
 24 25  2  0
 25 26  1  0
 26 27  2  0
 12  7  1  0
 17 13  1  0
 27 18  1  0
 26 21  1  0
  3 28  1  0
  4 29  1  0
  4 30  1  0
  8 31  1  0
  8 32  1  0
  9 33  1  0
  9 34  1  0
 10 35  1  0
 10 36  1  0
 11 37  1  0
 11 38  1  0
 12 39  1  1
 13 40  1  0
 14 41  1  0
 14 42  1  0
 15 43  1  0
 15 44  1  0
 16 45  1  0
 16 46  1  0
 17 47  1  0
 17 48  1  0
 19 49  1  0
 20 50  1  0
 22 51  1  0
 23 52  1  0
 24 53  1  0
 25 54  1  0
M  END
>  <smiles>  (51) 
O=C(NCC(=O)N1CCCCC1C1CCCC1)c1ccc2ccccc2n1

>  <score_type>  (51) 
oracle

>  <origin>  (51) 
autodockgpu

>  <m_score__min__energy>  (51) 
-9.0199999999999996

>  <m_primary>  (51) 
energy

>  <rmsd>  (51) 
8.456004386712387

>  <m_score__min__rmsd>  (51) 
8.456004386712387

>  <meeko>  (51) 
{"free_energy": -8.28, "intermolecular_energy": -9.77, "internal_energy": -1.59, "cluster_size": 8, "cluster_id": 2, "rank_in_cluster": 7}

>  <energy>  (51) 
-9.02

>  <cluster_rmsd>  (51) 
0.0

>  <cluster>  (51) 
1

$$$$

     RDKit          3D

 54 57  0  0  0  0  0  0  0  0999 V2000
  140.5340   71.4230  221.3160 O   0  0  0  0  0  0  0  0  0  0  0  0
  140.1750   71.9850  222.4050 C   0  0  0  0  0  0  0  0  0  0  0  0
  139.8750   73.3800  222.4570 N   0  0  0  0  0  0  0  0  0  0  0  0
  139.9720   74.2020  221.2660 C   0  0  0  0  0  0  0  0  0  0  0  0
  140.0910   75.6310  221.5890 C   0  0  0  0  0  0  0  0  0  0  0  0
  139.7000   76.0180  222.7210 O   0  0  0  0  0  0  0  0  0  0  0  0
  140.6390   76.4960  220.6060 N   0  0  0  0  0  0  0  0  0  0  0  0
  140.3910   76.3320  219.1790 C   0  0  0  0  0  0  0  0  0  0  0  0
  141.7370   76.0750  218.5640 C   0  0  0  0  0  0  0  0  0  0  0  0
  142.5760   77.3210  218.7410 C   0  0  0  0  0  0  0  0  0  0  0  0
  141.9680   78.3080  219.6940 C   0  0  0  0  0  0  0  0  0  0  0  0
  141.5050   77.6310  220.9610 C   0  0  1  0  0  0  0  0  0  0  0  0
  140.8460   78.5810  221.8900 C   0  0  0  0  0  0  0  0  0  0  0  0
  140.9140   80.0110  221.4760 C   0  0  0  0  0  0  0  0  0  0  0  0
  141.6720   80.7500  222.5830 C   0  0  0  0  0  0  0  0  0  0  0  0
  142.2830   79.7120  223.4700 C   0  0  0  0  0  0  0  0  0  0  0  0
  141.4760   78.4580  223.2420 C   0  0  0  0  0  0  0  0  0  0  0  0
  140.0690   71.1840  223.6200 C   0  0  0  0  0  0  0  0  0  0  0  0
  139.5720   69.9030  223.5710 C   0  0  0  0  0  0  0  0  0  0  0  0
  139.4680   69.1310  224.7320 C   0  0  0  0  0  0  0  0  0  0  0  0
  139.8800   69.6870  225.9430 C   0  0  0  0  0  0  0  0  0  0  0  0
  139.8110   68.9940  227.1320 C   0  0  0  0  0  0  0  0  0  0  0  0
  140.2200   69.5530  228.3270 C   0  0  0  0  0  0  0  0  0  0  0  0
  140.7160   70.8450  228.3390 C   0  0  0  0  0  0  0  0  0  0  0  0
  140.7840   71.5370  227.1480 C   0  0  0  0  0  0  0  0  0  0  0  0
  140.3750   70.9800  225.9540 C   0  0  0  0  0  0  0  0  0  0  0  0
  140.4610   71.6970  224.8120 N   0  0  0  0  0  0  0  0  0  0  0  0
  139.5860   73.7670  223.3970 H   0  0  0  0  0  0  0  0  0  0  0  0
  140.8585   73.8928  220.6928 H   0  0  0  0  0  0  0  0  0  0  0  0
  139.0505   74.0622  220.6818 H   0  0  0  0  0  0  0  0  0  0  0  0
  139.7183   75.4800  219.0013 H   0  0  0  0  0  0  0  0  0  0  0  0
  139.9068   77.2191  218.7446 H   0  0  0  0  0  0  0  0  0  0  0  0
  142.2209   75.2244  219.0663 H   0  0  0  0  0  0  0  0  0  0  0  0
  141.6300   75.8343  217.4960 H   0  0  0  0  0  0  0  0  0  0  0  0
  143.5640   77.0265  219.1246 H   0  0  0  0  0  0  0  0  0  0  0  0
  142.6459   77.8123  217.7593 H   0  0  0  0  0  0  0  0  0  0  0  0
  142.7192   79.0702  219.9486 H   0  0  0  0  0  0  0  0  0  0  0  0
  141.0960   78.7694  219.2075 H   0  0  0  0  0  0  0  0  0  0  0  0
  142.3794   77.2487  221.5081 H   0  0  0  0  0  0  0  0  0  0  0  0
  139.7814   78.3042  221.8909 H   0  0  0  0  0  0  0  0  0  0  0  0
  141.4508   80.1046  220.5204 H   0  0  0  0  0  0  0  0  0  0  0  0
  139.9076   80.4319  221.3344 H   0  0  0  0  0  0  0  0  0  0  0  0
  142.4588   81.3812  222.1442 H   0  0  0  0  0  0  0  0  0  0  0  0
  140.9930   81.4006  223.1537 H   0  0  0  0  0  0  0  0  0  0  0  0
  143.3358   79.5459  223.1980 H   0  0  0  0  0  0  0  0  0  0  0  0
  142.2684   80.0192  224.5261 H   0  0  0  0  0  0  0  0  0  0  0  0
  142.1322   77.5758  223.2738 H   0  0  0  0  0  0  0  0  0  0  0  0
  140.7097   78.3379  224.0220 H   0  0  0  0  0  0  0  0  0  0  0  0
  139.2524   69.4805  222.6070 H   0  0  0  0  0  0  0  0  0  0  0  0
  139.0696   68.1065  224.6912 H   0  0  0  0  0  0  0  0  0  0  0  0
  139.4190   67.9662  227.1294 H   0  0  0  0  0  0  0  0  0  0  0  0
  140.1521   68.9762  229.2612 H   0  0  0  0  0  0  0  0  0  0  0  0
  141.0489   71.3101  229.2786 H   0  0  0  0  0  0  0  0  0  0  0  0
  141.1764   72.5646  227.1502 H   0  0  0  0  0  0  0  0  0  0  0  0
  1  2  2  0
  2  3  1  0
  3  4  1  0
  4  5  1  0
  5  6  2  0
  5  7  1  0
  7  8  1  0
  8  9  1  0
  9 10  1  0
 10 11  1  0
 11 12  1  0
 12 13  1  0
 13 14  1  0
 14 15  1  0
 15 16  1  0
 16 17  1  0
  2 18  1  0
 18 19  2  0
 19 20  1  0
 20 21  2  0
 21 22  1  0
 22 23  2  0
 23 24  1  0
 24 25  2  0
 25 26  1  0
 26 27  2  0
 12  7  1  0
 17 13  1  0
 27 18  1  0
 26 21  1  0
  3 28  1  0
  4 29  1  0
  4 30  1  0
  8 31  1  0
  8 32  1  0
  9 33  1  0
  9 34  1  0
 10 35  1  0
 10 36  1  0
 11 37  1  0
 11 38  1  0
 12 39  1  1
 13 40  1  0
 14 41  1  0
 14 42  1  0
 15 43  1  0
 15 44  1  0
 16 45  1  0
 16 46  1  0
 17 47  1  0
 17 48  1  0
 19 49  1  0
 20 50  1  0
 22 51  1  0
 23 52  1  0
 24 53  1  0
 25 54  1  0
M  END
>  <smiles>  (52) 
O=C(NCC(=O)N1CCCCC1C1CCCC1)c1ccc2ccccc2n1

>  <score_type>  (52) 
oracle

>  <origin>  (52) 
autodockgpu

>  <m_score__min__energy>  (52) 
-9.0199999999999996

>  <m_primary>  (52) 
energy

>  <rmsd>  (52) 
1.66866895361013

>  <m_score__min__rmsd>  (52) 
1.66866895361013

>  <meeko>  (52) 
{"free_energy": -8.62, "intermolecular_energy": -10.11, "internal_energy": -1.79, "cluster_size": 33, "cluster_id": 1, "rank_in_cluster": 25}

>  <energy>  (52) 
-9.02

>  <cluster_rmsd>  (52) 
0.08

>  <cluster>  (52) 
1

$$$$

     RDKit          3D

 54 57  0  0  0  0  0  0  0  0999 V2000
  141.4000   72.1270  221.4850 O   0  0  0  0  0  0  0  0  0  0  0  0
  140.5780   72.4900  222.3940 C   0  0  0  0  0  0  0  0  0  0  0  0
  139.9270   73.7580  222.3430 N   0  0  0  0  0  0  0  0  0  0  0  0
  140.1830   74.6770  221.2500 C   0  0  0  0  0  0  0  0  0  0  0  0
  139.7870   76.0540  221.5810 C   0  0  0  0  0  0  0  0  0  0  0  0
  138.9700   76.2260  222.5230 O   0  0  0  0  0  0  0  0  0  0  0  0
  140.3450   77.1130  220.8190 N   0  0  0  0  0  0  0  0  0  0  0  0
  139.9950   77.3570  219.4240 C   0  0  0  0  0  0  0  0  0  0  0  0
  141.2730   77.1850  218.6530 C   0  0  0  0  0  0  0  0  0  0  0  0
  142.2260   78.2780  219.0830 C   0  0  0  0  0  0  0  0  0  0  0  0
  141.7670   79.0100  220.3090 C   0  0  0  0  0  0  0  0  0  0  0  0
  141.3270   78.0490  221.3870 C   0  0  1  0  0  0  0  0  0  0  0  0
  140.8120   78.7560  222.5850 C   0  0  0  0  0  0  0  0  0  0  0  0
  140.4240   80.1770  222.3560 C   0  0  0  0  0  0  0  0  0  0  0  0
  141.3170   81.0250  223.2670 C   0  0  0  0  0  0  0  0  0  0  0  0
  142.3960   80.1290  223.7870 C   0  0  0  0  0  0  0  0  0  0  0  0
  141.8570   78.7260  223.6550 C   0  0  0  0  0  0  0  0  0  0  0  0
  140.3020   71.5870  223.5060 C   0  0  0  0  0  0  0  0  0  0  0  0
  139.6360   70.4020  223.2950 C   0  0  0  0  0  0  0  0  0  0  0  0
  139.3670   69.5330  224.3570 C   0  0  0  0  0  0  0  0  0  0  0  0
  139.7890   69.8930  225.6370 C   0  0  0  0  0  0  0  0  0  0  0  0
  139.5640   69.0940  226.7370 C   0  0  0  0  0  0  0  0  0  0  0  0
  139.9850   69.4570  228.0010 C   0  0  0  0  0  0  0  0  0  0  0  0
  140.6530   70.6580  228.1760 C   0  0  0  0  0  0  0  0  0  0  0  0
  140.8770   71.4550  227.0740 C   0  0  0  0  0  0  0  0  0  0  0  0
  140.4560   71.0930  225.8110 C   0  0  0  0  0  0  0  0  0  0  0  0
  140.6980   71.9080  224.7610 N   0  0  0  0  0  0  0  0  0  0  0  0
  139.2630   73.9820  223.1340 H   0  0  0  0  0  0  0  0  0  0  0  0
  141.2584   74.6629  221.0192 H   0  0  0  0  0  0  0  0  0  0  0  0
  139.5852   74.3509  220.3861 H   0  0  0  0  0  0  0  0  0  0  0  0
  139.2407   76.6319  219.0845 H   0  0  0  0  0  0  0  0  0  0  0  0
  139.5639   78.3589  219.2808 H   0  0  0  0  0  0  0  0  0  0  0  0
  141.7113   76.1999  218.8709 H   0  0  0  0  0  0  0  0  0  0  0  0
  141.0798   77.2484  217.5720 H   0  0  0  0  0  0  0  0  0  0  0  0
  143.2065   77.8253  219.2921 H   0  0  0  0  0  0  0  0  0  0  0  0
  142.2767   79.0101  218.2636 H   0  0  0  0  0  0  0  0  0  0  0  0
  142.5960   79.6234  220.6919 H   0  0  0  0  0  0  0  0  0  0  0  0
  140.9097   79.6428  220.0359 H   0  0  0  0  0  0  0  0  0  0  0  0
  142.1972   77.4755  221.7390 H   0  0  0  0  0  0  0  0  0  0  0  0
  139.8940   78.2224  222.8725 H   0  0  0  0  0  0  0  0  0  0  0  0
  140.5871   80.4503  221.3031 H   0  0  0  0  0  0  0  0  0  0  0  0
  139.3594   80.3393  222.5803 H   0  0  0  0  0  0  0  0  0  0  0  0
  141.7588   81.8545  222.6955 H   0  0  0  0  0  0  0  0  0  0  0  0
  140.7340   81.4552  224.0947 H   0  0  0  0  0  0  0  0  0  0  0  0
  143.3128   80.2458  223.1905 H   0  0  0  0  0  0  0  0  0  0  0  0
  142.6572   80.3684  224.8284 H   0  0  0  0  0  0  0  0  0  0  0  0
  142.6659   78.0358  223.3734 H   0  0  0  0  0  0  0  0  0  0  0  0
  141.4320   78.3782  224.6081 H   0  0  0  0  0  0  0  0  0  0  0  0
  139.3111   70.1348  222.2786 H   0  0  0  0  0  0  0  0  0  0  0  0
  138.8341   68.5859  224.1868 H   0  0  0  0  0  0  0  0  0  0  0  0
  139.0337   68.1395  226.6043 H   0  0  0  0  0  0  0  0  0  0  0  0
  139.7918   68.7988  228.8609 H   0  0  0  0  0  0  0  0  0  0  0  0
  140.9974   70.9690  229.1733 H   0  0  0  0  0  0  0  0  0  0  0  0
  141.4079   72.4094  227.2056 H   0  0  0  0  0  0  0  0  0  0  0  0
  1  2  2  0
  2  3  1  0
  3  4  1  0
  4  5  1  0
  5  6  2  0
  5  7  1  0
  7  8  1  0
  8  9  1  0
  9 10  1  0
 10 11  1  0
 11 12  1  0
 12 13  1  0
 13 14  1  0
 14 15  1  0
 15 16  1  0
 16 17  1  0
  2 18  1  0
 18 19  2  0
 19 20  1  0
 20 21  2  0
 21 22  1  0
 22 23  2  0
 23 24  1  0
 24 25  2  0
 25 26  1  0
 26 27  2  0
 12  7  1  0
 17 13  1  0
 27 18  1  0
 26 21  1  0
  3 28  1  0
  4 29  1  0
  4 30  1  0
  8 31  1  0
  8 32  1  0
  9 33  1  0
  9 34  1  0
 10 35  1  0
 10 36  1  0
 11 37  1  0
 11 38  1  0
 12 39  1  1
 13 40  1  0
 14 41  1  0
 14 42  1  0
 15 43  1  0
 15 44  1  0
 16 45  1  0
 16 46  1  0
 17 47  1  0
 17 48  1  0
 19 49  1  0
 20 50  1  0
 22 51  1  0
 23 52  1  0
 24 53  1  0
 25 54  1  0
M  END
>  <smiles>  (53) 
O=C(NCC(=O)N1CCCCC1C1CCCC1)c1ccc2ccccc2n1

>  <score_type>  (53) 
oracle

>  <origin>  (53) 
autodockgpu

>  <m_score__min__energy>  (53) 
-9.0199999999999996

>  <m_primary>  (53) 
energy

>  <rmsd>  (53) 
2.104164171588169

>  <m_score__min__rmsd>  (53) 
2.104164171588169

>  <meeko>  (53) 
{"free_energy": -8.69, "intermolecular_energy": -10.18, "internal_energy": -1.72, "cluster_size": 33, "cluster_id": 1, "rank_in_cluster": 21}

>  <energy>  (53) 
-8.99

>  <cluster_rmsd>  (53) 
0.14

>  <cluster>  (53) 
1

$$$$

     RDKit          3D

 54 57  0  0  0  0  0  0  0  0999 V2000
  141.3200   72.1910  221.7050 O   0  0  0  0  0  0  0  0  0  0  0  0
  140.3770   72.4450  222.5290 C   0  0  0  0  0  0  0  0  0  0  0  0
  139.5100   73.5630  222.3440 N   0  0  0  0  0  0  0  0  0  0  0  0
  139.6780   74.4480  221.2070 C   0  0  0  0  0  0  0  0  0  0  0  0
  140.3520   75.7020  221.5760 C   0  0  0  0  0  0  0  0  0  0  0  0
  141.5600   75.8420  221.2540 O   0  0  0  0  0  0  0  0  0  0  0  0
  139.6040   76.6830  222.2760 N   0  0  0  0  0  0  0  0  0  0  0  0
  138.3910   76.3720  223.0240 C   0  0  0  0  0  0  0  0  0  0  0  0
  137.2950   77.1530  222.3560 C   0  0  0  0  0  0  0  0  0  0  0  0
  137.5870   78.6240  222.5500 C   0  0  0  0  0  0  0  0  0  0  0  0
  138.9700   78.8860  223.0680 C   0  0  0  0  0  0  0  0  0  0  0  0
  140.0010   78.0990  222.2960 C   0  0  1  0  0  0  0  0  0  0  0  0
  141.3690   78.2980  222.8330 C   0  0  0  0  0  0  0  0  0  0  0  0
  141.4350   79.0580  224.1140 C   0  0  0  0  0  0  0  0  0  0  0  0
  142.2620   80.3160  223.8330 C   0  0  0  0  0  0  0  0  0  0  0  0
  142.4170   80.4220  222.3490 C   0  0  0  0  0  0  0  0  0  0  0  0
  142.1910   79.0280  221.8180 C   0  0  0  0  0  0  0  0  0  0  0  0
  140.1850   71.5730  223.6830 C   0  0  0  0  0  0  0  0  0  0  0  0
  139.4560   70.4130  223.5680 C   0  0  0  0  0  0  0  0  0  0  0  0
  139.2670   69.5730  224.6700 C   0  0  0  0  0  0  0  0  0  0  0  0
  139.8350   69.9380  225.8910 C   0  0  0  0  0  0  0  0  0  0  0  0
  139.6960   69.1670  227.0260 C   0  0  0  0  0  0  0  0  0  0  0  0
  140.2610   69.5350  228.2310 C   0  0  0  0  0  0  0  0  0  0  0  0
  140.9890   70.7100  228.3100 C   0  0  0  0  0  0  0  0  0  0  0  0
  141.1260   71.4790  227.1740 C   0  0  0  0  0  0  0  0  0  0  0  0
  140.5620   71.1130  225.9700 C   0  0  0  0  0  0  0  0  0  0  0  0
  140.7230   71.8990  224.8830 N   0  0  0  0  0  0  0  0  0  0  0  0
  138.7560   73.7030  223.0710 H   0  0  0  0  0  0  0  0  0  0  0  0
  140.2796   73.9336  220.4431 H   0  0  0  0  0  0  0  0  0  0  0  0
  138.6782   74.7010  220.8244 H   0  0  0  0  0  0  0  0  0  0  0  0
  138.1773   75.2939  222.9785 H   0  0  0  0  0  0  0  0  0  0  0  0
  138.4891   76.6351  224.0876 H   0  0  0  0  0  0  0  0  0  0  0  0
  137.2682   76.9158  221.2822 H   0  0  0  0  0  0  0  0  0  0  0  0
  136.3194   76.8952  222.7940 H   0  0  0  0  0  0  0  0  0  0  0  0
  137.4732   79.1341  221.5821 H   0  0  0  0  0  0  0  0  0  0  0  0
  136.8782   79.0028  223.3011 H   0  0  0  0  0  0  0  0  0  0  0  0
  139.1918   79.9591  222.9715 H   0  0  0  0  0  0  0  0  0  0  0  0
  139.0117   78.5741  224.1220 H   0  0  0  0  0  0  0  0  0  0  0  0
  140.0378   78.4688  221.2607 H   0  0  0  0  0  0  0  0  0  0  0  0
  141.7531   77.2892  223.0448 H   0  0  0  0  0  0  0  0  0  0  0  0
  140.4228   79.3348  224.4439 H   0  0  0  0  0  0  0  0  0  0  0  0
  141.8908   78.4530  224.9117 H   0  0  0  0  0  0  0  0  0  0  0  0
  141.7415   81.2037  224.2218 H   0  0  0  0  0  0  0  0  0  0  0  0
  143.2442   80.2551  224.3245 H   0  0  0  0  0  0  0  0  0  0  0  0
  141.6722   81.1168  221.9336 H   0  0  0  0  0  0  0  0  0  0  0  0
  143.4081   80.8088  222.0694 H   0  0  0  0  0  0  0  0  0  0  0  0
  141.6542   79.0721  220.8589 H   0  0  0  0  0  0  0  0  0  0  0  0
  143.1485   78.5143  221.6471 H   0  0  0  0  0  0  0  0  0  0  0  0
  139.0158   70.1422  222.5969 H   0  0  0  0  0  0  0  0  0  0  0  0
  138.6835   68.6452  224.5763 H   0  0  0  0  0  0  0  0  0  0  0  0
  139.1187   68.2324  226.9698 H   0  0  0  0  0  0  0  0  0  0  0  0
  140.1338   68.9002  229.1203 H   0  0  0  0  0  0  0  0  0  0  0  0
  141.4484   71.0233  229.2591 H   0  0  0  0  0  0  0  0  0  0  0  0
  141.7032   72.4137  227.2297 H   0  0  0  0  0  0  0  0  0  0  0  0
  1  2  2  0
  2  3  1  0
  3  4  1  0
  4  5  1  0
  5  6  2  0
  5  7  1  0
  7  8  1  0
  8  9  1  0
  9 10  1  0
 10 11  1  0
 11 12  1  0
 12 13  1  0
 13 14  1  0
 14 15  1  0
 15 16  1  0
 16 17  1  0
  2 18  1  0
 18 19  2  0
 19 20  1  0
 20 21  2  0
 21 22  1  0
 22 23  2  0
 23 24  1  0
 24 25  2  0
 25 26  1  0
 26 27  2  0
 12  7  1  0
 17 13  1  0
 27 18  1  0
 26 21  1  0
  3 28  1  0
  4 29  1  0
  4 30  1  0
  8 31  1  0
  8 32  1  0
  9 33  1  0
  9 34  1  0
 10 35  1  0
 10 36  1  0
 11 37  1  0
 11 38  1  0
 12 39  1  6
 13 40  1  0
 14 41  1  0
 14 42  1  0
 15 43  1  0
 15 44  1  0
 16 45  1  0
 16 46  1  0
 17 47  1  0
 17 48  1  0
 19 49  1  0
 20 50  1  0
 22 51  1  0
 23 52  1  0
 24 53  1  0
 25 54  1  0
M  END
>  <smiles>  (54) 
O=C(NCC(=O)N1CCCCC1C1CCCC1)c1ccc2ccccc2n1

>  <score_type>  (54) 
oracle

>  <origin>  (54) 
autodockgpu

>  <m_score__min__energy>  (54) 
-9.0199999999999996

>  <m_primary>  (54) 
energy

>  <rmsd>  (54) 
3.1868253391946824

>  <m_score__min__rmsd>  (54) 
3.1868253391946824

>  <meeko>  (54) 
{"free_energy": -9.02, "intermolecular_energy": -10.51, "internal_energy": -1.32, "cluster_size": 33, "cluster_id": 1, "rank_in_cluster": 2}

>  <energy>  (54) 
-8.99

>  <cluster_rmsd>  (54) 
0.16

>  <cluster>  (54) 
1

$$$$

     RDKit          3D

 54 57  0  0  0  0  0  0  0  0999 V2000
  140.7900   73.8740  220.2690 O   0  0  0  0  0  0  0  0  0  0  0  0
  140.4310   74.6220  221.2410 C   0  0  0  0  0  0  0  0  0  0  0  0
  139.5850   74.1330  222.2810 N   0  0  0  0  0  0  0  0  0  0  0  0
  139.1050   72.7640  222.2620 C   0  0  0  0  0  0  0  0  0  0  0  0
  139.8750   71.8960  223.1650 C   0  0  0  0  0  0  0  0  0  0  0  0
  141.0620   72.2220  223.4320 O   0  0  0  0  0  0  0  0  0  0  0  0
  139.2400   70.7380  223.6840 N   0  0  0  0  0  0  0  0  0  0  0  0
  138.5830   69.7480  222.8400 C   0  0  0  0  0  0  0  0  0  0  0  0
  137.1390   69.7600  223.2540 C   0  0  0  0  0  0  0  0  0  0  0  0
  137.0610   69.2660  224.6820 C   0  0  0  0  0  0  0  0  0  0  0  0
  138.4000   69.1910  225.3520 C   0  0  0  0  0  0  0  0  0  0  0  0
  139.1970   70.4530  225.1260 C   0  0  1  0  0  0  0  0  0  0  0  0
  140.5500   70.3720  225.7310 C   0  0  0  0  0  0  0  0  0  0  0  0
  140.7510   69.2280  226.6650 C   0  0  0  0  0  0  0  0  0  0  0  0
  141.0870   69.8340  228.0310 C   0  0  0  0  0  0  0  0  0  0  0  0
  140.7930   71.2990  227.9500 C   0  0  0  0  0  0  0  0  0  0  0  0
  140.8250   71.6380  226.4790 C   0  0  0  0  0  0  0  0  0  0  0  0
  140.8960   76.0040  221.2870 C   0  0  0  0  0  0  0  0  0  0  0  0
  141.4390   76.5960  220.1710 C   0  0  0  0  0  0  0  0  0  0  0  0
  141.8880   77.9190  220.2080 C   0  0  0  0  0  0  0  0  0  0  0  0
  141.7720   78.6290  221.4040 C   0  0  0  0  0  0  0  0  0  0  0  0
  142.1900   79.9370  221.5260 C   0  0  0  0  0  0  0  0  0  0  0  0
  142.0720   80.6320  222.7130 C   0  0  0  0  0  0  0  0  0  0  0  0
  141.5210   80.0050  223.8170 C   0  0  0  0  0  0  0  0  0  0  0  0
  141.1040   78.6960  223.6930 C   0  0  0  0  0  0  0  0  0  0  0  0
  141.2210   78.0010  222.5080 C   0  0  0  0  0  0  0  0  0  0  0  0
  140.7980   76.7200  222.4330 N   0  0  0  0  0  0  0  0  0  0  0  0
  139.3340   74.8150  223.0480 H   0  0  0  0  0  0  0  0  0  0  0  0
  138.0501   72.7535  222.5737 H   0  0  0  0  0  0  0  0  0  0  0  0
  139.2223   72.3778  221.2387 H   0  0  0  0  0  0  0  0  0  0  0  0
  138.6807   70.0220  221.7792 H   0  0  0  0  0  0  0  0  0  0  0  0
  139.0320   68.7506  222.9568 H   0  0  0  0  0  0  0  0  0  0  0  0
  136.7403   70.7832  223.1901 H   0  0  0  0  0  0  0  0  0  0  0  0
  136.5449   69.1133  222.5916 H   0  0  0  0  0  0  0  0  0  0  0  0
  136.4205   69.9523  225.2554 H   0  0  0  0  0  0  0  0  0  0  0  0
  136.6503   68.2459  224.6543 H   0  0  0  0  0  0  0  0  0  0  0  0
  138.2526   69.0488  226.4328 H   0  0  0  0  0  0  0  0  0  0  0  0
  138.9573   68.3461  224.9212 H   0  0  0  0  0  0  0  0  0  0  0  0
  138.7001   71.2917  225.6356 H   0  0  0  0  0  0  0  0  0  0  0  0
  141.2427   70.2162  224.8908 H   0  0  0  0  0  0  0  0  0  0  0  0
  139.8325   68.6265  226.7319 H   0  0  0  0  0  0  0  0  0  0  0  0
  141.5569   68.5662  226.3149 H   0  0  0  0  0  0  0  0  0  0  0  0
  140.4685   69.3682  228.8123 H   0  0  0  0  0  0  0  0  0  0  0  0
  142.1431   69.6613  228.2855 H   0  0  0  0  0  0  0  0  0  0  0  0
  139.8008   71.5156  228.3726 H   0  0  0  0  0  0  0  0  0  0  0  0
  141.5220   71.8929  228.5208 H   0  0  0  0  0  0  0  0  0  0  0  0
  140.0545   72.3882  226.2476 H   0  0  0  0  0  0  0  0  0  0  0  0
  141.8014   72.0572  226.1945 H   0  0  0  0  0  0  0  0  0  0  0  0
  141.5211   76.0208  219.2370 H   0  0  0  0  0  0  0  0  0  0  0  0
  142.3231   78.3902  219.3144 H   0  0  0  0  0  0  0  0  0  0  0  0
  142.6300   80.4411  220.6529 H   0  0  0  0  0  0  0  0  0  0  0  0
  142.4131   81.6756  222.7808 H   0  0  0  0  0  0  0  0  0  0  0  0
  141.4178   80.5392  224.7730 H   0  0  0  0  0  0  0  0  0  0  0  0
  140.6648   78.1913  224.5661 H   0  0  0  0  0  0  0  0  0  0  0  0
  1  2  2  0
  2  3  1  0
  3  4  1  0
  4  5  1  0
  5  6  2  0
  5  7  1  0
  7  8  1  0
  8  9  1  0
  9 10  1  0
 10 11  1  0
 11 12  1  0
 12 13  1  0
 13 14  1  0
 14 15  1  0
 15 16  1  0
 16 17  1  0
  2 18  1  0
 18 19  2  0
 19 20  1  0
 20 21  2  0
 21 22  1  0
 22 23  2  0
 23 24  1  0
 24 25  2  0
 25 26  1  0
 26 27  2  0
 12  7  1  0
 17 13  1  0
 27 18  1  0
 26 21  1  0
  3 28  1  0
  4 29  1  0
  4 30  1  0
  8 31  1  0
  8 32  1  0
  9 33  1  0
  9 34  1  0
 10 35  1  0
 10 36  1  0
 11 37  1  0
 11 38  1  0
 12 39  1  1
 13 40  1  0
 14 41  1  0
 14 42  1  0
 15 43  1  0
 15 44  1  0
 16 45  1  0
 16 46  1  0
 17 47  1  0
 17 48  1  0
 19 49  1  0
 20 50  1  0
 22 51  1  0
 23 52  1  0
 24 53  1  0
 25 54  1  0
M  END
>  <smiles>  (55) 
O=C(NCC(=O)N1CCCCC1C1CCCC1)c1ccc2ccccc2n1

>  <score_type>  (55) 
oracle

>  <origin>  (55) 
autodockgpu

>  <m_score__min__energy>  (55) 
-9.0199999999999996

>  <m_primary>  (55) 
energy

>  <rmsd>  (55) 
8.423987961535463

>  <m_score__min__rmsd>  (55) 
8.423987961535463

>  <meeko>  (55) 
{"free_energy": -8.57, "intermolecular_energy": -10.06, "internal_energy": -1.6, "cluster_size": 8, "cluster_id": 2, "rank_in_cluster": 5}

>  <energy>  (55) 
-8.95

>  <cluster_rmsd>  (55) 
0.19

>  <cluster>  (55) 
1

$$$$

     RDKit          3D

 54 57  0  0  0  0  0  0  0  0999 V2000
  141.1190   74.5090  221.3580 O   0  0  0  0  0  0  0  0  0  0  0  0
  140.0810   74.9420  221.9630 C   0  0  0  0  0  0  0  0  0  0  0  0
  138.9990   74.0740  222.2970 N   0  0  0  0  0  0  0  0  0  0  0  0
  139.0500   72.6650  221.9550 C   0  0  0  0  0  0  0  0  0  0  0  0
  139.7940   71.8800  222.9520 C   0  0  0  0  0  0  0  0  0  0  0  0
  140.9570   72.2550  223.2530 O   0  0  0  0  0  0  0  0  0  0  0  0
  139.1610   70.7430  223.5180 N   0  0  0  0  0  0  0  0  0  0  0  0
  138.5150   69.7120  222.7130 C   0  0  0  0  0  0  0  0  0  0  0  0
  137.0690   69.7350  223.1170 C   0  0  0  0  0  0  0  0  0  0  0  0
  136.9820   69.3050  224.5650 C   0  0  0  0  0  0  0  0  0  0  0  0
  138.3180   69.2670  225.2470 C   0  0  0  0  0  0  0  0  0  0  0  0
  139.1090   70.5220  224.9710 C   0  0  1  0  0  0  0  0  0  0  0  0
  140.4580   70.4760  225.5870 C   0  0  0  0  0  0  0  0  0  0  0  0
  140.6660   69.3620  226.5560 C   0  0  0  0  0  0  0  0  0  0  0  0
  140.9830   70.0120  227.9060 C   0  0  0  0  0  0  0  0  0  0  0  0
  140.6720   71.4700  227.7800 C   0  0  0  0  0  0  0  0  0  0  0  0
  140.7120   71.7660  226.3010 C   0  0  0  0  0  0  0  0  0  0  0  0
  140.0010   76.3550  222.3190 C   0  0  0  0  0  0  0  0  0  0  0  0
  138.7850   76.9950  222.3660 C   0  0  0  0  0  0  0  0  0  0  0  0
  138.7020   78.3500  222.7050 C   0  0  0  0  0  0  0  0  0  0  0  0
  139.8800   79.0380  222.9960 C   0  0  0  0  0  0  0  0  0  0  0  0
  139.8860   80.3730  223.3390 C   0  0  0  0  0  0  0  0  0  0  0  0
  141.0560   81.0470  223.6250 C   0  0  0  0  0  0  0  0  0  0  0  0
  142.2620   80.3700  223.5670 C   0  0  0  0  0  0  0  0  0  0  0  0
  142.2540   79.0350  223.2240 C   0  0  0  0  0  0  0  0  0  0  0  0
  141.0860   78.3600  222.9380 C   0  0  0  0  0  0  0  0  0  0  0  0
  141.1270   77.0510  222.6060 N   0  0  0  0  0  0  0  0  0  0  0  0
  138.1770   74.5110  222.7970 H   0  0  0  0  0  0  0  0  0  0  0  0
  138.0223   72.2775  221.8935 H   0  0  0  0  0  0  0  0  0  0  0  0
  139.5711   72.5691  220.9910 H   0  0  0  0  0  0  0  0  0  0  0  0
  138.6185   69.9395  221.6418 H   0  0  0  0  0  0  0  0  0  0  0  0
  138.9686   68.7232  222.8758 H   0  0  0  0  0  0  0  0  0  0  0  0
  136.6660   70.7524  223.0047 H   0  0  0  0  0  0  0  0  0  0  0  0
  136.4832   69.0556  222.4804 H   0  0  0  0  0  0  0  0  0  0  0  0
  136.3341   70.0131  225.1025 H   0  0  0  0  0  0  0  0  0  0  0  0
  136.5756   68.2830  224.5807 H   0  0  0  0  0  0  0  0  0  0  0  0
  138.1641   69.1715  226.3320 H   0  0  0  0  0  0  0  0  0  0  0  0
  138.8829   68.4072  224.8575 H   0  0  0  0  0  0  0  0  0  0  0  0
  138.6034   71.3790  225.4400 H   0  0  0  0  0  0  0  0  0  0  0  0
  141.1583   70.3055  224.7560 H   0  0  0  0  0  0  0  0  0  0  0  0
  139.7547   68.7508  226.6334 H   0  0  0  0  0  0  0  0  0  0  0  0
  141.4830   68.7007  226.2318 H   0  0  0  0  0  0  0  0  0  0  0  0
  140.3637   69.5616  228.6957 H   0  0  0  0  0  0  0  0  0  0  0  0
  142.0391   69.8601  228.1737 H   0  0  0  0  0  0  0  0  0  0  0  0
  139.6738   71.6866  228.1882 H   0  0  0  0  0  0  0  0  0  0  0  0
  141.3889   72.0893  228.3390 H   0  0  0  0  0  0  0  0  0  0  0  0
  139.9347   72.5000  226.0420 H   0  0  0  0  0  0  0  0  0  0  0  0
  141.6860   72.1879  226.0124 H   0  0  0  0  0  0  0  0  0  0  0  0
  137.8668   76.4353  222.1344 H   0  0  0  0  0  0  0  0  0  0  0  0
  137.7289   78.8616  222.7412 H   0  0  0  0  0  0  0  0  0  0  0  0
  138.9310   80.9168  223.3862 H   0  0  0  0  0  0  0  0  0  0  0  0
  141.0303   82.1126  223.8966 H   0  0  0  0  0  0  0  0  0  0  0  0
  143.2071   80.8867  223.7900 H   0  0  0  0  0  0  0  0  0  0  0  0
  143.2090   78.4912  223.1769 H   0  0  0  0  0  0  0  0  0  0  0  0
  1  2  2  0
  2  3  1  0
  3  4  1  0
  4  5  1  0
  5  6  2  0
  5  7  1  0
  7  8  1  0
  8  9  1  0
  9 10  1  0
 10 11  1  0
 11 12  1  0
 12 13  1  0
 13 14  1  0
 14 15  1  0
 15 16  1  0
 16 17  1  0
  2 18  1  0
 18 19  2  0
 19 20  1  0
 20 21  2  0
 21 22  1  0
 22 23  2  0
 23 24  1  0
 24 25  2  0
 25 26  1  0
 26 27  2  0
 12  7  1  0
 17 13  1  0
 27 18  1  0
 26 21  1  0
  3 28  1  0
  4 29  1  0
  4 30  1  0
  8 31  1  0
  8 32  1  0
  9 33  1  0
  9 34  1  0
 10 35  1  0
 10 36  1  0
 11 37  1  0
 11 38  1  0
 12 39  1  1
 13 40  1  0
 14 41  1  0
 14 42  1  0
 15 43  1  0
 15 44  1  0
 16 45  1  0
 16 46  1  0
 17 47  1  0
 17 48  1  0
 19 49  1  0
 20 50  1  0
 22 51  1  0
 23 52  1  0
 24 53  1  0
 25 54  1  0
M  END
>  <smiles>  (56) 
O=C(NCC(=O)N1CCCCC1C1CCCC1)c1ccc2ccccc2n1

>  <score_type>  (56) 
oracle

>  <origin>  (56) 
autodockgpu

>  <m_score__min__energy>  (56) 
-9.0199999999999996

>  <m_primary>  (56) 
energy

>  <rmsd>  (56) 
8.332592468145517

>  <m_score__min__rmsd>  (56) 
8.332592468145517

>  <meeko>  (56) 
{"free_energy": -8.9, "intermolecular_energy": -10.39, "internal_energy": -1.27, "cluster_size": 8, "cluster_id": 2, "rank_in_cluster": 2}

>  <energy>  (56) 
-8.9

>  <cluster_rmsd>  (56) 
0.41

>  <cluster>  (56) 
1

$$$$

     RDKit          3D

 54 57  0  0  0  0  0  0  0  0999 V2000
  140.9110   71.8870  221.1920 O   0  0  0  0  0  0  0  0  0  0  0  0
  140.3770   72.3540  222.2540 C   0  0  0  0  0  0  0  0  0  0  0  0
  139.9530   73.7140  222.3360 N   0  0  0  0  0  0  0  0  0  0  0  0
  140.1190   74.6100  221.2070 C   0  0  0  0  0  0  0  0  0  0  0  0
  139.8740   76.0130  221.5720 C   0  0  0  0  0  0  0  0  0  0  0  0
  139.2000   76.2460  222.6100 O   0  0  0  0  0  0  0  0  0  0  0  0
  140.4090   77.0260  220.7350 N   0  0  0  0  0  0  0  0  0  0  0  0
  140.0510   77.1640  219.3290 C   0  0  0  0  0  0  0  0  0  0  0  0
  141.3300   76.9630  218.5670 C   0  0  0  0  0  0  0  0  0  0  0  0
  142.2620   78.1020  218.9140 C   0  0  0  0  0  0  0  0  0  0  0  0
  141.7920   78.9100  220.0870 C   0  0  0  0  0  0  0  0  0  0  0  0
  141.3740   78.0190  221.2320 C   0  0  1  0  0  0  0  0  0  0  0  0
  140.8480   78.7980  222.3800 C   0  0  0  0  0  0  0  0  0  0  0  0
  140.6050   80.2420  222.0980 C   0  0  0  0  0  0  0  0  0  0  0  0
  141.5100   81.0300  223.0490 C   0  0  0  0  0  0  0  0  0  0  0  0
  142.4680   80.0570  223.6580 C   0  0  0  0  0  0  0  0  0  0  0  0
  141.8150   78.7030  223.5170 C   0  0  0  0  0  0  0  0  0  0  0  0
  140.1970   71.4780  223.4070 C   0  0  0  0  0  0  0  0  0  0  0  0
  139.6030   70.2460  223.2620 C   0  0  0  0  0  0  0  0  0  0  0  0
  139.4270   69.4020  224.3630 C   0  0  0  0  0  0  0  0  0  0  0  0
  139.8690   69.8360  225.6130 C   0  0  0  0  0  0  0  0  0  0  0  0
  139.7340   69.0660  226.7480 C   0  0  0  0  0  0  0  0  0  0  0  0
  140.1730   69.5020  227.9820 C   0  0  0  0  0  0  0  0  0  0  0  0
  140.7670   70.7480  228.0910 C   0  0  0  0  0  0  0  0  0  0  0  0
  140.9010   71.5170  226.9540 C   0  0  0  0  0  0  0  0  0  0  0  0
  140.4620   71.0820  225.7210 C   0  0  0  0  0  0  0  0  0  0  0  0
  140.6150   71.8700  224.6350 N   0  0  0  0  0  0  0  0  0  0  0  0
  139.5210   74.0220  223.2500 H   0  0  0  0  0  0  0  0  0  0  0  0
  141.1477   74.5166  220.8287 H   0  0  0  0  0  0  0  0  0  0  0  0
  139.3835   74.3269  220.4396 H   0  0  0  0  0  0  0  0  0  0  0  0
  139.3103   76.4022  219.0444 H   0  0  0  0  0  0  0  0  0  0  0  0
  139.5999   78.1447  219.1173 H   0  0  0  0  0  0  0  0  0  0  0  0
  141.7885   76.0048  218.8526 H   0  0  0  0  0  0  0  0  0  0  0  0
  141.1326   76.9457  217.4850 H   0  0  0  0  0  0  0  0  0  0  0  0
  143.2520   77.6847  219.1504 H   0  0  0  0  0  0  0  0  0  0  0  0
  142.2957   78.7749  218.0445 H   0  0  0  0  0  0  0  0  0  0  0  0
  142.6097   79.5650  220.4222 H   0  0  0  0  0  0  0  0  0  0  0  0
  140.9217   79.5053  219.7734 H   0  0  0  0  0  0  0  0  0  0  0  0
  142.2566   77.4894  221.6199 H   0  0  0  0  0  0  0  0  0  0  0  0
  139.8695   78.3546  222.6166 H   0  0  0  0  0  0  0  0  0  0  0  0
  140.8593   80.4730  221.0530 H   0  0  0  0  0  0  0  0  0  0  0  0
  139.5472   80.5037  222.2481 H   0  0  0  0  0  0  0  0  0  0  0  0
  142.0607   81.8020  222.4915 H   0  0  0  0  0  0  0  0  0  0  0  0
  140.9155   81.5308  223.8273 H   0  0  0  0  0  0  0  0  0  0  0  0
  143.4288   80.0777  223.1227 H   0  0  0  0  0  0  0  0  0  0  0  0
  142.6809   80.2990  224.7097 H   0  0  0  0  0  0  0  0  0  0  0  0
  142.5755   77.9377  223.3027 H   0  0  0  0  0  0  0  0  0  0  0  0
  141.3002   78.4177  224.4463 H   0  0  0  0  0  0  0  0  0  0  0  0
  139.2623   69.9207  222.2680 H   0  0  0  0  0  0  0  0  0  0  0  0
  138.9505   68.4175  224.2460 H   0  0  0  0  0  0  0  0  0  0  0  0
  139.2627   68.0753  226.6683 H   0  0  0  0  0  0  0  0  0  0  0  0
  140.0520   68.8653  228.8708 H   0  0  0  0  0  0  0  0  0  0  0  0
  141.1244   71.1167  229.0638 H   0  0  0  0  0  0  0  0  0  0  0  0
  141.3725   72.5077  227.0329 H   0  0  0  0  0  0  0  0  0  0  0  0
  1  2  2  0
  2  3  1  0
  3  4  1  0
  4  5  1  0
  5  6  2  0
  5  7  1  0
  7  8  1  0
  8  9  1  0
  9 10  1  0
 10 11  1  0
 11 12  1  0
 12 13  1  0
 13 14  1  0
 14 15  1  0
 15 16  1  0
 16 17  1  0
  2 18  1  0
 18 19  2  0
 19 20  1  0
 20 21  2  0
 21 22  1  0
 22 23  2  0
 23 24  1  0
 24 25  2  0
 25 26  1  0
 26 27  2  0
 12  7  1  0
 17 13  1  0
 27 18  1  0
 26 21  1  0
  3 28  1  0
  4 29  1  0
  4 30  1  0
  8 31  1  0
  8 32  1  0
  9 33  1  0
  9 34  1  0
 10 35  1  0
 10 36  1  0
 11 37  1  0
 11 38  1  0
 12 39  1  1
 13 40  1  0
 14 41  1  0
 14 42  1  0
 15 43  1  0
 15 44  1  0
 16 45  1  0
 16 46  1  0
 17 47  1  0
 17 48  1  0
 19 49  1  0
 20 50  1  0
 22 51  1  0
 23 52  1  0
 24 53  1  0
 25 54  1  0
M  END
>  <smiles>  (57) 
O=C(NCC(=O)N1CCCCC1C1CCCC1)c1ccc2ccccc2n1

>  <score_type>  (57) 
oracle

>  <origin>  (57) 
autodockgpu

>  <m_score__min__energy>  (57) 
-9.0199999999999996

>  <m_primary>  (57) 
energy

>  <rmsd>  (57) 
1.9602460529748325

>  <m_score__min__rmsd>  (57) 
1.9602460529748325

>  <meeko>  (57) 
{"free_energy": -8.64, "intermolecular_energy": -10.14, "internal_energy": -1.78, "cluster_size": 33, "cluster_id": 1, "rank_in_cluster": 22}

>  <energy>  (57) 
-8.88

>  <cluster_rmsd>  (57) 
1.39

>  <cluster>  (57) 
1

$$$$

     RDKit          3D

 54 57  0  0  0  0  0  0  0  0999 V2000
  141.5160   72.2400  221.5780 O   0  0  0  0  0  0  0  0  0  0  0  0
  140.6120   72.5420  222.4290 C   0  0  0  0  0  0  0  0  0  0  0  0
  139.8960   73.7730  222.3470 N   0  0  0  0  0  0  0  0  0  0  0  0
  140.1780   74.7230  221.2880 C   0  0  0  0  0  0  0  0  0  0  0  0
  139.6190   76.0530  221.5750 C   0  0  0  0  0  0  0  0  0  0  0  0
  138.6450   76.1280  222.3680 O   0  0  0  0  0  0  0  0  0  0  0  0
  140.2080   77.1780  220.9400 N   0  0  0  0  0  0  0  0  0  0  0  0
  139.7310   77.7120  219.6700 C   0  0  0  0  0  0  0  0  0  0  0  0
  140.8800   77.5660  218.7150 C   0  0  0  0  0  0  0  0  0  0  0  0
  142.0010   78.4610  219.1940 C   0  0  0  0  0  0  0  0  0  0  0  0
  141.7780   78.9900  220.5800 C   0  0  0  0  0  0  0  0  0  0  0  0
  141.3540   77.8910  221.5240 C   0  0  1  0  0  0  0  0  0  0  0  0
  141.0700   78.4060  222.8860 C   0  0  0  0  0  0  0  0  0  0  0  0
  139.8330   79.2300  222.9990 C   0  0  0  0  0  0  0  0  0  0  0  0
  140.2750   80.6190  223.4690 C   0  0  0  0  0  0  0  0  0  0  0  0
  141.7640   80.6760  223.3430 C   0  0  0  0  0  0  0  0  0  0  0  0
  142.2260   79.2390  223.3430 C   0  0  0  0  0  0  0  0  0  0  0  0
  140.3070   71.6060  223.5060 C   0  0  0  0  0  0  0  0  0  0  0  0
  139.6250   70.4410  223.2470 C   0  0  0  0  0  0  0  0  0  0  0  0
  139.3290   69.5400  224.2750 C   0  0  0  0  0  0  0  0  0  0  0  0
  139.7420   69.8490  225.5720 C   0  0  0  0  0  0  0  0  0  0  0  0
  139.4910   69.0170  226.6410 C   0  0  0  0  0  0  0  0  0  0  0  0
  139.9020   69.3300  227.9210 C   0  0  0  0  0  0  0  0  0  0  0  0
  140.5870   70.5120  228.1450 C   0  0  0  0  0  0  0  0  0  0  0  0
  140.8380   71.3430  227.0740 C   0  0  0  0  0  0  0  0  0  0  0  0
  140.4260   71.0320  225.7950 C   0  0  0  0  0  0  0  0  0  0  0  0
  140.6940   71.8770  224.7760 N   0  0  0  0  0  0  0  0  0  0  0  0
  139.1650   73.9460  223.0900 H   0  0  0  0  0  0  0  0  0  0  0  0
  141.2683   74.8135  221.1737 H   0  0  0  0  0  0  0  0  0  0  0  0
  139.7097   74.3505  220.3650 H   0  0  0  0  0  0  0  0  0  0  0  0
  138.8613   77.1397  219.3150 H   0  0  0  0  0  0  0  0  0  0  0  0
  139.4095   78.7598  219.7635 H   0  0  0  0  0  0  0  0  0  0  0  0
  141.2194   76.5198  218.6962 H   0  0  0  0  0  0  0  0  0  0  0  0
  140.5710   77.8506  217.6984 H   0  0  0  0  0  0  0  0  0  0  0  0
  142.9377   77.8844  219.1855 H   0  0  0  0  0  0  0  0  0  0  0  0
  142.0444   79.3255  218.5152 H   0  0  0  0  0  0  0  0  0  0  0  0
  142.7132   79.4374  220.9477 H   0  0  0  0  0  0  0  0  0  0  0  0
  140.9765   79.7423  220.5401 H   0  0  0  0  0  0  0  0  0  0  0  0
  142.1843   77.1805  221.6497 H   0  0  0  0  0  0  0  0  0  0  0  0
  140.9134   77.5158  223.5129 H   0  0  0  0  0  0  0  0  0  0  0  0
  139.3335   79.3010  222.0215 H   0  0  0  0  0  0  0  0  0  0  0  0
  139.1195   78.7803  223.7052 H   0  0  0  0  0  0  0  0  0  0  0  0
  139.8137   81.3942  222.8396 H   0  0  0  0  0  0  0  0  0  0  0  0
  139.9643   80.7962  224.5092 H   0  0  0  0  0  0  0  0  0  0  0  0
  142.0513   81.1718  222.4041 H   0  0  0  0  0  0  0  0  0  0  0  0
  142.2204   81.2506  224.1625 H   0  0  0  0  0  0  0  0  0  0  0  0
  143.0755   79.1156  222.6551 H   0  0  0  0  0  0  0  0  0  0  0  0
  142.5564   78.9336  224.3468 H   0  0  0  0  0  0  0  0  0  0  0  0
  139.3080   70.2145  222.2183 H   0  0  0  0  0  0  0  0  0  0  0  0
  138.7827   68.6084  224.0660 H   0  0  0  0  0  0  0  0  0  0  0  0
  138.9474   68.0762  226.4696 H   0  0  0  0  0  0  0  0  0  0  0  0
  139.6872   68.6464  228.7556 H   0  0  0  0  0  0  0  0  0  0  0  0
  140.9240   70.7825  229.1566 H   0  0  0  0  0  0  0  0  0  0  0  0
  141.3835   72.2828  227.2447 H   0  0  0  0  0  0  0  0  0  0  0  0
  1  2  2  0
  2  3  1  0
  3  4  1  0
  4  5  1  0
  5  6  2  0
  5  7  1  0
  7  8  1  0
  8  9  1  0
  9 10  1  0
 10 11  1  0
 11 12  1  0
 12 13  1  0
 13 14  1  0
 14 15  1  0
 15 16  1  0
 16 17  1  0
  2 18  1  0
 18 19  2  0
 19 20  1  0
 20 21  2  0
 21 22  1  0
 22 23  2  0
 23 24  1  0
 24 25  2  0
 25 26  1  0
 26 27  2  0
 12  7  1  0
 17 13  1  0
 27 18  1  0
 26 21  1  0
  3 28  1  0
  4 29  1  0
  4 30  1  0
  8 31  1  0
  8 32  1  0
  9 33  1  0
  9 34  1  0
 10 35  1  0
 10 36  1  0
 11 37  1  0
 11 38  1  0
 12 39  1  1
 13 40  1  0
 14 41  1  0
 14 42  1  0
 15 43  1  0
 15 44  1  0
 16 45  1  0
 16 46  1  0
 17 47  1  0
 17 48  1  0
 19 49  1  0
 20 50  1  0
 22 51  1  0
 23 52  1  0
 24 53  1  0
 25 54  1  0
M  END
>  <smiles>  (58) 
O=C(NCC(=O)N1CCCCC1C1CCCC1)c1ccc2ccccc2n1

>  <score_type>  (58) 
oracle

>  <origin>  (58) 
autodockgpu

>  <m_score__min__energy>  (58) 
-9.0199999999999996

>  <m_primary>  (58) 
energy

>  <rmsd>  (58) 
2.2128625100031742

>  <m_score__min__rmsd>  (58) 
2.2128625100031742

>  <meeko>  (58) 
{"free_energy": -8.6, "intermolecular_energy": -10.09, "internal_energy": -1.7, "cluster_size": 33, "cluster_id": 1, "rank_in_cluster": 29}

>  <energy>  (58) 
-8.84

>  <cluster_rmsd>  (58) 
1.4

>  <cluster>  (58) 
1

$$$$

     RDKit          3D

 54 57  0  0  0  0  0  0  0  0999 V2000
  140.6290   71.4560  221.3130 O   0  0  0  0  0  0  0  0  0  0  0  0
  140.2270   72.0050  222.3940 C   0  0  0  0  0  0  0  0  0  0  0  0
  139.9180   73.3970  222.4490 N   0  0  0  0  0  0  0  0  0  0  0  0
  140.0520   74.2320  221.2710 C   0  0  0  0  0  0  0  0  0  0  0  0
  140.0490   75.6640  221.6040 C   0  0  0  0  0  0  0  0  0  0  0  0
  139.5780   76.0120  222.7180 O   0  0  0  0  0  0  0  0  0  0  0  0
  140.5740   76.5750  220.6510 N   0  0  0  0  0  0  0  0  0  0  0  0
  140.3070   76.4680  219.2210 C   0  0  0  0  0  0  0  0  0  0  0  0
  141.6460   76.2500  218.5770 C   0  0  0  0  0  0  0  0  0  0  0  0
  142.4770   77.4950  218.7950 C   0  0  0  0  0  0  0  0  0  0  0  0
  141.8740   78.4350  219.7970 C   0  0  0  0  0  0  0  0  0  0  0  0
  141.4350   77.7010  221.0410 C   0  0  1  0  0  0  0  0  0  0  0  0
  140.7810   78.6050  222.0180 C   0  0  0  0  0  0  0  0  0  0  0  0
  140.7670   80.0440  221.6280 C   0  0  0  0  0  0  0  0  0  0  0  0
  141.5450   80.7980  222.7110 C   0  0  0  0  0  0  0  0  0  0  0  0
  142.2430   79.7730  223.5480 C   0  0  0  0  0  0  0  0  0  0  0  0
  141.4810   78.4880  223.3350 C   0  0  0  0  0  0  0  0  0  0  0  0
  140.0830   71.1910  223.5960 C   0  0  0  0  0  0  0  0  0  0  0  0
  139.5600   69.9220  223.5220 C   0  0  0  0  0  0  0  0  0  0  0  0
  139.4180   69.1370  224.6700 C   0  0  0  0  0  0  0  0  0  0  0  0
  139.8210   69.6690  225.8950 C   0  0  0  0  0  0  0  0  0  0  0  0
  139.7160   68.9630  227.0740 C   0  0  0  0  0  0  0  0  0  0  0  0
  140.1160   69.4970  228.2830 C   0  0  0  0  0  0  0  0  0  0  0  0
  140.6390   70.7780  228.3200 C   0  0  0  0  0  0  0  0  0  0  0  0
  140.7430   71.4830  227.1400 C   0  0  0  0  0  0  0  0  0  0  0  0
  140.3430   70.9510  225.9320 C   0  0  0  0  0  0  0  0  0  0  0  0
  140.4650   71.6800  224.8010 N   0  0  0  0  0  0  0  0  0  0  0  0
  139.5920   73.7730  223.3820 H   0  0  0  0  0  0  0  0  0  0  0  0
  140.9993   73.9868  220.7685 H   0  0  0  0  0  0  0  0  0  0  0  0
  139.1900   74.0349  220.6167 H   0  0  0  0  0  0  0  0  0  0  0  0
  139.6396   75.6176  219.0173 H   0  0  0  0  0  0  0  0  0  0  0  0
  139.8087   77.3677  218.8309 H   0  0  0  0  0  0  0  0  0  0  0  0
  142.1444   75.3833  219.0358 H   0  0  0  0  0  0  0  0  0  0  0  0
  141.5256   76.0541  217.5013 H   0  0  0  0  0  0  0  0  0  0  0  0
  143.4727   77.1936  219.1523 H   0  0  0  0  0  0  0  0  0  0  0  0
  142.5292   78.0279  217.8341 H   0  0  0  0  0  0  0  0  0  0  0  0
  142.6219   79.1929  220.0730 H   0  0  0  0  0  0  0  0  0  0  0  0
  140.9910   78.9080  219.3425 H   0  0  0  0  0  0  0  0  0  0  0  0
  142.3205   77.3041  221.5591 H   0  0  0  0  0  0  0  0  0  0  0  0
  139.7308   78.2811  222.0647 H   0  0  0  0  0  0  0  0  0  0  0  0
  141.2523   80.1770  220.6498 H   0  0  0  0  0  0  0  0  0  0  0  0
  139.7376   80.4221  221.5428 H   0  0  0  0  0  0  0  0  0  0  0  0
  142.2813   81.4707  222.2470 H   0  0  0  0  0  0  0  0  0  0  0  0
  140.8672   81.4086  223.3256 H   0  0  0  0  0  0  0  0  0  0  0  0
  143.2876   79.6584  223.2229 H   0  0  0  0  0  0  0  0  0  0  0  0
  142.2663   80.0613  224.6093 H   0  0  0  0  0  0  0  0  0  0  0  0
  142.1759   77.6355  223.3186 H   0  0  0  0  0  0  0  0  0  0  0  0
  140.7596   78.3211  224.1484 H   0  0  0  0  0  0  0  0  0  0  0  0
  139.2492   69.5189  222.5469 H   0  0  0  0  0  0  0  0  0  0  0  0
  138.9978   68.1223  224.6087 H   0  0  0  0  0  0  0  0  0  0  0  0
  139.3015   67.9444  227.0513 H   0  0  0  0  0  0  0  0  0  0  0  0
  140.0199   68.9098  229.2082 H   0  0  0  0  0  0  0  0  0  0  0  0
  140.9649   71.2242  229.2712 H   0  0  0  0  0  0  0  0  0  0  0  0
  141.1579   72.5015  227.1625 H   0  0  0  0  0  0  0  0  0  0  0  0
  1  2  2  0
  2  3  1  0
  3  4  1  0
  4  5  1  0
  5  6  2  0
  5  7  1  0
  7  8  1  0
  8  9  1  0
  9 10  1  0
 10 11  1  0
 11 12  1  0
 12 13  1  0
 13 14  1  0
 14 15  1  0
 15 16  1  0
 16 17  1  0
  2 18  1  0
 18 19  2  0
 19 20  1  0
 20 21  2  0
 21 22  1  0
 22 23  2  0
 23 24  1  0
 24 25  2  0
 25 26  1  0
 26 27  2  0
 12  7  1  0
 17 13  1  0
 27 18  1  0
 26 21  1  0
  3 28  1  0
  4 29  1  0
  4 30  1  0
  8 31  1  0
  8 32  1  0
  9 33  1  0
  9 34  1  0
 10 35  1  0
 10 36  1  0
 11 37  1  0
 11 38  1  0
 12 39  1  1
 13 40  1  0
 14 41  1  0
 14 42  1  0
 15 43  1  0
 15 44  1  0
 16 45  1  0
 16 46  1  0
 17 47  1  0
 17 48  1  0
 19 49  1  0
 20 50  1  0
 22 51  1  0
 23 52  1  0
 24 53  1  0
 25 54  1  0
M  END
>  <smiles>  (59) 
O=C(NCC(=O)N1CCCCC1C1CCCC1)c1ccc2ccccc2n1

>  <score_type>  (59) 
oracle

>  <origin>  (59) 
autodockgpu

>  <m_score__min__energy>  (59) 
-9.0199999999999996

>  <m_primary>  (59) 
energy

>  <rmsd>  (59) 
1.713129070368067

>  <m_score__min__rmsd>  (59) 
1.713129070368067

>  <meeko>  (59) 
{"free_energy": -8.62, "intermolecular_energy": -10.11, "internal_energy": -1.8, "cluster_size": 33, "cluster_id": 1, "rank_in_cluster": 26}

>  <energy>  (59) 
-8.83

>  <cluster_rmsd>  (59) 
1.29

>  <cluster>  (59) 
1

$$$$

     RDKit          3D

 54 57  0  0  0  0  0  0  0  0999 V2000
  140.9290   71.7840  221.2530 O   0  0  0  0  0  0  0  0  0  0  0  0
  140.3880   72.2840  222.2970 C   0  0  0  0  0  0  0  0  0  0  0  0
  139.9740   73.6490  222.3370 N   0  0  0  0  0  0  0  0  0  0  0  0
  140.1590   74.5120  221.1860 C   0  0  0  0  0  0  0  0  0  0  0  0
  140.1710   75.9340  221.5580 C   0  0  0  0  0  0  0  0  0  0  0  0
  139.7830   76.2490  222.7130 O   0  0  0  0  0  0  0  0  0  0  0  0
  140.6190   76.8750  220.5940 N   0  0  0  0  0  0  0  0  0  0  0  0
  140.2480   76.8040  219.1860 C   0  0  0  0  0  0  0  0  0  0  0  0
  141.5370   76.6140  218.4390 C   0  0  0  0  0  0  0  0  0  0  0  0
  142.3730   77.8600  218.6290 C   0  0  0  0  0  0  0  0  0  0  0  0
  141.8410   78.7680  219.6980 C   0  0  0  0  0  0  0  0  0  0  0  0
  141.5000   77.9970  220.9500 C   0  0  1  0  0  0  0  0  0  0  0  0
  140.9140   78.8690  221.9970 C   0  0  0  0  0  0  0  0  0  0  0  0
  140.9280   80.3260  221.6790 C   0  0  0  0  0  0  0  0  0  0  0  0
  141.7720   81.0010  222.7640 C   0  0  0  0  0  0  0  0  0  0  0  0
  142.4720   79.9170  223.5200 C   0  0  0  0  0  0  0  0  0  0  0  0
  141.6630   78.6660  223.2760 C   0  0  0  0  0  0  0  0  0  0  0  0
  140.1890   71.4400  223.4710 C   0  0  0  0  0  0  0  0  0  0  0  0
  139.5850   70.2100  223.3530 C   0  0  0  0  0  0  0  0  0  0  0  0
  139.3910   69.3980  224.4740 C   0  0  0  0  0  0  0  0  0  0  0  0
  139.8250   69.8600  225.7170 C   0  0  0  0  0  0  0  0  0  0  0  0
  139.6730   69.1220  226.8710 C   0  0  0  0  0  0  0  0  0  0  0  0
  140.1050   69.5880  228.0970 C   0  0  0  0  0  0  0  0  0  0  0  0
  140.7090   70.8310  228.1780 C   0  0  0  0  0  0  0  0  0  0  0  0
  140.8610   71.5670  227.0220 C   0  0  0  0  0  0  0  0  0  0  0  0
  140.4290   71.1040  225.7970 C   0  0  0  0  0  0  0  0  0  0  0  0
  140.6000   71.8610  224.6910 N   0  0  0  0  0  0  0  0  0  0  0  0
  139.5340   73.9840  223.2380 H   0  0  0  0  0  0  0  0  0  0  0  0
  141.1168   74.2627  220.7060 H   0  0  0  0  0  0  0  0  0  0  0  0
  139.3147   74.3481  220.5003 H   0  0  0  0  0  0  0  0  0  0  0  0
  139.5726   75.9540  219.0091 H   0  0  0  0  0  0  0  0  0  0  0  0
  139.7169   77.7098  218.8584 H   0  0  0  0  0  0  0  0  0  0  0  0
  142.0737   75.7398  218.8362 H   0  0  0  0  0  0  0  0  0  0  0  0
  141.3389   76.4450  217.3703 H   0  0  0  0  0  0  0  0  0  0  0  0
  143.3946   77.5578  218.9028 H   0  0  0  0  0  0  0  0  0  0  0  0
  142.3488   78.4189  217.6819 H   0  0  0  0  0  0  0  0  0  0  0  0
  142.6031   79.5238  219.9386 H   0  0  0  0  0  0  0  0  0  0  0  0
  140.9242   79.2467  219.3235 H   0  0  0  0  0  0  0  0  0  0  0  0
  142.4240   77.5934  221.3898 H   0  0  0  0  0  0  0  0  0  0  0  0
  139.8572   78.5732  222.0719 H   0  0  0  0  0  0  0  0  0  0  0  0
  141.3769   80.4944  220.6890 H   0  0  0  0  0  0  0  0  0  0  0  0
  139.9081   80.7374  221.6557 H   0  0  0  0  0  0  0  0  0  0  0  0
  142.5090   81.6750  222.3030 H   0  0  0  0  0  0  0  0  0  0  0  0
  141.1381   81.5982  223.4360 H   0  0  0  0  0  0  0  0  0  0  0  0
  143.4987   79.7895  223.1465 H   0  0  0  0  0  0  0  0  0  0  0  0
  142.5471   80.1511  224.5922 H   0  0  0  0  0  0  0  0  0  0  0  0
  142.3305   77.7961  223.1884 H   0  0  0  0  0  0  0  0  0  0  0  0
  140.9704   78.4788  224.1098 H   0  0  0  0  0  0  0  0  0  0  0  0
  139.2507   69.8612  222.3648 H   0  0  0  0  0  0  0  0  0  0  0  0
  138.9063   68.4152  224.3783 H   0  0  0  0  0  0  0  0  0  0  0  0
  139.1939   68.1335  226.8138 H   0  0  0  0  0  0  0  0  0  0  0  0
  139.9703   68.9767  229.0016 H   0  0  0  0  0  0  0  0  0  0  0  0
  141.0602   71.2231  229.1439 H   0  0  0  0  0  0  0  0  0  0  0  0
  141.3420   72.5546  227.0787 H   0  0  0  0  0  0  0  0  0  0  0  0
  1  2  2  0
  2  3  1  0
  3  4  1  0
  4  5  1  0
  5  6  2  0
  5  7  1  0
  7  8  1  0
  8  9  1  0
  9 10  1  0
 10 11  1  0
 11 12  1  0
 12 13  1  0
 13 14  1  0
 14 15  1  0
 15 16  1  0
 16 17  1  0
  2 18  1  0
 18 19  2  0
 19 20  1  0
 20 21  2  0
 21 22  1  0
 22 23  2  0
 23 24  1  0
 24 25  2  0
 25 26  1  0
 26 27  2  0
 12  7  1  0
 17 13  1  0
 27 18  1  0
 26 21  1  0
  3 28  1  0
  4 29  1  0
  4 30  1  0
  8 31  1  0
  8 32  1  0
  9 33  1  0
  9 34  1  0
 10 35  1  0
 10 36  1  0
 11 37  1  0
 11 38  1  0
 12 39  1  1
 13 40  1  0
 14 41  1  0
 14 42  1  0
 15 43  1  0
 15 44  1  0
 16 45  1  0
 16 46  1  0
 17 47  1  0
 17 48  1  0
 19 49  1  0
 20 50  1  0
 22 51  1  0
 23 52  1  0
 24 53  1  0
 25 54  1  0
M  END
>  <smiles>  (60) 
O=C(NCC(=O)N1CCCCC1C1CCCC1)c1ccc2ccccc2n1

>  <score_type>  (60) 
oracle

>  <origin>  (60) 
autodockgpu

>  <m_score__min__energy>  (60) 
-9.0199999999999996

>  <m_primary>  (60) 
energy

>  <rmsd>  (60) 
1.8411899808524752

>  <m_score__min__rmsd>  (60) 
1.8411899808524752

>  <meeko>  (60) 
{"free_energy": -8.72, "intermolecular_energy": -10.21, "internal_energy": -1.75, "cluster_size": 33, "cluster_id": 1, "rank_in_cluster": 20}

>  <energy>  (60) 
-8.8

>  <cluster_rmsd>  (60) 
1.38

>  <cluster>  (60) 
1

$$$$

     RDKit          3D

 54 57  0  0  0  0  0  0  0  0999 V2000
  141.3060   71.9740  221.4470 O   0  0  0  0  0  0  0  0  0  0  0  0
  140.5480   72.3930  222.3860 C   0  0  0  0  0  0  0  0  0  0  0  0
  139.9560   73.6910  222.3390 N   0  0  0  0  0  0  0  0  0  0  0  0
  140.2010   74.5750  221.2160 C   0  0  0  0  0  0  0  0  0  0  0  0
  140.0670   75.9920  221.5880 C   0  0  0  0  0  0  0  0  0  0  0  0
  139.5380   76.2660  222.6970 O   0  0  0  0  0  0  0  0  0  0  0  0
  140.5400   76.9710  220.6760 N   0  0  0  0  0  0  0  0  0  0  0  0
  140.1590   76.9940  219.2690 C   0  0  0  0  0  0  0  0  0  0  0  0
  141.4380   76.8060  218.5030 C   0  0  0  0  0  0  0  0  0  0  0  0
  142.3150   78.0120  218.7590 C   0  0  0  0  0  0  0  0  0  0  0  0
  141.8170   78.8730  219.8820 C   0  0  0  0  0  0  0  0  0  0  0  0
  141.4580   78.0430  221.0900 C   0  0  1  0  0  0  0  0  0  0  0  0
  140.9060   78.8710  222.1900 C   0  0  0  0  0  0  0  0  0  0  0  0
  140.8020   80.3270  221.8860 C   0  0  0  0  0  0  0  0  0  0  0  0
  141.6880   81.0500  222.9050 C   0  0  0  0  0  0  0  0  0  0  0  0
  142.5140   80.0090  223.5910 C   0  0  0  0  0  0  0  0  0  0  0  0
  141.7680   78.7100  223.4020 C   0  0  0  0  0  0  0  0  0  0  0  0
  140.2850   71.5260  223.5290 C   0  0  0  0  0  0  0  0  0  0  0  0
  139.6210   70.3330  223.3620 C   0  0  0  0  0  0  0  0  0  0  0  0
  139.3640   69.4980  224.4540 C   0  0  0  0  0  0  0  0  0  0  0  0
  139.7960   69.9010  225.7180 C   0  0  0  0  0  0  0  0  0  0  0  0
  139.5840   69.1370  226.8460 C   0  0  0  0  0  0  0  0  0  0  0  0
  140.0150   69.5430  228.0930 C   0  0  0  0  0  0  0  0  0  0  0  0
  140.6800   70.7500  228.2240 C   0  0  0  0  0  0  0  0  0  0  0  0
  140.8910   71.5120  227.0940 C   0  0  0  0  0  0  0  0  0  0  0  0
  140.4610   71.1080  225.8480 C   0  0  0  0  0  0  0  0  0  0  0  0
  140.6910   71.8890  224.7700 N   0  0  0  0  0  0  0  0  0  0  0  0
  139.3420   73.9610  223.1560 H   0  0  0  0  0  0  0  0  0  0  0  0
  141.2213   74.4010  220.8436 H   0  0  0  0  0  0  0  0  0  0  0  0
  139.4509   74.3555  220.4420 H   0  0  0  0  0  0  0  0  0  0  0  0
  139.4552   76.1780  219.0480 H   0  0  0  0  0  0  0  0  0  0  0  0
  139.6557   77.9338  218.9981 H   0  0  0  0  0  0  0  0  0  0  0  0
  141.9481   75.8935  218.8455 H   0  0  0  0  0  0  0  0  0  0  0  0
  141.2293   76.7053  217.4277 H   0  0  0  0  0  0  0  0  0  0  0  0
  143.3276   77.6621  219.0084 H   0  0  0  0  0  0  0  0  0  0  0  0
  142.3049   78.6251  217.8458 H   0  0  0  0  0  0  0  0  0  0  0  0
  142.6037   79.5897  220.1604 H   0  0  0  0  0  0  0  0  0  0  0  0
  140.9137   79.4004  219.5416 H   0  0  0  0  0  0  0  0  0  0  0  0
  142.3709   77.5863  221.4998 H   0  0  0  0  0  0  0  0  0  0  0  0
  139.8797   78.5081  222.3480 H   0  0  0  0  0  0  0  0  0  0  0  0
  141.1567   80.5279  220.8643 H   0  0  0  0  0  0  0  0  0  0  0  0
  139.7597   80.6726  221.9501 H   0  0  0  0  0  0  0  0  0  0  0  0
  142.3410   81.7712  222.3918 H   0  0  0  0  0  0  0  0  0  0  0  0
  141.0752   81.6033  223.6318 H   0  0  0  0  0  0  0  0  0  0  0  0
  143.5127   79.9484  223.1339 H   0  0  0  0  0  0  0  0  0  0  0  0
  142.6616   80.2427  224.6557 H   0  0  0  0  0  0  0  0  0  0  0  0
  142.4794   77.8845  223.2522 H   0  0  0  0  0  0  0  0  0  0  0  0
  141.1591   78.4754  224.2875 H   0  0  0  0  0  0  0  0  0  0  0  0
  139.2882   70.0322  222.3576 H   0  0  0  0  0  0  0  0  0  0  0  0
  138.8328   68.5442  224.3193 H   0  0  0  0  0  0  0  0  0  0  0  0
  139.0564   68.1766  226.7495 H   0  0  0  0  0  0  0  0  0  0  0  0
  139.8315   68.9125  228.9755 H   0  0  0  0  0  0  0  0  0  0  0  0
  141.0324   71.0938  229.2077 H   0  0  0  0  0  0  0  0  0  0  0  0
  141.4190   72.4722  227.1899 H   0  0  0  0  0  0  0  0  0  0  0  0
  1  2  2  0
  2  3  1  0
  3  4  1  0
  4  5  1  0
  5  6  2  0
  5  7  1  0
  7  8  1  0
  8  9  1  0
  9 10  1  0
 10 11  1  0
 11 12  1  0
 12 13  1  0
 13 14  1  0
 14 15  1  0
 15 16  1  0
 16 17  1  0
  2 18  1  0
 18 19  2  0
 19 20  1  0
 20 21  2  0
 21 22  1  0
 22 23  2  0
 23 24  1  0
 24 25  2  0
 25 26  1  0
 26 27  2  0
 12  7  1  0
 17 13  1  0
 27 18  1  0
 26 21  1  0
  3 28  1  0
  4 29  1  0
  4 30  1  0
  8 31  1  0
  8 32  1  0
  9 33  1  0
  9 34  1  0
 10 35  1  0
 10 36  1  0
 11 37  1  0
 11 38  1  0
 12 39  1  1
 13 40  1  0
 14 41  1  0
 14 42  1  0
 15 43  1  0
 15 44  1  0
 16 45  1  0
 16 46  1  0
 17 47  1  0
 17 48  1  0
 19 49  1  0
 20 50  1  0
 22 51  1  0
 23 52  1  0
 24 53  1  0
 25 54  1  0
M  END
>  <smiles>  (61) 
O=C(NCC(=O)N1CCCCC1C1CCCC1)c1ccc2ccccc2n1

>  <score_type>  (61) 
oracle

>  <origin>  (61) 
autodockgpu

>  <m_score__min__energy>  (61) 
-9.0199999999999996

>  <m_primary>  (61) 
energy

>  <rmsd>  (61) 
1.9518493383000184

>  <m_score__min__rmsd>  (61) 
1.9518493383000184

>  <meeko>  (61) 
{"free_energy": -8.8, "intermolecular_energy": -10.29, "internal_energy": -1.69, "cluster_size": 33, "cluster_id": 1, "rank_in_cluster": 10}

>  <energy>  (61) 
-8.78

>  <cluster_rmsd>  (61) 
1.36

>  <cluster>  (61) 
1

$$$$

     RDKit          3D

 54 57  0  0  0  0  0  0  0  0999 V2000
  140.5700   71.5460  221.2630 O   0  0  0  0  0  0  0  0  0  0  0  0
  140.2040   72.1350  222.3360 C   0  0  0  0  0  0  0  0  0  0  0  0
  139.8650   73.5210  222.3440 N   0  0  0  0  0  0  0  0  0  0  0  0
  139.9270   74.3050  221.1250 C   0  0  0  0  0  0  0  0  0  0  0  0
  140.4870   75.6450  221.3570 C   0  0  0  0  0  0  0  0  0  0  0  0
  141.6440   75.8860  220.9260 O   0  0  0  0  0  0  0  0  0  0  0  0
  139.6920   76.5910  222.0540 N   0  0  0  0  0  0  0  0  0  0  0  0
  138.4790   76.2280  222.7780 C   0  0  0  0  0  0  0  0  0  0  0  0
  137.3670   76.9760  222.1000 C   0  0  0  0  0  0  0  0  0  0  0  0
  137.6010   78.4550  222.3150 C   0  0  0  0  0  0  0  0  0  0  0  0
  138.9660   78.7610  222.8590 C   0  0  0  0  0  0  0  0  0  0  0  0
  140.0370   78.0200  222.0960 C   0  0  1  0  0  0  0  0  0  0  0  0
  141.3880   78.2620  222.6590 C   0  0  0  0  0  0  0  0  0  0  0  0
  141.4020   78.9330  223.9900 C   0  0  0  0  0  0  0  0  0  0  0  0
  142.1530   80.2550  223.8050 C   0  0  0  0  0  0  0  0  0  0  0  0
  142.3080   80.4730  222.3330 C   0  0  0  0  0  0  0  0  0  0  0  0
  142.1690   79.1090  221.7040 C   0  0  0  0  0  0  0  0  0  0  0  0
  140.1330   71.3730  223.5780 C   0  0  0  0  0  0  0  0  0  0  0  0
  139.5670   70.1200  223.5970 C   0  0  0  0  0  0  0  0  0  0  0  0
  139.4940   69.3850  224.7840 C   0  0  0  0  0  0  0  0  0  0  0  0
  140.0100   69.9500  225.9510 C   0  0  0  0  0  0  0  0  0  0  0  0
  139.9780   69.2930  227.1620 C   0  0  0  0  0  0  0  0  0  0  0  0
  140.4900   69.8590  228.3130 C   0  0  0  0  0  0  0  0  0  0  0  0
  141.0520   71.1230  228.2570 C   0  0  0  0  0  0  0  0  0  0  0  0
  141.0830   71.7780  227.0440 C   0  0  0  0  0  0  0  0  0  0  0  0
  140.5720   71.2140  225.8940 C   0  0  0  0  0  0  0  0  0  0  0  0
  140.6240   71.8940  224.7280 N   0  0  0  0  0  0  0  0  0  0  0  0
  139.5720   73.9320  223.2730 H   0  0  0  0  0  0  0  0  0  0  0  0
  140.5596   73.7776  220.3958 H   0  0  0  0  0  0  0  0  0  0  0  0
  138.9008   74.4273  220.7483 H   0  0  0  0  0  0  0  0  0  0  0  0
  138.3054   75.1435  222.7175 H   0  0  0  0  0  0  0  0  0  0  0  0
  138.5499   76.4825  223.8458 H   0  0  0  0  0  0  0  0  0  0  0  0
  137.3672   76.7504  221.0234 H   0  0  0  0  0  0  0  0  0  0  0  0
  136.3944   76.6777  222.5185 H   0  0  0  0  0  0  0  0  0  0  0  0
  137.4841   78.9719  221.3511 H   0  0  0  0  0  0  0  0  0  0  0  0
  136.8665   78.7992  223.0580 H   0  0  0  0  0  0  0  0  0  0  0  0
  139.1505   79.8423  222.7774 H   0  0  0  0  0  0  0  0  0  0  0  0
  139.0019   78.4393  223.9103 H   0  0  0  0  0  0  0  0  0  0  0  0
  140.0773   78.4022  221.0653 H   0  0  0  0  0  0  0  0  0  0  0  0
  141.8311   77.2658  222.8047 H   0  0  0  0  0  0  0  0  0  0  0  0
  140.3734   79.1250  224.3292 H   0  0  0  0  0  0  0  0  0  0  0  0
  141.8898   78.3020  224.7476 H   0  0  0  0  0  0  0  0  0  0  0  0
  141.5781   81.0806  224.2498 H   0  0  0  0  0  0  0  0  0  0  0  0
  143.1346   80.2193  224.3001 H   0  0  0  0  0  0  0  0  0  0  0  0
  141.5245   81.1493  221.9604 H   0  0  0  0  0  0  0  0  0  0  0  0
  143.2754   80.9366  222.0899 H   0  0  0  0  0  0  0  0  0  0  0  0
  141.6347   79.1880  220.7457 H   0  0  0  0  0  0  0  0  0  0  0  0
  143.1564   78.6667  221.5055 H   0  0  0  0  0  0  0  0  0  0  0  0
  139.1667   69.6906  222.6667 H   0  0  0  0  0  0  0  0  0  0  0  0
  139.0398   68.3833  224.7977 H   0  0  0  0  0  0  0  0  0  0  0  0
  139.5318   68.2889  227.2133 H   0  0  0  0  0  0  0  0  0  0  0  0
  140.4516   69.3104  229.2657 H   0  0  0  0  0  0  0  0  0  0  0  0
  141.4650   71.5947  229.1609 H   0  0  0  0  0  0  0  0  0  0  0  0
  141.5294   72.7820  226.9920 H   0  0  0  0  0  0  0  0  0  0  0  0
  1  2  2  0
  2  3  1  0
  3  4  1  0
  4  5  1  0
  5  6  2  0
  5  7  1  0
  7  8  1  0
  8  9  1  0
  9 10  1  0
 10 11  1  0
 11 12  1  0
 12 13  1  0
 13 14  1  0
 14 15  1  0
 15 16  1  0
 16 17  1  0
  2 18  1  0
 18 19  2  0
 19 20  1  0
 20 21  2  0
 21 22  1  0
 22 23  2  0
 23 24  1  0
 24 25  2  0
 25 26  1  0
 26 27  2  0
 12  7  1  0
 17 13  1  0
 27 18  1  0
 26 21  1  0
  3 28  1  0
  4 29  1  0
  4 30  1  0
  8 31  1  0
  8 32  1  0
  9 33  1  0
  9 34  1  0
 10 35  1  0
 10 36  1  0
 11 37  1  0
 11 38  1  0
 12 39  1  6
 13 40  1  0
 14 41  1  0
 14 42  1  0
 15 43  1  0
 15 44  1  0
 16 45  1  0
 16 46  1  0
 17 47  1  0
 17 48  1  0
 19 49  1  0
 20 50  1  0
 22 51  1  0
 23 52  1  0
 24 53  1  0
 25 54  1  0
M  END
>  <smiles>  (62) 
O=C(NCC(=O)N1CCCCC1C1CCCC1)c1ccc2ccccc2n1

>  <score_type>  (62) 
oracle

>  <origin>  (62) 
autodockgpu

>  <m_score__min__energy>  (62) 
-9.0199999999999996

>  <m_primary>  (62) 
energy

>  <rmsd>  (62) 
3.04405032158353

>  <m_score__min__rmsd>  (62) 
3.04405032158353

>  <meeko>  (62) 
{"free_energy": -8.9, "intermolecular_energy": -10.39, "internal_energy": -1.42, "cluster_size": 33, "cluster_id": 1, "rank_in_cluster": 6}

>  <energy>  (62) 
-8.78

>  <cluster_rmsd>  (62) 
1.37

>  <cluster>  (62) 
1

$$$$

     RDKit          3D

 54 57  0  0  0  0  0  0  0  0999 V2000
  140.7780   73.8700  220.2860 O   0  0  0  0  0  0  0  0  0  0  0  0
  140.4210   74.6200  221.2560 C   0  0  0  0  0  0  0  0  0  0  0  0
  139.5710   74.1360  222.2950 N   0  0  0  0  0  0  0  0  0  0  0  0
  139.0860   72.7690  222.2770 C   0  0  0  0  0  0  0  0  0  0  0  0
  139.8760   71.8890  223.1510 C   0  0  0  0  0  0  0  0  0  0  0  0
  141.0730   72.2040  223.3820 O   0  0  0  0  0  0  0  0  0  0  0  0
  139.2480   70.7340  223.6840 N   0  0  0  0  0  0  0  0  0  0  0  0
  138.5980   69.7290  222.8510 C   0  0  0  0  0  0  0  0  0  0  0  0
  137.1540   69.7370  223.2640 C   0  0  0  0  0  0  0  0  0  0  0  0
  137.0770   69.2610  224.6980 C   0  0  0  0  0  0  0  0  0  0  0  0
  138.4170   69.2020  225.3700 C   0  0  0  0  0  0  0  0  0  0  0  0
  139.2060   70.4660  225.1290 C   0  0  1  0  0  0  0  0  0  0  0  0
  140.5580   70.4020  225.7360 C   0  0  0  0  0  0  0  0  0  0  0  0
  140.7680   69.2680  226.6800 C   0  0  0  0  0  0  0  0  0  0  0  0
  141.0970   69.8890  228.0410 C   0  0  0  0  0  0  0  0  0  0  0  0
  140.7920   71.3500  227.9470 C   0  0  0  0  0  0  0  0  0  0  0  0
  140.8230   71.6760  226.4730 C   0  0  0  0  0  0  0  0  0  0  0  0
  140.8920   76.0000  221.3010 C   0  0  0  0  0  0  0  0  0  0  0  0
  141.4110   76.5980  220.1770 C   0  0  0  0  0  0  0  0  0  0  0  0
  141.8650   77.9200  220.2140 C   0  0  0  0  0  0  0  0  0  0  0  0
  141.7800   78.6210  221.4170 C   0  0  0  0  0  0  0  0  0  0  0  0
  142.2040   79.9270  221.5390 C   0  0  0  0  0  0  0  0  0  0  0  0
  142.1160   80.6140  222.7330 C   0  0  0  0  0  0  0  0  0  0  0  0
  141.5870   79.9810  223.8450 C   0  0  0  0  0  0  0  0  0  0  0  0
  141.1630   78.6740  223.7200 C   0  0  0  0  0  0  0  0  0  0  0  0
  141.2510   77.9870  222.5280 C   0  0  0  0  0  0  0  0  0  0  0  0
  140.8220   76.7080  222.4550 N   0  0  0  0  0  0  0  0  0  0  0  0
  139.3220   74.8200  223.0610 H   0  0  0  0  0  0  0  0  0  0  0  0
  138.0398   72.7595  222.6167 H   0  0  0  0  0  0  0  0  0  0  0  0
  139.1754   72.3919  221.2475 H   0  0  0  0  0  0  0  0  0  0  0  0
  138.6948   69.9907  221.7870 H   0  0  0  0  0  0  0  0  0  0  0  0
  139.0534   68.7360  222.9799 H   0  0  0  0  0  0  0  0  0  0  0  0
  136.7489   70.7568  223.1866 H   0  0  0  0  0  0  0  0  0  0  0  0
  136.5650   69.0776  222.6096 H   0  0  0  0  0  0  0  0  0  0  0  0
  136.4323   69.9511  225.2620 H   0  0  0  0  0  0  0  0  0  0  0  0
  136.6715   68.2386  224.6834 H   0  0  0  0  0  0  0  0  0  0  0  0
  138.2699   69.0720  226.4523 H   0  0  0  0  0  0  0  0  0  0  0  0
  138.9798   68.3553  224.9499 H   0  0  0  0  0  0  0  0  0  0  0  0
  138.7031   71.3075  225.6279 H   0  0  0  0  0  0  0  0  0  0  0  0
  141.2521   70.2451  224.8972 H   0  0  0  0  0  0  0  0  0  0  0  0
  139.8548   68.6589  226.7512 H   0  0  0  0  0  0  0  0  0  0  0  0
  141.5801   68.6102  226.3366 H   0  0  0  0  0  0  0  0  0  0  0  0
  140.4809   69.4253  228.8255 H   0  0  0  0  0  0  0  0  0  0  0  0
  142.1541   69.7270  228.2983 H   0  0  0  0  0  0  0  0  0  0  0  0
  139.7977   71.5627  228.3667 H   0  0  0  0  0  0  0  0  0  0  0  0
  141.5156   71.9546  228.5134 H   0  0  0  0  0  0  0  0  0  0  0  0
  140.0473   72.4185  226.2343 H   0  0  0  0  0  0  0  0  0  0  0  0
  141.7967   72.0996  226.1858 H   0  0  0  0  0  0  0  0  0  0  0  0
  141.4698   76.0295  219.2371 H   0  0  0  0  0  0  0  0  0  0  0  0
  142.2802   78.3969  219.3139 H   0  0  0  0  0  0  0  0  0  0  0  0
  142.6246   80.4364  220.6594 H   0  0  0  0  0  0  0  0  0  0  0  0
  142.4632   81.6556  222.8005 H   0  0  0  0  0  0  0  0  0  0  0  0
  141.5066   80.5085  224.8069 H   0  0  0  0  0  0  0  0  0  0  0  0
  140.7415   78.1642  224.5989 H   0  0  0  0  0  0  0  0  0  0  0  0
  1  2  2  0
  2  3  1  0
  3  4  1  0
  4  5  1  0
  5  6  2  0
  5  7  1  0
  7  8  1  0
  8  9  1  0
  9 10  1  0
 10 11  1  0
 11 12  1  0
 12 13  1  0
 13 14  1  0
 14 15  1  0
 15 16  1  0
 16 17  1  0
  2 18  1  0
 18 19  2  0
 19 20  1  0
 20 21  2  0
 21 22  1  0
 22 23  2  0
 23 24  1  0
 24 25  2  0
 25 26  1  0
 26 27  2  0
 12  7  1  0
 17 13  1  0
 27 18  1  0
 26 21  1  0
  3 28  1  0
  4 29  1  0
  4 30  1  0
  8 31  1  0
  8 32  1  0
  9 33  1  0
  9 34  1  0
 10 35  1  0
 10 36  1  0
 11 37  1  0
 11 38  1  0
 12 39  1  1
 13 40  1  0
 14 41  1  0
 14 42  1  0
 15 43  1  0
 15 44  1  0
 16 45  1  0
 16 46  1  0
 17 47  1  0
 17 48  1  0
 19 49  1  0
 20 50  1  0
 22 51  1  0
 23 52  1  0
 24 53  1  0
 25 54  1  0
M  END
>  <smiles>  (63) 
O=C(NCC(=O)N1CCCCC1C1CCCC1)c1ccc2ccccc2n1

>  <score_type>  (63) 
oracle

>  <origin>  (63) 
autodockgpu

>  <m_score__min__energy>  (63) 
-9.0199999999999996

>  <m_primary>  (63) 
energy

>  <rmsd>  (63) 
8.417461982955079

>  <m_score__min__rmsd>  (63) 
8.417461982955079

>  <meeko>  (63) 
{"free_energy": -8.6, "intermolecular_energy": -10.09, "internal_energy": -1.6, "cluster_size": 8, "cluster_id": 2, "rank_in_cluster": 4}

>  <energy>  (63) 
-8.76

>  <cluster_rmsd>  (63) 
1.41

>  <cluster>  (63) 
1

$$$$

     RDKit          3D

 54 57  0  0  0  0  0  0  0  0999 V2000
  141.3020   72.0130  221.6250 O   0  0  0  0  0  0  0  0  0  0  0  0
  140.4200   72.3450  222.4870 C   0  0  0  0  0  0  0  0  0  0  0  0
  139.6300   73.5230  222.3240 N   0  0  0  0  0  0  0  0  0  0  0  0
  139.8100   74.3800  221.1680 C   0  0  0  0  0  0  0  0  0  0  0  0
  140.0590   75.7780  221.5490 C   0  0  0  0  0  0  0  0  0  0  0  0
  139.7640   76.1350  222.7190 O   0  0  0  0  0  0  0  0  0  0  0  0
  140.6170   76.6480  220.5770 N   0  0  0  0  0  0  0  0  0  0  0  0
  140.3650   76.5060  219.1470 C   0  0  0  0  0  0  0  0  0  0  0  0
  141.7060   76.2380  218.5270 C   0  0  0  0  0  0  0  0  0  0  0  0
  142.5630   77.4700  218.7190 C   0  0  0  0  0  0  0  0  0  0  0  0
  141.9700   78.4530  219.6860 C   0  0  0  0  0  0  0  0  0  0  0  0
  141.4990   77.7660  220.9450 C   0  0  1  0  0  0  0  0  0  0  0  0
  140.8540   78.7130  221.8870 C   0  0  0  0  0  0  0  0  0  0  0  0
  140.9150   80.1440  221.4760 C   0  0  0  0  0  0  0  0  0  0  0  0
  141.6910   80.8810  222.5730 C   0  0  0  0  0  0  0  0  0  0  0  0
  142.3160   79.8400  223.4470 C   0  0  0  0  0  0  0  0  0  0  0  0
  141.5060   78.5860  223.2280 C   0  0  0  0  0  0  0  0  0  0  0  0
  140.2170   71.5030  223.6610 C   0  0  0  0  0  0  0  0  0  0  0  0
  139.5500   70.3050  223.5540 C   0  0  0  0  0  0  0  0  0  0  0  0
  139.3520   69.4940  224.6760 C   0  0  0  0  0  0  0  0  0  0  0  0
  139.8460   69.9260  225.9070 C   0  0  0  0  0  0  0  0  0  0  0  0
  139.6930   69.1870  227.0600 C   0  0  0  0  0  0  0  0  0  0  0  0
  140.1850   69.6210  228.2750 C   0  0  0  0  0  0  0  0  0  0  0  0
  140.8510   70.8330  228.3450 C   0  0  0  0  0  0  0  0  0  0  0  0
  141.0030   71.5700  227.1900 C   0  0  0  0  0  0  0  0  0  0  0  0
  140.5120   71.1370  225.9760 C   0  0  0  0  0  0  0  0  0  0  0  0
  140.6850   71.8950  224.8710 N   0  0  0  0  0  0  0  0  0  0  0  0
  138.9230   73.7270  223.0820 H   0  0  0  0  0  0  0  0  0  0  0  0
  140.6675   74.0133  220.5847 H   0  0  0  0  0  0  0  0  0  0  0  0
  138.8829   74.3502  220.5767 H   0  0  0  0  0  0  0  0  0  0  0  0
  139.6800   75.6661  218.9591 H   0  0  0  0  0  0  0  0  0  0  0  0
  139.8931   77.4055  218.7249 H   0  0  0  0  0  0  0  0  0  0  0  0
  142.1784   75.3742  219.0176 H   0  0  0  0  0  0  0  0  0  0  0  0
  141.5943   76.0126  217.4561 H   0  0  0  0  0  0  0  0  0  0  0  0
  143.5473   77.1567  219.0972 H   0  0  0  0  0  0  0  0  0  0  0  0
  142.6386   77.9731  217.7437 H   0  0  0  0  0  0  0  0  0  0  0  0
  142.7322   79.2011  219.9495 H   0  0  0  0  0  0  0  0  0  0  0  0
  141.1039   78.9328  219.2069 H   0  0  0  0  0  0  0  0  0  0  0  0
  142.3688   77.3646  221.4857 H   0  0  0  0  0  0  0  0  0  0  0  0
  139.7895   78.4362  221.9043 H   0  0  0  0  0  0  0  0  0  0  0  0
  141.4362   80.2403  220.5121 H   0  0  0  0  0  0  0  0  0  0  0  0
  139.9063   80.5649  221.3521 H   0  0  0  0  0  0  0  0  0  0  0  0
  142.4706   81.5134  222.1233 H   0  0  0  0  0  0  0  0  0  0  0  0
  141.0216   81.5305  223.1562 H   0  0  0  0  0  0  0  0  0  0  0  0
  143.3645   79.6751  223.1580 H   0  0  0  0  0  0  0  0  0  0  0  0
  142.3175   80.1439  224.5042 H   0  0  0  0  0  0  0  0  0  0  0  0
  142.1632   77.7041  223.2462 H   0  0  0  0  0  0  0  0  0  0  0  0
  140.7526   78.4628  224.0200 H   0  0  0  0  0  0  0  0  0  0  0  0
  139.1679   69.9810  222.5747 H   0  0  0  0  0  0  0  0  0  0  0  0
  138.8182   68.5361  224.5897 H   0  0  0  0  0  0  0  0  0  0  0  0
  139.1638   68.2239  227.0111 H   0  0  0  0  0  0  0  0  0  0  0  0
  140.0491   69.0094  229.1792 H   0  0  0  0  0  0  0  0  0  0  0  0
  141.2503   71.1999  229.3020 H   0  0  0  0  0  0  0  0  0  0  0  0
  141.5322   72.5331  227.2380 H   0  0  0  0  0  0  0  0  0  0  0  0
  1  2  2  0
  2  3  1  0
  3  4  1  0
  4  5  1  0
  5  6  2  0
  5  7  1  0
  7  8  1  0
  8  9  1  0
  9 10  1  0
 10 11  1  0
 11 12  1  0
 12 13  1  0
 13 14  1  0
 14 15  1  0
 15 16  1  0
 16 17  1  0
  2 18  1  0
 18 19  2  0
 19 20  1  0
 20 21  2  0
 21 22  1  0
 22 23  2  0
 23 24  1  0
 24 25  2  0
 25 26  1  0
 26 27  2  0
 12  7  1  0
 17 13  1  0
 27 18  1  0
 26 21  1  0
  3 28  1  0
  4 29  1  0
  4 30  1  0
  8 31  1  0
  8 32  1  0
  9 33  1  0
  9 34  1  0
 10 35  1  0
 10 36  1  0
 11 37  1  0
 11 38  1  0
 12 39  1  1
 13 40  1  0
 14 41  1  0
 14 42  1  0
 15 43  1  0
 15 44  1  0
 16 45  1  0
 16 46  1  0
 17 47  1  0
 17 48  1  0
 19 49  1  0
 20 50  1  0
 22 51  1  0
 23 52  1  0
 24 53  1  0
 25 54  1  0
M  END
>  <smiles>  (64) 
O=C(NCC(=O)N1CCCCC1C1CCCC1)c1ccc2ccccc2n1

>  <score_type>  (64) 
oracle

>  <origin>  (64) 
autodockgpu

>  <m_score__min__energy>  (64) 
-9.0199999999999996

>  <m_primary>  (64) 
energy

>  <rmsd>  (64) 
1.767699905472533

>  <m_score__min__rmsd>  (64) 
1.767699905472533

>  <meeko>  (64) 
{"free_energy": -8.88, "intermolecular_energy": -10.37, "internal_energy": -1.46, "cluster_size": 33, "cluster_id": 1, "rank_in_cluster": 7}

>  <energy>  (64) 
-8.76

>  <cluster_rmsd>  (64) 
1.34

>  <cluster>  (64) 
1

$$$$

     RDKit          3D

 54 57  0  0  0  0  0  0  0  0999 V2000
  141.5200   72.1690  221.6240 O   0  0  0  0  0  0  0  0  0  0  0  0
  140.6130   72.4920  222.4640 C   0  0  0  0  0  0  0  0  0  0  0  0
  139.8990   73.7220  222.3500 N   0  0  0  0  0  0  0  0  0  0  0  0
  140.1870   74.6470  221.2700 C   0  0  0  0  0  0  0  0  0  0  0  0
  139.6310   75.9850  221.5240 C   0  0  0  0  0  0  0  0  0  0  0  0
  138.6690   76.0840  222.3290 O   0  0  0  0  0  0  0  0  0  0  0  0
  140.2100   77.0890  220.8470 N   0  0  0  0  0  0  0  0  0  0  0  0
  139.8600   77.4530  219.4790 C   0  0  0  0  0  0  0  0  0  0  0  0
  141.1300   77.3160  218.6890 C   0  0  0  0  0  0  0  0  0  0  0  0
  142.1090   78.3500  219.2000 C   0  0  0  0  0  0  0  0  0  0  0  0
  141.6720   78.9900  220.4840 C   0  0  0  0  0  0  0  0  0  0  0  0
  141.2150   77.9550  221.4830 C   0  0  1  0  0  0  0  0  0  0  0  0
  140.7200   78.5730  222.7380 C   0  0  0  0  0  0  0  0  0  0  0  0
  140.1190   79.9270  222.5740 C   0  0  0  0  0  0  0  0  0  0  0  0
  140.9670   80.8860  223.4160 C   0  0  0  0  0  0  0  0  0  0  0  0
  142.2040   80.1460  223.8180 C   0  0  0  0  0  0  0  0  0  0  0  0
  141.8550   78.6820  223.7070 C   0  0  0  0  0  0  0  0  0  0  0  0
  140.3020   71.5830  223.5620 C   0  0  0  0  0  0  0  0  0  0  0  0
  139.6210   70.4110  223.3270 C   0  0  0  0  0  0  0  0  0  0  0  0
  139.3200   69.5360  224.3750 C   0  0  0  0  0  0  0  0  0  0  0  0
  139.7250   69.8760  225.6660 C   0  0  0  0  0  0  0  0  0  0  0  0
  139.4680   69.0700  226.7540 C   0  0  0  0  0  0  0  0  0  0  0  0
  139.8730   69.4140  228.0280 C   0  0  0  0  0  0  0  0  0  0  0  0
  140.5560   70.6010  228.2280 C   0  0  0  0  0  0  0  0  0  0  0  0
  140.8120   71.4060  227.1380 C   0  0  0  0  0  0  0  0  0  0  0  0
  140.4080   71.0640  225.8640 C   0  0  0  0  0  0  0  0  0  0  0  0
  140.6820   71.8850  224.8270 N   0  0  0  0  0  0  0  0  0  0  0  0
  139.1650   73.9140  223.0860 H   0  0  0  0  0  0  0  0  0  0  0  0
  141.2779   74.7318  221.1572 H   0  0  0  0  0  0  0  0  0  0  0  0
  139.7202   74.2546  220.3545 H   0  0  0  0  0  0  0  0  0  0  0  0
  139.0881   76.7747  219.0864 H   0  0  0  0  0  0  0  0  0  0  0  0
  139.4512   78.4725  219.4202 H   0  0  0  0  0  0  0  0  0  0  0  0
  141.5473   76.3072  218.8241 H   0  0  0  0  0  0  0  0  0  0  0  0
  140.9336   77.4706  217.6178 H   0  0  0  0  0  0  0  0  0  0  0  0
  143.0802   77.8608  219.3655 H   0  0  0  0  0  0  0  0  0  0  0  0
  142.1719   79.1448  218.4422 H   0  0  0  0  0  0  0  0  0  0  0  0
  142.5163   79.5516  220.9103 H   0  0  0  0  0  0  0  0  0  0  0  0
  140.8281   79.6618  220.2683 H   0  0  0  0  0  0  0  0  0  0  0  0
  142.0743   77.3368  221.7821 H   0  0  0  0  0  0  0  0  0  0  0  0
  139.9161   77.9139  223.0977 H   0  0  0  0  0  0  0  0  0  0  0  0
  140.1432   80.2276  221.5162 H   0  0  0  0  0  0  0  0  0  0  0  0
  139.0680   79.9370  222.8984 H   0  0  0  0  0  0  0  0  0  0  0  0
  141.2344   81.7728  222.8226 H   0  0  0  0  0  0  0  0  0  0  0  0
  140.4097   81.2252  224.3016 H   0  0  0  0  0  0  0  0  0  0  0  0
  143.0365   80.3945  223.1433 H   0  0  0  0  0  0  0  0  0  0  0  0
  142.5248   80.4120  224.8360 H   0  0  0  0  0  0  0  0  0  0  0  0
  142.7220   78.1143  223.3382 H   0  0  0  0  0  0  0  0  0  0  0  0
  141.5736   78.2709  224.6877 H   0  0  0  0  0  0  0  0  0  0  0  0
  139.3096   70.1594  222.3024 H   0  0  0  0  0  0  0  0  0  0  0  0
  138.7754   68.5993  224.1857 H   0  0  0  0  0  0  0  0  0  0  0  0
  138.9246   68.1256  226.6028 H   0  0  0  0  0  0  0  0  0  0  0  0
  139.6547   68.7501  228.8774 H   0  0  0  0  0  0  0  0  0  0  0  0
  140.8874   70.8959  229.2346 H   0  0  0  0  0  0  0  0  0  0  0  0
  141.3554   72.3504  227.2891 H   0  0  0  0  0  0  0  0  0  0  0  0
  1  2  2  0
  2  3  1  0
  3  4  1  0
  4  5  1  0
  5  6  2  0
  5  7  1  0
  7  8  1  0
  8  9  1  0
  9 10  1  0
 10 11  1  0
 11 12  1  0
 12 13  1  0
 13 14  1  0
 14 15  1  0
 15 16  1  0
 16 17  1  0
  2 18  1  0
 18 19  2  0
 19 20  1  0
 20 21  2  0
 21 22  1  0
 22 23  2  0
 23 24  1  0
 24 25  2  0
 25 26  1  0
 26 27  2  0
 12  7  1  0
 17 13  1  0
 27 18  1  0
 26 21  1  0
  3 28  1  0
  4 29  1  0
  4 30  1  0
  8 31  1  0
  8 32  1  0
  9 33  1  0
  9 34  1  0
 10 35  1  0
 10 36  1  0
 11 37  1  0
 11 38  1  0
 12 39  1  1
 13 40  1  0
 14 41  1  0
 14 42  1  0
 15 43  1  0
 15 44  1  0
 16 45  1  0
 16 46  1  0
 17 47  1  0
 17 48  1  0
 19 49  1  0
 20 50  1  0
 22 51  1  0
 23 52  1  0
 24 53  1  0
 25 54  1  0
M  END
>  <smiles>  (65) 
O=C(NCC(=O)N1CCCCC1C1CCCC1)c1ccc2ccccc2n1

>  <score_type>  (65) 
oracle

>  <origin>  (65) 
autodockgpu

>  <m_score__min__energy>  (65) 
-9.0199999999999996

>  <m_primary>  (65) 
energy

>  <rmsd>  (65) 
2.1462151855990954

>  <m_score__min__rmsd>  (65) 
2.1462151855990954

>  <meeko>  (65) 
{"free_energy": -8.63, "intermolecular_energy": -10.12, "internal_energy": -1.71, "cluster_size": 33, "cluster_id": 1, "rank_in_cluster": 24}

>  <energy>  (65) 
-8.74

>  <cluster_rmsd>  (65) 
1.41

>  <cluster>  (65) 
1

$$$$

     RDKit          3D

 54 57  0  0  0  0  0  0  0  0999 V2000
  140.7420   71.3360  221.3080 O   0  0  0  0  0  0  0  0  0  0  0  0
  140.2990   71.9440  222.3410 C   0  0  0  0  0  0  0  0  0  0  0  0
  139.9900   73.3360  222.3080 N   0  0  0  0  0  0  0  0  0  0  0  0
  140.1740   74.1060  221.0920 C   0  0  0  0  0  0  0  0  0  0  0  0
  140.9410   75.3380  221.3270 C   0  0  0  0  0  0  0  0  0  0  0  0
  140.6800   76.0110  222.3580 O   0  0  0  0  0  0  0  0  0  0  0  0
  141.9320   75.7020  220.3790 N   0  0  0  0  0  0  0  0  0  0  0  0
  142.1640   77.0800  219.9630 C   0  0  0  0  0  0  0  0  0  0  0  0
  141.8710   77.1100  218.4900 C   0  0  0  0  0  0  0  0  0  0  0  0
  142.8980   76.2440  217.7930 C   0  0  0  0  0  0  0  0  0  0  0  0
  143.6970   75.4010  218.7420 C   0  0  0  0  0  0  0  0  0  0  0  0
  142.8030   74.7040  219.7400 C   0  0  1  0  0  0  0  0  0  0  0  0
  143.5810   73.9140  220.7250 C   0  0  0  0  0  0  0  0  0  0  0  0
  145.0450   74.1920  220.7360 C   0  0  0  0  0  0  0  0  0  0  0  0
  145.7420   72.8750  220.3790 C   0  0  0  0  0  0  0  0  0  0  0  0
  144.6880   71.9360  219.8850 C   0  0  0  0  0  0  0  0  0  0  0  0
  143.3870   72.4570  220.4440 C   0  0  0  0  0  0  0  0  0  0  0  0
  140.1040   71.1960  223.5790 C   0  0  0  0  0  0  0  0  0  0  0  0
  139.5210   69.9520  223.5590 C   0  0  0  0  0  0  0  0  0  0  0  0
  139.3300   69.2310  224.7420 C   0  0  0  0  0  0  0  0  0  0  0  0
  139.7470   69.8020  225.9450 C   0  0  0  0  0  0  0  0  0  0  0  0
  139.5970   69.1590  227.1550 C   0  0  0  0  0  0  0  0  0  0  0  0
  140.0120   69.7300  228.3410 C   0  0  0  0  0  0  0  0  0  0  0  0
  140.5960   70.9850  228.3240 C   0  0  0  0  0  0  0  0  0  0  0  0
  140.7450   71.6270  227.1120 C   0  0  0  0  0  0  0  0  0  0  0  0
  140.3310   71.0570  225.9270 C   0  0  0  0  0  0  0  0  0  0  0  0
  140.4980   71.7240  224.7640 N   0  0  0  0  0  0  0  0  0  0  0  0
  139.6280   73.7630  223.2040 H   0  0  0  0  0  0  0  0  0  0  0  0
  140.7126   73.4875  220.3589 H   0  0  0  0  0  0  0  0  0  0  0  0
  139.1795   74.3926  220.7194 H   0  0  0  0  0  0  0  0  0  0  0  0
  141.4913   77.7628  220.5026 H   0  0  0  0  0  0  0  0  0  0  0  0
  143.1923   77.4042  220.1809 H   0  0  0  0  0  0  0  0  0  0  0  0
  140.8611   76.7167  218.3019 H   0  0  0  0  0  0  0  0  0  0  0  0
  141.9193   78.1415  218.1109 H   0  0  0  0  0  0  0  0  0  0  0  0
  142.3759   75.5796  217.0888 H   0  0  0  0  0  0  0  0  0  0  0  0
  143.6009   76.9167  217.2798 H   0  0  0  0  0  0  0  0  0  0  0  0
  144.2529   74.6444  218.1688 H   0  0  0  0  0  0  0  0  0  0  0  0
  144.3882   76.0564  219.2922 H   0  0  0  0  0  0  0  0  0  0  0  0
  142.1721   73.9730  219.2131 H   0  0  0  0  0  0  0  0  0  0  0  0
  143.1974   74.2114  221.7121 H   0  0  0  0  0  0  0  0  0  0  0  0
  145.2903   74.9651  219.9929 H   0  0  0  0  0  0  0  0  0  0  0  0
  145.3720   74.5606  221.7195 H   0  0  0  0  0  0  0  0  0  0  0  0
  146.4921   73.0467  219.5929 H   0  0  0  0  0  0  0  0  0  0  0  0
  146.2579   72.4563  221.2557 H   0  0  0  0  0  0  0  0  0  0  0  0
  144.6602   71.9340  218.7853 H   0  0  0  0  0  0  0  0  0  0  0  0
  144.8827   70.9012  220.2034 H   0  0  0  0  0  0  0  0  0  0  0  0
  142.5788   72.3185  219.7107 H   0  0  0  0  0  0  0  0  0  0  0  0
  143.1095   71.9151  221.3602 H   0  0  0  0  0  0  0  0  0  0  0  0
  139.2005   69.5177  222.6005 H   0  0  0  0  0  0  0  0  0  0  0  0
  138.8615   68.2359  224.7246 H   0  0  0  0  0  0  0  0  0  0  0  0
  139.1331   68.1618  227.1760 H   0  0  0  0  0  0  0  0  0  0  0  0
  139.8798   69.1925  229.2916 H   0  0  0  0  0  0  0  0  0  0  0  0
  140.9340   71.4601  229.2568 H   0  0  0  0  0  0  0  0  0  0  0  0
  141.2084   72.6244  227.0905 H   0  0  0  0  0  0  0  0  0  0  0  0
  1  2  2  0
  2  3  1  0
  3  4  1  0
  4  5  1  0
  5  6  2  0
  5  7  1  0
  7  8  1  0
  8  9  1  0
  9 10  1  0
 10 11  1  0
 11 12  1  0
 12 13  1  0
 13 14  1  0
 14 15  1  0
 15 16  1  0
 16 17  1  0
  2 18  1  0
 18 19  2  0
 19 20  1  0
 20 21  2  0
 21 22  1  0
 22 23  2  0
 23 24  1  0
 24 25  2  0
 25 26  1  0
 26 27  2  0
 12  7  1  0
 17 13  1  0
 27 18  1  0
 26 21  1  0
  3 28  1  0
  4 29  1  0
  4 30  1  0
  8 31  1  0
  8 32  1  0
  9 33  1  0
  9 34  1  0
 10 35  1  0
 10 36  1  0
 11 37  1  0
 11 38  1  0
 12 39  1  6
 13 40  1  0
 14 41  1  0
 14 42  1  0
 15 43  1  0
 15 44  1  0
 16 45  1  0
 16 46  1  0
 17 47  1  0
 17 48  1  0
 19 49  1  0
 20 50  1  0
 22 51  1  0
 23 52  1  0
 24 53  1  0
 25 54  1  0
M  END
>  <smiles>  (66) 
O=C(NCC(=O)N1CCCCC1C1CCCC1)c1ccc2ccccc2n1

>  <score_type>  (66) 
oracle

>  <origin>  (66) 
autodockgpu

>  <m_score__min__energy>  (66) 
-9.0199999999999996

>  <m_primary>  (66) 
energy

>  <rmsd>  (66) 
2.376790048696452

>  <m_score__min__rmsd>  (66) 
2.376790048696452

>  <meeko>  (66) 
{"free_energy": -8.47, "intermolecular_energy": -9.97, "internal_energy": -1.92, "cluster_size": 8, "cluster_id": 3, "rank_in_cluster": 7}

>  <energy>  (66) 
-8.74

>  <cluster_rmsd>  (66) 
1.33

>  <cluster>  (66) 
1

$$$$

     RDKit          3D

 54 57  0  0  0  0  0  0  0  0999 V2000
  140.9700   71.5090  221.3640 O   0  0  0  0  0  0  0  0  0  0  0  0
  140.4300   72.0870  222.3670 C   0  0  0  0  0  0  0  0  0  0  0  0
  140.0130   73.4500  222.3020 N   0  0  0  0  0  0  0  0  0  0  0  0
  140.1920   74.2220  221.0870 C   0  0  0  0  0  0  0  0  0  0  0  0
  141.0950   75.3650  221.2860 C   0  0  0  0  0  0  0  0  0  0  0  0
  140.9860   76.0280  222.3510 O   0  0  0  0  0  0  0  0  0  0  0  0
  142.0380   75.6590  220.2670 N   0  0  0  0  0  0  0  0  0  0  0  0
  142.2690   77.0090  219.7660 C   0  0  0  0  0  0  0  0  0  0  0  0
  141.8960   76.9660  218.3110 C   0  0  0  0  0  0  0  0  0  0  0  0
  142.8690   76.0460  217.6080 C   0  0  0  0  0  0  0  0  0  0  0  0
  143.7050   75.2390  218.5570 C   0  0  0  0  0  0  0  0  0  0  0  0
  142.8570   74.6130  219.6370 C   0  0  1  0  0  0  0  0  0  0  0  0
  143.6740   73.8610  220.6200 C   0  0  0  0  0  0  0  0  0  0  0  0
  145.1090   74.2630  220.6800 C   0  0  0  0  0  0  0  0  0  0  0  0
  145.9260   73.0230  220.3040 C   0  0  0  0  0  0  0  0  0  0  0  0
  144.9700   72.0130  219.7530 C   0  0  0  0  0  0  0  0  0  0  0  0
  143.6140   72.4030  220.2910 C   0  0  0  0  0  0  0  0  0  0  0  0
  140.2370   71.3370  223.6030 C   0  0  0  0  0  0  0  0  0  0  0  0
  139.6000   70.1180  223.5880 C   0  0  0  0  0  0  0  0  0  0  0  0
  139.4120   69.3940  224.7700 C   0  0  0  0  0  0  0  0  0  0  0  0
  139.8850   69.9350  225.9660 C   0  0  0  0  0  0  0  0  0  0  0  0
  139.7400   69.2870  227.1740 C   0  0  0  0  0  0  0  0  0  0  0  0
  140.2110   69.8290  228.3530 C   0  0  0  0  0  0  0  0  0  0  0  0
  140.8470   71.0580  228.3300 C   0  0  0  0  0  0  0  0  0  0  0  0
  140.9910   71.7040  227.1210 C   0  0  0  0  0  0  0  0  0  0  0  0
  140.5210   71.1640  225.9420 C   0  0  0  0  0  0  0  0  0  0  0  0
  140.6850   71.8350  224.7810 N   0  0  0  0  0  0  0  0  0  0  0  0
  139.5750   73.8530  223.1760 H   0  0  0  0  0  0  0  0  0  0  0  0
  140.6140   73.5677  220.3100 H   0  0  0  0  0  0  0  0  0  0  0  0
  139.2092   74.6149  220.7875 H   0  0  0  0  0  0  0  0  0  0  0  0
  141.6378   77.7319  220.3036 H   0  0  0  0  0  0  0  0  0  0  0  0
  143.3126   77.3253  219.9108 H   0  0  0  0  0  0  0  0  0  0  0  0
  140.8713   76.5819  218.1992 H   0  0  0  0  0  0  0  0  0  0  0  0
  141.9394   77.9748  217.8746 H   0  0  0  0  0  0  0  0  0  0  0  0
  142.2989   75.3554  216.9692 H   0  0  0  0  0  0  0  0  0  0  0  0
  143.5536   76.6774  217.0227 H   0  0  0  0  0  0  0  0  0  0  0  0
  144.2165   74.4428  217.9962 H   0  0  0  0  0  0  0  0  0  0  0  0
  144.4353   75.9096  219.0334 H   0  0  0  0  0  0  0  0  0  0  0  0
  142.1873   73.8670  219.1843 H   0  0  0  0  0  0  0  0  0  0  0  0
  143.2405   74.0924  221.6041 H   0  0  0  0  0  0  0  0  0  0  0  0
  145.3053   75.0775  219.9672 H   0  0  0  0  0  0  0  0  0  0  0  0
  145.3779   74.6266  221.6827 H   0  0  0  0  0  0  0  0  0  0  0  0
  146.6781   73.2834  219.5447 H   0  0  0  0  0  0  0  0  0  0  0  0
  146.4537   72.6224  221.1821 H   0  0  0  0  0  0  0  0  0  0  0  0
  144.9703   72.0436  218.6534 H   0  0  0  0  0  0  0  0  0  0  0  0
  145.2454   70.9891  220.0459 H   0  0  0  0  0  0  0  0  0  0  0  0
  142.8397   72.2191  219.5317 H   0  0  0  0  0  0  0  0  0  0  0  0
  143.3614   71.8105  221.1827 H   0  0  0  0  0  0  0  0  0  0  0  0
  139.2341   69.7076  222.6352 H   0  0  0  0  0  0  0  0  0  0  0  0
  138.9023   68.4193  224.7569 H   0  0  0  0  0  0  0  0  0  0  0  0
  139.2346   68.3103  227.1992 H   0  0  0  0  0  0  0  0  0  0  0  0
  140.0819   69.2888  229.3025 H   0  0  0  0  0  0  0  0  0  0  0  0
  141.2295   71.5098  229.2571 H   0  0  0  0  0  0  0  0  0  0  0  0
  141.4965   72.6806  227.0956 H   0  0  0  0  0  0  0  0  0  0  0  0
  1  2  2  0
  2  3  1  0
  3  4  1  0
  4  5  1  0
  5  6  2  0
  5  7  1  0
  7  8  1  0
  8  9  1  0
  9 10  1  0
 10 11  1  0
 11 12  1  0
 12 13  1  0
 13 14  1  0
 14 15  1  0
 15 16  1  0
 16 17  1  0
  2 18  1  0
 18 19  2  0
 19 20  1  0
 20 21  2  0
 21 22  1  0
 22 23  2  0
 23 24  1  0
 24 25  2  0
 25 26  1  0
 26 27  2  0
 12  7  1  0
 17 13  1  0
 27 18  1  0
 26 21  1  0
  3 28  1  0
  4 29  1  0
  4 30  1  0
  8 31  1  0
  8 32  1  0
  9 33  1  0
  9 34  1  0
 10 35  1  0
 10 36  1  0
 11 37  1  0
 11 38  1  0
 12 39  1  6
 13 40  1  0
 14 41  1  0
 14 42  1  0
 15 43  1  0
 15 44  1  0
 16 45  1  0
 16 46  1  0
 17 47  1  0
 17 48  1  0
 19 49  1  0
 20 50  1  0
 22 51  1  0
 23 52  1  0
 24 53  1  0
 25 54  1  0
M  END
>  <smiles>  (67) 
O=C(NCC(=O)N1CCCCC1C1CCCC1)c1ccc2ccccc2n1

>  <score_type>  (67) 
oracle

>  <origin>  (67) 
autodockgpu

>  <m_score__min__energy>  (67) 
-9.0199999999999996

>  <m_primary>  (67) 
energy

>  <rmsd>  (67) 
2.4213048030902184

>  <m_score__min__rmsd>  (67) 
2.4213048030902184

>  <meeko>  (67) 
{"free_energy": -8.54, "intermolecular_energy": -10.03, "internal_energy": -1.84, "cluster_size": 8, "cluster_id": 3, "rank_in_cluster": 2}

>  <energy>  (67) 
-8.74

>  <cluster_rmsd>  (67) 
1.43

>  <cluster>  (67) 
1

$$$$

     RDKit          3D

 54 57  0  0  0  0  0  0  0  0999 V2000
  139.0860   71.0600  221.4750 O   0  0  0  0  0  0  0  0  0  0  0  0
  139.4060   71.6050  222.5850 C   0  0  0  0  0  0  0  0  0  0  0  0
  139.6170   73.0130  222.6880 N   0  0  0  0  0  0  0  0  0  0  0  0
  139.4740   73.8690  221.5250 C   0  0  0  0  0  0  0  0  0  0  0  0
  140.2230   75.1260  221.6690 C   0  0  0  0  0  0  0  0  0  0  0  0
  141.4710   75.0940  221.5110 O   0  0  0  0  0  0  0  0  0  0  0  0
  139.4970   76.3060  221.9780 N   0  0  0  0  0  0  0  0  0  0  0  0
  138.2610   76.2970  222.7500 C   0  0  0  0  0  0  0  0  0  0  0  0
  137.2060   76.8390  221.8270 C   0  0  0  0  0  0  0  0  0  0  0  0
  137.5470   78.2820  221.5280 C   0  0  0  0  0  0  0  0  0  0  0  0
  138.9290   78.6630  221.9690 C   0  0  0  0  0  0  0  0  0  0  0  0
  139.9450   77.6350  221.5360 C   0  0  1  0  0  0  0  0  0  0  0  0
  141.3090   77.9650  222.0170 C   0  0  0  0  0  0  0  0  0  0  0  0
  141.4050   78.2660  223.4730 C   0  0  0  0  0  0  0  0  0  0  0  0
  141.9180   79.7040  223.5890 C   0  0  0  0  0  0  0  0  0  0  0  0
  141.8370   80.3140  222.2260 C   0  0  0  0  0  0  0  0  0  0  0  0
  141.8180   79.1520  221.2620 C   0  0  0  0  0  0  0  0  0  0  0  0
  139.5580   70.7700  223.7720 C   0  0  0  0  0  0  0  0  0  0  0  0
  139.1550   69.4560  223.7570 C   0  0  0  0  0  0  0  0  0  0  0  0
  139.2970   68.6500  224.8910 C   0  0  0  0  0  0  0  0  0  0  0  0
  139.8580   69.2090  226.0400 C   0  0  0  0  0  0  0  0  0  0  0  0
  140.0330   68.4840  227.1990 C   0  0  0  0  0  0  0  0  0  0  0  0
  140.5890   69.0450  228.3320 C   0  0  0  0  0  0  0  0  0  0  0  0
  140.9840   70.3720  228.3110 C   0  0  0  0  0  0  0  0  0  0  0  0
  140.8070   71.0940  227.1500 C   0  0  0  0  0  0  0  0  0  0  0  0
  140.2520   70.5360  226.0180 C   0  0  0  0  0  0  0  0  0  0  0  0
  140.0990   71.2830  224.9030 N   0  0  0  0  0  0  0  0  0  0  0  0
  139.8790   73.3840  223.6420 H   0  0  0  0  0  0  0  0  0  0  0  0
  139.8485   73.3321  220.6410 H   0  0  0  0  0  0  0  0  0  0  0  0
  138.4084   74.1197  221.4174 H   0  0  0  0  0  0  0  0  0  0  0  0
  138.0097   75.2723  223.0612 H   0  0  0  0  0  0  0  0  0  0  0  0
  138.3486   76.8984  223.6669 H   0  0  0  0  0  0  0  0  0  0  0  0
  137.1913   76.2572  220.8935 H   0  0  0  0  0  0  0  0  0  0  0  0
  136.2135   76.7690  222.2962 H   0  0  0  0  0  0  0  0  0  0  0  0
  137.4690   78.4426  220.4426 H   0  0  0  0  0  0  0  0  0  0  0  0
  136.8388   78.9096  222.0889 H   0  0  0  0  0  0  0  0  0  0  0  0
  139.1914   79.6350  221.5259 H   0  0  0  0  0  0  0  0  0  0  0  0
  138.9396   78.7207  223.0674 H   0  0  0  0  0  0  0  0  0  0  0  0
  140.0156   77.6350  220.4383 H   0  0  0  0  0  0  0  0  0  0  0  0
  141.9111   77.0609  221.8435 H   0  0  0  0  0  0  0  0  0  0  0  0
  140.4155   78.1767  223.9452 H   0  0  0  0  0  0  0  0  0  0  0  0
  142.0805   77.5615  223.9803 H   0  0  0  0  0  0  0  0  0  0  0  0
  141.2924   80.2716  224.2936 H   0  0  0  0  0  0  0  0  0  0  0  0
  142.9523   79.7205  223.9632 H   0  0  0  0  0  0  0  0  0  0  0  0
  140.9184   80.9108  222.1263 H   0  0  0  0  0  0  0  0  0  0  0  0
  142.6824   80.9904  222.0317 H   0  0  0  0  0  0  0  0  0  0  0  0
  141.1523   79.3747  220.4151 H   0  0  0  0  0  0  0  0  0  0  0  0
  142.8235   78.9594  220.8597 H   0  0  0  0  0  0  0  0  0  0  0  0
  138.7153   69.0331  222.8417 H   0  0  0  0  0  0  0  0  0  0  0  0
  138.9736   67.5987  224.8776 H   0  0  0  0  0  0  0  0  0  0  0  0
  139.7212   67.4294  227.2223 H   0  0  0  0  0  0  0  0  0  0  0  0
  140.7170   68.4426  229.2435 H   0  0  0  0  0  0  0  0  0  0  0  0
  141.4293   70.8399  229.2014 H   0  0  0  0  0  0  0  0  0  0  0  0
  141.1185   72.1487  227.1260 H   0  0  0  0  0  0  0  0  0  0  0  0
  1  2  2  0
  2  3  1  0
  3  4  1  0
  4  5  1  0
  5  6  2  0
  5  7  1  0
  7  8  1  0
  8  9  1  0
  9 10  1  0
 10 11  1  0
 11 12  1  0
 12 13  1  0
 13 14  1  0
 14 15  1  0
 15 16  1  0
 16 17  1  0
  2 18  1  0
 18 19  2  0
 19 20  1  0
 20 21  2  0
 21 22  1  0
 22 23  2  0
 23 24  1  0
 24 25  2  0
 25 26  1  0
 26 27  2  0
 12  7  1  0
 17 13  1  0
 27 18  1  0
 26 21  1  0
  3 28  1  0
  4 29  1  0
  4 30  1  0
  8 31  1  0
  8 32  1  0
  9 33  1  0
  9 34  1  0
 10 35  1  0
 10 36  1  0
 11 37  1  0
 11 38  1  0
 12 39  1  6
 13 40  1  0
 14 41  1  0
 14 42  1  0
 15 43  1  0
 15 44  1  0
 16 45  1  0
 16 46  1  0
 17 47  1  0
 17 48  1  0
 19 49  1  0
 20 50  1  0
 22 51  1  0
 23 52  1  0
 24 53  1  0
 25 54  1  0
M  END
>  <smiles>  (68) 
O=C(NCC(=O)N1CCCCC1C1CCCC1)c1ccc2ccccc2n1

>  <score_type>  (68) 
oracle

>  <origin>  (68) 
autodockgpu

>  <m_score__min__energy>  (68) 
-9.0199999999999996

>  <m_primary>  (68) 
energy

>  <rmsd>  (68) 
2.7387723380867235

>  <m_score__min__rmsd>  (68) 
2.7387723380867235

>  <meeko>  (68) 
{"free_energy": -8.25, "intermolecular_energy": -9.74, "internal_energy": -1.59, "cluster_size": 33, "cluster_id": 1, "rank_in_cluster": 33}

>  <energy>  (68) 
-8.74

>  <cluster_rmsd>  (68) 
1.38

>  <cluster>  (68) 
1

$$$$

     RDKit          3D

 54 57  0  0  0  0  0  0  0  0999 V2000
  140.9060   71.7120  221.2710 O   0  0  0  0  0  0  0  0  0  0  0  0
  140.3950   72.2340  222.3190 C   0  0  0  0  0  0  0  0  0  0  0  0
  139.9820   73.5990  222.3430 N   0  0  0  0  0  0  0  0  0  0  0  0
  140.1330   74.4380  221.1690 C   0  0  0  0  0  0  0  0  0  0  0  0
  140.2730   75.8590  221.5190 C   0  0  0  0  0  0  0  0  0  0  0  0
  139.9440   76.2190  222.6790 O   0  0  0  0  0  0  0  0  0  0  0  0
  140.7700   76.7470  220.5300 N   0  0  0  0  0  0  0  0  0  0  0  0
  140.4780   76.5950  219.1090 C   0  0  0  0  0  0  0  0  0  0  0  0
  141.8070   76.3720  218.4460 C   0  0  0  0  0  0  0  0  0  0  0  0
  142.6270   77.6320  218.6110 C   0  0  0  0  0  0  0  0  0  0  0  0
  142.0340   78.5950  219.5960 C   0  0  0  0  0  0  0  0  0  0  0  0
  141.6260   77.8930  220.8700 C   0  0  1  0  0  0  0  0  0  0  0  0
  140.9810   78.8190  221.8320 C   0  0  0  0  0  0  0  0  0  0  0  0
  141.0740   80.2620  221.4720 C   0  0  0  0  0  0  0  0  0  0  0  0
  141.8420   80.9470  222.6070 C   0  0  0  0  0  0  0  0  0  0  0  0
  142.4330   79.8660  223.4560 C   0  0  0  0  0  0  0  0  0  0  0  0
  141.6050   78.6350  223.1790 C   0  0  0  0  0  0  0  0  0  0  0  0
  140.2310   71.4150  223.5160 C   0  0  0  0  0  0  0  0  0  0  0  0
  139.6050   70.1930  223.4450 C   0  0  0  0  0  0  0  0  0  0  0  0
  139.4440   69.4040  224.5890 C   0  0  0  0  0  0  0  0  0  0  0  0
  139.9330   69.8830  225.8040 C   0  0  0  0  0  0  0  0  0  0  0  0
  139.8160   69.1690  226.9770 C   0  0  0  0  0  0  0  0  0  0  0  0
  140.3030   69.6500  228.1760 C   0  0  0  0  0  0  0  0  0  0  0  0
  140.9280   70.8850  228.2090 C   0  0  0  0  0  0  0  0  0  0  0  0
  141.0440   71.5980  227.0350 C   0  0  0  0  0  0  0  0  0  0  0  0
  140.5580   71.1180  225.8370 C   0  0  0  0  0  0  0  0  0  0  0  0
  140.6950   71.8530  224.7110 N   0  0  0  0  0  0  0  0  0  0  0  0
  139.5680   73.9530  223.2490 H   0  0  0  0  0  0  0  0  0  0  0  0
  141.0296   74.1185  220.6177 H   0  0  0  0  0  0  0  0  0  0  0  0
  139.2268   74.3280  220.5553 H   0  0  0  0  0  0  0  0  0  0  0  0
  139.8163   75.7321  218.9430 H   0  0  0  0  0  0  0  0  0  0  0  0
  139.9629   77.4778  218.7023 H   0  0  0  0  0  0  0  0  0  0  0  0
  142.3239   75.5250  218.9208 H   0  0  0  0  0  0  0  0  0  0  0  0
  141.6688   76.1421  217.3792 H   0  0  0  0  0  0  0  0  0  0  0  0
  143.6330   77.3522  218.9571 H   0  0  0  0  0  0  0  0  0  0  0  0
  142.6532   78.1366  217.6339 H   0  0  0  0  0  0  0  0  0  0  0  0
  142.7794   79.3678  219.8352 H   0  0  0  0  0  0  0  0  0  0  0  0
  141.1378   79.0462  219.1451 H   0  0  0  0  0  0  0  0  0  0  0  0
  142.5252   77.5203  221.3825 H   0  0  0  0  0  0  0  0  0  0  0  0
  139.9118   78.5607  221.8201 H   0  0  0  0  0  0  0  0  0  0  0  0
  141.6144   80.3821  220.5214 H   0  0  0  0  0  0  0  0  0  0  0  0
  140.0750   80.7046  221.3450 H   0  0  0  0  0  0  0  0  0  0  0  0
  142.6405   81.5804  222.1933 H   0  0  0  0  0  0  0  0  0  0  0  0
  141.1731   81.5879  223.2001 H   0  0  0  0  0  0  0  0  0  0  0  0
  143.4836   79.6922  223.1803 H   0  0  0  0  0  0  0  0  0  0  0  0
  142.4208   80.1335  224.5229 H   0  0  0  0  0  0  0  0  0  0  0  0
  142.2461   77.7411  223.1790 H   0  0  0  0  0  0  0  0  0  0  0  0
  140.8346   78.4990  223.9523 H   0  0  0  0  0  0  0  0  0  0  0  0
  139.2264   69.8315  222.4776 H   0  0  0  0  0  0  0  0  0  0  0  0
  138.9424   68.4267  224.5314 H   0  0  0  0  0  0  0  0  0  0  0  0
  139.3202   68.1873  226.9574 H   0  0  0  0  0  0  0  0  0  0  0  0
  140.1954   69.0575  229.0965 H   0  0  0  0  0  0  0  0  0  0  0  0
  141.3238   71.2889  229.1525 H   0  0  0  0  0  0  0  0  0  0  0  0
  141.5394   72.5799  227.0543 H   0  0  0  0  0  0  0  0  0  0  0  0
  1  2  2  0
  2  3  1  0
  3  4  1  0
  4  5  1  0
  5  6  2  0
  5  7  1  0
  7  8  1  0
  8  9  1  0
  9 10  1  0
 10 11  1  0
 11 12  1  0
 12 13  1  0
 13 14  1  0
 14 15  1  0
 15 16  1  0
 16 17  1  0
  2 18  1  0
 18 19  2  0
 19 20  1  0
 20 21  2  0
 21 22  1  0
 22 23  2  0
 23 24  1  0
 24 25  2  0
 25 26  1  0
 26 27  2  0
 12  7  1  0
 17 13  1  0
 27 18  1  0
 26 21  1  0
  3 28  1  0
  4 29  1  0
  4 30  1  0
  8 31  1  0
  8 32  1  0
  9 33  1  0
  9 34  1  0
 10 35  1  0
 10 36  1  0
 11 37  1  0
 11 38  1  0
 12 39  1  1
 13 40  1  0
 14 41  1  0
 14 42  1  0
 15 43  1  0
 15 44  1  0
 16 45  1  0
 16 46  1  0
 17 47  1  0
 17 48  1  0
 19 49  1  0
 20 50  1  0
 22 51  1  0
 23 52  1  0
 24 53  1  0
 25 54  1  0
M  END
>  <smiles>  (69) 
O=C(NCC(=O)N1CCCCC1C1CCCC1)c1ccc2ccccc2n1

>  <score_type>  (69) 
oracle

>  <origin>  (69) 
autodockgpu

>  <m_score__min__energy>  (69) 
-9.0199999999999996

>  <m_primary>  (69) 
energy

>  <rmsd>  (69) 
1.811268765844511

>  <m_score__min__rmsd>  (69) 
1.811268765844511

>  <meeko>  (69) 
{"free_energy": -8.74, "intermolecular_energy": -10.23, "internal_energy": -1.69, "cluster_size": 33, "cluster_id": 1, "rank_in_cluster": 17}

>  <energy>  (69) 
-8.73

>  <cluster_rmsd>  (69) 
1.44

>  <cluster>  (69) 
1

$$$$

     RDKit          3D

 54 57  0  0  0  0  0  0  0  0999 V2000
  134.5290   68.3110  225.2470 O   0  0  0  0  0  0  0  0  0  0  0  0
  134.9290   69.4970  224.9930 C   0  0  0  0  0  0  0  0  0  0  0  0
  136.0140   69.7390  224.0980 N   0  0  0  0  0  0  0  0  0  0  0  0
  136.6980   68.6370  223.4490 C   0  0  0  0  0  0  0  0  0  0  0  0
  138.1410   68.6360  223.7320 C   0  0  0  0  0  0  0  0  0  0  0  0
  138.7480   67.5340  223.7120 O   0  0  0  0  0  0  0  0  0  0  0  0
  138.7680   69.8770  224.0130 N   0  0  0  0  0  0  0  0  0  0  0  0
  138.4060   71.1190  223.3410 C   0  0  0  0  0  0  0  0  0  0  0  0
  139.6440   71.5590  222.6130 C   0  0  0  0  0  0  0  0  0  0  0  0
  140.6990   71.8890  223.6460 C   0  0  0  0  0  0  0  0  0  0  0  0
  140.3360   71.4260  225.0260 C   0  0  0  0  0  0  0  0  0  0  0  0
  139.8410   70.0000  225.0120 C   0  0  1  0  0  0  0  0  0  0  0  0
  139.4190   69.5440  226.3590 C   0  0  0  0  0  0  0  0  0  0  0  0
  139.9870   70.3290  227.4920 C   0  0  0  0  0  0  0  0  0  0  0  0
  140.8110   69.3490  228.3320 C   0  0  0  0  0  0  0  0  0  0  0  0
  140.9550   68.0930  227.5330 C   0  0  0  0  0  0  0  0  0  0  0  0
  139.8200   68.1140  226.5370 C   0  0  0  0  0  0  0  0  0  0  0  0
  134.2620   70.6270  225.6320 C   0  0  0  0  0  0  0  0  0  0  0  0
  133.2790   70.4180  226.5700 C   0  0  0  0  0  0  0  0  0  0  0  0
  132.6350   71.4960  227.1850 C   0  0  0  0  0  0  0  0  0  0  0  0
  133.0120   72.7900  226.8270 C   0  0  0  0  0  0  0  0  0  0  0  0
  132.4290   73.9070  227.3850 C   0  0  0  0  0  0  0  0  0  0  0  0
  132.8070   75.1850  227.0250 C   0  0  0  0  0  0  0  0  0  0  0  0
  133.8000   75.3580  226.0760 C   0  0  0  0  0  0  0  0  0  0  0  0
  134.3830   74.2390  225.5190 C   0  0  0  0  0  0  0  0  0  0  0  0
  134.0060   72.9620  225.8780 C   0  0  0  0  0  0  0  0  0  0  0  0
  134.6050   71.8960  225.3050 N   0  0  0  0  0  0  0  0  0  0  0  0
  136.2840   70.7490  223.9420 H   0  0  0  0  0  0  0  0  0  0  0  0
  136.2659   67.6911  223.8076 H   0  0  0  0  0  0  0  0  0  0  0  0
  136.5666   68.7503  222.3628 H   0  0  0  0  0  0  0  0  0  0  0  0
  137.5839   70.9461  222.6310 H   0  0  0  0  0  0  0  0  0  0  0  0
  138.0597   71.8819  224.0538 H   0  0  0  0  0  0  0  0  0  0  0  0
  140.0011   70.7492  221.9598 H   0  0  0  0  0  0  0  0  0  0  0  0
  139.4293   72.4398  221.9900 H   0  0  0  0  0  0  0  0  0  0  0  0
  141.6416   71.4048  223.3508 H   0  0  0  0  0  0  0  0  0  0  0  0
  140.7924   72.9845  223.6813 H   0  0  0  0  0  0  0  0  0  0  0  0
  141.2245   71.4909  225.6713 H   0  0  0  0  0  0  0  0  0  0  0  0
  139.5304   72.0701  225.4083 H   0  0  0  0  0  0  0  0  0  0  0  0
  140.6673   69.3330  224.7249 H   0  0  0  0  0  0  0  0  0  0  0  0
  138.3288   69.6865  226.3929 H   0  0  0  0  0  0  0  0  0  0  0  0
  140.6299   71.1358  227.1104 H   0  0  0  0  0  0  0  0  0  0  0  0
  139.1906   70.7940  228.0917 H   0  0  0  0  0  0  0  0  0  0  0  0
  141.8022   69.7760  228.5446 H   0  0  0  0  0  0  0  0  0  0  0  0
  140.3150   69.1457  229.2926 H   0  0  0  0  0  0  0  0  0  0  0  0
  141.9234   68.0784  227.0116 H   0  0  0  0  0  0  0  0  0  0  0  0
  140.9203   67.1978  228.1714 H   0  0  0  0  0  0  0  0  0  0  0  0
  140.1525   67.6928  225.5768 H   0  0  0  0  0  0  0  0  0  0  0  0
  138.9727   67.5110  226.8955 H   0  0  0  0  0  0  0  0  0  0  0  0
  132.9956   69.3900  226.8401 H   0  0  0  0  0  0  0  0  0  0  0  0
  131.8481   71.3271  227.9349 H   0  0  0  0  0  0  0  0  0  0  0  0
  131.6392   73.7765  228.1394 H   0  0  0  0  0  0  0  0  0  0  0  0
  132.3236   76.0579  227.4880 H   0  0  0  0  0  0  0  0  0  0  0  0
  134.1173   76.3666  225.7726 H   0  0  0  0  0  0  0  0  0  0  0  0
  135.1732   74.3692  224.7650 H   0  0  0  0  0  0  0  0  0  0  0  0
  1  2  2  0
  2  3  1  0
  3  4  1  0
  4  5  1  0
  5  6  2  0
  5  7  1  0
  7  8  1  0
  8  9  1  0
  9 10  1  0
 10 11  1  0
 11 12  1  0
 12 13  1  0
 13 14  1  0
 14 15  1  0
 15 16  1  0
 16 17  1  0
  2 18  1  0
 18 19  2  0
 19 20  1  0
 20 21  2  0
 21 22  1  0
 22 23  2  0
 23 24  1  0
 24 25  2  0
 25 26  1  0
 26 27  2  0
 12  7  1  0
 17 13  1  0
 27 18  1  0
 26 21  1  0
  3 28  1  0
  4 29  1  0
  4 30  1  0
  8 31  1  0
  8 32  1  0
  9 33  1  0
  9 34  1  0
 10 35  1  0
 10 36  1  0
 11 37  1  0
 11 38  1  0
 12 39  1  6
 13 40  1  0
 14 41  1  0
 14 42  1  0
 15 43  1  0
 15 44  1  0
 16 45  1  0
 16 46  1  0
 17 47  1  0
 17 48  1  0
 19 49  1  0
 20 50  1  0
 22 51  1  0
 23 52  1  0
 24 53  1  0
 25 54  1  0
M  END
>  <smiles>  (70) 
O=C(NCC(=O)N1CCCCC1C1CCCC1)c1ccc2ccccc2n1

>  <score_type>  (70) 
oracle

>  <origin>  (70) 
autodockgpu

>  <m_score__min__energy>  (70) 
-9.0199999999999996

>  <m_primary>  (70) 
energy

>  <rmsd>  (70) 
7.479735086908355

>  <m_score__min__rmsd>  (70) 
7.479735086908355

>  <meeko>  (70) 
{"free_energy": -7.84, "intermolecular_energy": -9.33, "internal_energy": -1.83, "cluster_size": 1, "cluster_id": 4, "rank_in_cluster": 1}

>  <energy>  (70) 
-8.72

>  <cluster_rmsd>  (70) 
1.41

>  <cluster>  (70) 
1

$$$$

     RDKit          3D

 54 57  0  0  0  0  0  0  0  0999 V2000
  141.5110   72.1710  221.5740 O   0  0  0  0  0  0  0  0  0  0  0  0
  140.6250   72.5090  222.4310 C   0  0  0  0  0  0  0  0  0  0  0  0
  139.9480   73.7620  222.3420 N   0  0  0  0  0  0  0  0  0  0  0  0
  140.2480   74.6910  221.2690 C   0  0  0  0  0  0  0  0  0  0  0  0
  139.9500   76.0820  221.6420 C   0  0  0  0  0  0  0  0  0  0  0  0
  139.2720   76.2840  222.6830 O   0  0  0  0  0  0  0  0  0  0  0  0
  140.4420   77.1190  220.8080 N   0  0  0  0  0  0  0  0  0  0  0  0
  140.0560   77.2630  219.4100 C   0  0  0  0  0  0  0  0  0  0  0  0
  141.3250   77.1060  218.6230 C   0  0  0  0  0  0  0  0  0  0  0  0
  142.2330   78.2670  218.9680 C   0  0  0  0  0  0  0  0  0  0  0  0
  141.7620   79.0470  220.1590 C   0  0  0  0  0  0  0  0  0  0  0  0
  141.3880   78.1320  221.3000 C   0  0  1  0  0  0  0  0  0  0  0  0
  140.8620   78.8840  222.4660 C   0  0  0  0  0  0  0  0  0  0  0  0
  140.6330   80.3360  222.2230 C   0  0  0  0  0  0  0  0  0  0  0  0
  141.5380   81.0910  223.2010 C   0  0  0  0  0  0  0  0  0  0  0  0
  142.4850   80.0920  223.7880 C   0  0  0  0  0  0  0  0  0  0  0  0
  141.8210   78.7490  223.6060 C   0  0  0  0  0  0  0  0  0  0  0  0
  140.3020   71.5960  223.5210 C   0  0  0  0  0  0  0  0  0  0  0  0
  139.5980   70.4400  223.2790 C   0  0  0  0  0  0  0  0  0  0  0  0
  139.2840   69.5610  224.3200 C   0  0  0  0  0  0  0  0  0  0  0  0
  139.7020   69.8810  225.6120 C   0  0  0  0  0  0  0  0  0  0  0  0
  139.4350   69.0690  226.6940 C   0  0  0  0  0  0  0  0  0  0  0  0
  139.8510   69.3940  227.9690 C   0  0  0  0  0  0  0  0  0  0  0  0
  140.5580   70.5660  228.1770 C   0  0  0  0  0  0  0  0  0  0  0  0
  140.8250   71.3760  227.0930 C   0  0  0  0  0  0  0  0  0  0  0  0
  140.4090   71.0530  225.8180 C   0  0  0  0  0  0  0  0  0  0  0  0
  140.6940   71.8790  224.7880 N   0  0  0  0  0  0  0  0  0  0  0  0
  139.2290   73.9660  223.0900 H   0  0  0  0  0  0  0  0  0  0  0  0
  141.3164   74.6118  221.0196 H   0  0  0  0  0  0  0  0  0  0  0  0
  139.6165   74.4287  220.4074 H   0  0  0  0  0  0  0  0  0  0  0  0
  139.3313   76.4844  219.1295 H   0  0  0  0  0  0  0  0  0  0  0  0
  139.5753   78.2336  219.2182 H   0  0  0  0  0  0  0  0  0  0  0  0
  141.8143   76.1572  218.8882 H   0  0  0  0  0  0  0  0  0  0  0  0
  141.1084   77.0963  217.5446 H   0  0  0  0  0  0  0  0  0  0  0  0
  143.2380   77.8742  219.1817 H   0  0  0  0  0  0  0  0  0  0  0  0
  142.2333   78.9510  218.1066 H   0  0  0  0  0  0  0  0  0  0  0  0
  142.5675   79.7198  220.4883 H   0  0  0  0  0  0  0  0  0  0  0  0
  140.8703   79.6215  219.8677 H   0  0  0  0  0  0  0  0  0  0  0  0
  142.2907   77.6214  221.6666 H   0  0  0  0  0  0  0  0  0  0  0  0
  139.8782   78.4429  222.6843 H   0  0  0  0  0  0  0  0  0  0  0  0
  140.8960   80.5935  221.1864 H   0  0  0  0  0  0  0  0  0  0  0  0
  139.5764   80.6018  222.3741 H   0  0  0  0  0  0  0  0  0  0  0  0
  142.0981   81.8739  222.6687 H   0  0  0  0  0  0  0  0  0  0  0  0
  140.9431   81.5755  223.9893 H   0  0  0  0  0  0  0  0  0  0  0  0
  143.4487   80.1190  223.2584 H   0  0  0  0  0  0  0  0  0  0  0  0
  142.6945   80.3027  224.8471 H   0  0  0  0  0  0  0  0  0  0  0  0
  142.5759   77.9829  223.3754 H   0  0  0  0  0  0  0  0  0  0  0  0
  141.2978   78.4431  224.5240 H   0  0  0  0  0  0  0  0  0  0  0  0
  139.2778   70.2037  222.2535 H   0  0  0  0  0  0  0  0  0  0  0  0
  138.7197   68.6372  224.1246 H   0  0  0  0  0  0  0  0  0  0  0  0
  138.8745   68.1357  226.5364 H   0  0  0  0  0  0  0  0  0  0  0  0
  139.6227   68.7271  228.8134 H   0  0  0  0  0  0  0  0  0  0  0  0
  140.8993   70.8451  229.1848 H   0  0  0  0  0  0  0  0  0  0  0  0
  141.3871   72.3084  227.2500 H   0  0  0  0  0  0  0  0  0  0  0  0
  1  2  2  0
  2  3  1  0
  3  4  1  0
  4  5  1  0
  5  6  2  0
  5  7  1  0
  7  8  1  0
  8  9  1  0
  9 10  1  0
 10 11  1  0
 11 12  1  0
 12 13  1  0
 13 14  1  0
 14 15  1  0
 15 16  1  0
 16 17  1  0
  2 18  1  0
 18 19  2  0
 19 20  1  0
 20 21  2  0
 21 22  1  0
 22 23  2  0
 23 24  1  0
 24 25  2  0
 25 26  1  0
 26 27  2  0
 12  7  1  0
 17 13  1  0
 27 18  1  0
 26 21  1  0
  3 28  1  0
  4 29  1  0
  4 30  1  0
  8 31  1  0
  8 32  1  0
  9 33  1  0
  9 34  1  0
 10 35  1  0
 10 36  1  0
 11 37  1  0
 11 38  1  0
 12 39  1  1
 13 40  1  0
 14 41  1  0
 14 42  1  0
 15 43  1  0
 15 44  1  0
 16 45  1  0
 16 46  1  0
 17 47  1  0
 17 48  1  0
 19 49  1  0
 20 50  1  0
 22 51  1  0
 23 52  1  0
 24 53  1  0
 25 54  1  0
M  END
>  <smiles>  (71) 
O=C(NCC(=O)N1CCCCC1C1CCCC1)c1ccc2ccccc2n1

>  <score_type>  (71) 
oracle

>  <origin>  (71) 
autodockgpu

>  <m_score__min__energy>  (71) 
-9.0199999999999996

>  <m_primary>  (71) 
energy

>  <rmsd>  (71) 
2.095923763305894

>  <m_score__min__rmsd>  (71) 
2.095923763305894

>  <meeko>  (71) 
{"free_energy": -8.78, "intermolecular_energy": -10.27, "internal_energy": -1.69, "cluster_size": 33, "cluster_id": 1, "rank_in_cluster": 11}

>  <energy>  (71) 
-8.69

>  <cluster_rmsd>  (71) 
1.37

>  <cluster>  (71) 
1

$$$$

     RDKit          3D

 54 57  0  0  0  0  0  0  0  0999 V2000
  140.8780   73.8540  220.2720 O   0  0  0  0  0  0  0  0  0  0  0  0
  140.4850   74.6040  221.2280 C   0  0  0  0  0  0  0  0  0  0  0  0
  139.6100   74.1160  222.2440 N   0  0  0  0  0  0  0  0  0  0  0  0
  139.1390   72.7440  222.2180 C   0  0  0  0  0  0  0  0  0  0  0  0
  139.8720   71.8890  223.1630 C   0  0  0  0  0  0  0  0  0  0  0  0
  141.0470   72.2190  223.4720 O   0  0  0  0  0  0  0  0  0  0  0  0
  139.2160   70.7390  223.6740 N   0  0  0  0  0  0  0  0  0  0  0  0
  138.5310   69.7730  222.8230 C   0  0  0  0  0  0  0  0  0  0  0  0
  137.0910   69.8120  223.2490 C   0  0  0  0  0  0  0  0  0  0  0  0
  137.0120   69.3030  224.6710 C   0  0  0  0  0  0  0  0  0  0  0  0
  138.3550   69.1910  225.3300 C   0  0  0  0  0  0  0  0  0  0  0  0
  139.1780   70.4380  225.1130 C   0  0  1  0  0  0  0  0  0  0  0  0
  140.5320   70.3210  225.7050 C   0  0  0  0  0  0  0  0  0  0  0  0
  140.7170   69.1600  226.6210 C   0  0  0  0  0  0  0  0  0  0  0  0
  141.0760   69.7390  227.9930 C   0  0  0  0  0  0  0  0  0  0  0  0
  140.8110   71.2100  227.9360 C   0  0  0  0  0  0  0  0  0  0  0  0
  140.8400   71.5690  226.4700 C   0  0  0  0  0  0  0  0  0  0  0  0
  140.9410   75.9890  221.2810 C   0  0  0  0  0  0  0  0  0  0  0  0
  141.4670   76.5950  220.1640 C   0  0  0  0  0  0  0  0  0  0  0  0
  141.9070   77.9210  220.2090 C   0  0  0  0  0  0  0  0  0  0  0  0
  141.8010   78.6190  221.4120 C   0  0  0  0  0  0  0  0  0  0  0  0
  142.2100   79.9290  221.5410 C   0  0  0  0  0  0  0  0  0  0  0  0
  142.1020   80.6120  222.7360 C   0  0  0  0  0  0  0  0  0  0  0  0
  141.5680   79.9710  223.8400 C   0  0  0  0  0  0  0  0  0  0  0  0
  141.1590   78.6610  223.7090 C   0  0  0  0  0  0  0  0  0  0  0  0
  141.2670   77.9770  222.5160 C   0  0  0  0  0  0  0  0  0  0  0  0
  140.8520   76.6940  222.4350 N   0  0  0  0  0  0  0  0  0  0  0  0
  139.3330   74.8010  223.0000 H   0  0  0  0  0  0  0  0  0  0  0  0
  138.0713   72.7306  222.4824 H   0  0  0  0  0  0  0  0  0  0  0  0
  139.3047   72.3484  221.2051 H   0  0  0  0  0  0  0  0  0  0  0  0
  138.6266   70.0574  221.7647 H   0  0  0  0  0  0  0  0  0  0  0  0
  138.9590   68.7648  222.9241 H   0  0  0  0  0  0  0  0  0  0  0  0
  136.7149   70.8445  223.2004 H   0  0  0  0  0  0  0  0  0  0  0  0
  136.4779   69.1862  222.5838 H   0  0  0  0  0  0  0  0  0  0  0  0
  136.3908   69.9962  225.2572 H   0  0  0  0  0  0  0  0  0  0  0  0
  136.5785   68.2927  224.6348 H   0  0  0  0  0  0  0  0  0  0  0  0
  138.2126   69.0390  226.4101 H   0  0  0  0  0  0  0  0  0  0  0  0
  138.8905   68.3396  224.8846 H   0  0  0  0  0  0  0  0  0  0  0  0
  138.7036   71.2808  225.6371 H   0  0  0  0  0  0  0  0  0  0  0  0
  141.2136   70.1642  224.8560 H   0  0  0  0  0  0  0  0  0  0  0  0
  139.7870   68.5763  226.6868 H   0  0  0  0  0  0  0  0  0  0  0  0
  141.5066   68.4873  226.2550 H   0  0  0  0  0  0  0  0  0  0  0  0
  140.4545   69.2741  228.7725 H   0  0  0  0  0  0  0  0  0  0  0  0
  142.1305   69.5416  228.2361 H   0  0  0  0  0  0  0  0  0  0  0  0
  139.8262   71.4402  228.3687 H   0  0  0  0  0  0  0  0  0  0  0  0
  141.5551   71.7811  228.5106 H   0  0  0  0  0  0  0  0  0  0  0  0
  140.0846   72.3393  226.2552 H   0  0  0  0  0  0  0  0  0  0  0  0
  141.8237   71.9702  226.1847 H   0  0  0  0  0  0  0  0  0  0  0  0
  141.5424   76.0292  219.2237 H   0  0  0  0  0  0  0  0  0  0  0  0
  142.3279   78.4038  219.3147 H   0  0  0  0  0  0  0  0  0  0  0  0
  142.6345   80.4449  220.6671 H   0  0  0  0  0  0  0  0  0  0  0  0
  142.4376   81.6569  222.8099 H   0  0  0  0  0  0  0  0  0  0  0  0
  141.4719   80.4957  224.8020 H   0  0  0  0  0  0  0  0  0  0  0  0
  140.7335   78.1454  224.5826 H   0  0  0  0  0  0  0  0  0  0  0  0
  1  2  2  0
  2  3  1  0
  3  4  1  0
  4  5  1  0
  5  6  2  0
  5  7  1  0
  7  8  1  0
  8  9  1  0
  9 10  1  0
 10 11  1  0
 11 12  1  0
 12 13  1  0
 13 14  1  0
 14 15  1  0
 15 16  1  0
 16 17  1  0
  2 18  1  0
 18 19  2  0
 19 20  1  0
 20 21  2  0
 21 22  1  0
 22 23  2  0
 23 24  1  0
 24 25  2  0
 25 26  1  0
 26 27  2  0
 12  7  1  0
 17 13  1  0
 27 18  1  0
 26 21  1  0
  3 28  1  0
  4 29  1  0
  4 30  1  0
  8 31  1  0
  8 32  1  0
  9 33  1  0
  9 34  1  0
 10 35  1  0
 10 36  1  0
 11 37  1  0
 11 38  1  0
 12 39  1  1
 13 40  1  0
 14 41  1  0
 14 42  1  0
 15 43  1  0
 15 44  1  0
 16 45  1  0
 16 46  1  0
 17 47  1  0
 17 48  1  0
 19 49  1  0
 20 50  1  0
 22 51  1  0
 23 52  1  0
 24 53  1  0
 25 54  1  0
M  END
>  <smiles>  (72) 
O=C(NCC(=O)N1CCCCC1C1CCCC1)c1ccc2ccccc2n1

>  <score_type>  (72) 
oracle

>  <origin>  (72) 
autodockgpu

>  <m_score__min__energy>  (72) 
-9.0199999999999996

>  <m_primary>  (72) 
energy

>  <rmsd>  (72) 
8.416255334931295

>  <m_score__min__rmsd>  (72) 
8.416255334931295

>  <meeko>  (72) 
{"free_energy": -8.56, "intermolecular_energy": -10.05, "internal_energy": -1.58, "cluster_size": 8, "cluster_id": 2, "rank_in_cluster": 6}

>  <energy>  (72) 
-8.64

>  <cluster_rmsd>  (72) 
1.39

>  <cluster>  (72) 
1

$$$$

     RDKit          3D

 54 57  0  0  0  0  0  0  0  0999 V2000
  141.1330   74.4990  221.3410 O   0  0  0  0  0  0  0  0  0  0  0  0
  140.0940   74.9170  221.9570 C   0  0  0  0  0  0  0  0  0  0  0  0
  139.0320   74.0310  222.3080 N   0  0  0  0  0  0  0  0  0  0  0  0
  139.1030   72.6220  221.9710 C   0  0  0  0  0  0  0  0  0  0  0  0
  139.8470   71.8490  222.9770 C   0  0  0  0  0  0  0  0  0  0  0  0
  141.0080   72.2320  223.2780 O   0  0  0  0  0  0  0  0  0  0  0  0
  139.2170   70.7150  223.5510 N   0  0  0  0  0  0  0  0  0  0  0  0
  138.5630   69.6830  222.7550 C   0  0  0  0  0  0  0  0  0  0  0  0
  137.1190   69.7090  223.1700 C   0  0  0  0  0  0  0  0  0  0  0  0
  137.0440   69.2830  224.6200 C   0  0  0  0  0  0  0  0  0  0  0  0
  138.3850   69.2450  225.2910 C   0  0  0  0  0  0  0  0  0  0  0  0
  139.1770   70.4980  225.0050 C   0  0  1  0  0  0  0  0  0  0  0  0
  140.5300   70.4510  225.6110 C   0  0  0  0  0  0  0  0  0  0  0  0
  140.7400   69.3480  226.5910 C   0  0  0  0  0  0  0  0  0  0  0  0
  141.0730   70.0120  227.9310 C   0  0  0  0  0  0  0  0  0  0  0  0
  140.7700   71.4700  227.7890 C   0  0  0  0  0  0  0  0  0  0  0  0
  140.7990   71.7480  226.3060 C   0  0  0  0  0  0  0  0  0  0  0  0
  139.9950   76.3300  222.3080 C   0  0  0  0  0  0  0  0  0  0  0  0
  138.7690   76.9520  222.3570 C   0  0  0  0  0  0  0  0  0  0  0  0
  138.6670   78.3060  222.6920 C   0  0  0  0  0  0  0  0  0  0  0  0
  139.8360   79.0130  222.9770 C   0  0  0  0  0  0  0  0  0  0  0  0
  139.8230   80.3490  223.3150 C   0  0  0  0  0  0  0  0  0  0  0  0
  140.9840   81.0410  223.5960 C   0  0  0  0  0  0  0  0  0  0  0  0
  142.2000   80.3820  223.5370 C   0  0  0  0  0  0  0  0  0  0  0  0
  142.2100   79.0460  223.1980 C   0  0  0  0  0  0  0  0  0  0  0  0
  141.0510   78.3530  222.9170 C   0  0  0  0  0  0  0  0  0  0  0  0
  141.1110   77.0440  222.5900 N   0  0  0  0  0  0  0  0  0  0  0  0
  138.2090   74.4560  222.8160 H   0  0  0  0  0  0  0  0  0  0  0  0
  138.0806   72.2221  221.9013 H   0  0  0  0  0  0  0  0  0  0  0  0
  139.6341   72.5295  221.0122 H   0  0  0  0  0  0  0  0  0  0  0  0
  138.6586   69.9069  221.6823 H   0  0  0  0  0  0  0  0  0  0  0  0
  139.0162   68.6941  222.9181 H   0  0  0  0  0  0  0  0  0  0  0  0
  136.7162   70.7265  223.0581 H   0  0  0  0  0  0  0  0  0  0  0  0
  136.5269   69.0291  222.5398 H   0  0  0  0  0  0  0  0  0  0  0  0
  136.4016   69.9933  225.1610 H   0  0  0  0  0  0  0  0  0  0  0  0
  136.6368   68.2614  224.6416 H   0  0  0  0  0  0  0  0  0  0  0  0
  138.2396   69.1532  226.3775 H   0  0  0  0  0  0  0  0  0  0  0  0
  138.9451   68.3832  224.8992 H   0  0  0  0  0  0  0  0  0  0  0  0
  138.6776   71.3578  225.4754 H   0  0  0  0  0  0  0  0  0  0  0  0
  141.2219   70.2654  224.7762 H   0  0  0  0  0  0  0  0  0  0  0  0
  139.8259   68.7432  226.6837 H   0  0  0  0  0  0  0  0  0  0  0  0
  141.5504   68.6782  226.2674 H   0  0  0  0  0  0  0  0  0  0  0  0
  140.4576   69.5753  228.7313 H   0  0  0  0  0  0  0  0  0  0  0  0
  142.1301   69.8563  228.1922 H   0  0  0  0  0  0  0  0  0  0  0  0
  139.7767   71.6978  228.2030 H   0  0  0  0  0  0  0  0  0  0  0  0
  141.4959   72.0915  228.3339 H   0  0  0  0  0  0  0  0  0  0  0  0
  140.0244   72.4840  226.0447 H   0  0  0  0  0  0  0  0  0  0  0  0
  141.7730   72.1601  226.0035 H   0  0  0  0  0  0  0  0  0  0  0  0
  137.8585   76.3779  222.1301 H   0  0  0  0  0  0  0  0  0  0  0  0
  137.6864   78.8030  222.7300 H   0  0  0  0  0  0  0  0  0  0  0  0
  138.8602   80.8790  223.3622 H   0  0  0  0  0  0  0  0  0  0  0  0
  140.9432   82.1070  223.8645 H   0  0  0  0  0  0  0  0  0  0  0  0
  143.1381   80.9131  223.7560 H   0  0  0  0  0  0  0  0  0  0  0  0
  143.1726   78.5158  223.1500 H   0  0  0  0  0  0  0  0  0  0  0  0
  1  2  2  0
  2  3  1  0
  3  4  1  0
  4  5  1  0
  5  6  2  0
  5  7  1  0
  7  8  1  0
  8  9  1  0
  9 10  1  0
 10 11  1  0
 11 12  1  0
 12 13  1  0
 13 14  1  0
 14 15  1  0
 15 16  1  0
 16 17  1  0
  2 18  1  0
 18 19  2  0
 19 20  1  0
 20 21  2  0
 21 22  1  0
 22 23  2  0
 23 24  1  0
 24 25  2  0
 25 26  1  0
 26 27  2  0
 12  7  1  0
 17 13  1  0
 27 18  1  0
 26 21  1  0
  3 28  1  0
  4 29  1  0
  4 30  1  0
  8 31  1  0
  8 32  1  0
  9 33  1  0
  9 34  1  0
 10 35  1  0
 10 36  1  0
 11 37  1  0
 11 38  1  0
 12 39  1  1
 13 40  1  0
 14 41  1  0
 14 42  1  0
 15 43  1  0
 15 44  1  0
 16 45  1  0
 16 46  1  0
 17 47  1  0
 17 48  1  0
 19 49  1  0
 20 50  1  0
 22 51  1  0
 23 52  1  0
 24 53  1  0
 25 54  1  0
M  END
>  <smiles>  (73) 
O=C(NCC(=O)N1CCCCC1C1CCCC1)c1ccc2ccccc2n1

>  <score_type>  (73) 
oracle

>  <origin>  (73) 
autodockgpu

>  <m_score__min__energy>  (73) 
-9.0199999999999996

>  <m_primary>  (73) 
energy

>  <rmsd>  (73) 
8.338953372977954

>  <m_score__min__rmsd>  (73) 
8.338953372977954

>  <meeko>  (73) 
{"free_energy": -8.92, "intermolecular_energy": -10.41, "internal_energy": -1.27, "cluster_size": 8, "cluster_id": 2, "rank_in_cluster": 1}

>  <energy>  (73) 
-8.64

>  <cluster_rmsd>  (73) 
1.4

>  <cluster>  (73) 
1

$$$$

     RDKit          3D

 54 57  0  0  0  0  0  0  0  0999 V2000
  141.3000   71.9900  221.4260 O   0  0  0  0  0  0  0  0  0  0  0  0
  140.5490   72.4020  222.3740 C   0  0  0  0  0  0  0  0  0  0  0  0
  139.9620   73.7020  222.3440 N   0  0  0  0  0  0  0  0  0  0  0  0
  140.2050   74.5980  221.2290 C   0  0  0  0  0  0  0  0  0  0  0  0
  140.0200   76.0080  221.6020 C   0  0  0  0  0  0  0  0  0  0  0  0
  139.4320   76.2620  222.6860 O   0  0  0  0  0  0  0  0  0  0  0  0
  140.5130   77.0050  220.7200 N   0  0  0  0  0  0  0  0  0  0  0  0
  140.1270   77.0820  219.3160 C   0  0  0  0  0  0  0  0  0  0  0  0
  141.3970   76.8880  218.5390 C   0  0  0  0  0  0  0  0  0  0  0  0
  142.3050   78.0620  218.8280 C   0  0  0  0  0  0  0  0  0  0  0  0
  141.8350   78.8990  219.9810 C   0  0  0  0  0  0  0  0  0  0  0  0
  141.4600   78.0390  221.1640 C   0  0  1  0  0  0  0  0  0  0  0  0
  140.9340   78.8450  222.2930 C   0  0  0  0  0  0  0  0  0  0  0  0
  140.7740   80.2990  222.0040 C   0  0  0  0  0  0  0  0  0  0  0  0
  141.6840   81.0420  222.9870 C   0  0  0  0  0  0  0  0  0  0  0  0
  142.5700   80.0210  223.6280 C   0  0  0  0  0  0  0  0  0  0  0  0
  141.8540   78.7020  223.4640 C   0  0  0  0  0  0  0  0  0  0  0  0
  140.2860   71.5230  223.5090 C   0  0  0  0  0  0  0  0  0  0  0  0
  139.6190   70.3340  223.3320 C   0  0  0  0  0  0  0  0  0  0  0  0
  139.3640   69.4880  224.4160 C   0  0  0  0  0  0  0  0  0  0  0  0
  139.8010   69.8760  225.6820 C   0  0  0  0  0  0  0  0  0  0  0  0
  139.5910   69.1020  226.8020 C   0  0  0  0  0  0  0  0  0  0  0  0
  140.0270   69.4930  228.0530 C   0  0  0  0  0  0  0  0  0  0  0  0
  140.6950   70.6970  228.1930 C   0  0  0  0  0  0  0  0  0  0  0  0
  140.9050   71.4710  227.0710 C   0  0  0  0  0  0  0  0  0  0  0  0
  140.4700   71.0810  225.8220 C   0  0  0  0  0  0  0  0  0  0  0  0
  140.6980   71.8720  224.7510 N   0  0  0  0  0  0  0  0  0  0  0  0
  139.3530   73.9660  223.1670 H   0  0  0  0  0  0  0  0  0  0  0  0
  141.2381   74.4564  220.8788 H   0  0  0  0  0  0  0  0  0  0  0  0
  139.4791   74.3589  220.4379 H   0  0  0  0  0  0  0  0  0  0  0  0
  139.4028   76.2906  219.0725 H   0  0  0  0  0  0  0  0  0  0  0  0
  139.6455   78.0418  219.0774 H   0  0  0  0  0  0  0  0  0  0  0  0
  141.8856   75.9527  218.8497 H   0  0  0  0  0  0  0  0  0  0  0  0
  141.1809   76.8278  217.4621 H   0  0  0  0  0  0  0  0  0  0  0  0
  143.3097   77.6789  219.0600 H   0  0  0  0  0  0  0  0  0  0  0  0
  142.3055   78.7042  217.9349 H   0  0  0  0  0  0  0  0  0  0  0  0
  142.6415   79.5856  220.2780 H   0  0  0  0  0  0  0  0  0  0  0  0
  140.9443   79.4607  219.6629 H   0  0  0  0  0  0  0  0  0  0  0  0
  142.3625   77.5459  221.5543 H   0  0  0  0  0  0  0  0  0  0  0  0
  139.9265   78.4520  222.4941 H   0  0  0  0  0  0  0  0  0  0  0  0
  141.0760   80.5159  220.9687 H   0  0  0  0  0  0  0  0  0  0  0  0
  139.7261   80.6136  222.1174 H   0  0  0  0  0  0  0  0  0  0  0  0
  142.2921   81.7847  222.4499 H   0  0  0  0  0  0  0  0  0  0  0  0
  141.0891   81.5735  223.7444 H   0  0  0  0  0  0  0  0  0  0  0  0
  143.5483   79.9919  223.1258 H   0  0  0  0  0  0  0  0  0  0  0  0
  142.7587   80.2529  224.6866 H   0  0  0  0  0  0  0  0  0  0  0  0
  142.5813   77.8983  223.2768 H   0  0  0  0  0  0  0  0  0  0  0  0
  141.2928   78.4447  224.3744 H   0  0  0  0  0  0  0  0  0  0  0  0
  139.2819   70.0446  222.3257 H   0  0  0  0  0  0  0  0  0  0  0  0
  138.8302   68.5369  224.2730 H   0  0  0  0  0  0  0  0  0  0  0  0
  139.0604   68.1442  226.6970 H   0  0  0  0  0  0  0  0  0  0  0  0
  139.8450   68.8537  228.9294 H   0  0  0  0  0  0  0  0  0  0  0  0
  141.0512   71.0298  229.1791 H   0  0  0  0  0  0  0  0  0  0  0  0
  141.4358   72.4288  227.1757 H   0  0  0  0  0  0  0  0  0  0  0  0
  1  2  2  0
  2  3  1  0
  3  4  1  0
  4  5  1  0
  5  6  2  0
  5  7  1  0
  7  8  1  0
  8  9  1  0
  9 10  1  0
 10 11  1  0
 11 12  1  0
 12 13  1  0
 13 14  1  0
 14 15  1  0
 15 16  1  0
 16 17  1  0
  2 18  1  0
 18 19  2  0
 19 20  1  0
 20 21  2  0
 21 22  1  0
 22 23  2  0
 23 24  1  0
 24 25  2  0
 25 26  1  0
 26 27  2  0
 12  7  1  0
 17 13  1  0
 27 18  1  0
 26 21  1  0
  3 28  1  0
  4 29  1  0
  4 30  1  0
  8 31  1  0
  8 32  1  0
  9 33  1  0
  9 34  1  0
 10 35  1  0
 10 36  1  0
 11 37  1  0
 11 38  1  0
 12 39  1  1
 13 40  1  0
 14 41  1  0
 14 42  1  0
 15 43  1  0
 15 44  1  0
 16 45  1  0
 16 46  1  0
 17 47  1  0
 17 48  1  0
 19 49  1  0
 20 50  1  0
 22 51  1  0
 23 52  1  0
 24 53  1  0
 25 54  1  0
M  END
>  <smiles>  (74) 
O=C(NCC(=O)N1CCCCC1C1CCCC1)c1ccc2ccccc2n1

>  <score_type>  (74) 
oracle

>  <origin>  (74) 
autodockgpu

>  <m_score__min__energy>  (74) 
-9.0199999999999996

>  <m_primary>  (74) 
energy

>  <rmsd>  (74) 
1.982166385271949

>  <m_score__min__rmsd>  (74) 
1.982166385271949

>  <meeko>  (74) 
{"free_energy": -8.78, "intermolecular_energy": -10.27, "internal_energy": -1.71, "cluster_size": 33, "cluster_id": 1, "rank_in_cluster": 12}

>  <energy>  (74) 
-8.63

>  <cluster_rmsd>  (74) 
1.35

>  <cluster>  (74) 
1

$$$$

     RDKit          3D

 54 57  0  0  0  0  0  0  0  0999 V2000
  141.4340   72.3410  221.7100 O   0  0  0  0  0  0  0  0  0  0  0  0
  140.4610   72.5350  222.5140 C   0  0  0  0  0  0  0  0  0  0  0  0
  139.5820   73.6490  222.3620 N   0  0  0  0  0  0  0  0  0  0  0  0
  139.7720   74.5990  221.2830 C   0  0  0  0  0  0  0  0  0  0  0  0
  139.5340   75.9840  221.7160 C   0  0  0  0  0  0  0  0  0  0  0  0
  138.7730   76.1750  222.7000 O   0  0  0  0  0  0  0  0  0  0  0  0
  140.1740   77.0290  221.0000 N   0  0  0  0  0  0  0  0  0  0  0  0
  139.8720   77.3360  219.6070 C   0  0  0  0  0  0  0  0  0  0  0  0
  141.1540   77.1090  218.8580 C   0  0  0  0  0  0  0  0  0  0  0  0
  142.1630   78.1260  219.3410 C   0  0  0  0  0  0  0  0  0  0  0  0
  141.7230   78.8480  220.5810 C   0  0  0  0  0  0  0  0  0  0  0  0
  141.1990   77.8840  221.6180 C   0  0  1  0  0  0  0  0  0  0  0  0
  140.7010   78.5840  222.8270 C   0  0  0  0  0  0  0  0  0  0  0  0
  140.1240   79.9350  222.5750 C   0  0  0  0  0  0  0  0  0  0  0  0
  140.9770   80.9300  223.3680 C   0  0  0  0  0  0  0  0  0  0  0  0
  142.1980   80.1970  223.8270 C   0  0  0  0  0  0  0  0  0  0  0  0
  141.8270   78.7350  223.8010 C   0  0  0  0  0  0  0  0  0  0  0  0
  140.2450   71.5970  223.6110 C   0  0  0  0  0  0  0  0  0  0  0  0
  139.5790   70.4130  223.3960 C   0  0  0  0  0  0  0  0  0  0  0  0
  139.3670   69.5110  224.4430 C   0  0  0  0  0  0  0  0  0  0  0  0
  139.8480   69.8360  225.7120 C   0  0  0  0  0  0  0  0  0  0  0  0
  139.6830   69.0030  226.7970 C   0  0  0  0  0  0  0  0  0  0  0  0
  140.1610   69.3320  228.0490 C   0  0  0  0  0  0  0  0  0  0  0  0
  140.8270   70.5320  228.2290 C   0  0  0  0  0  0  0  0  0  0  0  0
  140.9920   71.3650  227.1420 C   0  0  0  0  0  0  0  0  0  0  0  0
  140.5140   71.0370  225.8900 C   0  0  0  0  0  0  0  0  0  0  0  0
  140.6990   71.8840  224.8550 N   0  0  0  0  0  0  0  0  0  0  0  0
  138.8020   73.7380  223.0700 H   0  0  0  0  0  0  0  0  0  0  0  0
  140.8051   74.5153  220.9147 H   0  0  0  0  0  0  0  0  0  0  0  0
  139.0454   74.3622  220.4918 H   0  0  0  0  0  0  0  0  0  0  0  0
  139.0829   76.6694  219.2289 H   0  0  0  0  0  0  0  0  0  0  0  0
  139.5064   78.3665  219.4866 H   0  0  0  0  0  0  0  0  0  0  0  0
  141.5257   76.0923  219.0535 H   0  0  0  0  0  0  0  0  0  0  0  0
  140.9891   77.2181  217.7759 H   0  0  0  0  0  0  0  0  0  0  0  0
  143.1087   77.6066  219.5551 H   0  0  0  0  0  0  0  0  0  0  0  0
  142.2772   78.8780  218.5464 H   0  0  0  0  0  0  0  0  0  0  0  0
  142.5800   79.3952  221.0006 H   0  0  0  0  0  0  0  0  0  0  0  0
  140.9137   79.5423  220.3108 H   0  0  0  0  0  0  0  0  0  0  0  0
  142.0241   77.2470  221.9693 H   0  0  0  0  0  0  0  0  0  0  0  0
  139.8832   77.9595  223.2159 H   0  0  0  0  0  0  0  0  0  0  0  0
  140.1651   80.1711  221.5014 H   0  0  0  0  0  0  0  0  0  0  0  0
  139.0698   79.9804  222.8857 H   0  0  0  0  0  0  0  0  0  0  0  0
  141.2641   81.7759  222.7261 H   0  0  0  0  0  0  0  0  0  0  0  0
  140.4156   81.3298  224.2254 H   0  0  0  0  0  0  0  0  0  0  0  0
  143.0408   80.3914  223.1474 H   0  0  0  0  0  0  0  0  0  0  0  0
  142.5131   80.5192  224.8304 H   0  0  0  0  0  0  0  0  0  0  0  0
  142.6888   78.1327  223.4777 H   0  0  0  0  0  0  0  0  0  0  0  0
  141.5282   78.3891  224.8015 H   0  0  0  0  0  0  0  0  0  0  0  0
  139.2087   70.1729  222.3884 H   0  0  0  0  0  0  0  0  0  0  0  0
  138.8324   68.5653  224.2701 H   0  0  0  0  0  0  0  0  0  0  0  0
  139.1548   68.0477  226.6612 H   0  0  0  0  0  0  0  0  0  0  0  0
  140.0140   68.6465  228.8967 H   0  0  0  0  0  0  0  0  0  0  0  0
  141.2164   70.8154  229.2180 H   0  0  0  0  0  0  0  0  0  0  0  0
  141.5208   72.3200  227.2775 H   0  0  0  0  0  0  0  0  0  0  0  0
  1  2  2  0
  2  3  1  0
  3  4  1  0
  4  5  1  0
  5  6  2  0
  5  7  1  0
  7  8  1  0
  8  9  1  0
  9 10  1  0
 10 11  1  0
 11 12  1  0
 12 13  1  0
 13 14  1  0
 14 15  1  0
 15 16  1  0
 16 17  1  0
  2 18  1  0
 18 19  2  0
 19 20  1  0
 20 21  2  0
 21 22  1  0
 22 23  2  0
 23 24  1  0
 24 25  2  0
 25 26  1  0
 26 27  2  0
 12  7  1  0
 17 13  1  0
 27 18  1  0
 26 21  1  0
  3 28  1  0
  4 29  1  0
  4 30  1  0
  8 31  1  0
  8 32  1  0
  9 33  1  0
  9 34  1  0
 10 35  1  0
 10 36  1  0
 11 37  1  0
 11 38  1  0
 12 39  1  1
 13 40  1  0
 14 41  1  0
 14 42  1  0
 15 43  1  0
 15 44  1  0
 16 45  1  0
 16 46  1  0
 17 47  1  0
 17 48  1  0
 19 49  1  0
 20 50  1  0
 22 51  1  0
 23 52  1  0
 24 53  1  0
 25 54  1  0
M  END
>  <smiles>  (75) 
O=C(NCC(=O)N1CCCCC1C1CCCC1)c1ccc2ccccc2n1

>  <score_type>  (75) 
oracle

>  <origin>  (75) 
autodockgpu

>  <m_score__min__energy>  (75) 
-9.0199999999999996

>  <m_primary>  (75) 
energy

>  <rmsd>  (75) 
2.080320350998009

>  <m_score__min__rmsd>  (75) 
2.080320350998009

>  <meeko>  (75) 
{"free_energy": -8.83, "intermolecular_energy": -10.32, "internal_energy": -1.58, "cluster_size": 33, "cluster_id": 1, "rank_in_cluster": 9}

>  <energy>  (75) 
-8.62

>  <cluster_rmsd>  (75) 
1.43

>  <cluster>  (75) 
1

$$$$

     RDKit          3D

 54 57  0  0  0  0  0  0  0  0999 V2000
  140.2100   71.4080  221.2490 O   0  0  0  0  0  0  0  0  0  0  0  0
  139.9820   71.9780  222.3700 C   0  0  0  0  0  0  0  0  0  0  0  0
  139.7590   73.3840  222.4560 N   0  0  0  0  0  0  0  0  0  0  0  0
  139.7860   74.2120  221.2650 C   0  0  0  0  0  0  0  0  0  0  0  0
  139.9840   75.6340  221.5830 C   0  0  0  0  0  0  0  0  0  0  0  0
  139.6080   76.0460  222.7110 O   0  0  0  0  0  0  0  0  0  0  0  0
  140.5850   76.4620  220.6010 N   0  0  0  0  0  0  0  0  0  0  0  0
  140.3650   76.2850  219.1700 C   0  0  0  0  0  0  0  0  0  0  0  0
  141.7140   75.9690  218.5920 C   0  0  0  0  0  0  0  0  0  0  0  0
  142.5940   77.1860  218.7700 C   0  0  0  0  0  0  0  0  0  0  0  0
  142.0010   78.2100  219.6930 C   0  0  0  0  0  0  0  0  0  0  0  0
  141.4840   77.5700  220.9590 C   0  0  1  0  0  0  0  0  0  0  0  0
  140.8390   78.5580  221.8580 C   0  0  0  0  0  0  0  0  0  0  0  0
  140.9860   79.9800  221.4350 C   0  0  0  0  0  0  0  0  0  0  0  0
  141.7410   80.6940  222.5600 C   0  0  0  0  0  0  0  0  0  0  0  0
  142.2740   79.6380  223.4750 C   0  0  0  0  0  0  0  0  0  0  0  0
  141.4180   78.4190  223.2300 C   0  0  0  0  0  0  0  0  0  0  0  0
  139.9500   71.1720  223.5850 C   0  0  0  0  0  0  0  0  0  0  0  0
  139.5300   69.8630  223.5450 C   0  0  0  0  0  0  0  0  0  0  0  0
  139.4960   69.0850  224.7070 C   0  0  0  0  0  0  0  0  0  0  0  0
  139.8990   69.6660  225.9100 C   0  0  0  0  0  0  0  0  0  0  0  0
  139.8960   68.9700  227.0990 C   0  0  0  0  0  0  0  0  0  0  0  0
  140.2960   69.5510  228.2860 C   0  0  0  0  0  0  0  0  0  0  0  0
  140.7140   70.8710  228.2890 C   0  0  0  0  0  0  0  0  0  0  0  0
  140.7160   71.5660  227.0980 C   0  0  0  0  0  0  0  0  0  0  0  0
  140.3160   70.9860  225.9120 C   0  0  0  0  0  0  0  0  0  0  0  0
  140.3350   71.7060  224.7690 N   0  0  0  0  0  0  0  0  0  0  0  0
  139.5780   73.7770  223.4200 H   0  0  0  0  0  0  0  0  0  0  0  0
  140.6094   73.8755  220.6179 H   0  0  0  0  0  0  0  0  0  0  0  0
  138.8139   74.1104  220.7603 H   0  0  0  0  0  0  0  0  0  0  0  0
  139.6653   75.4559  218.9884 H   0  0  0  0  0  0  0  0  0  0  0  0
  139.9249   77.1826  218.7110 H   0  0  0  0  0  0  0  0  0  0  0  0
  142.1541   75.1095  219.1189 H   0  0  0  0  0  0  0  0  0  0  0  0
  141.6234   75.7150  217.5256 H   0  0  0  0  0  0  0  0  0  0  0  0
  143.5612   76.8617  219.1816 H   0  0  0  0  0  0  0  0  0  0  0  0
  142.7047   77.6585  217.7829 H   0  0  0  0  0  0  0  0  0  0  0  0
  142.7737   78.9481  219.9538 H   0  0  0  0  0  0  0  0  0  0  0  0
  141.1584   78.6956  219.1791 H   0  0  0  0  0  0  0  0  0  0  0  0
  142.3310   77.1646  221.5319 H   0  0  0  0  0  0  0  0  0  0  0  0
  139.7633   78.3303  221.8258 H   0  0  0  0  0  0  0  0  0  0  0  0
  141.5570   80.0400  220.4967 H   0  0  0  0  0  0  0  0  0  0  0  0
  140.0051   80.4450  221.2575 H   0  0  0  0  0  0  0  0  0  0  0  0
  142.5700   81.2840  222.1421 H   0  0  0  0  0  0  0  0  0  0  0  0
  141.0747   81.3807  223.1027 H   0  0  0  0  0  0  0  0  0  0  0  0
  143.3266   79.4217  223.2398 H   0  0  0  0  0  0  0  0  0  0  0  0
  142.2384   79.9556  224.5276 H   0  0  0  0  0  0  0  0  0  0  0  0
  142.0320   77.5083  223.2901 H   0  0  0  0  0  0  0  0  0  0  0  0
  140.6221   78.3408  223.9852 H   0  0  0  0  0  0  0  0  0  0  0  0
  139.2168   69.4222  222.5871 H   0  0  0  0  0  0  0  0  0  0  0  0
  139.1591   68.0384  224.6732 H   0  0  0  0  0  0  0  0  0  0  0  0
  139.5653   67.9209  227.1028 H   0  0  0  0  0  0  0  0  0  0  0  0
  140.2827   68.9707  229.2204 H   0  0  0  0  0  0  0  0  0  0  0  0
  141.0378   71.3552  229.2221 H   0  0  0  0  0  0  0  0  0  0  0  0
  141.0467   72.6151  227.0935 H   0  0  0  0  0  0  0  0  0  0  0  0
  1  2  2  0
  2  3  1  0
  3  4  1  0
  4  5  1  0
  5  6  2  0
  5  7  1  0
  7  8  1  0
  8  9  1  0
  9 10  1  0
 10 11  1  0
 11 12  1  0
 12 13  1  0
 13 14  1  0
 14 15  1  0
 15 16  1  0
 16 17  1  0
  2 18  1  0
 18 19  2  0
 19 20  1  0
 20 21  2  0
 21 22  1  0
 22 23  2  0
 23 24  1  0
 24 25  2  0
 25 26  1  0
 26 27  2  0
 12  7  1  0
 17 13  1  0
 27 18  1  0
 26 21  1  0
  3 28  1  0
  4 29  1  0
  4 30  1  0
  8 31  1  0
  8 32  1  0
  9 33  1  0
  9 34  1  0
 10 35  1  0
 10 36  1  0
 11 37  1  0
 11 38  1  0
 12 39  1  1
 13 40  1  0
 14 41  1  0
 14 42  1  0
 15 43  1  0
 15 44  1  0
 16 45  1  0
 16 46  1  0
 17 47  1  0
 17 48  1  0
 19 49  1  0
 20 50  1  0
 22 51  1  0
 23 52  1  0
 24 53  1  0
 25 54  1  0
M  END
>  <smiles>  (76) 
O=C(NCC(=O)N1CCCCC1C1CCCC1)c1ccc2ccccc2n1

>  <score_type>  (76) 
oracle

>  <origin>  (76) 
autodockgpu

>  <m_score__min__energy>  (76) 
-9.0199999999999996

>  <m_primary>  (76) 
energy

>  <rmsd>  (76) 
1.6075054189733307

>  <m_score__min__rmsd>  (76) 
1.6075054189733307

>  <meeko>  (76) 
{"free_energy": -8.55, "intermolecular_energy": -10.05, "internal_energy": -1.81, "cluster_size": 33, "cluster_id": 1, "rank_in_cluster": 31}

>  <energy>  (76) 
-8.62

>  <cluster_rmsd>  (76) 
1.42

>  <cluster>  (76) 
1

$$$$

     RDKit          3D

 54 57  0  0  0  0  0  0  0  0999 V2000
  141.4390   72.5440  221.9790 O   0  0  0  0  0  0  0  0  0  0  0  0
  140.3510   72.5620  222.6490 C   0  0  0  0  0  0  0  0  0  0  0  0
  139.3120   73.4950  222.3520 N   0  0  0  0  0  0  0  0  0  0  0  0
  139.4640   74.4530  221.2740 C   0  0  0  0  0  0  0  0  0  0  0  0
  140.2080   75.6480  221.6970 C   0  0  0  0  0  0  0  0  0  0  0  0
  141.4470   75.6840  221.4770 O   0  0  0  0  0  0  0  0  0  0  0  0
  139.4900   76.6950  222.3310 N   0  0  0  0  0  0  0  0  0  0  0  0
  138.2640   76.4700  223.0880 C   0  0  0  0  0  0  0  0  0  0  0  0
  137.1980   77.2440  222.3670 C   0  0  0  0  0  0  0  0  0  0  0  0
  137.5370   78.7150  222.4730 C   0  0  0  0  0  0  0  0  0  0  0  0
  138.9260   78.9620  222.9840 C   0  0  0  0  0  0  0  0  0  0  0  0
  139.9340   78.0950  222.2680 C   0  0  1  0  0  0  0  0  0  0  0  0
  141.3060   78.2820  222.8020 C   0  0  0  0  0  0  0  0  0  0  0  0
  141.3790   79.0150  224.0980 C   0  0  0  0  0  0  0  0  0  0  0  0
  142.2060   80.2780  223.8390 C   0  0  0  0  0  0  0  0  0  0  0  0
  142.3530   80.4140  222.3560 C   0  0  0  0  0  0  0  0  0  0  0  0
  142.1230   79.0310  221.7970 C   0  0  0  0  0  0  0  0  0  0  0  0
  140.1690   71.6110  223.7400 C   0  0  0  0  0  0  0  0  0  0  0  0
  139.4760   70.4410  223.5380 C   0  0  0  0  0  0  0  0  0  0  0  0
  139.2980   69.5250  224.5790 C   0  0  0  0  0  0  0  0  0  0  0  0
  139.8390   69.8240  225.8300 C   0  0  0  0  0  0  0  0  0  0  0  0
  139.7090   68.9760  226.9090 C   0  0  0  0  0  0  0  0  0  0  0  0
  140.2480   69.2790  228.1440 C   0  0  0  0  0  0  0  0  0  0  0  0
  140.9400   70.4660  228.3110 C   0  0  0  0  0  0  0  0  0  0  0  0
  141.0690   71.3130  227.2300 C   0  0  0  0  0  0  0  0  0  0  0  0
  140.5310   71.0110  225.9960 C   0  0  0  0  0  0  0  0  0  0  0  0
  140.6830   71.8720  224.9660 N   0  0  0  0  0  0  0  0  0  0  0  0
  138.4440   73.4440  222.9540 H   0  0  0  0  0  0  0  0  0  0  0  0
  140.0059   73.9724  220.4462 H   0  0  0  0  0  0  0  0  0  0  0  0
  138.4592   74.7728  220.9609 H   0  0  0  0  0  0  0  0  0  0  0  0
  138.0150   75.3987  223.1064 H   0  0  0  0  0  0  0  0  0  0  0  0
  138.3658   76.7940  224.1343 H   0  0  0  0  0  0  0  0  0  0  0  0
  137.1684   76.9428  221.3095 H   0  0  0  0  0  0  0  0  0  0  0  0
  136.2126   77.0453  222.8138 H   0  0  0  0  0  0  0  0  0  0  0  0
  137.4450   79.1686  221.4751 H   0  0  0  0  0  0  0  0  0  0  0  0
  136.8371   79.1625  223.1941 H   0  0  0  0  0  0  0  0  0  0  0  0
  139.1843   80.0192  222.8241 H   0  0  0  0  0  0  0  0  0  0  0  0
  138.9520   78.7139  224.0553 H   0  0  0  0  0  0  0  0  0  0  0  0
  139.9883   78.3987  221.2122 H   0  0  0  0  0  0  0  0  0  0  0  0
  141.6911   77.2692  222.9916 H   0  0  0  0  0  0  0  0  0  0  0  0
  140.3687   79.2858  224.4386 H   0  0  0  0  0  0  0  0  0  0  0  0
  141.8381   78.3932  224.8807 H   0  0  0  0  0  0  0  0  0  0  0  0
  141.6885   81.1580  224.2487 H   0  0  0  0  0  0  0  0  0  0  0  0
  143.1906   80.2064  224.3242 H   0  0  0  0  0  0  0  0  0  0  0  0
  141.6065   81.1177  221.9590 H   0  0  0  0  0  0  0  0  0  0  0  0
  143.3430   80.8055  222.0792 H   0  0  0  0  0  0  0  0  0  0  0  0
  141.5809   79.0951  220.8420 H   0  0  0  0  0  0  0  0  0  0  0  0
  143.0789   78.5199  221.6095 H   0  0  0  0  0  0  0  0  0  0  0  0
  139.0563   70.2229  222.5449 H   0  0  0  0  0  0  0  0  0  0  0  0
  138.7436   68.5891  224.4155 H   0  0  0  0  0  0  0  0  0  0  0  0
  139.1603   68.0310  226.7828 H   0  0  0  0  0  0  0  0  0  0  0  0
  140.1284   68.5831  228.9874 H   0  0  0  0  0  0  0  0  0  0  0  0
  141.3779   70.7284  229.2854 H   0  0  0  0  0  0  0  0  0  0  0  0
  141.6176   72.2581  227.3556 H   0  0  0  0  0  0  0  0  0  0  0  0
  1  2  2  0
  2  3  1  0
  3  4  1  0
  4  5  1  0
  5  6  2  0
  5  7  1  0
  7  8  1  0
  8  9  1  0
  9 10  1  0
 10 11  1  0
 11 12  1  0
 12 13  1  0
 13 14  1  0
 14 15  1  0
 15 16  1  0
 16 17  1  0
  2 18  1  0
 18 19  2  0
 19 20  1  0
 20 21  2  0
 21 22  1  0
 22 23  2  0
 23 24  1  0
 24 25  2  0
 25 26  1  0
 26 27  2  0
 12  7  1  0
 17 13  1  0
 27 18  1  0
 26 21  1  0
  3 28  1  0
  4 29  1  0
  4 30  1  0
  8 31  1  0
  8 32  1  0
  9 33  1  0
  9 34  1  0
 10 35  1  0
 10 36  1  0
 11 37  1  0
 11 38  1  0
 12 39  1  6
 13 40  1  0
 14 41  1  0
 14 42  1  0
 15 43  1  0
 15 44  1  0
 16 45  1  0
 16 46  1  0
 17 47  1  0
 17 48  1  0
 19 49  1  0
 20 50  1  0
 22 51  1  0
 23 52  1  0
 24 53  1  0
 25 54  1  0
M  END
>  <smiles>  (77) 
O=C(NCC(=O)N1CCCCC1C1CCCC1)c1ccc2ccccc2n1

>  <score_type>  (77) 
oracle

>  <origin>  (77) 
autodockgpu

>  <m_score__min__energy>  (77) 
-9.0199999999999996

>  <m_primary>  (77) 
energy

>  <rmsd>  (77) 
3.196059403656632

>  <m_score__min__rmsd>  (77) 
3.196059403656632

>  <meeko>  (77) 
{"free_energy": -8.99, "intermolecular_energy": -10.48, "internal_energy": -1.32, "cluster_size": 33, "cluster_id": 1, "rank_in_cluster": 3}

>  <energy>  (77) 
-8.62

>  <cluster_rmsd>  (77) 
1.42

>  <cluster>  (77) 
1

$$$$

     RDKit          3D

 54 57  0  0  0  0  0  0  0  0999 V2000
  140.8790   71.3970  221.3460 O   0  0  0  0  0  0  0  0  0  0  0  0
  140.3660   71.9970  222.3500 C   0  0  0  0  0  0  0  0  0  0  0  0
  139.9970   73.3740  222.2840 N   0  0  0  0  0  0  0  0  0  0  0  0
  140.1970   74.1360  221.0660 C   0  0  0  0  0  0  0  0  0  0  0  0
  140.9710   75.3630  221.3010 C   0  0  0  0  0  0  0  0  0  0  0  0
  140.7450   76.0140  222.3550 O   0  0  0  0  0  0  0  0  0  0  0  0
  141.9290   75.7470  220.3270 N   0  0  0  0  0  0  0  0  0  0  0  0
  142.0910   77.1240  219.8740 C   0  0  0  0  0  0  0  0  0  0  0  0
  141.7750   77.1040  218.4060 C   0  0  0  0  0  0  0  0  0  0  0  0
  142.8280   76.2680  217.7140 C   0  0  0  0  0  0  0  0  0  0  0  0
  143.6800   75.4860  218.6700 C   0  0  0  0  0  0  0  0  0  0  0  0
  142.8350   74.7740  219.6980 C   0  0  1  0  0  0  0  0  0  0  0  0
  143.6630   74.0450  220.6900 C   0  0  0  0  0  0  0  0  0  0  0  0
  145.1260   74.3200  220.6070 C   0  0  0  0  0  0  0  0  0  0  0  0
  145.8050   72.9820  220.2970 C   0  0  0  0  0  0  0  0  0  0  0  0
  144.7270   72.0170  219.9170 C   0  0  0  0  0  0  0  0  0  0  0  0
  143.4560   72.5740  220.5100 C   0  0  0  0  0  0  0  0  0  0  0  0
  140.1540   71.2570  223.5900 C   0  0  0  0  0  0  0  0  0  0  0  0
  139.5620   70.0170  223.5700 C   0  0  0  0  0  0  0  0  0  0  0  0
  139.3560   69.3030  224.7550 C   0  0  0  0  0  0  0  0  0  0  0  0
  139.7640   69.8770  225.9590 C   0  0  0  0  0  0  0  0  0  0  0  0
  139.5980   69.2410  227.1710 C   0  0  0  0  0  0  0  0  0  0  0  0
  140.0040   69.8160  228.3580 C   0  0  0  0  0  0  0  0  0  0  0  0
  140.5970   71.0670  228.3400 C   0  0  0  0  0  0  0  0  0  0  0  0
  140.7630   71.7010  227.1270 C   0  0  0  0  0  0  0  0  0  0  0  0
  140.3570   71.1280  225.9400 C   0  0  0  0  0  0  0  0  0  0  0  0
  140.5400   71.7880  224.7760 N   0  0  0  0  0  0  0  0  0  0  0  0
  139.5800   73.7950  223.1590 H   0  0  0  0  0  0  0  0  0  0  0  0
  140.7371   73.5097  220.3407 H   0  0  0  0  0  0  0  0  0  0  0  0
  139.2079   74.4281  220.6835 H   0  0  0  0  0  0  0  0  0  0  0  0
  141.3956   77.7885  220.4078 H   0  0  0  0  0  0  0  0  0  0  0  0
  143.1064   77.5002  220.0675 H   0  0  0  0  0  0  0  0  0  0  0  0
  140.7810   76.6617  218.2439 H   0  0  0  0  0  0  0  0  0  0  0  0
  141.7716   78.1269  218.0013 H   0  0  0  0  0  0  0  0  0  0  0  0
  142.3253   75.5629  217.0357 H   0  0  0  0  0  0  0  0  0  0  0  0
  143.4914   76.9583  217.1723 H   0  0  0  0  0  0  0  0  0  0  0  0
  144.2616   74.7419  218.1060 H   0  0  0  0  0  0  0  0  0  0  0  0
  144.3484   76.1857  219.1930 H   0  0  0  0  0  0  0  0  0  0  0  0
  142.2313   74.0019  219.1987 H   0  0  0  0  0  0  0  0  0  0  0  0
  143.3307   74.4035  221.6754 H   0  0  0  0  0  0  0  0  0  0  0  0
  145.3313   75.0447  219.8053 H   0  0  0  0  0  0  0  0  0  0  0  0
  145.5035   74.7484  221.5472 H   0  0  0  0  0  0  0  0  0  0  0  0
  146.5135   73.1028  219.4642 H   0  0  0  0  0  0  0  0  0  0  0  0
  146.3660   72.6171  221.1700 H   0  0  0  0  0  0  0  0  0  0  0  0
  144.6419   71.9479  218.8225 H   0  0  0  0  0  0  0  0  0  0  0  0
  144.9390   71.0033  220.2879 H   0  0  0  0  0  0  0  0  0  0  0  0
  142.6108   72.3922  219.8298 H   0  0  0  0  0  0  0  0  0  0  0  0
  143.2271   72.0901  221.4709 H   0  0  0  0  0  0  0  0  0  0  0  0
  139.2464   69.5808  222.6108 H   0  0  0  0  0  0  0  0  0  0  0  0
  138.8825   68.3103  224.7378 H   0  0  0  0  0  0  0  0  0  0  0  0
  139.1284   68.2465  227.1924 H   0  0  0  0  0  0  0  0  0  0  0  0
  139.8577   69.2850  229.3102 H   0  0  0  0  0  0  0  0  0  0  0  0
  140.9286   71.5449  229.2736 H   0  0  0  0  0  0  0  0  0  0  0  0
  141.2340   72.6948  227.1053 H   0  0  0  0  0  0  0  0  0  0  0  0
  1  2  2  0
  2  3  1  0
  3  4  1  0
  4  5  1  0
  5  6  2  0
  5  7  1  0
  7  8  1  0
  8  9  1  0
  9 10  1  0
 10 11  1  0
 11 12  1  0
 12 13  1  0
 13 14  1  0
 14 15  1  0
 15 16  1  0
 16 17  1  0
  2 18  1  0
 18 19  2  0
 19 20  1  0
 20 21  2  0
 21 22  1  0
 22 23  2  0
 23 24  1  0
 24 25  2  0
 25 26  1  0
 26 27  2  0
 12  7  1  0
 17 13  1  0
 27 18  1  0
 26 21  1  0
  3 28  1  0
  4 29  1  0
  4 30  1  0
  8 31  1  0
  8 32  1  0
  9 33  1  0
  9 34  1  0
 10 35  1  0
 10 36  1  0
 11 37  1  0
 11 38  1  0
 12 39  1  6
 13 40  1  0
 14 41  1  0
 14 42  1  0
 15 43  1  0
 15 44  1  0
 16 45  1  0
 16 46  1  0
 17 47  1  0
 17 48  1  0
 19 49  1  0
 20 50  1  0
 22 51  1  0
 23 52  1  0
 24 53  1  0
 25 54  1  0
M  END
>  <smiles>  (78) 
O=C(NCC(=O)N1CCCCC1C1CCCC1)c1ccc2ccccc2n1

>  <score_type>  (78) 
oracle

>  <origin>  (78) 
autodockgpu

>  <m_score__min__energy>  (78) 
-9.0199999999999996

>  <m_primary>  (78) 
energy

>  <rmsd>  (78) 
2.366000781218015

>  <m_score__min__rmsd>  (78) 
2.366000781218015

>  <meeko>  (78) 
{"free_energy": -8.49, "intermolecular_energy": -9.99, "internal_energy": -1.89, "cluster_size": 8, "cluster_id": 3, "rank_in_cluster": 6}

>  <energy>  (78) 
-8.6

>  <cluster_rmsd>  (78) 
1.36

>  <cluster>  (78) 
1

$$$$

     RDKit          3D

 54 57  0  0  0  0  0  0  0  0999 V2000
  141.0680   71.8020  221.3550 O   0  0  0  0  0  0  0  0  0  0  0  0
  140.4430   72.2940  222.3550 C   0  0  0  0  0  0  0  0  0  0  0  0
  139.9630   73.6380  222.3430 N   0  0  0  0  0  0  0  0  0  0  0  0
  140.1740   74.4880  221.1870 C   0  0  0  0  0  0  0  0  0  0  0  0
  140.1910   75.9140  221.5440 C   0  0  0  0  0  0  0  0  0  0  0  0
  139.7980   76.2410  222.6950 O   0  0  0  0  0  0  0  0  0  0  0  0
  140.6480   76.8430  220.5730 N   0  0  0  0  0  0  0  0  0  0  0  0
  140.2760   76.7640  219.1650 C   0  0  0  0  0  0  0  0  0  0  0  0
  141.5640   76.5570  218.4210 C   0  0  0  0  0  0  0  0  0  0  0  0
  142.4110   77.7970  218.6010 C   0  0  0  0  0  0  0  0  0  0  0  0
  141.8860   78.7180  219.6630 C   0  0  0  0  0  0  0  0  0  0  0  0
  141.5380   77.9600  220.9210 C   0  0  1  0  0  0  0  0  0  0  0  0
  140.9590   78.8460  221.9610 C   0  0  0  0  0  0  0  0  0  0  0  0
  140.9950   80.3000  221.6370 C   0  0  0  0  0  0  0  0  0  0  0  0
  141.8440   80.9690  222.7230 C   0  0  0  0  0  0  0  0  0  0  0  0
  142.5240   79.8780  223.4870 C   0  0  0  0  0  0  0  0  0  0  0  0
  141.6990   78.6380  223.2450 C   0  0  0  0  0  0  0  0  0  0  0  0
  140.2170   71.4630  223.5330 C   0  0  0  0  0  0  0  0  0  0  0  0
  139.5560   70.2620  223.4240 C   0  0  0  0  0  0  0  0  0  0  0  0
  139.3350   69.4610  224.5490 C   0  0  0  0  0  0  0  0  0  0  0  0
  139.8010   69.9070  225.7870 C   0  0  0  0  0  0  0  0  0  0  0  0
  139.6250   69.1800  226.9440 C   0  0  0  0  0  0  0  0  0  0  0  0
  140.0880   69.6280  228.1650 C   0  0  0  0  0  0  0  0  0  0  0  0
  140.7490   70.8420  228.2370 C   0  0  0  0  0  0  0  0  0  0  0  0
  140.9240   71.5680  227.0780 C   0  0  0  0  0  0  0  0  0  0  0  0
  140.4610   71.1220  225.8580 C   0  0  0  0  0  0  0  0  0  0  0  0
  140.6560   71.8680  224.7490 N   0  0  0  0  0  0  0  0  0  0  0  0
  139.4570   73.9670  223.2100 H   0  0  0  0  0  0  0  0  0  0  0  0
  141.1378   74.2265  220.7258 H   0  0  0  0  0  0  0  0  0  0  0  0
  139.3396   74.3237  220.4893 H   0  0  0  0  0  0  0  0  0  0  0  0
  139.5934   75.9185  218.9945 H   0  0  0  0  0  0  0  0  0  0  0  0
  139.7522   77.6713  218.8297 H   0  0  0  0  0  0  0  0  0  0  0  0
  142.0927   75.6815  218.8260 H   0  0  0  0  0  0  0  0  0  0  0  0
  141.3652   76.3812  217.3535 H   0  0  0  0  0  0  0  0  0  0  0  0
  143.4299   77.4881  218.8776 H   0  0  0  0  0  0  0  0  0  0  0  0
  142.3925   78.3485  217.6494 H   0  0  0  0  0  0  0  0  0  0  0  0
  142.6543   79.4693  219.8980 H   0  0  0  0  0  0  0  0  0  0  0  0
  140.9733   79.2012  219.2843 H   0  0  0  0  0  0  0  0  0  0  0  0
  142.4579   77.5519  221.3651 H   0  0  0  0  0  0  0  0  0  0  0  0
  139.8976   78.5661  222.0314 H   0  0  0  0  0  0  0  0  0  0  0  0
  141.4506   80.4575  220.6482 H   0  0  0  0  0  0  0  0  0  0  0  0
  139.9810   80.7254  221.6076 H   0  0  0  0  0  0  0  0  0  0  0  0
  142.5930   81.6298  222.2622 H   0  0  0  0  0  0  0  0  0  0  0  0
  141.2162   81.5794  223.3889 H   0  0  0  0  0  0  0  0  0  0  0  0
  143.5506   79.7340  223.1191 H   0  0  0  0  0  0  0  0  0  0  0  0
  142.5966   80.1158  224.5585 H   0  0  0  0  0  0  0  0  0  0  0  0
  142.3545   77.7583  223.1646 H   0  0  0  0  0  0  0  0  0  0  0  0
  140.9999   78.4643  224.0763 H   0  0  0  0  0  0  0  0  0  0  0  0
  139.1966   69.9272  222.4397 H   0  0  0  0  0  0  0  0  0  0  0  0
  138.8057   68.5008  224.4602 H   0  0  0  0  0  0  0  0  0  0  0  0
  139.1003   68.2145  226.8934 H   0  0  0  0  0  0  0  0  0  0  0  0
  139.9330   69.0257  229.0723 H   0  0  0  0  0  0  0  0  0  0  0  0
  141.1267   71.2196  229.1986 H   0  0  0  0  0  0  0  0  0  0  0  0
  141.4494   72.5331  227.1281 H   0  0  0  0  0  0  0  0  0  0  0  0
  1  2  2  0
  2  3  1  0
  3  4  1  0
  4  5  1  0
  5  6  2  0
  5  7  1  0
  7  8  1  0
  8  9  1  0
  9 10  1  0
 10 11  1  0
 11 12  1  0
 12 13  1  0
 13 14  1  0
 14 15  1  0
 15 16  1  0
 16 17  1  0
  2 18  1  0
 18 19  2  0
 19 20  1  0
 20 21  2  0
 21 22  1  0
 22 23  2  0
 23 24  1  0
 24 25  2  0
 25 26  1  0
 26 27  2  0
 12  7  1  0
 17 13  1  0
 27 18  1  0
 26 21  1  0
  3 28  1  0
  4 29  1  0
  4 30  1  0
  8 31  1  0
  8 32  1  0
  9 33  1  0
  9 34  1  0
 10 35  1  0
 10 36  1  0
 11 37  1  0
 11 38  1  0
 12 39  1  1
 13 40  1  0
 14 41  1  0
 14 42  1  0
 15 43  1  0
 15 44  1  0
 16 45  1  0
 16 46  1  0
 17 47  1  0
 17 48  1  0
 19 49  1  0
 20 50  1  0
 22 51  1  0
 23 52  1  0
 24 53  1  0
 25 54  1  0
M  END
>  <smiles>  (79) 
O=C(NCC(=O)N1CCCCC1C1CCCC1)c1ccc2ccccc2n1

>  <score_type>  (79) 
oracle

>  <origin>  (79) 
autodockgpu

>  <m_score__min__energy>  (79) 
-9.0199999999999996

>  <m_primary>  (79) 
energy

>  <rmsd>  (79) 
1.8468544256168362

>  <m_score__min__rmsd>  (79) 
1.8468544256168362

>  <meeko>  (79) 
{"free_energy": -8.76, "intermolecular_energy": -10.26, "internal_energy": -1.7, "cluster_size": 33, "cluster_id": 1, "rank_in_cluster": 13}

>  <energy>  (79) 
-8.6

>  <cluster_rmsd>  (79) 
1.37

>  <cluster>  (79) 
1

$$$$

     RDKit          3D

 54 57  0  0  0  0  0  0  0  0999 V2000
  141.4070   72.4350  221.5680 O   0  0  0  0  0  0  0  0  0  0  0  0
  140.4700   72.6380  222.4120 C   0  0  0  0  0  0  0  0  0  0  0  0
  139.6490   73.8030  222.3430 N   0  0  0  0  0  0  0  0  0  0  0  0
  139.8580   74.7960  221.3060 C   0  0  0  0  0  0  0  0  0  0  0  0
  139.5520   76.1560  221.7720 C   0  0  0  0  0  0  0  0  0  0  0  0
  138.7720   76.2850  222.7510 O   0  0  0  0  0  0  0  0  0  0  0  0
  140.1510   77.2480  221.0920 N   0  0  0  0  0  0  0  0  0  0  0  0
  139.6880   77.7240  219.7940 C   0  0  0  0  0  0  0  0  0  0  0  0
  140.8470   77.5300  218.8580 C   0  0  0  0  0  0  0  0  0  0  0  0
  141.9660   78.4420  219.3060 C   0  0  0  0  0  0  0  0  0  0  0  0
  141.7330   79.0360  220.6640 C   0  0  0  0  0  0  0  0  0  0  0  0
  141.2950   77.9830  221.6530 C   0  0  1  0  0  0  0  0  0  0  0  0
  141.0000   78.5620  222.9870 C   0  0  0  0  0  0  0  0  0  0  0  0
  139.8350   79.4920  223.0230 C   0  0  0  0  0  0  0  0  0  0  0  0
  140.3760   80.8510  223.4750 C   0  0  0  0  0  0  0  0  0  0  0  0
  141.8690   80.7760  223.4140 C   0  0  0  0  0  0  0  0  0  0  0  0
  142.2040   79.3060  223.4730 C   0  0  0  0  0  0  0  0  0  0  0  0
  140.2360   71.6580  223.4670 C   0  0  0  0  0  0  0  0  0  0  0  0
  139.5660   70.4880  223.1970 C   0  0  0  0  0  0  0  0  0  0  0  0
  139.3380   69.5450  224.2040 C   0  0  0  0  0  0  0  0  0  0  0  0
  139.8050   69.8160  225.4900 C   0  0  0  0  0  0  0  0  0  0  0  0
  139.6220   68.9410  226.5390 C   0  0  0  0  0  0  0  0  0  0  0  0
  140.0880   69.2170  227.8090 C   0  0  0  0  0  0  0  0  0  0  0  0
  140.7580   70.4050  228.0450 C   0  0  0  0  0  0  0  0  0  0  0  0
  140.9400   71.2790  226.9940 C   0  0  0  0  0  0  0  0  0  0  0  0
  140.4750   71.0050  225.7250 C   0  0  0  0  0  0  0  0  0  0  0  0
  140.6770   71.8920  224.7260 N   0  0  0  0  0  0  0  0  0  0  0  0
  138.8960   73.8960  223.0790 H   0  0  0  0  0  0  0  0  0  0  0  0
  140.9099   74.7590  220.9865 H   0  0  0  0  0  0  0  0  0  0  0  0
  139.1789   74.5630  220.4726 H   0  0  0  0  0  0  0  0  0  0  0  0
  138.8198   77.1385  219.4572 H   0  0  0  0  0  0  0  0  0  0  0  0
  139.3688   78.7759  219.8354 H   0  0  0  0  0  0  0  0  0  0  0  0
  141.1826   76.4830  218.8912 H   0  0  0  0  0  0  0  0  0  0  0  0
  140.5493   77.7683  217.8262 H   0  0  0  0  0  0  0  0  0  0  0  0
  142.9005   77.8624  219.3330 H   0  0  0  0  0  0  0  0  0  0  0  0
  142.0182   79.2741  218.5885 H   0  0  0  0  0  0  0  0  0  0  0  0
  142.6670   79.4957  221.0195 H   0  0  0  0  0  0  0  0  0  0  0  0
  140.9361   79.7898  220.5822 H   0  0  0  0  0  0  0  0  0  0  0  0
  142.1208   77.2755  221.8185 H   0  0  0  0  0  0  0  0  0  0  0  0
  140.7404   77.7080  223.6299 H   0  0  0  0  0  0  0  0  0  0  0  0
  139.3850   79.5759  222.0228 H   0  0  0  0  0  0  0  0  0  0  0  0
  139.0559   79.1266  223.7082 H   0  0  0  0  0  0  0  0  0  0  0  0
  140.0109   81.6436  222.8053 H   0  0  0  0  0  0  0  0  0  0  0  0
  140.0384   81.0856  224.4953 H   0  0  0  0  0  0  0  0  0  0  0  0
  142.2376   81.2165  222.4759 H   0  0  0  0  0  0  0  0  0  0  0  0
  142.3386   81.3339  224.2375 H   0  0  0  0  0  0  0  0  0  0  0  0
  143.0678   79.0894  222.8273 H   0  0  0  0  0  0  0  0  0  0  0  0
  142.4642   79.0040  224.4982 H   0  0  0  0  0  0  0  0  0  0  0  0
  139.2050   70.2915  222.1767 H   0  0  0  0  0  0  0  0  0  0  0  0
  138.8018   68.6095  223.9866 H   0  0  0  0  0  0  0  0  0  0  0  0
  139.0893   67.9955  226.3592 H   0  0  0  0  0  0  0  0  0  0  0  0
  139.9281   68.4987  228.6266 H   0  0  0  0  0  0  0  0  0  0  0  0
  141.1370   70.6466  229.0490 H   0  0  0  0  0  0  0  0  0  0  0  0
  141.4728   72.2244  227.1735 H   0  0  0  0  0  0  0  0  0  0  0  0
  1  2  2  0
  2  3  1  0
  3  4  1  0
  4  5  1  0
  5  6  2  0
  5  7  1  0
  7  8  1  0
  8  9  1  0
  9 10  1  0
 10 11  1  0
 11 12  1  0
 12 13  1  0
 13 14  1  0
 14 15  1  0
 15 16  1  0
 16 17  1  0
  2 18  1  0
 18 19  2  0
 19 20  1  0
 20 21  2  0
 21 22  1  0
 22 23  2  0
 23 24  1  0
 24 25  2  0
 25 26  1  0
 26 27  2  0
 12  7  1  0
 17 13  1  0
 27 18  1  0
 26 21  1  0
  3 28  1  0
  4 29  1  0
  4 30  1  0
  8 31  1  0
  8 32  1  0
  9 33  1  0
  9 34  1  0
 10 35  1  0
 10 36  1  0
 11 37  1  0
 11 38  1  0
 12 39  1  1
 13 40  1  0
 14 41  1  0
 14 42  1  0
 15 43  1  0
 15 44  1  0
 16 45  1  0
 16 46  1  0
 17 47  1  0
 17 48  1  0
 19 49  1  0
 20 50  1  0
 22 51  1  0
 23 52  1  0
 24 53  1  0
 25 54  1  0
M  END
>  <smiles>  (80) 
O=C(NCC(=O)N1CCCCC1C1CCCC1)c1ccc2ccccc2n1

>  <score_type>  (80) 
oracle

>  <origin>  (80) 
autodockgpu

>  <m_score__min__energy>  (80) 
-9.0199999999999996

>  <m_primary>  (80) 
energy

>  <rmsd>  (80) 
2.2085945058084944

>  <m_score__min__rmsd>  (80) 
2.2085945058084944

>  <meeko>  (80) 
{"free_energy": -8.74, "intermolecular_energy": -10.24, "internal_energy": -1.64, "cluster_size": 33, "cluster_id": 1, "rank_in_cluster": 16}

>  <energy>  (80) 
-8.59

>  <cluster_rmsd>  (80) 
1.36

>  <cluster>  (80) 
1

$$$$

     RDKit          3D

 54 57  0  0  0  0  0  0  0  0999 V2000
  141.4340   72.0910  221.4790 O   0  0  0  0  0  0  0  0  0  0  0  0
  140.6140   72.4770  222.3790 C   0  0  0  0  0  0  0  0  0  0  0  0
  139.9950   73.7620  222.3180 N   0  0  0  0  0  0  0  0  0  0  0  0
  140.2840   74.6700  221.2240 C   0  0  0  0  0  0  0  0  0  0  0  0
  139.8140   76.0360  221.5000 C   0  0  0  0  0  0  0  0  0  0  0  0
  138.9610   76.1960  222.4120 O   0  0  0  0  0  0  0  0  0  0  0  0
  140.3470   77.0970  220.7240 N   0  0  0  0  0  0  0  0  0  0  0  0
  139.9770   77.3250  219.3320 C   0  0  0  0  0  0  0  0  0  0  0  0
  141.2480   77.1670  218.5470 C   0  0  0  0  0  0  0  0  0  0  0  0
  142.1890   78.2770  218.9570 C   0  0  0  0  0  0  0  0  0  0  0  0
  141.7340   79.0120  220.1830 C   0  0  0  0  0  0  0  0  0  0  0  0
  141.3210   78.0520  221.2730 C   0  0  1  0  0  0  0  0  0  0  0  0
  140.8100   78.7600  222.4720 C   0  0  0  0  0  0  0  0  0  0  0  0
  140.4870   80.2000  222.2600 C   0  0  0  0  0  0  0  0  0  0  0  0
  141.3940   80.9950  223.2040 C   0  0  0  0  0  0  0  0  0  0  0  0
  142.4230   80.0460  223.7320 C   0  0  0  0  0  0  0  0  0  0  0  0
  141.8290   78.6690  223.5640 C   0  0  0  0  0  0  0  0  0  0  0  0
  140.3040   71.5860  223.4920 C   0  0  0  0  0  0  0  0  0  0  0  0
  139.6240   70.4110  223.2770 C   0  0  0  0  0  0  0  0  0  0  0  0
  139.3230   69.5520  224.3390 C   0  0  0  0  0  0  0  0  0  0  0  0
  139.7300   69.9140  225.6240 C   0  0  0  0  0  0  0  0  0  0  0  0
  139.4740   69.1250  226.7250 C   0  0  0  0  0  0  0  0  0  0  0  0
  139.8790   69.4900  227.9930 C   0  0  0  0  0  0  0  0  0  0  0  0
  140.5630   70.6800  228.1730 C   0  0  0  0  0  0  0  0  0  0  0  0
  140.8180   71.4670  227.0700 C   0  0  0  0  0  0  0  0  0  0  0  0
  140.4130   71.1040  225.8020 C   0  0  0  0  0  0  0  0  0  0  0  0
  140.6850   71.9090  224.7510 N   0  0  0  0  0  0  0  0  0  0  0  0
  139.3290   74.0050  223.1010 H   0  0  0  0  0  0  0  0  0  0  0  0
  141.3717   74.6951  221.0618 H   0  0  0  0  0  0  0  0  0  0  0  0
  139.7557   74.3039  220.3313 H   0  0  0  0  0  0  0  0  0  0  0  0
  139.2301   76.5858  219.0069 H   0  0  0  0  0  0  0  0  0  0  0  0
  139.5289   78.3190  219.1867 H   0  0  0  0  0  0  0  0  0  0  0  0
  141.7040   76.1904  218.7668 H   0  0  0  0  0  0  0  0  0  0  0  0
  141.0408   77.2196  217.4680 H   0  0  0  0  0  0  0  0  0  0  0  0
  143.1786   77.8407  219.1576 H   0  0  0  0  0  0  0  0  0  0  0  0
  142.2185   79.0033  218.1314 H   0  0  0  0  0  0  0  0  0  0  0  0
  142.5584   79.6402  220.5515 H   0  0  0  0  0  0  0  0  0  0  0  0
  140.8646   79.6307  219.9158 H   0  0  0  0  0  0  0  0  0  0  0  0
  142.2038   77.4940  221.6182 H   0  0  0  0  0  0  0  0  0  0  0  0
  139.8647   78.2602  222.7300 H   0  0  0  0  0  0  0  0  0  0  0  0
  140.6844   80.4836  221.2157 H   0  0  0  0  0  0  0  0  0  0  0  0
  139.4255   80.4030  222.4650 H   0  0  0  0  0  0  0  0  0  0  0  0
  141.8826   81.8142  222.6561 H   0  0  0  0  0  0  0  0  0  0  0  0
  140.8112   81.4362  224.0260 H   0  0  0  0  0  0  0  0  0  0  0  0
  143.3571   80.1339  223.1577 H   0  0  0  0  0  0  0  0  0  0  0  0
  142.6705   80.2572  224.7828 H   0  0  0  0  0  0  0  0  0  0  0  0
  142.6146   77.9502  223.2881 H   0  0  0  0  0  0  0  0  0  0  0  0
  141.3686   78.3240  224.5016 H   0  0  0  0  0  0  0  0  0  0  0  0
  139.3125   70.1428  222.2567 H   0  0  0  0  0  0  0  0  0  0  0  0
  138.7779   68.6125  224.1654 H   0  0  0  0  0  0  0  0  0  0  0  0
  138.9316   68.1777  226.5892 H   0  0  0  0  0  0  0  0  0  0  0  0
  139.6600   68.8406  228.8534 H   0  0  0  0  0  0  0  0  0  0  0  0
  140.8959   70.9909  229.1743 H   0  0  0  0  0  0  0  0  0  0  0  0
  141.3613   72.4139  227.2052 H   0  0  0  0  0  0  0  0  0  0  0  0
  1  2  2  0
  2  3  1  0
  3  4  1  0
  4  5  1  0
  5  6  2  0
  5  7  1  0
  7  8  1  0
  8  9  1  0
  9 10  1  0
 10 11  1  0
 11 12  1  0
 12 13  1  0
 13 14  1  0
 14 15  1  0
 15 16  1  0
 16 17  1  0
  2 18  1  0
 18 19  2  0
 19 20  1  0
 20 21  2  0
 21 22  1  0
 22 23  2  0
 23 24  1  0
 24 25  2  0
 25 26  1  0
 26 27  2  0
 12  7  1  0
 17 13  1  0
 27 18  1  0
 26 21  1  0
  3 28  1  0
  4 29  1  0
  4 30  1  0
  8 31  1  0
  8 32  1  0
  9 33  1  0
  9 34  1  0
 10 35  1  0
 10 36  1  0
 11 37  1  0
 11 38  1  0
 12 39  1  1
 13 40  1  0
 14 41  1  0
 14 42  1  0
 15 43  1  0
 15 44  1  0
 16 45  1  0
 16 46  1  0
 17 47  1  0
 17 48  1  0
 19 49  1  0
 20 50  1  0
 22 51  1  0
 23 52  1  0
 24 53  1  0
 25 54  1  0
M  END
>  <smiles>  (81) 
O=C(NCC(=O)N1CCCCC1C1CCCC1)c1ccc2ccccc2n1

>  <score_type>  (81) 
oracle

>  <origin>  (81) 
autodockgpu

>  <m_score__min__energy>  (81) 
-9.0199999999999996

>  <m_primary>  (81) 
energy

>  <rmsd>  (81) 
2.0873385465542027

>  <m_score__min__rmsd>  (81) 
2.0873385465542027

>  <meeko>  (81) 
{"free_energy": -8.64, "intermolecular_energy": -10.13, "internal_energy": -1.74, "cluster_size": 33, "cluster_id": 1, "rank_in_cluster": 23}

>  <energy>  (81) 
-8.55

>  <cluster_rmsd>  (81) 
1.45

>  <cluster>  (81) 
1

$$$$

     RDKit          3D

 54 57  0  0  0  0  0  0  0  0999 V2000
  140.6740   71.4500  221.3170 O   0  0  0  0  0  0  0  0  0  0  0  0
  140.2380   71.9980  222.3860 C   0  0  0  0  0  0  0  0  0  0  0  0
  139.9180   73.3870  222.4320 N   0  0  0  0  0  0  0  0  0  0  0  0
  140.0800   74.2230  221.2570 C   0  0  0  0  0  0  0  0  0  0  0  0
  140.0290   75.6550  221.5850 C   0  0  0  0  0  0  0  0  0  0  0  0
  139.5230   75.9930  222.6870 O   0  0  0  0  0  0  0  0  0  0  0  0
  140.5520   76.5770  220.6420 N   0  0  0  0  0  0  0  0  0  0  0  0
  140.2910   76.4820  219.2100 C   0  0  0  0  0  0  0  0  0  0  0  0
  141.6340   76.2780  218.5690 C   0  0  0  0  0  0  0  0  0  0  0  0
  142.4540   77.5270  218.8010 C   0  0  0  0  0  0  0  0  0  0  0  0
  141.8420   78.4540  219.8080 C   0  0  0  0  0  0  0  0  0  0  0  0
  141.4040   77.7060  221.0450 C   0  0  1  0  0  0  0  0  0  0  0  0
  140.7400   78.5980  222.0270 C   0  0  0  0  0  0  0  0  0  0  0  0
  140.6990   80.0370  221.6400 C   0  0  0  0  0  0  0  0  0  0  0  0
  141.4700   80.8010  222.7200 C   0  0  0  0  0  0  0  0  0  0  0  0
  142.1910   79.7880  223.5510 C   0  0  0  0  0  0  0  0  0  0  0  0
  141.4500   78.4900  223.3400 C   0  0  0  0  0  0  0  0  0  0  0  0
  140.0660   71.1830  223.5840 C   0  0  0  0  0  0  0  0  0  0  0  0
  139.5110   69.9280  223.5010 C   0  0  0  0  0  0  0  0  0  0  0  0
  139.3420   69.1420  224.6460 C   0  0  0  0  0  0  0  0  0  0  0  0
  139.7490   69.6600  225.8760 C   0  0  0  0  0  0  0  0  0  0  0  0
  139.6180   68.9520  227.0510 C   0  0  0  0  0  0  0  0  0  0  0  0
  140.0240   69.4710  228.2640 C   0  0  0  0  0  0  0  0  0  0  0  0
  140.5780   70.7390  228.3100 C   0  0  0  0  0  0  0  0  0  0  0  0
  140.7080   71.4450  227.1330 C   0  0  0  0  0  0  0  0  0  0  0  0
  140.3030   70.9280  225.9210 C   0  0  0  0  0  0  0  0  0  0  0  0
  140.4510   71.6570  224.7930 N   0  0  0  0  0  0  0  0  0  0  0  0
  139.5640   73.7620  223.3550 H   0  0  0  0  0  0  0  0  0  0  0  0
  141.0527   73.9997  220.7943 H   0  0  0  0  0  0  0  0  0  0  0  0
  139.2504   74.0037  220.5687 H   0  0  0  0  0  0  0  0  0  0  0  0
  139.6295   75.6297  218.9957 H   0  0  0  0  0  0  0  0  0  0  0  0
  139.7888   77.3824  218.8265 H   0  0  0  0  0  0  0  0  0  0  0  0
  142.1368   75.4111  219.0225 H   0  0  0  0  0  0  0  0  0  0  0  0
  141.5196   76.0893  217.4914 H   0  0  0  0  0  0  0  0  0  0  0  0
  143.4507   77.2299  219.1591 H   0  0  0  0  0  0  0  0  0  0  0  0
  142.5043   78.0685  217.8448 H   0  0  0  0  0  0  0  0  0  0  0  0
  142.5839   79.2146  220.0927 H   0  0  0  0  0  0  0  0  0  0  0  0
  140.9573   78.9250  219.3547 H   0  0  0  0  0  0  0  0  0  0  0  0
  142.2901   77.3106  221.5633 H   0  0  0  0  0  0  0  0  0  0  0  0
  139.6954   78.2571  222.0786 H   0  0  0  0  0  0  0  0  0  0  0  0
  141.1763   80.1803  220.6594 H   0  0  0  0  0  0  0  0  0  0  0  0
  139.6629   80.3979  221.5611 H   0  0  0  0  0  0  0  0  0  0  0  0
  142.1916   81.4876  222.2531 H   0  0  0  0  0  0  0  0  0  0  0  0
  140.7846   81.3974  223.3401 H   0  0  0  0  0  0  0  0  0  0  0  0
  143.2355   79.6924  223.2196 H   0  0  0  0  0  0  0  0  0  0  0  0
  142.2160   80.0750  224.6126 H   0  0  0  0  0  0  0  0  0  0  0  0
  142.1595   77.6497  223.3175 H   0  0  0  0  0  0  0  0  0  0  0  0
  140.7367   78.3086  224.1575 H   0  0  0  0  0  0  0  0  0  0  0  0
  139.1959   69.5370  222.5223 H   0  0  0  0  0  0  0  0  0  0  0  0
  138.8981   68.1378  224.5781 H   0  0  0  0  0  0  0  0  0  0  0  0
  139.1773   67.9446  227.0215 H   0  0  0  0  0  0  0  0  0  0  0  0
  139.9084   68.8823  229.1860 H   0  0  0  0  0  0  0  0  0  0  0  0
  140.9074   71.1738  229.2652 H   0  0  0  0  0  0  0  0  0  0  0  0
  141.1487   72.4524  227.1619 H   0  0  0  0  0  0  0  0  0  0  0  0
  1  2  2  0
  2  3  1  0
  3  4  1  0
  4  5  1  0
  5  6  2  0
  5  7  1  0
  7  8  1  0
  8  9  1  0
  9 10  1  0
 10 11  1  0
 11 12  1  0
 12 13  1  0
 13 14  1  0
 14 15  1  0
 15 16  1  0
 16 17  1  0
  2 18  1  0
 18 19  2  0
 19 20  1  0
 20 21  2  0
 21 22  1  0
 22 23  2  0
 23 24  1  0
 24 25  2  0
 25 26  1  0
 26 27  2  0
 12  7  1  0
 17 13  1  0
 27 18  1  0
 26 21  1  0
  3 28  1  0
  4 29  1  0
  4 30  1  0
  8 31  1  0
  8 32  1  0
  9 33  1  0
  9 34  1  0
 10 35  1  0
 10 36  1  0
 11 37  1  0
 11 38  1  0
 12 39  1  1
 13 40  1  0
 14 41  1  0
 14 42  1  0
 15 43  1  0
 15 44  1  0
 16 45  1  0
 16 46  1  0
 17 47  1  0
 17 48  1  0
 19 49  1  0
 20 50  1  0
 22 51  1  0
 23 52  1  0
 24 53  1  0
 25 54  1  0
M  END
>  <smiles>  (82) 
O=C(NCC(=O)N1CCCCC1C1CCCC1)c1ccc2ccccc2n1

>  <score_type>  (82) 
oracle

>  <origin>  (82) 
autodockgpu

>  <m_score__min__energy>  (82) 
-9.0199999999999996

>  <m_primary>  (82) 
energy

>  <rmsd>  (82) 
1.7167310901702597

>  <m_score__min__rmsd>  (82) 
1.7167310901702597

>  <meeko>  (82) 
{"free_energy": -8.62, "intermolecular_energy": -10.11, "internal_energy": -1.8, "cluster_size": 33, "cluster_id": 1, "rank_in_cluster": 27}

>  <energy>  (82) 
-8.5

>  <cluster_rmsd>  (82) 
1.38

>  <cluster>  (82) 
1

$$$$

     RDKit          3D

 54 57  0  0  0  0  0  0  0  0999 V2000
  141.4190   72.5830  221.9800 O   0  0  0  0  0  0  0  0  0  0  0  0
  140.3280   72.5950  222.6440 C   0  0  0  0  0  0  0  0  0  0  0  0
  139.2870   73.5230  222.3430 N   0  0  0  0  0  0  0  0  0  0  0  0
  139.4400   74.4850  221.2680 C   0  0  0  0  0  0  0  0  0  0  0  0
  140.1940   75.6740  221.6930 C   0  0  0  0  0  0  0  0  0  0  0  0
  141.4350   75.6950  221.4810 O   0  0  0  0  0  0  0  0  0  0  0  0
  139.4830   76.7300  222.3180 N   0  0  0  0  0  0  0  0  0  0  0  0
  138.2530   76.5200  223.0740 C   0  0  0  0  0  0  0  0  0  0  0  0
  137.1950   77.2980  222.3450 C   0  0  0  0  0  0  0  0  0  0  0  0
  137.5460   78.7660  222.4430 C   0  0  0  0  0  0  0  0  0  0  0  0
  138.9350   79.0050  222.9560 C   0  0  0  0  0  0  0  0  0  0  0  0
  139.9380   78.1260  222.2480 C   0  0  1  0  0  0  0  0  0  0  0  0
  141.3100   78.3050  222.7840 C   0  0  0  0  0  0  0  0  0  0  0  0
  141.3850   79.0360  224.0800 C   0  0  0  0  0  0  0  0  0  0  0  0
  142.2190   80.2950  223.8240 C   0  0  0  0  0  0  0  0  0  0  0  0
  142.3690   80.4320  222.3420 C   0  0  0  0  0  0  0  0  0  0  0  0
  142.1320   79.0510  221.7810 C   0  0  0  0  0  0  0  0  0  0  0  0
  140.1450   71.6400  223.7310 C   0  0  0  0  0  0  0  0  0  0  0  0
  139.4370   70.4790  223.5300 C   0  0  0  0  0  0  0  0  0  0  0  0
  139.2570   69.5600  224.5680 C   0  0  0  0  0  0  0  0  0  0  0  0
  139.8130   69.8460  225.8160 C   0  0  0  0  0  0  0  0  0  0  0  0
  139.6820   68.9950  226.8910 C   0  0  0  0  0  0  0  0  0  0  0  0
  140.2350   69.2850  228.1230 C   0  0  0  0  0  0  0  0  0  0  0  0
  140.9430   70.4640  228.2900 C   0  0  0  0  0  0  0  0  0  0  0  0
  141.0720   71.3140  227.2120 C   0  0  0  0  0  0  0  0  0  0  0  0
  140.5200   71.0250  225.9820 C   0  0  0  0  0  0  0  0  0  0  0  0
  140.6730   71.8890  224.9540 N   0  0  0  0  0  0  0  0  0  0  0  0
  138.4160   73.4670  222.9400 H   0  0  0  0  0  0  0  0  0  0  0  0
  139.9749   74.0046  220.4355 H   0  0  0  0  0  0  0  0  0  0  0  0
  138.4358   74.8125  220.9610 H   0  0  0  0  0  0  0  0  0  0  0  0
  137.9951   75.4509  223.0991 H   0  0  0  0  0  0  0  0  0  0  0  0
  138.3549   76.8501  224.1184 H   0  0  0  0  0  0  0  0  0  0  0  0
  137.1659   76.9905  221.2893 H   0  0  0  0  0  0  0  0  0  0  0  0
  136.2067   77.1101  222.7899 H   0  0  0  0  0  0  0  0  0  0  0  0
  137.4604   79.2142  221.4421 H   0  0  0  0  0  0  0  0  0  0  0  0
  136.8480   79.2234  223.1597 H   0  0  0  0  0  0  0  0  0  0  0  0
  139.2021   80.0592  222.7905 H   0  0  0  0  0  0  0  0  0  0  0  0
  138.9562   78.7630  224.0288 H   0  0  0  0  0  0  0  0  0  0  0  0
  139.9972   78.4234  221.1906 H   0  0  0  0  0  0  0  0  0  0  0  0
  141.6896   77.2900  222.9730 H   0  0  0  0  0  0  0  0  0  0  0  0
  140.3756   79.3118  224.4193 H   0  0  0  0  0  0  0  0  0  0  0  0
  141.8398   78.4109  224.8626 H   0  0  0  0  0  0  0  0  0  0  0  0
  141.7055   81.1771  224.2340 H   0  0  0  0  0  0  0  0  0  0  0  0
  143.2024   80.2177  224.3107 H   0  0  0  0  0  0  0  0  0  0  0  0
  141.6271   81.1404  221.9448 H   0  0  0  0  0  0  0  0  0  0  0  0
  143.3616   80.8183  222.0672 H   0  0  0  0  0  0  0  0  0  0  0  0
  141.5912   79.1194  220.8256 H   0  0  0  0  0  0  0  0  0  0  0  0
  143.0853   78.5350  221.5939 H   0  0  0  0  0  0  0  0  0  0  0  0
  139.0064   70.2703  222.5395 H   0  0  0  0  0  0  0  0  0  0  0  0
  138.6897   68.6318  224.4048 H   0  0  0  0  0  0  0  0  0  0  0  0
  139.1208   68.0574  226.7648 H   0  0  0  0  0  0  0  0  0  0  0  0
  140.1143   68.5862  228.9639 H   0  0  0  0  0  0  0  0  0  0  0  0
  141.3925   70.7166  229.2616 H   0  0  0  0  0  0  0  0  0  0  0  0
  141.6328   72.2520  227.3372 H   0  0  0  0  0  0  0  0  0  0  0  0
  1  2  2  0
  2  3  1  0
  3  4  1  0
  4  5  1  0
  5  6  2  0
  5  7  1  0
  7  8  1  0
  8  9  1  0
  9 10  1  0
 10 11  1  0
 11 12  1  0
 12 13  1  0
 13 14  1  0
 14 15  1  0
 15 16  1  0
 16 17  1  0
  2 18  1  0
 18 19  2  0
 19 20  1  0
 20 21  2  0
 21 22  1  0
 22 23  2  0
 23 24  1  0
 24 25  2  0
 25 26  1  0
 26 27  2  0
 12  7  1  0
 17 13  1  0
 27 18  1  0
 26 21  1  0
  3 28  1  0
  4 29  1  0
  4 30  1  0
  8 31  1  0
  8 32  1  0
  9 33  1  0
  9 34  1  0
 10 35  1  0
 10 36  1  0
 11 37  1  0
 11 38  1  0
 12 39  1  6
 13 40  1  0
 14 41  1  0
 14 42  1  0
 15 43  1  0
 15 44  1  0
 16 45  1  0
 16 46  1  0
 17 47  1  0
 17 48  1  0
 19 49  1  0
 20 50  1  0
 22 51  1  0
 23 52  1  0
 24 53  1  0
 25 54  1  0
M  END
>  <smiles>  (83) 
O=C(NCC(=O)N1CCCCC1C1CCCC1)c1ccc2ccccc2n1

>  <score_type>  (83) 
oracle

>  <origin>  (83) 
autodockgpu

>  <m_score__min__energy>  (83) 
-9.0199999999999996

>  <m_primary>  (83) 
energy

>  <rmsd>  (83) 
3.195918813133953

>  <m_score__min__rmsd>  (83) 
3.195918813133953

>  <meeko>  (83) 
{"free_energy": -8.99, "intermolecular_energy": -10.48, "internal_energy": -1.32, "cluster_size": 33, "cluster_id": 1, "rank_in_cluster": 4}

>  <energy>  (83) 
-8.25

>  <cluster_rmsd>  (83) 
0.9

>  <cluster>  (83) 
1

$$$$

     RDKit          3D

 54 57  0  0  0  0  0  0  0  0999 V2000
  141.4110   72.1720  221.7470 O   0  0  0  0  0  0  0  0  0  0  0  0
  140.4200   72.4010  222.5190 C   0  0  0  0  0  0  0  0  0  0  0  0
  139.5190   73.4800  222.2710 N   0  0  0  0  0  0  0  0  0  0  0  0
  139.7070   74.3520  221.1270 C   0  0  0  0  0  0  0  0  0  0  0  0
  140.0810   75.7170  221.5270 C   0  0  0  0  0  0  0  0  0  0  0  0
  139.8860   76.0580  222.7220 O   0  0  0  0  0  0  0  0  0  0  0  0
  140.6390   76.5730  220.5430 N   0  0  0  0  0  0  0  0  0  0  0  0
  140.4020   76.4000  219.1140 C   0  0  0  0  0  0  0  0  0  0  0  0
  141.7530   76.1350  218.5130 C   0  0  0  0  0  0  0  0  0  0  0  0
  142.5940   77.3800  218.6890 C   0  0  0  0  0  0  0  0  0  0  0  0
  141.9810   78.3750  219.6300 C   0  0  0  0  0  0  0  0  0  0  0  0
  141.5050   77.7080  220.8970 C   0  0  1  0  0  0  0  0  0  0  0  0
  140.8410   78.6660  221.8140 C   0  0  0  0  0  0  0  0  0  0  0  0
  140.9200   80.0940  221.3930 C   0  0  0  0  0  0  0  0  0  0  0  0
  141.6700   80.8350  222.5040 C   0  0  0  0  0  0  0  0  0  0  0  0
  142.2670   79.7990  223.4030 C   0  0  0  0  0  0  0  0  0  0  0  0
  141.4560   78.5470  223.1730 C   0  0  0  0  0  0  0  0  0  0  0  0
  140.2060   71.5420  223.6790 C   0  0  0  0  0  0  0  0  0  0  0  0
  139.5020   70.3670  223.5570 C   0  0  0  0  0  0  0  0  0  0  0  0
  139.2930   69.5390  224.6640 C   0  0  0  0  0  0  0  0  0  0  0  0
  139.8140   69.9310  225.8980 C   0  0  0  0  0  0  0  0  0  0  0  0
  139.6530   69.1740  227.0380 C   0  0  0  0  0  0  0  0  0  0  0  0
  140.1720   69.5680  228.2550 C   0  0  0  0  0  0  0  0  0  0  0  0
  140.8750   70.7580  228.3410 C   0  0  0  0  0  0  0  0  0  0  0  0
  141.0350   71.5140  227.1990 C   0  0  0  0  0  0  0  0  0  0  0  0
  140.5170   71.1210  225.9830 C   0  0  0  0  0  0  0  0  0  0  0  0
  140.6990   71.8950  224.8900 N   0  0  0  0  0  0  0  0  0  0  0  0
  138.7250   73.6010  222.9580 H   0  0  0  0  0  0  0  0  0  0  0  0
  140.5041   73.9375  220.4923 H   0  0  0  0  0  0  0  0  0  0  0  0
  138.7523   74.4080  220.5834 H   0  0  0  0  0  0  0  0  0  0  0  0
  139.7283   75.5488  218.9362 H   0  0  0  0  0  0  0  0  0  0  0  0
  139.9237   77.2851  218.6693 H   0  0  0  0  0  0  0  0  0  0  0  0
  142.2299   75.2866  219.0256 H   0  0  0  0  0  0  0  0  0  0  0  0
  141.6551   75.8872  217.4458 H   0  0  0  0  0  0  0  0  0  0  0  0
  143.5778   77.0853  219.0830 H   0  0  0  0  0  0  0  0  0  0  0  0
  142.6734   77.8646  217.7047 H   0  0  0  0  0  0  0  0  0  0  0  0
  142.7324   79.1365  219.8861 H   0  0  0  0  0  0  0  0  0  0  0  0
  141.1147   78.8359  219.1329 H   0  0  0  0  0  0  0  0  0  0  0  0
  142.3738   77.3268  221.4537 H   0  0  0  0  0  0  0  0  0  0  0  0
  139.7751   78.3943  221.8052 H   0  0  0  0  0  0  0  0  0  0  0  0
  141.4671   80.1801  220.4426 H   0  0  0  0  0  0  0  0  0  0  0  0
  139.9172   80.5189  221.2387 H   0  0  0  0  0  0  0  0  0  0  0  0
  142.4643   81.4602  222.0702 H   0  0  0  0  0  0  0  0  0  0  0  0
  140.9881   81.4915  223.0643 H   0  0  0  0  0  0  0  0  0  0  0  0
  143.3218   79.6266  223.1429 H   0  0  0  0  0  0  0  0  0  0  0  0
  142.2430   80.1119  224.4573 H   0  0  0  0  0  0  0  0  0  0  0  0
  142.1076   77.6618  223.2163 H   0  0  0  0  0  0  0  0  0  0  0  0
  140.6810   78.4345  223.9455 H   0  0  0  0  0  0  0  0  0  0  0  0
  139.0983   70.0750  222.5763 H   0  0  0  0  0  0  0  0  0  0  0  0
  138.7302   68.5991  224.5645 H   0  0  0  0  0  0  0  0  0  0  0  0
  139.0947   68.2282  226.9766 H   0  0  0  0  0  0  0  0  0  0  0  0
  140.0284   68.9424  229.1483 H   0  0  0  0  0  0  0  0  0  0  0  0
  141.2968   71.0931  229.3001 H   0  0  0  0  0  0  0  0  0  0  0  0
  141.5932   72.4599  227.2599 H   0  0  0  0  0  0  0  0  0  0  0  0
  1  2  2  0
  2  3  1  0
  3  4  1  0
  4  5  1  0
  5  6  2  0
  5  7  1  0
  7  8  1  0
  8  9  1  0
  9 10  1  0
 10 11  1  0
 11 12  1  0
 12 13  1  0
 13 14  1  0
 14 15  1  0
 15 16  1  0
 16 17  1  0
  2 18  1  0
 18 19  2  0
 19 20  1  0
 20 21  2  0
 21 22  1  0
 22 23  2  0
 23 24  1  0
 24 25  2  0
 25 26  1  0
 26 27  2  0
 12  7  1  0
 17 13  1  0
 27 18  1  0
 26 21  1  0
  3 28  1  0
  4 29  1  0
  4 30  1  0
  8 31  1  0
  8 32  1  0
  9 33  1  0
  9 34  1  0
 10 35  1  0
 10 36  1  0
 11 37  1  0
 11 38  1  0
 12 39  1  1
 13 40  1  0
 14 41  1  0
 14 42  1  0
 15 43  1  0
 15 44  1  0
 16 45  1  0
 16 46  1  0
 17 47  1  0
 17 48  1  0
 19 49  1  0
 20 50  1  0
 22 51  1  0
 23 52  1  0
 24 53  1  0
 25 54  1  0
M  END
>  <smiles>  (84) 
O=C(NCC(=O)N1CCCCC1C1CCCC1)c1ccc2ccccc2n1

>  <score_type>  (84) 
oracle

>  <origin>  (84) 
autodockgpu

>  <m_score__min__energy>  (84) 
-9.0199999999999996

>  <m_primary>  (84) 
energy

>  <rmsd>  (84) 
1.7372288895111645

>  <m_score__min__rmsd>  (84) 
1.7372288895111645

>  <meeko>  (84) 
{"free_energy": -8.84, "intermolecular_energy": -10.33, "internal_energy": -1.37, "cluster_size": 33, "cluster_id": 1, "rank_in_cluster": 8}

>  <energy>  (84) 
-8.92

>  <cluster_rmsd>  (84) 
0.0

>  <cluster>  (84) 
2

$$$$

     RDKit          3D

 54 57  0  0  0  0  0  0  0  0999 V2000
  140.9190   71.5230  221.3400 O   0  0  0  0  0  0  0  0  0  0  0  0
  140.3960   72.1010  222.3530 C   0  0  0  0  0  0  0  0  0  0  0  0
  139.9930   73.4690  222.3020 N   0  0  0  0  0  0  0  0  0  0  0  0
  140.1680   74.2460  221.0900 C   0  0  0  0  0  0  0  0  0  0  0  0
  141.1160   75.3550  221.2750 C   0  0  0  0  0  0  0  0  0  0  0  0
  141.0340   76.0340  222.3320 O   0  0  0  0  0  0  0  0  0  0  0  0
  142.0690   75.5990  220.2530 N   0  0  0  0  0  0  0  0  0  0  0  0
  142.3570   76.9340  219.7400 C   0  0  0  0  0  0  0  0  0  0  0  0
  141.9810   76.8960  218.2870 C   0  0  0  0  0  0  0  0  0  0  0  0
  142.9110   75.9290  217.5900 C   0  0  0  0  0  0  0  0  0  0  0  0
  143.7140   75.0940  218.5440 C   0  0  0  0  0  0  0  0  0  0  0  0
  142.8410   74.5130  219.6300 C   0  0  1  0  0  0  0  0  0  0  0  0
  143.6260   73.7350  220.6180 C   0  0  0  0  0  0  0  0  0  0  0  0
  145.0420   74.1750  220.7800 C   0  0  0  0  0  0  0  0  0  0  0  0
  145.9170   72.9810  220.3880 C   0  0  0  0  0  0  0  0  0  0  0  0
  145.0250   71.9740  219.7320 C   0  0  0  0  0  0  0  0  0  0  0  0
  143.6310   72.2950  220.2120 C   0  0  0  0  0  0  0  0  0  0  0  0
  140.2090   71.3440  223.5860 C   0  0  0  0  0  0  0  0  0  0  0  0
  139.5800   70.1220  223.5670 C   0  0  0  0  0  0  0  0  0  0  0  0
  139.3960   69.3930  224.7460 C   0  0  0  0  0  0  0  0  0  0  0  0
  139.8660   69.9320  225.9440 C   0  0  0  0  0  0  0  0  0  0  0  0
  139.7250   69.2780  227.1490 C   0  0  0  0  0  0  0  0  0  0  0  0
  140.1930   69.8190  228.3310 C   0  0  0  0  0  0  0  0  0  0  0  0
  140.8210   71.0520  228.3130 C   0  0  0  0  0  0  0  0  0  0  0  0
  140.9610   71.7040  227.1060 C   0  0  0  0  0  0  0  0  0  0  0  0
  140.4940   71.1650  225.9250 C   0  0  0  0  0  0  0  0  0  0  0  0
  140.6540   71.8410  224.7660 N   0  0  0  0  0  0  0  0  0  0  0  0
  139.5690   73.8710  223.1820 H   0  0  0  0  0  0  0  0  0  0  0  0
  140.5463   73.5848  220.2965 H   0  0  0  0  0  0  0  0  0  0  0  0
  139.1923   74.6763  220.8201 H   0  0  0  0  0  0  0  0  0  0  0  0
  141.7582   77.6877  220.2723 H   0  0  0  0  0  0  0  0  0  0  0  0
  143.4136   77.2058  219.8808 H   0  0  0  0  0  0  0  0  0  0  0  0
  140.9402   76.5566  218.1793 H   0  0  0  0  0  0  0  0  0  0  0  0
  142.0686   77.8985  217.8428 H   0  0  0  0  0  0  0  0  0  0  0  0
  142.3097   75.2585  216.9584 H   0  0  0  0  0  0  0  0  0  0  0  0
  143.6209   76.5253  216.9980 H   0  0  0  0  0  0  0  0  0  0  0  0
  144.1900   74.2725  217.9886 H   0  0  0  0  0  0  0  0  0  0  0  0
  144.4735   75.7360  219.0141 H   0  0  0  0  0  0  0  0  0  0  0  0
  142.1394   73.7928  219.1839 H   0  0  0  0  0  0  0  0  0  0  0  0
  143.1318   73.9016  221.5865 H   0  0  0  0  0  0  0  0  0  0  0  0
  145.2512   75.0314  220.1222 H   0  0  0  0  0  0  0  0  0  0  0  0
  145.2435   74.4930  221.8136 H   0  0  0  0  0  0  0  0  0  0  0  0
  146.7013   73.3028  219.6871 H   0  0  0  0  0  0  0  0  0  0  0  0
  146.4077   72.5497  221.2730 H   0  0  0  0  0  0  0  0  0  0  0  0
  145.0845   72.0634  218.6373 H   0  0  0  0  0  0  0  0  0  0  0  0
  145.3166   70.9443  219.9863 H   0  0  0  0  0  0  0  0  0  0  0  0
  142.9055   72.1288  219.4021 H   0  0  0  0  0  0  0  0  0  0  0  0
  143.3495   71.6492  221.0568 H   0  0  0  0  0  0  0  0  0  0  0  0
  139.2170   69.7126  222.6128 H   0  0  0  0  0  0  0  0  0  0  0  0
  138.8916   68.4156  224.7293 H   0  0  0  0  0  0  0  0  0  0  0  0
  139.2259   68.2980  227.1702 H   0  0  0  0  0  0  0  0  0  0  0  0
  140.0675   69.2742  229.2784 H   0  0  0  0  0  0  0  0  0  0  0  0
  141.2005   71.5025  229.2420 H   0  0  0  0  0  0  0  0  0  0  0  0
  141.4603   72.6839  227.0841 H   0  0  0  0  0  0  0  0  0  0  0  0
  1  2  2  0
  2  3  1  0
  3  4  1  0
  4  5  1  0
  5  6  2  0
  5  7  1  0
  7  8  1  0
  8  9  1  0
  9 10  1  0
 10 11  1  0
 11 12  1  0
 12 13  1  0
 13 14  1  0
 14 15  1  0
 15 16  1  0
 16 17  1  0
  2 18  1  0
 18 19  2  0
 19 20  1  0
 20 21  2  0
 21 22  1  0
 22 23  2  0
 23 24  1  0
 24 25  2  0
 25 26  1  0
 26 27  2  0
 12  7  1  0
 17 13  1  0
 27 18  1  0
 26 21  1  0
  3 28  1  0
  4 29  1  0
  4 30  1  0
  8 31  1  0
  8 32  1  0
  9 33  1  0
  9 34  1  0
 10 35  1  0
 10 36  1  0
 11 37  1  0
 11 38  1  0
 12 39  1  6
 13 40  1  0
 14 41  1  0
 14 42  1  0
 15 43  1  0
 15 44  1  0
 16 45  1  0
 16 46  1  0
 17 47  1  0
 17 48  1  0
 19 49  1  0
 20 50  1  0
 22 51  1  0
 23 52  1  0
 24 53  1  0
 25 54  1  0
M  END
>  <smiles>  (85) 
O=C(NCC(=O)N1CCCCC1C1CCCC1)c1ccc2ccccc2n1

>  <score_type>  (85) 
oracle

>  <origin>  (85) 
autodockgpu

>  <m_score__min__energy>  (85) 
-9.0199999999999996

>  <m_primary>  (85) 
energy

>  <rmsd>  (85) 
2.4394451369933168

>  <m_score__min__rmsd>  (85) 
2.4394451369933168

>  <meeko>  (85) 
{"free_energy": -8.53, "intermolecular_energy": -10.02, "internal_energy": -1.85, "cluster_size": 8, "cluster_id": 3, "rank_in_cluster": 3}

>  <energy>  (85) 
-8.9

>  <cluster_rmsd>  (85) 
0.07

>  <cluster>  (85) 
2

$$$$

     RDKit          3D

 54 57  0  0  0  0  0  0  0  0999 V2000
  141.5280   72.2940  221.5840 O   0  0  0  0  0  0  0  0  0  0  0  0
  140.6130   72.5830  222.4280 C   0  0  0  0  0  0  0  0  0  0  0  0
  139.8920   73.8120  222.3480 N   0  0  0  0  0  0  0  0  0  0  0  0
  140.1800   74.7730  221.3000 C   0  0  0  0  0  0  0  0  0  0  0  0
  139.6120   76.0970  221.5920 C   0  0  0  0  0  0  0  0  0  0  0  0
  138.6570   76.1650  222.4090 O   0  0  0  0  0  0  0  0  0  0  0  0
  140.1710   77.2250  220.9360 N   0  0  0  0  0  0  0  0  0  0  0  0
  139.6930   77.7090  219.6460 C   0  0  0  0  0  0  0  0  0  0  0  0
  140.8600   77.5780  218.7100 C   0  0  0  0  0  0  0  0  0  0  0  0
  141.9430   78.5240  219.1810 C   0  0  0  0  0  0  0  0  0  0  0  0
  141.6830   79.0810  220.5490 C   0  0  0  0  0  0  0  0  0  0  0  0
  141.2830   77.9920  221.5160 C   0  0  1  0  0  0  0  0  0  0  0  0
  140.9620   78.5320  222.8600 C   0  0  0  0  0  0  0  0  0  0  0  0
  139.9670   79.6420  222.8680 C   0  0  0  0  0  0  0  0  0  0  0  0
  140.6770   80.8610  223.4630 C   0  0  0  0  0  0  0  0  0  0  0  0
  142.1360   80.5390  223.5210 C   0  0  0  0  0  0  0  0  0  0  0  0
  142.2200   79.0320  223.4970 C   0  0  0  0  0  0  0  0  0  0  0  0
  140.3010   71.6370  223.4930 C   0  0  0  0  0  0  0  0  0  0  0  0
  139.6110   70.4800  223.2200 C   0  0  0  0  0  0  0  0  0  0  0  0
  139.3080   69.5690  224.2370 C   0  0  0  0  0  0  0  0  0  0  0  0
  139.7220   69.8600  225.5380 C   0  0  0  0  0  0  0  0  0  0  0  0
  139.4650   69.0170  226.5970 C   0  0  0  0  0  0  0  0  0  0  0  0
  139.8790   69.3110  227.8810 C   0  0  0  0  0  0  0  0  0  0  0  0
  140.5720   70.4850  228.1190 C   0  0  0  0  0  0  0  0  0  0  0  0
  140.8290   71.3270  227.0580 C   0  0  0  0  0  0  0  0  0  0  0  0
  140.4160   71.0340  225.7750 C   0  0  0  0  0  0  0  0  0  0  0  0
  140.6900   71.8900  224.7670 N   0  0  0  0  0  0  0  0  0  0  0  0
  139.1510   73.9750  223.0850 H   0  0  0  0  0  0  0  0  0  0  0  0
  141.2709   74.8699  221.1977 H   0  0  0  0  0  0  0  0  0  0  0  0
  139.7226   74.4062  220.3693 H   0  0  0  0  0  0  0  0  0  0  0  0
  138.8484   77.0977  219.2951 H   0  0  0  0  0  0  0  0  0  0  0  0
  139.3340   78.7470  219.7074 H   0  0  0  0  0  0  0  0  0  0  0  0
  141.2353   76.5441  218.7232 H   0  0  0  0  0  0  0  0  0  0  0  0
  140.5561   77.8251  217.6821 H   0  0  0  0  0  0  0  0  0  0  0  0
  142.8989   77.9801  219.2003 H   0  0  0  0  0  0  0  0  0  0  0  0
  141.9657   79.3717  218.4804 H   0  0  0  0  0  0  0  0  0  0  0  0
  142.5973   79.5694  220.9171 H   0  0  0  0  0  0  0  0  0  0  0  0
  140.8575   79.8046  220.4790 H   0  0  0  0  0  0  0  0  0  0  0  0
  142.1352   77.3139  221.6711 H   0  0  0  0  0  0  0  0  0  0  0  0
  140.5071   77.6977  223.4141 H   0  0  0  0  0  0  0  0  0  0  0  0
  139.6332   79.8600  221.8428 H   0  0  0  0  0  0  0  0  0  0  0  0
  139.0778   79.3737  223.4574 H   0  0  0  0  0  0  0  0  0  0  0  0
  140.5107   81.7421  222.8258 H   0  0  0  0  0  0  0  0  0  0  0  0
  140.2874   81.0883  224.4662 H   0  0  0  0  0  0  0  0  0  0  0  0
  142.6585   80.9666  222.6526 H   0  0  0  0  0  0  0  0  0  0  0  0
  142.6102   80.9590  224.4203 H   0  0  0  0  0  0  0  0  0  0  0  0
  143.0934   78.7120  222.9098 H   0  0  0  0  0  0  0  0  0  0  0  0
  142.3306   78.6295  224.5147 H   0  0  0  0  0  0  0  0  0  0  0  0
  139.2931   70.2679  222.1885 H   0  0  0  0  0  0  0  0  0  0  0  0
  138.7557   68.6436  224.0166 H   0  0  0  0  0  0  0  0  0  0  0  0
  138.9140   68.0826  226.4143 H   0  0  0  0  0  0  0  0  0  0  0  0
  139.6600   68.6185  228.7071 H   0  0  0  0  0  0  0  0  0  0  0  0
  140.9108   70.7411  229.1337 H   0  0  0  0  0  0  0  0  0  0  0  0
  141.3804   72.2612  227.2403 H   0  0  0  0  0  0  0  0  0  0  0  0
  1  2  2  0
  2  3  1  0
  3  4  1  0
  4  5  1  0
  5  6  2  0
  5  7  1  0
  7  8  1  0
  8  9  1  0
  9 10  1  0
 10 11  1  0
 11 12  1  0
 12 13  1  0
 13 14  1  0
 14 15  1  0
 15 16  1  0
 16 17  1  0
  2 18  1  0
 18 19  2  0
 19 20  1  0
 20 21  2  0
 21 22  1  0
 22 23  2  0
 23 24  1  0
 24 25  2  0
 25 26  1  0
 26 27  2  0
 12  7  1  0
 17 13  1  0
 27 18  1  0
 26 21  1  0
  3 28  1  0
  4 29  1  0
  4 30  1  0
  8 31  1  0
  8 32  1  0
  9 33  1  0
  9 34  1  0
 10 35  1  0
 10 36  1  0
 11 37  1  0
 11 38  1  0
 12 39  1  1
 13 40  1  0
 14 41  1  0
 14 42  1  0
 15 43  1  0
 15 44  1  0
 16 45  1  0
 16 46  1  0
 17 47  1  0
 17 48  1  0
 19 49  1  0
 20 50  1  0
 22 51  1  0
 23 52  1  0
 24 53  1  0
 25 54  1  0
M  END
>  <smiles>  (86) 
O=C(NCC(=O)N1CCCCC1C1CCCC1)c1ccc2ccccc2n1

>  <score_type>  (86) 
oracle

>  <origin>  (86) 
autodockgpu

>  <m_score__min__energy>  (86) 
-9.0199999999999996

>  <m_primary>  (86) 
energy

>  <rmsd>  (86) 
2.2246290462494445

>  <m_score__min__rmsd>  (86) 
2.2246290462494445

>  <meeko>  (86) 
{"free_energy": -8.59, "intermolecular_energy": -10.09, "internal_energy": -1.72, "cluster_size": 33, "cluster_id": 1, "rank_in_cluster": 30}

>  <energy>  (86) 
-8.64

>  <cluster_rmsd>  (86) 
1.0

>  <cluster>  (86) 
2

$$$$

     RDKit          3D

 54 57  0  0  0  0  0  0  0  0999 V2000
  140.8350   71.2800  221.3220 O   0  0  0  0  0  0  0  0  0  0  0  0
  140.3660   71.8930  222.3400 C   0  0  0  0  0  0  0  0  0  0  0  0
  140.0510   73.2830  222.2890 N   0  0  0  0  0  0  0  0  0  0  0  0
  140.2570   74.0450  221.0720 C   0  0  0  0  0  0  0  0  0  0  0  0
  140.8650   75.3570  221.3360 C   0  0  0  0  0  0  0  0  0  0  0  0
  140.4670   76.0030  222.3400 O   0  0  0  0  0  0  0  0  0  0  0  0
  141.8660   75.8220  220.4440 N   0  0  0  0  0  0  0  0  0  0  0  0
  142.0470   77.2330  220.1210 C   0  0  0  0  0  0  0  0  0  0  0  0
  141.7980   77.3420  218.6440 C   0  0  0  0  0  0  0  0  0  0  0  0
  142.8840   76.5670  217.9300 C   0  0  0  0  0  0  0  0  0  0  0  0
  143.6920   75.7030  218.8520 C   0  0  0  0  0  0  0  0  0  0  0  0
  142.8020   74.9060  219.7750 C   0  0  1  0  0  0  0  0  0  0  0  0
  143.5850   74.0910  220.7360 C   0  0  0  0  0  0  0  0  0  0  0  0
  145.0570   74.3250  220.7020 C   0  0  0  0  0  0  0  0  0  0  0  0
  145.7030   72.9890  220.3230 C   0  0  0  0  0  0  0  0  0  0  0  0
  144.6060   72.0820  219.8610 C   0  0  0  0  0  0  0  0  0  0  0  0
  143.3380   72.6410  220.4600 C   0  0  0  0  0  0  0  0  0  0  0  0
  140.1490   71.1530  223.5790 C   0  0  0  0  0  0  0  0  0  0  0  0
  139.5520   69.9150  223.5580 C   0  0  0  0  0  0  0  0  0  0  0  0
  139.3400   69.2020  224.7420 C   0  0  0  0  0  0  0  0  0  0  0  0
  139.7480   69.7740  225.9470 C   0  0  0  0  0  0  0  0  0  0  0  0
  139.5770   69.1390  227.1580 C   0  0  0  0  0  0  0  0  0  0  0  0
  139.9830   69.7120  228.3470 C   0  0  0  0  0  0  0  0  0  0  0  0
  140.5800   70.9610  228.3300 C   0  0  0  0  0  0  0  0  0  0  0  0
  140.7510   71.5940  227.1180 C   0  0  0  0  0  0  0  0  0  0  0  0
  140.3450   71.0230  225.9300 C   0  0  0  0  0  0  0  0  0  0  0  0
  140.5340   71.6820  224.7660 N   0  0  0  0  0  0  0  0  0  0  0  0
  139.6670   73.7140  223.1750 H   0  0  0  0  0  0  0  0  0  0  0  0
  140.9201   73.4748  220.4047 H   0  0  0  0  0  0  0  0  0  0  0  0
  139.2739   74.2149  220.6088 H   0  0  0  0  0  0  0  0  0  0  0  0
  141.3274   77.8504  220.6787 H   0  0  0  0  0  0  0  0  0  0  0  0
  143.0521   77.5880  220.3926 H   0  0  0  0  0  0  0  0  0  0  0  0
  140.8133   76.9175  218.3988 H   0  0  0  0  0  0  0  0  0  0  0  0
  141.8107   78.3963  218.3304 H   0  0  0  0  0  0  0  0  0  0  0  0
  142.4144   75.9250  217.1702 H   0  0  0  0  0  0  0  0  0  0  0  0
  143.5703   77.3005  217.4816 H   0  0  0  0  0  0  0  0  0  0  0  0
  144.2999   75.0093  218.2526 H   0  0  0  0  0  0  0  0  0  0  0  0
  144.3345   76.3531  219.4640 H   0  0  0  0  0  0  0  0  0  0  0  0
  142.2229   74.1817  219.1833 H   0  0  0  0  0  0  0  0  0  0  0  0
  143.2410   74.3977  221.7348 H   0  0  0  0  0  0  0  0  0  0  0  0
  145.3024   75.0916  219.9523 H   0  0  0  0  0  0  0  0  0  0  0  0
  145.4249   74.6819  221.6753 H   0  0  0  0  0  0  0  0  0  0  0  0
  146.4332   73.1395  219.5142 H   0  0  0  0  0  0  0  0  0  0  0  0
  146.2331   72.5538  221.1830 H   0  0  0  0  0  0  0  0  0  0  0  0
  144.5445   72.0823  218.7627 H   0  0  0  0  0  0  0  0  0  0  0  0
  144.7794   71.0416  220.1731 H   0  0  0  0  0  0  0  0  0  0  0  0
  142.5041   72.5283  219.7515 H   0  0  0  0  0  0  0  0  0  0  0  0
  143.0718   72.1060  221.3835 H   0  0  0  0  0  0  0  0  0  0  0  0
  139.2372   69.4799  222.5980 H   0  0  0  0  0  0  0  0  0  0  0  0
  138.8618   68.2115  224.7236 H   0  0  0  0  0  0  0  0  0  0  0  0
  139.1031   68.1465  227.1781 H   0  0  0  0  0  0  0  0  0  0  0  0
  139.8335   69.1810  229.2987 H   0  0  0  0  0  0  0  0  0  0  0  0
  140.9109   71.4380  229.2643 H   0  0  0  0  0  0  0  0  0  0  0  0
  141.2262   72.5858  227.0974 H   0  0  0  0  0  0  0  0  0  0  0  0
  1  2  2  0
  2  3  1  0
  3  4  1  0
  4  5  1  0
  5  6  2  0
  5  7  1  0
  7  8  1  0
  8  9  1  0
  9 10  1  0
 10 11  1  0
 11 12  1  0
 12 13  1  0
 13 14  1  0
 14 15  1  0
 15 16  1  0
 16 17  1  0
  2 18  1  0
 18 19  2  0
 19 20  1  0
 20 21  2  0
 21 22  1  0
 22 23  2  0
 23 24  1  0
 24 25  2  0
 25 26  1  0
 26 27  2  0
 12  7  1  0
 17 13  1  0
 27 18  1  0
 26 21  1  0
  3 28  1  0
  4 29  1  0
  4 30  1  0
  8 31  1  0
  8 32  1  0
  9 33  1  0
  9 34  1  0
 10 35  1  0
 10 36  1  0
 11 37  1  0
 11 38  1  0
 12 39  1  6
 13 40  1  0
 14 41  1  0
 14 42  1  0
 15 43  1  0
 15 44  1  0
 16 45  1  0
 16 46  1  0
 17 47  1  0
 17 48  1  0
 19 49  1  0
 20 50  1  0
 22 51  1  0
 23 52  1  0
 24 53  1  0
 25 54  1  0
M  END
>  <smiles>  (87) 
O=C(NCC(=O)N1CCCCC1C1CCCC1)c1ccc2ccccc2n1

>  <score_type>  (87) 
oracle

>  <origin>  (87) 
autodockgpu

>  <m_score__min__energy>  (87) 
-9.0199999999999996

>  <m_primary>  (87) 
energy

>  <rmsd>  (87) 
2.374752764159935

>  <m_score__min__rmsd>  (87) 
2.374752764159935

>  <meeko>  (87) 
{"free_energy": -8.47, "intermolecular_energy": -9.96, "internal_energy": -1.92, "cluster_size": 8, "cluster_id": 3, "rank_in_cluster": 8}

>  <energy>  (87) 
-8.6

>  <cluster_rmsd>  (87) 
1.04

>  <cluster>  (87) 
2

$$$$

     RDKit          3D

 54 57  0  0  0  0  0  0  0  0999 V2000
  140.4180   74.1070  220.1750 O   0  0  0  0  0  0  0  0  0  0  0  0
  140.2190   74.7980  221.2310 C   0  0  0  0  0  0  0  0  0  0  0  0
  139.4790   74.2730  222.3330 N   0  0  0  0  0  0  0  0  0  0  0  0
  138.9300   72.9310  222.2830 C   0  0  0  0  0  0  0  0  0  0  0  0
  139.9080   71.9170  222.7050 C   0  0  0  0  0  0  0  0  0  0  0  0
  141.1310   72.1900  222.5890 O   0  0  0  0  0  0  0  0  0  0  0  0
  139.4190   70.6880  223.2170 N   0  0  0  0  0  0  0  0  0  0  0  0
  138.9910   69.5870  222.3620 C   0  0  0  0  0  0  0  0  0  0  0  0
  137.5340   69.3840  222.6670 C   0  0  0  0  0  0  0  0  0  0  0  0
  137.4190   68.9190  224.1020 C   0  0  0  0  0  0  0  0  0  0  0  0
  138.6980   69.0690  224.8730 C   0  0  0  0  0  0  0  0  0  0  0  0
  139.3060   70.4340  224.6610 C   0  0  1  0  0  0  0  0  0  0  0  0
  140.6030   70.5800  225.3670 C   0  0  0  0  0  0  0  0  0  0  0  0
  140.9130   69.4930  226.3390 C   0  0  0  0  0  0  0  0  0  0  0  0
  141.0400   70.1580  227.7120 C   0  0  0  0  0  0  0  0  0  0  0  0
  140.5210   71.5550  227.5770 C   0  0  0  0  0  0  0  0  0  0  0  0
  140.6120   71.8810  226.1060 C   0  0  0  0  0  0  0  0  0  0  0  0
  140.7580   76.1510  221.3100 C   0  0  0  0  0  0  0  0  0  0  0  0
  141.2260   76.7840  220.1820 C   0  0  0  0  0  0  0  0  0  0  0  0
  141.7460   78.0800  220.2510 C   0  0  0  0  0  0  0  0  0  0  0  0
  141.7770   78.7200  221.4910 C   0  0  0  0  0  0  0  0  0  0  0  0
  142.2720   79.9970  221.6460 C   0  0  0  0  0  0  0  0  0  0  0  0
  142.3000   80.6240  222.8760 C   0  0  0  0  0  0  0  0  0  0  0  0
  141.8200   79.9570  223.9900 C   0  0  0  0  0  0  0  0  0  0  0  0
  141.3260   78.6800  223.8320 C   0  0  0  0  0  0  0  0  0  0  0  0
  141.2970   78.0530  222.6040 C   0  0  0  0  0  0  0  0  0  0  0  0
  140.8030   76.8000  222.4990 N   0  0  0  0  0  0  0  0  0  0  0  0
  139.3590   74.9090  223.1680 H   0  0  0  0  0  0  0  0  0  0  0  0
  138.0564   72.8801  222.9495 H   0  0  0  0  0  0  0  0  0  0  0  0
  138.6499   72.7183  221.2408 H   0  0  0  0  0  0  0  0  0  0  0  0
  139.1292   69.8473  221.3022 H   0  0  0  0  0  0  0  0  0  0  0  0
  139.5774   68.6750  222.5474 H   0  0  0  0  0  0  0  0  0  0  0  0
  136.9895   70.3308  222.5363 H   0  0  0  0  0  0  0  0  0  0  0  0
  137.1009   68.6363  221.9863 H   0  0  0  0  0  0  0  0  0  0  0  0
  136.6379   69.5116  224.6007 H   0  0  0  0  0  0  0  0  0  0  0  0
  137.1720   67.8473  224.0811 H   0  0  0  0  0  0  0  0  0  0  0  0
  138.4894   68.9315  225.9443 H   0  0  0  0  0  0  0  0  0  0  0  0
  139.4108   68.3109  224.5163 H   0  0  0  0  0  0  0  0  0  0  0  0
  138.6463   71.1963  225.1012 H   0  0  0  0  0  0  0  0  0  0  0  0
  141.3742   70.5310  224.5841 H   0  0  0  0  0  0  0  0  0  0  0  0
  140.1012   68.7508  226.3503 H   0  0  0  0  0  0  0  0  0  0  0  0
  141.8399   68.9679  226.0650 H   0  0  0  0  0  0  0  0  0  0  0  0
  140.4459   69.6054  228.4548 H   0  0  0  0  0  0  0  0  0  0  0  0
  142.0872   70.1614  228.0487 H   0  0  0  0  0  0  0  0  0  0  0  0
  139.4771   71.6116  227.9190 H   0  0  0  0  0  0  0  0  0  0  0  0
  141.0983   72.2647  228.1878 H   0  0  0  0  0  0  0  0  0  0  0  0
  139.7512   72.4943  225.8012 H   0  0  0  0  0  0  0  0  0  0  0  0
  141.5273   72.4503  225.8865 H   0  0  0  0  0  0  0  0  0  0  0  0
  141.1907   76.2639  219.2134 H   0  0  0  0  0  0  0  0  0  0  0  0
  142.1222   78.5839  219.3485 H   0  0  0  0  0  0  0  0  0  0  0  0
  142.6557   80.5319  220.7647 H   0  0  0  0  0  0  0  0  0  0  0  0
  142.7001   81.6443  222.9698 H   0  0  0  0  0  0  0  0  0  0  0  0
  141.8326   80.4359  224.9802 H   0  0  0  0  0  0  0  0  0  0  0  0
  140.9429   78.1442  224.7130 H   0  0  0  0  0  0  0  0  0  0  0  0
  1  2  2  0
  2  3  1  0
  3  4  1  0
  4  5  1  0
  5  6  2  0
  5  7  1  0
  7  8  1  0
  8  9  1  0
  9 10  1  0
 10 11  1  0
 11 12  1  0
 12 13  1  0
 13 14  1  0
 14 15  1  0
 15 16  1  0
 16 17  1  0
  2 18  1  0
 18 19  2  0
 19 20  1  0
 20 21  2  0
 21 22  1  0
 22 23  2  0
 23 24  1  0
 24 25  2  0
 25 26  1  0
 26 27  2  0
 12  7  1  0
 17 13  1  0
 27 18  1  0
 26 21  1  0
  3 28  1  0
  4 29  1  0
  4 30  1  0
  8 31  1  0
  8 32  1  0
  9 33  1  0
  9 34  1  0
 10 35  1  0
 10 36  1  0
 11 37  1  0
 11 38  1  0
 12 39  1  1
 13 40  1  0
 14 41  1  0
 14 42  1  0
 15 43  1  0
 15 44  1  0
 16 45  1  0
 16 46  1  0
 17 47  1  0
 17 48  1  0
 19 49  1  0
 20 50  1  0
 22 51  1  0
 23 52  1  0
 24 53  1  0
 25 54  1  0
M  END
>  <smiles>  (88) 
O=C(NCC(=O)N1CCCCC1C1CCCC1)c1ccc2ccccc2n1

>  <score_type>  (88) 
oracle

>  <origin>  (88) 
autodockgpu

>  <m_score__min__energy>  (88) 
-9.0199999999999996

>  <m_primary>  (88) 
energy

>  <rmsd>  (88) 
8.331251356602944

>  <m_score__min__rmsd>  (88) 
8.331251356602944

>  <meeko>  (88) 
{"free_energy": -8.22, "intermolecular_energy": -9.71, "internal_energy": -1.66, "cluster_size": 8, "cluster_id": 2, "rank_in_cluster": 8}

>  <energy>  (88) 
-8.57

>  <cluster_rmsd>  (88) 
1.05

>  <cluster>  (88) 
2

$$$$

     RDKit          3D

 54 57  0  0  0  0  0  0  0  0999 V2000
  140.8730   73.9200  220.4380 O   0  0  0  0  0  0  0  0  0  0  0  0
  140.4410   74.7000  221.3530 C   0  0  0  0  0  0  0  0  0  0  0  0
  139.5020   74.2520  222.3290 N   0  0  0  0  0  0  0  0  0  0  0  0
  139.0080   72.8880  222.3090 C   0  0  0  0  0  0  0  0  0  0  0  0
  139.8520   71.9820  223.1020 C   0  0  0  0  0  0  0  0  0  0  0  0
  141.0630   72.2860  223.2580 O   0  0  0  0  0  0  0  0  0  0  0  0
  139.2550   70.8160  223.6460 N   0  0  0  0  0  0  0  0  0  0  0  0
  138.6490   69.7770  222.8220 C   0  0  0  0  0  0  0  0  0  0  0  0
  137.2000   69.7430  223.2160 C   0  0  0  0  0  0  0  0  0  0  0  0
  137.1200   69.2880  224.6570 C   0  0  0  0  0  0  0  0  0  0  0  0
  138.4520   69.2850  225.3470 C   0  0  0  0  0  0  0  0  0  0  0  0
  139.2020   70.5700  225.0950 C   0  0  1  0  0  0  0  0  0  0  0  0
  140.5480   70.5600  225.7190 C   0  0  0  0  0  0  0  0  0  0  0  0
  140.7850   69.4450  226.6790 C   0  0  0  0  0  0  0  0  0  0  0  0
  141.0740   70.0910  228.0370 C   0  0  0  0  0  0  0  0  0  0  0  0
  140.7180   71.5390  227.9230 C   0  0  0  0  0  0  0  0  0  0  0  0
  140.7570   71.8510  226.4460 C   0  0  0  0  0  0  0  0  0  0  0  0
  140.9190   76.0780  221.3980 C   0  0  0  0  0  0  0  0  0  0  0  0
  141.3000   76.7240  220.2460 C   0  0  0  0  0  0  0  0  0  0  0  0
  141.7600   78.0440  220.2820 C   0  0  0  0  0  0  0  0  0  0  0  0
  141.8240   78.6930  221.5160 C   0  0  0  0  0  0  0  0  0  0  0  0
  142.2650   79.9930  221.6400 C   0  0  0  0  0  0  0  0  0  0  0  0
  142.3260   80.6290  222.8640 C   0  0  0  0  0  0  0  0  0  0  0  0
  141.9340   79.9480  224.0040 C   0  0  0  0  0  0  0  0  0  0  0  0
  141.4930   78.6480  223.8770 C   0  0  0  0  0  0  0  0  0  0  0  0
  141.4320   78.0120  222.6550 C   0  0  0  0  0  0  0  0  0  0  0  0
  140.9930   76.7360  222.5800 N   0  0  0  0  0  0  0  0  0  0  0  0
  139.1950   74.9600  223.0510 H   0  0  0  0  0  0  0  0  0  0  0  0
  137.9882   72.8741  222.7210 H   0  0  0  0  0  0  0  0  0  0  0  0
  139.0222   72.5380  221.2663 H   0  0  0  0  0  0  0  0  0  0  0  0
  138.7511   70.0247  221.7551 H   0  0  0  0  0  0  0  0  0  0  0  0
  139.1351   68.8020  222.9737 H   0  0  0  0  0  0  0  0  0  0  0  0
  136.7620   70.7471  223.1163 H   0  0  0  0  0  0  0  0  0  0  0  0
  136.6422   69.0536  222.5651 H   0  0  0  0  0  0  0  0  0  0  0  0
  136.4452   69.9651  225.2012 H   0  0  0  0  0  0  0  0  0  0  0  0
  136.7492   68.2524  224.6543 H   0  0  0  0  0  0  0  0  0  0  0  0
  138.2947   69.1681  226.4294 H   0  0  0  0  0  0  0  0  0  0  0  0
  139.0480   68.4508  224.9484 H   0  0  0  0  0  0  0  0  0  0  0  0
  138.6647   71.4019  225.5738 H   0  0  0  0  0  0  0  0  0  0  0  0
  141.2582   70.4183  224.8910 H   0  0  0  0  0  0  0  0  0  0  0  0
  139.8927   68.8051  226.7453 H   0  0  0  0  0  0  0  0  0  0  0  0
  141.6245   68.8130  226.3536 H   0  0  0  0  0  0  0  0  0  0  0  0
  140.4648   69.6136  228.8187 H   0  0  0  0  0  0  0  0  0  0  0  0
  142.1328   69.9696  228.3096 H   0  0  0  0  0  0  0  0  0  0  0  0
  139.7111   71.7200  228.3273 H   0  0  0  0  0  0  0  0  0  0  0  0
  141.4119   72.1751  228.4921 H   0  0  0  0  0  0  0  0  0  0  0  0
  139.9583   72.5624  226.1892 H   0  0  0  0  0  0  0  0  0  0  0  0
  141.7185   72.3068  226.1669 H   0  0  0  0  0  0  0  0  0  0  0  0
  141.2423   76.1955  219.2830 H   0  0  0  0  0  0  0  0  0  0  0  0
  142.0644   78.5591  219.3590 H   0  0  0  0  0  0  0  0  0  0  0  0
  142.5773   80.5395  220.7379 H   0  0  0  0  0  0  0  0  0  0  0  0
  142.6828   81.6673  222.9328 H   0  0  0  0  0  0  0  0  0  0  0  0
  141.9736   80.4339  224.9901 H   0  0  0  0  0  0  0  0  0  0  0  0
  141.1800   78.1010  224.7786 H   0  0  0  0  0  0  0  0  0  0  0  0
  1  2  2  0
  2  3  1  0
  3  4  1  0
  4  5  1  0
  5  6  2  0
  5  7  1  0
  7  8  1  0
  8  9  1  0
  9 10  1  0
 10 11  1  0
 11 12  1  0
 12 13  1  0
 13 14  1  0
 14 15  1  0
 15 16  1  0
 16 17  1  0
  2 18  1  0
 18 19  2  0
 19 20  1  0
 20 21  2  0
 21 22  1  0
 22 23  2  0
 23 24  1  0
 24 25  2  0
 25 26  1  0
 26 27  2  0
 12  7  1  0
 17 13  1  0
 27 18  1  0
 26 21  1  0
  3 28  1  0
  4 29  1  0
  4 30  1  0
  8 31  1  0
  8 32  1  0
  9 33  1  0
  9 34  1  0
 10 35  1  0
 10 36  1  0
 11 37  1  0
 11 38  1  0
 12 39  1  1
 13 40  1  0
 14 41  1  0
 14 42  1  0
 15 43  1  0
 15 44  1  0
 16 45  1  0
 16 46  1  0
 17 47  1  0
 17 48  1  0
 19 49  1  0
 20 50  1  0
 22 51  1  0
 23 52  1  0
 24 53  1  0
 25 54  1  0
M  END
>  <smiles>  (89) 
O=C(NCC(=O)N1CCCCC1C1CCCC1)c1ccc2ccccc2n1

>  <score_type>  (89) 
oracle

>  <origin>  (89) 
autodockgpu

>  <m_score__min__energy>  (89) 
-9.0199999999999996

>  <m_primary>  (89) 
energy

>  <rmsd>  (89) 
8.392427414194175

>  <m_score__min__rmsd>  (89) 
8.392427414194175

>  <meeko>  (89) 
{"free_energy": -8.64, "intermolecular_energy": -10.13, "internal_energy": -1.55, "cluster_size": 8, "cluster_id": 2, "rank_in_cluster": 3}

>  <energy>  (89) 
-8.56

>  <cluster_rmsd>  (89) 
1.05

>  <cluster>  (89) 
2

$$$$

     RDKit          3D

 54 57  0  0  0  0  0  0  0  0999 V2000
  141.1090   71.6650  221.4520 O   0  0  0  0  0  0  0  0  0  0  0  0
  140.4380   72.1840  222.4080 C   0  0  0  0  0  0  0  0  0  0  0  0
  139.8970   73.5000  222.3060 N   0  0  0  0  0  0  0  0  0  0  0  0
  140.0970   74.2910  221.1060 C   0  0  0  0  0  0  0  0  0  0  0  0
  141.1510   75.3010  221.2780 C   0  0  0  0  0  0  0  0  0  0  0  0
  141.1790   75.9510  222.3560 O   0  0  0  0  0  0  0  0  0  0  0  0
  142.0780   75.4900  220.2200 N   0  0  0  0  0  0  0  0  0  0  0  0
  142.3730   76.7980  219.6480 C   0  0  0  0  0  0  0  0  0  0  0  0
  141.9530   76.7120  218.2080 C   0  0  0  0  0  0  0  0  0  0  0  0
  142.8470   75.7020  217.5230 C   0  0  0  0  0  0  0  0  0  0  0  0
  143.6630   74.8900  218.4850 C   0  0  0  0  0  0  0  0  0  0  0  0
  142.8120   74.3670  219.6180 C   0  0  1  0  0  0  0  0  0  0  0  0
  143.6140   73.6130  220.6120 C   0  0  0  0  0  0  0  0  0  0  0  0
  144.9890   74.1420  220.8390 C   0  0  0  0  0  0  0  0  0  0  0  0
  145.9570   73.0220  220.4470 C   0  0  0  0  0  0  0  0  0  0  0  0
  145.1610   71.9790  219.7300 C   0  0  0  0  0  0  0  0  0  0  0  0
  143.7310   72.1900  220.1650 C   0  0  0  0  0  0  0  0  0  0  0  0
  140.2210   71.4130  223.6270 C   0  0  0  0  0  0  0  0  0  0  0  0
  139.5570   70.2100  223.5840 C   0  0  0  0  0  0  0  0  0  0  0  0
  139.3450   69.4670  224.7500 C   0  0  0  0  0  0  0  0  0  0  0  0
  139.8240   69.9720  225.9590 C   0  0  0  0  0  0  0  0  0  0  0  0
  139.6580   69.3030  227.1530 C   0  0  0  0  0  0  0  0  0  0  0  0
  140.1340   69.8100  228.3450 C   0  0  0  0  0  0  0  0  0  0  0  0
  140.7990   71.0240  228.3510 C   0  0  0  0  0  0  0  0  0  0  0  0
  140.9640   71.6920  227.1560 C   0  0  0  0  0  0  0  0  0  0  0  0
  140.4880   71.1860  225.9640 C   0  0  0  0  0  0  0  0  0  0  0  0
  140.6740   71.8770  224.8170 N   0  0  0  0  0  0  0  0  0  0  0  0
  139.3550   73.8550  223.1400 H   0  0  0  0  0  0  0  0  0  0  0  0
  140.3803   73.6197  220.2819 H   0  0  0  0  0  0  0  0  0  0  0  0
  139.1563   74.8174  220.8870 H   0  0  0  0  0  0  0  0  0  0  0  0
  141.8033   77.5821  220.1682 H   0  0  0  0  0  0  0  0  0  0  0  0
  143.4379   77.0554  219.7472 H   0  0  0  0  0  0  0  0  0  0  0  0
  140.9040   76.3873  218.1433 H   0  0  0  0  0  0  0  0  0  0  0  0
  142.0433   77.6951  217.7229 H   0  0  0  0  0  0  0  0  0  0  0  0
  142.2167   75.0187  216.9349 H   0  0  0  0  0  0  0  0  0  0  0  0
  143.5496   76.2628  216.8890 H   0  0  0  0  0  0  0  0  0  0  0  0
  144.1083   74.0392  217.9485 H   0  0  0  0  0  0  0  0  0  0  0  0
  144.4469   75.5355  218.9078 H   0  0  0  0  0  0  0  0  0  0  0  0
  142.0844   73.6435  219.2217 H   0  0  0  0  0  0  0  0  0  0  0  0
  143.0766   73.7157  221.5663 H   0  0  0  0  0  0  0  0  0  0  0  0
  145.1624   75.0301  220.2135 H   0  0  0  0  0  0  0  0  0  0  0  0
  145.1315   74.4414  221.8878 H   0  0  0  0  0  0  0  0  0  0  0  0
  146.7423   73.4171  219.7859 H   0  0  0  0  0  0  0  0  0  0  0  0
  146.4436   72.5976  221.3376 H   0  0  0  0  0  0  0  0  0  0  0  0
  145.2540   72.1059  218.6413 H   0  0  0  0  0  0  0  0  0  0  0  0
  145.5130   70.9640  219.9665 H   0  0  0  0  0  0  0  0  0  0  0  0
  143.0485   72.0014  219.3232 H   0  0  0  0  0  0  0  0  0  0  0  0
  143.4629   71.5001  220.9787 H   0  0  0  0  0  0  0  0  0  0  0  0
  139.1880   69.8271  222.6211 H   0  0  0  0  0  0  0  0  0  0  0  0
  138.8121   68.5053  224.7144 H   0  0  0  0  0  0  0  0  0  0  0  0
  139.1310   68.3374  227.1556 H   0  0  0  0  0  0  0  0  0  0  0  0
  139.9862   69.2540  229.2826 H   0  0  0  0  0  0  0  0  0  0  0  0
  141.1876   71.4469  229.2892 H   0  0  0  0  0  0  0  0  0  0  0  0
  141.4911   72.6575  227.1530 H   0  0  0  0  0  0  0  0  0  0  0  0
  1  2  2  0
  2  3  1  0
  3  4  1  0
  4  5  1  0
  5  6  2  0
  5  7  1  0
  7  8  1  0
  8  9  1  0
  9 10  1  0
 10 11  1  0
 11 12  1  0
 12 13  1  0
 13 14  1  0
 14 15  1  0
 15 16  1  0
 16 17  1  0
  2 18  1  0
 18 19  2  0
 19 20  1  0
 20 21  2  0
 21 22  1  0
 22 23  2  0
 23 24  1  0
 24 25  2  0
 25 26  1  0
 26 27  2  0
 12  7  1  0
 17 13  1  0
 27 18  1  0
 26 21  1  0
  3 28  1  0
  4 29  1  0
  4 30  1  0
  8 31  1  0
  8 32  1  0
  9 33  1  0
  9 34  1  0
 10 35  1  0
 10 36  1  0
 11 37  1  0
 11 38  1  0
 12 39  1  6
 13 40  1  0
 14 41  1  0
 14 42  1  0
 15 43  1  0
 15 44  1  0
 16 45  1  0
 16 46  1  0
 17 47  1  0
 17 48  1  0
 19 49  1  0
 20 50  1  0
 22 51  1  0
 23 52  1  0
 24 53  1  0
 25 54  1  0
M  END
>  <smiles>  (90) 
O=C(NCC(=O)N1CCCCC1C1CCCC1)c1ccc2ccccc2n1

>  <score_type>  (90) 
oracle

>  <origin>  (90) 
autodockgpu

>  <m_score__min__energy>  (90) 
-9.0199999999999996

>  <m_primary>  (90) 
energy

>  <rmsd>  (90) 
2.448865062025795

>  <m_score__min__rmsd>  (90) 
2.448865062025795

>  <meeko>  (90) 
{"free_energy": -8.5, "intermolecular_energy": -9.99, "internal_energy": -1.79, "cluster_size": 8, "cluster_id": 3, "rank_in_cluster": 5}

>  <energy>  (90) 
-8.28

>  <cluster_rmsd>  (90) 
1.18

>  <cluster>  (90) 
2

$$$$

     RDKit          3D

 54 57  0  0  0  0  0  0  0  0999 V2000
  141.5600   72.2980  221.6150 O   0  0  0  0  0  0  0  0  0  0  0  0
  140.6150   72.5650  222.4330 C   0  0  0  0  0  0  0  0  0  0  0  0
  139.8710   73.7790  222.3370 N   0  0  0  0  0  0  0  0  0  0  0  0
  140.1700   74.7490  221.3000 C   0  0  0  0  0  0  0  0  0  0  0  0
  139.6360   76.0820  221.6200 C   0  0  0  0  0  0  0  0  0  0  0  0
  138.7170   76.1620  222.4760 O   0  0  0  0  0  0  0  0  0  0  0  0
  140.1860   77.2020  220.9450 N   0  0  0  0  0  0  0  0  0  0  0  0
  139.7100   77.6550  219.6430 C   0  0  0  0  0  0  0  0  0  0  0  0
  140.8850   77.5200  218.7170 C   0  0  0  0  0  0  0  0  0  0  0  0
  141.9530   78.4880  219.1750 C   0  0  0  0  0  0  0  0  0  0  0  0
  141.6780   79.0680  220.5300 C   0  0  0  0  0  0  0  0  0  0  0  0
  141.2850   77.9940  221.5160 C   0  0  1  0  0  0  0  0  0  0  0  0
  140.9500   78.5570  222.8470 C   0  0  0  0  0  0  0  0  0  0  0  0
  139.9970   79.7030  222.8210 C   0  0  0  0  0  0  0  0  0  0  0  0
  140.7360   80.9000  223.4250 C   0  0  0  0  0  0  0  0  0  0  0  0
  142.1800   80.5240  223.5240 C   0  0  0  0  0  0  0  0  0  0  0  0
  142.2090   79.0150  223.5140 C   0  0  0  0  0  0  0  0  0  0  0  0
  140.2920   71.6090  223.4860 C   0  0  0  0  0  0  0  0  0  0  0  0
  139.5750   70.4710  223.2010 C   0  0  0  0  0  0  0  0  0  0  0  0
  139.2620   69.5510  224.2060 C   0  0  0  0  0  0  0  0  0  0  0  0
  139.6930   69.8110  225.5070 C   0  0  0  0  0  0  0  0  0  0  0  0
  139.4270   68.9570  226.5550 C   0  0  0  0  0  0  0  0  0  0  0  0
  139.8580   69.2220  227.8400 C   0  0  0  0  0  0  0  0  0  0  0  0
  140.5770   70.3770  228.0910 C   0  0  0  0  0  0  0  0  0  0  0  0
  140.8430   71.2310  227.0410 C   0  0  0  0  0  0  0  0  0  0  0  0
  140.4130   70.9670  225.7570 C   0  0  0  0  0  0  0  0  0  0  0  0
  140.6970   71.8330  224.7600 N   0  0  0  0  0  0  0  0  0  0  0  0
  139.1060   73.9230  223.0520 H   0  0  0  0  0  0  0  0  0  0  0  0
  141.2617   74.8219  221.1864 H   0  0  0  0  0  0  0  0  0  0  0  0
  139.6943   74.4076  220.3688 H   0  0  0  0  0  0  0  0  0  0  0  0
  138.8752   77.0267  219.2990 H   0  0  0  0  0  0  0  0  0  0  0  0
  139.3377   78.6894  219.6818 H   0  0  0  0  0  0  0  0  0  0  0  0
  141.2729   76.4913  218.7532 H   0  0  0  0  0  0  0  0  0  0  0  0
  140.5846   77.7430  217.6826 H   0  0  0  0  0  0  0  0  0  0  0  0
  142.9155   77.9566  219.2103 H   0  0  0  0  0  0  0  0  0  0  0  0
  141.9695   79.3221  218.4580 H   0  0  0  0  0  0  0  0  0  0  0  0
  142.5842   79.5745  220.8938 H   0  0  0  0  0  0  0  0  0  0  0  0
  140.8441   79.7798  220.4407 H   0  0  0  0  0  0  0  0  0  0  0  0
  142.1440   77.3291  221.6897 H   0  0  0  0  0  0  0  0  0  0  0  0
  140.4502   77.7446  223.3949 H   0  0  0  0  0  0  0  0  0  0  0  0
  139.6979   79.9245  221.7859 H   0  0  0  0  0  0  0  0  0  0  0  0
  139.0838   79.4726  223.3893 H   0  0  0  0  0  0  0  0  0  0  0  0
  140.6195   81.7810  222.7768 H   0  0  0  0  0  0  0  0  0  0  0  0
  140.3290   81.1509  224.4157 H   0  0  0  0  0  0  0  0  0  0  0  0
  142.7405   80.9244  222.6664 H   0  0  0  0  0  0  0  0  0  0  0  0
  142.6455   80.9337  224.4325 H   0  0  0  0  0  0  0  0  0  0  0  0
  143.0851   78.6578  222.9529 H   0  0  0  0  0  0  0  0  0  0  0  0
  142.2780   78.6172  224.5372 H   0  0  0  0  0  0  0  0  0  0  0  0
  139.2435   70.2821  222.1693 H   0  0  0  0  0  0  0  0  0  0  0  0
  138.6880   68.6413  223.9757 H   0  0  0  0  0  0  0  0  0  0  0  0
  138.8548   68.0375  226.3626 H   0  0  0  0  0  0  0  0  0  0  0  0
  139.6316   68.5209  228.6568 H   0  0  0  0  0  0  0  0  0  0  0  0
  140.9292   70.6095  229.1068 H   0  0  0  0  0  0  0  0  0  0  0  0
  141.4154   72.1505  227.2333 H   0  0  0  0  0  0  0  0  0  0  0  0
  1  2  2  0
  2  3  1  0
  3  4  1  0
  4  5  1  0
  5  6  2  0
  5  7  1  0
  7  8  1  0
  8  9  1  0
  9 10  1  0
 10 11  1  0
 11 12  1  0
 12 13  1  0
 13 14  1  0
 14 15  1  0
 15 16  1  0
 16 17  1  0
  2 18  1  0
 18 19  2  0
 19 20  1  0
 20 21  2  0
 21 22  1  0
 22 23  2  0
 23 24  1  0
 24 25  2  0
 25 26  1  0
 26 27  2  0
 12  7  1  0
 17 13  1  0
 27 18  1  0
 26 21  1  0
  3 28  1  0
  4 29  1  0
  4 30  1  0
  8 31  1  0
  8 32  1  0
  9 33  1  0
  9 34  1  0
 10 35  1  0
 10 36  1  0
 11 37  1  0
 11 38  1  0
 12 39  1  1
 13 40  1  0
 14 41  1  0
 14 42  1  0
 15 43  1  0
 15 44  1  0
 16 45  1  0
 16 46  1  0
 17 47  1  0
 17 48  1  0
 19 49  1  0
 20 50  1  0
 22 51  1  0
 23 52  1  0
 24 53  1  0
 25 54  1  0
M  END
>  <smiles>  (91) 
O=C(NCC(=O)N1CCCCC1C1CCCC1)c1ccc2ccccc2n1

>  <score_type>  (91) 
oracle

>  <origin>  (91) 
autodockgpu

>  <m_score__min__energy>  (91) 
-9.0199999999999996

>  <m_primary>  (91) 
energy

>  <rmsd>  (91) 
2.2064637832784775

>  <m_score__min__rmsd>  (91) 
2.2064637832784775

>  <meeko>  (91) 
{"free_energy": -8.6, "intermolecular_energy": -10.1, "internal_energy": -1.71, "cluster_size": 33, "cluster_id": 1, "rank_in_cluster": 28}

>  <energy>  (91) 
-8.22

>  <cluster_rmsd>  (91) 
1.07

>  <cluster>  (91) 
2

$$$$

     RDKit          3D

 54 57  0  0  0  0  0  0  0  0999 V2000
  140.8550   71.7030  221.2640 O   0  0  0  0  0  0  0  0  0  0  0  0
  140.3610   72.2300  222.3180 C   0  0  0  0  0  0  0  0  0  0  0  0
  139.9480   73.5960  222.3420 N   0  0  0  0  0  0  0  0  0  0  0  0
  140.0790   74.4290  221.1620 C   0  0  0  0  0  0  0  0  0  0  0  0
  140.2100   75.8530  221.5020 C   0  0  0  0  0  0  0  0  0  0  0  0
  139.8700   76.2200  222.6570 O   0  0  0  0  0  0  0  0  0  0  0  0
  140.7100   76.7360  220.5100 N   0  0  0  0  0  0  0  0  0  0  0  0
  140.4140   76.5830  219.0900 C   0  0  0  0  0  0  0  0  0  0  0  0
  141.7410   76.3510  218.4260 C   0  0  0  0  0  0  0  0  0  0  0  0
  142.5680   77.6070  218.5870 C   0  0  0  0  0  0  0  0  0  0  0  0
  141.9810   78.5750  219.5710 C   0  0  0  0  0  0  0  0  0  0  0  0
  141.5720   77.8790  220.8460 C   0  0  1  0  0  0  0  0  0  0  0  0
  140.9330   78.8100  221.8080 C   0  0  0  0  0  0  0  0  0  0  0  0
  141.0280   80.2520  221.4410 C   0  0  0  0  0  0  0  0  0  0  0  0
  141.8030   80.9390  222.5690 C   0  0  0  0  0  0  0  0  0  0  0  0
  142.3950   79.8610  223.4200 C   0  0  0  0  0  0  0  0  0  0  0  0
  141.5640   78.6300  223.1530 C   0  0  0  0  0  0  0  0  0  0  0  0
  140.2180   71.4170  223.5210 C   0  0  0  0  0  0  0  0  0  0  0  0
  139.6210   70.1790  223.4600 C   0  0  0  0  0  0  0  0  0  0  0  0
  139.4800   69.3960  224.6100 C   0  0  0  0  0  0  0  0  0  0  0  0
  139.9580   69.8960  225.8210 C   0  0  0  0  0  0  0  0  0  0  0  0
  139.8590   69.1880  227.0000 C   0  0  0  0  0  0  0  0  0  0  0  0
  140.3340   69.6910  228.1950 C   0  0  0  0  0  0  0  0  0  0  0  0
  140.9290   70.9400  228.2180 C   0  0  0  0  0  0  0  0  0  0  0  0
  141.0280   71.6460  227.0380 C   0  0  0  0  0  0  0  0  0  0  0  0
  140.5530   71.1460  225.8440 C   0  0  0  0  0  0  0  0  0  0  0  0
  140.6720   71.8750  224.7130 N   0  0  0  0  0  0  0  0  0  0  0  0
  139.5500   73.9540  223.2530 H   0  0  0  0  0  0  0  0  0  0  0  0
  140.9725   74.1142  220.6030 H   0  0  0  0  0  0  0  0  0  0  0  0
  139.1673   74.3074  220.5587 H   0  0  0  0  0  0  0  0  0  0  0  0
  139.7470   75.7236  218.9268 H   0  0  0  0  0  0  0  0  0  0  0  0
  139.9028   77.4675  218.6822 H   0  0  0  0  0  0  0  0  0  0  0  0
  142.2538   75.5024  218.9023 H   0  0  0  0  0  0  0  0  0  0  0  0
  141.6004   76.1192  217.3599 H   0  0  0  0  0  0  0  0  0  0  0  0
  143.5730   77.3227  218.9323 H   0  0  0  0  0  0  0  0  0  0  0  0
  142.5958   78.1094  217.6089 H   0  0  0  0  0  0  0  0  0  0  0  0
  142.7304   79.3448  219.8073 H   0  0  0  0  0  0  0  0  0  0  0  0
  141.0862   79.0291  219.1204 H   0  0  0  0  0  0  0  0  0  0  0  0
  142.4705   77.5038  221.3578 H   0  0  0  0  0  0  0  0  0  0  0  0
  139.8632   78.5540  221.8032 H   0  0  0  0  0  0  0  0  0  0  0  0
  141.5640   80.3666  220.4873 H   0  0  0  0  0  0  0  0  0  0  0  0
  140.0297   80.6969  221.3167 H   0  0  0  0  0  0  0  0  0  0  0  0
  142.6013   81.5683  222.1487 H   0  0  0  0  0  0  0  0  0  0  0  0
  141.1384   81.5840  223.1626 H   0  0  0  0  0  0  0  0  0  0  0  0
  143.4441   79.6840  223.1406 H   0  0  0  0  0  0  0  0  0  0  0  0
  142.3873   80.1337  224.4856 H   0  0  0  0  0  0  0  0  0  0  0  0
  142.2038   77.7352  223.1532 H   0  0  0  0  0  0  0  0  0  0  0  0
  140.7977   78.4978  223.9311 H   0  0  0  0  0  0  0  0  0  0  0  0
  139.2504   69.8008  222.4958 H   0  0  0  0  0  0  0  0  0  0  0  0
  139.0021   68.4065  224.5605 H   0  0  0  0  0  0  0  0  0  0  0  0
  139.3881   68.1940  226.9883 H   0  0  0  0  0  0  0  0  0  0  0  0
  140.2402   69.1040  229.1205 H   0  0  0  0  0  0  0  0  0  0  0  0
  141.3150   71.3608  229.1582 H   0  0  0  0  0  0  0  0  0  0  0  0
  141.5007   72.6392  227.0494 H   0  0  0  0  0  0  0  0  0  0  0  0
  1  2  2  0
  2  3  1  0
  3  4  1  0
  4  5  1  0
  5  6  2  0
  5  7  1  0
  7  8  1  0
  8  9  1  0
  9 10  1  0
 10 11  1  0
 11 12  1  0
 12 13  1  0
 13 14  1  0
 14 15  1  0
 15 16  1  0
 16 17  1  0
  2 18  1  0
 18 19  2  0
 19 20  1  0
 20 21  2  0
 21 22  1  0
 22 23  2  0
 23 24  1  0
 24 25  2  0
 25 26  1  0
 26 27  2  0
 12  7  1  0
 17 13  1  0
 27 18  1  0
 26 21  1  0
  3 28  1  0
  4 29  1  0
  4 30  1  0
  8 31  1  0
  8 32  1  0
  9 33  1  0
  9 34  1  0
 10 35  1  0
 10 36  1  0
 11 37  1  0
 11 38  1  0
 12 39  1  1
 13 40  1  0
 14 41  1  0
 14 42  1  0
 15 43  1  0
 15 44  1  0
 16 45  1  0
 16 46  1  0
 17 47  1  0
 17 48  1  0
 19 49  1  0
 20 50  1  0
 22 51  1  0
 23 52  1  0
 24 53  1  0
 25 54  1  0
M  END
>  <smiles>  (92) 
O=C(NCC(=O)N1CCCCC1C1CCCC1)c1ccc2ccccc2n1

>  <score_type>  (92) 
oracle

>  <origin>  (92) 
autodockgpu

>  <m_score__min__energy>  (92) 
-9.0199999999999996

>  <m_primary>  (92) 
energy

>  <rmsd>  (92) 
1.7818116363103937

>  <m_score__min__rmsd>  (92) 
1.7818116363103937

>  <meeko>  (92) 
{"free_energy": -8.73, "intermolecular_energy": -10.23, "internal_energy": -1.7, "cluster_size": 33, "cluster_id": 1, "rank_in_cluster": 19}

>  <energy>  (92) 
-8.55

>  <cluster_rmsd>  (92) 
0.0

>  <cluster>  (92) 
3

$$$$

     RDKit          3D

 54 57  0  0  0  0  0  0  0  0999 V2000
  141.2940   72.1740  221.6990 O   0  0  0  0  0  0  0  0  0  0  0  0
  140.3460   72.3680  222.5330 C   0  0  0  0  0  0  0  0  0  0  0  0
  139.4030   73.4240  222.3540 N   0  0  0  0  0  0  0  0  0  0  0  0
  139.4970   74.3130  221.2110 C   0  0  0  0  0  0  0  0  0  0  0  0
  140.2430   75.5410  221.5250 C   0  0  0  0  0  0  0  0  0  0  0  0
  141.4610   75.5920  221.2100 O   0  0  0  0  0  0  0  0  0  0  0  0
  139.5500   76.6000  222.1680 N   0  0  0  0  0  0  0  0  0  0  0  0
  138.3690   76.3870  222.9960 C   0  0  0  0  0  0  0  0  0  0  0  0
  137.2590   77.1320  222.3120 C   0  0  0  0  0  0  0  0  0  0  0  0
  137.5900   78.6070  222.3600 C   0  0  0  0  0  0  0  0  0  0  0  0
  139.0020   78.8790  222.7870 C   0  0  0  0  0  0  0  0  0  0  0  0
  139.9780   78.0010  222.0420 C   0  0  1  0  0  0  0  0  0  0  0  0
  141.3740   78.2130  222.4950 C   0  0  0  0  0  0  0  0  0  0  0  0
  141.5110   78.6870  223.9020 C   0  0  0  0  0  0  0  0  0  0  0  0
  142.2070   80.0500  223.8380 C   0  0  0  0  0  0  0  0  0  0  0  0
  142.2020   80.4820  222.4060 C   0  0  0  0  0  0  0  0  0  0  0  0
  142.0300   79.2170  221.6010 C   0  0  0  0  0  0  0  0  0  0  0  0
  140.2250   71.4900  223.6920 C   0  0  0  0  0  0  0  0  0  0  0  0
  139.6360   70.2540  223.5740 C   0  0  0  0  0  0  0  0  0  0  0  0
  139.5170   69.4080  224.6820 C   0  0  0  0  0  0  0  0  0  0  0  0
  140.0100   69.8460  225.9110 C   0  0  0  0  0  0  0  0  0  0  0  0
  139.9330   69.0750  227.0510 C   0  0  0  0  0  0  0  0  0  0  0  0
  140.4240   69.5160  228.2640 C   0  0  0  0  0  0  0  0  0  0  0  0
  141.0120   70.7670  228.3460 C   0  0  0  0  0  0  0  0  0  0  0  0
  141.0880   71.5360  227.2040 C   0  0  0  0  0  0  0  0  0  0  0  0
  140.5980   71.0970  225.9920 C   0  0  0  0  0  0  0  0  0  0  0  0
  140.6950   71.8870  224.9000 N   0  0  0  0  0  0  0  0  0  0  0  0
  138.6490   73.5170  223.0890 H   0  0  0  0  0  0  0  0  0  0  0  0
  140.0097   73.7859  220.3929 H   0  0  0  0  0  0  0  0  0  0  0  0
  138.4758   74.6017  220.9216 H   0  0  0  0  0  0  0  0  0  0  0  0
  138.1312   75.3148  223.0578 H   0  0  0  0  0  0  0  0  0  0  0  0
  138.5237   76.7411  224.0259 H   0  0  0  0  0  0  0  0  0  0  0  0
  137.1761   76.8015  221.2661 H   0  0  0  0  0  0  0  0  0  0  0  0
  136.3004   76.9380  222.8154 H   0  0  0  0  0  0  0  0  0  0  0  0
  137.4393   79.0325  221.3569 H   0  0  0  0  0  0  0  0  0  0  0  0
  136.9267   79.0682  223.1066 H   0  0  0  0  0  0  0  0  0  0  0  0
  139.2411   79.9333  222.5841 H   0  0  0  0  0  0  0  0  0  0  0  0
  139.0883   78.6608  223.8617 H   0  0  0  0  0  0  0  0  0  0  0  0
  139.9735   78.2758  220.9769 H   0  0  0  0  0  0  0  0  0  0  0  0
  141.8541   77.2245  222.4476 H   0  0  0  0  0  0  0  0  0  0  0  0
  140.5192   78.7886  224.3667 H   0  0  0  0  0  0  0  0  0  0  0  0
  142.0901   77.9735  224.5067 H   0  0  0  0  0  0  0  0  0  0  0  0
  141.6623   80.7807  224.4540 H   0  0  0  0  0  0  0  0  0  0  0  0
  143.2356   79.9818  224.2218 H   0  0  0  0  0  0  0  0  0  0  0  0
  141.3682   81.1740  222.2166 H   0  0  0  0  0  0  0  0  0  0  0  0
  143.1275   81.0125  222.1377 H   0  0  0  0  0  0  0  0  0  0  0  0
  141.3964   79.4116  220.7231 H   0  0  0  0  0  0  0  0  0  0  0  0
  143.0013   78.8461  221.2419 H   0  0  0  0  0  0  0  0  0  0  0  0
  139.2534   69.9257  222.5963 H   0  0  0  0  0  0  0  0  0  0  0  0
  139.0450   68.4191  224.5860 H   0  0  0  0  0  0  0  0  0  0  0  0
  139.4672   68.0802  226.9929 H   0  0  0  0  0  0  0  0  0  0  0  0
  140.3487   68.8789  229.1576 H   0  0  0  0  0  0  0  0  0  0  0  0
  141.4099   71.1393  229.3016 H   0  0  0  0  0  0  0  0  0  0  0  0
  141.5540   72.5307  227.2615 H   0  0  0  0  0  0  0  0  0  0  0  0
  1  2  2  0
  2  3  1  0
  3  4  1  0
  4  5  1  0
  5  6  2  0
  5  7  1  0
  7  8  1  0
  8  9  1  0
  9 10  1  0
 10 11  1  0
 11 12  1  0
 12 13  1  0
 13 14  1  0
 14 15  1  0
 15 16  1  0
 16 17  1  0
  2 18  1  0
 18 19  2  0
 19 20  1  0
 20 21  2  0
 21 22  1  0
 22 23  2  0
 23 24  1  0
 24 25  2  0
 25 26  1  0
 26 27  2  0
 12  7  1  0
 17 13  1  0
 27 18  1  0
 26 21  1  0
  3 28  1  0
  4 29  1  0
  4 30  1  0
  8 31  1  0
  8 32  1  0
  9 33  1  0
  9 34  1  0
 10 35  1  0
 10 36  1  0
 11 37  1  0
 11 38  1  0
 12 39  1  6
 13 40  1  0
 14 41  1  0
 14 42  1  0
 15 43  1  0
 15 44  1  0
 16 45  1  0
 16 46  1  0
 17 47  1  0
 17 48  1  0
 19 49  1  0
 20 50  1  0
 22 51  1  0
 23 52  1  0
 24 53  1  0
 25 54  1  0
M  END
>  <smiles>  (93) 
O=C(NCC(=O)N1CCCCC1C1CCCC1)c1ccc2ccccc2n1

>  <score_type>  (93) 
oracle

>  <origin>  (93) 
autodockgpu

>  <m_score__min__energy>  (93) 
-9.0199999999999996

>  <m_primary>  (93) 
energy

>  <rmsd>  (93) 
3.089807822442325

>  <m_score__min__rmsd>  (93) 
3.089807822442325

>  <meeko>  (93) 
{"free_energy": -8.95, "intermolecular_energy": -10.44, "internal_energy": -1.34, "cluster_size": 33, "cluster_id": 1, "rank_in_cluster": 5}

>  <energy>  (93) 
-8.54

>  <cluster_rmsd>  (93) 
0.13

>  <cluster>  (93) 
3

$$$$

     RDKit          3D

 54 57  0  0  0  0  0  0  0  0999 V2000
  140.8340   71.3020  221.3320 O   0  0  0  0  0  0  0  0  0  0  0  0
  140.3460   71.9080  222.3460 C   0  0  0  0  0  0  0  0  0  0  0  0
  140.0050   73.2930  222.2900 N   0  0  0  0  0  0  0  0  0  0  0  0
  140.2060   74.0550  221.0720 C   0  0  0  0  0  0  0  0  0  0  0  0
  140.9080   75.3230  221.3230 C   0  0  0  0  0  0  0  0  0  0  0  0
  140.5800   75.9910  222.3380 O   0  0  0  0  0  0  0  0  0  0  0  0
  141.9140   75.7250  220.4060 N   0  0  0  0  0  0  0  0  0  0  0  0
  142.1620   77.1200  220.0620 C   0  0  0  0  0  0  0  0  0  0  0  0
  141.8890   77.2250  218.5890 C   0  0  0  0  0  0  0  0  0  0  0  0
  142.9180   76.3860  217.8630 C   0  0  0  0  0  0  0  0  0  0  0  0
  143.6980   75.4900  218.7800 C   0  0  0  0  0  0  0  0  0  0  0  0
  142.7850   74.7520  219.7300 C   0  0  1  0  0  0  0  0  0  0  0  0
  143.5430   73.9070  220.6850 C   0  0  0  0  0  0  0  0  0  0  0  0
  144.9980   74.2190  220.7800 C   0  0  0  0  0  0  0  0  0  0  0  0
  145.7450   72.9520  220.3540 C   0  0  0  0  0  0  0  0  0  0  0  0
  144.7380   72.0280  219.7450 C   0  0  0  0  0  0  0  0  0  0  0  0
  143.4010   72.4720  220.2860 C   0  0  0  0  0  0  0  0  0  0  0  0
  140.1330   71.1680  223.5850 C   0  0  0  0  0  0  0  0  0  0  0  0
  139.5110   69.9420  223.5670 C   0  0  0  0  0  0  0  0  0  0  0  0
  139.3030   69.2270  224.7510 C   0  0  0  0  0  0  0  0  0  0  0  0
  139.7410   69.7850  225.9530 C   0  0  0  0  0  0  0  0  0  0  0  0
  139.5760   69.1480  227.1630 C   0  0  0  0  0  0  0  0  0  0  0  0
  140.0120   69.7070  228.3480 C   0  0  0  0  0  0  0  0  0  0  0  0
  140.6340   70.9440  228.3280 C   0  0  0  0  0  0  0  0  0  0  0  0
  140.7980   71.5800  227.1150 C   0  0  0  0  0  0  0  0  0  0  0  0
  140.3630   71.0220  225.9310 C   0  0  0  0  0  0  0  0  0  0  0  0
  140.5460   71.6830  224.7670 N   0  0  0  0  0  0  0  0  0  0  0  0
  139.6060   73.7190  223.1710 H   0  0  0  0  0  0  0  0  0  0  0  0
  140.8018   73.4524  220.3707 H   0  0  0  0  0  0  0  0  0  0  0  0
  139.2168   74.2922  220.6533 H   0  0  0  0  0  0  0  0  0  0  0  0
  141.4873   77.7808  220.6260 H   0  0  0  0  0  0  0  0  0  0  0  0
  143.1897   77.4246  220.3092 H   0  0  0  0  0  0  0  0  0  0  0  0
  140.8786   76.8501  218.3687 H   0  0  0  0  0  0  0  0  0  0  0  0
  141.9507   78.2735  218.2622 H   0  0  0  0  0  0  0  0  0  0  0  0
  142.4000   75.7616  217.1201 H   0  0  0  0  0  0  0  0  0  0  0  0
  143.6328   77.0771  217.3924 H   0  0  0  0  0  0  0  0  0  0  0  0
  144.2559   74.7581  218.1774 H   0  0  0  0  0  0  0  0  0  0  0  0
  144.3866   76.1115  219.3712 H   0  0  0  0  0  0  0  0  0  0  0  0
  142.1556   74.0534  219.1593 H   0  0  0  0  0  0  0  0  0  0  0  0
  143.1108   74.1176  221.6744 H   0  0  0  0  0  0  0  0  0  0  0  0
  145.2520   75.0531  220.1094 H   0  0  0  0  0  0  0  0  0  0  0  0
  145.2740   74.5180  221.8020 H   0  0  0  0  0  0  0  0  0  0  0  0
  146.5214   73.2024  219.6161 H   0  0  0  0  0  0  0  0  0  0  0  0
  146.2363   72.4796  221.2174 H   0  0  0  0  0  0  0  0  0  0  0  0
  144.7551   72.1104  218.6482 H   0  0  0  0  0  0  0  0  0  0  0  0
  144.9483   70.9769  219.9917 H   0  0  0  0  0  0  0  0  0  0  0  0
  142.6275   72.3707  219.5104 H   0  0  0  0  0  0  0  0  0  0  0  0
  143.1015   71.8542  221.1454 H   0  0  0  0  0  0  0  0  0  0  0  0
  139.1729   69.5183  222.6099 H   0  0  0  0  0  0  0  0  0  0  0  0
  138.8051   68.2463  224.7352 H   0  0  0  0  0  0  0  0  0  0  0  0
  139.0825   68.1652  227.1860 H   0  0  0  0  0  0  0  0  0  0  0  0
  139.8665   69.1744  229.2994 H   0  0  0  0  0  0  0  0  0  0  0  0
  140.9896   71.4093  229.2591 H   0  0  0  0  0  0  0  0  0  0  0  0
  141.2911   72.5630  227.0912 H   0  0  0  0  0  0  0  0  0  0  0  0
  1  2  2  0
  2  3  1  0
  3  4  1  0
  4  5  1  0
  5  6  2  0
  5  7  1  0
  7  8  1  0
  8  9  1  0
  9 10  1  0
 10 11  1  0
 11 12  1  0
 12 13  1  0
 13 14  1  0
 14 15  1  0
 15 16  1  0
 16 17  1  0
  2 18  1  0
 18 19  2  0
 19 20  1  0
 20 21  2  0
 21 22  1  0
 22 23  2  0
 23 24  1  0
 24 25  2  0
 25 26  1  0
 26 27  2  0
 12  7  1  0
 17 13  1  0
 27 18  1  0
 26 21  1  0
  3 28  1  0
  4 29  1  0
  4 30  1  0
  8 31  1  0
  8 32  1  0
  9 33  1  0
  9 34  1  0
 10 35  1  0
 10 36  1  0
 11 37  1  0
 11 38  1  0
 12 39  1  6
 13 40  1  0
 14 41  1  0
 14 42  1  0
 15 43  1  0
 15 44  1  0
 16 45  1  0
 16 46  1  0
 17 47  1  0
 17 48  1  0
 19 49  1  0
 20 50  1  0
 22 51  1  0
 23 52  1  0
 24 53  1  0
 25 54  1  0
M  END
>  <smiles>  (94) 
O=C(NCC(=O)N1CCCCC1C1CCCC1)c1ccc2ccccc2n1

>  <score_type>  (94) 
oracle

>  <origin>  (94) 
autodockgpu

>  <m_score__min__energy>  (94) 
-9.0199999999999996

>  <m_primary>  (94) 
energy

>  <rmsd>  (94) 
2.3888576655144824

>  <m_score__min__rmsd>  (94) 
2.3888576655144824

>  <meeko>  (94) 
{"free_energy": -8.52, "intermolecular_energy": -10.01, "internal_energy": -1.89, "cluster_size": 8, "cluster_id": 3, "rank_in_cluster": 4}

>  <energy>  (94) 
-8.53

>  <cluster_rmsd>  (94) 
0.08

>  <cluster>  (94) 
3

$$$$

     RDKit          3D

 54 57  0  0  0  0  0  0  0  0999 V2000
  141.1100   71.8690  221.3490 O   0  0  0  0  0  0  0  0  0  0  0  0
  140.4720   72.3470  222.3470 C   0  0  0  0  0  0  0  0  0  0  0  0
  139.9930   73.6910  222.3480 N   0  0  0  0  0  0  0  0  0  0  0  0
  140.2200   74.5580  221.2070 C   0  0  0  0  0  0  0  0  0  0  0  0
  140.1320   75.9810  221.5670 C   0  0  0  0  0  0  0  0  0  0  0  0
  139.6590   76.2790  222.6950 O   0  0  0  0  0  0  0  0  0  0  0  0
  140.5830   76.9400  220.6230 N   0  0  0  0  0  0  0  0  0  0  0  0
  140.1910   76.9140  219.2180 C   0  0  0  0  0  0  0  0  0  0  0  0
  141.4670   76.7230  218.4490 C   0  0  0  0  0  0  0  0  0  0  0  0
  142.3270   77.9490  218.6610 C   0  0  0  0  0  0  0  0  0  0  0  0
  141.8250   78.8360  219.7620 C   0  0  0  0  0  0  0  0  0  0  0  0
  141.4870   78.0370  220.9970 C   0  0  1  0  0  0  0  0  0  0  0  0
  140.9310   78.8900  222.0760 C   0  0  0  0  0  0  0  0  0  0  0  0
  140.8950   80.3470  221.7670 C   0  0  0  0  0  0  0  0  0  0  0  0
  141.7730   81.0380  222.8140 C   0  0  0  0  0  0  0  0  0  0  0  0
  142.5340   79.9670  223.5300 C   0  0  0  0  0  0  0  0  0  0  0  0
  141.7440   78.6980  223.3170 C   0  0  0  0  0  0  0  0  0  0  0  0
  140.2280   71.5000  223.5100 C   0  0  0  0  0  0  0  0  0  0  0  0
  139.5780   70.2960  223.3730 C   0  0  0  0  0  0  0  0  0  0  0  0
  139.3410   69.4800  224.4830 C   0  0  0  0  0  0  0  0  0  0  0  0
  139.7800   69.9120  225.7350 C   0  0  0  0  0  0  0  0  0  0  0  0
  139.5870   69.1690  226.8790 C   0  0  0  0  0  0  0  0  0  0  0  0
  140.0240   69.6040  228.1140 C   0  0  0  0  0  0  0  0  0  0  0  0
  140.6760   70.8210  228.2150 C   0  0  0  0  0  0  0  0  0  0  0  0
  140.8680   71.5630  227.0690 C   0  0  0  0  0  0  0  0  0  0  0  0
  140.4310   71.1300  225.8340 C   0  0  0  0  0  0  0  0  0  0  0  0
  140.6420   71.8920  224.7390 N   0  0  0  0  0  0  0  0  0  0  0  0
  139.4740   74.0090  223.2120 H   0  0  0  0  0  0  0  0  0  0  0  0
  141.2226   74.3560  220.8020 H   0  0  0  0  0  0  0  0  0  0  0  0
  139.4386   74.3483  220.4617 H   0  0  0  0  0  0  0  0  0  0  0  0
  139.4988   76.0806  219.0273 H   0  0  0  0  0  0  0  0  0  0  0  0
  139.6705   77.8369  218.9223 H   0  0  0  0  0  0  0  0  0  0  0  0
  141.9937   75.8294  218.8153 H   0  0  0  0  0  0  0  0  0  0  0  0
  141.2521   76.5868  217.3788 H   0  0  0  0  0  0  0  0  0  0  0  0
  143.3469   77.6222  218.9121 H   0  0  0  0  0  0  0  0  0  0  0  0
  142.2998   78.5341  217.7299 H   0  0  0  0  0  0  0  0  0  0  0  0
  142.6033   79.5717  220.0128 H   0  0  0  0  0  0  0  0  0  0  0  0
  140.9117   79.3403  219.4133 H   0  0  0  0  0  0  0  0  0  0  0  0
  142.4095   77.6058  221.4130 H   0  0  0  0  0  0  0  0  0  0  0  0
  139.8861   78.5690  222.1989 H   0  0  0  0  0  0  0  0  0  0  0  0
  141.2919   80.5309  220.7577 H   0  0  0  0  0  0  0  0  0  0  0  0
  139.8654   80.7332  221.7953 H   0  0  0  0  0  0  0  0  0  0  0  0
  142.4709   81.7316  222.3221 H   0  0  0  0  0  0  0  0  0  0  0  0
  141.1580   81.6173  223.5184 H   0  0  0  0  0  0  0  0  0  0  0  0
  143.5446   79.8659  223.1076 H   0  0  0  0  0  0  0  0  0  0  0  0
  142.6544   80.1976  224.5988 H   0  0  0  0  0  0  0  0  0  0  0  0
  142.4269   77.8446  223.1926 H   0  0  0  0  0  0  0  0  0  0  0  0
  141.0964   78.4898  224.1814 H   0  0  0  0  0  0  0  0  0  0  0  0
  139.2404   69.9710  222.3778 H   0  0  0  0  0  0  0  0  0  0  0  0
  138.8195   68.5179  224.3718 H   0  0  0  0  0  0  0  0  0  0  0  0
  139.0696   68.2010  226.8061 H   0  0  0  0  0  0  0  0  0  0  0  0
  139.8556   68.9889  229.0102 H   0  0  0  0  0  0  0  0  0  0  0  0
  141.0331   71.1881  229.1885 H   0  0  0  0  0  0  0  0  0  0  0  0
  141.3859   72.5307  227.1415 H   0  0  0  0  0  0  0  0  0  0  0  0
  1  2  2  0
  2  3  1  0
  3  4  1  0
  4  5  1  0
  5  6  2  0
  5  7  1  0
  7  8  1  0
  8  9  1  0
  9 10  1  0
 10 11  1  0
 11 12  1  0
 12 13  1  0
 13 14  1  0
 14 15  1  0
 15 16  1  0
 16 17  1  0
  2 18  1  0
 18 19  2  0
 19 20  1  0
 20 21  2  0
 21 22  1  0
 22 23  2  0
 23 24  1  0
 24 25  2  0
 25 26  1  0
 26 27  2  0
 12  7  1  0
 17 13  1  0
 27 18  1  0
 26 21  1  0
  3 28  1  0
  4 29  1  0
  4 30  1  0
  8 31  1  0
  8 32  1  0
  9 33  1  0
  9 34  1  0
 10 35  1  0
 10 36  1  0
 11 37  1  0
 11 38  1  0
 12 39  1  1
 13 40  1  0
 14 41  1  0
 14 42  1  0
 15 43  1  0
 15 44  1  0
 16 45  1  0
 16 46  1  0
 17 47  1  0
 17 48  1  0
 19 49  1  0
 20 50  1  0
 22 51  1  0
 23 52  1  0
 24 53  1  0
 25 54  1  0
M  END
>  <smiles>  (95) 
O=C(NCC(=O)N1CCCCC1C1CCCC1)c1ccc2ccccc2n1

>  <score_type>  (95) 
oracle

>  <origin>  (95) 
autodockgpu

>  <m_score__min__energy>  (95) 
-9.0199999999999996

>  <m_primary>  (95) 
energy

>  <rmsd>  (95) 
1.9066374298126427

>  <m_score__min__rmsd>  (95) 
1.9066374298126427

>  <meeko>  (95) 
{"free_energy": -8.74, "intermolecular_energy": -10.24, "internal_energy": -1.73, "cluster_size": 33, "cluster_id": 1, "rank_in_cluster": 15}

>  <energy>  (95) 
-8.52

>  <cluster_rmsd>  (95) 
0.33

>  <cluster>  (95) 
3

$$$$

     RDKit          3D

 54 57  0  0  0  0  0  0  0  0999 V2000
  141.3490   72.2700  221.7330 O   0  0  0  0  0  0  0  0  0  0  0  0
  140.3750   72.4580  222.5370 C   0  0  0  0  0  0  0  0  0  0  0  0
  139.4540   73.5320  222.3500 N   0  0  0  0  0  0  0  0  0  0  0  0
  139.6000   74.4450  221.2320 C   0  0  0  0  0  0  0  0  0  0  0  0
  140.3030   75.6790  221.6140 C   0  0  0  0  0  0  0  0  0  0  0  0
  141.5240   75.7790  221.3230 O   0  0  0  0  0  0  0  0  0  0  0  0
  139.5680   76.6860  222.2910 N   0  0  0  0  0  0  0  0  0  0  0  0
  138.3450   76.4110  223.0350 C   0  0  0  0  0  0  0  0  0  0  0  0
  137.2690   77.1990  222.3460 C   0  0  0  0  0  0  0  0  0  0  0  0
  137.5850   78.6680  222.5150 C   0  0  0  0  0  0  0  0  0  0  0  0
  138.9690   78.9140  223.0390 C   0  0  0  0  0  0  0  0  0  0  0  0
  139.9920   78.0950  222.2880 C   0  0  1  0  0  0  0  0  0  0  0  0
  141.3590   78.2790  222.8320 C   0  0  0  0  0  0  0  0  0  0  0  0
  141.4250   79.0070  224.1310 C   0  0  0  0  0  0  0  0  0  0  0  0
  142.2530   80.2710  223.8810 C   0  0  0  0  0  0  0  0  0  0  0  0
  142.4100   80.4120  222.4000 C   0  0  0  0  0  0  0  0  0  0  0  0
  142.1830   79.0310  221.8350 C   0  0  0  0  0  0  0  0  0  0  0  0
  140.2030   71.5560  223.6710 C   0  0  0  0  0  0  0  0  0  0  0  0
  139.5410   70.3610  223.5180 C   0  0  0  0  0  0  0  0  0  0  0  0
  139.3710   69.4920  224.6010 C   0  0  0  0  0  0  0  0  0  0  0  0
  139.8890   69.8650  225.8420 C   0  0  0  0  0  0  0  0  0  0  0  0
  139.7660   69.0680  226.9600 C   0  0  0  0  0  0  0  0  0  0  0  0
  140.2810   69.4430  228.1840 C   0  0  0  0  0  0  0  0  0  0  0  0
  140.9420   70.6540  228.3010 C   0  0  0  0  0  0  0  0  0  0  0  0
  141.0650   71.4500  227.1820 C   0  0  0  0  0  0  0  0  0  0  0  0
  140.5500   71.0760  225.9580 C   0  0  0  0  0  0  0  0  0  0  0  0
  140.6940   71.8890  224.8890 N   0  0  0  0  0  0  0  0  0  0  0  0
  138.6760   73.6180  223.0600 H   0  0  0  0  0  0  0  0  0  0  0  0
  140.1706   73.9434  220.4365 H   0  0  0  0  0  0  0  0  0  0  0  0
  138.5929   74.7217  220.8867 H   0  0  0  0  0  0  0  0  0  0  0  0
  138.1118   75.3364  223.0072 H   0  0  0  0  0  0  0  0  0  0  0  0
  138.4406   76.6915  224.0943 H   0  0  0  0  0  0  0  0  0  0  0  0
  137.2454   76.9428  221.2765 H   0  0  0  0  0  0  0  0  0  0  0  0
  136.2863   76.9668  222.7823 H   0  0  0  0  0  0  0  0  0  0  0  0
  137.4876   79.1621  221.5371 H   0  0  0  0  0  0  0  0  0  0  0  0
  136.8772   79.0738  223.2528 H   0  0  0  0  0  0  0  0  0  0  0  0
  139.2108   79.9811  222.9260 H   0  0  0  0  0  0  0  0  0  0  0  0
  138.9973   78.6195  224.0985 H   0  0  0  0  0  0  0  0  0  0  0  0
  140.0443   78.4452  221.2465 H   0  0  0  0  0  0  0  0  0  0  0  0
  141.7413   77.2651  223.0212 H   0  0  0  0  0  0  0  0  0  0  0  0
  140.4129   79.2763  224.4673 H   0  0  0  0  0  0  0  0  0  0  0  0
  141.8800   78.3824  224.9138 H   0  0  0  0  0  0  0  0  0  0  0  0
  141.7324   81.1495  224.2900 H   0  0  0  0  0  0  0  0  0  0  0  0
  143.2345   80.1980  224.3723 H   0  0  0  0  0  0  0  0  0  0  0  0
  141.6666   81.1174  222.0004 H   0  0  0  0  0  0  0  0  0  0  0  0
  143.4020   80.8040  222.1311 H   0  0  0  0  0  0  0  0  0  0  0  0
  141.6473   79.0985  220.8767 H   0  0  0  0  0  0  0  0  0  0  0  0
  143.1399   78.5201  221.6522 H   0  0  0  0  0  0  0  0  0  0  0  0
  139.1399   70.0846  222.5317 H   0  0  0  0  0  0  0  0  0  0  0  0
  138.8409   68.5361  224.4772 H   0  0  0  0  0  0  0  0  0  0  0  0
  139.2419   68.1047  226.8739 H   0  0  0  0  0  0  0  0  0  0  0  0
  140.1675   68.7859  229.0588 H   0  0  0  0  0  0  0  0  0  0  0  0
  141.3603   70.9743  229.2666 H   0  0  0  0  0  0  0  0  0  0  0  0
  141.5899   72.4129  227.2678 H   0  0  0  0  0  0  0  0  0  0  0  0
  1  2  2  0
  2  3  1  0
  3  4  1  0
  4  5  1  0
  5  6  2  0
  5  7  1  0
  7  8  1  0
  8  9  1  0
  9 10  1  0
 10 11  1  0
 11 12  1  0
 12 13  1  0
 13 14  1  0
 14 15  1  0
 15 16  1  0
 16 17  1  0
  2 18  1  0
 18 19  2  0
 19 20  1  0
 20 21  2  0
 21 22  1  0
 22 23  2  0
 23 24  1  0
 24 25  2  0
 25 26  1  0
 26 27  2  0
 12  7  1  0
 17 13  1  0
 27 18  1  0
 26 21  1  0
  3 28  1  0
  4 29  1  0
  4 30  1  0
  8 31  1  0
  8 32  1  0
  9 33  1  0
  9 34  1  0
 10 35  1  0
 10 36  1  0
 11 37  1  0
 11 38  1  0
 12 39  1  6
 13 40  1  0
 14 41  1  0
 14 42  1  0
 15 43  1  0
 15 44  1  0
 16 45  1  0
 16 46  1  0
 17 47  1  0
 17 48  1  0
 19 49  1  0
 20 50  1  0
 22 51  1  0
 23 52  1  0
 24 53  1  0
 25 54  1  0
M  END
>  <smiles>  (96) 
O=C(NCC(=O)N1CCCCC1C1CCCC1)c1ccc2ccccc2n1

>  <score_type>  (96) 
oracle

>  <origin>  (96) 
autodockgpu

>  <m_score__min__energy>  (96) 
-9.0199999999999996

>  <m_primary>  (96) 
energy

>  <rmsd>  (96) 
3.1776015379017166

>  <m_score__min__rmsd>  (96) 
3.1776015379017166

>  <meeko>  (96) 
{"free_energy": -9.02, "intermolecular_energy": -10.52, "internal_energy": -1.32, "cluster_size": 33, "cluster_id": 1, "rank_in_cluster": 1}

>  <energy>  (96) 
-8.5

>  <cluster_rmsd>  (96) 
0.08

>  <cluster>  (96) 
3

$$$$

     RDKit          3D

 54 57  0  0  0  0  0  0  0  0999 V2000
  140.2680   71.7510  221.0480 O   0  0  0  0  0  0  0  0  0  0  0  0
  140.0220   72.2580  222.1940 C   0  0  0  0  0  0  0  0  0  0  0  0
  139.7560   73.6510  222.3480 N   0  0  0  0  0  0  0  0  0  0  0  0
  139.7580   74.5360  221.1980 C   0  0  0  0  0  0  0  0  0  0  0  0
  139.4910   75.9320  221.5740 C   0  0  0  0  0  0  0  0  0  0  0  0
  138.6740   76.1490  222.5060 O   0  0  0  0  0  0  0  0  0  0  0  0
  140.1670   76.9580  220.8640 N   0  0  0  0  0  0  0  0  0  0  0  0
  139.8860   77.2740  219.4680 C   0  0  0  0  0  0  0  0  0  0  0  0
  141.1670   77.0090  218.7300 C   0  0  0  0  0  0  0  0  0  0  0  0
  142.2010   77.9970  219.2220 C   0  0  0  0  0  0  0  0  0  0  0  0
  141.7720   78.7310  220.4580 C   0  0  0  0  0  0  0  0  0  0  0  0
  141.2110   77.7820  221.4900 C   0  0  1  0  0  0  0  0  0  0  0  0
  140.7240   78.4970  222.6960 C   0  0  0  0  0  0  0  0  0  0  0  0
  140.1590   79.8520  222.4350 C   0  0  0  0  0  0  0  0  0  0  0  0
  141.0250   80.8430  223.2180 C   0  0  0  0  0  0  0  0  0  0  0  0
  142.2400   80.1020  223.6790 C   0  0  0  0  0  0  0  0  0  0  0  0
  141.8540   78.6430  223.6650 C   0  0  0  0  0  0  0  0  0  0  0  0
  140.0140   71.3930  223.3690 C   0  0  0  0  0  0  0  0  0  0  0  0
  139.5700   70.0950  223.2780 C   0  0  0  0  0  0  0  0  0  0  0  0
  139.5590   69.2620  224.4010 C   0  0  0  0  0  0  0  0  0  0  0  0
  140.0090   69.7750  225.6170 C   0  0  0  0  0  0  0  0  0  0  0  0
  140.0310   69.0210  226.7710 C   0  0  0  0  0  0  0  0  0  0  0  0
  140.4780   69.5370  227.9710 C   0  0  0  0  0  0  0  0  0  0  0  0
  140.9180   70.8490  228.0260 C   0  0  0  0  0  0  0  0  0  0  0  0
  140.8950   71.6010  226.8710 C   0  0  0  0  0  0  0  0  0  0  0  0
  140.4480   71.0870  225.6710 C   0  0  0  0  0  0  0  0  0  0  0  0
  140.4450   71.8630  224.5650 N   0  0  0  0  0  0  0  0  0  0  0  0
  139.5610   73.9910  223.3300 H   0  0  0  0  0  0  0  0  0  0  0  0
  140.7427   74.4821  220.7106 H   0  0  0  0  0  0  0  0  0  0  0  0
  138.9576   74.2094  220.5178 H   0  0  0  0  0  0  0  0  0  0  0  0
  139.0807   76.6311  219.0831 H   0  0  0  0  0  0  0  0  0  0  0  0
  139.5522   78.3149  219.3448 H   0  0  0  0  0  0  0  0  0  0  0  0
  141.5072   75.9820  218.9290 H   0  0  0  0  0  0  0  0  0  0  0  0
  141.0149   77.1219  217.6464 H   0  0  0  0  0  0  0  0  0  0  0  0
  143.1296   77.4507  219.4438 H   0  0  0  0  0  0  0  0  0  0  0  0
  142.3432   78.7455  218.4286 H   0  0  0  0  0  0  0  0  0  0  0  0
  142.6411   79.2527  220.8852 H   0  0  0  0  0  0  0  0  0  0  0  0
  140.9859   79.4490  220.1814 H   0  0  0  0  0  0  0  0  0  0  0  0
  142.0138   77.1203  221.8472 H   0  0  0  0  0  0  0  0  0  0  0  0
  139.9010   77.8844  223.0928 H   0  0  0  0  0  0  0  0  0  0  0  0
  140.1991   80.0796  221.3596 H   0  0  0  0  0  0  0  0  0  0  0  0
  139.1060   79.9107  222.7478 H   0  0  0  0  0  0  0  0  0  0  0  0
  141.3186   81.6813  222.5691 H   0  0  0  0  0  0  0  0  0  0  0  0
  140.4703   81.2538  224.0745 H   0  0  0  0  0  0  0  0  0  0  0  0
  143.0827   80.2830  222.9955 H   0  0  0  0  0  0  0  0  0  0  0  0
  142.5615   80.4288  224.6789 H   0  0  0  0  0  0  0  0  0  0  0  0
  142.7086   78.0296  223.3435 H   0  0  0  0  0  0  0  0  0  0  0  0
  141.5551   78.3071  224.6689 H   0  0  0  0  0  0  0  0  0  0  0  0
  139.2193   69.7072  222.3102 H   0  0  0  0  0  0  0  0  0  0  0  0
  139.2029   68.2239  224.3267 H   0  0  0  0  0  0  0  0  0  0  0  0
  139.6824   67.9783  226.7346 H   0  0  0  0  0  0  0  0  0  0  0  0
  140.4846   68.9114  228.8757 H   0  0  0  0  0  0  0  0  0  0  0  0
  141.2781   71.2817  228.9711 H   0  0  0  0  0  0  0  0  0  0  0  0
  141.2439   72.6436  226.9070 H   0  0  0  0  0  0  0  0  0  0  0  0
  1  2  2  0
  2  3  1  0
  3  4  1  0
  4  5  1  0
  5  6  2  0
  5  7  1  0
  7  8  1  0
  8  9  1  0
  9 10  1  0
 10 11  1  0
 11 12  1  0
 12 13  1  0
 13 14  1  0
 14 15  1  0
 15 16  1  0
 16 17  1  0
  2 18  1  0
 18 19  2  0
 19 20  1  0
 20 21  2  0
 21 22  1  0
 22 23  2  0
 23 24  1  0
 24 25  2  0
 25 26  1  0
 26 27  2  0
 12  7  1  0
 17 13  1  0
 27 18  1  0
 26 21  1  0
  3 28  1  0
  4 29  1  0
  4 30  1  0
  8 31  1  0
  8 32  1  0
  9 33  1  0
  9 34  1  0
 10 35  1  0
 10 36  1  0
 11 37  1  0
 11 38  1  0
 12 39  1  1
 13 40  1  0
 14 41  1  0
 14 42  1  0
 15 43  1  0
 15 44  1  0
 16 45  1  0
 16 46  1  0
 17 47  1  0
 17 48  1  0
 19 49  1  0
 20 50  1  0
 22 51  1  0
 23 52  1  0
 24 53  1  0
 25 54  1  0
M  END
>  <smiles>  (97) 
O=C(NCC(=O)N1CCCCC1C1CCCC1)c1ccc2ccccc2n1

>  <score_type>  (97) 
oracle

>  <origin>  (97) 
autodockgpu

>  <m_score__min__energy>  (97) 
-9.0199999999999996

>  <m_primary>  (97) 
energy

>  <rmsd>  (97) 
1.9268647131213206

>  <m_score__min__rmsd>  (97) 
1.9268647131213206

>  <meeko>  (97) 
{"free_energy": -8.5, "intermolecular_energy": -9.99, "internal_energy": -1.74, "cluster_size": 33, "cluster_id": 1, "rank_in_cluster": 32}

>  <energy>  (97) 
-8.49

>  <cluster_rmsd>  (97) 
0.29

>  <cluster>  (97) 
3

$$$$

     RDKit          3D

 54 57  0  0  0  0  0  0  0  0999 V2000
  141.0640   71.6270  221.3900 O   0  0  0  0  0  0  0  0  0  0  0  0
  140.4390   72.1700  222.3630 C   0  0  0  0  0  0  0  0  0  0  0  0
  139.9460   73.5060  222.2760 N   0  0  0  0  0  0  0  0  0  0  0  0
  140.1420   74.2890  221.0710 C   0  0  0  0  0  0  0  0  0  0  0  0
  141.1450   75.3490  221.2570 C   0  0  0  0  0  0  0  0  0  0  0  0
  141.1160   76.0110  222.3270 O   0  0  0  0  0  0  0  0  0  0  0  0
  142.0880   75.5670  220.2200 N   0  0  0  0  0  0  0  0  0  0  0  0
  142.3940   76.8920  219.6920 C   0  0  0  0  0  0  0  0  0  0  0  0
  141.9980   76.8480  218.2440 C   0  0  0  0  0  0  0  0  0  0  0  0
  142.9010   75.8580  217.5430 C   0  0  0  0  0  0  0  0  0  0  0  0
  143.7010   75.0170  218.4940 C   0  0  0  0  0  0  0  0  0  0  0  0
  142.8320   74.4620  219.5960 C   0  0  1  0  0  0  0  0  0  0  0  0
  143.6170   73.6780  220.5810 C   0  0  0  0  0  0  0  0  0  0  0  0
  145.0080   74.1640  220.8040 C   0  0  0  0  0  0  0  0  0  0  0  0
  145.9410   73.0190  220.3980 C   0  0  0  0  0  0  0  0  0  0  0  0
  145.1100   72.0050  219.6780 C   0  0  0  0  0  0  0  0  0  0  0  0
  143.6900   72.2550  220.1240 C   0  0  0  0  0  0  0  0  0  0  0  0
  140.2270   71.4070  223.5880 C   0  0  0  0  0  0  0  0  0  0  0  0
  139.5590   70.2050  223.5560 C   0  0  0  0  0  0  0  0  0  0  0  0
  139.3510   69.4700  224.7270 C   0  0  0  0  0  0  0  0  0  0  0  0
  139.8380   69.9800  225.9300 C   0  0  0  0  0  0  0  0  0  0  0  0
  139.6770   69.3190  227.1290 C   0  0  0  0  0  0  0  0  0  0  0  0
  140.1620   69.8310  228.3160 C   0  0  0  0  0  0  0  0  0  0  0  0
  140.8300   71.0430  228.3110 C   0  0  0  0  0  0  0  0  0  0  0  0
  140.9910   71.7030  227.1110 C   0  0  0  0  0  0  0  0  0  0  0  0
  140.5070   71.1930  225.9240 C   0  0  0  0  0  0  0  0  0  0  0  0
  140.6880   71.8760  224.7730 N   0  0  0  0  0  0  0  0  0  0  0  0
  139.4400   73.8800  223.1250 H   0  0  0  0  0  0  0  0  0  0  0  0
  140.4776   73.6207  220.2644 H   0  0  0  0  0  0  0  0  0  0  0  0
  139.1847   74.7688  220.8193 H   0  0  0  0  0  0  0  0  0  0  0  0
  141.8163   77.6612  220.2254 H   0  0  0  0  0  0  0  0  0  0  0  0
  143.4570   77.1456  219.8169 H   0  0  0  0  0  0  0  0  0  0  0  0
  140.9499   76.5267  218.1531 H   0  0  0  0  0  0  0  0  0  0  0  0
  142.0980   77.8449  217.7898 H   0  0  0  0  0  0  0  0  0  0  0  0
  142.2793   75.1932  216.9253 H   0  0  0  0  0  0  0  0  0  0  0  0
  143.6136   76.4358  216.9361 H   0  0  0  0  0  0  0  0  0  0  0  0
  144.1547   74.1820  217.9400 H   0  0  0  0  0  0  0  0  0  0  0  0
  144.4782   75.6490  218.9484 H   0  0  0  0  0  0  0  0  0  0  0  0
  142.1111   73.7515  219.1653 H   0  0  0  0  0  0  0  0  0  0  0  0
  143.0877   73.7906  221.5387 H   0  0  0  0  0  0  0  0  0  0  0  0
  145.2041   75.0515  220.1843 H   0  0  0  0  0  0  0  0  0  0  0  0
  145.1649   74.4506  221.8544 H   0  0  0  0  0  0  0  0  0  0  0  0
  146.7337   73.3959  219.7350 H   0  0  0  0  0  0  0  0  0  0  0  0
  146.4204   72.5739  221.2823 H   0  0  0  0  0  0  0  0  0  0  0  0
  145.1998   72.1375  218.5897 H   0  0  0  0  0  0  0  0  0  0  0  0
  145.4334   70.9782  219.9043 H   0  0  0  0  0  0  0  0  0  0  0  0
  142.9968   72.0918  219.2856 H   0  0  0  0  0  0  0  0  0  0  0  0
  143.4075   71.5680  220.9353 H   0  0  0  0  0  0  0  0  0  0  0  0
  139.1839   69.8173  222.5974 H   0  0  0  0  0  0  0  0  0  0  0  0
  138.8147   68.5100  224.6999 H   0  0  0  0  0  0  0  0  0  0  0  0
  139.1466   68.3554  227.1404 H   0  0  0  0  0  0  0  0  0  0  0  0
  140.0187   69.2804  229.2574 H   0  0  0  0  0  0  0  0  0  0  0  0
  141.2242   71.4708  229.2446 H   0  0  0  0  0  0  0  0  0  0  0  0
  141.5220   72.6663  227.0998 H   0  0  0  0  0  0  0  0  0  0  0  0
  1  2  2  0
  2  3  1  0
  3  4  1  0
  4  5  1  0
  5  6  2  0
  5  7  1  0
  7  8  1  0
  8  9  1  0
  9 10  1  0
 10 11  1  0
 11 12  1  0
 12 13  1  0
 13 14  1  0
 14 15  1  0
 15 16  1  0
 16 17  1  0
  2 18  1  0
 18 19  2  0
 19 20  1  0
 20 21  2  0
 21 22  1  0
 22 23  2  0
 23 24  1  0
 24 25  2  0
 25 26  1  0
 26 27  2  0
 12  7  1  0
 17 13  1  0
 27 18  1  0
 26 21  1  0
  3 28  1  0
  4 29  1  0
  4 30  1  0
  8 31  1  0
  8 32  1  0
  9 33  1  0
  9 34  1  0
 10 35  1  0
 10 36  1  0
 11 37  1  0
 11 38  1  0
 12 39  1  6
 13 40  1  0
 14 41  1  0
 14 42  1  0
 15 43  1  0
 15 44  1  0
 16 45  1  0
 16 46  1  0
 17 47  1  0
 17 48  1  0
 19 49  1  0
 20 50  1  0
 22 51  1  0
 23 52  1  0
 24 53  1  0
 25 54  1  0
M  END
>  <smiles>  (98) 
O=C(NCC(=O)N1CCCCC1C1CCCC1)c1ccc2ccccc2n1

>  <score_type>  (98) 
oracle

>  <origin>  (98) 
autodockgpu

>  <m_score__min__energy>  (98) 
-9.0199999999999996

>  <m_primary>  (98) 
energy

>  <rmsd>  (98) 
2.455706765585651

>  <m_score__min__rmsd>  (98) 
2.455706765585651

>  <meeko>  (98) 
{"free_energy": -8.55, "intermolecular_energy": -10.04, "internal_energy": -1.8, "cluster_size": 8, "cluster_id": 3, "rank_in_cluster": 1}

>  <energy>  (98) 
-8.47

>  <cluster_rmsd>  (98) 
0.31

>  <cluster>  (98) 
3

$$$$

     RDKit          3D

 54 57  0  0  0  0  0  0  0  0999 V2000
  141.3940   72.1110  221.4530 O   0  0  0  0  0  0  0  0  0  0  0  0
  140.5780   72.4810  222.3630 C   0  0  0  0  0  0  0  0  0  0  0  0
  139.9430   73.7580  222.3170 N   0  0  0  0  0  0  0  0  0  0  0  0
  140.2110   74.6780  221.2280 C   0  0  0  0  0  0  0  0  0  0  0  0
  139.8790   76.0660  221.5810 C   0  0  0  0  0  0  0  0  0  0  0  0
  139.1460   76.2630  222.5860 O   0  0  0  0  0  0  0  0  0  0  0  0
  140.4000   77.1070  220.7700 N   0  0  0  0  0  0  0  0  0  0  0  0
  140.0240   77.2890  219.3730 C   0  0  0  0  0  0  0  0  0  0  0  0
  141.2930   77.1160  218.5890 C   0  0  0  0  0  0  0  0  0  0  0  0
  142.2270   78.2450  218.9600 C   0  0  0  0  0  0  0  0  0  0  0  0
  141.7710   79.0140  220.1650 C   0  0  0  0  0  0  0  0  0  0  0  0
  141.3690   78.0860  221.2860 C   0  0  1  0  0  0  0  0  0  0  0  0
  140.8570   78.8270  222.4640 C   0  0  0  0  0  0  0  0  0  0  0  0
  140.5880   80.2740  222.2260 C   0  0  0  0  0  0  0  0  0  0  0  0
  141.5010   81.0500  223.1790 C   0  0  0  0  0  0  0  0  0  0  0  0
  142.4860   80.0750  223.7410 C   0  0  0  0  0  0  0  0  0  0  0  0
  141.8490   78.7160  223.5790 C   0  0  0  0  0  0  0  0  0  0  0  0
  140.2890   71.5780  223.4720 C   0  0  0  0  0  0  0  0  0  0  0  0
  139.6100   70.4020  223.2560 C   0  0  0  0  0  0  0  0  0  0  0  0
  139.3290   69.5320  224.3150 C   0  0  0  0  0  0  0  0  0  0  0  0
  139.7550   69.8830  225.5970 C   0  0  0  0  0  0  0  0  0  0  0  0
  139.5200   69.0830  226.6940 C   0  0  0  0  0  0  0  0  0  0  0  0
  139.9450   69.4370  227.9590 C   0  0  0  0  0  0  0  0  0  0  0  0
  140.6270   70.6280  228.1390 C   0  0  0  0  0  0  0  0  0  0  0  0
  140.8610   71.4270  227.0400 C   0  0  0  0  0  0  0  0  0  0  0  0
  140.4370   71.0750  225.7760 C   0  0  0  0  0  0  0  0  0  0  0  0
  140.6890   71.8900  224.7280 N   0  0  0  0  0  0  0  0  0  0  0  0
  139.2810   73.9870  223.1090 H   0  0  0  0  0  0  0  0  0  0  0  0
  141.2795   74.6231  220.9723 H   0  0  0  0  0  0  0  0  0  0  0  0
  139.5806   74.3857  220.3753 H   0  0  0  0  0  0  0  0  0  0  0  0
  139.2815   76.5347  219.0735 H   0  0  0  0  0  0  0  0  0  0  0  0
  139.5683   78.2749  219.1986 H   0  0  0  0  0  0  0  0  0  0  0  0
  141.7571   76.1502  218.8378 H   0  0  0  0  0  0  0  0  0  0  0  0
  141.0815   77.1332  217.5097 H   0  0  0  0  0  0  0  0  0  0  0  0
  143.2208   77.8227  219.1697 H   0  0  0  0  0  0  0  0  0  0  0  0
  142.2478   78.9456  218.1122 H   0  0  0  0  0  0  0  0  0  0  0  0
  142.5921   79.6592  220.5106 H   0  0  0  0  0  0  0  0  0  0  0  0
  140.8958   79.6174  219.8820 H   0  0  0  0  0  0  0  0  0  0  0  0
  142.2571   77.5458  221.6458 H   0  0  0  0  0  0  0  0  0  0  0  0
  139.8898   78.3635  222.7082 H   0  0  0  0  0  0  0  0  0  0  0  0
  140.8174   80.5363  221.1826 H   0  0  0  0  0  0  0  0  0  0  0  0
  139.5299   80.5159  222.4047 H   0  0  0  0  0  0  0  0  0  0  0  0
  142.0284   81.8451  222.6316 H   0  0  0  0  0  0  0  0  0  0  0  0
  140.9160   81.5208  223.9828 H   0  0  0  0  0  0  0  0  0  0  0  0
  143.4341   80.1234  223.1853 H   0  0  0  0  0  0  0  0  0  0  0  0
  142.7189   80.2926  224.7938 H   0  0  0  0  0  0  0  0  0  0  0  0
  142.6152   77.9671  223.3296 H   0  0  0  0  0  0  0  0  0  0  0  0
  141.3578   78.3994  224.5109 H   0  0  0  0  0  0  0  0  0  0  0  0
  139.2838   70.1421  222.2381 H   0  0  0  0  0  0  0  0  0  0  0  0
  138.7844   68.5922  224.1412 H   0  0  0  0  0  0  0  0  0  0  0  0
  138.9784   68.1353  226.5580 H   0  0  0  0  0  0  0  0  0  0  0  0
  139.7434   68.7782  228.8165 H   0  0  0  0  0  0  0  0  0  0  0  0
  140.9749   70.9306  229.1377 H   0  0  0  0  0  0  0  0  0  0  0  0
  141.4027   72.3747  227.1757 H   0  0  0  0  0  0  0  0  0  0  0  0
  1  2  2  0
  2  3  1  0
  3  4  1  0
  4  5  1  0
  5  6  2  0
  5  7  1  0
  7  8  1  0
  8  9  1  0
  9 10  1  0
 10 11  1  0
 11 12  1  0
 12 13  1  0
 13 14  1  0
 14 15  1  0
 15 16  1  0
 16 17  1  0
  2 18  1  0
 18 19  2  0
 19 20  1  0
 20 21  2  0
 21 22  1  0
 22 23  2  0
 23 24  1  0
 24 25  2  0
 25 26  1  0
 26 27  2  0
 12  7  1  0
 17 13  1  0
 27 18  1  0
 26 21  1  0
  3 28  1  0
  4 29  1  0
  4 30  1  0
  8 31  1  0
  8 32  1  0
  9 33  1  0
  9 34  1  0
 10 35  1  0
 10 36  1  0
 11 37  1  0
 11 38  1  0
 12 39  1  1
 13 40  1  0
 14 41  1  0
 14 42  1  0
 15 43  1  0
 15 44  1  0
 16 45  1  0
 16 46  1  0
 17 47  1  0
 17 48  1  0
 19 49  1  0
 20 50  1  0
 22 51  1  0
 23 52  1  0
 24 53  1  0
 25 54  1  0
M  END
>  <smiles>  (99) 
O=C(NCC(=O)N1CCCCC1C1CCCC1)c1ccc2ccccc2n1

>  <score_type>  (99) 
oracle

>  <origin>  (99) 
autodockgpu

>  <m_score__min__energy>  (99) 
-9.0199999999999996

>  <m_primary>  (99) 
energy

>  <rmsd>  (99) 
2.0693528750339847

>  <m_score__min__rmsd>  (99) 
2.0693528750339847

>  <meeko>  (99) 
{"free_energy": -8.74, "intermolecular_energy": -10.23, "internal_energy": -1.72, "cluster_size": 33, "cluster_id": 1, "rank_in_cluster": 18}

>  <energy>  (99) 
-8.47

>  <cluster_rmsd>  (99) 
0.43

>  <cluster>  (99) 
3

$$$$

     RDKit          3D

 54 57  0  0  0  0  0  0  0  0999 V2000
  141.4690   72.2690  221.5950 O   0  0  0  0  0  0  0  0  0  0  0  0
  140.5450   72.5350  222.4370 C   0  0  0  0  0  0  0  0  0  0  0  0
  139.7700   73.7290  222.3370 N   0  0  0  0  0  0  0  0  0  0  0  0
  140.0110   74.6790  221.2680 C   0  0  0  0  0  0  0  0  0  0  0  0
  139.7400   76.0630  221.6860 C   0  0  0  0  0  0  0  0  0  0  0  0
  139.0030   76.2440  222.6900 O   0  0  0  0  0  0  0  0  0  0  0  0
  140.3220   77.1160  220.9340 N   0  0  0  0  0  0  0  0  0  0  0  0
  139.9190   77.4330  219.5690 C   0  0  0  0  0  0  0  0  0  0  0  0
  141.1440   77.2170  218.7280 C   0  0  0  0  0  0  0  0  0  0  0  0
  142.1810   78.2350  219.1450 C   0  0  0  0  0  0  0  0  0  0  0  0
  141.8290   78.9450  220.4190 C   0  0  0  0  0  0  0  0  0  0  0  0
  141.3850   77.9710  221.4830 C   0  0  1  0  0  0  0  0  0  0  0  0
  140.9740   78.6590  222.7310 C   0  0  0  0  0  0  0  0  0  0  0  0
  140.1940   79.9130  222.5270 C   0  0  0  0  0  0  0  0  0  0  0  0
  141.0120   81.0440  223.1580 C   0  0  0  0  0  0  0  0  0  0  0  0
  142.3710   80.4940  223.4570 C   0  0  0  0  0  0  0  0  0  0  0  0
  142.1950   78.9960  223.5270 C   0  0  0  0  0  0  0  0  0  0  0  0
  140.2800   71.5980  223.5240 C   0  0  0  0  0  0  0  0  0  0  0  0
  139.6080   70.4220  223.2840 C   0  0  0  0  0  0  0  0  0  0  0  0
  139.3500   69.5210  224.3210 C   0  0  0  0  0  0  0  0  0  0  0  0
  139.7890   69.8390  225.6060 C   0  0  0  0  0  0  0  0  0  0  0  0
  139.5760   69.0060  226.6840 C   0  0  0  0  0  0  0  0  0  0  0  0
  140.0130   69.3280  227.9530 C   0  0  0  0  0  0  0  0  0  0  0  0
  140.6860   70.5210  228.1570 C   0  0  0  0  0  0  0  0  0  0  0  0
  140.8990   71.3520  227.0780 C   0  0  0  0  0  0  0  0  0  0  0  0
  140.4620   71.0320  225.8100 C   0  0  0  0  0  0  0  0  0  0  0  0
  140.6930   71.8790  224.7830 N   0  0  0  0  0  0  0  0  0  0  0  0
  139.0250   73.8740  223.0730 H   0  0  0  0  0  0  0  0  0  0  0  0
  141.0630   74.6023  220.9559 H   0  0  0  0  0  0  0  0  0  0  0  0
  139.3299   74.4360  220.4391 H   0  0  0  0  0  0  0  0  0  0  0  0
  139.1069   76.7664  219.2434 H   0  0  0  0  0  0  0  0  0  0  0  0
  139.5422   78.4629  219.4838 H   0  0  0  0  0  0  0  0  0  0  0  0
  141.5328   76.2006  218.8885 H   0  0  0  0  0  0  0  0  0  0  0  0
  140.9012   77.3330  217.6614 H   0  0  0  0  0  0  0  0  0  0  0  0
  143.1419   77.7185  219.2860 H   0  0  0  0  0  0  0  0  0  0  0  0
  142.2342   78.9937  218.3503 H   0  0  0  0  0  0  0  0  0  0  0  0
  142.7120   79.4927  220.7801 H   0  0  0  0  0  0  0  0  0  0  0  0
  140.9996   79.6377  220.2135 H   0  0  0  0  0  0  0  0  0  0  0  0
  142.2357   77.3348  221.7685 H   0  0  0  0  0  0  0  0  0  0  0  0
  140.3082   77.9553  223.2521 H   0  0  0  0  0  0  0  0  0  0  0  0
  140.0518   80.1011  221.4526 H   0  0  0  0  0  0  0  0  0  0  0  0
  139.1973   79.8398  222.9867 H   0  0  0  0  0  0  0  0  0  0  0  0
  141.0928   81.8873  222.4564 H   0  0  0  0  0  0  0  0  0  0  0  0
  140.5286   81.4103  224.0757 H   0  0  0  0  0  0  0  0  0  0  0  0
  143.0779   80.7609  222.6576 H   0  0  0  0  0  0  0  0  0  0  0  0
  142.7781   80.9008  224.3945 H   0  0  0  0  0  0  0  0  0  0  0  0
  143.0748   78.4923  223.0999 H   0  0  0  0  0  0  0  0  0  0  0  0
  142.0870   78.6627  224.5697 H   0  0  0  0  0  0  0  0  0  0  0  0
  139.2696   70.1879  222.2639 H   0  0  0  0  0  0  0  0  0  0  0  0
  138.8122   68.5811  224.1277 H   0  0  0  0  0  0  0  0  0  0  0  0
  139.0421   68.0570  226.5280 H   0  0  0  0  0  0  0  0  0  0  0  0
  139.8285   68.6436  228.7942 H   0  0  0  0  0  0  0  0  0  0  0  0
  141.0432   70.7997  229.1593 H   0  0  0  0  0  0  0  0  0  0  0  0
  141.4344   72.3002  227.2334 H   0  0  0  0  0  0  0  0  0  0  0  0
  1  2  2  0
  2  3  1  0
  3  4  1  0
  4  5  1  0
  5  6  2  0
  5  7  1  0
  7  8  1  0
  8  9  1  0
  9 10  1  0
 10 11  1  0
 11 12  1  0
 12 13  1  0
 13 14  1  0
 14 15  1  0
 15 16  1  0
 16 17  1  0
  2 18  1  0
 18 19  2  0
 19 20  1  0
 20 21  2  0
 21 22  1  0
 22 23  2  0
 23 24  1  0
 24 25  2  0
 25 26  1  0
 26 27  2  0
 12  7  1  0
 17 13  1  0
 27 18  1  0
 26 21  1  0
  3 28  1  0
  4 29  1  0
  4 30  1  0
  8 31  1  0
  8 32  1  0
  9 33  1  0
  9 34  1  0
 10 35  1  0
 10 36  1  0
 11 37  1  0
 11 38  1  0
 12 39  1  1
 13 40  1  0
 14 41  1  0
 14 42  1  0
 15 43  1  0
 15 44  1  0
 16 45  1  0
 16 46  1  0
 17 47  1  0
 17 48  1  0
 19 49  1  0
 20 50  1  0
 22 51  1  0
 23 52  1  0
 24 53  1  0
 25 54  1  0
M  END
>  <smiles>  (100) 
O=C(NCC(=O)N1CCCCC1C1CCCC1)c1ccc2ccccc2n1

>  <score_type>  (100) 
oracle

>  <origin>  (100) 
autodockgpu

>  <m_score__min__energy>  (100) 
-9.0199999999999996

>  <m_primary>  (100) 
energy

>  <rmsd>  (100) 
2.109050020843094

>  <m_score__min__rmsd>  (100) 
2.109050020843094

>  <meeko>  (100) 
{"free_energy": -8.76, "intermolecular_energy": -10.25, "internal_energy": -1.64, "cluster_size": 33, "cluster_id": 1, "rank_in_cluster": 14}

>  <energy>  (100) 
-7.84

>  <cluster_rmsd>  (100) 
0.0

>  <cluster>  (100) 
4

$$$$
