
     RDKit          3D

 47 49  0  0  0  0  0  0  0  0999 V2000
  139.6120   68.6970  228.1640 C   0  0  0  0  0  0  0  0  0  0  0  0
  140.1970   69.9340  227.5910 C   0  0  0  0  0  0  0  0  0  0  0  0
  140.9050   70.8530  228.3610 C   0  0  0  0  0  0  0  0  0  0  0  0
  141.4490   72.0020  227.8270 C   0  0  0  0  0  0  0  0  0  0  0  0
  141.2870   72.2580  226.4800 C   0  0  0  0  0  0  0  0  0  0  0  0
  140.5840   71.3480  225.7080 C   0  0  0  0  0  0  0  0  0  0  0  0
  140.0340   70.1930  226.2260 C   0  0  0  0  0  0  0  0  0  0  0  0
  139.2880   69.2370  225.3870 C   0  0  2  0  0  0  0  0  0  0  0  0
  139.8850   67.8530  225.3710 C   0  0  0  0  0  0  0  0  0  0  0  0
  139.2820   69.7320  224.0240 N   0  0  0  0  0  0  0  0  0  0  0  0
  138.3330   70.7390  223.6310 C   0  0  0  0  0  0  0  0  0  0  0  0
  137.4920   71.2020  224.4720 O   0  0  0  0  0  0  0  0  0  0  0  0
  138.3390   71.2380  222.2270 C   0  0  0  0  0  0  0  0  0  0  0  0
  138.6800   72.6420  222.2500 N   0  0  0  0  0  0  0  0  0  0  0  0
  139.8400   73.0340  221.5120 C   0  0  0  0  0  0  0  0  0  0  0  0
  140.4460   72.0870  220.9130 O   0  0  0  0  0  0  0  0  0  0  0  0
  140.2940   74.4090  221.4500 C   0  0  0  0  0  0  0  0  0  0  0  0
  141.3650   74.6970  220.6450 C   0  0  0  0  0  0  0  0  0  0  0  0
  141.8880   75.9680  220.5050 C   0  0  0  0  0  0  0  0  0  0  0  0
  141.2910   76.9820  221.2160 C   0  0  0  0  0  0  0  0  0  0  0  0
  141.7850   78.2460  221.0970 C   0  0  0  0  0  0  0  0  0  0  0  0
  141.1650   79.2610  221.8250 C   0  0  0  0  0  0  0  0  0  0  0  0
  141.8140   80.8810  221.6600 Cl  0  0  0  0  0  0  0  0  0  0  0  0
  140.0880   79.0070  222.6420 C   0  0  0  0  0  0  0  0  0  0  0  0
  139.6340   77.7080  222.7200 C   0  0  0  0  0  0  0  0  0  0  0  0
  140.1990   76.6650  222.0300 C   0  0  0  0  0  0  0  0  0  0  0  0
  139.7320   75.4140  222.1310 N   0  0  0  0  0  0  0  0  0  0  0  0
  139.6387   68.7534  229.2622 H   0  0  0  0  0  0  0  0  0  0  0  0
  138.5699   68.5942  227.8273 H   0  0  0  0  0  0  0  0  0  0  0  0
  140.1937   67.8262  227.8273 H   0  0  0  0  0  0  0  0  0  0  0  0
  141.0352   70.6551  229.4352 H   0  0  0  0  0  0  0  0  0  0  0  0
  142.0044   72.7049  228.4653 H   0  0  0  0  0  0  0  0  0  0  0  0
  141.7085   73.1680  226.0282 H   0  0  0  0  0  0  0  0  0  0  0  0
  140.4585   71.5549  224.6349 H   0  0  0  0  0  0  0  0  0  0  0  0
  138.2783   69.1566  225.8161 H   0  0  0  0  0  0  0  0  0  0  0  0
  140.0346   67.5062  226.4041 H   0  0  0  0  0  0  0  0  0  0  0  0
  139.2033   67.1656  224.8486 H   0  0  0  0  0  0  0  0  0  0  0  0
  140.8527   67.8771  224.8486 H   0  0  0  0  0  0  0  0  0  0  0  0
  139.9380   69.4010  223.2830 H   0  0  0  0  0  0  0  0  0  0  0  0
  139.0838   70.6832  221.6375 H   0  0  0  0  0  0  0  0  0  0  0  0
  137.3500   71.0940  221.7676 H   0  0  0  0  0  0  0  0  0  0  0  0
  138.1380   73.3630  222.7620 H   0  0  0  0  0  0  0  0  0  0  0  0
  141.8316   73.8751  220.0822 H   0  0  0  0  0  0  0  0  0  0  0  0
  142.7497   76.1614  219.8493 H   0  0  0  0  0  0  0  0  0  0  0  0
  142.6463   78.4594  220.4468 H   0  0  0  0  0  0  0  0  0  0  0  0
  139.6054   79.8133  223.2138 H   0  0  0  0  0  0  0  0  0  0  0  0
  138.7725   77.4959  223.3703 H   0  0  0  0  0  0  0  0  0  0  0  0
  1  2  1  0
  2  3  2  0
  3  4  1  0
  4  5  2  0
  5  6  1  0
  6  7  2  0
  7  8  1  0
  8  9  1  0
  8 10  1  0
 10 11  1  0
 11 12  2  0
 11 13  1  0
 13 14  1  0
 14 15  1  0
 15 16  2  0
 15 17  1  0
 17 18  2  0
 18 19  1  0
 19 20  2  0
 20 21  1  0
 21 22  2  0
 22 23  1  0
 22 24  1  0
 24 25  2  0
 25 26  1  0
 26 27  2  0
  7  2  1  0
 27 17  1  0
 26 20  1  0
  1 28  1  0
  1 29  1  0
  1 30  1  0
  3 31  1  0
  4 32  1  0
  5 33  1  0
  6 34  1  0
  8 35  1  1
  9 36  1  0
  9 37  1  0
  9 38  1  0
 10 39  1  0
 13 40  1  0
 13 41  1  0
 14 42  1  0
 18 43  1  0
 19 44  1  0
 21 45  1  0
 24 46  1  0
 25 47  1  0
M  END
>  <smiles>  (1) 
Cc1ccccc1[C@H](C)NC(=O)CNC(=O)c1ccc2cc(Cl)ccc2n1

>  <score_type>  (1) 
oracle

>  <origin>  (1) 
autodockgpu

>  <m_score__min__energy>  (1) 
-8.6600000000000001

>  <m_primary>  (1) 
energy

>  <rmsd>  (1) 
9.896158431732996

>  <m_score__min__rmsd>  (1) 
9.896158431732996

>  <meeko>  (1) 
{"free_energy": -8.45, "intermolecular_energy": -9.94, "internal_energy": -1.18, "cluster_size": 20, "cluster_id": 3, "rank_in_cluster": 1}

>  <energy>  (1) 
-8.66

>  <cluster_rmsd>  (1) 
0.0

>  <cluster>  (1) 
1

$$$$

     RDKit          3D

 47 49  0  0  0  0  0  0  0  0999 V2000
  139.2010   69.5390  228.7410 C   0  0  0  0  0  0  0  0  0  0  0  0
  140.1050   70.3660  227.9060 C   0  0  0  0  0  0  0  0  0  0  0  0
  140.6930   71.5380  228.3740 C   0  0  0  0  0  0  0  0  0  0  0  0
  141.5340   72.3060  227.5950 C   0  0  0  0  0  0  0  0  0  0  0  0
  141.8060   71.9040  226.3030 C   0  0  0  0  0  0  0  0  0  0  0  0
  141.2240   70.7380  225.8310 C   0  0  0  0  0  0  0  0  0  0  0  0
  140.3810   69.9580  226.5960 C   0  0  0  0  0  0  0  0  0  0  0  0
  139.7720   68.7220  226.0750 C   0  0  2  0  0  0  0  0  0  0  0  0
  140.6910   67.5280  226.1220 C   0  0  0  0  0  0  0  0  0  0  0  0
  139.4040   68.9420  224.6890 N   0  0  0  0  0  0  0  0  0  0  0  0
  138.1230   69.5120  224.3680 C   0  0  0  0  0  0  0  0  0  0  0  0
  137.3030   69.8270  225.2950 O   0  0  0  0  0  0  0  0  0  0  0  0
  137.7600   69.7330  222.9410 C   0  0  0  0  0  0  0  0  0  0  0  0
  138.1380   71.0810  222.5830 N   0  0  0  0  0  0  0  0  0  0  0  0
  139.5300   71.3190  222.3590 C   0  0  0  0  0  0  0  0  0  0  0  0
  140.2840   70.3020  222.5030 O   0  0  0  0  0  0  0  0  0  0  0  0
  140.0470   72.6230  221.9940 C   0  0  0  0  0  0  0  0  0  0  0  0
  141.1880   72.6750  221.2370 C   0  0  0  0  0  0  0  0  0  0  0  0
  141.7740   73.8570  220.8290 C   0  0  0  0  0  0  0  0  0  0  0  0
  141.1680   75.0310  221.2110 C   0  0  0  0  0  0  0  0  0  0  0  0
  141.7240   76.2130  220.8230 C   0  0  0  0  0  0  0  0  0  0  0  0
  141.0940   77.3920  221.2200 C   0  0  0  0  0  0  0  0  0  0  0  0
  141.8240   78.9030  220.7110 Cl  0  0  0  0  0  0  0  0  0  0  0  0
  139.9480   77.3770  221.9790 C   0  0  0  0  0  0  0  0  0  0  0  0
  139.4340   76.1500  222.3400 C   0  0  0  0  0  0  0  0  0  0  0  0
  140.0040   74.9550  221.9830 C   0  0  0  0  0  0  0  0  0  0  0  0
  139.4770   73.7800  222.3530 N   0  0  0  0  0  0  0  0  0  0  0  0
  139.4084   69.7287  229.8045 H   0  0  0  0  0  0  0  0  0  0  0  0
  138.1557   69.8000  228.5190 H   0  0  0  0  0  0  0  0  0  0  0  0
  139.3682   68.4747  228.5190 H   0  0  0  0  0  0  0  0  0  0  0  0
  140.4792   71.8638  229.4027 H   0  0  0  0  0  0  0  0  0  0  0  0
  141.9817   73.2263  227.9983 H   0  0  0  0  0  0  0  0  0  0  0  0
  142.4722   72.4978  225.6599 H   0  0  0  0  0  0  0  0  0  0  0  0
  141.4438   70.4203  224.8011 H   0  0  0  0  0  0  0  0  0  0  0  0
  138.9068   68.4986  226.7165 H   0  0  0  0  0  0  0  0  0  0  0  0
  140.8948   67.2632  227.1700 H   0  0  0  0  0  0  0  0  0  0  0  0
  140.2127   66.6770  225.6151 H   0  0  0  0  0  0  0  0  0  0  0  0
  141.6361   67.7726  225.6151 H   0  0  0  0  0  0  0  0  0  0  0  0
  140.0220   68.7100  223.8800 H   0  0  0  0  0  0  0  0  0  0  0  0
  138.2968   69.0142  222.3045 H   0  0  0  0  0  0  0  0  0  0  0  0
  136.6788   69.5905  222.7973 H   0  0  0  0  0  0  0  0  0  0  0  0
  137.4670   71.8650  222.4830 H   0  0  0  0  0  0  0  0  0  0  0  0
  141.6610   71.7275  220.9393 H   0  0  0  0  0  0  0  0  0  0  0  0
  142.6909   73.8594  220.2214 H   0  0  0  0  0  0  0  0  0  0  0  0
  142.6409   76.2364  220.2158 H   0  0  0  0  0  0  0  0  0  0  0  0
  139.4579   78.3121  222.2877 H   0  0  0  0  0  0  0  0  0  0  0  0
  138.5171   76.1283  222.9472 H   0  0  0  0  0  0  0  0  0  0  0  0
  1  2  1  0
  2  3  2  0
  3  4  1  0
  4  5  2  0
  5  6  1  0
  6  7  2  0
  7  8  1  0
  8  9  1  0
  8 10  1  0
 10 11  1  0
 11 12  2  0
 11 13  1  0
 13 14  1  0
 14 15  1  0
 15 16  2  0
 15 17  1  0
 17 18  2  0
 18 19  1  0
 19 20  2  0
 20 21  1  0
 21 22  2  0
 22 23  1  0
 22 24  1  0
 24 25  2  0
 25 26  1  0
 26 27  2  0
  7  2  1  0
 27 17  1  0
 26 20  1  0
  1 28  1  0
  1 29  1  0
  1 30  1  0
  3 31  1  0
  4 32  1  0
  5 33  1  0
  6 34  1  0
  8 35  1  1
  9 36  1  0
  9 37  1  0
  9 38  1  0
 10 39  1  0
 13 40  1  0
 13 41  1  0
 14 42  1  0
 18 43  1  0
 19 44  1  0
 21 45  1  0
 24 46  1  0
 25 47  1  0
M  END
>  <smiles>  (2) 
Cc1ccccc1[C@H](C)NC(=O)CNC(=O)c1ccc2cc(Cl)ccc2n1

>  <score_type>  (2) 
oracle

>  <origin>  (2) 
autodockgpu

>  <m_score__min__energy>  (2) 
-8.6600000000000001

>  <m_primary>  (2) 
energy

>  <rmsd>  (2) 
9.866665220596317

>  <m_score__min__rmsd>  (2) 
9.866665220596317

>  <meeko>  (2) 
{"free_energy": -7.92, "intermolecular_energy": -9.41, "internal_energy": -2.28, "cluster_size": 20, "cluster_id": 3, "rank_in_cluster": 10}

>  <energy>  (2) 
-8.6

>  <cluster_rmsd>  (2) 
0.24

>  <cluster>  (2) 
1

$$$$

     RDKit          3D

 47 49  0  0  0  0  0  0  0  0999 V2000
  139.6550   67.6830  226.8520 C   0  0  0  0  0  0  0  0  0  0  0  0
  140.0630   69.1090  226.8360 C   0  0  0  0  0  0  0  0  0  0  0  0
  140.5950   69.7480  227.9520 C   0  0  0  0  0  0  0  0  0  0  0  0
  140.9740   71.0740  227.9350 C   0  0  0  0  0  0  0  0  0  0  0  0
  140.8220   71.8010  226.7710 C   0  0  0  0  0  0  0  0  0  0  0  0
  140.2940   71.1710  225.6560 C   0  0  0  0  0  0  0  0  0  0  0  0
  139.9100   69.8450  225.6560 C   0  0  0  0  0  0  0  0  0  0  0  0
  139.3490   69.1930  224.4580 C   0  0  2  0  0  0  0  0  0  0  0  0
  139.5670   69.9740  223.1870 C   0  0  0  0  0  0  0  0  0  0  0  0
  137.9190   69.0440  224.6460 N   0  0  0  0  0  0  0  0  0  0  0  0
  137.0540   70.1840  224.5040 C   0  0  0  0  0  0  0  0  0  0  0  0
  137.5340   71.3310  224.2130 O   0  0  0  0  0  0  0  0  0  0  0  0
  135.5870   70.0160  224.7000 C   0  0  0  0  0  0  0  0  0  0  0  0
  135.0290   71.3020  225.0500 N   0  0  0  0  0  0  0  0  0  0  0  0
  134.0660   71.3180  226.1070 C   0  0  0  0  0  0  0  0  0  0  0  0
  133.8080   70.1820  226.6230 O   0  0  0  0  0  0  0  0  0  0  0  0
  133.4290   72.5390  226.5590 C   0  0  0  0  0  0  0  0  0  0  0  0
  132.2110   72.4370  227.1800 C   0  0  0  0  0  0  0  0  0  0  0  0
  131.5080   73.5280  227.6530 C   0  0  0  0  0  0  0  0  0  0  0  0
  132.0730   74.7700  227.4840 C   0  0  0  0  0  0  0  0  0  0  0  0
  131.4030   75.8650  227.9410 C   0  0  0  0  0  0  0  0  0  0  0  0
  131.9930   77.1150  227.7600 C   0  0  0  0  0  0  0  0  0  0  0  0
  131.1150   78.5110  228.3540 Cl  0  0  0  0  0  0  0  0  0  0  0  0
  133.2130   77.2530  227.1410 C   0  0  0  0  0  0  0  0  0  0  0  0
  133.8430   76.1090  226.7010 C   0  0  0  0  0  0  0  0  0  0  0  0
  133.3170   74.8500  226.8480 C   0  0  0  0  0  0  0  0  0  0  0  0
  133.9560   73.7590  226.4070 N   0  0  0  0  0  0  0  0  0  0  0  0
  139.5572   67.3413  227.8930 H   0  0  0  0  0  0  0  0  0  0  0  0
  138.6891   67.5722  226.3374 H   0  0  0  0  0  0  0  0  0  0  0  0
  140.4161   67.0781  226.3374 H   0  0  0  0  0  0  0  0  0  0  0  0
  140.7178   69.1741  228.8823 H   0  0  0  0  0  0  0  0  0  0  0  0
  141.3917   71.5460  228.8365 H   0  0  0  0  0  0  0  0  0  0  0  0
  141.1147   72.8605  226.7299 H   0  0  0  0  0  0  0  0  0  0  0  0
  140.1755   71.7528  224.7300 H   0  0  0  0  0  0  0  0  0  0  0  0
  139.8675   68.2292  224.3468 H   0  0  0  0  0  0  0  0  0  0  0  0
  139.8551   71.0061  223.4357 H   0  0  0  0  0  0  0  0  0  0  0  0
  140.3676   69.5014  222.5990 H   0  0  0  0  0  0  0  0  0  0  0  0
  138.6374   69.9844  222.5990 H   0  0  0  0  0  0  0  0  0  0  0  0
  137.4560   68.1400  224.8850 H   0  0  0  0  0  0  0  0  0  0  0  0
  135.1264   69.6506  223.7703 H   0  0  0  0  0  0  0  0  0  0  0  0
  135.3912   69.2861  225.4994 H   0  0  0  0  0  0  0  0  0  0  0  0
  135.2860   72.1920  224.5850 H   0  0  0  0  0  0  0  0  0  0  0  0
  131.7717   71.4367  227.3079 H   0  0  0  0  0  0  0  0  0  0  0  0
  130.5323   73.4076  228.1466 H   0  0  0  0  0  0  0  0  0  0  0  0
  130.4265   75.7656  228.4375 H   0  0  0  0  0  0  0  0  0  0  0  0
  133.6709   78.2434  227.0017 H   0  0  0  0  0  0  0  0  0  0  0  0
  134.8198   76.2105  226.2054 H   0  0  0  0  0  0  0  0  0  0  0  0
  1  2  1  0
  2  3  2  0
  3  4  1  0
  4  5  2  0
  5  6  1  0
  6  7  2  0
  7  8  1  0
  8  9  1  0
  8 10  1  0
 10 11  1  0
 11 12  2  0
 11 13  1  0
 13 14  1  0
 14 15  1  0
 15 16  2  0
 15 17  1  0
 17 18  2  0
 18 19  1  0
 19 20  2  0
 20 21  1  0
 21 22  2  0
 22 23  1  0
 22 24  1  0
 24 25  2  0
 25 26  1  0
 26 27  2  0
  7  2  1  0
 27 17  1  0
 26 20  1  0
  1 28  1  0
  1 29  1  0
  1 30  1  0
  3 31  1  0
  4 32  1  0
  5 33  1  0
  6 34  1  0
  8 35  1  6
  9 36  1  0
  9 37  1  0
  9 38  1  0
 10 39  1  0
 13 40  1  0
 13 41  1  0
 14 42  1  0
 18 43  1  0
 19 44  1  0
 21 45  1  0
 24 46  1  0
 25 47  1  0
M  END
>  <smiles>  (3) 
Cc1ccccc1[C@H](C)NC(=O)CNC(=O)c1ccc2cc(Cl)ccc2n1

>  <score_type>  (3) 
oracle

>  <origin>  (3) 
autodockgpu

>  <m_score__min__energy>  (3) 
-8.6600000000000001

>  <m_primary>  (3) 
energy

>  <rmsd>  (3) 
10.662013119195434

>  <m_score__min__rmsd>  (3) 
10.662013119195434

>  <meeko>  (3) 
{"free_energy": -8.6, "intermolecular_energy": -10.09, "internal_energy": -1.35, "cluster_size": 12, "cluster_id": 1, "rank_in_cluster": 2}

>  <energy>  (3) 
-8.58

>  <cluster_rmsd>  (3) 
0.15

>  <cluster>  (3) 
1

$$$$

     RDKit          3D

 47 49  0  0  0  0  0  0  0  0999 V2000
  142.3660   71.5020  219.5310 C   0  0  0  0  0  0  0  0  0  0  0  0
  143.3950   72.4680  219.9890 C   0  0  0  0  0  0  0  0  0  0  0  0
  144.3900   72.1260  220.9000 C   0  0  0  0  0  0  0  0  0  0  0  0
  145.3460   73.0250  221.3240 C   0  0  0  0  0  0  0  0  0  0  0  0
  145.3190   74.3150  220.8310 C   0  0  0  0  0  0  0  0  0  0  0  0
  144.3320   74.6620  219.9240 C   0  0  0  0  0  0  0  0  0  0  0  0
  143.3690   73.7750  219.4890 C   0  0  0  0  0  0  0  0  0  0  0  0
  142.3260   74.1640  218.5230 C   0  0  2  0  0  0  0  0  0  0  0  0
  142.4930   75.5620  217.9840 C   0  0  0  0  0  0  0  0  0  0  0  0
  141.0390   74.0990  219.1880 N   0  0  0  0  0  0  0  0  0  0  0  0
  140.7320   75.0180  220.2510 C   0  0  0  0  0  0  0  0  0  0  0  0
  141.5860   75.8940  220.6170 O   0  0  0  0  0  0  0  0  0  0  0  0
  139.4060   74.9380  220.9250 C   0  0  0  0  0  0  0  0  0  0  0  0
  139.5580   74.1470  222.1250 N   0  0  0  0  0  0  0  0  0  0  0  0
  139.7100   72.7360  221.9490 C   0  0  0  0  0  0  0  0  0  0  0  0
  139.6930   72.3360  220.7390 O   0  0  0  0  0  0  0  0  0  0  0  0
  139.8720   71.8260  223.0650 C   0  0  0  0  0  0  0  0  0  0  0  0
  139.4720   70.5260  222.8990 C   0  0  0  0  0  0  0  0  0  0  0  0
  139.5750   69.5680  223.8890 C   0  0  0  0  0  0  0  0  0  0  0  0
  140.1090   69.9570  225.0950 C   0  0  0  0  0  0  0  0  0  0  0  0
  140.2240   69.0340  226.0900 C   0  0  0  0  0  0  0  0  0  0  0  0
  140.7690   69.4480  227.3060 C   0  0  0  0  0  0  0  0  0  0  0  0
  140.9080   68.2460  228.5740 Cl  0  0  0  0  0  0  0  0  0  0  0  0
  141.1800   70.7450  227.5060 C   0  0  0  0  0  0  0  0  0  0  0  0
  141.0390   71.6320  226.4610 C   0  0  0  0  0  0  0  0  0  0  0  0
  140.5120   71.2890  225.2420 C   0  0  0  0  0  0  0  0  0  0  0  0
  140.3880   72.1780  224.2480 N   0  0  0  0  0  0  0  0  0  0  0  0
  141.8783   71.0442  220.4043 H   0  0  0  0  0  0  0  0  0  0  0  0
  141.6137   72.0277  218.9246 H   0  0  0  0  0  0  0  0  0  0  0  0
  142.8431   70.7180  218.9246 H   0  0  0  0  0  0  0  0  0  0  0  0
  144.4148   71.1003  221.2966 H   0  0  0  0  0  0  0  0  0  0  0  0
  146.1189   72.7191  222.0445 H   0  0  0  0  0  0  0  0  0  0  0  0
  146.0681   75.0533  221.1531 H   0  0  0  0  0  0  0  0  0  0  0  0
  144.3150   75.6901  219.5331 H   0  0  0  0  0  0  0  0  0  0  0  0
  142.4036   73.4694  217.6736 H   0  0  0  0  0  0  0  0  0  0  0  0
  142.5776   76.2702  218.8214 H   0  0  0  0  0  0  0  0  0  0  0  0
  143.4034   75.6114  217.3686 H   0  0  0  0  0  0  0  0  0  0  0  0
  141.6198   75.8245  217.3686 H   0  0  0  0  0  0  0  0  0  0  0  0
  140.2930   73.4100  218.9440 H   0  0  0  0  0  0  0  0  0  0  0  0
  139.0593   75.9487  221.1863 H   0  0  0  0  0  0  0  0  0  0  0  0
  138.6660   74.4754  220.2554 H   0  0  0  0  0  0  0  0  0  0  0  0
  139.5630   74.5410  223.0840 H   0  0  0  0  0  0  0  0  0  0  0  0
  139.0474   70.2302  221.9283 H   0  0  0  0  0  0  0  0  0  0  0  0
  139.2425   68.5333  223.7190 H   0  0  0  0  0  0  0  0  0  0  0  0
  139.8974   67.9944  225.9396 H   0  0  0  0  0  0  0  0  0  0  0  0
  141.6071   71.0638  228.4683 H   0  0  0  0  0  0  0  0  0  0  0  0
  141.3667   72.6711  226.6125 H   0  0  0  0  0  0  0  0  0  0  0  0
  1  2  1  0
  2  3  2  0
  3  4  1  0
  4  5  2  0
  5  6  1  0
  6  7  2  0
  7  8  1  0
  8  9  1  0
  8 10  1  0
 10 11  1  0
 11 12  2  0
 11 13  1  0
 13 14  1  0
 14 15  1  0
 15 16  2  0
 15 17  1  0
 17 18  2  0
 18 19  1  0
 19 20  2  0
 20 21  1  0
 21 22  2  0
 22 23  1  0
 22 24  1  0
 24 25  2  0
 25 26  1  0
 26 27  2  0
  7  2  1  0
 27 17  1  0
 26 20  1  0
  1 28  1  0
  1 29  1  0
  1 30  1  0
  3 31  1  0
  4 32  1  0
  5 33  1  0
  6 34  1  0
  8 35  1  6
  9 36  1  0
  9 37  1  0
  9 38  1  0
 10 39  1  0
 13 40  1  0
 13 41  1  0
 14 42  1  0
 18 43  1  0
 19 44  1  0
 21 45  1  0
 24 46  1  0
 25 47  1  0
M  END
>  <smiles>  (4) 
Cc1ccccc1[C@H](C)NC(=O)CNC(=O)c1ccc2cc(Cl)ccc2n1

>  <score_type>  (4) 
oracle

>  <origin>  (4) 
autodockgpu

>  <m_score__min__energy>  (4) 
-8.6600000000000001

>  <m_primary>  (4) 
energy

>  <rmsd>  (4) 
6.3644942034064975

>  <m_score__min__rmsd>  (4) 
6.3644942034064975

>  <meeko>  (4) 
{"free_energy": -7.27, "intermolecular_energy": -8.76, "internal_energy": -2.23, "cluster_size": 3, "cluster_id": 4, "rank_in_cluster": 2}

>  <energy>  (4) 
-8.51

>  <cluster_rmsd>  (4) 
0.21

>  <cluster>  (4) 
1

$$$$

     RDKit          3D

 47 49  0  0  0  0  0  0  0  0999 V2000
  139.5450   67.8400  225.9000 C   0  0  0  0  0  0  0  0  0  0  0  0
  139.9260   69.1570  226.4660 C   0  0  0  0  0  0  0  0  0  0  0  0
  140.2130   69.3360  227.8170 C   0  0  0  0  0  0  0  0  0  0  0  0
  140.5680   70.5620  228.3410 C   0  0  0  0  0  0  0  0  0  0  0  0
  140.6400   71.6550  227.5020 C   0  0  0  0  0  0  0  0  0  0  0  0
  140.3560   71.4840  226.1570 C   0  0  0  0  0  0  0  0  0  0  0  0
  140.0010   70.2650  225.6160 C   0  0  0  0  0  0  0  0  0  0  0  0
  139.7010   70.1040  224.1810 C   0  0  2  0  0  0  0  0  0  0  0  0
  140.0030   71.3310  223.3590 C   0  0  0  0  0  0  0  0  0  0  0  0
  138.2870   69.8150  224.0400 N   0  0  0  0  0  0  0  0  0  0  0  0
  137.8150   69.0830  222.8950 C   0  0  0  0  0  0  0  0  0  0  0  0
  138.6320   68.6850  221.9980 O   0  0  0  0  0  0  0  0  0  0  0  0
  136.3600   68.7930  222.7630 C   0  0  0  0  0  0  0  0  0  0  0  0
  135.6270   69.9210  223.2890 N   0  0  0  0  0  0  0  0  0  0  0  0
  135.3630   69.9170  224.6940 C   0  0  0  0  0  0  0  0  0  0  0  0
  135.8110   68.9050  225.3270 O   0  0  0  0  0  0  0  0  0  0  0  0
  134.6390   70.9860  225.3530 C   0  0  0  0  0  0  0  0  0  0  0  0
  133.7450   70.6480  226.3350 C   0  0  0  0  0  0  0  0  0  0  0  0
  132.9970   71.5770  227.0320 C   0  0  0  0  0  0  0  0  0  0  0  0
  133.1720   72.9020  226.7120 C   0  0  0  0  0  0  0  0  0  0  0  0
  132.4490   73.8410  227.3830 C   0  0  0  0  0  0  0  0  0  0  0  0
  132.6410   75.1800  227.0440 C   0  0  0  0  0  0  0  0  0  0  0  0
  131.7010   76.3740  227.9180 Cl  0  0  0  0  0  0  0  0  0  0  0  0
  133.5300   75.5540  226.0630 C   0  0  0  0  0  0  0  0  0  0  0  0
  134.2330   74.5580  225.4200 C   0  0  0  0  0  0  0  0  0  0  0  0
  134.0910   73.2240  225.7060 C   0  0  0  0  0  0  0  0  0  0  0  0
  134.7900   72.2830  225.0600 N   0  0  0  0  0  0  0  0  0  0  0  0
  139.3408   67.1343  226.7187 H   0  0  0  0  0  0  0  0  0  0  0  0
  138.6430   67.9541  225.2808 H   0  0  0  0  0  0  0  0  0  0  0  0
  140.3686   67.4549  225.2808 H   0  0  0  0  0  0  0  0  0  0  0  0
  140.1545   68.4685  228.4908 H   0  0  0  0  0  0  0  0  0  0  0  0
  140.7906   70.6666  229.4131 H   0  0  0  0  0  0  0  0  0  0  0  0
  140.9179   72.6444  227.8941 H   0  0  0  0  0  0  0  0  0  0  0  0
  140.4160   72.3577  225.4913 H   0  0  0  0  0  0  0  0  0  0  0  0
  140.3426   69.2912  223.8099 H   0  0  0  0  0  0  0  0  0  0  0  0
  140.2116   72.1786  224.0284 H   0  0  0  0  0  0  0  0  0  0  0  0
  140.8810   71.1402  222.7244 H   0  0  0  0  0  0  0  0  0  0  0  0
  139.1368   71.5695  222.7244 H   0  0  0  0  0  0  0  0  0  0  0  0
  137.5620   70.1080  224.7310 H   0  0  0  0  0  0  0  0  0  0  0  0
  136.1044   68.6437  221.7036 H   0  0  0  0  0  0  0  0  0  0  0  0
  136.1021   67.8791  223.3183 H   0  0  0  0  0  0  0  0  0  0  0  0
  135.2910   70.7150  222.7130 H   0  0  0  0  0  0  0  0  0  0  0  0
  133.6165   69.5835  226.5806 H   0  0  0  0  0  0  0  0  0  0  0  0
  132.2878   71.2677  227.8139 H   0  0  0  0  0  0  0  0  0  0  0  0
  131.7352   73.5520  228.1685 H   0  0  0  0  0  0  0  0  0  0  0  0
  133.6749   76.6124  225.8006 H   0  0  0  0  0  0  0  0  0  0  0  0
  134.9466   74.8486  224.6349 H   0  0  0  0  0  0  0  0  0  0  0  0
  1  2  1  0
  2  3  2  0
  3  4  1  0
  4  5  2  0
  5  6  1  0
  6  7  2  0
  7  8  1  0
  8  9  1  0
  8 10  1  0
 10 11  1  0
 11 12  2  0
 11 13  1  0
 13 14  1  0
 14 15  1  0
 15 16  2  0
 15 17  1  0
 17 18  2  0
 18 19  1  0
 19 20  2  0
 20 21  1  0
 21 22  2  0
 22 23  1  0
 22 24  1  0
 24 25  2  0
 25 26  1  0
 26 27  2  0
  7  2  1  0
 27 17  1  0
 26 20  1  0
  1 28  1  0
  1 29  1  0
  1 30  1  0
  3 31  1  0
  4 32  1  0
  5 33  1  0
  6 34  1  0
  8 35  1  6
  9 36  1  0
  9 37  1  0
  9 38  1  0
 10 39  1  0
 13 40  1  0
 13 41  1  0
 14 42  1  0
 18 43  1  0
 19 44  1  0
 21 45  1  0
 24 46  1  0
 25 47  1  0
M  END
>  <smiles>  (5) 
Cc1ccccc1[C@H](C)NC(=O)CNC(=O)c1ccc2cc(Cl)ccc2n1

>  <score_type>  (5) 
oracle

>  <origin>  (5) 
autodockgpu

>  <m_score__min__energy>  (5) 
-8.6600000000000001

>  <m_primary>  (5) 
energy

>  <rmsd>  (5) 
9.8506226993781

>  <m_score__min__rmsd>  (5) 
9.8506226993781

>  <meeko>  (5) 
{"free_energy": -7.64, "intermolecular_energy": -9.13, "internal_energy": -2.0, "cluster_size": 12, "cluster_id": 1, "rank_in_cluster": 11}

>  <energy>  (5) 
-8.3

>  <cluster_rmsd>  (5) 
0.36

>  <cluster>  (5) 
1

$$$$

     RDKit          3D

 47 49  0  0  0  0  0  0  0  0999 V2000
  139.2040   69.4520  228.7970 C   0  0  0  0  0  0  0  0  0  0  0  0
  140.0370   70.3090  227.9190 C   0  0  0  0  0  0  0  0  0  0  0  0
  140.6340   71.4840  228.3680 C   0  0  0  0  0  0  0  0  0  0  0  0
  141.4080   72.2790  227.5490 C   0  0  0  0  0  0  0  0  0  0  0  0
  141.6020   71.9030  226.2350 C   0  0  0  0  0  0  0  0  0  0  0  0
  141.0110   70.7350  225.7820 C   0  0  0  0  0  0  0  0  0  0  0  0
  140.2340   69.9270  226.5870 C   0  0  0  0  0  0  0  0  0  0  0  0
  139.6130   68.6880  226.0850 C   0  0  2  0  0  0  0  0  0  0  0  0
  140.5100   67.4810  226.1810 C   0  0  0  0  0  0  0  0  0  0  0  0
  139.2760   68.8790  224.6880 N   0  0  0  0  0  0  0  0  0  0  0  0
  138.0280   69.4970  224.3280 C   0  0  0  0  0  0  0  0  0  0  0  0
  137.2110   69.8800  225.2310 O   0  0  0  0  0  0  0  0  0  0  0  0
  137.6960   69.6870  222.8890 C   0  0  0  0  0  0  0  0  0  0  0  0
  138.0750   71.0290  222.5120 N   0  0  0  0  0  0  0  0  0  0  0  0
  139.4750   71.2830  222.3650 C   0  0  0  0  0  0  0  0  0  0  0  0
  140.2330   70.2840  222.5860 O   0  0  0  0  0  0  0  0  0  0  0  0
  139.9940   72.5840  221.9910 C   0  0  0  0  0  0  0  0  0  0  0  0
  141.1480   72.6290  221.2550 C   0  0  0  0  0  0  0  0  0  0  0  0
  141.7380   73.8070  220.8400 C   0  0  0  0  0  0  0  0  0  0  0  0
  141.1210   74.9840  221.1930 C   0  0  0  0  0  0  0  0  0  0  0  0
  141.6800   76.1630  220.7980 C   0  0  0  0  0  0  0  0  0  0  0  0
  141.0390   77.3450  221.1660 C   0  0  0  0  0  0  0  0  0  0  0  0
  141.7730   78.8510  220.6490 Cl  0  0  0  0  0  0  0  0  0  0  0  0
  139.8790   77.3360  221.9050 C   0  0  0  0  0  0  0  0  0  0  0  0
  139.3620   76.1130  222.2740 C   0  0  0  0  0  0  0  0  0  0  0  0
  139.9430   74.9150  221.9450 C   0  0  0  0  0  0  0  0  0  0  0  0
  139.4140   73.7440  222.3210 N   0  0  0  0  0  0  0  0  0  0  0  0
  139.4260   69.6804  229.8499 H   0  0  0  0  0  0  0  0  0  0  0  0
  138.1400   69.6460  228.5962 H   0  0  0  0  0  0  0  0  0  0  0  0
  139.4281   68.3940  228.5962 H   0  0  0  0  0  0  0  0  0  0  0  0
  140.4828   71.7892  229.4139 H   0  0  0  0  0  0  0  0  0  0  0  0
  141.8650   73.2010  227.9378 H   0  0  0  0  0  0  0  0  0  0  0  0
  142.2144   72.5193  225.5604 H   0  0  0  0  0  0  0  0  0  0  0  0
  141.1679   70.4384  224.7344 H   0  0  0  0  0  0  0  0  0  0  0  0
  138.7314   68.4954  226.7140 H   0  0  0  0  0  0  0  0  0  0  0  0
  140.6888   67.2403  227.2393 H   0  0  0  0  0  0  0  0  0  0  0  0
  140.0271   66.6251  225.6869 H   0  0  0  0  0  0  0  0  0  0  0  0
  141.4688   67.6965  225.6869 H   0  0  0  0  0  0  0  0  0  0  0  0
  139.8930   68.5920  223.8970 H   0  0  0  0  0  0  0  0  0  0  0  0
  138.2505   68.9583  222.2795 H   0  0  0  0  0  0  0  0  0  0  0  0
  136.6190   69.5358  222.7243 H   0  0  0  0  0  0  0  0  0  0  0  0
  137.4010   71.7990  222.3470 H   0  0  0  0  0  0  0  0  0  0  0  0
  141.6295   71.6789  220.9804 H   0  0  0  0  0  0  0  0  0  0  0  0
  142.6661   73.8036  220.2496 H   0  0  0  0  0  0  0  0  0  0  0  0
  142.6078   76.1811  220.2074 H   0  0  0  0  0  0  0  0  0  0  0  0
  139.3806   78.2737  222.1919 H   0  0  0  0  0  0  0  0  0  0  0  0
  138.4337   76.0968  222.8639 H   0  0  0  0  0  0  0  0  0  0  0  0
  1  2  1  0
  2  3  2  0
  3  4  1  0
  4  5  2  0
  5  6  1  0
  6  7  2  0
  7  8  1  0
  8  9  1  0
  8 10  1  0
 10 11  1  0
 11 12  2  0
 11 13  1  0
 13 14  1  0
 14 15  1  0
 15 16  2  0
 15 17  1  0
 17 18  2  0
 18 19  1  0
 19 20  2  0
 20 21  1  0
 21 22  2  0
 22 23  1  0
 22 24  1  0
 24 25  2  0
 25 26  1  0
 26 27  2  0
  7  2  1  0
 27 17  1  0
 26 20  1  0
  1 28  1  0
  1 29  1  0
  1 30  1  0
  3 31  1  0
  4 32  1  0
  5 33  1  0
  6 34  1  0
  8 35  1  1
  9 36  1  0
  9 37  1  0
  9 38  1  0
 10 39  1  0
 13 40  1  0
 13 41  1  0
 14 42  1  0
 18 43  1  0
 19 44  1  0
 21 45  1  0
 24 46  1  0
 25 47  1  0
M  END
>  <smiles>  (6) 
Cc1ccccc1[C@H](C)NC(=O)CNC(=O)c1ccc2cc(Cl)ccc2n1

>  <score_type>  (6) 
oracle

>  <origin>  (6) 
autodockgpu

>  <m_score__min__energy>  (6) 
-8.6600000000000001

>  <m_primary>  (6) 
energy

>  <rmsd>  (6) 
9.883736611750184

>  <m_score__min__rmsd>  (6) 
9.883736611750184

>  <meeko>  (6) 
{"free_energy": -7.92, "intermolecular_energy": -9.41, "internal_energy": -2.27, "cluster_size": 20, "cluster_id": 3, "rank_in_cluster": 8}

>  <energy>  (6) 
-8.2

>  <cluster_rmsd>  (6) 
0.44

>  <cluster>  (6) 
1

$$$$

     RDKit          3D

 47 49  0  0  0  0  0  0  0  0999 V2000
  141.0300   79.8610  220.1360 C   0  0  0  0  0  0  0  0  0  0  0  0
  141.4790   79.8370  221.5500 C   0  0  0  0  0  0  0  0  0  0  0  0
  142.6050   80.5270  221.9890 C   0  0  0  0  0  0  0  0  0  0  0  0
  143.0210   80.5050  223.3040 C   0  0  0  0  0  0  0  0  0  0  0  0
  142.2980   79.7720  224.2240 C   0  0  0  0  0  0  0  0  0  0  0  0
  141.1760   79.0840  223.7940 C   0  0  0  0  0  0  0  0  0  0  0  0
  140.7460   79.0960  222.4820 C   0  0  0  0  0  0  0  0  0  0  0  0
  139.5480   78.3550  222.0450 C   0  0  2  0  0  0  0  0  0  0  0  0
  138.4610   78.2930  223.0870 C   0  0  0  0  0  0  0  0  0  0  0  0
  139.9410   76.9940  221.7340 N   0  0  0  0  0  0  0  0  0  0  0  0
  139.0350   76.1300  221.0260 C   0  0  0  0  0  0  0  0  0  0  0  0
  137.8850   76.5500  220.6670 O   0  0  0  0  0  0  0  0  0  0  0  0
  139.4520   74.7340  220.7140 C   0  0  0  0  0  0  0  0  0  0  0  0
  139.5120   73.9950  221.9540 N   0  0  0  0  0  0  0  0  0  0  0  0
  139.8710   72.6130  221.8610 C   0  0  0  0  0  0  0  0  0  0  0  0
  140.0970   72.1900  220.6810 O   0  0  0  0  0  0  0  0  0  0  0  0
  139.9680   71.7560  223.0250 C   0  0  0  0  0  0  0  0  0  0  0  0
  139.5420   70.4590  222.9070 C   0  0  0  0  0  0  0  0  0  0  0  0
  139.5860   69.5490  223.9450 C   0  0  0  0  0  0  0  0  0  0  0  0
  140.0840   69.9840  225.1500 C   0  0  0  0  0  0  0  0  0  0  0  0
  140.1400   69.1080  226.1930 C   0  0  0  0  0  0  0  0  0  0  0  0
  140.6490   69.5680  227.4060 C   0  0  0  0  0  0  0  0  0  0  0  0
  140.7120   68.4280  228.7360 Cl  0  0  0  0  0  0  0  0  0  0  0  0
  141.0860   70.8630  227.5600 C   0  0  0  0  0  0  0  0  0  0  0  0
  141.0050   71.7020  226.4690 C   0  0  0  0  0  0  0  0  0  0  0  0
  140.5140   71.3120  225.2490 C   0  0  0  0  0  0  0  0  0  0  0  0
  140.4490   72.1540  224.2090 N   0  0  0  0  0  0  0  0  0  0  0  0
  139.9321   79.9197  220.1009 H   0  0  0  0  0  0  0  0  0  0  0  0
  141.4604   80.7374  219.6294 H   0  0  0  0  0  0  0  0  0  0  0  0
  141.3646   78.9437  219.6294 H   0  0  0  0  0  0  0  0  0  0  0  0
  143.1850   81.1119  221.2600 H   0  0  0  0  0  0  0  0  0  0  0  0
  143.9161   81.0635  223.6153 H   0  0  0  0  0  0  0  0  0  0  0  0
  142.6076   79.7353  225.2789 H   0  0  0  0  0  0  0  0  0  0  0  0
  140.6019   78.5022  224.5301 H   0  0  0  0  0  0  0  0  0  0  0  0
  139.1409   78.8916  221.1753 H   0  0  0  0  0  0  0  0  0  0  0  0
  138.9124   78.3187  224.0898 H   0  0  0  0  0  0  0  0  0  0  0  0
  137.7874   79.1542  222.9659 H   0  0  0  0  0  0  0  0  0  0  0  0
  137.8897   77.3608  222.9659 H   0  0  0  0  0  0  0  0  0  0  0  0
  140.8630   76.5810  221.9950 H   0  0  0  0  0  0  0  0  0  0  0  0
  138.7198   74.2686  220.0378 H   0  0  0  0  0  0  0  0  0  0  0  0
  140.4355   74.7315  220.2212 H   0  0  0  0  0  0  0  0  0  0  0  0
  139.3140   74.4050  222.8850 H   0  0  0  0  0  0  0  0  0  0  0  0
  139.1450   70.1258  221.9367 H   0  0  0  0  0  0  0  0  0  0  0  0
  139.2356   68.5148  223.8123 H   0  0  0  0  0  0  0  0  0  0  0  0
  139.7940   68.0699  226.0806 H   0  0  0  0  0  0  0  0  0  0  0  0
  141.4866   71.2173  228.5212 H   0  0  0  0  0  0  0  0  0  0  0  0
  141.3526   72.7394  226.5829 H   0  0  0  0  0  0  0  0  0  0  0  0
  1  2  1  0
  2  3  2  0
  3  4  1  0
  4  5  2  0
  5  6  1  0
  6  7  2  0
  7  8  1  0
  8  9  1  0
  8 10  1  0
 10 11  1  0
 11 12  2  0
 11 13  1  0
 13 14  1  0
 14 15  1  0
 15 16  2  0
 15 17  1  0
 17 18  2  0
 18 19  1  0
 19 20  2  0
 20 21  1  0
 21 22  2  0
 22 23  1  0
 22 24  1  0
 24 25  2  0
 25 26  1  0
 26 27  2  0
  7  2  1  0
 27 17  1  0
 26 20  1  0
  1 28  1  0
  1 29  1  0
  1 30  1  0
  3 31  1  0
  4 32  1  0
  5 33  1  0
  6 34  1  0
  8 35  1  6
  9 36  1  0
  9 37  1  0
  9 38  1  0
 10 39  1  0
 13 40  1  0
 13 41  1  0
 14 42  1  0
 18 43  1  0
 19 44  1  0
 21 45  1  0
 24 46  1  0
 25 47  1  0
M  END
>  <smiles>  (7) 
Cc1ccccc1[C@H](C)NC(=O)CNC(=O)c1ccc2cc(Cl)ccc2n1

>  <score_type>  (7) 
oracle

>  <origin>  (7) 
autodockgpu

>  <m_score__min__energy>  (7) 
-8.6600000000000001

>  <m_primary>  (7) 
energy

>  <rmsd>  (7) 
4.051265683815523

>  <m_score__min__rmsd>  (7) 
4.051265683815523

>  <meeko>  (7) 
{"free_energy": -8.38, "intermolecular_energy": -9.88, "internal_energy": -1.07, "cluster_size": 15, "cluster_id": 2, "rank_in_cluster": 6}

>  <energy>  (7) 
-8.04

>  <cluster_rmsd>  (7) 
1.52

>  <cluster>  (7) 
1

$$$$

     RDKit          3D

 47 49  0  0  0  0  0  0  0  0999 V2000
  139.7370   67.7830  227.2310 C   0  0  0  0  0  0  0  0  0  0  0  0
  140.1090   69.2070  227.0470 C   0  0  0  0  0  0  0  0  0  0  0  0
  140.6640   69.9740  228.0680 C   0  0  0  0  0  0  0  0  0  0  0  0
  141.0090   71.2980  227.8950 C   0  0  0  0  0  0  0  0  0  0  0  0
  140.7980   71.8910  226.6670 C   0  0  0  0  0  0  0  0  0  0  0  0
  140.2470   71.1350  225.6460 C   0  0  0  0  0  0  0  0  0  0  0  0
  139.8960   69.8090  225.8020 C   0  0  0  0  0  0  0  0  0  0  0  0
  139.3090   69.0200  224.7030 C   0  0  2  0  0  0  0  0  0  0  0  0
  139.5050   69.6410  223.3430 C   0  0  0  0  0  0  0  0  0  0  0  0
  137.8830   68.9040  224.9350 N   0  0  0  0  0  0  0  0  0  0  0  0
  137.0080   69.9920  224.5900 C   0  0  0  0  0  0  0  0  0  0  0  0
  137.4770   71.0640  224.0800 O   0  0  0  0  0  0  0  0  0  0  0  0
  135.5450   69.8580  224.8340 C   0  0  0  0  0  0  0  0  0  0  0  0
  135.0290   71.1570  225.2020 N   0  0  0  0  0  0  0  0  0  0  0  0
  133.9290   71.1750  226.1160 C   0  0  0  0  0  0  0  0  0  0  0  0
  133.5260   70.0300  226.5030 O   0  0  0  0  0  0  0  0  0  0  0  0
  133.3160   72.4080  226.5690 C   0  0  0  0  0  0  0  0  0  0  0  0
  132.1000   72.3290  227.1970 C   0  0  0  0  0  0  0  0  0  0  0  0
  131.4190   73.4330  227.6720 C   0  0  0  0  0  0  0  0  0  0  0  0
  132.0050   74.6640  227.4970 C   0  0  0  0  0  0  0  0  0  0  0  0
  131.3570   75.7710  227.9550 C   0  0  0  0  0  0  0  0  0  0  0  0
  131.9680   77.0110  227.7690 C   0  0  0  0  0  0  0  0  0  0  0  0
  131.1190   78.4240  228.3650 Cl  0  0  0  0  0  0  0  0  0  0  0  0
  133.1870   77.1260  227.1430 C   0  0  0  0  0  0  0  0  0  0  0  0
  133.7940   75.9700  226.7020 C   0  0  0  0  0  0  0  0  0  0  0  0
  133.2470   74.7210  226.8540 C   0  0  0  0  0  0  0  0  0  0  0  0
  133.8640   73.6180  226.4120 N   0  0  0  0  0  0  0  0  0  0  0  0
  139.6776   67.5555  228.3056 H   0  0  0  0  0  0  0  0  0  0  0  0
  138.7598   67.5957  226.7620 H   0  0  0  0  0  0  0  0  0  0  0  0
  140.4978   67.1417  226.7620 H   0  0  0  0  0  0  0  0  0  0  0  0
  140.8336   69.5065  229.0491 H   0  0  0  0  0  0  0  0  0  0  0  0
  141.4463   71.8733  228.7244 H   0  0  0  0  0  0  0  0  0  0  0  0
  141.0629   72.9458  226.5020 H   0  0  0  0  0  0  0  0  0  0  0  0
  140.0818   71.6116  224.6685 H   0  0  0  0  0  0  0  0  0  0  0  0
  139.8210   68.0464  224.6993 H   0  0  0  0  0  0  0  0  0  0  0  0
  139.8342   70.6840  223.4602 H   0  0  0  0  0  0  0  0  0  0  0  0
  140.2684   69.0757  222.7883 H   0  0  0  0  0  0  0  0  0  0  0  0
  138.5554   69.6163  222.7883 H   0  0  0  0  0  0  0  0  0  0  0  0
  137.4280   68.0600  225.3480 H   0  0  0  0  0  0  0  0  0  0  0  0
  135.0457   69.5040  223.9200 H   0  0  0  0  0  0  0  0  0  0  0  0
  135.3584   69.1323  225.6394 H   0  0  0  0  0  0  0  0  0  0  0  0
  135.4080   72.0540  224.8470 H   0  0  0  0  0  0  0  0  0  0  0  0
  131.6437   71.3369  227.3293 H   0  0  0  0  0  0  0  0  0  0  0  0
  130.4443   73.3308  228.1715 H   0  0  0  0  0  0  0  0  0  0  0  0
  130.3813   75.6896  228.4564 H   0  0  0  0  0  0  0  0  0  0  0  0
  133.6617   78.1078  226.9991 H   0  0  0  0  0  0  0  0  0  0  0  0
  134.7698   76.0532  226.2011 H   0  0  0  0  0  0  0  0  0  0  0  0
  1  2  1  0
  2  3  2  0
  3  4  1  0
  4  5  2  0
  5  6  1  0
  6  7  2  0
  7  8  1  0
  8  9  1  0
  8 10  1  0
 10 11  1  0
 11 12  2  0
 11 13  1  0
 13 14  1  0
 14 15  1  0
 15 16  2  0
 15 17  1  0
 17 18  2  0
 18 19  1  0
 19 20  2  0
 20 21  1  0
 21 22  2  0
 22 23  1  0
 22 24  1  0
 24 25  2  0
 25 26  1  0
 26 27  2  0
  7  2  1  0
 27 17  1  0
 26 20  1  0
  1 28  1  0
  1 29  1  0
  1 30  1  0
  3 31  1  0
  4 32  1  0
  5 33  1  0
  6 34  1  0
  8 35  1  6
  9 36  1  0
  9 37  1  0
  9 38  1  0
 10 39  1  0
 13 40  1  0
 13 41  1  0
 14 42  1  0
 18 43  1  0
 19 44  1  0
 21 45  1  0
 24 46  1  0
 25 47  1  0
M  END
>  <smiles>  (8) 
Cc1ccccc1[C@H](C)NC(=O)CNC(=O)c1ccc2cc(Cl)ccc2n1

>  <score_type>  (8) 
oracle

>  <origin>  (8) 
autodockgpu

>  <m_score__min__energy>  (8) 
-8.6600000000000001

>  <m_primary>  (8) 
energy

>  <rmsd>  (8) 
10.748434832679223

>  <m_score__min__rmsd>  (8) 
10.748434832679223

>  <meeko>  (8) 
{"free_energy": -8.66, "intermolecular_energy": -10.15, "internal_energy": -1.28, "cluster_size": 12, "cluster_id": 1, "rank_in_cluster": 1}

>  <energy>  (8) 
-7.69

>  <cluster_rmsd>  (8) 
1.54

>  <cluster>  (8) 
1

$$$$

     RDKit          3D

 47 49  0  0  0  0  0  0  0  0999 V2000
  139.7020   67.7720  226.9870 C   0  0  0  0  0  0  0  0  0  0  0  0
  140.1020   69.1960  226.8750 C   0  0  0  0  0  0  0  0  0  0  0  0
  140.6510   69.9050  227.9390 C   0  0  0  0  0  0  0  0  0  0  0  0
  141.0240   71.2290  227.8320 C   0  0  0  0  0  0  0  0  0  0  0  0
  140.8470   71.8810  226.6280 C   0  0  0  0  0  0  0  0  0  0  0  0
  140.3010   71.1810  225.5640 C   0  0  0  0  0  0  0  0  0  0  0  0
  139.9240   69.8560  225.6540 C   0  0  0  0  0  0  0  0  0  0  0  0
  139.3440   69.1290  224.5100 C   0  0  2  0  0  0  0  0  0  0  0  0
  139.5400   69.8270  223.1890 C   0  0  0  0  0  0  0  0  0  0  0  0
  137.9170   68.9920  224.7310 N   0  0  0  0  0  0  0  0  0  0  0  0
  137.0550   70.1320  224.5730 C   0  0  0  0  0  0  0  0  0  0  0  0
  137.5340   71.2670  224.2410 O   0  0  0  0  0  0  0  0  0  0  0  0
  135.5910   69.9770  224.8030 C   0  0  0  0  0  0  0  0  0  0  0  0
  135.0540   71.2670  225.1700 N   0  0  0  0  0  0  0  0  0  0  0  0
  133.9680   71.2690  226.1010 C   0  0  0  0  0  0  0  0  0  0  0  0
  133.5950   70.1190  226.5020 O   0  0  0  0  0  0  0  0  0  0  0  0
  133.3360   72.4920  226.5550 C   0  0  0  0  0  0  0  0  0  0  0  0
  132.1220   72.3940  227.1840 C   0  0  0  0  0  0  0  0  0  0  0  0
  131.4240   73.4870  227.6600 C   0  0  0  0  0  0  0  0  0  0  0  0
  131.9910   74.7270  227.4840 C   0  0  0  0  0  0  0  0  0  0  0  0
  131.3250   75.8240  227.9430 C   0  0  0  0  0  0  0  0  0  0  0  0
  131.9160   77.0730  227.7560 C   0  0  0  0  0  0  0  0  0  0  0  0
  131.0450   78.4720  228.3530 Cl  0  0  0  0  0  0  0  0  0  0  0  0
  133.1330   77.2070  227.1290 C   0  0  0  0  0  0  0  0  0  0  0  0
  133.7570   76.0610  226.6870 C   0  0  0  0  0  0  0  0  0  0  0  0
  133.2300   74.8040  226.8400 C   0  0  0  0  0  0  0  0  0  0  0  0
  133.8650   73.7110  226.3970 N   0  0  0  0  0  0  0  0  0  0  0  0
  139.6243   67.4954  228.0488 H   0  0  0  0  0  0  0  0  0  0  0  0
  138.7279   67.6252  226.4976 H   0  0  0  0  0  0  0  0  0  0  0  0
  140.4572   67.1394  226.4976 H   0  0  0  0  0  0  0  0  0  0  0  0
  140.7929   69.3909  228.9010 H   0  0  0  0  0  0  0  0  0  0  0  0
  141.4565   71.7578  228.6941 H   0  0  0  0  0  0  0  0  0  0  0  0
  141.1342   72.9369  226.5154 H   0  0  0  0  0  0  0  0  0  0  0  0
  140.1619   71.7037  224.6062 H   0  0  0  0  0  0  0  0  0  0  0  0
  139.8615   68.1601  224.4519 H   0  0  0  0  0  0  0  0  0  0  0  0
  139.8335   70.8722  223.3665 H   0  0  0  0  0  0  0  0  0  0  0  0
  140.3295   69.3164  222.6181 H   0  0  0  0  0  0  0  0  0  0  0  0
  138.6001   69.8020  222.6181 H   0  0  0  0  0  0  0  0  0  0  0  0
  137.4550   68.0980  225.0040 H   0  0  0  0  0  0  0  0  0  0  0  0
  135.1052   69.6191  223.8833 H   0  0  0  0  0  0  0  0  0  0  0  0
  135.4070   69.2462  225.6043 H   0  0  0  0  0  0  0  0  0  0  0  0
  135.4080   72.1690  224.8030 H   0  0  0  0  0  0  0  0  0  0  0  0
  131.6814   71.3948  227.3164 H   0  0  0  0  0  0  0  0  0  0  0  0
  130.4516   73.3696  228.1607 H   0  0  0  0  0  0  0  0  0  0  0  0
  130.3513   75.7270  228.4455 H   0  0  0  0  0  0  0  0  0  0  0  0
  133.5926   78.1960  226.9853 H   0  0  0  0  0  0  0  0  0  0  0  0
  134.7304   76.1594  226.1842 H   0  0  0  0  0  0  0  0  0  0  0  0
  1  2  1  0
  2  3  2  0
  3  4  1  0
  4  5  2  0
  5  6  1  0
  6  7  2  0
  7  8  1  0
  8  9  1  0
  8 10  1  0
 10 11  1  0
 11 12  2  0
 11 13  1  0
 13 14  1  0
 14 15  1  0
 15 16  2  0
 15 17  1  0
 17 18  2  0
 18 19  1  0
 19 20  2  0
 20 21  1  0
 21 22  2  0
 22 23  1  0
 22 24  1  0
 24 25  2  0
 25 26  1  0
 26 27  2  0
  7  2  1  0
 27 17  1  0
 26 20  1  0
  1 28  1  0
  1 29  1  0
  1 30  1  0
  3 31  1  0
  4 32  1  0
  5 33  1  0
  6 34  1  0
  8 35  1  6
  9 36  1  0
  9 37  1  0
  9 38  1  0
 10 39  1  0
 13 40  1  0
 13 41  1  0
 14 42  1  0
 18 43  1  0
 19 44  1  0
 21 45  1  0
 24 46  1  0
 25 47  1  0
M  END
>  <smiles>  (9) 
Cc1ccccc1[C@H](C)NC(=O)CNC(=O)c1ccc2cc(Cl)ccc2n1

>  <score_type>  (9) 
oracle

>  <origin>  (9) 
autodockgpu

>  <m_score__min__energy>  (9) 
-8.6600000000000001

>  <m_primary>  (9) 
energy

>  <rmsd>  (9) 
10.688580784064882

>  <m_score__min__rmsd>  (9) 
10.688580784064882

>  <meeko>  (9) 
{"free_energy": -8.58, "intermolecular_energy": -10.07, "internal_energy": -1.46, "cluster_size": 12, "cluster_id": 1, "rank_in_cluster": 3}

>  <energy>  (9) 
-7.69

>  <cluster_rmsd>  (9) 
1.33

>  <cluster>  (9) 
1

$$$$

     RDKit          3D

 47 49  0  0  0  0  0  0  0  0999 V2000
  139.1840   69.4730  228.7120 C   0  0  0  0  0  0  0  0  0  0  0  0
  140.0630   70.3160  227.8640 C   0  0  0  0  0  0  0  0  0  0  0  0
  140.6840   71.4660  228.3420 C   0  0  0  0  0  0  0  0  0  0  0  0
  141.5010   72.2480  227.5530 C   0  0  0  0  0  0  0  0  0  0  0  0
  141.7130   71.8830  226.2380 C   0  0  0  0  0  0  0  0  0  0  0  0
  141.0980   70.7390  225.7560 C   0  0  0  0  0  0  0  0  0  0  0  0
  140.2780   69.9450  226.5330 C   0  0  0  0  0  0  0  0  0  0  0  0
  139.6320   68.7320  226.0000 C   0  0  2  0  0  0  0  0  0  0  0  0
  140.3930   67.4640  226.2930 C   0  0  0  0  0  0  0  0  0  0  0  0
  139.5290   68.8630  224.5600 N   0  0  0  0  0  0  0  0  0  0  0  0
  138.5050   69.6950  223.9860 C   0  0  0  0  0  0  0  0  0  0  0  0
  137.6830   70.3210  224.7360 O   0  0  0  0  0  0  0  0  0  0  0  0
  138.4120   69.8210  222.5050 C   0  0  0  0  0  0  0  0  0  0  0  0
  138.1820   71.2110  222.1850 N   0  0  0  0  0  0  0  0  0  0  0  0
  139.2640   72.1140  222.4290 C   0  0  0  0  0  0  0  0  0  0  0  0
  140.3170   71.5800  222.9070 O   0  0  0  0  0  0  0  0  0  0  0  0
  139.1690   73.5330  222.1530 C   0  0  0  0  0  0  0  0  0  0  0  0
  137.9610   74.0290  221.7370 C   0  0  0  0  0  0  0  0  0  0  0  0
  137.7490   75.3620  221.4440 C   0  0  0  0  0  0  0  0  0  0  0  0
  138.8140   76.2200  221.5820 C   0  0  0  0  0  0  0  0  0  0  0  0
  138.6350   77.5410  221.3010 C   0  0  0  0  0  0  0  0  0  0  0  0
  139.7280   78.3940  221.4470 C   0  0  0  0  0  0  0  0  0  0  0  0
  139.4780   80.0900  221.0810 Cl  0  0  0  0  0  0  0  0  0  0  0  0
  140.9540   77.9300  221.8620 C   0  0  0  0  0  0  0  0  0  0  0  0
  141.0730   76.5840  222.1320 C   0  0  0  0  0  0  0  0  0  0  0  0
  140.0380   75.6920  222.0080 C   0  0  0  0  0  0  0  0  0  0  0  0
  140.1900   74.3890  222.2790 N   0  0  0  0  0  0  0  0  0  0  0  0
  139.3945   69.6749  229.7726 H   0  0  0  0  0  0  0  0  0  0  0  0
  138.1313   69.7078  228.4960 H   0  0  0  0  0  0  0  0  0  0  0  0
  139.3747   68.4114  228.4960 H   0  0  0  0  0  0  0  0  0  0  0  0
  140.5169   71.7622  229.3881 H   0  0  0  0  0  0  0  0  0  0  0  0
  141.9772   73.1499  227.9652 H   0  0  0  0  0  0  0  0  0  0  0  0
  142.3582   72.4894  225.5854 H   0  0  0  0  0  0  0  0  0  0  0  0
  141.2705   70.4506  224.7086 H   0  0  0  0  0  0  0  0  0  0  0  0
  138.6515   68.6508  226.4919 H   0  0  0  0  0  0  0  0  0  0  0  0
  140.4744   67.3284  227.3816 H   0  0  0  0  0  0  0  0  0  0  0  0
  139.8599   66.6070  225.8556 H   0  0  0  0  0  0  0  0  0  0  0  0
  141.4001   67.5314  225.8556 H   0  0  0  0  0  0  0  0  0  0  0  0
  140.1650   68.3830  223.8860 H   0  0  0  0  0  0  0  0  0  0  0  0
  139.3510   69.4826  222.0426 H   0  0  0  0  0  0  0  0  0  0  0  0
  137.5884   69.2009  222.1213 H   0  0  0  0  0  0  0  0  0  0  0  0
  137.2940   71.5780  221.7960 H   0  0  0  0  0  0  0  0  0  0  0  0
  137.1179   73.3304  221.6311 H   0  0  0  0  0  0  0  0  0  0  0  0
  136.7644   75.7236  221.1125 H   0  0  0  0  0  0  0  0  0  0  0  0
  137.6582   77.9228  220.9691 H   0  0  0  0  0  0  0  0  0  0  0  0
  141.8110   78.6104  221.9747 H   0  0  0  0  0  0  0  0  0  0  0  0
  142.0503   76.2043  222.4648 H   0  0  0  0  0  0  0  0  0  0  0  0
  1  2  1  0
  2  3  2  0
  3  4  1  0
  4  5  2  0
  5  6  1  0
  6  7  2  0
  7  8  1  0
  8  9  1  0
  8 10  1  0
 10 11  1  0
 11 12  2  0
 11 13  1  0
 13 14  1  0
 14 15  1  0
 15 16  2  0
 15 17  1  0
 17 18  2  0
 18 19  1  0
 19 20  2  0
 20 21  1  0
 21 22  2  0
 22 23  1  0
 22 24  1  0
 24 25  2  0
 25 26  1  0
 26 27  2  0
  7  2  1  0
 27 17  1  0
 26 20  1  0
  1 28  1  0
  1 29  1  0
  1 30  1  0
  3 31  1  0
  4 32  1  0
  5 33  1  0
  6 34  1  0
  8 35  1  1
  9 36  1  0
  9 37  1  0
  9 38  1  0
 10 39  1  0
 13 40  1  0
 13 41  1  0
 14 42  1  0
 18 43  1  0
 19 44  1  0
 21 45  1  0
 24 46  1  0
 25 47  1  0
M  END
>  <smiles>  (10) 
Cc1ccccc1[C@H](C)NC(=O)CNC(=O)c1ccc2cc(Cl)ccc2n1

>  <score_type>  (10) 
oracle

>  <origin>  (10) 
autodockgpu

>  <m_score__min__energy>  (10) 
-8.6600000000000001

>  <m_primary>  (10) 
energy

>  <rmsd>  (10) 
9.98367180108791

>  <m_score__min__rmsd>  (10) 
9.98367180108791

>  <meeko>  (10) 
{"free_energy": -7.71, "intermolecular_energy": -9.2, "internal_energy": -1.4, "cluster_size": 20, "cluster_id": 3, "rank_in_cluster": 14}

>  <energy>  (10) 
-7.69

>  <cluster_rmsd>  (10) 
1.54

>  <cluster>  (10) 
1

$$$$

     RDKit          3D

 47 49  0  0  0  0  0  0  0  0999 V2000
  138.4650   68.5640  225.5230 C   0  0  0  0  0  0  0  0  0  0  0  0
  139.3680   69.7160  225.7690 C   0  0  0  0  0  0  0  0  0  0  0  0
  139.9880   69.9320  226.9960 C   0  0  0  0  0  0  0  0  0  0  0  0
  140.8280   71.0030  227.2220 C   0  0  0  0  0  0  0  0  0  0  0  0
  141.0650   71.8980  226.1980 C   0  0  0  0  0  0  0  0  0  0  0  0
  140.4510   71.6880  224.9740 C   0  0  0  0  0  0  0  0  0  0  0  0
  139.6090   70.6220  224.7310 C   0  0  0  0  0  0  0  0  0  0  0  0
  138.9650   70.4170  223.4210 C   0  0  2  0  0  0  0  0  0  0  0  0
  139.9420   70.1890  222.2960 C   0  0  0  0  0  0  0  0  0  0  0  0
  138.1920   71.6020  223.1010 N   0  0  0  0  0  0  0  0  0  0  0  0
  136.7870   71.4870  222.8160 C   0  0  0  0  0  0  0  0  0  0  0  0
  136.2120   70.3480  222.8410 O   0  0  0  0  0  0  0  0  0  0  0  0
  136.0060   72.7130  222.4890 C   0  0  0  0  0  0  0  0  0  0  0  0
  136.8200   73.8640  222.8100 N   0  0  0  0  0  0  0  0  0  0  0  0
  137.8850   74.1690  221.9060 C   0  0  0  0  0  0  0  0  0  0  0  0
  137.9950   73.3800  220.9110 O   0  0  0  0  0  0  0  0  0  0  0  0
  138.7770   75.2930  222.1070 C   0  0  0  0  0  0  0  0  0  0  0  0
  140.1000   75.1300  221.7900 C   0  0  0  0  0  0  0  0  0  0  0  0
  141.0440   76.1280  221.9380 C   0  0  0  0  0  0  0  0  0  0  0  0
  140.6160   77.3390  222.4290 C   0  0  0  0  0  0  0  0  0  0  0  0
  141.5240   78.3420  222.5860 C   0  0  0  0  0  0  0  0  0  0  0  0
  141.0700   79.5630  223.0850 C   0  0  0  0  0  0  0  0  0  0  0  0
  142.2540   80.8410  223.2800 Cl  0  0  0  0  0  0  0  0  0  0  0  0
  139.7500   79.7600  223.4130 C   0  0  0  0  0  0  0  0  0  0  0  0
  138.8790   78.7080  223.2320 C   0  0  0  0  0  0  0  0  0  0  0  0
  139.2610   77.4830  222.7460 C   0  0  0  0  0  0  0  0  0  0  0  0
  138.3870   76.4810  222.5830 N   0  0  0  0  0  0  0  0  0  0  0  0
  138.1359   68.1441  226.4850 H   0  0  0  0  0  0  0  0  0  0  0  0
  137.5881   68.9011  224.9508 H   0  0  0  0  0  0  0  0  0  0  0  0
  139.0018   67.7930  224.9508 H   0  0  0  0  0  0  0  0  0  0  0  0
  139.8015   69.2228  227.8159 H   0  0  0  0  0  0  0  0  0  0  0  0
  141.3024   71.1418  228.2047 H   0  0  0  0  0  0  0  0  0  0  0  0
  141.7289   72.7616  226.3510 H   0  0  0  0  0  0  0  0  0  0  0  0
  140.6431   72.4025  224.1600 H   0  0  0  0  0  0  0  0  0  0  0  0
  138.3447   69.5129  223.5089 H   0  0  0  0  0  0  0  0  0  0  0  0
  140.9334   69.9576  222.7126 H   0  0  0  0  0  0  0  0  0  0  0  0
  139.5987   69.3468  221.6772 H   0  0  0  0  0  0  0  0  0  0  0  0
  140.0069   71.0961  221.6772 H   0  0  0  0  0  0  0  0  0  0  0  0
  138.5940   72.5650  223.0620 H   0  0  0  0  0  0  0  0  0  0  0  0
  135.7555   72.7207  221.4179 H   0  0  0  0  0  0  0  0  0  0  0  0
  135.0710   72.7345  223.0680 H   0  0  0  0  0  0  0  0  0  0  0  0
  136.6730   74.4650  223.6410 H   0  0  0  0  0  0  0  0  0  0  0  0
  140.4270   74.1556  221.3980 H   0  0  0  0  0  0  0  0  0  0  0  0
  142.0983   75.9601  221.6730 H   0  0  0  0  0  0  0  0  0  0  0  0
  142.5828   78.1938  222.3272 H   0  0  0  0  0  0  0  0  0  0  0  0
  139.4005   80.7257  223.8070 H   0  0  0  0  0  0  0  0  0  0  0  0
  137.8205   78.8582  223.4910 H   0  0  0  0  0  0  0  0  0  0  0  0
  1  2  1  0
  2  3  2  0
  3  4  1  0
  4  5  2  0
  5  6  1  0
  6  7  2  0
  7  8  1  0
  8  9  1  0
  8 10  1  0
 10 11  1  0
 11 12  2  0
 11 13  1  0
 13 14  1  0
 14 15  1  0
 15 16  2  0
 15 17  1  0
 17 18  2  0
 18 19  1  0
 19 20  2  0
 20 21  1  0
 21 22  2  0
 22 23  1  0
 22 24  1  0
 24 25  2  0
 25 26  1  0
 26 27  2  0
  7  2  1  0
 27 17  1  0
 26 20  1  0
  1 28  1  0
  1 29  1  0
  1 30  1  0
  3 31  1  0
  4 32  1  0
  5 33  1  0
  6 34  1  0
  8 35  1  1
  9 36  1  0
  9 37  1  0
  9 38  1  0
 10 39  1  0
 13 40  1  0
 13 41  1  0
 14 42  1  0
 18 43  1  0
 19 44  1  0
 21 45  1  0
 24 46  1  0
 25 47  1  0
M  END
>  <smiles>  (11) 
Cc1ccccc1[C@H](C)NC(=O)CNC(=O)c1ccc2cc(Cl)ccc2n1

>  <score_type>  (11) 
oracle

>  <origin>  (11) 
autodockgpu

>  <m_score__min__energy>  (11) 
-8.6600000000000001

>  <m_primary>  (11) 
energy

>  <rmsd>  (11) 
9.294421532742918

>  <m_score__min__rmsd>  (11) 
9.294421532742918

>  <meeko>  (11) 
{"free_energy": -7.58, "intermolecular_energy": -9.07, "internal_energy": -1.73, "cluster_size": 20, "cluster_id": 3, "rank_in_cluster": 16}

>  <energy>  (11) 
-7.64

>  <cluster_rmsd>  (11) 
1.67

>  <cluster>  (11) 
1

$$$$

     RDKit          3D

 47 49  0  0  0  0  0  0  0  0999 V2000
  142.5180   79.2900  223.0950 C   0  0  0  0  0  0  0  0  0  0  0  0
  141.0490   79.0810  223.1140 C   0  0  0  0  0  0  0  0  0  0  0  0
  140.1880   79.8850  223.8540 C   0  0  0  0  0  0  0  0  0  0  0  0
  138.8230   79.6880  223.8700 C   0  0  0  0  0  0  0  0  0  0  0  0
  138.2850   78.6570  223.1280 C   0  0  0  0  0  0  0  0  0  0  0  0
  139.1360   77.8520  222.3880 C   0  0  0  0  0  0  0  0  0  0  0  0
  140.5040   78.0360  222.3600 C   0  0  0  0  0  0  0  0  0  0  0  0
  141.3930   77.1680  221.5670 C   0  0  2  0  0  0  0  0  0  0  0  0
  141.9300   77.8280  220.3230 C   0  0  0  0  0  0  0  0  0  0  0  0
  140.6430   75.9960  221.1570 N   0  0  0  0  0  0  0  0  0  0  0  0
  141.3040   74.9300  220.4550 C   0  0  0  0  0  0  0  0  0  0  0  0
  142.5500   75.0040  220.1880 O   0  0  0  0  0  0  0  0  0  0  0  0
  140.5200   73.7330  220.0410 C   0  0  0  0  0  0  0  0  0  0  0  0
  140.6880   72.7130  221.0510 N   0  0  0  0  0  0  0  0  0  0  0  0
  139.9780   72.9030  222.2780 C   0  0  0  0  0  0  0  0  0  0  0  0
  139.2730   73.9620  222.3380 O   0  0  0  0  0  0  0  0  0  0  0  0
  140.0560   71.9580  223.3740 C   0  0  0  0  0  0  0  0  0  0  0  0
  139.6250   70.6760  223.1520 C   0  0  0  0  0  0  0  0  0  0  0  0
  139.6500   69.6890  224.1180 C   0  0  0  0  0  0  0  0  0  0  0  0
  140.1330   70.0290  225.3590 C   0  0  0  0  0  0  0  0  0  0  0  0
  140.1700   69.0760  226.3330 C   0  0  0  0  0  0  0  0  0  0  0  0
  140.6640   69.4390  227.5850 C   0  0  0  0  0  0  0  0  0  0  0  0
  140.7030   68.2000  228.8240 Cl  0  0  0  0  0  0  0  0  0  0  0  0
  141.1040   70.7160  227.8430 C   0  0  0  0  0  0  0  0  0  0  0  0
  141.0420   71.6360  226.8180 C   0  0  0  0  0  0  0  0  0  0  0  0
  140.5680   71.3430  225.5650 C   0  0  0  0  0  0  0  0  0  0  0  0
  140.5220   72.2620  224.5920 N   0  0  0  0  0  0  0  0  0  0  0  0
  142.8941   79.3435  224.1273 H   0  0  0  0  0  0  0  0  0  0  0  0
  143.0009   78.4515  222.5718 H   0  0  0  0  0  0  0  0  0  0  0  0
  142.7479   80.2299  222.5718 H   0  0  0  0  0  0  0  0  0  0  0  0
  140.6114   80.7081  224.4483 H   0  0  0  0  0  0  0  0  0  0  0  0
  138.1721   80.3442  224.4664 H   0  0  0  0  0  0  0  0  0  0  0  0
  137.1998   78.4772  223.1239 H   0  0  0  0  0  0  0  0  0  0  0  0
  138.7031   77.0311  221.7975 H   0  0  0  0  0  0  0  0  0  0  0  0
  142.2522   76.9218  222.2082 H   0  0  0  0  0  0  0  0  0  0  0  0
  142.6009   78.6526  220.6058 H   0  0  0  0  0  0  0  0  0  0  0  0
  142.4872   77.0897  219.7276 H   0  0  0  0  0  0  0  0  0  0  0  0
  141.0938   78.2234  219.7276 H   0  0  0  0  0  0  0  0  0  0  0  0
  139.6240   75.8660  221.3400 H   0  0  0  0  0  0  0  0  0  0  0  0
  139.4559   73.9972  219.9517 H   0  0  0  0  0  0  0  0  0  0  0  0
  140.8734   73.3652  219.0664 H   0  0  0  0  0  0  0  0  0  0  0  0
  141.2810   71.8710  220.9340 H   0  0  0  0  0  0  0  0  0  0  0  0
  139.2397   70.4202  222.1540 H   0  0  0  0  0  0  0  0  0  0  0  0
  139.2968   68.6698  223.9023 H   0  0  0  0  0  0  0  0  0  0  0  0
  139.8206   68.0515  226.1370 H   0  0  0  0  0  0  0  0  0  0  0  0
  141.4924   70.9942  228.8339 H   0  0  0  0  0  0  0  0  0  0  0  0
  141.3915   72.6600  227.0159 H   0  0  0  0  0  0  0  0  0  0  0  0
  1  2  1  0
  2  3  2  0
  3  4  1  0
  4  5  2  0
  5  6  1  0
  6  7  2  0
  7  8  1  0
  8  9  1  0
  8 10  1  0
 10 11  1  0
 11 12  2  0
 11 13  1  0
 13 14  1  0
 14 15  1  0
 15 16  2  0
 15 17  1  0
 17 18  2  0
 18 19  1  0
 19 20  2  0
 20 21  1  0
 21 22  2  0
 22 23  1  0
 22 24  1  0
 24 25  2  0
 25 26  1  0
 26 27  2  0
  7  2  1  0
 27 17  1  0
 26 20  1  0
  1 28  1  0
  1 29  1  0
  1 30  1  0
  3 31  1  0
  4 32  1  0
  5 33  1  0
  6 34  1  0
  8 35  1  1
  9 36  1  0
  9 37  1  0
  9 38  1  0
 10 39  1  0
 13 40  1  0
 13 41  1  0
 14 42  1  0
 18 43  1  0
 19 44  1  0
 21 45  1  0
 24 46  1  0
 25 47  1  0
M  END
>  <smiles>  (12) 
Cc1ccccc1[C@H](C)NC(=O)CNC(=O)c1ccc2cc(Cl)ccc2n1

>  <score_type>  (12) 
oracle

>  <origin>  (12) 
autodockgpu

>  <m_score__min__energy>  (12) 
-8.6600000000000001

>  <m_primary>  (12) 
energy

>  <rmsd>  (12) 
4.111424189082398

>  <m_score__min__rmsd>  (12) 
4.111424189082398

>  <meeko>  (12) 
{"free_energy": -7.87, "intermolecular_energy": -9.36, "internal_energy": -1.6, "cluster_size": 15, "cluster_id": 2, "rank_in_cluster": 15}

>  <energy>  (12) 
-7.63

>  <cluster_rmsd>  (12) 
1.68

>  <cluster>  (12) 
1

$$$$

     RDKit          3D

 47 49  0  0  0  0  0  0  0  0999 V2000
  139.2340   69.3740  228.7370 C   0  0  0  0  0  0  0  0  0  0  0  0
  140.0430   70.2610  227.8640 C   0  0  0  0  0  0  0  0  0  0  0  0
  140.6410   71.4280  228.3320 C   0  0  0  0  0  0  0  0  0  0  0  0
  141.3930   72.2510  227.5190 C   0  0  0  0  0  0  0  0  0  0  0  0
  141.5610   71.9110  226.1920 C   0  0  0  0  0  0  0  0  0  0  0  0
  140.9690   70.7510  225.7200 C   0  0  0  0  0  0  0  0  0  0  0  0
  140.2140   69.9170  226.5190 C   0  0  0  0  0  0  0  0  0  0  0  0
  139.5910   68.6870  225.9970 C   0  0  2  0  0  0  0  0  0  0  0  0
  140.4790   67.4720  226.0930 C   0  0  0  0  0  0  0  0  0  0  0  0
  139.2740   68.8930  224.5970 N   0  0  0  0  0  0  0  0  0  0  0  0
  138.0350   69.5210  224.2270 C   0  0  0  0  0  0  0  0  0  0  0  0
  137.2070   69.8990  225.1220 O   0  0  0  0  0  0  0  0  0  0  0  0
  137.7230   69.7270  222.7850 C   0  0  0  0  0  0  0  0  0  0  0  0
  138.0980   71.0770  222.4320 N   0  0  0  0  0  0  0  0  0  0  0  0
  139.4980   71.3500  222.3340 C   0  0  0  0  0  0  0  0  0  0  0  0
  140.2620   70.3590  222.5740 O   0  0  0  0  0  0  0  0  0  0  0  0
  140.0120   72.6600  221.9880 C   0  0  0  0  0  0  0  0  0  0  0  0
  141.1630   72.7250  221.2460 C   0  0  0  0  0  0  0  0  0  0  0  0
  141.7480   73.9140  220.8560 C   0  0  0  0  0  0  0  0  0  0  0  0
  141.1310   75.0810  221.2410 C   0  0  0  0  0  0  0  0  0  0  0  0
  141.6850   76.2690  220.8700 C   0  0  0  0  0  0  0  0  0  0  0  0
  141.0440   77.4420  221.2700 C   0  0  0  0  0  0  0  0  0  0  0  0
  141.7720   78.9610  220.7840 Cl  0  0  0  0  0  0  0  0  0  0  0  0
  139.8890   77.4130  222.0150 C   0  0  0  0  0  0  0  0  0  0  0  0
  139.3760   76.1810  222.3580 C   0  0  0  0  0  0  0  0  0  0  0  0
  139.9570   74.9910  221.9970 C   0  0  0  0  0  0  0  0  0  0  0  0
  139.4320   73.8110  222.3500 N   0  0  0  0  0  0  0  0  0  0  0  0
  139.4452   69.6055  229.7914 H   0  0  0  0  0  0  0  0  0  0  0  0
  138.1651   69.5348  228.5333 H   0  0  0  0  0  0  0  0  0  0  0  0
  139.4922   68.3243  228.5333 H   0  0  0  0  0  0  0  0  0  0  0  0
  140.5091   71.7040  229.3886 H   0  0  0  0  0  0  0  0  0  0  0  0
  141.8522   73.1653  227.9229 H   0  0  0  0  0  0  0  0  0  0  0  0
  142.1544   72.5497  225.5212 H   0  0  0  0  0  0  0  0  0  0  0  0
  141.1068   70.4830  224.6621 H   0  0  0  0  0  0  0  0  0  0  0  0
  138.6998   68.4952  226.6126 H   0  0  0  0  0  0  0  0  0  0  0  0
  140.6560   67.2299  227.1513 H   0  0  0  0  0  0  0  0  0  0  0  0
  139.9893   66.6199  225.5989 H   0  0  0  0  0  0  0  0  0  0  0  0
  141.4395   67.6799  225.5989 H   0  0  0  0  0  0  0  0  0  0  0  0
  139.9010   68.6100  223.8120 H   0  0  0  0  0  0  0  0  0  0  0  0
  138.2921   69.0104  222.1745 H   0  0  0  0  0  0  0  0  0  0  0  0
  136.6499   69.5697  222.6015 H   0  0  0  0  0  0  0  0  0  0  0  0
  137.4190   71.8390  222.2490 H   0  0  0  0  0  0  0  0  0  0  0  0
  141.6449   71.7828  220.9461 H   0  0  0  0  0  0  0  0  0  0  0  0
  142.6725   73.9268  220.2600 H   0  0  0  0  0  0  0  0  0  0  0  0
  142.6088   76.3024  220.2737 H   0  0  0  0  0  0  0  0  0  0  0  0
  139.3908   78.3427  222.3270 H   0  0  0  0  0  0  0  0  0  0  0  0
  138.4514   76.1495  222.9530 H   0  0  0  0  0  0  0  0  0  0  0  0
  1  2  1  0
  2  3  2  0
  3  4  1  0
  4  5  2  0
  5  6  1  0
  6  7  2  0
  7  8  1  0
  8  9  1  0
  8 10  1  0
 10 11  1  0
 11 12  2  0
 11 13  1  0
 13 14  1  0
 14 15  1  0
 15 16  2  0
 15 17  1  0
 17 18  2  0
 18 19  1  0
 19 20  2  0
 20 21  1  0
 21 22  2  0
 22 23  1  0
 22 24  1  0
 24 25  2  0
 25 26  1  0
 26 27  2  0
  7  2  1  0
 27 17  1  0
 26 20  1  0
  1 28  1  0
  1 29  1  0
  1 30  1  0
  3 31  1  0
  4 32  1  0
  5 33  1  0
  6 34  1  0
  8 35  1  1
  9 36  1  0
  9 37  1  0
  9 38  1  0
 10 39  1  0
 13 40  1  0
 13 41  1  0
 14 42  1  0
 18 43  1  0
 19 44  1  0
 21 45  1  0
 24 46  1  0
 25 47  1  0
M  END
>  <smiles>  (13) 
Cc1ccccc1[C@H](C)NC(=O)CNC(=O)c1ccc2cc(Cl)ccc2n1

>  <score_type>  (13) 
oracle

>  <origin>  (13) 
autodockgpu

>  <m_score__min__energy>  (13) 
-8.6600000000000001

>  <m_primary>  (13) 
energy

>  <rmsd>  (13) 
9.87681230529793

>  <m_score__min__rmsd>  (13) 
9.87681230529793

>  <meeko>  (13) 
{"free_energy": -7.99, "intermolecular_energy": -9.48, "internal_energy": -2.26, "cluster_size": 20, "cluster_id": 3, "rank_in_cluster": 5}

>  <energy>  (13) 
-8.54

>  <cluster_rmsd>  (13) 
0.0

>  <cluster>  (13) 
2

$$$$

     RDKit          3D

 47 49  0  0  0  0  0  0  0  0999 V2000
  141.4640   79.5050  220.0000 C   0  0  0  0  0  0  0  0  0  0  0  0
  141.7330   79.5670  221.4580 C   0  0  0  0  0  0  0  0  0  0  0  0
  142.5700   80.5230  222.0240 C   0  0  0  0  0  0  0  0  0  0  0  0
  142.8190   80.5800  223.3800 C   0  0  0  0  0  0  0  0  0  0  0  0
  142.2190   79.6550  224.2110 C   0  0  0  0  0  0  0  0  0  0  0  0
  141.3840   78.7000  223.6540 C   0  0  0  0  0  0  0  0  0  0  0  0
  141.1240   78.6300  222.3000 C   0  0  0  0  0  0  0  0  0  0  0  0
  140.2330   77.6050  221.7270 C   0  0  2  0  0  0  0  0  0  0  0  0
  139.1200   77.1850  222.6530 C   0  0  0  0  0  0  0  0  0  0  0  0
  141.0250   76.4280  221.4250 N   0  0  0  0  0  0  0  0  0  0  0  0
  140.5340   75.4550  220.4860 C   0  0  0  0  0  0  0  0  0  0  0  0
  139.4040   75.6170  219.9150 O   0  0  0  0  0  0  0  0  0  0  0  0
  141.3580   74.2510  220.1860 C   0  0  0  0  0  0  0  0  0  0  0  0
  141.4430   73.4520  221.3870 N   0  0  0  0  0  0  0  0  0  0  0  0
  140.2680   72.7280  221.7610 C   0  0  0  0  0  0  0  0  0  0  0  0
  139.2700   72.8740  220.9830 O   0  0  0  0  0  0  0  0  0  0  0  0
  140.2150   71.8890  222.9420 C   0  0  0  0  0  0  0  0  0  0  0  0
  139.6300   70.6550  222.8290 C   0  0  0  0  0  0  0  0  0  0  0  0
  139.5200   69.7680  223.8820 C   0  0  0  0  0  0  0  0  0  0  0  0
  140.0290   70.1610  225.0980 C   0  0  0  0  0  0  0  0  0  0  0  0
  139.9350   69.3070  226.1550 C   0  0  0  0  0  0  0  0  0  0  0  0
  140.4570   69.7230  227.3800 C   0  0  0  0  0  0  0  0  0  0  0  0
  140.3270   68.6110  228.7290 Cl  0  0  0  0  0  0  0  0  0  0  0  0
  141.0500   70.9550  227.5280 C   0  0  0  0  0  0  0  0  0  0  0  0
  141.1160   71.7740  226.4220 C   0  0  0  0  0  0  0  0  0  0  0  0
  140.6220   71.4250  225.1910 C   0  0  0  0  0  0  0  0  0  0  0  0
  140.7010   72.2470  224.1360 N   0  0  0  0  0  0  0  0  0  0  0  0
  140.4046   79.2608  219.8327 H   0  0  0  0  0  0  0  0  0  0  0  0
  141.6923   80.4793  219.5433 H   0  0  0  0  0  0  0  0  0  0  0  0
  142.0957   78.7289  219.5433 H   0  0  0  0  0  0  0  0  0  0  0  0
  143.0515   81.2613  221.3659 H   0  0  0  0  0  0  0  0  0  0  0  0
  143.4859   81.3512  223.7929 H   0  0  0  0  0  0  0  0  0  0  0  0
  142.4006   79.6759  225.2957 H   0  0  0  0  0  0  0  0  0  0  0  0
  140.9074   77.9654  224.3198 H   0  0  0  0  0  0  0  0  0  0  0  0
  139.7696   78.0488  220.8335 H   0  0  0  0  0  0  0  0  0  0  0  0
  139.4453   77.3078  223.6966 H   0  0  0  0  0  0  0  0  0  0  0  0
  138.2342   77.8107  222.4690 H   0  0  0  0  0  0  0  0  0  0  0  0
  138.8684   76.1301  222.4690 H   0  0  0  0  0  0  0  0  0  0  0  0
  141.9560   76.2290  221.8520 H   0  0  0  0  0  0  0  0  0  0  0  0
  140.8853   73.6668  219.3827 H   0  0  0  0  0  0  0  0  0  0  0  0
  142.3639   74.5510  219.8570 H   0  0  0  0  0  0  0  0  0  0  0  0
  142.2920   73.3790  221.9770 H   0  0  0  0  0  0  0  0  0  0  0  0
  139.2276   70.3556  221.8500 H   0  0  0  0  0  0  0  0  0  0  0  0
  139.0436   68.7849  223.7532 H   0  0  0  0  0  0  0  0  0  0  0  0
  139.4621   68.3198  226.0460 H   0  0  0  0  0  0  0  0  0  0  0  0
  141.4583   71.2760  228.4977 H   0  0  0  0  0  0  0  0  0  0  0  0
  141.5902   72.7604  226.5321 H   0  0  0  0  0  0  0  0  0  0  0  0
  1  2  1  0
  2  3  2  0
  3  4  1  0
  4  5  2  0
  5  6  1  0
  6  7  2  0
  7  8  1  0
  8  9  1  0
  8 10  1  0
 10 11  1  0
 11 12  2  0
 11 13  1  0
 13 14  1  0
 14 15  1  0
 15 16  2  0
 15 17  1  0
 17 18  2  0
 18 19  1  0
 19 20  2  0
 20 21  1  0
 21 22  2  0
 22 23  1  0
 22 24  1  0
 24 25  2  0
 25 26  1  0
 26 27  2  0
  7  2  1  0
 27 17  1  0
 26 20  1  0
  1 28  1  0
  1 29  1  0
  1 30  1  0
  3 31  1  0
  4 32  1  0
  5 33  1  0
  6 34  1  0
  8 35  1  6
  9 36  1  0
  9 37  1  0
  9 38  1  0
 10 39  1  0
 13 40  1  0
 13 41  1  0
 14 42  1  0
 18 43  1  0
 19 44  1  0
 21 45  1  0
 24 46  1  0
 25 47  1  0
M  END
>  <smiles>  (14) 
Cc1ccccc1[C@H](C)NC(=O)CNC(=O)c1ccc2cc(Cl)ccc2n1

>  <score_type>  (14) 
oracle

>  <origin>  (14) 
autodockgpu

>  <m_score__min__energy>  (14) 
-8.6600000000000001

>  <m_primary>  (14) 
energy

>  <rmsd>  (14) 
4.088658175607744

>  <m_score__min__rmsd>  (14) 
4.088658175607744

>  <meeko>  (14) 
{"free_energy": -8.5, "intermolecular_energy": -9.99, "internal_energy": -1.18, "cluster_size": 15, "cluster_id": 2, "rank_in_cluster": 2}

>  <energy>  (14) 
-8.5

>  <cluster_rmsd>  (14) 
0.11

>  <cluster>  (14) 
2

$$$$

     RDKit          3D

 47 49  0  0  0  0  0  0  0  0999 V2000
  141.4910   80.4030  219.8990 C   0  0  0  0  0  0  0  0  0  0  0  0
  141.5440   80.0180  221.3310 C   0  0  0  0  0  0  0  0  0  0  0  0
  142.5950   80.3850  222.1670 C   0  0  0  0  0  0  0  0  0  0  0  0
  142.6420   80.0260  223.4970 C   0  0  0  0  0  0  0  0  0  0  0  0
  141.6130   79.2730  224.0260 C   0  0  0  0  0  0  0  0  0  0  0  0
  140.5630   78.9040  223.2000 C   0  0  0  0  0  0  0  0  0  0  0  0
  140.5000   79.2550  221.8670 C   0  0  0  0  0  0  0  0  0  0  0  0
  139.3750   78.8520  221.0040 C   0  0  2  0  0  0  0  0  0  0  0  0
  138.0310   78.9450  221.6810 C   0  0  0  0  0  0  0  0  0  0  0  0
  139.5750   77.4720  220.6070 N   0  0  0  0  0  0  0  0  0  0  0  0
  139.3590   76.4130  221.5560 C   0  0  0  0  0  0  0  0  0  0  0  0
  138.9920   76.6770  222.7500 O   0  0  0  0  0  0  0  0  0  0  0  0
  139.5690   75.0000  221.1340 C   0  0  0  0  0  0  0  0  0  0  0  0
  139.5480   74.1690  222.3160 N   0  0  0  0  0  0  0  0  0  0  0  0
  140.0430   72.8350  222.1720 C   0  0  0  0  0  0  0  0  0  0  0  0
  140.4490   72.5300  221.0030 O   0  0  0  0  0  0  0  0  0  0  0  0
  140.0800   71.8960  223.2760 C   0  0  0  0  0  0  0  0  0  0  0  0
  139.5970   70.6320  223.0620 C   0  0  0  0  0  0  0  0  0  0  0  0
  139.5800   69.6520  224.0350 C   0  0  0  0  0  0  0  0  0  0  0  0
  140.0750   69.9800  225.2750 C   0  0  0  0  0  0  0  0  0  0  0  0
  140.0710   69.0340  226.2550 C   0  0  0  0  0  0  0  0  0  0  0  0
  140.5790   69.3860  227.5050 C   0  0  0  0  0  0  0  0  0  0  0  0
  140.5650   68.1550  228.7540 Cl  0  0  0  0  0  0  0  0  0  0  0  0
  141.0710   70.6460  227.7540 C   0  0  0  0  0  0  0  0  0  0  0  0
  141.0480   71.5590  226.7230 C   0  0  0  0  0  0  0  0  0  0  0  0
  140.5630   71.2770  225.4710 C   0  0  0  0  0  0  0  0  0  0  0  0
  140.5560   72.1900  224.4910 N   0  0  0  0  0  0  0  0  0  0  0  0
  141.3414   81.4897  219.8168 H   0  0  0  0  0  0  0  0  0  0  0  0
  142.4359   80.1249  219.4093 H   0  0  0  0  0  0  0  0  0  0  0  0
  140.6564   79.8799  219.4093 H   0  0  0  0  0  0  0  0  0  0  0  0
  143.4185   80.9837  221.7507 H   0  0  0  0  0  0  0  0  0  0  0  0
  143.4880   80.3353  224.1283 H   0  0  0  0  0  0  0  0  0  0  0  0
  141.6262   78.9714  225.0838 H   0  0  0  0  0  0  0  0  0  0  0  0
  139.7442   78.3053  223.6256 H   0  0  0  0  0  0  0  0  0  0  0  0
  139.3640   79.5448  220.1496 H   0  0  0  0  0  0  0  0  0  0  0  0
  138.1687   78.9355  222.7723 H   0  0  0  0  0  0  0  0  0  0  0  0
  137.5339   79.8797  221.3823 H   0  0  0  0  0  0  0  0  0  0  0  0
  137.4099   78.0877  221.3823 H   0  0  0  0  0  0  0  0  0  0  0  0
  139.8740   77.1800  219.6510 H   0  0  0  0  0  0  0  0  0  0  0  0
  138.7657   74.6927  220.4482 H   0  0  0  0  0  0  0  0  0  0  0  0
  140.5329   74.8975  220.6140 H   0  0  0  0  0  0  0  0  0  0  0  0
  139.2020   74.4840  223.2410 H   0  0  0  0  0  0  0  0  0  0  0  0
  139.2029   70.3852  222.0651 H   0  0  0  0  0  0  0  0  0  0  0  0
  139.1853   68.6468  223.8257 H   0  0  0  0  0  0  0  0  0  0  0  0
  139.6792   68.0236  226.0662 H   0  0  0  0  0  0  0  0  0  0  0  0
  141.4694   70.9155  228.7432 H   0  0  0  0  0  0  0  0  0  0  0  0
  141.4397   72.5690  226.9138 H   0  0  0  0  0  0  0  0  0  0  0  0
  1  2  1  0
  2  3  2  0
  3  4  1  0
  4  5  2  0
  5  6  1  0
  6  7  2  0
  7  8  1  0
  8  9  1  0
  8 10  1  0
 10 11  1  0
 11 12  2  0
 11 13  1  0
 13 14  1  0
 14 15  1  0
 15 16  2  0
 15 17  1  0
 17 18  2  0
 18 19  1  0
 19 20  2  0
 20 21  1  0
 21 22  2  0
 22 23  1  0
 22 24  1  0
 24 25  2  0
 25 26  1  0
 26 27  2  0
  7  2  1  0
 27 17  1  0
 26 20  1  0
  1 28  1  0
  1 29  1  0
  1 30  1  0
  3 31  1  0
  4 32  1  0
  5 33  1  0
  6 34  1  0
  8 35  1  6
  9 36  1  0
  9 37  1  0
  9 38  1  0
 10 39  1  0
 13 40  1  0
 13 41  1  0
 14 42  1  0
 18 43  1  0
 19 44  1  0
 21 45  1  0
 24 46  1  0
 25 47  1  0
M  END
>  <smiles>  (15) 
Cc1ccccc1[C@H](C)NC(=O)CNC(=O)c1ccc2cc(Cl)ccc2n1

>  <score_type>  (15) 
oracle

>  <origin>  (15) 
autodockgpu

>  <m_score__min__energy>  (15) 
-8.6600000000000001

>  <m_primary>  (15) 
energy

>  <rmsd>  (15) 
4.123964030422786

>  <m_score__min__rmsd>  (15) 
4.123964030422786

>  <meeko>  (15) 
{"free_energy": -8.31, "intermolecular_energy": -9.81, "internal_energy": -1.35, "cluster_size": 15, "cluster_id": 2, "rank_in_cluster": 8}

>  <energy>  (15) 
-8.49

>  <cluster_rmsd>  (15) 
1.01

>  <cluster>  (15) 
2

$$$$

     RDKit          3D

 47 49  0  0  0  0  0  0  0  0999 V2000
  141.8120   80.0410  219.9740 C   0  0  0  0  0  0  0  0  0  0  0  0
  141.6960   79.7950  221.4330 C   0  0  0  0  0  0  0  0  0  0  0  0
  142.7090   80.1190  222.3300 C   0  0  0  0  0  0  0  0  0  0  0  0
  142.5980   79.8900  223.6850 C   0  0  0  0  0  0  0  0  0  0  0  0
  141.4430   79.3160  224.1770 C   0  0  0  0  0  0  0  0  0  0  0  0
  140.4300   78.9900  223.2900 C   0  0  0  0  0  0  0  0  0  0  0  0
  140.5240   79.2140  221.9310 C   0  0  0  0  0  0  0  0  0  0  0  0
  139.4350   78.8600  221.0030 C   0  0  2  0  0  0  0  0  0  0  0  0
  138.0600   78.9960  221.6050 C   0  0  0  0  0  0  0  0  0  0  0  0
  139.6070   77.4760  220.6020 N   0  0  0  0  0  0  0  0  0  0  0  0
  139.3150   76.4190  221.5320 C   0  0  0  0  0  0  0  0  0  0  0  0
  138.9040   76.6860  222.7100 O   0  0  0  0  0  0  0  0  0  0  0  0
  139.4960   75.0020  221.1060 C   0  0  0  0  0  0  0  0  0  0  0  0
  139.5710   74.1820  222.2930 N   0  0  0  0  0  0  0  0  0  0  0  0
  139.8720   72.7980  222.1000 C   0  0  0  0  0  0  0  0  0  0  0  0
  140.0410   72.4440  220.8870 O   0  0  0  0  0  0  0  0  0  0  0  0
  139.9780   71.8630  223.2020 C   0  0  0  0  0  0  0  0  0  0  0  0
  139.5720   70.5710  222.9930 C   0  0  0  0  0  0  0  0  0  0  0  0
  139.6250   69.5920  223.9660 C   0  0  0  0  0  0  0  0  0  0  0  0
  140.1120   69.9510  225.2000 C   0  0  0  0  0  0  0  0  0  0  0  0
  140.1760   69.0060  226.1800 C   0  0  0  0  0  0  0  0  0  0  0  0
  140.6730   69.3890  227.4260 C   0  0  0  0  0  0  0  0  0  0  0  0
  140.7480   68.1600  228.6740 Cl  0  0  0  0  0  0  0  0  0  0  0  0
  141.0890   70.6760  227.6700 C   0  0  0  0  0  0  0  0  0  0  0  0
  141.0000   71.5860  226.6390 C   0  0  0  0  0  0  0  0  0  0  0  0
  140.5210   71.2750  225.3920 C   0  0  0  0  0  0  0  0  0  0  0  0
  140.4480   72.1850  224.4130 N   0  0  0  0  0  0  0  0  0  0  0  0
  142.2755   81.0239  219.8036 H   0  0  0  0  0  0  0  0  0  0  0  0
  142.4356   79.2576  219.5185 H   0  0  0  0  0  0  0  0  0  0  0  0
  140.8109   80.0238  219.5185 H   0  0  0  0  0  0  0  0  0  0  0  0
  143.6327   80.5748  221.9438 H   0  0  0  0  0  0  0  0  0  0  0  0
  143.4190   80.1611  224.3651 H   0  0  0  0  0  0  0  0  0  0  0  0
  141.3291   79.1210  225.2536 H   0  0  0  0  0  0  0  0  0  0  0  0
  139.5110   78.5329  223.6856 H   0  0  0  0  0  0  0  0  0  0  0  0
  139.4967   79.5605  220.1571 H   0  0  0  0  0  0  0  0  0  0  0  0
  138.1377   78.9883  222.7022 H   0  0  0  0  0  0  0  0  0  0  0  0
  137.6078   79.9433  221.2761 H   0  0  0  0  0  0  0  0  0  0  0  0
  137.4310   78.1557  221.2761 H   0  0  0  0  0  0  0  0  0  0  0  0
  139.9380   77.1820  219.6570 H   0  0  0  0  0  0  0  0  0  0  0  0
  138.6422   74.6865  220.4883 H   0  0  0  0  0  0  0  0  0  0  0  0
  140.4160   74.8974  220.5121 H   0  0  0  0  0  0  0  0  0  0  0  0
  139.4220   74.5380  223.2560 H   0  0  0  0  0  0  0  0  0  0  0  0
  139.1842   70.2997  222.0000 H   0  0  0  0  0  0  0  0  0  0  0  0
  139.2902   68.5644  223.7610 H   0  0  0  0  0  0  0  0  0  0  0  0
  139.8460   67.9732  225.9942 H   0  0  0  0  0  0  0  0  0  0  0  0
  141.4799   70.9698  228.6553 H   0  0  0  0  0  0  0  0  0  0  0  0
  141.3312   72.6181  226.8263 H   0  0  0  0  0  0  0  0  0  0  0  0
  1  2  1  0
  2  3  2  0
  3  4  1  0
  4  5  2  0
  5  6  1  0
  6  7  2  0
  7  8  1  0
  8  9  1  0
  8 10  1  0
 10 11  1  0
 11 12  2  0
 11 13  1  0
 13 14  1  0
 14 15  1  0
 15 16  2  0
 15 17  1  0
 17 18  2  0
 18 19  1  0
 19 20  2  0
 20 21  1  0
 21 22  2  0
 22 23  1  0
 22 24  1  0
 24 25  2  0
 25 26  1  0
 26 27  2  0
  7  2  1  0
 27 17  1  0
 26 20  1  0
  1 28  1  0
  1 29  1  0
  1 30  1  0
  3 31  1  0
  4 32  1  0
  5 33  1  0
  6 34  1  0
  8 35  1  6
  9 36  1  0
  9 37  1  0
  9 38  1  0
 10 39  1  0
 13 40  1  0
 13 41  1  0
 14 42  1  0
 18 43  1  0
 19 44  1  0
 21 45  1  0
 24 46  1  0
 25 47  1  0
M  END
>  <smiles>  (16) 
Cc1ccccc1[C@H](C)NC(=O)CNC(=O)c1ccc2cc(Cl)ccc2n1

>  <score_type>  (16) 
oracle

>  <origin>  (16) 
autodockgpu

>  <m_score__min__energy>  (16) 
-8.6600000000000001

>  <m_primary>  (16) 
energy

>  <rmsd>  (16) 
4.172572433147399

>  <m_score__min__rmsd>  (16) 
4.172572433147399

>  <meeko>  (16) 
{"free_energy": -8.26, "intermolecular_energy": -9.75, "internal_energy": -1.44, "cluster_size": 15, "cluster_id": 2, "rank_in_cluster": 10}

>  <energy>  (16) 
-8.49

>  <cluster_rmsd>  (16) 
0.13

>  <cluster>  (16) 
2

$$$$

     RDKit          3D

 47 49  0  0  0  0  0  0  0  0999 V2000
  139.5470   67.8760  225.8860 C   0  0  0  0  0  0  0  0  0  0  0  0
  139.9370   69.1890  226.4570 C   0  0  0  0  0  0  0  0  0  0  0  0
  140.2210   69.3620  227.8090 C   0  0  0  0  0  0  0  0  0  0  0  0
  140.5830   70.5840  228.3380 C   0  0  0  0  0  0  0  0  0  0  0  0
  140.6680   71.6790  227.5020 C   0  0  0  0  0  0  0  0  0  0  0  0
  140.3870   71.5130  226.1560 C   0  0  0  0  0  0  0  0  0  0  0  0
  140.0240   70.2990  225.6100 C   0  0  0  0  0  0  0  0  0  0  0  0
  139.7280   70.1430  224.1740 C   0  0  2  0  0  0  0  0  0  0  0  0
  140.0260   71.3760  223.3590 C   0  0  0  0  0  0  0  0  0  0  0  0
  138.3160   69.8480  224.0270 N   0  0  0  0  0  0  0  0  0  0  0  0
  137.8530   69.1010  222.8890 C   0  0  0  0  0  0  0  0  0  0  0  0
  138.6770   68.6950  222.0020 O   0  0  0  0  0  0  0  0  0  0  0  0
  136.4000   68.8040  222.7520 C   0  0  0  0  0  0  0  0  0  0  0  0
  135.6600   69.9310  223.2720 N   0  0  0  0  0  0  0  0  0  0  0  0
  135.3980   69.9340  224.6770 C   0  0  0  0  0  0  0  0  0  0  0  0
  135.8520   68.9290  225.3150 O   0  0  0  0  0  0  0  0  0  0  0  0
  134.6670   71.0020  225.3300 C   0  0  0  0  0  0  0  0  0  0  0  0
  133.7610   70.6630  226.3000 C   0  0  0  0  0  0  0  0  0  0  0  0
  133.0060   71.5910  226.9910 C   0  0  0  0  0  0  0  0  0  0  0  0
  133.1870   72.9170  226.6750 C   0  0  0  0  0  0  0  0  0  0  0  0
  132.4570   73.8560  227.3410 C   0  0  0  0  0  0  0  0  0  0  0  0
  132.6550   75.1950  227.0070 C   0  0  0  0  0  0  0  0  0  0  0  0
  131.7070   76.3880  227.8730 Cl  0  0  0  0  0  0  0  0  0  0  0  0
  133.5570   75.5710  226.0380 C   0  0  0  0  0  0  0  0  0  0  0  0
  134.2660   74.5750  225.4010 C   0  0  0  0  0  0  0  0  0  0  0  0
  134.1180   73.2410  225.6820 C   0  0  0  0  0  0  0  0  0  0  0  0
  134.8240   72.3000  225.0420 N   0  0  0  0  0  0  0  0  0  0  0  0
  139.3370   67.1690  226.7022 H   0  0  0  0  0  0  0  0  0  0  0  0
  138.6465   67.9986  225.2663 H   0  0  0  0  0  0  0  0  0  0  0  0
  140.3684   67.4871  225.2663 H   0  0  0  0  0  0  0  0  0  0  0  0
  140.1544   68.4929  228.4799 H   0  0  0  0  0  0  0  0  0  0  0  0
  140.8009   70.6841  229.4115 H   0  0  0  0  0  0  0  0  0  0  0  0
  140.9536   72.6650  227.8973 H   0  0  0  0  0  0  0  0  0  0  0  0
  140.4563   72.3879  225.4928 H   0  0  0  0  0  0  0  0  0  0  0  0
  140.3740   69.3345  223.8013 H   0  0  0  0  0  0  0  0  0  0  0  0
  140.2302   72.2207  224.0333 H   0  0  0  0  0  0  0  0  0  0  0  0
  140.9056   71.1924  222.7245 H   0  0  0  0  0  0  0  0  0  0  0  0
  139.1596   71.6144  222.7245 H   0  0  0  0  0  0  0  0  0  0  0  0
  137.5860   70.1460  224.7110 H   0  0  0  0  0  0  0  0  0  0  0  0
  136.1492   68.6505  221.6920 H   0  0  0  0  0  0  0  0  0  0  0  0
  136.1438   67.8905  223.3087 H   0  0  0  0  0  0  0  0  0  0  0  0
  135.3190   70.7190  222.6910 H   0  0  0  0  0  0  0  0  0  0  0  0
  133.6279   69.5980  226.5409 H   0  0  0  0  0  0  0  0  0  0  0  0
  132.2877   71.2811  227.7643 H   0  0  0  0  0  0  0  0  0  0  0  0
  131.7341   73.5662  228.1179 H   0  0  0  0  0  0  0  0  0  0  0  0
  133.7071   76.6299  225.7806 H   0  0  0  0  0  0  0  0  0  0  0  0
  134.9896   74.8661  224.6253 H   0  0  0  0  0  0  0  0  0  0  0  0
  1  2  1  0
  2  3  2  0
  3  4  1  0
  4  5  2  0
  5  6  1  0
  6  7  2  0
  7  8  1  0
  8  9  1  0
  8 10  1  0
 10 11  1  0
 11 12  2  0
 11 13  1  0
 13 14  1  0
 14 15  1  0
 15 16  2  0
 15 17  1  0
 17 18  2  0
 18 19  1  0
 19 20  2  0
 20 21  1  0
 21 22  2  0
 22 23  1  0
 22 24  1  0
 24 25  2  0
 25 26  1  0
 26 27  2  0
  7  2  1  0
 27 17  1  0
 26 20  1  0
  1 28  1  0
  1 29  1  0
  1 30  1  0
  3 31  1  0
  4 32  1  0
  5 33  1  0
  6 34  1  0
  8 35  1  6
  9 36  1  0
  9 37  1  0
  9 38  1  0
 10 39  1  0
 13 40  1  0
 13 41  1  0
 14 42  1  0
 18 43  1  0
 19 44  1  0
 21 45  1  0
 24 46  1  0
 25 47  1  0
M  END
>  <smiles>  (17) 
Cc1ccccc1[C@H](C)NC(=O)CNC(=O)c1ccc2cc(Cl)ccc2n1

>  <score_type>  (17) 
oracle

>  <origin>  (17) 
autodockgpu

>  <m_score__min__energy>  (17) 
-8.6600000000000001

>  <m_primary>  (17) 
energy

>  <rmsd>  (17) 
9.822640715296265

>  <m_score__min__rmsd>  (17) 
9.822640715296265

>  <meeko>  (17) 
{"free_energy": -7.63, "intermolecular_energy": -9.12, "internal_energy": -2.0, "cluster_size": 12, "cluster_id": 1, "rank_in_cluster": 12}

>  <energy>  (17) 
-8.42

>  <cluster_rmsd>  (17) 
1.44

>  <cluster>  (17) 
2

$$$$

     RDKit          3D

 47 49  0  0  0  0  0  0  0  0999 V2000
  142.7030   72.4970  218.3230 C   0  0  0  0  0  0  0  0  0  0  0  0
  143.7110   73.0030  219.2870 C   0  0  0  0  0  0  0  0  0  0  0  0
  144.6260   72.1660  219.9210 C   0  0  0  0  0  0  0  0  0  0  0  0
  145.5630   72.6380  220.8160 C   0  0  0  0  0  0  0  0  0  0  0  0
  145.5990   73.9880  221.1010 C   0  0  0  0  0  0  0  0  0  0  0  0
  144.6920   74.8260  220.4740 C   0  0  0  0  0  0  0  0  0  0  0  0
  143.7480   74.3710  219.5750 C   0  0  0  0  0  0  0  0  0  0  0  0
  142.7910   75.2800  218.9190 C   0  0  2  0  0  0  0  0  0  0  0  0
  142.9300   76.7180  219.3490 C   0  0  0  0  0  0  0  0  0  0  0  0
  141.4470   74.8470  219.2520 N   0  0  0  0  0  0  0  0  0  0  0  0
  140.9820   74.9330  220.6100 C   0  0  0  0  0  0  0  0  0  0  0  0
  141.7420   75.3880  221.5290 O   0  0  0  0  0  0  0  0  0  0  0  0
  139.5990   74.4840  220.9380 C   0  0  0  0  0  0  0  0  0  0  0  0
  139.6490   73.7440  222.1780 N   0  0  0  0  0  0  0  0  0  0  0  0
  139.9540   72.3510  222.0830 C   0  0  0  0  0  0  0  0  0  0  0  0
  140.1490   71.9180  220.9000 O   0  0  0  0  0  0  0  0  0  0  0  0
  140.0360   71.4910  223.2470 C   0  0  0  0  0  0  0  0  0  0  0  0
  139.5970   70.1990  223.1250 C   0  0  0  0  0  0  0  0  0  0  0  0
  139.6240   69.2880  224.1630 C   0  0  0  0  0  0  0  0  0  0  0  0
  140.1200   69.7170  225.3710 C   0  0  0  0  0  0  0  0  0  0  0  0
  140.1600   68.8400  226.4130 C   0  0  0  0  0  0  0  0  0  0  0  0
  140.6670   69.2940  227.6300 C   0  0  0  0  0  0  0  0  0  0  0  0
  140.7100   68.1510  228.9590 Cl  0  0  0  0  0  0  0  0  0  0  0  0
  141.1160   70.5840  227.7870 C   0  0  0  0  0  0  0  0  0  0  0  0
  141.0500   71.4240  226.6960 C   0  0  0  0  0  0  0  0  0  0  0  0
  140.5630   71.0400  225.4730 C   0  0  0  0  0  0  0  0  0  0  0  0
  140.5140   71.8830  224.4340 N   0  0  0  0  0  0  0  0  0  0  0  0
  141.8517   72.0697  218.8731 H   0  0  0  0  0  0  0  0  0  0  0  0
  142.3521   73.3258  217.6906 H   0  0  0  0  0  0  0  0  0  0  0  0
  143.1579   71.7204  217.6906 H   0  0  0  0  0  0  0  0  0  0  0  0
  144.6003   71.0888  219.6997 H   0  0  0  0  0  0  0  0  0  0  0  0
  146.2722   71.9478  221.2963 H   0  0  0  0  0  0  0  0  0  0  0  0
  146.3344   74.3908  221.8129 H   0  0  0  0  0  0  0  0  0  0  0  0
  144.7251   75.9015  220.7023 H   0  0  0  0  0  0  0  0  0  0  0  0
  142.9989   75.2363  217.8397 H   0  0  0  0  0  0  0  0  0  0  0  0
  142.9353   76.7733  220.4476 H   0  0  0  0  0  0  0  0  0  0  0  0
  143.8720   77.1286  218.9566 H   0  0  0  0  0  0  0  0  0  0  0  0
  142.0841   77.3015  218.9566 H   0  0  0  0  0  0  0  0  0  0  0  0
  140.7700   74.4640  218.5560 H   0  0  0  0  0  0  0  0  0  0  0  0
  138.9405   75.3578  221.0517 H   0  0  0  0  0  0  0  0  0  0  0  0
  139.2032   73.8493  220.1314 H   0  0  0  0  0  0  0  0  0  0  0  0
  139.4790   74.1630  223.1110 H   0  0  0  0  0  0  0  0  0  0  0  0
  139.2033   69.8706  222.1518 H   0  0  0  0  0  0  0  0  0  0  0  0
  139.2622   68.2580  224.0279 H   0  0  0  0  0  0  0  0  0  0  0  0
  139.8034   67.8058  226.2977 H   0  0  0  0  0  0  0  0  0  0  0  0
  141.5144   70.9340  228.7507 H   0  0  0  0  0  0  0  0  0  0  0  0
  141.4072   72.4578  226.8127 H   0  0  0  0  0  0  0  0  0  0  0  0
  1  2  1  0
  2  3  2  0
  3  4  1  0
  4  5  2  0
  5  6  1  0
  6  7  2  0
  7  8  1  0
  8  9  1  0
  8 10  1  0
 10 11  1  0
 11 12  2  0
 11 13  1  0
 13 14  1  0
 14 15  1  0
 15 16  2  0
 15 17  1  0
 17 18  2  0
 18 19  1  0
 19 20  2  0
 20 21  1  0
 21 22  2  0
 22 23  1  0
 22 24  1  0
 24 25  2  0
 25 26  1  0
 26 27  2  0
  7  2  1  0
 27 17  1  0
 26 20  1  0
  1 28  1  0
  1 29  1  0
  1 30  1  0
  3 31  1  0
  4 32  1  0
  5 33  1  0
  6 34  1  0
  8 35  1  6
  9 36  1  0
  9 37  1  0
  9 38  1  0
 10 39  1  0
 13 40  1  0
 13 41  1  0
 14 42  1  0
 18 43  1  0
 19 44  1  0
 21 45  1  0
 24 46  1  0
 25 47  1  0
M  END
>  <smiles>  (18) 
Cc1ccccc1[C@H](C)NC(=O)CNC(=O)c1ccc2cc(Cl)ccc2n1

>  <score_type>  (18) 
oracle

>  <origin>  (18) 
autodockgpu

>  <m_score__min__energy>  (18) 
-8.6600000000000001

>  <m_primary>  (18) 
energy

>  <rmsd>  (18) 
6.130000692005638

>  <m_score__min__rmsd>  (18) 
6.130000692005638

>  <meeko>  (18) 
{"free_energy": -7.89, "intermolecular_energy": -9.38, "internal_energy": -1.43, "cluster_size": 3, "cluster_id": 4, "rank_in_cluster": 1}

>  <energy>  (18) 
-8.38

>  <cluster_rmsd>  (18) 
1.03

>  <cluster>  (18) 
2

$$$$

     RDKit          3D

 47 49  0  0  0  0  0  0  0  0999 V2000
  139.5920   69.1600  228.6950 C   0  0  0  0  0  0  0  0  0  0  0  0
  140.2090   70.2140  227.8530 C   0  0  0  0  0  0  0  0  0  0  0  0
  140.8590   71.3190  228.3940 C   0  0  0  0  0  0  0  0  0  0  0  0
  141.4330   72.2980  227.6090 C   0  0  0  0  0  0  0  0  0  0  0  0
  141.3630   72.1830  226.2360 C   0  0  0  0  0  0  0  0  0  0  0  0
  140.7180   71.0850  225.6900 C   0  0  0  0  0  0  0  0  0  0  0  0
  140.1390   70.0970  226.4610 C   0  0  0  0  0  0  0  0  0  0  0  0
  139.4570   68.9360  225.8600 C   0  0  2  0  0  0  0  0  0  0  0  0
  140.2690   67.6680  225.9050 C   0  0  0  0  0  0  0  0  0  0  0  0
  139.1820   69.2370  224.4690 N   0  0  0  0  0  0  0  0  0  0  0  0
  137.8570   69.6250  224.0660 C   0  0  0  0  0  0  0  0  0  0  0  0
  136.9160   69.7070  224.9250 O   0  0  0  0  0  0  0  0  0  0  0  0
  137.5900   69.9310  222.6330 C   0  0  0  0  0  0  0  0  0  0  0  0
  137.9430   71.3110  222.3940 N   0  0  0  0  0  0  0  0  0  0  0  0
  139.3270   71.5900  222.1660 C   0  0  0  0  0  0  0  0  0  0  0  0
  140.0970   70.5750  222.2020 O   0  0  0  0  0  0  0  0  0  0  0  0
  139.8200   72.9290  221.9140 C   0  0  0  0  0  0  0  0  0  0  0  0
  140.9940   73.0630  221.2210 C   0  0  0  0  0  0  0  0  0  0  0  0
  141.5620   74.2860  220.9200 C   0  0  0  0  0  0  0  0  0  0  0  0
  140.9020   75.4140  221.3460 C   0  0  0  0  0  0  0  0  0  0  0  0
  141.4380   76.6350  221.0630 C   0  0  0  0  0  0  0  0  0  0  0  0
  140.7530   77.7670  221.5030 C   0  0  0  0  0  0  0  0  0  0  0  0
  141.4580   79.3280  221.1310 Cl  0  0  0  0  0  0  0  0  0  0  0  0
  139.5720   77.6690  222.2010 C   0  0  0  0  0  0  0  0  0  0  0  0
  139.0800   76.4070  222.4550 C   0  0  0  0  0  0  0  0  0  0  0  0
  139.7040   75.2540  222.0510 C   0  0  0  0  0  0  0  0  0  0  0  0
  139.1970   74.0430  222.3160 N   0  0  0  0  0  0  0  0  0  0  0  0
  139.7369   69.4075  229.7570 H   0  0  0  0  0  0  0  0  0  0  0  0
  138.5157   69.0992  228.4762 H   0  0  0  0  0  0  0  0  0  0  0  0
  140.0659   68.1917  228.4762 H   0  0  0  0  0  0  0  0  0  0  0  0
  140.9174   71.4157  229.4882 H   0  0  0  0  0  0  0  0  0  0  0  0
  141.9393   73.1581  228.0715 H   0  0  0  0  0  0  0  0  0  0  0  0
  141.8112   72.9492  225.5864 H   0  0  0  0  0  0  0  0  0  0  0  0
  140.6650   70.9967  224.5948 H   0  0  0  0  0  0  0  0  0  0  0  0
  138.5433   68.7635  226.4477 H   0  0  0  0  0  0  0  0  0  0  0  0
  140.4499   67.3854  226.9526 H   0  0  0  0  0  0  0  0  0  0  0  0
  139.7186   66.8620  225.3976 H   0  0  0  0  0  0  0  0  0  0  0  0
  141.2314   67.8307  225.3976 H   0  0  0  0  0  0  0  0  0  0  0  0
  139.8990   69.1910  223.7120 H   0  0  0  0  0  0  0  0  0  0  0  0
  138.1974   69.2747  221.9924 H   0  0  0  0  0  0  0  0  0  0  0  0
  136.5280   69.7641  222.3998 H   0  0  0  0  0  0  0  0  0  0  0  0
  137.2610   72.0910  222.3780 H   0  0  0  0  0  0  0  0  0  0  0  0
  141.5106   72.1510  220.8873 H   0  0  0  0  0  0  0  0  0  0  0  0
  142.5067   74.3544  220.3606 H   0  0  0  0  0  0  0  0  0  0  0  0
  142.3816   76.7245  220.5049 H   0  0  0  0  0  0  0  0  0  0  0  0
  139.0383   78.5673  222.5448 H   0  0  0  0  0  0  0  0  0  0  0  0
  138.1355   76.3194  223.0120 H   0  0  0  0  0  0  0  0  0  0  0  0
  1  2  1  0
  2  3  2  0
  3  4  1  0
  4  5  2  0
  5  6  1  0
  6  7  2  0
  7  8  1  0
  8  9  1  0
  8 10  1  0
 10 11  1  0
 11 12  2  0
 11 13  1  0
 13 14  1  0
 14 15  1  0
 15 16  2  0
 15 17  1  0
 17 18  2  0
 18 19  1  0
 19 20  2  0
 20 21  1  0
 21 22  2  0
 22 23  1  0
 22 24  1  0
 24 25  2  0
 25 26  1  0
 26 27  2  0
  7  2  1  0
 27 17  1  0
 26 20  1  0
  1 28  1  0
  1 29  1  0
  1 30  1  0
  3 31  1  0
  4 32  1  0
  5 33  1  0
  6 34  1  0
  8 35  1  1
  9 36  1  0
  9 37  1  0
  9 38  1  0
 10 39  1  0
 13 40  1  0
 13 41  1  0
 14 42  1  0
 18 43  1  0
 19 44  1  0
 21 45  1  0
 24 46  1  0
 25 47  1  0
M  END
>  <smiles>  (19) 
Cc1ccccc1[C@H](C)NC(=O)CNC(=O)c1ccc2cc(Cl)ccc2n1

>  <score_type>  (19) 
oracle

>  <origin>  (19) 
autodockgpu

>  <m_score__min__energy>  (19) 
-8.6600000000000001

>  <m_primary>  (19) 
energy

>  <rmsd>  (19) 
9.793539534949414

>  <m_score__min__rmsd>  (19) 
9.793539534949414

>  <meeko>  (19) 
{"free_energy": -7.87, "intermolecular_energy": -9.36, "internal_energy": -2.22, "cluster_size": 20, "cluster_id": 3, "rank_in_cluster": 11}

>  <energy>  (19) 
-8.34

>  <cluster_rmsd>  (19) 
1.66

>  <cluster>  (19) 
2

$$$$

     RDKit          3D

 47 49  0  0  0  0  0  0  0  0999 V2000
  139.4900   79.8530  220.7830 C   0  0  0  0  0  0  0  0  0  0  0  0
  140.5270   79.9570  221.8390 C   0  0  0  0  0  0  0  0  0  0  0  0
  140.4550   80.8910  222.8680 C   0  0  0  0  0  0  0  0  0  0  0  0
  141.4200   80.9860  223.8500 C   0  0  0  0  0  0  0  0  0  0  0  0
  142.5000   80.1260  223.8150 C   0  0  0  0  0  0  0  0  0  0  0  0
  142.5770   79.1940  222.7930 C   0  0  0  0  0  0  0  0  0  0  0  0
  141.6200   79.0850  221.8040 C   0  0  0  0  0  0  0  0  0  0  0  0
  141.7210   78.0860  220.7250 C   0  0  2  0  0  0  0  0  0  0  0  0
  141.8040   78.6910  219.3470 C   0  0  0  0  0  0  0  0  0  0  0  0
  140.5410   77.2450  220.7680 N   0  0  0  0  0  0  0  0  0  0  0  0
  140.6630   75.8520  221.1060 C   0  0  0  0  0  0  0  0  0  0  0  0
  141.8050   75.3470  221.3690 O   0  0  0  0  0  0  0  0  0  0  0  0
  139.4410   75.0010  221.1470 C   0  0  0  0  0  0  0  0  0  0  0  0
  139.5050   74.1790  222.3330 N   0  0  0  0  0  0  0  0  0  0  0  0
  139.8780   72.8110  222.1470 C   0  0  0  0  0  0  0  0  0  0  0  0
  140.1120   72.4720  220.9420 O   0  0  0  0  0  0  0  0  0  0  0  0
  139.9810   71.8760  223.2510 C   0  0  0  0  0  0  0  0  0  0  0  0
  139.5790   70.5840  223.0390 C   0  0  0  0  0  0  0  0  0  0  0  0
  139.6290   69.6050  224.0120 C   0  0  0  0  0  0  0  0  0  0  0  0
  140.1100   69.9640  225.2490 C   0  0  0  0  0  0  0  0  0  0  0  0
  140.1720   69.0190  226.2290 C   0  0  0  0  0  0  0  0  0  0  0  0
  140.6640   69.4030  227.4760 C   0  0  0  0  0  0  0  0  0  0  0  0
  140.7360   68.1740  228.7240 Cl  0  0  0  0  0  0  0  0  0  0  0  0
  141.0760   70.6910  227.7230 C   0  0  0  0  0  0  0  0  0  0  0  0
  140.9900   71.6010  226.6920 C   0  0  0  0  0  0  0  0  0  0  0  0
  140.5160   71.2890  225.4430 C   0  0  0  0  0  0  0  0  0  0  0  0
  140.4450   72.1990  224.4630 N   0  0  0  0  0  0  0  0  0  0  0  0
  138.4993   79.7536  221.2505 H   0  0  0  0  0  0  0  0  0  0  0  0
  139.5113   80.7578  220.1578 H   0  0  0  0  0  0  0  0  0  0  0  0
  139.6906   78.9705  220.1578 H   0  0  0  0  0  0  0  0  0  0  0  0
  139.5973   81.5790  222.8999 H   0  0  0  0  0  0  0  0  0  0  0  0
  141.3302   81.7362  224.6494 H   0  0  0  0  0  0  0  0  0  0  0  0
  143.2844   80.1800  224.5843 H   0  0  0  0  0  0  0  0  0  0  0  0
  143.4387   78.5107  222.7684 H   0  0  0  0  0  0  0  0  0  0  0  0
  142.6514   77.5248  220.8965 H   0  0  0  0  0  0  0  0  0  0  0  0
  141.9531   79.7775  219.4320 H   0  0  0  0  0  0  0  0  0  0  0  0
  142.6496   78.2464  218.8017 H   0  0  0  0  0  0  0  0  0  0  0  0
  140.8699   78.4906  218.8017 H   0  0  0  0  0  0  0  0  0  0  0  0
  139.5760   77.5870  220.5650 H   0  0  0  0  0  0  0  0  0  0  0  0
  138.5446   75.6376  221.1827 H   0  0  0  0  0  0  0  0  0  0  0  0
  139.3869   74.3690  220.2483 H   0  0  0  0  0  0  0  0  0  0  0  0
  139.3000   74.5220  223.2900 H   0  0  0  0  0  0  0  0  0  0  0  0
  139.1971   70.3124  222.0438 H   0  0  0  0  0  0  0  0  0  0  0  0
  139.2966   68.5770  223.8051 H   0  0  0  0  0  0  0  0  0  0  0  0
  139.8442   67.9857  226.0422 H   0  0  0  0  0  0  0  0  0  0  0  0
  141.4613   70.9852  228.7104 H   0  0  0  0  0  0  0  0  0  0  0  0
  141.3192   72.6335  226.8806 H   0  0  0  0  0  0  0  0  0  0  0  0
  1  2  1  0
  2  3  2  0
  3  4  1  0
  4  5  2  0
  5  6  1  0
  6  7  2  0
  7  8  1  0
  8  9  1  0
  8 10  1  0
 10 11  1  0
 11 12  2  0
 11 13  1  0
 13 14  1  0
 14 15  1  0
 15 16  2  0
 15 17  1  0
 17 18  2  0
 18 19  1  0
 19 20  2  0
 20 21  1  0
 21 22  2  0
 22 23  1  0
 22 24  1  0
 24 25  2  0
 25 26  1  0
 26 27  2  0
  7  2  1  0
 27 17  1  0
 26 20  1  0
  1 28  1  0
  1 29  1  0
  1 30  1  0
  3 31  1  0
  4 32  1  0
  5 33  1  0
  6 34  1  0
  8 35  1  1
  9 36  1  0
  9 37  1  0
  9 38  1  0
 10 39  1  0
 13 40  1  0
 13 41  1  0
 14 42  1  0
 18 43  1  0
 19 44  1  0
 21 45  1  0
 24 46  1  0
 25 47  1  0
M  END
>  <smiles>  (20) 
Cc1ccccc1[C@H](C)NC(=O)CNC(=O)c1ccc2cc(Cl)ccc2n1

>  <score_type>  (20) 
oracle

>  <origin>  (20) 
autodockgpu

>  <m_score__min__energy>  (20) 
-8.6600000000000001

>  <m_primary>  (20) 
energy

>  <rmsd>  (20) 
3.837092478535641

>  <m_score__min__rmsd>  (20) 
3.837092478535641

>  <meeko>  (20) 
{"free_energy": -8.42, "intermolecular_energy": -9.91, "internal_energy": -0.78, "cluster_size": 15, "cluster_id": 2, "rank_in_cluster": 5}

>  <energy>  (20) 
-8.31

>  <cluster_rmsd>  (20) 
1.38

>  <cluster>  (20) 
2

$$$$

     RDKit          3D

 47 49  0  0  0  0  0  0  0  0999 V2000
  139.5540   68.8540  228.2450 C   0  0  0  0  0  0  0  0  0  0  0  0
  140.2210   70.0380  227.6490 C   0  0  0  0  0  0  0  0  0  0  0  0
  140.9270   70.9620  228.4130 C   0  0  0  0  0  0  0  0  0  0  0  0
  141.5470   72.0620  227.8570 C   0  0  0  0  0  0  0  0  0  0  0  0
  141.4660   72.2600  226.4940 C   0  0  0  0  0  0  0  0  0  0  0  0
  140.7660   71.3430  225.7270 C   0  0  0  0  0  0  0  0  0  0  0  0
  140.1400   70.2370  226.2670 C   0  0  0  0  0  0  0  0  0  0  0  0
  139.3980   69.2740  225.4330 C   0  0  2  0  0  0  0  0  0  0  0  0
  139.9820   67.8840  225.4510 C   0  0  0  0  0  0  0  0  0  0  0  0
  139.4190   69.7450  224.0620 N   0  0  0  0  0  0  0  0  0  0  0  0
  138.5040   70.7720  223.6420 C   0  0  0  0  0  0  0  0  0  0  0  0
  137.6700   71.2750  224.4680 O   0  0  0  0  0  0  0  0  0  0  0  0
  138.5360   71.2460  222.2300 C   0  0  0  0  0  0  0  0  0  0  0  0
  138.8280   72.6610  222.2370 N   0  0  0  0  0  0  0  0  0  0  0  0
  139.9920   73.0810  221.5200 C   0  0  0  0  0  0  0  0  0  0  0  0
  140.6450   72.1460  220.9520 O   0  0  0  0  0  0  0  0  0  0  0  0
  140.4010   74.4690  221.4450 C   0  0  0  0  0  0  0  0  0  0  0  0
  141.4130   74.7960  220.5810 C   0  0  0  0  0  0  0  0  0  0  0  0
  141.8880   76.0840  220.4230 C   0  0  0  0  0  0  0  0  0  0  0  0
  141.3040   77.0730  221.1780 C   0  0  0  0  0  0  0  0  0  0  0  0
  141.7520   78.3530  221.0430 C   0  0  0  0  0  0  0  0  0  0  0  0
  141.1470   79.3420  221.8170 C   0  0  0  0  0  0  0  0  0  0  0  0
  141.7360   80.9820  221.6300 Cl  0  0  0  0  0  0  0  0  0  0  0  0
  140.1290   79.0490  222.6940 C   0  0  0  0  0  0  0  0  0  0  0  0
  139.7200   77.7360  222.7860 C   0  0  0  0  0  0  0  0  0  0  0  0
  140.2730   76.7170  222.0530 C   0  0  0  0  0  0  0  0  0  0  0  0
  139.8500   75.4510  222.1690 N   0  0  0  0  0  0  0  0  0  0  0  0
  139.5936   68.9243  229.3420 H   0  0  0  0  0  0  0  0  0  0  0  0
  138.5044   68.8208  227.9174 H   0  0  0  0  0  0  0  0  0  0  0  0
  140.0695   67.9392  227.9174 H   0  0  0  0  0  0  0  0  0  0  0  0
  140.9933   70.8099  229.5004 H   0  0  0  0  0  0  0  0  0  0  0  0
  142.0983   72.7714  228.4917 H   0  0  0  0  0  0  0  0  0  0  0  0
  141.9485   73.1301  226.0249 H   0  0  0  0  0  0  0  0  0  0  0  0
  140.7063   71.5029  224.6403 H   0  0  0  0  0  0  0  0  0  0  0  0
  138.3807   69.2108  225.8466 H   0  0  0  0  0  0  0  0  0  0  0  0
  140.1192   67.5574  226.4924 H   0  0  0  0  0  0  0  0  0  0  0  0
  139.2984   67.1924  224.9369 H   0  0  0  0  0  0  0  0  0  0  0  0
  140.9544   67.8882  224.9369 H   0  0  0  0  0  0  0  0  0  0  0  0
  140.0710   69.3810  223.3320 H   0  0  0  0  0  0  0  0  0  0  0  0
  139.3170   70.7071  221.6736 H   0  0  0  0  0  0  0  0  0  0  0  0
  137.5670   71.0597  221.7439 H   0  0  0  0  0  0  0  0  0  0  0  0
  138.2490   73.3710  222.7230 H   0  0  0  0  0  0  0  0  0  0  0  0
  141.8700   73.9934  219.9835 H   0  0  0  0  0  0  0  0  0  0  0  0
  142.7030   76.3093  219.7194 H   0  0  0  0  0  0  0  0  0  0  0  0
  142.5659   78.5982  220.3448 H   0  0  0  0  0  0  0  0  0  0  0  0
  139.6573   79.8356  223.3013 H   0  0  0  0  0  0  0  0  0  0  0  0
  138.9063   77.4922  223.4849 H   0  0  0  0  0  0  0  0  0  0  0  0
  1  2  1  0
  2  3  2  0
  3  4  1  0
  4  5  2  0
  5  6  1  0
  6  7  2  0
  7  8  1  0
  8  9  1  0
  8 10  1  0
 10 11  1  0
 11 12  2  0
 11 13  1  0
 13 14  1  0
 14 15  1  0
 15 16  2  0
 15 17  1  0
 17 18  2  0
 18 19  1  0
 19 20  2  0
 20 21  1  0
 21 22  2  0
 22 23  1  0
 22 24  1  0
 24 25  2  0
 25 26  1  0
 26 27  2  0
  7  2  1  0
 27 17  1  0
 26 20  1  0
  1 28  1  0
  1 29  1  0
  1 30  1  0
  3 31  1  0
  4 32  1  0
  5 33  1  0
  6 34  1  0
  8 35  1  1
  9 36  1  0
  9 37  1  0
  9 38  1  0
 10 39  1  0
 13 40  1  0
 13 41  1  0
 14 42  1  0
 18 43  1  0
 19 44  1  0
 21 45  1  0
 24 46  1  0
 25 47  1  0
M  END
>  <smiles>  (21) 
Cc1ccccc1[C@H](C)NC(=O)CNC(=O)c1ccc2cc(Cl)ccc2n1

>  <score_type>  (21) 
oracle

>  <origin>  (21) 
autodockgpu

>  <m_score__min__energy>  (21) 
-8.6600000000000001

>  <m_primary>  (21) 
energy

>  <rmsd>  (21) 
9.894824279098756

>  <m_score__min__rmsd>  (21) 
9.894824279098756

>  <meeko>  (21) 
{"free_energy": -8.34, "intermolecular_energy": -9.83, "internal_energy": -1.24, "cluster_size": 20, "cluster_id": 3, "rank_in_cluster": 2}

>  <energy>  (21) 
-8.31

>  <cluster_rmsd>  (21) 
0.32

>  <cluster>  (21) 
2

$$$$

     RDKit          3D

 47 49  0  0  0  0  0  0  0  0999 V2000
  139.6300   67.7060  226.6830 C   0  0  0  0  0  0  0  0  0  0  0  0
  140.0630   69.1260  226.6860 C   0  0  0  0  0  0  0  0  0  0  0  0
  140.5810   69.7470  227.8190 C   0  0  0  0  0  0  0  0  0  0  0  0
  140.9820   71.0670  227.8190 C   0  0  0  0  0  0  0  0  0  0  0  0
  140.8680   71.8040  226.6580 C   0  0  0  0  0  0  0  0  0  0  0  0
  140.3540   71.1920  225.5270 C   0  0  0  0  0  0  0  0  0  0  0  0
  139.9480   69.8730  225.5090 C   0  0  0  0  0  0  0  0  0  0  0  0
  139.4020   69.2390  224.2940 C   0  0  2  0  0  0  0  0  0  0  0  0
  139.5620   70.0770  223.0520 C   0  0  0  0  0  0  0  0  0  0  0  0
  137.9840   69.0130  224.4950 N   0  0  0  0  0  0  0  0  0  0  0  0
  137.0850   70.1310  224.5940 C   0  0  0  0  0  0  0  0  0  0  0  0
  137.5250   71.3260  224.5070 O   0  0  0  0  0  0  0  0  0  0  0  0
  135.6310   69.8830  224.8000 C   0  0  0  0  0  0  0  0  0  0  0  0
  134.9890   71.1530  225.0510 N   0  0  0  0  0  0  0  0  0  0  0  0
  134.1280   71.2230  226.1910 C   0  0  0  0  0  0  0  0  0  0  0  0
  134.0250   70.1430  226.8600 O   0  0  0  0  0  0  0  0  0  0  0  0
  133.4220   72.4340  226.5590 C   0  0  0  0  0  0  0  0  0  0  0  0
  132.1340   72.3160  227.0110 C   0  0  0  0  0  0  0  0  0  0  0  0
  131.3610   73.3970  227.3900 C   0  0  0  0  0  0  0  0  0  0  0  0
  131.9310   74.6450  227.3030 C   0  0  0  0  0  0  0  0  0  0  0  0
  131.1930   75.7300  227.6710 C   0  0  0  0  0  0  0  0  0  0  0  0
  131.7880   76.9880  227.5760 C   0  0  0  0  0  0  0  0  0  0  0  0
  130.8240   78.3710  228.0540 Cl  0  0  0  0  0  0  0  0  0  0  0  0
  133.0790   77.1420  227.1280 C   0  0  0  0  0  0  0  0  0  0  0  0
  133.7740   76.0070  226.7710 C   0  0  0  0  0  0  0  0  0  0  0  0
  133.2470   74.7420  226.8400 C   0  0  0  0  0  0  0  0  0  0  0  0
  133.9520   73.6600  226.4840 N   0  0  0  0  0  0  0  0  0  0  0  0
  139.5224   67.3533  227.7193 H   0  0  0  0  0  0  0  0  0  0  0  0
  138.6643   67.6182  226.1637 H   0  0  0  0  0  0  0  0  0  0  0  0
  140.3825   67.0943  226.1637 H   0  0  0  0  0  0  0  0  0  0  0  0
  140.6739   69.1645  228.7474 H   0  0  0  0  0  0  0  0  0  0  0  0
  141.3874   71.5261  228.7327 H   0  0  0  0  0  0  0  0  0  0  0  0
  141.1797   72.8586  226.6313 H   0  0  0  0  0  0  0  0  0  0  0  0
  140.2655   71.7826  224.6032 H   0  0  0  0  0  0  0  0  0  0  0  0
  139.9653   68.3070  224.1391 H   0  0  0  0  0  0  0  0  0  0  0  0
  139.7613   71.1206  223.3370 H   0  0  0  0  0  0  0  0  0  0  0  0
  140.4030   69.6926  222.4562 H   0  0  0  0  0  0  0  0  0  0  0  0
  138.6386   70.0295  222.4562 H   0  0  0  0  0  0  0  0  0  0  0  0
  137.5520   68.0660  224.5750 H   0  0  0  0  0  0  0  0  0  0  0  0
  135.2008   69.4194  223.9000 H   0  0  0  0  0  0  0  0  0  0  0  0
  135.4776   69.2041  225.6518 H   0  0  0  0  0  0  0  0  0  0  0  0
  135.1180   71.9950  224.4620 H   0  0  0  0  0  0  0  0  0  0  0  0
  131.6931   71.3103  227.0755 H   0  0  0  0  0  0  0  0  0  0  0  0
  130.3293   73.2640  227.7475 H   0  0  0  0  0  0  0  0  0  0  0  0
  130.1600   75.6172  228.0318 H   0  0  0  0  0  0  0  0  0  0  0  0
  133.5412   78.1376  227.0570 H   0  0  0  0  0  0  0  0  0  0  0  0
  134.8072   76.1212  226.4112 H   0  0  0  0  0  0  0  0  0  0  0  0
  1  2  1  0
  2  3  2  0
  3  4  1  0
  4  5  2  0
  5  6  1  0
  6  7  2  0
  7  8  1  0
  8  9  1  0
  8 10  1  0
 10 11  1  0
 11 12  2  0
 11 13  1  0
 13 14  1  0
 14 15  1  0
 15 16  2  0
 15 17  1  0
 17 18  2  0
 18 19  1  0
 19 20  2  0
 20 21  1  0
 21 22  2  0
 22 23  1  0
 22 24  1  0
 24 25  2  0
 25 26  1  0
 26 27  2  0
  7  2  1  0
 27 17  1  0
 26 20  1  0
  1 28  1  0
  1 29  1  0
  1 30  1  0
  3 31  1  0
  4 32  1  0
  5 33  1  0
  6 34  1  0
  8 35  1  6
  9 36  1  0
  9 37  1  0
  9 38  1  0
 10 39  1  0
 13 40  1  0
 13 41  1  0
 14 42  1  0
 18 43  1  0
 19 44  1  0
 21 45  1  0
 24 46  1  0
 25 47  1  0
M  END
>  <smiles>  (22) 
Cc1ccccc1[C@H](C)NC(=O)CNC(=O)c1ccc2cc(Cl)ccc2n1

>  <score_type>  (22) 
oracle

>  <origin>  (22) 
autodockgpu

>  <m_score__min__energy>  (22) 
-8.6600000000000001

>  <m_primary>  (22) 
energy

>  <rmsd>  (22) 
10.646520808713351

>  <m_score__min__rmsd>  (22) 
10.646520808713351

>  <meeko>  (22) 
{"free_energy": -8.3, "intermolecular_energy": -9.79, "internal_energy": -1.36, "cluster_size": 12, "cluster_id": 1, "rank_in_cluster": 5}

>  <energy>  (22) 
-8.26

>  <cluster_rmsd>  (22) 
1.35

>  <cluster>  (22) 
2

$$$$

     RDKit          3D

 47 49  0  0  0  0  0  0  0  0999 V2000
  142.9160   79.6620  222.7290 C   0  0  0  0  0  0  0  0  0  0  0  0
  141.4370   79.7620  222.7920 C   0  0  0  0  0  0  0  0  0  0  0  0
  140.7760   80.4360  223.8150 C   0  0  0  0  0  0  0  0  0  0  0  0
  139.4010   80.5290  223.8710 C   0  0  0  0  0  0  0  0  0  0  0  0
  138.6470   79.9320  222.8820 C   0  0  0  0  0  0  0  0  0  0  0  0
  139.2980   79.2590  221.8610 C   0  0  0  0  0  0  0  0  0  0  0  0
  140.6730   79.1580  221.7880 C   0  0  0  0  0  0  0  0  0  0  0  0
  141.3480   78.4370  220.6930 C   0  0  2  0  0  0  0  0  0  0  0  0
  141.4500   79.2340  219.4180 C   0  0  0  0  0  0  0  0  0  0  0  0
  140.5910   77.2340  220.4040 N   0  0  0  0  0  0  0  0  0  0  0  0
  140.4300   76.2260  221.4170 C   0  0  0  0  0  0  0  0  0  0  0  0
  140.9480   76.3810  222.5740 O   0  0  0  0  0  0  0  0  0  0  0  0
  139.6500   74.9960  221.1050 C   0  0  0  0  0  0  0  0  0  0  0  0
  139.6230   74.1680  222.2900 N   0  0  0  0  0  0  0  0  0  0  0  0
  140.0730   72.8190  222.1410 C   0  0  0  0  0  0  0  0  0  0  0  0
  140.4500   72.5000  220.9660 O   0  0  0  0  0  0  0  0  0  0  0  0
  140.0990   71.8820  223.2460 C   0  0  0  0  0  0  0  0  0  0  0  0
  139.6040   70.6220  223.0330 C   0  0  0  0  0  0  0  0  0  0  0  0
  139.5750   69.6440  224.0080 C   0  0  0  0  0  0  0  0  0  0  0  0
  140.0720   69.9690  225.2480 C   0  0  0  0  0  0  0  0  0  0  0  0
  140.0580   69.0240  226.2300 C   0  0  0  0  0  0  0  0  0  0  0  0
  140.5670   69.3730  227.4800 C   0  0  0  0  0  0  0  0  0  0  0  0
  140.5390   68.1440  228.7300 Cl  0  0  0  0  0  0  0  0  0  0  0  0
  141.0710   70.6280  227.7280 C   0  0  0  0  0  0  0  0  0  0  0  0
  141.0590   71.5400  226.6950 C   0  0  0  0  0  0  0  0  0  0  0  0
  140.5730   71.2610  225.4430 C   0  0  0  0  0  0  0  0  0  0  0  0
  140.5770   72.1720  224.4620 N   0  0  0  0  0  0  0  0  0  0  0  0
  143.3254   79.6343  223.7496 H   0  0  0  0  0  0  0  0  0  0  0  0
  143.1989   78.7427  222.1954 H   0  0  0  0  0  0  0  0  0  0  0  0
  143.3201   80.5349  222.1954 H   0  0  0  0  0  0  0  0  0  0  0  0
  141.3720   80.9118  224.6077 H   0  0  0  0  0  0  0  0  0  0  0  0
  138.9122   81.0720  224.6933 H   0  0  0  0  0  0  0  0  0  0  0  0
  137.5487   79.9893  222.9037 H   0  0  0  0  0  0  0  0  0  0  0  0
  138.6931   78.7845  221.0743 H   0  0  0  0  0  0  0  0  0  0  0  0
  142.3725   78.2254  221.0330 H   0  0  0  0  0  0  0  0  0  0  0  0
  141.5862   80.2982  219.6607 H   0  0  0  0  0  0  0  0  0  0  0  0
  142.3100   78.8788  218.8313 H   0  0  0  0  0  0  0  0  0  0  0  0
  140.5282   79.1068  218.8313 H   0  0  0  0  0  0  0  0  0  0  0  0
  140.1400   77.0390  219.4830 H   0  0  0  0  0  0  0  0  0  0  0  0
  138.6239   75.2683  220.8171 H   0  0  0  0  0  0  0  0  0  0  0  0
  140.1154   74.4513  220.2703 H   0  0  0  0  0  0  0  0  0  0  0  0
  139.3020   74.4950  223.2190 H   0  0  0  0  0  0  0  0  0  0  0  0
  139.2100   70.3772  222.0356 H   0  0  0  0  0  0  0  0  0  0  0  0
  139.1695   68.6428  223.8002 H   0  0  0  0  0  0  0  0  0  0  0  0
  139.6574   68.0169  226.0420 H   0  0  0  0  0  0  0  0  0  0  0  0
  141.4703   70.8950  228.7176 H   0  0  0  0  0  0  0  0  0  0  0  0
  141.4609   72.5462  226.8847 H   0  0  0  0  0  0  0  0  0  0  0  0
  1  2  1  0
  2  3  2  0
  3  4  1  0
  4  5  2  0
  5  6  1  0
  6  7  2  0
  7  8  1  0
  8  9  1  0
  8 10  1  0
 10 11  1  0
 11 12  2  0
 11 13  1  0
 13 14  1  0
 14 15  1  0
 15 16  2  0
 15 17  1  0
 17 18  2  0
 18 19  1  0
 19 20  2  0
 20 21  1  0
 21 22  2  0
 22 23  1  0
 22 24  1  0
 24 25  2  0
 25 26  1  0
 26 27  2  0
  7  2  1  0
 27 17  1  0
 26 20  1  0
  1 28  1  0
  1 29  1  0
  1 30  1  0
  3 31  1  0
  4 32  1  0
  5 33  1  0
  6 34  1  0
  8 35  1  1
  9 36  1  0
  9 37  1  0
  9 38  1  0
 10 39  1  0
 13 40  1  0
 13 41  1  0
 14 42  1  0
 18 43  1  0
 19 44  1  0
 21 45  1  0
 24 46  1  0
 25 47  1  0
M  END
>  <smiles>  (23) 
Cc1ccccc1[C@H](C)NC(=O)CNC(=O)c1ccc2cc(Cl)ccc2n1

>  <score_type>  (23) 
oracle

>  <origin>  (23) 
autodockgpu

>  <m_score__min__energy>  (23) 
-8.6600000000000001

>  <m_primary>  (23) 
energy

>  <rmsd>  (23) 
3.877767939037217

>  <m_score__min__rmsd>  (23) 
3.877767939037217

>  <meeko>  (23) 
{"free_energy": -8.23, "intermolecular_energy": -9.72, "internal_energy": -1.32, "cluster_size": 15, "cluster_id": 2, "rank_in_cluster": 11}

>  <energy>  (23) 
-8.23

>  <cluster_rmsd>  (23) 
1.62

>  <cluster>  (23) 
2

$$$$

     RDKit          3D

 47 49  0  0  0  0  0  0  0  0999 V2000
  141.5030   79.5650  220.0030 C   0  0  0  0  0  0  0  0  0  0  0  0
  141.7570   79.6220  221.4630 C   0  0  0  0  0  0  0  0  0  0  0  0
  142.6040   80.5650  222.0390 C   0  0  0  0  0  0  0  0  0  0  0  0
  142.8380   80.6160  223.3980 C   0  0  0  0  0  0  0  0  0  0  0  0
  142.2150   79.7010  224.2220 C   0  0  0  0  0  0  0  0  0  0  0  0
  141.3710   78.7600  223.6550 C   0  0  0  0  0  0  0  0  0  0  0  0
  141.1240   78.6950  222.2990 C   0  0  0  0  0  0  0  0  0  0  0  0
  140.2220   77.6860  221.7150 C   0  0  2  0  0  0  0  0  0  0  0  0
  139.1250   77.2430  222.6490 C   0  0  0  0  0  0  0  0  0  0  0  0
  141.0080   76.5160  221.3700 N   0  0  0  0  0  0  0  0  0  0  0  0
  140.4270   75.4720  220.5690 C   0  0  0  0  0  0  0  0  0  0  0  0
  139.2220   75.5650  220.1580 O   0  0  0  0  0  0  0  0  0  0  0  0
  141.2460   74.2770  220.2220 C   0  0  0  0  0  0  0  0  0  0  0  0
  141.3660   73.4560  221.4050 N   0  0  0  0  0  0  0  0  0  0  0  0
  140.1940   72.7490  221.8170 C   0  0  0  0  0  0  0  0  0  0  0  0
  139.1670   72.9280  221.0850 O   0  0  0  0  0  0  0  0  0  0  0  0
  140.1750   71.8890  222.9850 C   0  0  0  0  0  0  0  0  0  0  0  0
  139.6170   70.6440  222.8580 C   0  0  0  0  0  0  0  0  0  0  0  0
  139.5410   69.7380  223.8980 C   0  0  0  0  0  0  0  0  0  0  0  0
  140.0550   70.1230  225.1140 C   0  0  0  0  0  0  0  0  0  0  0  0
  139.9950   69.2500  226.1580 C   0  0  0  0  0  0  0  0  0  0  0  0
  140.5220   69.6580  227.3830 C   0  0  0  0  0  0  0  0  0  0  0  0
  140.4340   68.5220  228.7150 Cl  0  0  0  0  0  0  0  0  0  0  0  0
  141.0880   70.9010  227.5450 C   0  0  0  0  0  0  0  0  0  0  0  0
  141.1210   71.7390  226.4510 C   0  0  0  0  0  0  0  0  0  0  0  0
  140.6200   71.3980  225.2200 C   0  0  0  0  0  0  0  0  0  0  0  0
  140.6670   72.2390  224.1790 N   0  0  0  0  0  0  0  0  0  0  0  0
  140.4440   79.3274  219.8241 H   0  0  0  0  0  0  0  0  0  0  0  0
  141.7417   80.5390  219.5510 H   0  0  0  0  0  0  0  0  0  0  0  0
  142.1350   78.7863  219.5510 H   0  0  0  0  0  0  0  0  0  0  0  0
  143.1048   81.2959  221.3871 H   0  0  0  0  0  0  0  0  0  0  0  0
  143.5124   81.3762  223.8190 H   0  0  0  0  0  0  0  0  0  0  0  0
  142.3853   79.7185  225.3086 H   0  0  0  0  0  0  0  0  0  0  0  0
  140.8759   78.0325  224.3150 H   0  0  0  0  0  0  0  0  0  0  0  0
  139.7438   78.1528  220.8412 H   0  0  0  0  0  0  0  0  0  0  0  0
  139.4540   77.3759  223.6902 H   0  0  0  0  0  0  0  0  0  0  0  0
  138.2239   77.8477  222.4692 H   0  0  0  0  0  0  0  0  0  0  0  0
  138.8965   76.1821  222.4692 H   0  0  0  0  0  0  0  0  0  0  0  0
  141.9970   76.3720  221.6690 H   0  0  0  0  0  0  0  0  0  0  0  0
  140.7528   73.7068  219.4209 H   0  0  0  0  0  0  0  0  0  0  0  0
  142.2413   74.5863  219.8702 H   0  0  0  0  0  0  0  0  0  0  0  0
  142.2380   73.3550  221.9560 H   0  0  0  0  0  0  0  0  0  0  0  0
  139.2093   70.3514  221.8792 H   0  0  0  0  0  0  0  0  0  0  0  0
  139.0865   68.7460  223.7587 H   0  0  0  0  0  0  0  0  0  0  0  0
  139.5446   68.2536  226.0384 H   0  0  0  0  0  0  0  0  0  0  0  0
  141.5005   71.2158  228.5149 H   0  0  0  0  0  0  0  0  0  0  0  0
  141.5733   72.7345  226.5713 H   0  0  0  0  0  0  0  0  0  0  0  0
  1  2  1  0
  2  3  2  0
  3  4  1  0
  4  5  2  0
  5  6  1  0
  6  7  2  0
  7  8  1  0
  8  9  1  0
  8 10  1  0
 10 11  1  0
 11 12  2  0
 11 13  1  0
 13 14  1  0
 14 15  1  0
 15 16  2  0
 15 17  1  0
 17 18  2  0
 18 19  1  0
 19 20  2  0
 20 21  1  0
 21 22  2  0
 22 23  1  0
 22 24  1  0
 24 25  2  0
 25 26  1  0
 26 27  2  0
  7  2  1  0
 27 17  1  0
 26 20  1  0
  1 28  1  0
  1 29  1  0
  1 30  1  0
  3 31  1  0
  4 32  1  0
  5 33  1  0
  6 34  1  0
  8 35  1  6
  9 36  1  0
  9 37  1  0
  9 38  1  0
 10 39  1  0
 13 40  1  0
 13 41  1  0
 14 42  1  0
 18 43  1  0
 19 44  1  0
 21 45  1  0
 24 46  1  0
 25 47  1  0
M  END
>  <smiles>  (24) 
Cc1ccccc1[C@H](C)NC(=O)CNC(=O)c1ccc2cc(Cl)ccc2n1

>  <score_type>  (24) 
oracle

>  <origin>  (24) 
autodockgpu

>  <m_score__min__energy>  (24) 
-8.6600000000000001

>  <m_primary>  (24) 
energy

>  <rmsd>  (24) 
4.070610731549779

>  <m_score__min__rmsd>  (24) 
4.070610731549779

>  <meeko>  (24) 
{"free_energy": -8.54, "intermolecular_energy": -10.03, "internal_energy": -1.12, "cluster_size": 15, "cluster_id": 2, "rank_in_cluster": 1}

>  <energy>  (24) 
-8.19

>  <cluster_rmsd>  (24) 
1.58

>  <cluster>  (24) 
2

$$$$

     RDKit          3D

 47 49  0  0  0  0  0  0  0  0999 V2000
  139.1800   69.6300  228.8600 C   0  0  0  0  0  0  0  0  0  0  0  0
  140.0620   70.4040  227.9510 C   0  0  0  0  0  0  0  0  0  0  0  0
  140.5270   71.6780  228.2650 C   0  0  0  0  0  0  0  0  0  0  0  0
  141.3470   72.3950  227.4190 C   0  0  0  0  0  0  0  0  0  0  0  0
  141.7240   71.8350  226.2150 C   0  0  0  0  0  0  0  0  0  0  0  0
  141.2650   70.5670  225.8960 C   0  0  0  0  0  0  0  0  0  0  0  0
  140.4450   69.8360  226.7310 C   0  0  0  0  0  0  0  0  0  0  0  0
  139.9670   68.4880  226.3730 C   0  0  2  0  0  0  0  0  0  0  0  0
  141.0370   67.4280  226.4460 C   0  0  0  0  0  0  0  0  0  0  0  0
  139.4720   68.5250  225.0110 N   0  0  0  0  0  0  0  0  0  0  0  0
  138.1190   68.9360  224.7490 C   0  0  0  0  0  0  0  0  0  0  0  0
  137.3460   69.2690  225.7080 O   0  0  0  0  0  0  0  0  0  0  0  0
  137.6260   68.9690  223.3440 C   0  0  0  0  0  0  0  0  0  0  0  0
  138.5460   69.7620  222.5620 N   0  0  0  0  0  0  0  0  0  0  0  0
  138.7460   71.1150  222.9820 C   0  0  0  0  0  0  0  0  0  0  0  0
  138.0800   71.4670  224.0090 O   0  0  0  0  0  0  0  0  0  0  0  0
  139.6410   72.0200  222.2890 C   0  0  0  0  0  0  0  0  0  0  0  0
  140.6450   71.4770  221.5310 C   0  0  0  0  0  0  0  0  0  0  0  0
  141.5590   72.2370  220.8270 C   0  0  0  0  0  0  0  0  0  0  0  0
  141.4400   73.6040  220.9020 C   0  0  0  0  0  0  0  0  0  0  0  0
  142.3260   74.3800  220.2170 C   0  0  0  0  0  0  0  0  0  0  0  0
  142.1880   75.7640  220.3070 C   0  0  0  0  0  0  0  0  0  0  0  0
  143.3390   76.7460  219.4190 Cl  0  0  0  0  0  0  0  0  0  0  0  0
  141.1920   76.3420  221.0590 C   0  0  0  0  0  0  0  0  0  0  0  0
  140.3260   75.5050  221.7280 C   0  0  0  0  0  0  0  0  0  0  0  0
  140.4070   74.1370  221.6820 C   0  0  0  0  0  0  0  0  0  0  0  0
  139.5480   73.3530  222.3460 N   0  0  0  0  0  0  0  0  0  0  0  0
  139.4395   69.8577  229.9044 H   0  0  0  0  0  0  0  0  0  0  0  0
  138.1310   69.9044  228.6746 H   0  0  0  0  0  0  0  0  0  0  0  0
  139.3158   68.5543  228.6746 H   0  0  0  0  0  0  0  0  0  0  0  0
  140.2295   72.1294  229.2230 H   0  0  0  0  0  0  0  0  0  0  0  0
  141.6959   73.3996  227.7000 H   0  0  0  0  0  0  0  0  0  0  0  0
  142.3769   72.3852  225.5214 H   0  0  0  0  0  0  0  0  0  0  0  0
  141.5674   70.1241  224.9356 H   0  0  0  0  0  0  0  0  0  0  0  0
  139.1880   68.2215  227.1025 H   0  0  0  0  0  0  0  0  0  0  0  0
  141.2615   67.2056  227.4996 H   0  0  0  0  0  0  0  0  0  0  0  0
  140.6829   66.5145  225.9458 H   0  0  0  0  0  0  0  0  0  0  0  0
  141.9471   67.7906  225.9458 H   0  0  0  0  0  0  0  0  0  0  0  0
  140.0460   68.2670  224.1770 H   0  0  0  0  0  0  0  0  0  0  0  0
  137.5802   67.9464  222.9412 H   0  0  0  0  0  0  0  0  0  0  0  0
  136.6179   69.4074  223.3050 H   0  0  0  0  0  0  0  0  0  0  0  0
  139.0580   69.4090  221.7320 H   0  0  0  0  0  0  0  0  0  0  0  0
  140.7274   70.3813  221.4805 H   0  0  0  0  0  0  0  0  0  0  0  0
  142.3525   71.7654  220.2287 H   0  0  0  0  0  0  0  0  0  0  0  0
  143.1256   73.9281  219.6116 H   0  0  0  0  0  0  0  0  0  0  0  0
  141.0903   77.4354  221.1241 H   0  0  0  0  0  0  0  0  0  0  0  0
  139.5263   75.9588  222.3317 H   0  0  0  0  0  0  0  0  0  0  0  0
  1  2  1  0
  2  3  2  0
  3  4  1  0
  4  5  2  0
  5  6  1  0
  6  7  2  0
  7  8  1  0
  8  9  1  0
  8 10  1  0
 10 11  1  0
 11 12  2  0
 11 13  1  0
 13 14  1  0
 14 15  1  0
 15 16  2  0
 15 17  1  0
 17 18  2  0
 18 19  1  0
 19 20  2  0
 20 21  1  0
 21 22  2  0
 22 23  1  0
 22 24  1  0
 24 25  2  0
 25 26  1  0
 26 27  2  0
  7  2  1  0
 27 17  1  0
 26 20  1  0
  1 28  1  0
  1 29  1  0
  1 30  1  0
  3 31  1  0
  4 32  1  0
  5 33  1  0
  6 34  1  0
  8 35  1  1
  9 36  1  0
  9 37  1  0
  9 38  1  0
 10 39  1  0
 13 40  1  0
 13 41  1  0
 14 42  1  0
 18 43  1  0
 19 44  1  0
 21 45  1  0
 24 46  1  0
 25 47  1  0
M  END
>  <smiles>  (25) 
Cc1ccccc1[C@H](C)NC(=O)CNC(=O)c1ccc2cc(Cl)ccc2n1

>  <score_type>  (25) 
oracle

>  <origin>  (25) 
autodockgpu

>  <m_score__min__energy>  (25) 
-8.6600000000000001

>  <m_primary>  (25) 
energy

>  <rmsd>  (25) 
9.933419946655787

>  <m_score__min__rmsd>  (25) 
9.933419946655787

>  <meeko>  (25) 
{"free_energy": -7.85, "intermolecular_energy": -9.34, "internal_energy": -1.55, "cluster_size": 20, "cluster_id": 3, "rank_in_cluster": 12}

>  <energy>  (25) 
-8.11

>  <cluster_rmsd>  (25) 
1.4

>  <cluster>  (25) 
2

$$$$

     RDKit          3D

 47 49  0  0  0  0  0  0  0  0999 V2000
  139.1570   69.7250  229.0190 C   0  0  0  0  0  0  0  0  0  0  0  0
  139.9570   70.4000  227.9670 C   0  0  0  0  0  0  0  0  0  0  0  0
  140.6080   71.6100  228.1840 C   0  0  0  0  0  0  0  0  0  0  0  0
  141.3520   72.2350  227.2050 C   0  0  0  0  0  0  0  0  0  0  0  0
  141.4570   71.6440  225.9620 C   0  0  0  0  0  0  0  0  0  0  0  0
  140.8120   70.4390  225.7390 C   0  0  0  0  0  0  0  0  0  0  0  0
  140.0640   69.8000  226.7080 C   0  0  0  0  0  0  0  0  0  0  0  0
  139.3840   68.5170  226.4510 C   0  0  2  0  0  0  0  0  0  0  0  0
  140.2500   67.5050  225.7470 C   0  0  0  0  0  0  0  0  0  0  0  0
  138.2290   68.7720  225.6120 N   0  0  0  0  0  0  0  0  0  0  0  0
  138.4020   68.9910  224.2010 C   0  0  0  0  0  0  0  0  0  0  0  0
  139.5660   68.9640  223.6780 O   0  0  0  0  0  0  0  0  0  0  0  0
  137.2060   69.2520  223.3510 C   0  0  0  0  0  0  0  0  0  0  0  0
  136.5040   70.3890  223.9000 N   0  0  0  0  0  0  0  0  0  0  0  0
  135.4650   70.1080  224.8420 C   0  0  0  0  0  0  0  0  0  0  0  0
  135.2780   68.8730  225.0900 O   0  0  0  0  0  0  0  0  0  0  0  0
  134.6820   71.1540  225.4700 C   0  0  0  0  0  0  0  0  0  0  0  0
  133.7080   70.7820  226.3590 C   0  0  0  0  0  0  0  0  0  0  0  0
  132.8980   71.6870  227.0180 C   0  0  0  0  0  0  0  0  0  0  0  0
  133.0940   73.0220  226.7570 C   0  0  0  0  0  0  0  0  0  0  0  0
  132.3100   73.9380  227.3930 C   0  0  0  0  0  0  0  0  0  0  0  0
  132.5240   75.2870  227.1140 C   0  0  0  0  0  0  0  0  0  0  0  0
  131.5060   76.4500  227.9420 Cl  0  0  0  0  0  0  0  0  0  0  0  0
  133.4930   75.6950  226.2270 C   0  0  0  0  0  0  0  0  0  0  0  0
  134.2530   74.7220  225.6160 C   0  0  0  0  0  0  0  0  0  0  0  0
  134.0940   73.3790  225.8460 C   0  0  0  0  0  0  0  0  0  0  0  0
  134.8510   72.4600  225.2330 N   0  0  0  0  0  0  0  0  0  0  0  0
  139.5212   70.0323  230.0104 H   0  0  0  0  0  0  0  0  0  0  0  0
  138.0992   70.0076  228.9132 H   0  0  0  0  0  0  0  0  0  0  0  0
  139.2576   68.6347  228.9132 H   0  0  0  0  0  0  0  0  0  0  0  0
  140.5265   72.0858  229.1724 H   0  0  0  0  0  0  0  0  0  0  0  0
  141.8547   73.1913  227.4120 H   0  0  0  0  0  0  0  0  0  0  0  0
  142.0426   72.1217  225.1627 H   0  0  0  0  0  0  0  0  0  0  0  0
  140.8993   69.9708  224.7474 H   0  0  0  0  0  0  0  0  0  0  0  0
  139.1147   68.0963  227.4310 H   0  0  0  0  0  0  0  0  0  0  0  0
  140.7759   66.8905  226.4925 H   0  0  0  0  0  0  0  0  0  0  0  0
  139.6208   66.8589  225.1172 H   0  0  0  0  0  0  0  0  0  0  0  0
  140.9856   68.0268  225.1172 H   0  0  0  0  0  0  0  0  0  0  0  0
  137.2490   68.8100  225.9680 H   0  0  0  0  0  0  0  0  0  0  0  0
  137.5218   69.4711  222.3203 H   0  0  0  0  0  0  0  0  0  0  0  0
  136.5493   68.3697  223.3364 H   0  0  0  0  0  0  0  0  0  0  0  0
  136.7100   71.3740  223.6520 H   0  0  0  0  0  0  0  0  0  0  0  0
  133.5637   69.7098  226.5579 H   0  0  0  0  0  0  0  0  0  0  0  0
  132.1251   71.3514  227.7252 H   0  0  0  0  0  0  0  0  0  0  0  0
  131.5325   73.6225  228.1044 H   0  0  0  0  0  0  0  0  0  0  0  0
  133.6554   76.7617  226.0129 H   0  0  0  0  0  0  0  0  0  0  0  0
  135.0299   75.0393  224.9048 H   0  0  0  0  0  0  0  0  0  0  0  0
  1  2  1  0
  2  3  2  0
  3  4  1  0
  4  5  2  0
  5  6  1  0
  6  7  2  0
  7  8  1  0
  8  9  1  0
  8 10  1  0
 10 11  1  0
 11 12  2  0
 11 13  1  0
 13 14  1  0
 14 15  1  0
 15 16  2  0
 15 17  1  0
 17 18  2  0
 18 19  1  0
 19 20  2  0
 20 21  1  0
 21 22  2  0
 22 23  1  0
 22 24  1  0
 24 25  2  0
 25 26  1  0
 26 27  2  0
  7  2  1  0
 27 17  1  0
 26 20  1  0
  1 28  1  0
  1 29  1  0
  1 30  1  0
  3 31  1  0
  4 32  1  0
  5 33  1  0
  6 34  1  0
  8 35  1  1
  9 36  1  0
  9 37  1  0
  9 38  1  0
 10 39  1  0
 13 40  1  0
 13 41  1  0
 14 42  1  0
 18 43  1  0
 19 44  1  0
 21 45  1  0
 24 46  1  0
 25 47  1  0
M  END
>  <smiles>  (26) 
Cc1ccccc1[C@H](C)NC(=O)CNC(=O)c1ccc2cc(Cl)ccc2n1

>  <score_type>  (26) 
oracle

>  <origin>  (26) 
autodockgpu

>  <m_score__min__energy>  (26) 
-8.6600000000000001

>  <m_primary>  (26) 
energy

>  <rmsd>  (26) 
10.430419431125099

>  <m_score__min__rmsd>  (26) 
10.430419431125099

>  <meeko>  (26) 
{"free_energy": -8.04, "intermolecular_energy": -9.54, "internal_energy": -1.79, "cluster_size": 12, "cluster_id": 1, "rank_in_cluster": 7}

>  <energy>  (26) 
-7.96

>  <cluster_rmsd>  (26) 
0.43

>  <cluster>  (26) 
2

$$$$

     RDKit          3D

 47 49  0  0  0  0  0  0  0  0999 V2000
  141.5470   79.4740  219.9910 C   0  0  0  0  0  0  0  0  0  0  0  0
  141.7760   79.5620  221.4540 C   0  0  0  0  0  0  0  0  0  0  0  0
  142.6250   80.5080  222.0240 C   0  0  0  0  0  0  0  0  0  0  0  0
  142.8360   80.5880  223.3840 C   0  0  0  0  0  0  0  0  0  0  0  0
  142.1850   79.7000  224.2180 C   0  0  0  0  0  0  0  0  0  0  0  0
  141.3390   78.7570  223.6580 C   0  0  0  0  0  0  0  0  0  0  0  0
  141.1160   78.6640  222.2990 C   0  0  0  0  0  0  0  0  0  0  0  0
  140.2120   77.6520  221.7230 C   0  0  2  0  0  0  0  0  0  0  0  0
  139.0700   77.2750  222.6310 C   0  0  0  0  0  0  0  0  0  0  0  0
  140.9800   76.4510  221.4560 N   0  0  0  0  0  0  0  0  0  0  0  0
  140.6430   75.6180  220.3330 C   0  0  0  0  0  0  0  0  0  0  0  0
  139.6700   75.9260  219.5660 O   0  0  0  0  0  0  0  0  0  0  0  0
  141.4410   74.3880  220.0710 C   0  0  0  0  0  0  0  0  0  0  0  0
  141.4540   73.5950  221.2790 N   0  0  0  0  0  0  0  0  0  0  0  0
  140.2960   72.7970  221.5370 C   0  0  0  0  0  0  0  0  0  0  0  0
  139.3750   72.8800  220.6600 O   0  0  0  0  0  0  0  0  0  0  0  0
  140.1760   71.9550  222.7100 C   0  0  0  0  0  0  0  0  0  0  0  0
  139.4630   70.7900  222.5970 C   0  0  0  0  0  0  0  0  0  0  0  0
  139.2800   69.9080  223.6440 C   0  0  0  0  0  0  0  0  0  0  0  0
  139.8500   70.2310  224.8530 C   0  0  0  0  0  0  0  0  0  0  0  0
  139.6870   69.3800  225.9040 C   0  0  0  0  0  0  0  0  0  0  0  0
  140.2720   69.7250  227.1210 C   0  0  0  0  0  0  0  0  0  0  0  0
  140.0510   68.6170  228.4620 Cl  0  0  0  0  0  0  0  0  0  0  0  0
  140.9950   70.8850  227.2700 C   0  0  0  0  0  0  0  0  0  0  0  0
  141.1250   71.7060  226.1700 C   0  0  0  0  0  0  0  0  0  0  0  0
  140.5740   71.4240  224.9460 C   0  0  0  0  0  0  0  0  0  0  0  0
  140.7200   72.2450  223.8980 N   0  0  0  0  0  0  0  0  0  0  0  0
  140.5356   79.0854  219.8009 H   0  0  0  0  0  0  0  0  0  0  0  0
  141.6456   80.4741  219.5436 H   0  0  0  0  0  0  0  0  0  0  0  0
  142.2899   78.7973  219.5436 H   0  0  0  0  0  0  0  0  0  0  0  0
  143.1463   81.2174  221.3645 H   0  0  0  0  0  0  0  0  0  0  0  0
  143.5135   81.3486  223.7993 H   0  0  0  0  0  0  0  0  0  0  0  0
  142.3356   79.7410  225.3069 H   0  0  0  0  0  0  0  0  0  0  0  0
  140.8224   78.0515  224.3254 H   0  0  0  0  0  0  0  0  0  0  0  0
  139.7791   78.0927  220.8128 H   0  0  0  0  0  0  0  0  0  0  0  0
  139.3855   77.3792  223.6796 H   0  0  0  0  0  0  0  0  0  0  0  0
  138.2139   77.9382  222.4381 H   0  0  0  0  0  0  0  0  0  0  0  0
  138.7770   76.2324  222.4381 H   0  0  0  0  0  0  0  0  0  0  0  0
  141.7870   76.1360  222.0380 H   0  0  0  0  0  0  0  0  0  0  0  0
  140.9824   73.8134  219.2528 H   0  0  0  0  0  0  0  0  0  0  0  0
  142.4675   74.6549  219.7795 H   0  0  0  0  0  0  0  0  0  0  0  0
  142.2420   73.5750  221.9520 H   0  0  0  0  0  0  0  0  0  0  0  0
  139.0138   70.5450  221.6232 H   0  0  0  0  0  0  0  0  0  0  0  0
  138.7002   68.9821  223.5156 H   0  0  0  0  0  0  0  0  0  0  0  0
  139.1113   68.4490  225.7955 H   0  0  0  0  0  0  0  0  0  0  0  0
  141.4541   71.1491  228.2341 H   0  0  0  0  0  0  0  0  0  0  0  0
  141.7012   72.6366  226.2798 H   0  0  0  0  0  0  0  0  0  0  0  0
  1  2  1  0
  2  3  2  0
  3  4  1  0
  4  5  2  0
  5  6  1  0
  6  7  2  0
  7  8  1  0
  8  9  1  0
  8 10  1  0
 10 11  1  0
 11 12  2  0
 11 13  1  0
 13 14  1  0
 14 15  1  0
 15 16  2  0
 15 17  1  0
 17 18  2  0
 18 19  1  0
 19 20  2  0
 20 21  1  0
 21 22  2  0
 22 23  1  0
 22 24  1  0
 24 25  2  0
 25 26  1  0
 26 27  2  0
  7  2  1  0
 27 17  1  0
 26 20  1  0
  1 28  1  0
  1 29  1  0
  1 30  1  0
  3 31  1  0
  4 32  1  0
  5 33  1  0
  6 34  1  0
  8 35  1  6
  9 36  1  0
  9 37  1  0
  9 38  1  0
 10 39  1  0
 13 40  1  0
 13 41  1  0
 14 42  1  0
 18 43  1  0
 19 44  1  0
 21 45  1  0
 24 46  1  0
 25 47  1  0
M  END
>  <smiles>  (27) 
Cc1ccccc1[C@H](C)NC(=O)CNC(=O)c1ccc2cc(Cl)ccc2n1

>  <score_type>  (27) 
oracle

>  <origin>  (27) 
autodockgpu

>  <m_score__min__energy>  (27) 
-8.6600000000000001

>  <m_primary>  (27) 
energy

>  <rmsd>  (27) 
4.0719079010419845

>  <m_score__min__rmsd>  (27) 
4.0719079010419845

>  <meeko>  (27) 
{"free_energy": -8.31, "intermolecular_energy": -9.8, "internal_energy": -1.27, "cluster_size": 15, "cluster_id": 2, "rank_in_cluster": 9}

>  <energy>  (27) 
-7.87

>  <cluster_rmsd>  (27) 
1.54

>  <cluster>  (27) 
2

$$$$

     RDKit          3D

 47 49  0  0  0  0  0  0  0  0999 V2000
  139.1890   69.4970  228.7440 C   0  0  0  0  0  0  0  0  0  0  0  0
  140.0700   70.3270  227.8850 C   0  0  0  0  0  0  0  0  0  0  0  0
  140.6750   71.4950  228.3410 C   0  0  0  0  0  0  0  0  0  0  0  0
  141.4940   72.2640  227.5410 C   0  0  0  0  0  0  0  0  0  0  0  0
  141.7250   71.8680  226.2390 C   0  0  0  0  0  0  0  0  0  0  0  0
  141.1270   70.7060  225.7790 C   0  0  0  0  0  0  0  0  0  0  0  0
  140.3060   69.9240  226.5660 C   0  0  0  0  0  0  0  0  0  0  0  0
  139.6770   68.6910  226.0580 C   0  0  2  0  0  0  0  0  0  0  0  0
  140.5650   67.4770  226.1530 C   0  0  0  0  0  0  0  0  0  0  0  0
  139.3480   68.8890  224.6590 N   0  0  0  0  0  0  0  0  0  0  0  0
  138.0930   69.4910  224.2950 C   0  0  0  0  0  0  0  0  0  0  0  0
  137.2630   69.8540  225.1950 O   0  0  0  0  0  0  0  0  0  0  0  0
  137.7690   69.6890  222.8550 C   0  0  0  0  0  0  0  0  0  0  0  0
  138.1340   71.0390  222.4920 N   0  0  0  0  0  0  0  0  0  0  0  0
  139.5310   71.3130  222.3580 C   0  0  0  0  0  0  0  0  0  0  0  0
  140.3010   70.3220  222.5780 O   0  0  0  0  0  0  0  0  0  0  0  0
  140.0360   72.6230  221.9990 C   0  0  0  0  0  0  0  0  0  0  0  0
  141.1840   72.6880  221.2540 C   0  0  0  0  0  0  0  0  0  0  0  0
  141.7600   73.8780  220.8520 C   0  0  0  0  0  0  0  0  0  0  0  0
  141.1360   75.0440  221.2270 C   0  0  0  0  0  0  0  0  0  0  0  0
  141.6820   76.2330  220.8450 C   0  0  0  0  0  0  0  0  0  0  0  0
  141.0340   77.4040  221.2350 C   0  0  0  0  0  0  0  0  0  0  0  0
  141.7500   78.9240  220.7340 Cl  0  0  0  0  0  0  0  0  0  0  0  0
  139.8800   77.3750  221.9830 C   0  0  0  0  0  0  0  0  0  0  0  0
  139.3770   76.1420  222.3390 C   0  0  0  0  0  0  0  0  0  0  0  0
  139.9650   74.9540  221.9880 C   0  0  0  0  0  0  0  0  0  0  0  0
  139.4490   73.7730  222.3510 N   0  0  0  0  0  0  0  0  0  0  0  0
  139.4082   69.7035  229.8020 H   0  0  0  0  0  0  0  0  0  0  0  0
  138.1370   69.7399  228.5333 H   0  0  0  0  0  0  0  0  0  0  0  0
  139.3688   68.4324  228.5333 H   0  0  0  0  0  0  0  0  0  0  0  0
  140.4932   71.8163  229.3772 H   0  0  0  0  0  0  0  0  0  0  0  0
  141.9569   73.1807  227.9352 H   0  0  0  0  0  0  0  0  0  0  0  0
  142.3721   72.4641  225.5787 H   0  0  0  0  0  0  0  0  0  0  0  0
  141.3147   70.3930  224.7413 H   0  0  0  0  0  0  0  0  0  0  0  0
  138.7914   68.5033  226.6829 H   0  0  0  0  0  0  0  0  0  0  0  0
  140.7424   67.2344  227.2111 H   0  0  0  0  0  0  0  0  0  0  0  0
  140.0754   66.6250  225.6586 H   0  0  0  0  0  0  0  0  0  0  0  0
  141.5253   67.6855  225.6586 H   0  0  0  0  0  0  0  0  0  0  0  0
  139.9760   68.6190  223.8700 H   0  0  0  0  0  0  0  0  0  0  0  0
  138.3370   68.9724  222.2435 H   0  0  0  0  0  0  0  0  0  0  0  0
  136.6952   69.5258  222.6810 H   0  0  0  0  0  0  0  0  0  0  0  0
  137.4510   71.8010  222.3270 H   0  0  0  0  0  0  0  0  0  0  0  0
  141.6713   71.7463  220.9614 H   0  0  0  0  0  0  0  0  0  0  0  0
  142.6833   73.8917  220.2543 H   0  0  0  0  0  0  0  0  0  0  0  0
  142.6051   76.2675  220.2477 H   0  0  0  0  0  0  0  0  0  0  0  0
  139.3757   78.3042  222.2868 H   0  0  0  0  0  0  0  0  0  0  0  0
  138.4542   76.1093  222.9369 H   0  0  0  0  0  0  0  0  0  0  0  0
  1  2  1  0
  2  3  2  0
  3  4  1  0
  4  5  2  0
  5  6  1  0
  6  7  2  0
  7  8  1  0
  8  9  1  0
  8 10  1  0
 10 11  1  0
 11 12  2  0
 11 13  1  0
 13 14  1  0
 14 15  1  0
 15 16  2  0
 15 17  1  0
 17 18  2  0
 18 19  1  0
 19 20  2  0
 20 21  1  0
 21 22  2  0
 22 23  1  0
 22 24  1  0
 24 25  2  0
 25 26  1  0
 26 27  2  0
  7  2  1  0
 27 17  1  0
 26 20  1  0
  1 28  1  0
  1 29  1  0
  1 30  1  0
  3 31  1  0
  4 32  1  0
  5 33  1  0
  6 34  1  0
  8 35  1  1
  9 36  1  0
  9 37  1  0
  9 38  1  0
 10 39  1  0
 13 40  1  0
 13 41  1  0
 14 42  1  0
 18 43  1  0
 19 44  1  0
 21 45  1  0
 24 46  1  0
 25 47  1  0
M  END
>  <smiles>  (28) 
Cc1ccccc1[C@H](C)NC(=O)CNC(=O)c1ccc2cc(Cl)ccc2n1

>  <score_type>  (28) 
oracle

>  <origin>  (28) 
autodockgpu

>  <m_score__min__energy>  (28) 
-8.6600000000000001

>  <m_primary>  (28) 
energy

>  <rmsd>  (28) 
9.88148383535539

>  <m_score__min__rmsd>  (28) 
9.88148383535539

>  <meeko>  (28) 
{"free_energy": -7.97, "intermolecular_energy": -9.46, "internal_energy": -2.27, "cluster_size": 20, "cluster_id": 3, "rank_in_cluster": 6}

>  <energy>  (28) 
-8.45

>  <cluster_rmsd>  (28) 
0.0

>  <cluster>  (28) 
3

$$$$

     RDKit          3D

 47 49  0  0  0  0  0  0  0  0999 V2000
  138.5540   68.8310  224.7070 C   0  0  0  0  0  0  0  0  0  0  0  0
  139.4220   69.8130  225.4020 C   0  0  0  0  0  0  0  0  0  0  0  0
  139.7320   69.7120  226.7550 C   0  0  0  0  0  0  0  0  0  0  0  0
  140.5390   70.6260  227.4000 C   0  0  0  0  0  0  0  0  0  0  0  0
  141.0620   71.6830  226.6830 C   0  0  0  0  0  0  0  0  0  0  0  0
  140.7580   71.7900  225.3350 C   0  0  0  0  0  0  0  0  0  0  0  0
  139.9530   70.8840  224.6750 C   0  0  0  0  0  0  0  0  0  0  0  0
  139.6410   71.0160  223.2400 C   0  0  2  0  0  0  0  0  0  0  0  0
  140.8120   71.4660  222.4060 C   0  0  0  0  0  0  0  0  0  0  0  0
  138.5870   72.0010  223.0900 N   0  0  0  0  0  0  0  0  0  0  0  0
  137.3730   71.6540  222.4000 C   0  0  0  0  0  0  0  0  0  0  0  0
  137.2140   70.4840  221.9160 O   0  0  0  0  0  0  0  0  0  0  0  0
  136.2990   72.6770  222.2540 C   0  0  0  0  0  0  0  0  0  0  0  0
  136.8200   73.9440  222.7130 N   0  0  0  0  0  0  0  0  0  0  0  0
  137.7370   74.6140  221.8450 C   0  0  0  0  0  0  0  0  0  0  0  0
  137.9930   74.0080  220.7540 O   0  0  0  0  0  0  0  0  0  0  0  0
  138.3340   75.8920  222.1810 C   0  0  0  0  0  0  0  0  0  0  0  0
  137.5250   76.8590  222.7170 C   0  0  0  0  0  0  0  0  0  0  0  0
  137.9790   78.1140  223.0760 C   0  0  0  0  0  0  0  0  0  0  0  0
  139.3110   78.3870  222.8780 C   0  0  0  0  0  0  0  0  0  0  0  0
  139.7880   79.6160  223.2230 C   0  0  0  0  0  0  0  0  0  0  0  0
  141.1420   79.8740  223.0150 C   0  0  0  0  0  0  0  0  0  0  0  0
  141.7360   81.4610  223.4650 Cl  0  0  0  0  0  0  0  0  0  0  0  0
  141.9820   78.9260  222.4790 C   0  0  0  0  0  0  0  0  0  0  0  0
  141.4420   77.7020  222.1510 C   0  0  0  0  0  0  0  0  0  0  0  0
  140.1190   77.3850  222.3300 C   0  0  0  0  0  0  0  0  0  0  0  0
  139.6270   76.1840  221.9980 N   0  0  0  0  0  0  0  0  0  0  0  0
  138.0177   68.2243  225.4515 H   0  0  0  0  0  0  0  0  0  0  0  0
  137.8274   69.3651  224.0771 H   0  0  0  0  0  0  0  0  0  0  0  0
  139.1733   68.1755  224.0771 H   0  0  0  0  0  0  0  0  0  0  0  0
  139.3179   68.8718  227.3317 H   0  0  0  0  0  0  0  0  0  0  0  0
  140.7627   70.5140  228.4712 H   0  0  0  0  0  0  0  0  0  0  0  0
  141.7081   72.4267  227.1723 H   0  0  0  0  0  0  0  0  0  0  0  0
  141.1765   72.6337  224.7666 H   0  0  0  0  0  0  0  0  0  0  0  0
  139.3463   70.0176  222.8846 H   0  0  0  0  0  0  0  0  0  0  0  0
  141.6330   71.7815  223.0667 H   0  0  0  0  0  0  0  0  0  0  0  0
  141.1512   70.6342  221.7712 H   0  0  0  0  0  0  0  0  0  0  0  0
  140.5069   72.3109  221.7712 H   0  0  0  0  0  0  0  0  0  0  0  0
  138.6460   72.9760  223.4590 H   0  0  0  0  0  0  0  0  0  0  0  0
  136.0013   72.7569  221.1981 H   0  0  0  0  0  0  0  0  0  0  0  0
  135.4172   72.3907  222.8461 H   0  0  0  0  0  0  0  0  0  0  0  0
  136.5670   74.3820  223.6180 H   0  0  0  0  0  0  0  0  0  0  0  0
  136.4610   76.6249  222.8692 H   0  0  0  0  0  0  0  0  0  0  0  0
  137.2997   78.8659  223.5041 H   0  0  0  0  0  0  0  0  0  0  0  0
  139.1247   80.3812  223.6526 H   0  0  0  0  0  0  0  0  0  0  0  0
  143.0492   79.1381  222.3177 H   0  0  0  0  0  0  0  0  0  0  0  0
  142.1070   76.9377  221.7226 H   0  0  0  0  0  0  0  0  0  0  0  0
  1  2  1  0
  2  3  2  0
  3  4  1  0
  4  5  2  0
  5  6  1  0
  6  7  2  0
  7  8  1  0
  8  9  1  0
  8 10  1  0
 10 11  1  0
 11 12  2  0
 11 13  1  0
 13 14  1  0
 14 15  1  0
 15 16  2  0
 15 17  1  0
 17 18  2  0
 18 19  1  0
 19 20  2  0
 20 21  1  0
 21 22  2  0
 22 23  1  0
 22 24  1  0
 24 25  2  0
 25 26  1  0
 26 27  2  0
  7  2  1  0
 27 17  1  0
 26 20  1  0
  1 28  1  0
  1 29  1  0
  1 30  1  0
  3 31  1  0
  4 32  1  0
  5 33  1  0
  6 34  1  0
  8 35  1  6
  9 36  1  0
  9 37  1  0
  9 38  1  0
 10 39  1  0
 13 40  1  0
 13 41  1  0
 14 42  1  0
 18 43  1  0
 19 44  1  0
 21 45  1  0
 24 46  1  0
 25 47  1  0
M  END
>  <smiles>  (29) 
Cc1ccccc1[C@H](C)NC(=O)CNC(=O)c1ccc2cc(Cl)ccc2n1

>  <score_type>  (29) 
oracle

>  <origin>  (29) 
autodockgpu

>  <m_score__min__energy>  (29) 
-8.6600000000000001

>  <m_primary>  (29) 
energy

>  <rmsd>  (29) 
9.183536834786121

>  <m_score__min__rmsd>  (29) 
9.183536834786121

>  <meeko>  (29) 
{"free_energy": -7.67, "intermolecular_energy": -9.16, "internal_energy": -1.37, "cluster_size": 20, "cluster_id": 3, "rank_in_cluster": 15}

>  <energy>  (29) 
-8.34

>  <cluster_rmsd>  (29) 
0.14

>  <cluster>  (29) 
3

$$$$

     RDKit          3D

 47 49  0  0  0  0  0  0  0  0999 V2000
  141.4050   79.2960  219.9980 C   0  0  0  0  0  0  0  0  0  0  0  0
  141.6560   79.4090  221.4560 C   0  0  0  0  0  0  0  0  0  0  0  0
  142.5220   80.3560  221.9950 C   0  0  0  0  0  0  0  0  0  0  0  0
  142.7540   80.4600  223.3500 C   0  0  0  0  0  0  0  0  0  0  0  0
  142.1060   79.5960  224.2100 C   0  0  0  0  0  0  0  0  0  0  0  0
  141.2420   78.6510  223.6810 C   0  0  0  0  0  0  0  0  0  0  0  0
  140.9980   78.5340  222.3270 C   0  0  0  0  0  0  0  0  0  0  0  0
  140.0750   77.5210  221.7840 C   0  0  2  0  0  0  0  0  0  0  0  0
  138.9440   77.1720  222.7160 C   0  0  0  0  0  0  0  0  0  0  0  0
  140.8270   76.3080  221.5270 N   0  0  0  0  0  0  0  0  0  0  0  0
  140.6940   75.6350  220.2630 C   0  0  0  0  0  0  0  0  0  0  0  0
  139.9180   76.0970  219.3610 O   0  0  0  0  0  0  0  0  0  0  0  0
  141.4730   74.3900  220.0140 C   0  0  0  0  0  0  0  0  0  0  0  0
  141.4820   73.6140  221.2330 N   0  0  0  0  0  0  0  0  0  0  0  0
  140.3630   72.7520  221.4540 C   0  0  0  0  0  0  0  0  0  0  0  0
  139.4760   72.7700  220.5390 O   0  0  0  0  0  0  0  0  0  0  0  0
  140.2440   71.9180  222.6330 C   0  0  0  0  0  0  0  0  0  0  0  0
  139.6290   70.7010  222.5020 C   0  0  0  0  0  0  0  0  0  0  0  0
  139.4570   69.8210  223.5530 C   0  0  0  0  0  0  0  0  0  0  0  0
  139.9330   70.2030  224.7850 C   0  0  0  0  0  0  0  0  0  0  0  0
  139.7780   69.3550  225.8400 C   0  0  0  0  0  0  0  0  0  0  0  0
  140.2690   69.7600  227.0810 C   0  0  0  0  0  0  0  0  0  0  0  0
  140.0600   68.6560  228.4270 Cl  0  0  0  0  0  0  0  0  0  0  0  0
  140.8910   70.9740  227.2480 C   0  0  0  0  0  0  0  0  0  0  0  0
  141.0180   71.7880  226.1430 C   0  0  0  0  0  0  0  0  0  0  0  0
  140.5580   71.4490  224.8960 C   0  0  0  0  0  0  0  0  0  0  0  0
  140.6980   72.2660  223.8430 N   0  0  0  0  0  0  0  0  0  0  0  0
  140.4137   78.8497  219.8301 H   0  0  0  0  0  0  0  0  0  0  0  0
  141.4389   80.2962  219.5415 H   0  0  0  0  0  0  0  0  0  0  0  0
  142.1763   78.6583  219.5415 H   0  0  0  0  0  0  0  0  0  0  0  0
  143.0407   81.0473  221.3144 H   0  0  0  0  0  0  0  0  0  0  0  0
  143.4458   81.2208  223.7405 H   0  0  0  0  0  0  0  0  0  0  0  0
  142.2727   79.6568  225.2956 H   0  0  0  0  0  0  0  0  0  0  0  0
  140.7281   77.9641  224.3695 H   0  0  0  0  0  0  0  0  0  0  0  0
  139.6318   77.9495  220.8730 H   0  0  0  0  0  0  0  0  0  0  0  0
  139.2818   77.2762  223.7576 H   0  0  0  0  0  0  0  0  0  0  0  0
  138.0974   77.8507  222.5354 H   0  0  0  0  0  0  0  0  0  0  0  0
  138.6270   76.1342  222.5354 H   0  0  0  0  0  0  0  0  0  0  0  0
  141.4800   75.8730  222.2150 H   0  0  0  0  0  0  0  0  0  0  0  0
  141.0015   73.8104  219.2067 H   0  0  0  0  0  0  0  0  0  0  0  0
  142.5015   74.6381  219.7129 H   0  0  0  0  0  0  0  0  0  0  0  0
  142.2420   73.6480  221.9380 H   0  0  0  0  0  0  0  0  0  0  0  0
  139.2532   70.4098  221.5101 H   0  0  0  0  0  0  0  0  0  0  0  0
  138.9580   68.8512  223.4096 H   0  0  0  0  0  0  0  0  0  0  0  0
  139.2811   68.3814  225.7169 H   0  0  0  0  0  0  0  0  0  0  0  0
  141.2747   71.2857  228.2307 H   0  0  0  0  0  0  0  0  0  0  0  0
  141.5148   72.7615  226.2678 H   0  0  0  0  0  0  0  0  0  0  0  0
  1  2  1  0
  2  3  2  0
  3  4  1  0
  4  5  2  0
  5  6  1  0
  6  7  2  0
  7  8  1  0
  8  9  1  0
  8 10  1  0
 10 11  1  0
 11 12  2  0
 11 13  1  0
 13 14  1  0
 14 15  1  0
 15 16  2  0
 15 17  1  0
 17 18  2  0
 18 19  1  0
 19 20  2  0
 20 21  1  0
 21 22  2  0
 22 23  1  0
 22 24  1  0
 24 25  2  0
 25 26  1  0
 26 27  2  0
  7  2  1  0
 27 17  1  0
 26 20  1  0
  1 28  1  0
  1 29  1  0
  1 30  1  0
  3 31  1  0
  4 32  1  0
  5 33  1  0
  6 34  1  0
  8 35  1  6
  9 36  1  0
  9 37  1  0
  9 38  1  0
 10 39  1  0
 13 40  1  0
 13 41  1  0
 14 42  1  0
 18 43  1  0
 19 44  1  0
 21 45  1  0
 24 46  1  0
 25 47  1  0
M  END
>  <smiles>  (30) 
Cc1ccccc1[C@H](C)NC(=O)CNC(=O)c1ccc2cc(Cl)ccc2n1

>  <score_type>  (30) 
oracle

>  <origin>  (30) 
autodockgpu

>  <m_score__min__energy>  (30) 
-8.6600000000000001

>  <m_primary>  (30) 
energy

>  <rmsd>  (30) 
4.1187536721335904

>  <m_score__min__rmsd>  (30) 
4.1187536721335904

>  <meeko>  (30) 
{"free_energy": -7.96, "intermolecular_energy": -9.45, "internal_energy": -1.33, "cluster_size": 15, "cluster_id": 2, "rank_in_cluster": 14}

>  <energy>  (30) 
-8.13

>  <cluster_rmsd>  (30) 
1.09

>  <cluster>  (30) 
3

$$$$

     RDKit          3D

 47 49  0  0  0  0  0  0  0  0999 V2000
  141.0220   79.8600  220.1290 C   0  0  0  0  0  0  0  0  0  0  0  0
  141.4760   79.8350  221.5420 C   0  0  0  0  0  0  0  0  0  0  0  0
  142.5760   80.5630  221.9870 C   0  0  0  0  0  0  0  0  0  0  0  0
  142.9960   80.5390  223.3000 C   0  0  0  0  0  0  0  0  0  0  0  0
  142.3070   79.7650  224.2110 C   0  0  0  0  0  0  0  0  0  0  0  0
  141.2120   79.0370  223.7750 C   0  0  0  0  0  0  0  0  0  0  0  0
  140.7770   79.0510  222.4650 C   0  0  0  0  0  0  0  0  0  0  0  0
  139.6090   78.2690  222.0210 C   0  0  2  0  0  0  0  0  0  0  0  0
  138.5200   78.1650  223.0580 C   0  0  0  0  0  0  0  0  0  0  0  0
  140.0510   76.9230  221.7090 N   0  0  0  0  0  0  0  0  0  0  0  0
  139.1050   75.9480  221.2390 C   0  0  0  0  0  0  0  0  0  0  0  0
  137.8750   76.2550  221.0940 O   0  0  0  0  0  0  0  0  0  0  0  0
  139.5750   74.5700  220.9220 C   0  0  0  0  0  0  0  0  0  0  0  0
  139.6450   73.8230  222.1570 N   0  0  0  0  0  0  0  0  0  0  0  0
  139.8760   72.4170  222.0460 C   0  0  0  0  0  0  0  0  0  0  0  0
  139.9940   71.9800  220.8550 O   0  0  0  0  0  0  0  0  0  0  0  0
  139.9700   71.5500  223.2030 C   0  0  0  0  0  0  0  0  0  0  0  0
  139.5310   70.2580  223.0770 C   0  0  0  0  0  0  0  0  0  0  0  0
  139.5680   69.3400  224.1090 C   0  0  0  0  0  0  0  0  0  0  0  0
  140.0760   69.7610  225.3150 C   0  0  0  0  0  0  0  0  0  0  0  0
  140.1260   68.8780  226.3510 C   0  0  0  0  0  0  0  0  0  0  0  0
  140.6440   69.3240  227.5660 C   0  0  0  0  0  0  0  0  0  0  0  0
  140.7010   68.1730  228.8870 Cl  0  0  0  0  0  0  0  0  0  0  0  0
  141.0940   70.6140  227.7270 C   0  0  0  0  0  0  0  0  0  0  0  0
  141.0170   71.4600  226.6430 C   0  0  0  0  0  0  0  0  0  0  0  0
  140.5190   71.0840  225.4210 C   0  0  0  0  0  0  0  0  0  0  0  0
  140.4580   71.9340  224.3880 N   0  0  0  0  0  0  0  0  0  0  0  0
  139.9241   79.9205  220.0976 H   0  0  0  0  0  0  0  0  0  0  0  0
  141.4521   80.7358  219.6211 H   0  0  0  0  0  0  0  0  0  0  0  0
  141.3533   78.9422  219.6211 H   0  0  0  0  0  0  0  0  0  0  0  0
  143.1304   81.1800  221.2646 H   0  0  0  0  0  0  0  0  0  0  0  0
  143.8686   81.1290  223.6170 H   0  0  0  0  0  0  0  0  0  0  0  0
  142.6215   79.7267  225.2644 H   0  0  0  0  0  0  0  0  0  0  0  0
  140.6655   78.4211  224.5043 H   0  0  0  0  0  0  0  0  0  0  0  0
  139.1878   78.7934  221.1506 H   0  0  0  0  0  0  0  0  0  0  0  0
  138.9654   78.2075  224.0629 H   0  0  0  0  0  0  0  0  0  0  0  0
  137.8146   78.9999  222.9339 H   0  0  0  0  0  0  0  0  0  0  0  0
  137.9854   77.2117  222.9339 H   0  0  0  0  0  0  0  0  0  0  0  0
  141.0390   76.6000  221.8030 H   0  0  0  0  0  0  0  0  0  0  0  0
  138.8685   74.0847  220.2325 H   0  0  0  0  0  0  0  0  0  0  0  0
  140.5644   74.6062  220.4426 H   0  0  0  0  0  0  0  0  0  0  0  0
  139.5400   74.2460  223.0980 H   0  0  0  0  0  0  0  0  0  0  0  0
  139.1289   69.9355  222.1053 H   0  0  0  0  0  0  0  0  0  0  0  0
  139.2046   68.3110  223.9708 H   0  0  0  0  0  0  0  0  0  0  0  0
  139.7685   67.8445  226.2325 H   0  0  0  0  0  0  0  0  0  0  0  0
  141.5015   70.9581  228.6890 H   0  0  0  0  0  0  0  0  0  0  0  0
  141.3742   72.4934  226.7634 H   0  0  0  0  0  0  0  0  0  0  0  0
  1  2  1  0
  2  3  2  0
  3  4  1  0
  4  5  2  0
  5  6  1  0
  6  7  2  0
  7  8  1  0
  8  9  1  0
  8 10  1  0
 10 11  1  0
 11 12  2  0
 11 13  1  0
 13 14  1  0
 14 15  1  0
 15 16  2  0
 15 17  1  0
 17 18  2  0
 18 19  1  0
 19 20  2  0
 20 21  1  0
 21 22  2  0
 22 23  1  0
 22 24  1  0
 24 25  2  0
 25 26  1  0
 26 27  2  0
  7  2  1  0
 27 17  1  0
 26 20  1  0
  1 28  1  0
  1 29  1  0
  1 30  1  0
  3 31  1  0
  4 32  1  0
  5 33  1  0
  6 34  1  0
  8 35  1  6
  9 36  1  0
  9 37  1  0
  9 38  1  0
 10 39  1  0
 13 40  1  0
 13 41  1  0
 14 42  1  0
 18 43  1  0
 19 44  1  0
 21 45  1  0
 24 46  1  0
 25 47  1  0
M  END
>  <smiles>  (31) 
Cc1ccccc1[C@H](C)NC(=O)CNC(=O)c1ccc2cc(Cl)ccc2n1

>  <score_type>  (31) 
oracle

>  <origin>  (31) 
autodockgpu

>  <m_score__min__energy>  (31) 
-8.6600000000000001

>  <m_primary>  (31) 
energy

>  <rmsd>  (31) 
4.07958208509431

>  <m_score__min__rmsd>  (31) 
4.07958208509431

>  <meeko>  (31) 
{"free_energy": -8.49, "intermolecular_energy": -9.98, "internal_energy": -1.0, "cluster_size": 15, "cluster_id": 2, "rank_in_cluster": 3}

>  <energy>  (31) 
-7.99

>  <cluster_rmsd>  (31) 
1.29

>  <cluster>  (31) 
3

$$$$

     RDKit          3D

 47 49  0  0  0  0  0  0  0  0999 V2000
  138.8600   68.2940  225.7450 C   0  0  0  0  0  0  0  0  0  0  0  0
  139.6290   69.5330  226.0190 C   0  0  0  0  0  0  0  0  0  0  0  0
  140.2930   69.7500  227.2230 C   0  0  0  0  0  0  0  0  0  0  0  0
  141.0080   70.9030  227.4760 C   0  0  0  0  0  0  0  0  0  0  0  0
  141.0690   71.8810  226.5050 C   0  0  0  0  0  0  0  0  0  0  0  0
  140.4100   71.6720  225.3040 C   0  0  0  0  0  0  0  0  0  0  0  0
  139.6920   70.5250  225.0340 C   0  0  0  0  0  0  0  0  0  0  0  0
  138.9970   70.3210  223.7500 C   0  0  2  0  0  0  0  0  0  0  0  0
  139.9290   70.1790  222.5740 C   0  0  0  0  0  0  0  0  0  0  0  0
  138.1460   71.4700  223.5040 N   0  0  0  0  0  0  0  0  0  0  0  0
  137.4110   71.5670  222.2710 C   0  0  0  0  0  0  0  0  0  0  0  0
  137.5020   70.6500  221.3880 O   0  0  0  0  0  0  0  0  0  0  0  0
  136.5410   72.7530  222.0320 C   0  0  0  0  0  0  0  0  0  0  0  0
  137.2700   73.9340  222.4340 N   0  0  0  0  0  0  0  0  0  0  0  0
  138.3070   74.3790  221.5560 C   0  0  0  0  0  0  0  0  0  0  0  0
  138.4700   73.6730  220.5080 O   0  0  0  0  0  0  0  0  0  0  0  0
  139.1150   75.5490  221.8370 C   0  0  0  0  0  0  0  0  0  0  0  0
  140.4220   75.5420  221.4280 C   0  0  0  0  0  0  0  0  0  0  0  0
  141.2890   76.5970  221.6390 C   0  0  0  0  0  0  0  0  0  0  0  0
  140.7970   77.7010  222.2940 C   0  0  0  0  0  0  0  0  0  0  0  0
  141.6280   78.7580  222.5160 C   0  0  0  0  0  0  0  0  0  0  0  0
  141.1100   79.8680  223.1820 C   0  0  0  0  0  0  0  0  0  0  0  0
  142.1950   81.2170  223.4590 Cl  0  0  0  0  0  0  0  0  0  0  0  0
  139.8030   79.9080  223.6070 C   0  0  0  0  0  0  0  0  0  0  0  0
  139.0110   78.8090  223.3520 C   0  0  0  0  0  0  0  0  0  0  0  0
  139.4590   77.6870  222.7030 C   0  0  0  0  0  0  0  0  0  0  0  0
  138.6610   76.6360  222.4730 N   0  0  0  0  0  0  0  0  0  0  0  0
  138.5690   67.8251  226.6965 H   0  0  0  0  0  0  0  0  0  0  0  0
  137.9574   68.5428  225.1677 H   0  0  0  0  0  0  0  0  0  0  0  0
  139.4836   67.5955  225.1677 H   0  0  0  0  0  0  0  0  0  0  0  0
  140.2461   68.9741  228.0013 H   0  0  0  0  0  0  0  0  0  0  0  0
  141.5222   71.0403  228.4387 H   0  0  0  0  0  0  0  0  0  0  0  0
  141.6308   72.8102  226.6810 H   0  0  0  0  0  0  0  0  0  0  0  0
  140.4615   72.4544  224.5325 H   0  0  0  0  0  0  0  0  0  0  0  0
  138.4316   69.3816  223.8386 H   0  0  0  0  0  0  0  0  0  0  0  0
  140.9557   70.0226  222.9366 H   0  0  0  0  0  0  0  0  0  0  0  0
  139.6205   69.3175  221.9636 H   0  0  0  0  0  0  0  0  0  0  0  0
  139.8910   71.0933  221.9636 H   0  0  0  0  0  0  0  0  0  0  0  0
  138.0230   72.2570  224.1780 H   0  0  0  0  0  0  0  0  0  0  0  0
  136.2852   72.8184  220.9642 H   0  0  0  0  0  0  0  0  0  0  0  0
  135.6099   72.6649  222.6110 H   0  0  0  0  0  0  0  0  0  0  0  0
  137.0830   74.4630  223.3060 H   0  0  0  0  0  0  0  0  0  0  0  0
  140.8007   74.6515  220.9050 H   0  0  0  0  0  0  0  0  0  0  0  0
  142.3333   76.5551  221.2959 H   0  0  0  0  0  0  0  0  0  0  0  0
  142.6752   78.7361  222.1801 H   0  0  0  0  0  0  0  0  0  0  0  0
  139.4028   80.7874  224.1328 H   0  0  0  0  0  0  0  0  0  0  0  0
  137.9635   78.8332  223.6870 H   0  0  0  0  0  0  0  0  0  0  0  0
  1  2  1  0
  2  3  2  0
  3  4  1  0
  4  5  2  0
  5  6  1  0
  6  7  2  0
  7  8  1  0
  8  9  1  0
  8 10  1  0
 10 11  1  0
 11 12  2  0
 11 13  1  0
 13 14  1  0
 14 15  1  0
 15 16  2  0
 15 17  1  0
 17 18  2  0
 18 19  1  0
 19 20  2  0
 20 21  1  0
 21 22  2  0
 22 23  1  0
 22 24  1  0
 24 25  2  0
 25 26  1  0
 26 27  2  0
  7  2  1  0
 27 17  1  0
 26 20  1  0
  1 28  1  0
  1 29  1  0
  1 30  1  0
  3 31  1  0
  4 32  1  0
  5 33  1  0
  6 34  1  0
  8 35  1  1
  9 36  1  0
  9 37  1  0
  9 38  1  0
 10 39  1  0
 13 40  1  0
 13 41  1  0
 14 42  1  0
 18 43  1  0
 19 44  1  0
 21 45  1  0
 24 46  1  0
 25 47  1  0
M  END
>  <smiles>  (32) 
Cc1ccccc1[C@H](C)NC(=O)CNC(=O)c1ccc2cc(Cl)ccc2n1

>  <score_type>  (32) 
oracle

>  <origin>  (32) 
autodockgpu

>  <m_score__min__energy>  (32) 
-8.6600000000000001

>  <m_primary>  (32) 
energy

>  <rmsd>  (32) 
9.434065966603137

>  <m_score__min__rmsd>  (32) 
9.434065966603137

>  <meeko>  (32) 
{"free_energy": -7.96, "intermolecular_energy": -9.45, "internal_energy": -1.23, "cluster_size": 20, "cluster_id": 3, "rank_in_cluster": 7}

>  <energy>  (32) 
-7.99

>  <cluster_rmsd>  (32) 
1.24

>  <cluster>  (32) 
3

$$$$

     RDKit          3D

 47 49  0  0  0  0  0  0  0  0999 V2000
  139.2050   69.4590  228.8370 C   0  0  0  0  0  0  0  0  0  0  0  0
  139.9980   70.3010  227.9080 C   0  0  0  0  0  0  0  0  0  0  0  0
  140.5880   71.4980  228.3030 C   0  0  0  0  0  0  0  0  0  0  0  0
  141.3260   72.2790  227.4370 C   0  0  0  0  0  0  0  0  0  0  0  0
  141.4870   71.8650  226.1310 C   0  0  0  0  0  0  0  0  0  0  0  0
  140.9030   70.6740  225.7310 C   0  0  0  0  0  0  0  0  0  0  0  0
  140.1620   69.8800  226.5840 C   0  0  0  0  0  0  0  0  0  0  0  0
  139.5470   68.6160  226.1400 C   0  0  2  0  0  0  0  0  0  0  0  0
  140.4810   67.4350  226.2030 C   0  0  0  0  0  0  0  0  0  0  0  0
  139.1260   68.7730  224.7610 N   0  0  0  0  0  0  0  0  0  0  0  0
  137.8000   69.2440  224.4650 C   0  0  0  0  0  0  0  0  0  0  0  0
  136.9870   69.5260  225.4070 O   0  0  0  0  0  0  0  0  0  0  0  0
  137.3810   69.4000  223.0430 C   0  0  0  0  0  0  0  0  0  0  0  0
  137.7950   70.7100  222.5940 N   0  0  0  0  0  0  0  0  0  0  0  0
  139.1960   70.9050  222.3850 C   0  0  0  0  0  0  0  0  0  0  0  0
  139.9260   69.8880  222.6240 O   0  0  0  0  0  0  0  0  0  0  0  0
  139.7470   72.1670  221.9350 C   0  0  0  0  0  0  0  0  0  0  0  0
  140.6810   72.1410  220.9330 C   0  0  0  0  0  0  0  0  0  0  0  0
  141.2770   73.2780  220.4220 C   0  0  0  0  0  0  0  0  0  0  0  0
  140.9010   74.4870  220.9580 C   0  0  0  0  0  0  0  0  0  0  0  0
  141.4710   75.6260  220.4730 C   0  0  0  0  0  0  0  0  0  0  0  0
  141.0760   76.8420  221.0300 C   0  0  0  0  0  0  0  0  0  0  0  0
  141.8210   78.2960  220.3940 Cl  0  0  0  0  0  0  0  0  0  0  0  0
  140.1420   76.9040  222.0360 C   0  0  0  0  0  0  0  0  0  0  0  0
  139.6000   75.7190  222.4840 C   0  0  0  0  0  0  0  0  0  0  0  0
  139.9450   74.4900  221.9800 C   0  0  0  0  0  0  0  0  0  0  0  0
  139.3990   73.3570  222.4390 N   0  0  0  0  0  0  0  0  0  0  0  0
  139.4543   69.7237  229.8752 H   0  0  0  0  0  0  0  0  0  0  0  0
  138.1326   69.6303  228.6623 H   0  0  0  0  0  0  0  0  0  0  0  0
  139.4402   68.3987  228.6623 H   0  0  0  0  0  0  0  0  0  0  0  0
  140.4615   71.8337  229.3429 H   0  0  0  0  0  0  0  0  0  0  0  0
  141.7798   73.2192  227.7836 H   0  0  0  0  0  0  0  0  0  0  0  0
  142.0687   72.4698  225.4198 H   0  0  0  0  0  0  0  0  0  0  0  0
  141.0352   70.3468  224.6892 H   0  0  0  0  0  0  0  0  0  0  0  0
  138.7087   68.4116  226.8223 H   0  0  0  0  0  0  0  0  0  0  0  0
  140.6814   67.1817  227.2545 H   0  0  0  0  0  0  0  0  0  0  0  0
  140.0172   66.5735  225.7002 H   0  0  0  0  0  0  0  0  0  0  0  0
  141.4262   67.6878  225.7002 H   0  0  0  0  0  0  0  0  0  0  0  0
  139.7350   68.5620  223.9400 H   0  0  0  0  0  0  0  0  0  0  0  0
  137.8603   68.6257  222.4260 H   0  0  0  0  0  0  0  0  0  0  0  0
  136.2898   69.2937  222.9534 H   0  0  0  0  0  0  0  0  0  0  0  0
  137.1420   71.4960  222.4190 H   0  0  0  0  0  0  0  0  0  0  0  0
  140.9710   71.1660  220.5143 H   0  0  0  0  0  0  0  0  0  0  0  0
  142.0240   73.2182  219.6168 H   0  0  0  0  0  0  0  0  0  0  0  0
  142.2191   75.5874  219.6675 H   0  0  0  0  0  0  0  0  0  0  0  0
  139.8370   77.8679  222.4694 H   0  0  0  0  0  0  0  0  0  0  0  0
  138.8509   75.7603  223.2884 H   0  0  0  0  0  0  0  0  0  0  0  0
  1  2  1  0
  2  3  2  0
  3  4  1  0
  4  5  2  0
  5  6  1  0
  6  7  2  0
  7  8  1  0
  8  9  1  0
  8 10  1  0
 10 11  1  0
 11 12  2  0
 11 13  1  0
 13 14  1  0
 14 15  1  0
 15 16  2  0
 15 17  1  0
 17 18  2  0
 18 19  1  0
 19 20  2  0
 20 21  1  0
 21 22  2  0
 22 23  1  0
 22 24  1  0
 24 25  2  0
 25 26  1  0
 26 27  2  0
  7  2  1  0
 27 17  1  0
 26 20  1  0
  1 28  1  0
  1 29  1  0
  1 30  1  0
  3 31  1  0
  4 32  1  0
  5 33  1  0
  6 34  1  0
  8 35  1  1
  9 36  1  0
  9 37  1  0
  9 38  1  0
 10 39  1  0
 13 40  1  0
 13 41  1  0
 14 42  1  0
 18 43  1  0
 19 44  1  0
 21 45  1  0
 24 46  1  0
 25 47  1  0
M  END
>  <smiles>  (33) 
Cc1ccccc1[C@H](C)NC(=O)CNC(=O)c1ccc2cc(Cl)ccc2n1

>  <score_type>  (33) 
oracle

>  <origin>  (33) 
autodockgpu

>  <m_score__min__energy>  (33) 
-8.6600000000000001

>  <m_primary>  (33) 
energy

>  <rmsd>  (33) 
9.931730477546061

>  <m_score__min__rmsd>  (33) 
9.931730477546061

>  <meeko>  (33) 
{"free_energy": -7.56, "intermolecular_energy": -9.05, "internal_energy": -2.2, "cluster_size": 20, "cluster_id": 3, "rank_in_cluster": 17}

>  <energy>  (33) 
-7.97

>  <cluster_rmsd>  (33) 
1.27

>  <cluster>  (33) 
3

$$$$

     RDKit          3D

 47 49  0  0  0  0  0  0  0  0999 V2000
  139.6080   67.8410  225.8990 C   0  0  0  0  0  0  0  0  0  0  0  0
  140.0440   69.1330  226.4850 C   0  0  0  0  0  0  0  0  0  0  0  0
  140.5110   69.2420  227.7910 C   0  0  0  0  0  0  0  0  0  0  0  0
  140.9160   70.4440  228.3340 C   0  0  0  0  0  0  0  0  0  0  0  0
  140.8580   71.5840  227.5580 C   0  0  0  0  0  0  0  0  0  0  0  0
  140.3950   71.4830  226.2570 C   0  0  0  0  0  0  0  0  0  0  0  0
  139.9860   70.2880  225.6980 C   0  0  0  0  0  0  0  0  0  0  0  0
  139.4960   70.2010  224.3100 C   0  0  2  0  0  0  0  0  0  0  0  0
  139.6420   71.4860  223.5360 C   0  0  0  0  0  0  0  0  0  0  0  0
  138.0850   69.8640  224.3450 N   0  0  0  0  0  0  0  0  0  0  0  0
  137.3690   69.6510  223.1160 C   0  0  0  0  0  0  0  0  0  0  0  0
  137.9630   69.7560  221.9920 O   0  0  0  0  0  0  0  0  0  0  0  0
  135.9210   69.3040  223.1670 C   0  0  0  0  0  0  0  0  0  0  0  0
  135.2000   70.4570  223.6560 N   0  0  0  0  0  0  0  0  0  0  0  0
  134.9730   70.5220  225.0670 C   0  0  0  0  0  0  0  0  0  0  0  0
  135.4390   69.5430  225.7360 O   0  0  0  0  0  0  0  0  0  0  0  0
  134.2650   71.6210  225.6910 C   0  0  0  0  0  0  0  0  0  0  0  0
  133.2270   71.3220  226.5350 C   0  0  0  0  0  0  0  0  0  0  0  0
  132.4790   72.2830  227.1860 C   0  0  0  0  0  0  0  0  0  0  0  0
  132.8050   73.6000  226.9650 C   0  0  0  0  0  0  0  0  0  0  0  0
  132.0850   74.5700  227.5950 C   0  0  0  0  0  0  0  0  0  0  0  0
  132.4320   75.9000  227.3580 C   0  0  0  0  0  0  0  0  0  0  0  0
  131.4940   77.1340  228.1760 Cl  0  0  0  0  0  0  0  0  0  0  0  0
  133.4670   76.2350  226.5170 C   0  0  0  0  0  0  0  0  0  0  0  0
  134.1590   75.2090  225.9100 C   0  0  0  0  0  0  0  0  0  0  0  0
  133.8680   73.8820  226.1000 C   0  0  0  0  0  0  0  0  0  0  0  0
  134.5620   72.9110  225.4930 N   0  0  0  0  0  0  0  0  0  0  0  0
  139.3694   67.1338  226.7071 H   0  0  0  0  0  0  0  0  0  0  0  0
  138.7148   68.0030  225.2778 H   0  0  0  0  0  0  0  0  0  0  0  0
  140.4167   67.4286  225.2778 H   0  0  0  0  0  0  0  0  0  0  0  0
  140.5591   68.3365  228.4137 H   0  0  0  0  0  0  0  0  0  0  0  0
  141.2800   70.4931  229.3709 H   0  0  0  0  0  0  0  0  0  0  0  0
  141.1740   72.5555  227.9659 H   0  0  0  0  0  0  0  0  0  0  0  0
  140.3510   72.3939  225.6420 H   0  0  0  0  0  0  0  0  0  0  0  0
  140.1056   69.4386  223.8029 H   0  0  0  0  0  0  0  0  0  0  0  0
  139.7376   72.3278  224.2376 H   0  0  0  0  0  0  0  0  0  0  0  0
  140.5399   71.4326  222.9028 H   0  0  0  0  0  0  0  0  0  0  0  0
  138.7551   71.6354  222.9028 H   0  0  0  0  0  0  0  0  0  0  0  0
  137.5340   69.7610  225.2250 H   0  0  0  0  0  0  0  0  0  0  0  0
  135.5649   69.0411  222.1600 H   0  0  0  0  0  0  0  0  0  0  0  0
  135.7587   68.4429  223.8319 H   0  0  0  0  0  0  0  0  0  0  0  0
  134.8470   71.2220  223.0510 H   0  0  0  0  0  0  0  0  0  0  0  0
  132.9775   70.2638  226.7020 H   0  0  0  0  0  0  0  0  0  0  0  0
  131.6527   72.0049  227.8567 H   0  0  0  0  0  0  0  0  0  0  0  0
  131.2555   74.3122  228.2699 H   0  0  0  0  0  0  0  0  0  0  0  0
  133.7338   77.2865  226.3347 H   0  0  0  0  0  0  0  0  0  0  0  0
  134.9894   75.4683  225.2369 H   0  0  0  0  0  0  0  0  0  0  0  0
  1  2  1  0
  2  3  2  0
  3  4  1  0
  4  5  2  0
  5  6  1  0
  6  7  2  0
  7  8  1  0
  8  9  1  0
  8 10  1  0
 10 11  1  0
 11 12  2  0
 11 13  1  0
 13 14  1  0
 14 15  1  0
 15 16  2  0
 15 17  1  0
 17 18  2  0
 18 19  1  0
 19 20  2  0
 20 21  1  0
 21 22  2  0
 22 23  1  0
 22 24  1  0
 24 25  2  0
 25 26  1  0
 26 27  2  0
  7  2  1  0
 27 17  1  0
 26 20  1  0
  1 28  1  0
  1 29  1  0
  1 30  1  0
  3 31  1  0
  4 32  1  0
  5 33  1  0
  6 34  1  0
  8 35  1  6
  9 36  1  0
  9 37  1  0
  9 38  1  0
 10 39  1  0
 13 40  1  0
 13 41  1  0
 14 42  1  0
 18 43  1  0
 19 44  1  0
 21 45  1  0
 24 46  1  0
 25 47  1  0
M  END
>  <smiles>  (34) 
Cc1ccccc1[C@H](C)NC(=O)CNC(=O)c1ccc2cc(Cl)ccc2n1

>  <score_type>  (34) 
oracle

>  <origin>  (34) 
autodockgpu

>  <m_score__min__energy>  (34) 
-8.6600000000000001

>  <m_primary>  (34) 
energy

>  <rmsd>  (34) 
10.019977843459692

>  <m_score__min__rmsd>  (34) 
10.019977843459692

>  <meeko>  (34) 
{"free_energy": -7.69, "intermolecular_energy": -9.18, "internal_energy": -1.85, "cluster_size": 12, "cluster_id": 1, "rank_in_cluster": 9}

>  <energy>  (34) 
-7.96

>  <cluster_rmsd>  (34) 
1.53

>  <cluster>  (34) 
3

$$$$

     RDKit          3D

 47 49  0  0  0  0  0  0  0  0999 V2000
  139.5640   67.4420  226.4190 C   0  0  0  0  0  0  0  0  0  0  0  0
  140.0390   68.8480  226.3950 C   0  0  0  0  0  0  0  0  0  0  0  0
  140.6520   69.4490  227.4910 C   0  0  0  0  0  0  0  0  0  0  0  0
  141.0930   70.7560  227.4660 C   0  0  0  0  0  0  0  0  0  0  0  0
  140.9230   71.5010  226.3170 C   0  0  0  0  0  0  0  0  0  0  0  0
  140.3140   70.9090  225.2230 C   0  0  0  0  0  0  0  0  0  0  0  0
  139.8670   69.6020  225.2300 C   0  0  0  0  0  0  0  0  0  0  0  0
  139.2200   68.9900  224.0550 C   0  0  2  0  0  0  0  0  0  0  0  0
  139.3740   69.7980  222.7910 C   0  0  0  0  0  0  0  0  0  0  0  0
  137.8020   68.8630  224.3280 N   0  0  0  0  0  0  0  0  0  0  0  0
  137.0060   70.0390  224.5560 C   0  0  0  0  0  0  0  0  0  0  0  0
  137.5390   71.1990  224.5210 O   0  0  0  0  0  0  0  0  0  0  0  0
  135.5500   69.8930  224.8360 C   0  0  0  0  0  0  0  0  0  0  0  0
  135.0300   71.1900  225.2000 N   0  0  0  0  0  0  0  0  0  0  0  0
  133.9250   71.2070  226.1080 C   0  0  0  0  0  0  0  0  0  0  0  0
  133.5230   70.0610  226.4940 O   0  0  0  0  0  0  0  0  0  0  0  0
  133.3060   72.4380  226.5570 C   0  0  0  0  0  0  0  0  0  0  0  0
  132.0820   72.3580  227.1670 C   0  0  0  0  0  0  0  0  0  0  0  0
  131.3940   73.4610  227.6360 C   0  0  0  0  0  0  0  0  0  0  0  0
  131.9840   74.6920  227.4740 C   0  0  0  0  0  0  0  0  0  0  0  0
  131.3300   75.7980  227.9270 C   0  0  0  0  0  0  0  0  0  0  0  0
  131.9440   77.0380  227.7530 C   0  0  0  0  0  0  0  0  0  0  0  0
  131.0870   78.4490  228.3420 Cl  0  0  0  0  0  0  0  0  0  0  0  0
  133.1720   77.1540  227.1450 C   0  0  0  0  0  0  0  0  0  0  0  0
  133.7840   75.9990  226.7080 C   0  0  0  0  0  0  0  0  0  0  0  0
  133.2340   74.7510  226.8480 C   0  0  0  0  0  0  0  0  0  0  0  0
  133.8570   73.6490  226.4110 N   0  0  0  0  0  0  0  0  0  0  0  0
  139.4520   67.1106  227.4619 H   0  0  0  0  0  0  0  0  0  0  0  0
  138.5931   67.3742  225.9065 H   0  0  0  0  0  0  0  0  0  0  0  0
  140.2949   66.7993  225.9065 H   0  0  0  0  0  0  0  0  0  0  0  0
  140.7897   68.8605  228.4101 H   0  0  0  0  0  0  0  0  0  0  0  0
  141.5740   71.1986  228.3507 H   0  0  0  0  0  0  0  0  0  0  0  0
  141.2648   72.5455  226.2708 H   0  0  0  0  0  0  0  0  0  0  0  0
  140.1804   71.5057  224.3086 H   0  0  0  0  0  0  0  0  0  0  0  0
  139.7114   68.0198  223.8897 H   0  0  0  0  0  0  0  0  0  0  0  0
  139.5742   70.8483  223.0493 H   0  0  0  0  0  0  0  0  0  0  0  0
  140.2123   69.3994  222.2008 H   0  0  0  0  0  0  0  0  0  0  0  0
  138.4478   69.7357  222.2008 H   0  0  0  0  0  0  0  0  0  0  0  0
  137.2990   67.9500  224.3720 H   0  0  0  0  0  0  0  0  0  0  0  0
  135.0332   69.5228  223.9383 H   0  0  0  0  0  0  0  0  0  0  0  0
  135.3897   69.1753  225.6541 H   0  0  0  0  0  0  0  0  0  0  0  0
  135.4080   72.0880  224.8460 H   0  0  0  0  0  0  0  0  0  0  0  0
  131.6236   71.3656  227.2897 H   0  0  0  0  0  0  0  0  0  0  0  0
  130.4118   73.3578  228.1204 H   0  0  0  0  0  0  0  0  0  0  0  0
  130.3477   75.7154  228.4151 H   0  0  0  0  0  0  0  0  0  0  0  0
  133.6499   78.1358  227.0119 H   0  0  0  0  0  0  0  0  0  0  0  0
  134.7666   76.0830  226.2207 H   0  0  0  0  0  0  0  0  0  0  0  0
  1  2  1  0
  2  3  2  0
  3  4  1  0
  4  5  2  0
  5  6  1  0
  6  7  2  0
  7  8  1  0
  8  9  1  0
  8 10  1  0
 10 11  1  0
 11 12  2  0
 11 13  1  0
 13 14  1  0
 14 15  1  0
 15 16  2  0
 15 17  1  0
 17 18  2  0
 18 19  1  0
 19 20  2  0
 20 21  1  0
 21 22  2  0
 22 23  1  0
 22 24  1  0
 24 25  2  0
 25 26  1  0
 26 27  2  0
  7  2  1  0
 27 17  1  0
 26 20  1  0
  1 28  1  0
  1 29  1  0
  1 30  1  0
  3 31  1  0
  4 32  1  0
  5 33  1  0
  6 34  1  0
  8 35  1  6
  9 36  1  0
  9 37  1  0
  9 38  1  0
 10 39  1  0
 13 40  1  0
 13 41  1  0
 14 42  1  0
 18 43  1  0
 19 44  1  0
 21 45  1  0
 24 46  1  0
 25 47  1  0
M  END
>  <smiles>  (35) 
Cc1ccccc1[C@H](C)NC(=O)CNC(=O)c1ccc2cc(Cl)ccc2n1

>  <score_type>  (35) 
oracle

>  <origin>  (35) 
autodockgpu

>  <m_score__min__energy>  (35) 
-8.6600000000000001

>  <m_primary>  (35) 
energy

>  <rmsd>  (35) 
10.756421426984353

>  <m_score__min__rmsd>  (35) 
10.756421426984353

>  <meeko>  (35) 
{"free_energy": -8.2, "intermolecular_energy": -9.69, "internal_energy": -1.59, "cluster_size": 12, "cluster_id": 1, "rank_in_cluster": 6}

>  <energy>  (35) 
-7.92

>  <cluster_rmsd>  (35) 
1.28

>  <cluster>  (35) 
3

$$$$

     RDKit          3D

 47 49  0  0  0  0  0  0  0  0999 V2000
  142.9150   79.6030  222.7970 C   0  0  0  0  0  0  0  0  0  0  0  0
  141.4320   79.6380  222.7790 C   0  0  0  0  0  0  0  0  0  0  0  0
  140.6890   80.3720  223.7000 C   0  0  0  0  0  0  0  0  0  0  0  0
  139.3110   80.4030  223.6810 C   0  0  0  0  0  0  0  0  0  0  0  0
  138.6360   79.6820  222.7170 C   0  0  0  0  0  0  0  0  0  0  0  0
  139.3680   78.9500  221.7970 C   0  0  0  0  0  0  0  0  0  0  0  0
  140.7480   78.9080  221.8010 C   0  0  0  0  0  0  0  0  0  0  0  0
  141.5090   78.1220  220.8130 C   0  0  2  0  0  0  0  0  0  0  0  0
  141.8060   78.8740  219.5410 C   0  0  0  0  0  0  0  0  0  0  0  0
  140.7300   76.9500  220.4630 N   0  0  0  0  0  0  0  0  0  0  0  0
  140.3240   76.0260  221.4870 C   0  0  0  0  0  0  0  0  0  0  0  0
  140.6440   76.2270  222.7060 O   0  0  0  0  0  0  0  0  0  0  0  0
  139.5230   74.8260  221.1120 C   0  0  0  0  0  0  0  0  0  0  0  0
  139.4240   73.9710  222.2720 N   0  0  0  0  0  0  0  0  0  0  0  0
  140.2810   72.8270  222.3020 C   0  0  0  0  0  0  0  0  0  0  0  0
  141.0420   72.6930  221.2890 O   0  0  0  0  0  0  0  0  0  0  0  0
  140.2850   71.8860  223.4050 C   0  0  0  0  0  0  0  0  0  0  0  0
  139.8420   70.6120  223.1650 C   0  0  0  0  0  0  0  0  0  0  0  0
  139.7990   69.6300  224.1350 C   0  0  0  0  0  0  0  0  0  0  0  0
  140.2260   69.9660  225.3980 C   0  0  0  0  0  0  0  0  0  0  0  0
  140.1950   69.0170  226.3760 C   0  0  0  0  0  0  0  0  0  0  0  0
  140.6320   69.3770  227.6500 C   0  0  0  0  0  0  0  0  0  0  0  0
  140.5840   68.1440  228.8950 Cl  0  0  0  0  0  0  0  0  0  0  0  0
  141.0820   70.6470  227.9250 C   0  0  0  0  0  0  0  0  0  0  0  0
  141.0900   71.5620  226.8950 C   0  0  0  0  0  0  0  0  0  0  0  0
  140.6740   71.2720  225.6200 C   0  0  0  0  0  0  0  0  0  0  0  0
  140.6950   72.1870  224.6430 N   0  0  0  0  0  0  0  0  0  0  0  0
  143.2690   79.5946  223.8385 H   0  0  0  0  0  0  0  0  0  0  0  0
  143.2666   78.6963  222.2829 H   0  0  0  0  0  0  0  0  0  0  0  0
  143.3090   80.4921  222.2829 H   0  0  0  0  0  0  0  0  0  0  0  0
  141.2213   80.9483  224.4711 H   0  0  0  0  0  0  0  0  0  0  0  0
  138.7567   80.9946  224.4244 H   0  0  0  0  0  0  0  0  0  0  0  0
  137.5366   79.6886  222.6801 H   0  0  0  0  0  0  0  0  0  0  0  0
  138.8264   78.3772  221.0298 H   0  0  0  0  0  0  0  0  0  0  0  0
  142.4725   77.8700  221.2800 H   0  0  0  0  0  0  0  0  0  0  0  0
  142.1998   79.8710  219.7879 H   0  0  0  0  0  0  0  0  0  0  0  0
  142.5529   78.3200  218.9534 H   0  0  0  0  0  0  0  0  0  0  0  0
  140.8821   78.9798  218.9534 H   0  0  0  0  0  0  0  0  0  0  0  0
  140.4320   76.7200  219.4890 H   0  0  0  0  0  0  0  0  0  0  0  0
  138.5176   75.1348  220.7898 H   0  0  0  0  0  0  0  0  0  0  0  0
  140.0074   74.2887  220.2833 H   0  0  0  0  0  0  0  0  0  0  0  0
  138.7790   74.1410  223.0650 H   0  0  0  0  0  0  0  0  0  0  0  0
  139.5038   70.3588  222.1494 H   0  0  0  0  0  0  0  0  0  0  0  0
  139.4367   68.6170  223.9058 H   0  0  0  0  0  0  0  0  0  0  0  0
  139.8362   67.9985  226.1665 H   0  0  0  0  0  0  0  0  0  0  0  0
  141.4240   70.9231  228.9334 H   0  0  0  0  0  0  0  0  0  0  0  0
  141.4493   72.5800  227.1062 H   0  0  0  0  0  0  0  0  0  0  0  0
  1  2  1  0
  2  3  2  0
  3  4  1  0
  4  5  2  0
  5  6  1  0
  6  7  2  0
  7  8  1  0
  8  9  1  0
  8 10  1  0
 10 11  1  0
 11 12  2  0
 11 13  1  0
 13 14  1  0
 14 15  1  0
 15 16  2  0
 15 17  1  0
 17 18  2  0
 18 19  1  0
 19 20  2  0
 20 21  1  0
 21 22  2  0
 22 23  1  0
 22 24  1  0
 24 25  2  0
 25 26  1  0
 26 27  2  0
  7  2  1  0
 27 17  1  0
 26 20  1  0
  1 28  1  0
  1 29  1  0
  1 30  1  0
  3 31  1  0
  4 32  1  0
  5 33  1  0
  6 34  1  0
  8 35  1  1
  9 36  1  0
  9 37  1  0
  9 38  1  0
 10 39  1  0
 13 40  1  0
 13 41  1  0
 14 42  1  0
 18 43  1  0
 19 44  1  0
 21 45  1  0
 24 46  1  0
 25 47  1  0
M  END
>  <smiles>  (36) 
Cc1ccccc1[C@H](C)NC(=O)CNC(=O)c1ccc2cc(Cl)ccc2n1

>  <score_type>  (36) 
oracle

>  <origin>  (36) 
autodockgpu

>  <m_score__min__energy>  (36) 
-8.6600000000000001

>  <m_primary>  (36) 
energy

>  <rmsd>  (36) 
3.902408742671521

>  <m_score__min__rmsd>  (36) 
3.902408742671521

>  <meeko>  (36) 
{"free_energy": -8.34, "intermolecular_energy": -9.83, "internal_energy": -1.11, "cluster_size": 15, "cluster_id": 2, "rank_in_cluster": 7}

>  <energy>  (36) 
-7.92

>  <cluster_rmsd>  (36) 
1.08

>  <cluster>  (36) 
3

$$$$

     RDKit          3D

 47 49  0  0  0  0  0  0  0  0999 V2000
  141.5860   79.8210  219.7420 C   0  0  0  0  0  0  0  0  0  0  0  0
  141.5130   79.7010  221.2190 C   0  0  0  0  0  0  0  0  0  0  0  0
  142.5710   80.0560  222.0510 C   0  0  0  0  0  0  0  0  0  0  0  0
  142.5010   79.9440  223.4240 C   0  0  0  0  0  0  0  0  0  0  0  0
  141.3430   79.4610  224.0000 C   0  0  0  0  0  0  0  0  0  0  0  0
  140.2870   79.1050  223.1780 C   0  0  0  0  0  0  0  0  0  0  0  0
  140.3400   79.2120  221.8020 C   0  0  0  0  0  0  0  0  0  0  0  0
  139.2050   78.8270  220.9440 C   0  0  2  0  0  0  0  0  0  0  0  0
  137.8650   78.9450  221.6250 C   0  0  0  0  0  0  0  0  0  0  0  0
  139.3790   77.4430  220.5480 N   0  0  0  0  0  0  0  0  0  0  0  0
  139.2730   76.3970  221.5300 C   0  0  0  0  0  0  0  0  0  0  0  0
  139.0270   76.6760  222.7510 O   0  0  0  0  0  0  0  0  0  0  0  0
  139.4550   74.9790  221.1090 C   0  0  0  0  0  0  0  0  0  0  0  0
  139.5350   74.1630  222.2980 N   0  0  0  0  0  0  0  0  0  0  0  0
  139.8010   72.7720  222.1060 C   0  0  0  0  0  0  0  0  0  0  0  0
  139.9360   72.4080  220.8920 O   0  0  0  0  0  0  0  0  0  0  0  0
  139.9080   71.8400  223.2110 C   0  0  0  0  0  0  0  0  0  0  0  0
  139.5090   70.5460  223.0030 C   0  0  0  0  0  0  0  0  0  0  0  0
  139.5630   69.5690  223.9790 C   0  0  0  0  0  0  0  0  0  0  0  0
  140.0440   69.9330  225.2140 C   0  0  0  0  0  0  0  0  0  0  0  0
  140.1100   68.9910  226.1960 C   0  0  0  0  0  0  0  0  0  0  0  0
  140.6020   69.3790  227.4420 C   0  0  0  0  0  0  0  0  0  0  0  0
  140.6790   68.1530  228.6930 Cl  0  0  0  0  0  0  0  0  0  0  0  0
  141.0110   70.6690  227.6850 C   0  0  0  0  0  0  0  0  0  0  0  0
  140.9210   71.5760  226.6520 C   0  0  0  0  0  0  0  0  0  0  0  0
  140.4470   71.2590  225.4040 C   0  0  0  0  0  0  0  0  0  0  0  0
  140.3720   72.1670  224.4220 N   0  0  0  0  0  0  0  0  0  0  0  0
  142.1406   80.7327  219.4752 H   0  0  0  0  0  0  0  0  0  0  0  0
  142.1031   78.9429  219.3279 H   0  0  0  0  0  0  0  0  0  0  0  0
  140.5684   79.8764  219.3279 H   0  0  0  0  0  0  0  0  0  0  0  0
  143.4965   80.4398  221.5970 H   0  0  0  0  0  0  0  0  0  0  0  0
  143.3562   80.2355  224.0514 H   0  0  0  0  0  0  0  0  0  0  0  0
  141.2607   79.3607  225.0923 H   0  0  0  0  0  0  0  0  0  0  0  0
  139.3662   78.7204  223.6409 H   0  0  0  0  0  0  0  0  0  0  0  0
  139.2036   79.5186  220.0886 H   0  0  0  0  0  0  0  0  0  0  0  0
  138.0058   78.9326  222.7159 H   0  0  0  0  0  0  0  0  0  0  0  0
  137.3846   79.8889  221.3280 H   0  0  0  0  0  0  0  0  0  0  0  0
  137.2270   78.0996  221.3280 H   0  0  0  0  0  0  0  0  0  0  0  0
  139.5820   77.1390  219.5710 H   0  0  0  0  0  0  0  0  0  0  0  0
  138.5999   74.6600  220.4950 H   0  0  0  0  0  0  0  0  0  0  0  0
  140.3736   74.8740  220.5131 H   0  0  0  0  0  0  0  0  0  0  0  0
  139.4140   74.5270  223.2610 H   0  0  0  0  0  0  0  0  0  0  0  0
  139.1264   70.2708  222.0091 H   0  0  0  0  0  0  0  0  0  0  0  0
  139.2336   68.5394  223.7752 H   0  0  0  0  0  0  0  0  0  0  0  0
  139.7853   67.9563  226.0118 H   0  0  0  0  0  0  0  0  0  0  0  0
  141.3971   70.9668  228.6710 H   0  0  0  0  0  0  0  0  0  0  0  0
  141.2467   72.6101  226.8377 H   0  0  0  0  0  0  0  0  0  0  0  0
  1  2  1  0
  2  3  2  0
  3  4  1  0
  4  5  2  0
  5  6  1  0
  6  7  2  0
  7  8  1  0
  8  9  1  0
  8 10  1  0
 10 11  1  0
 11 12  2  0
 11 13  1  0
 13 14  1  0
 14 15  1  0
 15 16  2  0
 15 17  1  0
 17 18  2  0
 18 19  1  0
 19 20  2  0
 20 21  1  0
 21 22  2  0
 22 23  1  0
 22 24  1  0
 24 25  2  0
 25 26  1  0
 26 27  2  0
  7  2  1  0
 27 17  1  0
 26 20  1  0
  1 28  1  0
  1 29  1  0
  1 30  1  0
  3 31  1  0
  4 32  1  0
  5 33  1  0
  6 34  1  0
  8 35  1  6
  9 36  1  0
  9 37  1  0
  9 38  1  0
 10 39  1  0
 13 40  1  0
 13 41  1  0
 14 42  1  0
 18 43  1  0
 19 44  1  0
 21 45  1  0
 24 46  1  0
 25 47  1  0
M  END
>  <smiles>  (37) 
Cc1ccccc1[C@H](C)NC(=O)CNC(=O)c1ccc2cc(Cl)ccc2n1

>  <score_type>  (37) 
oracle

>  <origin>  (37) 
autodockgpu

>  <m_score__min__energy>  (37) 
-8.6600000000000001

>  <m_primary>  (37) 
energy

>  <rmsd>  (37) 
4.1884579223296585

>  <m_score__min__rmsd>  (37) 
4.1884579223296585

>  <meeko>  (37) 
{"free_energy": -8.11, "intermolecular_energy": -9.6, "internal_energy": -1.54, "cluster_size": 15, "cluster_id": 2, "rank_in_cluster": 13}

>  <energy>  (37) 
-7.92

>  <cluster_rmsd>  (37) 
1.26

>  <cluster>  (37) 
3

$$$$

     RDKit          3D

 47 49  0  0  0  0  0  0  0  0999 V2000
  139.1700   69.6370  228.7120 C   0  0  0  0  0  0  0  0  0  0  0  0
  140.0670   70.5120  227.9180 C   0  0  0  0  0  0  0  0  0  0  0  0
  140.8680   71.4890  228.5020 C   0  0  0  0  0  0  0  0  0  0  0  0
  141.7010   72.3020  227.7630 C   0  0  0  0  0  0  0  0  0  0  0  0
  141.7460   72.1480  226.3920 C   0  0  0  0  0  0  0  0  0  0  0  0
  140.9520   71.1770  225.8040 C   0  0  0  0  0  0  0  0  0  0  0  0
  140.1130   70.3550  226.5290 C   0  0  0  0  0  0  0  0  0  0  0  0
  139.2750   69.3280  225.8840 C   0  0  2  0  0  0  0  0  0  0  0  0
  139.9630   67.9960  225.7280 C   0  0  0  0  0  0  0  0  0  0  0  0
  138.9150   69.7970  224.5600 N   0  0  0  0  0  0  0  0  0  0  0  0
  137.6010   69.5330  224.0370 C   0  0  0  0  0  0  0  0  0  0  0  0
  136.7460   68.8860  224.7300 O   0  0  0  0  0  0  0  0  0  0  0  0
  137.2450   70.0220  222.6750 C   0  0  0  0  0  0  0  0  0  0  0  0
  137.6940   71.3900  222.5570 N   0  0  0  0  0  0  0  0  0  0  0  0
  139.0240   71.5900  222.0710 C   0  0  0  0  0  0  0  0  0  0  0  0
  139.6670   70.5250  221.7970 O   0  0  0  0  0  0  0  0  0  0  0  0
  139.6000   72.9100  221.9040 C   0  0  0  0  0  0  0  0  0  0  0  0
  140.8260   73.0050  221.3010 C   0  0  0  0  0  0  0  0  0  0  0  0
  141.4750   74.2050  221.0860 C   0  0  0  0  0  0  0  0  0  0  0  0
  140.8430   75.3520  221.5060 C   0  0  0  0  0  0  0  0  0  0  0  0
  141.4590   76.5510  221.3070 C   0  0  0  0  0  0  0  0  0  0  0  0
  140.8010   77.7030  221.7390 C   0  0  0  0  0  0  0  0  0  0  0  0
  141.6090   79.2360  221.4750 Cl  0  0  0  0  0  0  0  0  0  0  0  0
  139.5690   77.6440  222.3480 C   0  0  0  0  0  0  0  0  0  0  0  0
  138.9970   76.4020  222.5200 C   0  0  0  0  0  0  0  0  0  0  0  0
  139.5910   75.2320  222.1180 C   0  0  0  0  0  0  0  0  0  0  0  0
  139.0060   74.0410  222.3020 N   0  0  0  0  0  0  0  0  0  0  0  0
  139.3456   69.8083  229.7843 H   0  0  0  0  0  0  0  0  0  0  0  0
  138.1225   69.8698  228.4702 H   0  0  0  0  0  0  0  0  0  0  0  0
  139.3768   68.5840  228.4702 H   0  0  0  0  0  0  0  0  0  0  0  0
  140.8352   71.6173  229.5940 H   0  0  0  0  0  0  0  0  0  0  0  0
  142.3213   73.0630  228.2592 H   0  0  0  0  0  0  0  0  0  0  0  0
  142.4001   72.7844  225.7779 H   0  0  0  0  0  0  0  0  0  0  0  0
  140.9919   71.0557  224.7114 H   0  0  0  0  0  0  0  0  0  0  0  0
  138.4017   69.1746  226.5351 H   0  0  0  0  0  0  0  0  0  0  0  0
  140.1796   67.5766  226.7216 H   0  0  0  0  0  0  0  0  0  0  0  0
  139.3078   67.3075  225.1743 H   0  0  0  0  0  0  0  0  0  0  0  0
  140.9037   68.1318  225.1743 H   0  0  0  0  0  0  0  0  0  0  0  0
  139.5600   70.3310  223.9370 H   0  0  0  0  0  0  0  0  0  0  0  0
  137.7401   69.4003  221.9145 H   0  0  0  0  0  0  0  0  0  0  0  0
  136.1573   69.9637  222.5217 H   0  0  0  0  0  0  0  0  0  0  0  0
  137.1140   72.2140  222.8000 H   0  0  0  0  0  0  0  0  0  0  0  0
  141.3188   72.0785  220.9712 H   0  0  0  0  0  0  0  0  0  0  0  0
  142.4599   74.2420  220.5975 H   0  0  0  0  0  0  0  0  0  0  0  0
  142.4441   76.6089  220.8210 H   0  0  0  0  0  0  0  0  0  0  0  0
  139.0576   78.5573  222.6863 H   0  0  0  0  0  0  0  0  0  0  0  0
  138.0116   76.3455  223.0055 H   0  0  0  0  0  0  0  0  0  0  0  0
  1  2  1  0
  2  3  2  0
  3  4  1  0
  4  5  2  0
  5  6  1  0
  6  7  2  0
  7  8  1  0
  8  9  1  0
  8 10  1  0
 10 11  1  0
 11 12  2  0
 11 13  1  0
 13 14  1  0
 14 15  1  0
 15 16  2  0
 15 17  1  0
 17 18  2  0
 18 19  1  0
 19 20  2  0
 20 21  1  0
 21 22  2  0
 22 23  1  0
 22 24  1  0
 24 25  2  0
 25 26  1  0
 26 27  2  0
  7  2  1  0
 27 17  1  0
 26 20  1  0
  1 28  1  0
  1 29  1  0
  1 30  1  0
  3 31  1  0
  4 32  1  0
  5 33  1  0
  6 34  1  0
  8 35  1  1
  9 36  1  0
  9 37  1  0
  9 38  1  0
 10 39  1  0
 13 40  1  0
 13 41  1  0
 14 42  1  0
 18 43  1  0
 19 44  1  0
 21 45  1  0
 24 46  1  0
 25 47  1  0
M  END
>  <smiles>  (38) 
Cc1ccccc1[C@H](C)NC(=O)CNC(=O)c1ccc2cc(Cl)ccc2n1

>  <score_type>  (38) 
oracle

>  <origin>  (38) 
autodockgpu

>  <m_score__min__energy>  (38) 
-8.6600000000000001

>  <m_primary>  (38) 
energy

>  <rmsd>  (38) 
9.673393464451445

>  <m_score__min__rmsd>  (38) 
9.673393464451445

>  <meeko>  (38) 
{"free_energy": -7.4, "intermolecular_energy": -8.89, "internal_energy": -2.17, "cluster_size": 20, "cluster_id": 3, "rank_in_cluster": 20}

>  <energy>  (38) 
-7.87

>  <cluster_rmsd>  (38) 
1.1

>  <cluster>  (38) 
3

$$$$

     RDKit          3D

 47 49  0  0  0  0  0  0  0  0999 V2000
  139.7220   68.1030  226.0440 C   0  0  0  0  0  0  0  0  0  0  0  0
  140.1830   69.4220  226.5420 C   0  0  0  0  0  0  0  0  0  0  0  0
  140.5150   69.6440  227.8750 C   0  0  0  0  0  0  0  0  0  0  0  0
  140.9440   70.8710  228.3370 C   0  0  0  0  0  0  0  0  0  0  0  0
  141.0480   71.9220  227.4490 C   0  0  0  0  0  0  0  0  0  0  0  0
  140.7200   71.7090  226.1200 C   0  0  0  0  0  0  0  0  0  0  0  0
  140.2900   70.4870  225.6420 C   0  0  0  0  0  0  0  0  0  0  0  0
  139.9440   70.2800  224.2240 C   0  0  2  0  0  0  0  0  0  0  0  0
  140.1790   71.4940  223.3610 C   0  0  0  0  0  0  0  0  0  0  0  0
  138.5350   69.9450  224.1410 N   0  0  0  0  0  0  0  0  0  0  0  0
  137.9460   69.6300  222.8670 C   0  0  0  0  0  0  0  0  0  0  0  0
  138.6540   69.6430  221.8040 O   0  0  0  0  0  0  0  0  0  0  0  0
  136.4980   69.2870  222.7970 C   0  0  0  0  0  0  0  0  0  0  0  0
  135.7470   70.3930  223.3470 N   0  0  0  0  0  0  0  0  0  0  0  0
  135.4310   70.3250  224.7400 C   0  0  0  0  0  0  0  0  0  0  0  0
  135.8530   69.2840  225.3420 O   0  0  0  0  0  0  0  0  0  0  0  0
  134.6840   71.3650  225.4190 C   0  0  0  0  0  0  0  0  0  0  0  0
  133.7950   70.9890  226.3910 C   0  0  0  0  0  0  0  0  0  0  0  0
  133.0270   71.8870  227.1060 C   0  0  0  0  0  0  0  0  0  0  0  0
  133.1760   73.2230  226.8140 C   0  0  0  0  0  0  0  0  0  0  0  0
  132.4330   74.1330  227.5030 C   0  0  0  0  0  0  0  0  0  0  0  0
  132.5990   75.4820  227.1920 C   0  0  0  0  0  0  0  0  0  0  0  0
  131.6330   76.6380  228.0890 Cl  0  0  0  0  0  0  0  0  0  0  0  0
  133.4820   75.8940  226.2220 C   0  0  0  0  0  0  0  0  0  0  0  0
  134.2060   74.9270  225.5600 C   0  0  0  0  0  0  0  0  0  0  0  0
  134.0900   73.5840  225.8180 C   0  0  0  0  0  0  0  0  0  0  0  0
  134.8100   72.6710  225.1540 N   0  0  0  0  0  0  0  0  0  0  0  0
  139.4932   67.4483  226.8978 H   0  0  0  0  0  0  0  0  0  0  0  0
  138.8176   68.2376  225.4325 H   0  0  0  0  0  0  0  0  0  0  0  0
  140.5133   67.6450  225.4325 H   0  0  0  0  0  0  0  0  0  0  0  0
  140.4323   68.8097  228.5871 H   0  0  0  0  0  0  0  0  0  0  0  0
  141.1995   71.0095  229.3979 H   0  0  0  0  0  0  0  0  0  0  0  0
  141.3855   72.9117  227.7904 H   0  0  0  0  0  0  0  0  0  0  0  0
  140.8058   72.5493  225.4154 H   0  0  0  0  0  0  0  0  0  0  0  0
  140.5966   69.4771  223.8506 H   0  0  0  0  0  0  0  0  0  0  0  0
  140.3489   72.3719  224.0016 H   0  0  0  0  0  0  0  0  0  0  0  0
  141.0615   71.3272  222.7259 H   0  0  0  0  0  0  0  0  0  0  0  0
  139.2980   71.6685  222.7259 H   0  0  0  0  0  0  0  0  0  0  0  0
  137.8960   69.9140  224.9650 H   0  0  0  0  0  0  0  0  0  0  0  0
  136.2044   69.1211  221.7500 H   0  0  0  0  0  0  0  0  0  0  0  0
  136.2961   68.3684  223.3674 H   0  0  0  0  0  0  0  0  0  0  0  0
  135.4350   71.2130  222.7960 H   0  0  0  0  0  0  0  0  0  0  0  0
  133.6873   69.9171  226.6134 H   0  0  0  0  0  0  0  0  0  0  0  0
  132.3229   71.5468  227.8796 H   0  0  0  0  0  0  0  0  0  0  0  0
  131.7238   73.8136  228.2809 H   0  0  0  0  0  0  0  0  0  0  0  0
  133.6062   76.9604  225.9825 H   0  0  0  0  0  0  0  0  0  0  0  0
  134.9151   75.2484  224.7829 H   0  0  0  0  0  0  0  0  0  0  0  0
  1  2  1  0
  2  3  2  0
  3  4  1  0
  4  5  2  0
  5  6  1  0
  6  7  2  0
  7  8  1  0
  8  9  1  0
  8 10  1  0
 10 11  1  0
 11 12  2  0
 11 13  1  0
 13 14  1  0
 14 15  1  0
 15 16  2  0
 15 17  1  0
 17 18  2  0
 18 19  1  0
 19 20  2  0
 20 21  1  0
 21 22  2  0
 22 23  1  0
 22 24  1  0
 24 25  2  0
 25 26  1  0
 26 27  2  0
  7  2  1  0
 27 17  1  0
 26 20  1  0
  1 28  1  0
  1 29  1  0
  1 30  1  0
  3 31  1  0
  4 32  1  0
  5 33  1  0
  6 34  1  0
  8 35  1  6
  9 36  1  0
  9 37  1  0
  9 38  1  0
 10 39  1  0
 13 40  1  0
 13 41  1  0
 14 42  1  0
 18 43  1  0
 19 44  1  0
 21 45  1  0
 24 46  1  0
 25 47  1  0
M  END
>  <smiles>  (39) 
Cc1ccccc1[C@H](C)NC(=O)CNC(=O)c1ccc2cc(Cl)ccc2n1

>  <score_type>  (39) 
oracle

>  <origin>  (39) 
autodockgpu

>  <m_score__min__energy>  (39) 
-8.6600000000000001

>  <m_primary>  (39) 
energy

>  <rmsd>  (39) 
9.703660578271144

>  <m_score__min__rmsd>  (39) 
9.703660578271144

>  <meeko>  (39) 
{"free_energy": -7.69, "intermolecular_energy": -9.18, "internal_energy": -1.9, "cluster_size": 12, "cluster_id": 1, "rank_in_cluster": 8}

>  <energy>  (39) 
-7.85

>  <cluster_rmsd>  (39) 
1.73

>  <cluster>  (39) 
3

$$$$

     RDKit          3D

 47 49  0  0  0  0  0  0  0  0999 V2000
  141.4370   79.4530  219.9910 C   0  0  0  0  0  0  0  0  0  0  0  0
  141.7110   79.5400  221.4460 C   0  0  0  0  0  0  0  0  0  0  0  0
  142.5670   80.4930  221.9910 C   0  0  0  0  0  0  0  0  0  0  0  0
  142.8200   80.5720  223.3450 C   0  0  0  0  0  0  0  0  0  0  0  0
  142.2080   79.6740  224.1960 C   0  0  0  0  0  0  0  0  0  0  0  0
  141.3550   78.7230  223.6600 C   0  0  0  0  0  0  0  0  0  0  0  0
  141.0900   78.6300  222.3090 C   0  0  0  0  0  0  0  0  0  0  0  0
  140.1790   77.6100  221.7580 C   0  0  2  0  0  0  0  0  0  0  0  0
  139.0770   77.2090  222.7050 C   0  0  0  0  0  0  0  0  0  0  0  0
  140.9540   76.4220  221.4550 N   0  0  0  0  0  0  0  0  0  0  0  0
  140.4720   75.4810  220.4800 C   0  0  0  0  0  0  0  0  0  0  0  0
  139.3640   75.6800  219.8780 O   0  0  0  0  0  0  0  0  0  0  0  0
  141.2790   74.2650  220.1780 C   0  0  0  0  0  0  0  0  0  0  0  0
  141.3660   73.4720  221.3830 N   0  0  0  0  0  0  0  0  0  0  0  0
  140.2130   72.7010  221.7290 C   0  0  0  0  0  0  0  0  0  0  0  0
  139.2300   72.8050  220.9250 O   0  0  0  0  0  0  0  0  0  0  0  0
  140.1640   71.8620  222.9100 C   0  0  0  0  0  0  0  0  0  0  0  0
  139.5730   70.6310  222.8000 C   0  0  0  0  0  0  0  0  0  0  0  0
  139.4660   69.7440  223.8550 C   0  0  0  0  0  0  0  0  0  0  0  0
  139.9850   70.1340  225.0660 C   0  0  0  0  0  0  0  0  0  0  0  0
  139.8950   69.2800  226.1240 C   0  0  0  0  0  0  0  0  0  0  0  0
  140.4280   69.6940  227.3450 C   0  0  0  0  0  0  0  0  0  0  0  0
  140.3030   68.5820  228.6950 Cl  0  0  0  0  0  0  0  0  0  0  0  0
  141.0280   70.9220  227.4900 C   0  0  0  0  0  0  0  0  0  0  0  0
  141.0890   71.7410  226.3830 C   0  0  0  0  0  0  0  0  0  0  0  0
  140.5850   71.3950  225.1550 C   0  0  0  0  0  0  0  0  0  0  0  0
  140.6610   72.2170  224.1010 N   0  0  0  0  0  0  0  0  0  0  0  0
  140.3995   79.1236  219.8323 H   0  0  0  0  0  0  0  0  0  0  0  0
  141.5823   80.4415  219.5308 H   0  0  0  0  0  0  0  0  0  0  0  0
  142.1259   78.7294  219.5308 H   0  0  0  0  0  0  0  0  0  0  0  0
  143.0598   81.2094  221.3173 H   0  0  0  0  0  0  0  0  0  0  0  0
  143.5003   81.3403  223.7410 H   0  0  0  0  0  0  0  0  0  0  0  0
  142.3940   79.7127  225.2795 H   0  0  0  0  0  0  0  0  0  0  0  0
  140.8674   78.0105  224.3416 H   0  0  0  0  0  0  0  0  0  0  0  0
  139.7065   78.0513  220.8681 H   0  0  0  0  0  0  0  0  0  0  0  0
  139.4212   77.3343  223.7422 H   0  0  0  0  0  0  0  0  0  0  0  0
  138.1957   77.8441  222.5319 H   0  0  0  0  0  0  0  0  0  0  0  0
  138.8099   76.1560  222.5319 H   0  0  0  0  0  0  0  0  0  0  0  0
  141.8670   76.1930  221.9060 H   0  0  0  0  0  0  0  0  0  0  0  0
  140.7914   73.6822  219.3827 H   0  0  0  0  0  0  0  0  0  0  0  0
  142.2850   74.5508  219.8369 H   0  0  0  0  0  0  0  0  0  0  0  0
  142.2020   73.4350  221.9940 H   0  0  0  0  0  0  0  0  0  0  0  0
  139.1631   70.3335  221.8235 H   0  0  0  0  0  0  0  0  0  0  0  0
  138.9837   68.7633  223.7297 H   0  0  0  0  0  0  0  0  0  0  0  0
  139.4170   68.2949  226.0186 H   0  0  0  0  0  0  0  0  0  0  0  0
  141.4454   71.2404  228.4567 H   0  0  0  0  0  0  0  0  0  0  0  0
  141.5678   72.7255  226.4901 H   0  0  0  0  0  0  0  0  0  0  0  0
  1  2  1  0
  2  3  2  0
  3  4  1  0
  4  5  2  0
  5  6  1  0
  6  7  2  0
  7  8  1  0
  8  9  1  0
  8 10  1  0
 10 11  1  0
 11 12  2  0
 11 13  1  0
 13 14  1  0
 14 15  1  0
 15 16  2  0
 15 17  1  0
 17 18  2  0
 18 19  1  0
 19 20  2  0
 20 21  1  0
 21 22  2  0
 22 23  1  0
 22 24  1  0
 24 25  2  0
 25 26  1  0
 26 27  2  0
  7  2  1  0
 27 17  1  0
 26 20  1  0
  1 28  1  0
  1 29  1  0
  1 30  1  0
  3 31  1  0
  4 32  1  0
  5 33  1  0
  6 34  1  0
  8 35  1  6
  9 36  1  0
  9 37  1  0
  9 38  1  0
 10 39  1  0
 13 40  1  0
 13 41  1  0
 14 42  1  0
 18 43  1  0
 19 44  1  0
 21 45  1  0
 24 46  1  0
 25 47  1  0
M  END
>  <smiles>  (40) 
Cc1ccccc1[C@H](C)NC(=O)CNC(=O)c1ccc2cc(Cl)ccc2n1

>  <score_type>  (40) 
oracle

>  <origin>  (40) 
autodockgpu

>  <m_score__min__energy>  (40) 
-8.6600000000000001

>  <m_primary>  (40) 
energy

>  <rmsd>  (40) 
4.088097901302885

>  <m_score__min__rmsd>  (40) 
4.088097901302885

>  <meeko>  (40) 
{"free_energy": -8.49, "intermolecular_energy": -9.98, "internal_energy": -1.2, "cluster_size": 15, "cluster_id": 2, "rank_in_cluster": 4}

>  <energy>  (40) 
-7.77

>  <cluster_rmsd>  (40) 
1.2

>  <cluster>  (40) 
3

$$$$

     RDKit          3D

 47 49  0  0  0  0  0  0  0  0999 V2000
  139.2200   69.3480  228.7260 C   0  0  0  0  0  0  0  0  0  0  0  0
  140.0490   70.2420  227.8790 C   0  0  0  0  0  0  0  0  0  0  0  0
  140.6540   71.3930  228.3740 C   0  0  0  0  0  0  0  0  0  0  0  0
  141.4240   72.2220  227.5840 C   0  0  0  0  0  0  0  0  0  0  0  0
  141.6040   71.9040  226.2530 C   0  0  0  0  0  0  0  0  0  0  0  0
  141.0050   70.7590  225.7540 C   0  0  0  0  0  0  0  0  0  0  0  0
  140.2320   69.9190  226.5300 C   0  0  0  0  0  0  0  0  0  0  0  0
  139.6020   68.7050  225.9790 C   0  0  2  0  0  0  0  0  0  0  0  0
  140.4380   67.4620  226.1450 C   0  0  0  0  0  0  0  0  0  0  0  0
  139.3850   68.9060  224.5590 N   0  0  0  0  0  0  0  0  0  0  0  0
  138.3350   69.7810  224.1100 C   0  0  0  0  0  0  0  0  0  0  0  0
  137.5890   70.3840  224.9520 O   0  0  0  0  0  0  0  0  0  0  0  0
  138.1250   69.9780  222.6490 C   0  0  0  0  0  0  0  0  0  0  0  0
  138.3920   71.3640  222.3390 N   0  0  0  0  0  0  0  0  0  0  0  0
  139.7670   71.7470  222.2440 C   0  0  0  0  0  0  0  0  0  0  0  0
  140.6060   70.8100  222.4480 O   0  0  0  0  0  0  0  0  0  0  0  0
  140.1770   73.1030  221.9390 C   0  0  0  0  0  0  0  0  0  0  0  0
  141.3130   73.2800  221.1940 C   0  0  0  0  0  0  0  0  0  0  0  0
  141.8030   74.5230  220.8410 C   0  0  0  0  0  0  0  0  0  0  0  0
  141.1010   75.6260  221.2670 C   0  0  0  0  0  0  0  0  0  0  0  0
  141.5600   76.8650  220.9330 C   0  0  0  0  0  0  0  0  0  0  0  0
  140.8340   77.9710  221.3740 C   0  0  0  0  0  0  0  0  0  0  0  0
  141.4400   79.5560  220.9360 Cl  0  0  0  0  0  0  0  0  0  0  0  0
  139.6900   77.8290  222.1230 C   0  0  0  0  0  0  0  0  0  0  0  0
  139.2760   76.5500  222.4280 C   0  0  0  0  0  0  0  0  0  0  0  0
  139.9440   75.4220  222.0260 C   0  0  0  0  0  0  0  0  0  0  0  0
  139.5130   74.1930  222.3410 N   0  0  0  0  0  0  0  0  0  0  0  0
  139.4176   69.5611  229.7869 H   0  0  0  0  0  0  0  0  0  0  0  0
  138.1555   69.5209  228.5093 H   0  0  0  0  0  0  0  0  0  0  0  0
  139.4727   68.2996  228.5093 H   0  0  0  0  0  0  0  0  0  0  0  0
  140.5134   71.6516  229.4339 H   0  0  0  0  0  0  0  0  0  0  0  0
  141.8881   73.1241  228.0093 H   0  0  0  0  0  0  0  0  0  0  0  0
  142.2119   72.5480  225.6005 H   0  0  0  0  0  0  0  0  0  0  0  0
  141.1518   70.5082  224.6931 H   0  0  0  0  0  0  0  0  0  0  0  0
  138.6660   68.5508  226.5359 H   0  0  0  0  0  0  0  0  0  0  0  0
  140.5776   67.2544  227.2162 H   0  0  0  0  0  0  0  0  0  0  0  0
  139.9280   66.6110  225.6700 H   0  0  0  0  0  0  0  0  0  0  0  0
  141.4185   67.6134  225.6700 H   0  0  0  0  0  0  0  0  0  0  0  0
  139.9540   68.4480  223.8140 H   0  0  0  0  0  0  0  0  0  0  0  0
  138.8112   69.3307  222.0832 H   0  0  0  0  0  0  0  0  0  0  0  0
  137.0918   69.7187  222.3745 H   0  0  0  0  0  0  0  0  0  0  0  0
  137.6560   72.0770  222.1840 H   0  0  0  0  0  0  0  0  0  0  0  0
  141.8628   72.3877  220.8600 H   0  0  0  0  0  0  0  0  0  0  0  0
  142.7198   74.6262  220.2420 H   0  0  0  0  0  0  0  0  0  0  0  0
  142.4745   76.9888  220.3343 H   0  0  0  0  0  0  0  0  0  0  0  0
  139.1238   78.7069  222.4675 H   0  0  0  0  0  0  0  0  0  0  0  0
  138.3608   76.4278  223.0258 H   0  0  0  0  0  0  0  0  0  0  0  0
  1  2  1  0
  2  3  2  0
  3  4  1  0
  4  5  2  0
  5  6  1  0
  6  7  2  0
  7  8  1  0
  8  9  1  0
  8 10  1  0
 10 11  1  0
 11 12  2  0
 11 13  1  0
 13 14  1  0
 14 15  1  0
 15 16  2  0
 15 17  1  0
 17 18  2  0
 18 19  1  0
 19 20  2  0
 20 21  1  0
 21 22  2  0
 22 23  1  0
 22 24  1  0
 24 25  2  0
 25 26  1  0
 26 27  2  0
  7  2  1  0
 27 17  1  0
 26 20  1  0
  1 28  1  0
  1 29  1  0
  1 30  1  0
  3 31  1  0
  4 32  1  0
  5 33  1  0
  6 34  1  0
  8 35  1  1
  9 36  1  0
  9 37  1  0
  9 38  1  0
 10 39  1  0
 13 40  1  0
 13 41  1  0
 14 42  1  0
 18 43  1  0
 19 44  1  0
 21 45  1  0
 24 46  1  0
 25 47  1  0
M  END
>  <smiles>  (41) 
Cc1ccccc1[C@H](C)NC(=O)CNC(=O)c1ccc2cc(Cl)ccc2n1

>  <score_type>  (41) 
oracle

>  <origin>  (41) 
autodockgpu

>  <m_score__min__energy>  (41) 
-8.6600000000000001

>  <m_primary>  (41) 
energy

>  <rmsd>  (41) 
9.909729822182227

>  <m_score__min__rmsd>  (41) 
9.909729822182227

>  <meeko>  (41) 
{"free_energy": -8.13, "intermolecular_energy": -9.63, "internal_energy": -1.71, "cluster_size": 20, "cluster_id": 3, "rank_in_cluster": 3}

>  <energy>  (41) 
-7.71

>  <cluster_rmsd>  (41) 
1.42

>  <cluster>  (41) 
3

$$$$

     RDKit          3D

 47 49  0  0  0  0  0  0  0  0999 V2000
  139.7560   68.0930  226.0230 C   0  0  0  0  0  0  0  0  0  0  0  0
  140.2090   69.4120  226.5300 C   0  0  0  0  0  0  0  0  0  0  0  0
  140.5480   69.6250  227.8630 C   0  0  0  0  0  0  0  0  0  0  0  0
  140.9690   70.8520  228.3320 C   0  0  0  0  0  0  0  0  0  0  0  0
  141.0580   71.9120  227.4530 C   0  0  0  0  0  0  0  0  0  0  0  0
  140.7230   71.7070  226.1250 C   0  0  0  0  0  0  0  0  0  0  0  0
  140.3010   70.4860  225.6390 C   0  0  0  0  0  0  0  0  0  0  0  0
  139.9470   70.2880  224.2210 C   0  0  2  0  0  0  0  0  0  0  0  0
  140.1770   71.5080  223.3650 C   0  0  0  0  0  0  0  0  0  0  0  0
  138.5390   69.9530  224.1430 N   0  0  0  0  0  0  0  0  0  0  0  0
  137.9410   69.6550  222.8700 C   0  0  0  0  0  0  0  0  0  0  0  0
  138.6400   69.6850  221.8020 O   0  0  0  0  0  0  0  0  0  0  0  0
  136.4930   69.3120  222.8050 C   0  0  0  0  0  0  0  0  0  0  0  0
  135.7420   70.4240  223.3420 N   0  0  0  0  0  0  0  0  0  0  0  0
  135.4290   70.3740  224.7370 C   0  0  0  0  0  0  0  0  0  0  0  0
  135.8530   69.3410  225.3510 O   0  0  0  0  0  0  0  0  0  0  0  0
  134.6830   71.4220  225.4040 C   0  0  0  0  0  0  0  0  0  0  0  0
  133.7760   71.0560  226.3630 C   0  0  0  0  0  0  0  0  0  0  0  0
  133.0070   71.9630  227.0660 C   0  0  0  0  0  0  0  0  0  0  0  0
  133.1750   73.2960  226.7750 C   0  0  0  0  0  0  0  0  0  0  0  0
  132.4300   74.2150  227.4530 C   0  0  0  0  0  0  0  0  0  0  0  0
  132.6150   75.5620  227.1440 C   0  0  0  0  0  0  0  0  0  0  0  0
  131.6490   76.7290  228.0260 Cl  0  0  0  0  0  0  0  0  0  0  0  0
  133.5180   75.9640  226.1880 C   0  0  0  0  0  0  0  0  0  0  0  0
  134.2420   74.9890  225.5370 C   0  0  0  0  0  0  0  0  0  0  0  0
  134.1070   73.6480  225.7930 C   0  0  0  0  0  0  0  0  0  0  0  0
  134.8270   72.7260  225.1410 N   0  0  0  0  0  0  0  0  0  0  0  0
  139.5290   67.4320  226.8724 H   0  0  0  0  0  0  0  0  0  0  0  0
  138.8522   68.2264  225.4104 H   0  0  0  0  0  0  0  0  0  0  0  0
  140.5511   67.6429  225.4104 H   0  0  0  0  0  0  0  0  0  0  0  0
  140.4776   68.7839  228.5685 H   0  0  0  0  0  0  0  0  0  0  0  0
  141.2302   70.9837  229.3924 H   0  0  0  0  0  0  0  0  0  0  0  0
  141.3890   72.9017  227.8008 H   0  0  0  0  0  0  0  0  0  0  0  0
  140.7964   72.5541  225.4271 H   0  0  0  0  0  0  0  0  0  0  0  0
  140.5977   69.4876  223.8389 H   0  0  0  0  0  0  0  0  0  0  0  0
  140.3420   72.3831  224.0107 H   0  0  0  0  0  0  0  0  0  0  0  0
  141.0610   71.3490  222.7300 H   0  0  0  0  0  0  0  0  0  0  0  0
  139.2958   71.6818  222.7300 H   0  0  0  0  0  0  0  0  0  0  0  0
  137.9050   69.9090  224.9720 H   0  0  0  0  0  0  0  0  0  0  0  0
  136.1989   69.1337  221.7601 H   0  0  0  0  0  0  0  0  0  0  0  0
  136.2915   68.4005  223.3868 H   0  0  0  0  0  0  0  0  0  0  0  0
  135.4280   71.2370  222.7820 H   0  0  0  0  0  0  0  0  0  0  0  0
  133.6538   69.9855  226.5846 H   0  0  0  0  0  0  0  0  0  0  0  0
  132.2878   71.6313  227.8294 H   0  0  0  0  0  0  0  0  0  0  0  0
  131.7056   73.9034  228.2199 H   0  0  0  0  0  0  0  0  0  0  0  0
  133.6578   77.0290  225.9508 H   0  0  0  0  0  0  0  0  0  0  0  0
  134.9668   75.3026  224.7713 H   0  0  0  0  0  0  0  0  0  0  0  0
  1  2  1  0
  2  3  2  0
  3  4  1  0
  4  5  2  0
  5  6  1  0
  6  7  2  0
  7  8  1  0
  8  9  1  0
  8 10  1  0
 10 11  1  0
 11 12  2  0
 11 13  1  0
 13 14  1  0
 14 15  1  0
 15 16  2  0
 15 17  1  0
 17 18  2  0
 18 19  1  0
 19 20  2  0
 20 21  1  0
 21 22  2  0
 22 23  1  0
 22 24  1  0
 24 25  2  0
 25 26  1  0
 26 27  2  0
  7  2  1  0
 27 17  1  0
 26 20  1  0
  1 28  1  0
  1 29  1  0
  1 30  1  0
  3 31  1  0
  4 32  1  0
  5 33  1  0
  6 34  1  0
  8 35  1  6
  9 36  1  0
  9 37  1  0
  9 38  1  0
 10 39  1  0
 13 40  1  0
 13 41  1  0
 14 42  1  0
 18 43  1  0
 19 44  1  0
 21 45  1  0
 24 46  1  0
 25 47  1  0
M  END
>  <smiles>  (42) 
Cc1ccccc1[C@H](C)NC(=O)CNC(=O)c1ccc2cc(Cl)ccc2n1

>  <score_type>  (42) 
oracle

>  <origin>  (42) 
autodockgpu

>  <m_score__min__energy>  (42) 
-8.6600000000000001

>  <m_primary>  (42) 
energy

>  <rmsd>  (42) 
9.705528830252646

>  <m_score__min__rmsd>  (42) 
9.705528830252646

>  <meeko>  (42) 
{"free_energy": -7.69, "intermolecular_energy": -9.18, "internal_energy": -1.9, "cluster_size": 12, "cluster_id": 1, "rank_in_cluster": 10}

>  <energy>  (42) 
-7.67

>  <cluster_rmsd>  (42) 
1.64

>  <cluster>  (42) 
3

$$$$

     RDKit          3D

 47 49  0  0  0  0  0  0  0  0999 V2000
  139.5890   68.9900  228.7090 C   0  0  0  0  0  0  0  0  0  0  0  0
  140.2070   70.0120  227.8280 C   0  0  0  0  0  0  0  0  0  0  0  0
  140.8500   71.1400  228.3290 C   0  0  0  0  0  0  0  0  0  0  0  0
  141.4240   72.0890  227.5090 C   0  0  0  0  0  0  0  0  0  0  0  0
  141.3630   71.9190  226.1410 C   0  0  0  0  0  0  0  0  0  0  0  0
  140.7260   70.7980  225.6360 C   0  0  0  0  0  0  0  0  0  0  0  0
  140.1460   69.8390  226.4420 C   0  0  0  0  0  0  0  0  0  0  0  0
  139.4710   68.6520  225.8840 C   0  0  2  0  0  0  0  0  0  0  0  0
  140.3410   67.4210  225.8550 C   0  0  0  0  0  0  0  0  0  0  0  0
  139.0780   68.9480  224.5200 N   0  0  0  0  0  0  0  0  0  0  0  0
  137.7960   69.5460  224.2570 C   0  0  0  0  0  0  0  0  0  0  0  0
  136.9980   69.8180  225.2150 O   0  0  0  0  0  0  0  0  0  0  0  0
  137.4060   69.8440  222.8500 C   0  0  0  0  0  0  0  0  0  0  0  0
  137.8240   71.1930  222.5440 N   0  0  0  0  0  0  0  0  0  0  0  0
  139.2090   71.3830  222.2430 C   0  0  0  0  0  0  0  0  0  0  0  0
  139.9220   70.3280  222.2810 O   0  0  0  0  0  0  0  0  0  0  0  0
  139.7630   72.6830  221.9180 C   0  0  0  0  0  0  0  0  0  0  0  0
  140.9330   72.7240  221.2050 C   0  0  0  0  0  0  0  0  0  0  0  0
  141.5560   73.9010  220.8380 C   0  0  0  0  0  0  0  0  0  0  0  0
  140.9570   75.0800  221.2140 C   0  0  0  0  0  0  0  0  0  0  0  0
  141.5480   76.2570  220.8650 C   0  0  0  0  0  0  0  0  0  0  0  0
  140.9260   77.4420  221.2560 C   0  0  0  0  0  0  0  0  0  0  0  0
  141.7020   78.9460  220.7980 Cl  0  0  0  0  0  0  0  0  0  0  0  0
  139.7520   77.4370  221.9720 C   0  0  0  0  0  0  0  0  0  0  0  0
  139.2020   76.2150  222.2940 C   0  0  0  0  0  0  0  0  0  0  0  0
  139.7630   75.0140  221.9410 C   0  0  0  0  0  0  0  0  0  0  0  0
  139.2020   73.8450  222.2720 N   0  0  0  0  0  0  0  0  0  0  0  0
  139.7549   69.2643  229.7613 H   0  0  0  0  0  0  0  0  0  0  0  0
  138.5085   68.9388  228.5094 H   0  0  0  0  0  0  0  0  0  0  0  0
  140.0456   68.0094  228.5094 H   0  0  0  0  0  0  0  0  0  0  0  0
  140.9024   71.2799  229.4188 H   0  0  0  0  0  0  0  0  0  0  0  0
  141.9235   72.9693  227.9397 H   0  0  0  0  0  0  0  0  0  0  0  0
  141.8122   72.6605  225.4640 H   0  0  0  0  0  0  0  0  0  0  0  0
  140.6801   70.6659  224.5449 H   0  0  0  0  0  0  0  0  0  0  0  0
  138.6130   68.4359  226.5375 H   0  0  0  0  0  0  0  0  0  0  0  0
  140.5641   67.1053  226.8848 H   0  0  0  0  0  0  0  0  0  0  0  0
  139.8134   66.6114  225.3295 H   0  0  0  0  0  0  0  0  0  0  0  0
  141.2803   67.6481  225.3295 H   0  0  0  0  0  0  0  0  0  0  0  0
  139.6760   68.7540  223.6880 H   0  0  0  0  0  0  0  0  0  0  0  0
  137.9009   69.1367  222.1682 H   0  0  0  0  0  0  0  0  0  0  0  0
  136.3173   69.7455  222.7275 H   0  0  0  0  0  0  0  0  0  0  0  0
  137.1860   72.0100  222.5310 H   0  0  0  0  0  0  0  0  0  0  0  0
  141.3990   71.7722  220.9104 H   0  0  0  0  0  0  0  0  0  0  0  0
  142.4959   73.8952  220.2665 H   0  0  0  0  0  0  0  0  0  0  0  0
  142.4871   76.2719  220.2923 H   0  0  0  0  0  0  0  0  0  0  0  0
  139.2682   78.3765  222.2774 H   0  0  0  0  0  0  0  0  0  0  0  0
  138.2620   76.2020  222.8652 H   0  0  0  0  0  0  0  0  0  0  0  0
  1  2  1  0
  2  3  2  0
  3  4  1  0
  4  5  2  0
  5  6  1  0
  6  7  2  0
  7  8  1  0
  8  9  1  0
  8 10  1  0
 10 11  1  0
 11 12  2  0
 11 13  1  0
 13 14  1  0
 14 15  1  0
 15 16  2  0
 15 17  1  0
 17 18  2  0
 18 19  1  0
 19 20  2  0
 20 21  1  0
 21 22  2  0
 22 23  1  0
 22 24  1  0
 24 25  2  0
 25 26  1  0
 26 27  2  0
  7  2  1  0
 27 17  1  0
 26 20  1  0
  1 28  1  0
  1 29  1  0
  1 30  1  0
  3 31  1  0
  4 32  1  0
  5 33  1  0
  6 34  1  0
  8 35  1  1
  9 36  1  0
  9 37  1  0
  9 38  1  0
 10 39  1  0
 13 40  1  0
 13 41  1  0
 14 42  1  0
 18 43  1  0
 19 44  1  0
 21 45  1  0
 24 46  1  0
 25 47  1  0
M  END
>  <smiles>  (43) 
Cc1ccccc1[C@H](C)NC(=O)CNC(=O)c1ccc2cc(Cl)ccc2n1

>  <score_type>  (43) 
oracle

>  <origin>  (43) 
autodockgpu

>  <m_score__min__energy>  (43) 
-8.6600000000000001

>  <m_primary>  (43) 
energy

>  <rmsd>  (43) 
9.90983875786764

>  <m_score__min__rmsd>  (43) 
9.90983875786764

>  <meeko>  (43) 
{"free_energy": -7.77, "intermolecular_energy": -9.26, "internal_energy": -2.28, "cluster_size": 20, "cluster_id": 3, "rank_in_cluster": 13}

>  <energy>  (43) 
-7.58

>  <cluster_rmsd>  (43) 
1.56

>  <cluster>  (43) 
3

$$$$

     RDKit          3D

 47 49  0  0  0  0  0  0  0  0999 V2000
  139.6520   69.0340  228.6800 C   0  0  0  0  0  0  0  0  0  0  0  0
  140.2480   70.1030  227.8400 C   0  0  0  0  0  0  0  0  0  0  0  0
  140.8980   71.2070  228.3840 C   0  0  0  0  0  0  0  0  0  0  0  0
  141.4520   72.1990  227.6020 C   0  0  0  0  0  0  0  0  0  0  0  0
  141.3610   72.0990  226.2280 C   0  0  0  0  0  0  0  0  0  0  0  0
  140.7150   71.0020  225.6800 C   0  0  0  0  0  0  0  0  0  0  0  0
  140.1570   70.0010  226.4480 C   0  0  0  0  0  0  0  0  0  0  0  0
  139.4730   68.8420  225.8460 C   0  0  2  0  0  0  0  0  0  0  0  0
  140.2890   67.5750  225.8780 C   0  0  0  0  0  0  0  0  0  0  0  0
  139.1900   69.1490  224.4570 N   0  0  0  0  0  0  0  0  0  0  0  0
  137.9120   69.6980  224.0900 C   0  0  0  0  0  0  0  0  0  0  0  0
  137.0210   69.9170  224.9780 O   0  0  0  0  0  0  0  0  0  0  0  0
  137.6350   70.0090  222.6590 C   0  0  0  0  0  0  0  0  0  0  0  0
  137.9860   71.3910  222.4240 N   0  0  0  0  0  0  0  0  0  0  0  0
  139.3740   71.6790  222.2410 C   0  0  0  0  0  0  0  0  0  0  0  0
  140.1510   70.6710  222.3100 O   0  0  0  0  0  0  0  0  0  0  0  0
  139.8640   73.0210  221.9970 C   0  0  0  0  0  0  0  0  0  0  0  0
  141.0740   73.1600  221.3680 C   0  0  0  0  0  0  0  0  0  0  0  0
  141.6440   74.3850  221.0820 C   0  0  0  0  0  0  0  0  0  0  0  0
  140.9470   75.5110  221.4530 C   0  0  0  0  0  0  0  0  0  0  0  0
  141.4840   76.7340  221.1830 C   0  0  0  0  0  0  0  0  0  0  0  0
  140.7620   77.8630  221.5670 C   0  0  0  0  0  0  0  0  0  0  0  0
  141.4690   79.4280  221.2110 Cl  0  0  0  0  0  0  0  0  0  0  0  0
  139.5450   77.7600  222.1990 C   0  0  0  0  0  0  0  0  0  0  0  0
  139.0550   76.4960  222.4440 C   0  0  0  0  0  0  0  0  0  0  0  0
  139.7140   75.3460  222.0930 C   0  0  0  0  0  0  0  0  0  0  0  0
  139.2070   74.1330  222.3480 N   0  0  0  0  0  0  0  0  0  0  0  0
  139.7906   69.2825  229.7426 H   0  0  0  0  0  0  0  0  0  0  0  0
  138.5774   68.9510  228.4599 H   0  0  0  0  0  0  0  0  0  0  0  0
  140.1463   68.0763  228.4599 H   0  0  0  0  0  0  0  0  0  0  0  0
  140.9726   71.2915  229.4782 H   0  0  0  0  0  0  0  0  0  0  0  0
  141.9591   73.0576  228.0665 H   0  0  0  0  0  0  0  0  0  0  0  0
  141.7933   72.8757  225.5801 H   0  0  0  0  0  0  0  0  0  0  0  0
  140.6441   70.9262  224.5849 H   0  0  0  0  0  0  0  0  0  0  0  0
  138.5634   68.6654  226.4389 H   0  0  0  0  0  0  0  0  0  0  0  0
  140.4756   67.2853  226.9227 H   0  0  0  0  0  0  0  0  0  0  0  0
  139.7384   66.7712  225.3674 H   0  0  0  0  0  0  0  0  0  0  0  0
  141.2486   67.7438  225.3674 H   0  0  0  0  0  0  0  0  0  0  0  0
  139.8670   68.9970  223.6780 H   0  0  0  0  0  0  0  0  0  0  0  0
  138.2386   69.3557  222.0118 H   0  0  0  0  0  0  0  0  0  0  0  0
  136.5719   69.8418  222.4315 H   0  0  0  0  0  0  0  0  0  0  0  0
  137.2980   72.1650  222.3800 H   0  0  0  0  0  0  0  0  0  0  0  0
  141.6185   72.2498  221.0763 H   0  0  0  0  0  0  0  0  0  0  0  0
  142.6184   74.4573  220.5767 H   0  0  0  0  0  0  0  0  0  0  0  0
  142.4567   76.8274  220.6779 H   0  0  0  0  0  0  0  0  0  0  0  0
  138.9820   78.6563  222.4987 H   0  0  0  0  0  0  0  0  0  0  0  0
  138.0819   76.4043  222.9488 H   0  0  0  0  0  0  0  0  0  0  0  0
  1  2  1  0
  2  3  2  0
  3  4  1  0
  4  5  2  0
  5  6  1  0
  6  7  2  0
  7  8  1  0
  8  9  1  0
  8 10  1  0
 10 11  1  0
 11 12  2  0
 11 13  1  0
 13 14  1  0
 14 15  1  0
 15 16  2  0
 15 17  1  0
 17 18  2  0
 18 19  1  0
 19 20  2  0
 20 21  1  0
 21 22  2  0
 22 23  1  0
 22 24  1  0
 24 25  2  0
 25 26  1  0
 26 27  2  0
  7  2  1  0
 27 17  1  0
 26 20  1  0
  1 28  1  0
  1 29  1  0
  1 30  1  0
  3 31  1  0
  4 32  1  0
  5 33  1  0
  6 34  1  0
  8 35  1  1
  9 36  1  0
  9 37  1  0
  9 38  1  0
 10 39  1  0
 13 40  1  0
 13 41  1  0
 14 42  1  0
 18 43  1  0
 19 44  1  0
 21 45  1  0
 24 46  1  0
 25 47  1  0
M  END
>  <smiles>  (44) 
Cc1ccccc1[C@H](C)NC(=O)CNC(=O)c1ccc2cc(Cl)ccc2n1

>  <score_type>  (44) 
oracle

>  <origin>  (44) 
autodockgpu

>  <m_score__min__energy>  (44) 
-8.6600000000000001

>  <m_primary>  (44) 
energy

>  <rmsd>  (44) 
9.831715877866115

>  <m_score__min__rmsd>  (44) 
9.831715877866115

>  <meeko>  (44) 
{"free_energy": -7.92, "intermolecular_energy": -9.41, "internal_energy": -2.23, "cluster_size": 20, "cluster_id": 3, "rank_in_cluster": 9}

>  <energy>  (44) 
-7.56

>  <cluster_rmsd>  (44) 
1.5

>  <cluster>  (44) 
3

$$$$

     RDKit          3D

 47 49  0  0  0  0  0  0  0  0999 V2000
  138.7760   68.6860  225.0110 C   0  0  0  0  0  0  0  0  0  0  0  0
  139.5710   69.8010  225.5820 C   0  0  0  0  0  0  0  0  0  0  0  0
  139.9510   69.8400  226.9200 C   0  0  0  0  0  0  0  0  0  0  0  0
  140.6900   70.8780  227.4490 C   0  0  0  0  0  0  0  0  0  0  0  0
  141.0700   71.9190  226.6260 C   0  0  0  0  0  0  0  0  0  0  0  0
  140.6950   71.8860  225.2930 C   0  0  0  0  0  0  0  0  0  0  0  0
  139.9560   70.8560  224.7480 C   0  0  0  0  0  0  0  0  0  0  0  0
  139.5670   70.8400  223.3260 C   0  0  2  0  0  0  0  0  0  0  0  0
  140.6850   71.2190  222.3890 C   0  0  0  0  0  0  0  0  0  0  0  0
  138.4900   71.7920  223.1360 N   0  0  0  0  0  0  0  0  0  0  0  0
  137.1230   71.3480  223.1790 C   0  0  0  0  0  0  0  0  0  0  0  0
  136.8470   70.1180  223.3820 O   0  0  0  0  0  0  0  0  0  0  0  0
  136.0270   72.3370  222.9830 C   0  0  0  0  0  0  0  0  0  0  0  0
  136.5500   73.6520  223.2740 N   0  0  0  0  0  0  0  0  0  0  0  0
  137.3420   74.2680  222.2540 C   0  0  0  0  0  0  0  0  0  0  0  0
  137.4950   73.5770  221.1950 O   0  0  0  0  0  0  0  0  0  0  0  0
  137.9280   75.5840  222.4140 C   0  0  0  0  0  0  0  0  0  0  0  0
  137.0820   76.6570  222.5250 C   0  0  0  0  0  0  0  0  0  0  0  0
  137.5210   77.9570  222.6800 C   0  0  0  0  0  0  0  0  0  0  0  0
  138.8790   78.1660  222.7230 C   0  0  0  0  0  0  0  0  0  0  0  0
  139.3430   79.4390  222.8760 C   0  0  0  0  0  0  0  0  0  0  0  0
  140.7230   79.6300  222.9180 C   0  0  0  0  0  0  0  0  0  0  0  0
  141.3010   81.2740  223.1150 Cl  0  0  0  0  0  0  0  0  0  0  0  0
  141.6010   78.5770  222.8100 C   0  0  0  0  0  0  0  0  0  0  0  0
  141.0710   77.3140  222.6580 C   0  0  0  0  0  0  0  0  0  0  0  0
  139.7250   77.0580  222.6090 C   0  0  0  0  0  0  0  0  0  0  0  0
  139.2450   75.8160  222.4590 N   0  0  0  0  0  0  0  0  0  0  0  0
  138.3478   68.0855  225.8271 H   0  0  0  0  0  0  0  0  0  0  0  0
  137.9641   69.0943  224.3913 H   0  0  0  0  0  0  0  0  0  0  0  0
  139.4267   68.0515  224.3913 H   0  0  0  0  0  0  0  0  0  0  0  0
  139.6512   69.0128  227.5802 H   0  0  0  0  0  0  0  0  0  0  0  0
  140.9725   70.8761  228.5121 H   0  0  0  0  0  0  0  0  0  0  0  0
  141.6597   72.7592  227.0214 H   0  0  0  0  0  0  0  0  0  0  0  0
  140.9997   72.7173  224.6402 H   0  0  0  0  0  0  0  0  0  0  0  0
  139.2716   69.8075  223.0881 H   0  0  0  0  0  0  0  0  0  0  0  0
  141.5676   71.5182  222.9734 H   0  0  0  0  0  0  0  0  0  0  0  0
  140.9400   70.3571  221.7549 H   0  0  0  0  0  0  0  0  0  0  0  0
  140.3633   72.0583  221.7549 H   0  0  0  0  0  0  0  0  0  0  0  0
  138.6380   72.8110  222.9650 H   0  0  0  0  0  0  0  0  0  0  0  0
  135.6724   72.2989  221.9424 H   0  0  0  0  0  0  0  0  0  0  0  0
  135.1831   72.1069  223.6500 H   0  0  0  0  0  0  0  0  0  0  0  0
  136.3850   74.1600  224.1620 H   0  0  0  0  0  0  0  0  0  0  0  0
  135.9981   76.4730  222.4887 H   0  0  0  0  0  0  0  0  0  0  0  0
  136.8114   78.7931  222.7657 H   0  0  0  0  0  0  0  0  0  0  0  0
  138.6499   80.2887  222.9636 H   0  0  0  0  0  0  0  0  0  0  0  0
  142.6887   78.7373  222.8438 H   0  0  0  0  0  0  0  0  0  0  0  0
  141.7655   76.4654  222.5713 H   0  0  0  0  0  0  0  0  0  0  0  0
  1  2  1  0
  2  3  2  0
  3  4  1  0
  4  5  2  0
  5  6  1  0
  6  7  2  0
  7  8  1  0
  8  9  1  0
  8 10  1  0
 10 11  1  0
 11 12  2  0
 11 13  1  0
 13 14  1  0
 14 15  1  0
 15 16  2  0
 15 17  1  0
 17 18  2  0
 18 19  1  0
 19 20  2  0
 20 21  1  0
 21 22  2  0
 22 23  1  0
 22 24  1  0
 24 25  2  0
 25 26  1  0
 26 27  2  0
  7  2  1  0
 27 17  1  0
 26 20  1  0
  1 28  1  0
  1 29  1  0
  1 30  1  0
  3 31  1  0
  4 32  1  0
  5 33  1  0
  6 34  1  0
  8 35  1  6
  9 36  1  0
  9 37  1  0
  9 38  1  0
 10 39  1  0
 13 40  1  0
 13 41  1  0
 14 42  1  0
 18 43  1  0
 19 44  1  0
 21 45  1  0
 24 46  1  0
 25 47  1  0
M  END
>  <smiles>  (45) 
Cc1ccccc1[C@H](C)NC(=O)CNC(=O)c1ccc2cc(Cl)ccc2n1

>  <score_type>  (45) 
oracle

>  <origin>  (45) 
autodockgpu

>  <m_score__min__energy>  (45) 
-8.6600000000000001

>  <m_primary>  (45) 
energy

>  <rmsd>  (45) 
9.251860913927606

>  <m_score__min__rmsd>  (45) 
9.251860913927606

>  <meeko>  (45) 
{"free_energy": -7.45, "intermolecular_energy": -8.94, "internal_energy": -1.76, "cluster_size": 20, "cluster_id": 3, "rank_in_cluster": 19}

>  <energy>  (45) 
-7.56

>  <cluster_rmsd>  (45) 
1.19

>  <cluster>  (45) 
3

$$$$

     RDKit          3D

 47 49  0  0  0  0  0  0  0  0999 V2000
  140.1520   68.7080  228.6750 C   0  0  0  0  0  0  0  0  0  0  0  0
  140.4930   69.9420  227.9250 C   0  0  0  0  0  0  0  0  0  0  0  0
  141.1630   71.0120  228.5110 C   0  0  0  0  0  0  0  0  0  0  0  0
  141.4790   72.1580  227.8110 C   0  0  0  0  0  0  0  0  0  0  0  0
  141.1210   72.2540  226.4820 C   0  0  0  0  0  0  0  0  0  0  0  0
  140.4550   71.1920  225.8920 C   0  0  0  0  0  0  0  0  0  0  0  0
  140.1310   70.0380  226.5770 C   0  0  0  0  0  0  0  0  0  0  0  0
  139.4210   68.9190  225.9320 C   0  0  2  0  0  0  0  0  0  0  0  0
  140.2670   67.6830  225.7630 C   0  0  0  0  0  0  0  0  0  0  0  0
  138.9940   69.3470  224.6140 N   0  0  0  0  0  0  0  0  0  0  0  0
  137.5980   69.5670  224.3470 C   0  0  0  0  0  0  0  0  0  0  0  0
  136.7270   69.3880  225.2630 O   0  0  0  0  0  0  0  0  0  0  0  0
  137.1760   70.0070  222.9880 C   0  0  0  0  0  0  0  0  0  0  0  0
  137.6380   71.3610  222.7890 N   0  0  0  0  0  0  0  0  0  0  0  0
  138.9610   71.5190  222.2700 C   0  0  0  0  0  0  0  0  0  0  0  0
  139.5860   70.4330  222.0410 O   0  0  0  0  0  0  0  0  0  0  0  0
  139.5490   72.8200  222.0230 C   0  0  0  0  0  0  0  0  0  0  0  0
  140.7820   72.8670  221.4260 C   0  0  0  0  0  0  0  0  0  0  0  0
  141.4420   74.0460  221.1400 C   0  0  0  0  0  0  0  0  0  0  0  0
  140.8160   75.2220  221.4790 C   0  0  0  0  0  0  0  0  0  0  0  0
  141.4430   76.4010  221.2090 C   0  0  0  0  0  0  0  0  0  0  0  0
  140.7920   77.5830  221.5590 C   0  0  0  0  0  0  0  0  0  0  0  0
  141.6140   79.0900  221.2040 Cl  0  0  0  0  0  0  0  0  0  0  0  0
  139.5550   77.5730  222.1600 C   0  0  0  0  0  0  0  0  0  0  0  0
  138.9710   76.3490  222.4070 C   0  0  0  0  0  0  0  0  0  0  0  0
  139.5580   75.1510  222.0870 C   0  0  0  0  0  0  0  0  0  0  0  0
  138.9620   73.9790  222.3420 N   0  0  0  0  0  0  0  0  0  0  0  0
  140.2074   68.9083  229.7552 H   0  0  0  0  0  0  0  0  0  0  0  0
  139.1322   68.3896  228.4129 H   0  0  0  0  0  0  0  0  0  0  0  0
  140.8636   67.9112  228.4129 H   0  0  0  0  0  0  0  0  0  0  0  0
  141.4509   70.9413  229.5703 H   0  0  0  0  0  0  0  0  0  0  0  0
  142.0096   72.9847  228.3061 H   0  0  0  0  0  0  0  0  0  0  0  0
  141.3600   73.1572  225.9015 H   0  0  0  0  0  0  0  0  0  0  0  0
  140.1722   71.2717  224.8320 H   0  0  0  0  0  0  0  0  0  0  0  0
  138.5787   68.6553  226.5885 H   0  0  0  0  0  0  0  0  0  0  0  0
  140.5385   67.2864  226.7524 H   0  0  0  0  0  0  0  0  0  0  0  0
  139.6988   66.9230  225.2066 H   0  0  0  0  0  0  0  0  0  0  0  0
  141.1811   67.9376  225.2066 H   0  0  0  0  0  0  0  0  0  0  0  0
  139.6480   69.5130  223.8170 H   0  0  0  0  0  0  0  0  0  0  0  0
  137.6195   69.3466  222.2282 H   0  0  0  0  0  0  0  0  0  0  0  0
  136.0807   69.9617  222.8967 H   0  0  0  0  0  0  0  0  0  0  0  0
  137.0720   72.2040  222.9980 H   0  0  0  0  0  0  0  0  0  0  0  0
  141.2705   71.9176  221.1613 H   0  0  0  0  0  0  0  0  0  0  0  0
  142.4313   74.0441  220.6591 H   0  0  0  0  0  0  0  0  0  0  0  0
  142.4328   76.4197  220.7294 H   0  0  0  0  0  0  0  0  0  0  0  0
  139.0487   78.5102  222.4344 H   0  0  0  0  0  0  0  0  0  0  0  0
  137.9811   76.3319  222.8864 H   0  0  0  0  0  0  0  0  0  0  0  0
  1  2  1  0
  2  3  2  0
  3  4  1  0
  4  5  2  0
  5  6  1  0
  6  7  2  0
  7  8  1  0
  8  9  1  0
  8 10  1  0
 10 11  1  0
 11 12  2  0
 11 13  1  0
 13 14  1  0
 14 15  1  0
 15 16  2  0
 15 17  1  0
 17 18  2  0
 18 19  1  0
 19 20  2  0
 20 21  1  0
 21 22  2  0
 22 23  1  0
 22 24  1  0
 24 25  2  0
 25 26  1  0
 26 27  2  0
  7  2  1  0
 27 17  1  0
 26 20  1  0
  1 28  1  0
  1 29  1  0
  1 30  1  0
  3 31  1  0
  4 32  1  0
  5 33  1  0
  6 34  1  0
  8 35  1  1
  9 36  1  0
  9 37  1  0
  9 38  1  0
 10 39  1  0
 13 40  1  0
 13 41  1  0
 14 42  1  0
 18 43  1  0
 19 44  1  0
 21 45  1  0
 24 46  1  0
 25 47  1  0
M  END
>  <smiles>  (46) 
Cc1ccccc1[C@H](C)NC(=O)CNC(=O)c1ccc2cc(Cl)ccc2n1

>  <score_type>  (46) 
oracle

>  <origin>  (46) 
autodockgpu

>  <m_score__min__energy>  (46) 
-8.6600000000000001

>  <m_primary>  (46) 
energy

>  <rmsd>  (46) 
9.836817600499986

>  <m_score__min__rmsd>  (46) 
9.836817600499986

>  <meeko>  (46) 
{"free_energy": -7.56, "intermolecular_energy": -9.05, "internal_energy": -2.19, "cluster_size": 20, "cluster_id": 3, "rank_in_cluster": 18}

>  <energy>  (46) 
-7.45

>  <cluster_rmsd>  (46) 
1.71

>  <cluster>  (46) 
3

$$$$

     RDKit          3D

 47 49  0  0  0  0  0  0  0  0999 V2000
  142.9610   79.8140  222.7440 C   0  0  0  0  0  0  0  0  0  0  0  0
  141.4780   79.8220  222.7880 C   0  0  0  0  0  0  0  0  0  0  0  0
  140.7630   80.4530  223.8020 C   0  0  0  0  0  0  0  0  0  0  0  0
  139.3840   80.4590  223.8400 C   0  0  0  0  0  0  0  0  0  0  0  0
  138.6810   79.8180  222.8400 C   0  0  0  0  0  0  0  0  0  0  0  0
  139.3870   79.1880  221.8280 C   0  0  0  0  0  0  0  0  0  0  0  0
  140.7660   79.1730  221.7730 C   0  0  0  0  0  0  0  0  0  0  0  0
  141.4990   78.4960  220.6870 C   0  0  2  0  0  0  0  0  0  0  0  0
  141.5890   79.3100  219.4220 C   0  0  0  0  0  0  0  0  0  0  0  0
  140.8090   77.2610  220.3710 N   0  0  0  0  0  0  0  0  0  0  0  0
  140.6000   76.2730  221.3950 C   0  0  0  0  0  0  0  0  0  0  0  0
  141.0180   76.4730  222.5840 O   0  0  0  0  0  0  0  0  0  0  0  0
  139.8890   75.0080  221.0540 C   0  0  0  0  0  0  0  0  0  0  0  0
  139.8340   74.1890  222.2440 N   0  0  0  0  0  0  0  0  0  0  0  0
  140.1990   72.8150  222.0940 C   0  0  0  0  0  0  0  0  0  0  0  0
  140.5330   72.4680  220.9150 O   0  0  0  0  0  0  0  0  0  0  0  0
  140.1890   71.8820  223.2040 C   0  0  0  0  0  0  0  0  0  0  0  0
  139.6670   70.6330  222.9910 C   0  0  0  0  0  0  0  0  0  0  0  0
  139.6020   69.6610  223.9700 C   0  0  0  0  0  0  0  0  0  0  0  0
  140.0910   69.9810  225.2150 C   0  0  0  0  0  0  0  0  0  0  0  0
  140.0420   69.0410  226.2000 C   0  0  0  0  0  0  0  0  0  0  0  0
  140.5430   69.3840  227.4560 C   0  0  0  0  0  0  0  0  0  0  0  0
  140.4700   68.1630  228.7110 Cl  0  0  0  0  0  0  0  0  0  0  0  0
  141.0730   70.6290  227.7040 C   0  0  0  0  0  0  0  0  0  0  0  0
  141.0960   71.5350  226.6670 C   0  0  0  0  0  0  0  0  0  0  0  0
  140.6200   71.2610  225.4100 C   0  0  0  0  0  0  0  0  0  0  0  0
  140.6570   72.1680  224.4240 N   0  0  0  0  0  0  0  0  0  0  0  0
  143.3582   79.8119  223.7698 H   0  0  0  0  0  0  0  0  0  0  0  0
  143.3073   78.9140  222.2148 H   0  0  0  0  0  0  0  0  0  0  0  0
  143.3170   80.7102  222.2148 H   0  0  0  0  0  0  0  0  0  0  0  0
  141.3176   80.9654  224.6019 H   0  0  0  0  0  0  0  0  0  0  0  0
  138.8515   80.9681  224.6568 H   0  0  0  0  0  0  0  0  0  0  0  0
  137.5811   79.8075  222.8464 H   0  0  0  0  0  0  0  0  0  0  0  0
  138.8236   78.6772  221.0332 H   0  0  0  0  0  0  0  0  0  0  0  0
  142.5249   78.3306  221.0477 H   0  0  0  0  0  0  0  0  0  0  0  0
  141.7066   80.3734  219.6778 H   0  0  0  0  0  0  0  0  0  0  0  0
  142.4558   78.9767  218.8324 H   0  0  0  0  0  0  0  0  0  0  0  0
  140.6704   79.1741  218.8324 H   0  0  0  0  0  0  0  0  0  0  0  0
  140.4400   77.0280  219.4230 H   0  0  0  0  0  0  0  0  0  0  0  0
  138.8691   75.2346  220.7099 H   0  0  0  0  0  0  0  0  0  0  0  0
  140.4201   74.4771  220.2502 H   0  0  0  0  0  0  0  0  0  0  0  0
  139.5510   74.5390  223.1770 H   0  0  0  0  0  0  0  0  0  0  0  0
  139.2802   70.3924  221.9897 H   0  0  0  0  0  0  0  0  0  0  0  0
  139.1754   68.6687  223.7619 H   0  0  0  0  0  0  0  0  0  0  0  0
  139.6205   68.0427  226.0108 H   0  0  0  0  0  0  0  0  0  0  0  0
  141.4653   70.8921  228.6974 H   0  0  0  0  0  0  0  0  0  0  0  0
  141.5190   72.5325  226.8570 H   0  0  0  0  0  0  0  0  0  0  0  0
  1  2  1  0
  2  3  2  0
  3  4  1  0
  4  5  2  0
  5  6  1  0
  6  7  2  0
  7  8  1  0
  8  9  1  0
  8 10  1  0
 10 11  1  0
 11 12  2  0
 11 13  1  0
 13 14  1  0
 14 15  1  0
 15 16  2  0
 15 17  1  0
 17 18  2  0
 18 19  1  0
 19 20  2  0
 20 21  1  0
 21 22  2  0
 22 23  1  0
 22 24  1  0
 24 25  2  0
 25 26  1  0
 26 27  2  0
  7  2  1  0
 27 17  1  0
 26 20  1  0
  1 28  1  0
  1 29  1  0
  1 30  1  0
  3 31  1  0
  4 32  1  0
  5 33  1  0
  6 34  1  0
  8 35  1  1
  9 36  1  0
  9 37  1  0
  9 38  1  0
 10 39  1  0
 13 40  1  0
 13 41  1  0
 14 42  1  0
 18 43  1  0
 19 44  1  0
 21 45  1  0
 24 46  1  0
 25 47  1  0
M  END
>  <smiles>  (47) 
Cc1ccccc1[C@H](C)NC(=O)CNC(=O)c1ccc2cc(Cl)ccc2n1

>  <score_type>  (47) 
oracle

>  <origin>  (47) 
autodockgpu

>  <m_score__min__energy>  (47) 
-8.6600000000000001

>  <m_primary>  (47) 
energy

>  <rmsd>  (47) 
3.857540128711686

>  <m_score__min__rmsd>  (47) 
3.857540128711686

>  <meeko>  (47) 
{"free_energy": -8.19, "intermolecular_energy": -9.68, "internal_energy": -1.35, "cluster_size": 15, "cluster_id": 2, "rank_in_cluster": 12}

>  <energy>  (47) 
-7.4

>  <cluster_rmsd>  (47) 
1.21

>  <cluster>  (47) 
3

$$$$

     RDKit          3D

 47 49  0  0  0  0  0  0  0  0999 V2000
  139.6770   67.7690  226.9050 C   0  0  0  0  0  0  0  0  0  0  0  0
  140.0950   69.1900  226.8220 C   0  0  0  0  0  0  0  0  0  0  0  0
  140.6510   69.8710  227.9020 C   0  0  0  0  0  0  0  0  0  0  0  0
  141.0390   71.1920  227.8230 C   0  0  0  0  0  0  0  0  0  0  0  0
  140.8720   71.8710  226.6330 C   0  0  0  0  0  0  0  0  0  0  0  0
  140.3190   71.2000  225.5540 C   0  0  0  0  0  0  0  0  0  0  0  0
  139.9260   69.8780  225.6160 C   0  0  0  0  0  0  0  0  0  0  0  0
  139.3390   69.1820  224.4560 C   0  0  2  0  0  0  0  0  0  0  0  0
  139.5340   69.9110  223.1520 C   0  0  0  0  0  0  0  0  0  0  0  0
  137.9130   69.0450  224.6790 N   0  0  0  0  0  0  0  0  0  0  0  0
  137.0590   70.1990  224.5880 C   0  0  0  0  0  0  0  0  0  0  0  0
  137.5460   71.3470  224.3140 O   0  0  0  0  0  0  0  0  0  0  0  0
  135.5950   70.0440  224.8190 C   0  0  0  0  0  0  0  0  0  0  0  0
  135.0590   71.3330  225.1920 N   0  0  0  0  0  0  0  0  0  0  0  0
  133.9680   71.3320  226.1160 C   0  0  0  0  0  0  0  0  0  0  0  0
  133.5900   70.1800  226.5070 O   0  0  0  0  0  0  0  0  0  0  0  0
  133.3370   72.5530  226.5740 C   0  0  0  0  0  0  0  0  0  0  0  0
  132.1290   72.4520  227.2140 C   0  0  0  0  0  0  0  0  0  0  0  0
  131.4320   73.5440  227.6950 C   0  0  0  0  0  0  0  0  0  0  0  0
  131.9940   74.7850  227.5130 C   0  0  0  0  0  0  0  0  0  0  0  0
  131.3290   75.8810  227.9780 C   0  0  0  0  0  0  0  0  0  0  0  0
  131.9150   77.1310  227.7840 C   0  0  0  0  0  0  0  0  0  0  0  0
  131.0460   78.5280  228.3880 Cl  0  0  0  0  0  0  0  0  0  0  0  0
  133.1260   77.2680  227.1470 C   0  0  0  0  0  0  0  0  0  0  0  0
  133.7500   76.1230  226.7000 C   0  0  0  0  0  0  0  0  0  0  0  0
  133.2270   74.8650  226.8580 C   0  0  0  0  0  0  0  0  0  0  0  0
  133.8610   73.7730  226.4110 N   0  0  0  0  0  0  0  0  0  0  0  0
  139.5901   67.4734  227.9610 H   0  0  0  0  0  0  0  0  0  0  0  0
  138.7039   67.6434  226.4078 H   0  0  0  0  0  0  0  0  0  0  0  0
  140.4271   67.1365  226.4078 H   0  0  0  0  0  0  0  0  0  0  0  0
  140.7857   69.3354  228.8533 H   0  0  0  0  0  0  0  0  0  0  0  0
  141.4758   71.6978  228.6967 H   0  0  0  0  0  0  0  0  0  0  0  0
  141.1723   72.9254  226.5428 H   0  0  0  0  0  0  0  0  0  0  0  0
  140.1875   71.7442  224.6072 H   0  0  0  0  0  0  0  0  0  0  0  0
  139.8522   68.2127  224.3717 H   0  0  0  0  0  0  0  0  0  0  0  0
  139.8134   70.9556  223.3541 H   0  0  0  0  0  0  0  0  0  0  0  0
  140.3331   69.4228  222.5749 H   0  0  0  0  0  0  0  0  0  0  0  0
  138.5978   69.8869  222.5749 H   0  0  0  0  0  0  0  0  0  0  0  0
  137.4440   68.1410  224.9070 H   0  0  0  0  0  0  0  0  0  0  0  0
  135.1079   69.6902  223.8983 H   0  0  0  0  0  0  0  0  0  0  0  0
  135.4114   69.3101  225.6175 H   0  0  0  0  0  0  0  0  0  0  0  0
  135.4180   72.2370  224.8320 H   0  0  0  0  0  0  0  0  0  0  0  0
  131.6926   71.4517  227.3516 H   0  0  0  0  0  0  0  0  0  0  0  0
  130.4643   73.4246  228.2042 H   0  0  0  0  0  0  0  0  0  0  0  0
  130.3605   75.7819  228.4901 H   0  0  0  0  0  0  0  0  0  0  0  0
  133.5816   78.2582  226.9991 H   0  0  0  0  0  0  0  0  0  0  0  0
  134.7191   76.2236  226.1893 H   0  0  0  0  0  0  0  0  0  0  0  0
  1  2  1  0
  2  3  2  0
  3  4  1  0
  4  5  2  0
  5  6  1  0
  6  7  2  0
  7  8  1  0
  8  9  1  0
  8 10  1  0
 10 11  1  0
 11 12  2  0
 11 13  1  0
 13 14  1  0
 14 15  1  0
 15 16  2  0
 15 17  1  0
 17 18  2  0
 18 19  1  0
 19 20  2  0
 20 21  1  0
 21 22  2  0
 22 23  1  0
 22 24  1  0
 24 25  2  0
 25 26  1  0
 26 27  2  0
  7  2  1  0
 27 17  1  0
 26 20  1  0
  1 28  1  0
  1 29  1  0
  1 30  1  0
  3 31  1  0
  4 32  1  0
  5 33  1  0
  6 34  1  0
  8 35  1  6
  9 36  1  0
  9 37  1  0
  9 38  1  0
 10 39  1  0
 13 40  1  0
 13 41  1  0
 14 42  1  0
 18 43  1  0
 19 44  1  0
 21 45  1  0
 24 46  1  0
 25 47  1  0
M  END
>  <smiles>  (48) 
Cc1ccccc1[C@H](C)NC(=O)CNC(=O)c1ccc2cc(Cl)ccc2n1

>  <score_type>  (48) 
oracle

>  <origin>  (48) 
autodockgpu

>  <m_score__min__energy>  (48) 
-8.6600000000000001

>  <m_primary>  (48) 
energy

>  <rmsd>  (48) 
10.67392155679155

>  <m_score__min__rmsd>  (48) 
10.67392155679155

>  <meeko>  (48) 
{"free_energy": -8.51, "intermolecular_energy": -10.0, "internal_energy": -1.51, "cluster_size": 12, "cluster_id": 1, "rank_in_cluster": 4}

>  <energy>  (48) 
-7.89

>  <cluster_rmsd>  (48) 
0.0

>  <cluster>  (48) 
4

$$$$

     RDKit          3D

 47 49  0  0  0  0  0  0  0  0999 V2000
  139.2400   69.4040  228.7890 C   0  0  0  0  0  0  0  0  0  0  0  0
  140.0450   70.2730  227.8950 C   0  0  0  0  0  0  0  0  0  0  0  0
  140.6350   71.4550  228.3340 C   0  0  0  0  0  0  0  0  0  0  0  0
  141.3840   72.2610  227.5020 C   0  0  0  0  0  0  0  0  0  0  0  0
  141.5570   71.8880  226.1840 C   0  0  0  0  0  0  0  0  0  0  0  0
  140.9740   70.7130  225.7410 C   0  0  0  0  0  0  0  0  0  0  0  0
  140.2230   69.8940  226.5600 C   0  0  0  0  0  0  0  0  0  0  0  0
  139.6090   68.6470  226.0690 C   0  0  2  0  0  0  0  0  0  0  0  0
  140.5020   67.4410  226.2030 C   0  0  0  0  0  0  0  0  0  0  0  0
  139.2980   68.8140  224.6620 N   0  0  0  0  0  0  0  0  0  0  0  0
  138.0790   69.4680  224.2690 C   0  0  0  0  0  0  0  0  0  0  0  0
  137.2640   69.9050  225.1500 O   0  0  0  0  0  0  0  0  0  0  0  0
  137.7730   69.6320  222.8200 C   0  0  0  0  0  0  0  0  0  0  0  0
  138.1450   70.9720  222.4310 N   0  0  0  0  0  0  0  0  0  0  0  0
  139.5450   71.2630  222.3880 C   0  0  0  0  0  0  0  0  0  0  0  0
  140.3100   70.2940  222.7020 O   0  0  0  0  0  0  0  0  0  0  0  0
  140.0570   72.5660  222.0130 C   0  0  0  0  0  0  0  0  0  0  0  0
  141.2070   72.6170  221.2710 C   0  0  0  0  0  0  0  0  0  0  0  0
  141.7910   73.7980  220.8550 C   0  0  0  0  0  0  0  0  0  0  0  0
  141.1710   74.9720  221.2140 C   0  0  0  0  0  0  0  0  0  0  0  0
  141.7230   76.1530  220.8180 C   0  0  0  0  0  0  0  0  0  0  0  0
  141.0800   77.3330  221.1910 C   0  0  0  0  0  0  0  0  0  0  0  0
  141.8050   78.8430  220.6730 Cl  0  0  0  0  0  0  0  0  0  0  0  0
  139.9240   77.3190  221.9360 C   0  0  0  0  0  0  0  0  0  0  0  0
  139.4140   76.0930  222.3060 C   0  0  0  0  0  0  0  0  0  0  0  0
  139.9980   74.8970  221.9720 C   0  0  0  0  0  0  0  0  0  0  0  0
  139.4740   73.7230  222.3490 N   0  0  0  0  0  0  0  0  0  0  0  0
  139.4657   69.6476  229.8377 H   0  0  0  0  0  0  0  0  0  0  0  0
  138.1699   69.5705  228.5960 H   0  0  0  0  0  0  0  0  0  0  0  0
  139.4877   68.3498  228.5960 H   0  0  0  0  0  0  0  0  0  0  0  0
  140.4989   71.7574  229.3828 H   0  0  0  0  0  0  0  0  0  0  0  0
  141.8371   73.1880  227.8833 H   0  0  0  0  0  0  0  0  0  0  0  0
  142.1475   72.5132  225.4981 H   0  0  0  0  0  0  0  0  0  0  0  0
  141.1154   70.4192  224.6904 H   0  0  0  0  0  0  0  0  0  0  0  0
  138.7156   68.4665  226.6848 H   0  0  0  0  0  0  0  0  0  0  0  0
  140.6644   67.2216  227.2686 H   0  0  0  0  0  0  0  0  0  0  0  0
  140.0250   66.5760  225.7191 H   0  0  0  0  0  0  0  0  0  0  0  0
  141.4686   67.6449  225.7191 H   0  0  0  0  0  0  0  0  0  0  0  0
  139.9140   68.4830  223.8880 H   0  0  0  0  0  0  0  0  0  0  0  0
  138.3473   68.9004  222.2327 H   0  0  0  0  0  0  0  0  0  0  0  0
  136.7013   69.4658  222.6360 H   0  0  0  0  0  0  0  0  0  0  0  0
  137.4660   71.7160  222.1860 H   0  0  0  0  0  0  0  0  0  0  0  0
  141.6905   71.6692  220.9919 H   0  0  0  0  0  0  0  0  0  0  0  0
  142.7160   73.7993  220.2597 H   0  0  0  0  0  0  0  0  0  0  0  0
  142.6475   76.1751  220.2223 H   0  0  0  0  0  0  0  0  0  0  0  0
  139.4234   78.2544  222.2267 H   0  0  0  0  0  0  0  0  0  0  0  0
  138.4891   76.0723  222.9010 H   0  0  0  0  0  0  0  0  0  0  0  0
  1  2  1  0
  2  3  2  0
  3  4  1  0
  4  5  2  0
  5  6  1  0
  6  7  2  0
  7  8  1  0
  8  9  1  0
  8 10  1  0
 10 11  1  0
 11 12  2  0
 11 13  1  0
 13 14  1  0
 14 15  1  0
 15 16  2  0
 15 17  1  0
 17 18  2  0
 18 19  1  0
 19 20  2  0
 20 21  1  0
 21 22  2  0
 22 23  1  0
 22 24  1  0
 24 25  2  0
 25 26  1  0
 26 27  2  0
  7  2  1  0
 27 17  1  0
 26 20  1  0
  1 28  1  0
  1 29  1  0
  1 30  1  0
  3 31  1  0
  4 32  1  0
  5 33  1  0
  6 34  1  0
  8 35  1  1
  9 36  1  0
  9 37  1  0
  9 38  1  0
 10 39  1  0
 13 40  1  0
 13 41  1  0
 14 42  1  0
 18 43  1  0
 19 44  1  0
 21 45  1  0
 24 46  1  0
 25 47  1  0
M  END
>  <smiles>  (49) 
Cc1ccccc1[C@H](C)NC(=O)CNC(=O)c1ccc2cc(Cl)ccc2n1

>  <score_type>  (49) 
oracle

>  <origin>  (49) 
autodockgpu

>  <m_score__min__energy>  (49) 
-8.6600000000000001

>  <m_primary>  (49) 
energy

>  <rmsd>  (49) 
9.893774745223178

>  <m_score__min__rmsd>  (49) 
9.893774745223178

>  <meeko>  (49) 
{"free_energy": -7.99, "intermolecular_energy": -9.49, "internal_energy": -2.23, "cluster_size": 20, "cluster_id": 3, "rank_in_cluster": 4}

>  <energy>  (49) 
-7.27

>  <cluster_rmsd>  (49) 
0.72

>  <cluster>  (49) 
4

$$$$

     RDKit          3D

 47 49  0  0  0  0  0  0  0  0999 V2000
  142.3920   71.5090  219.5580 C   0  0  0  0  0  0  0  0  0  0  0  0
  143.3830   72.5290  219.9840 C   0  0  0  0  0  0  0  0  0  0  0  0
  144.4060   72.2470  220.8850 C   0  0  0  0  0  0  0  0  0  0  0  0
  145.3260   73.1960  221.2800 C   0  0  0  0  0  0  0  0  0  0  0  0
  145.2330   74.4740  220.7670 C   0  0  0  0  0  0  0  0  0  0  0  0
  144.2180   74.7610  219.8700 C   0  0  0  0  0  0  0  0  0  0  0  0
  143.2900   73.8240  219.4640 C   0  0  0  0  0  0  0  0  0  0  0  0
  142.2160   74.1490  218.5080 C   0  0  2  0  0  0  0  0  0  0  0  0
  142.3300   75.5320  217.9180 C   0  0  0  0  0  0  0  0  0  0  0  0
  140.9450   74.0690  219.2030 N   0  0  0  0  0  0  0  0  0  0  0  0
  140.6270   75.0260  220.2280 C   0  0  0  0  0  0  0  0  0  0  0  0
  141.4540   75.9480  220.5350 O   0  0  0  0  0  0  0  0  0  0  0  0
  139.3180   74.9310  220.9340 C   0  0  0  0  0  0  0  0  0  0  0  0
  139.5130   74.1650  222.1430 N   0  0  0  0  0  0  0  0  0  0  0  0
  139.6440   72.7490  221.9930 C   0  0  0  0  0  0  0  0  0  0  0  0
  139.5710   72.3220  220.7940 O   0  0  0  0  0  0  0  0  0  0  0  0
  139.8440   71.8620  223.1220 C   0  0  0  0  0  0  0  0  0  0  0  0
  139.4960   70.5450  222.9750 C   0  0  0  0  0  0  0  0  0  0  0  0
  139.6400   69.6070  223.9780 C   0  0  0  0  0  0  0  0  0  0  0  0
  140.1600   70.0340  225.1770 C   0  0  0  0  0  0  0  0  0  0  0  0
  140.3140   69.1310  226.1860 C   0  0  0  0  0  0  0  0  0  0  0  0
  140.8430   69.5830  227.3930 C   0  0  0  0  0  0  0  0  0  0  0  0
  141.0340   68.4070  228.6790 Cl  0  0  0  0  0  0  0  0  0  0  0  0
  141.2030   70.8980  227.5750 C   0  0  0  0  0  0  0  0  0  0  0  0
  141.0240   71.7640  226.5180 C   0  0  0  0  0  0  0  0  0  0  0  0
  140.5090   71.3830  225.3050 C   0  0  0  0  0  0  0  0  0  0  0  0
  140.3470   72.2520  224.2980 N   0  0  0  0  0  0  0  0  0  0  0  0
  141.9399   71.0436  220.4463 H   0  0  0  0  0  0  0  0  0  0  0  0
  141.6067   71.9897  218.9560 H   0  0  0  0  0  0  0  0  0  0  0  0
  142.8951   70.7379  218.9560 H   0  0  0  0  0  0  0  0  0  0  0  0
  144.4836   71.2301  221.2971 H   0  0  0  0  0  0  0  0  0  0  0  0
  146.1223   72.9379  221.9936 H   0  0  0  0  0  0  0  0  0  0  0  0
  145.9525   75.2507  221.0655 H   0  0  0  0  0  0  0  0  0  0  0  0
  144.1484   75.7806  219.4632 H   0  0  0  0  0  0  0  0  0  0  0  0
  142.2968   73.4283  217.6809 H   0  0  0  0  0  0  0  0  0  0  0  0
  142.3911   76.2727  218.7289 H   0  0  0  0  0  0  0  0  0  0  0  0
  143.2362   75.5923  217.2973 H   0  0  0  0  0  0  0  0  0  0  0  0
  141.4459   75.7399  217.2973 H   0  0  0  0  0  0  0  0  0  0  0  0
  140.2200   73.3440  219.0070 H   0  0  0  0  0  0  0  0  0  0  0  0
  138.9565   75.9389  221.1858 H   0  0  0  0  0  0  0  0  0  0  0  0
  138.5729   74.4416  220.2896 H   0  0  0  0  0  0  0  0  0  0  0  0
  139.5630   74.5800  223.0920 H   0  0  0  0  0  0  0  0  0  0  0  0
  139.0812   70.2186  222.0099 H   0  0  0  0  0  0  0  0  0  0  0  0
  139.3495   68.5574  223.8235 H   0  0  0  0  0  0  0  0  0  0  0  0
  140.0292   68.0770  226.0515 H   0  0  0  0  0  0  0  0  0  0  0  0
  141.6196   71.2465  228.5316 H   0  0  0  0  0  0  0  0  0  0  0  0
  141.3095   72.8175  226.6544 H   0  0  0  0  0  0  0  0  0  0  0  0
  1  2  1  0
  2  3  2  0
  3  4  1  0
  4  5  2  0
  5  6  1  0
  6  7  2  0
  7  8  1  0
  8  9  1  0
  8 10  1  0
 10 11  1  0
 11 12  2  0
 11 13  1  0
 13 14  1  0
 14 15  1  0
 15 16  2  0
 15 17  1  0
 17 18  2  0
 18 19  1  0
 19 20  2  0
 20 21  1  0
 21 22  2  0
 22 23  1  0
 22 24  1  0
 24 25  2  0
 25 26  1  0
 26 27  2  0
  7  2  1  0
 27 17  1  0
 26 20  1  0
  1 28  1  0
  1 29  1  0
  1 30  1  0
  3 31  1  0
  4 32  1  0
  5 33  1  0
  6 34  1  0
  8 35  1  6
  9 36  1  0
  9 37  1  0
  9 38  1  0
 10 39  1  0
 13 40  1  0
 13 41  1  0
 14 42  1  0
 18 43  1  0
 19 44  1  0
 21 45  1  0
 24 46  1  0
 25 47  1  0
M  END
>  <smiles>  (50) 
Cc1ccccc1[C@H](C)NC(=O)CNC(=O)c1ccc2cc(Cl)ccc2n1

>  <score_type>  (50) 
oracle

>  <origin>  (50) 
autodockgpu

>  <m_score__min__energy>  (50) 
-8.6600000000000001

>  <m_primary>  (50) 
energy

>  <rmsd>  (50) 
6.342928052413868

>  <m_score__min__rmsd>  (50) 
6.342928052413868

>  <meeko>  (50) 
{"free_energy": -7.21, "intermolecular_energy": -8.7, "internal_energy": -2.25, "cluster_size": 3, "cluster_id": 4, "rank_in_cluster": 3}

>  <energy>  (50) 
-7.21

>  <cluster_rmsd>  (50) 
0.77

>  <cluster>  (50) 
4

$$$$
