
     RDKit          3D

 52 55  0  0  0  0  0  0  0  0999 V2000
  139.6250   73.7940  222.3450 O   0  0  0  0  0  0  0  0  0  0  0  0
  139.6560   72.5690  222.1020 C   0  0  0  0  0  0  0  0  0  0  0  0
  139.5660   72.1810  220.7200 N   0  0  0  0  0  0  0  0  0  0  0  0
  139.4490   73.0940  219.6360 C   0  0  0  0  0  0  0  0  0  0  0  0
  140.6400   73.7210  219.0730 C   0  0  0  0  0  0  0  0  0  0  0  0
  140.3380   74.6840  218.2240 O   0  0  0  0  0  0  0  0  0  0  0  0
  141.9900   73.5020  219.2500 N   0  0  0  0  0  0  0  0  0  0  0  0
  142.8620   72.3490  219.3380 C   0  0  0  0  0  0  0  0  0  0  0  0
  143.5270   72.6880  220.6790 C   0  0  0  0  0  0  0  0  0  0  0  0
  144.0430   74.0620  220.3210 C   0  0  0  0  0  0  0  0  0  0  0  0
  142.9580   74.6200  219.4370 C   0  0  2  0  0  0  0  0  0  0  0  0
  142.3460   75.7580  220.1480 C   0  0  0  0  0  0  0  0  0  0  0  0
  142.4100   77.0630  219.7570 C   0  0  0  0  0  0  0  0  0  0  0  0
  141.8060   78.0830  220.4800 C   0  0  0  0  0  0  0  0  0  0  0  0
  141.1130   77.7820  221.6410 C   0  0  0  0  0  0  0  0  0  0  0  0
  140.4860   78.7510  222.4130 O   0  0  0  0  0  0  0  0  0  0  0  0
  141.2760   79.4960  223.3290 C   0  0  0  0  0  0  0  0  0  0  0  0
  141.7490   78.6200  224.2800 F   0  0  0  0  0  0  0  0  0  0  0  0
  140.5550   80.5350  223.8830 F   0  0  0  0  0  0  0  0  0  0  0  0
  142.3440   80.0040  222.6110 F   0  0  0  0  0  0  0  0  0  0  0  0
  141.0320   76.4690  222.0630 C   0  0  0  0  0  0  0  0  0  0  0  0
  141.6430   75.4820  221.3210 C   0  0  0  0  0  0  0  0  0  0  0  0
  139.7760   71.5700  223.1610 C   0  0  0  0  0  0  0  0  0  0  0  0
  139.3220   70.3000  222.9080 C   0  0  0  0  0  0  0  0  0  0  0  0
  139.4450   69.3730  223.9210 C   0  0  0  0  0  0  0  0  0  0  0  0
  140.0080   69.7200  225.1480 C   0  0  0  0  0  0  0  0  0  0  0  0
  140.1520   68.8360  226.1820 C   0  0  0  0  0  0  0  0  0  0  0  0
  140.7240   69.2510  227.3830 C   0  0  0  0  0  0  0  0  0  0  0  0
  140.9280   68.1560  228.7330 Cl  0  0  0  0  0  0  0  0  0  0  0  0
  141.1590   70.5520  227.5620 C   0  0  0  0  0  0  0  0  0  0  0  0
  141.0080   71.4280  226.5120 C   0  0  0  0  0  0  0  0  0  0  0  0
  140.4430   71.0090  225.3340 C   0  0  0  0  0  0  0  0  0  0  0  0
  140.3160   71.8930  224.3440 N   0  0  0  0  0  0  0  0  0  0  0  0
  139.5960   71.1280  220.5710 H   0  0  0  0  0  0  0  0  0  0  0  0
  138.9596   72.5496  218.8149 H   0  0  0  0  0  0  0  0  0  0  0  0
  138.9054   73.9413  220.0794 H   0  0  0  0  0  0  0  0  0  0  0  0
  142.3007   71.4039  219.3781 H   0  0  0  0  0  0  0  0  0  0  0  0
  143.5417   72.1911  218.4877 H   0  0  0  0  0  0  0  0  0  0  0  0
  142.8029   72.7181  221.5065 H   0  0  0  0  0  0  0  0  0  0  0  0
  144.2790   71.9701  221.0384 H   0  0  0  0  0  0  0  0  0  0  0  0
  144.1748   74.6803  221.2212 H   0  0  0  0  0  0  0  0  0  0  0  0
  145.0276   74.0380  219.8311 H   0  0  0  0  0  0  0  0  0  0  0  0
  143.3142   74.9809  218.4608 H   0  0  0  0  0  0  0  0  0  0  0  0
  142.9587   77.3161  218.8378 H   0  0  0  0  0  0  0  0  0  0  0  0
  141.8774   79.1243  220.1327 H   0  0  0  0  0  0  0  0  0  0  0  0
  140.4849   76.2141  222.9826 H   0  0  0  0  0  0  0  0  0  0  0  0
  141.5741   74.4396  221.6656 H   0  0  0  0  0  0  0  0  0  0  0  0
  138.8785   70.0328  221.9375 H   0  0  0  0  0  0  0  0  0  0  0  0
  139.0934   68.3435  223.7584 H   0  0  0  0  0  0  0  0  0  0  0  0
  139.8155   67.7953  226.0652 H   0  0  0  0  0  0  0  0  0  0  0  0
  141.6103   70.8751  228.5117 H   0  0  0  0  0  0  0  0  0  0  0  0
  141.3423   72.4707  226.6175 H   0  0  0  0  0  0  0  0  0  0  0  0
  1  2  2  0
  2  3  1  0
  3  4  1  0
  4  5  1  0
  5  6  2  0
  5  7  1  0
  7  8  1  0
  8  9  1  0
  9 10  1  0
 10 11  1  0
 11 12  1  0
 12 13  2  0
 13 14  1  0
 14 15  2  0
 15 16  1  0
 16 17  1  0
 17 18  1  0
 17 19  1  0
 17 20  1  0
 15 21  1  0
 21 22  2  0
  2 23  1  0
 23 24  2  0
 24 25  1  0
 25 26  2  0
 26 27  1  0
 27 28  2  0
 28 29  1  0
 28 30  1  0
 30 31  2  0
 31 32  1  0
 32 33  2  0
 11  7  1  0
 22 12  1  0
 33 23  1  0
 32 26  1  0
  3 34  1  0
  4 35  1  0
  4 36  1  0
  8 37  1  0
  8 38  1  0
  9 39  1  0
  9 40  1  0
 10 41  1  0
 10 42  1  0
 11 43  1  6
 13 44  1  0
 14 45  1  0
 21 46  1  0
 22 47  1  0
 24 48  1  0
 25 49  1  0
 27 50  1  0
 30 51  1  0
 31 52  1  0
M  END
>  <smiles>  (1) 
O=C(NCC(=O)N1CCCC1c1ccc(OC(F)(F)F)cc1)c1ccc2cc(Cl)ccc2n1

>  <score_type>  (1) 
oracle

>  <origin>  (1) 
autodockgpu

>  <m_score__min__energy>  (1) 
-7.8600000000000003

>  <m_primary>  (1) 
energy

>  <rmsd>  (1) 
3.0052951812547524

>  <m_score__min__rmsd>  (1) 
3.0052951812547524

>  <meeko>  (1) 
{"free_energy": -7.77, "intermolecular_energy": -9.86, "internal_energy": -1.78, "cluster_size": 23, "cluster_id": 1, "rank_in_cluster": 10}

>  <energy>  (1) 
-7.86

>  <cluster_rmsd>  (1) 
0.0

>  <cluster>  (1) 
1

$$$$

     RDKit          3D

 52 55  0  0  0  0  0  0  0  0999 V2000
  138.8890   71.6890  220.6900 O   0  0  0  0  0  0  0  0  0  0  0  0
  138.9860   72.1160  221.8590 C   0  0  0  0  0  0  0  0  0  0  0  0
  138.8140   73.5320  222.0480 N   0  0  0  0  0  0  0  0  0  0  0  0
  138.5450   74.4540  220.9990 C   0  0  0  0  0  0  0  0  0  0  0  0
  139.5570   74.7270  219.9850 C   0  0  0  0  0  0  0  0  0  0  0  0
  139.1130   75.5460  219.0510 O   0  0  0  0  0  0  0  0  0  0  0  0
  140.8560   74.2990  219.8140 N   0  0  0  0  0  0  0  0  0  0  0  0
  141.5380   73.0230  219.7410 C   0  0  0  0  0  0  0  0  0  0  0  0
  142.5820   73.2770  220.8370 C   0  0  0  0  0  0  0  0  0  0  0  0
  143.1810   74.5430  220.2730 C   0  0  0  0  0  0  0  0  0  0  0  0
  141.9950   75.2510  219.6720 C   0  0  2  0  0  0  0  0  0  0  0  0
  141.7730   76.4860  220.4490 C   0  0  0  0  0  0  0  0  0  0  0  0
  141.9790   77.7550  219.9930 C   0  0  0  0  0  0  0  0  0  0  0  0
  141.7470   78.8710  220.7850 C   0  0  0  0  0  0  0  0  0  0  0  0
  141.2900   78.7080  222.0830 C   0  0  0  0  0  0  0  0  0  0  0  0
  141.0370   79.7800  222.9290 O   0  0  0  0  0  0  0  0  0  0  0  0
  142.0420   80.7730  223.0750 C   0  0  0  0  0  0  0  0  0  0  0  0
  141.7740   81.4700  224.2330 F   0  0  0  0  0  0  0  0  0  0  0  0
  142.0990   81.5960  221.9670 F   0  0  0  0  0  0  0  0  0  0  0  0
  143.2440   80.1050  223.2170 F   0  0  0  0  0  0  0  0  0  0  0  0
  141.0720   77.4350  222.5710 C   0  0  0  0  0  0  0  0  0  0  0  0
  141.3130   76.3480  221.7590 C   0  0  0  0  0  0  0  0  0  0  0  0
  139.2590   71.2310  222.9880 C   0  0  0  0  0  0  0  0  0  0  0  0
  138.8960   69.9120  222.8800 C   0  0  0  0  0  0  0  0  0  0  0  0
  139.1630   69.0940  223.9570 C   0  0  0  0  0  0  0  0  0  0  0  0
  139.7770   69.5930  225.1040 C   0  0  0  0  0  0  0  0  0  0  0  0
  140.0630   68.8210  226.1970 C   0  0  0  0  0  0  0  0  0  0  0  0
  140.6790   69.3870  227.3110 C   0  0  0  0  0  0  0  0  0  0  0  0
  141.0630   68.4390  228.7320 Cl  0  0  0  0  0  0  0  0  0  0  0  0
  141.0160   70.7280  227.3450 C   0  0  0  0  0  0  0  0  0  0  0  0
  140.7220   71.4910  226.2380 C   0  0  0  0  0  0  0  0  0  0  0  0
  140.1160   70.9240  225.1460 C   0  0  0  0  0  0  0  0  0  0  0  0
  139.8500   71.7010  224.0960 N   0  0  0  0  0  0  0  0  0  0  0  0
  138.9090   73.8400  223.0620 H   0  0  0  0  0  0  0  0  0  0  0  0
  137.6576   74.0792  220.4678 H   0  0  0  0  0  0  0  0  0  0  0  0
  138.4535   75.4147  221.5269 H   0  0  0  0  0  0  0  0  0  0  0  0
  140.8738   72.1808  219.9851 H   0  0  0  0  0  0  0  0  0  0  0  0
  141.9328   72.7420  218.7535 H   0  0  0  0  0  0  0  0  0  0  0  0
  142.1201   73.4383  221.8222 H   0  0  0  0  0  0  0  0  0  0  0  0
  143.2873   72.4551  221.0295 H   0  0  0  0  0  0  0  0  0  0  0  0
  143.6405   75.1493  221.0675 H   0  0  0  0  0  0  0  0  0  0  0  0
  143.9824   74.3520  219.5442 H   0  0  0  0  0  0  0  0  0  0  0  0
  142.1262   75.5319  218.6166 H   0  0  0  0  0  0  0  0  0  0  0  0
  142.3408   77.8985  218.9641 H   0  0  0  0  0  0  0  0  0  0  0  0
  141.9250   79.8798  220.3843 H   0  0  0  0  0  0  0  0  0  0  0  0
  140.7091   77.2897  223.5992 H   0  0  0  0  0  0  0  0  0  0  0  0
  141.1368   75.3377  222.1569 H   0  0  0  0  0  0  0  0  0  0  0  0
  138.4121   69.5236  221.9717 H   0  0  0  0  0  0  0  0  0  0  0  0
  138.8869   68.0302  223.9102 H   0  0  0  0  0  0  0  0  0  0  0  0
  139.8060   67.7514  226.1960 H   0  0  0  0  0  0  0  0  0  0  0  0
  141.5026   71.1698  228.2271 H   0  0  0  0  0  0  0  0  0  0  0  0
  140.9744   72.5616  226.2290 H   0  0  0  0  0  0  0  0  0  0  0  0
  1  2  2  0
  2  3  1  0
  3  4  1  0
  4  5  1  0
  5  6  2  0
  5  7  1  0
  7  8  1  0
  8  9  1  0
  9 10  1  0
 10 11  1  0
 11 12  1  0
 12 13  2  0
 13 14  1  0
 14 15  2  0
 15 16  1  0
 16 17  1  0
 17 18  1  0
 17 19  1  0
 17 20  1  0
 15 21  1  0
 21 22  2  0
  2 23  1  0
 23 24  2  0
 24 25  1  0
 25 26  2  0
 26 27  1  0
 27 28  2  0
 28 29  1  0
 28 30  1  0
 30 31  2  0
 31 32  1  0
 32 33  2  0
 11  7  1  0
 22 12  1  0
 33 23  1  0
 32 26  1  0
  3 34  1  0
  4 35  1  0
  4 36  1  0
  8 37  1  0
  8 38  1  0
  9 39  1  0
  9 40  1  0
 10 41  1  0
 10 42  1  0
 11 43  1  6
 13 44  1  0
 14 45  1  0
 21 46  1  0
 22 47  1  0
 24 48  1  0
 25 49  1  0
 27 50  1  0
 30 51  1  0
 31 52  1  0
M  END
>  <smiles>  (2) 
O=C(NCC(=O)N1CCCC1c1ccc(OC(F)(F)F)cc1)c1ccc2cc(Cl)ccc2n1

>  <score_type>  (2) 
oracle

>  <origin>  (2) 
autodockgpu

>  <m_score__min__energy>  (2) 
-7.8600000000000003

>  <m_primary>  (2) 
energy

>  <rmsd>  (2) 
2.312961463020732

>  <m_score__min__rmsd>  (2) 
2.312961463020732

>  <meeko>  (2) 
{"free_energy": -7.66, "intermolecular_energy": -9.74, "internal_energy": -1.93, "cluster_size": 23, "cluster_id": 1, "rank_in_cluster": 16}

>  <energy>  (2) 
-7.85

>  <cluster_rmsd>  (2) 
0.18

>  <cluster>  (2) 
1

$$$$

     RDKit          3D

 52 55  0  0  0  0  0  0  0  0999 V2000
  142.3300   80.0480  218.9020 O   0  0  0  0  0  0  0  0  0  0  0  0
  141.7520   78.9470  219.0250 C   0  0  0  0  0  0  0  0  0  0  0  0
  140.3750   78.9830  219.4380 N   0  0  0  0  0  0  0  0  0  0  0  0
  139.6480   80.1750  219.7060 C   0  0  0  0  0  0  0  0  0  0  0  0
  139.5150   80.6590  221.0760 C   0  0  0  0  0  0  0  0  0  0  0  0
  138.2610   80.9330  221.3840 O   0  0  0  0  0  0  0  0  0  0  0  0
  140.4260   80.8860  222.0860 N   0  0  0  0  0  0  0  0  0  0  0  0
  141.4700   81.8530  222.3570 C   0  0  0  0  0  0  0  0  0  0  0  0
  142.6180   80.8630  222.5940 C   0  0  0  0  0  0  0  0  0  0  0  0
  141.9750   80.0440  223.6880 C   0  0  0  0  0  0  0  0  0  0  0  0
  140.5250   79.9990  223.2800 C   0  0  2  0  0  0  0  0  0  0  0  0
  140.1990   78.5990  222.9490 C   0  0  0  0  0  0  0  0  0  0  0  0
  138.9420   78.0740  222.8820 C   0  0  0  0  0  0  0  0  0  0  0  0
  138.7140   76.7420  222.5620 C   0  0  0  0  0  0  0  0  0  0  0  0
  139.7860   75.9060  222.2990 C   0  0  0  0  0  0  0  0  0  0  0  0
  139.6300   74.5650  221.9740 O   0  0  0  0  0  0  0  0  0  0  0  0
  139.7700   74.1820  220.6140 C   0  0  0  0  0  0  0  0  0  0  0  0
  140.7460   73.2130  220.5520 F   0  0  0  0  0  0  0  0  0  0  0  0
  140.0570   75.2700  219.8130 F   0  0  0  0  0  0  0  0  0  0  0  0
  138.5610   73.6310  220.2300 F   0  0  0  0  0  0  0  0  0  0  0  0
  141.0710   76.4110  222.3600 C   0  0  0  0  0  0  0  0  0  0  0  0
  141.2630   77.7370  222.6800 C   0  0  0  0  0  0  0  0  0  0  0  0
  142.4310   77.6810  218.7660 C   0  0  0  0  0  0  0  0  0  0  0  0
  142.9130   77.4520  217.5010 C   0  0  0  0  0  0  0  0  0  0  0  0
  143.5510   76.2500  217.2780 C   0  0  0  0  0  0  0  0  0  0  0  0
  143.6960   75.3130  218.2980 C   0  0  0  0  0  0  0  0  0  0  0  0
  144.3210   74.1080  218.1260 C   0  0  0  0  0  0  0  0  0  0  0  0
  144.4300   73.2170  219.1910 C   0  0  0  0  0  0  0  0  0  0  0  0
  145.2200   71.6640  219.0170 Cl  0  0  0  0  0  0  0  0  0  0  0  0
  143.9180   73.5200  220.4400 C   0  0  0  0  0  0  0  0  0  0  0  0
  143.2930   74.7360  220.5970 C   0  0  0  0  0  0  0  0  0  0  0  0
  143.1910   75.6060  219.5410 C   0  0  0  0  0  0  0  0  0  0  0  0
  142.5770   76.7730  219.7400 N   0  0  0  0  0  0  0  0  0  0  0  0
  139.9340   78.0190  219.5280 H   0  0  0  0  0  0  0  0  0  0  0  0
  140.1331   80.9781  219.1318 H   0  0  0  0  0  0  0  0  0  0  0  0
  138.6167   79.9076  219.4324 H   0  0  0  0  0  0  0  0  0  0  0  0
  141.6596   82.5137  221.4982 H   0  0  0  0  0  0  0  0  0  0  0  0
  141.2700   82.5655  223.1708 H   0  0  0  0  0  0  0  0  0  0  0  0
  142.8394   80.2615  221.7000 H   0  0  0  0  0  0  0  0  0  0  0  0
  143.5939   81.3083  222.8376 H   0  0  0  0  0  0  0  0  0  0  0  0
  142.4049   79.0323  223.7274 H   0  0  0  0  0  0  0  0  0  0  0  0
  142.1272   80.4698  224.6908 H   0  0  0  0  0  0  0  0  0  0  0  0
  139.8267   80.3345  224.0609 H   0  0  0  0  0  0  0  0  0  0  0  0
  138.0809   78.7267  223.0881 H   0  0  0  0  0  0  0  0  0  0  0  0
  137.6861   76.3527  222.5176 H   0  0  0  0  0  0  0  0  0  0  0  0
  141.9332   75.7595  222.1547 H   0  0  0  0  0  0  0  0  0  0  0  0
  142.2896   78.1296  222.7250 H   0  0  0  0  0  0  0  0  0  0  0  0
  142.7952   78.1959  216.6993 H   0  0  0  0  0  0  0  0  0  0  0  0
  143.9519   76.0277  216.2781 H   0  0  0  0  0  0  0  0  0  0  0  0
  144.7386   73.8422  217.1437 H   0  0  0  0  0  0  0  0  0  0  0  0
  144.0074   72.8136  221.2784 H   0  0  0  0  0  0  0  0  0  0  0  0
  142.8726   75.0122  221.5753 H   0  0  0  0  0  0  0  0  0  0  0  0
  1  2  2  0
  2  3  1  0
  3  4  1  0
  4  5  1  0
  5  6  2  0
  5  7  1  0
  7  8  1  0
  8  9  1  0
  9 10  1  0
 10 11  1  0
 11 12  1  0
 12 13  2  0
 13 14  1  0
 14 15  2  0
 15 16  1  0
 16 17  1  0
 17 18  1  0
 17 19  1  0
 17 20  1  0
 15 21  1  0
 21 22  2  0
  2 23  1  0
 23 24  2  0
 24 25  1  0
 25 26  2  0
 26 27  1  0
 27 28  2  0
 28 29  1  0
 28 30  1  0
 30 31  2  0
 31 32  1  0
 32 33  2  0
 11  7  1  0
 22 12  1  0
 33 23  1  0
 32 26  1  0
  3 34  1  0
  4 35  1  0
  4 36  1  0
  8 37  1  0
  8 38  1  0
  9 39  1  0
  9 40  1  0
 10 41  1  0
 10 42  1  0
 11 43  1  1
 13 44  1  0
 14 45  1  0
 21 46  1  0
 22 47  1  0
 24 48  1  0
 25 49  1  0
 27 50  1  0
 30 51  1  0
 31 52  1  0
M  END
>  <smiles>  (3) 
O=C(NCC(=O)N1CCCC1c1ccc(OC(F)(F)F)cc1)c1ccc2cc(Cl)ccc2n1

>  <score_type>  (3) 
oracle

>  <origin>  (3) 
autodockgpu

>  <m_score__min__energy>  (3) 
-7.8600000000000003

>  <m_primary>  (3) 
energy

>  <rmsd>  (3) 
8.397206562954684

>  <m_score__min__rmsd>  (3) 
8.397206562954684

>  <meeko>  (3) 
{"free_energy": -6.21, "intermolecular_energy": -8.3, "internal_energy": -2.99, "cluster_size": 9, "cluster_id": 6, "rank_in_cluster": 5}

>  <energy>  (3) 
-7.84

>  <cluster_rmsd>  (3) 
0.57

>  <cluster>  (3) 
1

$$$$

     RDKit          3D

 52 55  0  0  0  0  0  0  0  0999 V2000
  140.3860   72.3950  220.6740 O   0  0  0  0  0  0  0  0  0  0  0  0
  140.1050   72.7280  221.8440 C   0  0  0  0  0  0  0  0  0  0  0  0
  139.8160   74.1190  222.0690 N   0  0  0  0  0  0  0  0  0  0  0  0
  139.8310   75.1160  221.0550 C   0  0  0  0  0  0  0  0  0  0  0  0
  140.7570   76.2400  221.1450 C   0  0  0  0  0  0  0  0  0  0  0  0
  141.1160   76.4860  222.3910 O   0  0  0  0  0  0  0  0  0  0  0  0
  141.3120   77.0780  220.2020 N   0  0  0  0  0  0  0  0  0  0  0  0
  140.8750   78.2250  219.4320 C   0  0  0  0  0  0  0  0  0  0  0  0
  141.2260   77.6890  218.0370 C   0  0  0  0  0  0  0  0  0  0  0  0
  142.6860   77.3930  218.2820 C   0  0  0  0  0  0  0  0  0  0  0  0
  142.7070   76.9030  219.7060 C   0  0  2  0  0  0  0  0  0  0  0  0
  143.1030   75.4830  219.6830 C   0  0  0  0  0  0  0  0  0  0  0  0
  144.0640   74.9150  220.4680 C   0  0  0  0  0  0  0  0  0  0  0  0
  144.3820   73.5660  220.3890 C   0  0  0  0  0  0  0  0  0  0  0  0
  143.7120   72.7560  219.4880 C   0  0  0  0  0  0  0  0  0  0  0  0
  143.9800   71.4000  219.3560 O   0  0  0  0  0  0  0  0  0  0  0  0
  142.9590   70.4750  219.7030 C   0  0  0  0  0  0  0  0  0  0  0  0
  142.1040   70.3750  218.6280 F   0  0  0  0  0  0  0  0  0  0  0  0
  142.3080   70.8570  220.8600 F   0  0  0  0  0  0  0  0  0  0  0  0
  143.5790   69.2550  219.9020 F   0  0  0  0  0  0  0  0  0  0  0  0
  142.7350   73.3030  218.6790 C   0  0  0  0  0  0  0  0  0  0  0  0
  142.4440   74.6450  218.7830 C   0  0  0  0  0  0  0  0  0  0  0  0
  140.0680   71.7620  222.9390 C   0  0  0  0  0  0  0  0  0  0  0  0
  139.5320   70.5230  222.6910 C   0  0  0  0  0  0  0  0  0  0  0  0
  139.5080   69.6260  223.7380 C   0  0  0  0  0  0  0  0  0  0  0  0
  140.0080   69.9710  224.9910 C   0  0  0  0  0  0  0  0  0  0  0  0
  140.0060   69.1160  226.0590 C   0  0  0  0  0  0  0  0  0  0  0  0
  140.5230   69.5280  227.2860 C   0  0  0  0  0  0  0  0  0  0  0  0
  140.5400   68.4690  228.6800 Cl  0  0  0  0  0  0  0  0  0  0  0  0
  141.0480   70.7950  227.4580 C   0  0  0  0  0  0  0  0  0  0  0  0
  141.0430   71.6430  226.3740 C   0  0  0  0  0  0  0  0  0  0  0  0
  140.5310   71.2280  225.1710 C   0  0  0  0  0  0  0  0  0  0  0  0
  140.5480   72.0830  224.1480 N   0  0  0  0  0  0  0  0  0  0  0  0
  139.5860   74.3470  223.0820 H   0  0  0  0  0  0  0  0  0  0  0  0
  140.0492   74.6010  220.1078 H   0  0  0  0  0  0  0  0  0  0  0  0
  138.8456   75.5939  221.1585 H   0  0  0  0  0  0  0  0  0  0  0  0
  139.7981   78.4179  219.5458 H   0  0  0  0  0  0  0  0  0  0  0  0
  141.3241   79.1910  219.7060 H   0  0  0  0  0  0  0  0  0  0  0  0
  140.6549   76.7837  217.7834 H   0  0  0  0  0  0  0  0  0  0  0  0
  141.0061   78.3608  217.1942 H   0  0  0  0  0  0  0  0  0  0  0  0
  143.0516   76.6173  217.5931 H   0  0  0  0  0  0  0  0  0  0  0  0
  143.3352   78.2657  218.1179 H   0  0  0  0  0  0  0  0  0  0  0  0
  143.4119   77.4416  220.3564 H   0  0  0  0  0  0  0  0  0  0  0  0
  144.6048   75.5473  221.1875 H   0  0  0  0  0  0  0  0  0  0  0  0
  145.1622   73.1429  221.0388 H   0  0  0  0  0  0  0  0  0  0  0  0
  142.1942   72.6722  217.9581 H   0  0  0  0  0  0  0  0  0  0  0  0
  141.6648   75.0711  218.1339 H   0  0  0  0  0  0  0  0  0  0  0  0
  139.1382   70.2569  221.6990 H   0  0  0  0  0  0  0  0  0  0  0  0
  139.0872   68.6219  223.5809 H   0  0  0  0  0  0  0  0  0  0  0  0
  139.5955   68.1014  225.9491 H   0  0  0  0  0  0  0  0  0  0  0  0
  141.4559   71.1147  228.4282 H   0  0  0  0  0  0  0  0  0  0  0  0
  141.4519   72.6594  226.4729 H   0  0  0  0  0  0  0  0  0  0  0  0
  1  2  2  0
  2  3  1  0
  3  4  1  0
  4  5  1  0
  5  6  2  0
  5  7  1  0
  7  8  1  0
  8  9  1  0
  9 10  1  0
 10 11  1  0
 11 12  1  0
 12 13  2  0
 13 14  1  0
 14 15  2  0
 15 16  1  0
 16 17  1  0
 17 18  1  0
 17 19  1  0
 17 20  1  0
 15 21  1  0
 21 22  2  0
  2 23  1  0
 23 24  2  0
 24 25  1  0
 25 26  2  0
 26 27  1  0
 27 28  2  0
 28 29  1  0
 28 30  1  0
 30 31  2  0
 31 32  1  0
 32 33  2  0
 11  7  1  0
 22 12  1  0
 33 23  1  0
 32 26  1  0
  3 34  1  0
  4 35  1  0
  4 36  1  0
  8 37  1  0
  8 38  1  0
  9 39  1  0
  9 40  1  0
 10 41  1  0
 10 42  1  0
 11 43  1  1
 13 44  1  0
 14 45  1  0
 21 46  1  0
 22 47  1  0
 24 48  1  0
 25 49  1  0
 27 50  1  0
 30 51  1  0
 31 52  1  0
M  END
>  <smiles>  (4) 
O=C(NCC(=O)N1CCCC1c1ccc(OC(F)(F)F)cc1)c1ccc2cc(Cl)ccc2n1

>  <score_type>  (4) 
oracle

>  <origin>  (4) 
autodockgpu

>  <m_score__min__energy>  (4) 
-7.8600000000000003

>  <m_primary>  (4) 
energy

>  <rmsd>  (4) 
2.1306967029446033

>  <m_score__min__rmsd>  (4) 
2.1306967029446033

>  <meeko>  (4) 
{"free_energy": -7.15, "intermolecular_energy": -9.24, "internal_energy": -2.36, "cluster_size": 11, "cluster_id": 2, "rank_in_cluster": 9}

>  <energy>  (4) 
-7.83

>  <cluster_rmsd>  (4) 
1.52

>  <cluster>  (4) 
1

$$$$

     RDKit          3D

 52 55  0  0  0  0  0  0  0  0999 V2000
  140.4940   72.4340  220.6920 O   0  0  0  0  0  0  0  0  0  0  0  0
  140.1550   72.7590  221.8500 C   0  0  0  0  0  0  0  0  0  0  0  0
  139.8080   74.1380  222.0590 N   0  0  0  0  0  0  0  0  0  0  0  0
  139.8270   75.1340  221.0440 C   0  0  0  0  0  0  0  0  0  0  0  0
  140.7100   76.2890  221.1660 C   0  0  0  0  0  0  0  0  0  0  0  0
  141.1170   76.4710  222.4080 O   0  0  0  0  0  0  0  0  0  0  0  0
  141.1870   77.2080  220.2560 N   0  0  0  0  0  0  0  0  0  0  0  0
  140.6580   78.3640  219.5590 C   0  0  0  0  0  0  0  0  0  0  0  0
  141.0030   77.9240  218.1300 C   0  0  0  0  0  0  0  0  0  0  0  0
  142.4850   77.7090  218.3230 C   0  0  0  0  0  0  0  0  0  0  0  0
  142.5750   77.1480  219.7180 C   0  0  2  0  0  0  0  0  0  0  0  0
  143.0580   75.7580  219.6090 C   0  0  0  0  0  0  0  0  0  0  0  0
  144.1520   75.2480  220.2440 C   0  0  0  0  0  0  0  0  0  0  0  0
  144.5440   73.9250  220.0920 C   0  0  0  0  0  0  0  0  0  0  0  0
  143.8130   73.0820  219.2710 C   0  0  0  0  0  0  0  0  0  0  0  0
  144.1490   71.7500  219.0730 O   0  0  0  0  0  0  0  0  0  0  0  0
  143.5740   70.7760  219.9320 C   0  0  0  0  0  0  0  0  0  0  0  0
  144.4040   69.6770  219.9310 F   0  0  0  0  0  0  0  0  0  0  0  0
  142.2860   70.4640  219.5450 F   0  0  0  0  0  0  0  0  0  0  0  0
  143.5560   71.3270  221.2010 F   0  0  0  0  0  0  0  0  0  0  0  0
  142.7000   73.5720  218.6140 C   0  0  0  0  0  0  0  0  0  0  0  0
  142.3380   74.8900  218.7870 C   0  0  0  0  0  0  0  0  0  0  0  0
  140.1090   71.7930  222.9450 C   0  0  0  0  0  0  0  0  0  0  0  0
  139.5860   70.5500  222.6910 C   0  0  0  0  0  0  0  0  0  0  0  0
  139.5520   69.6540  223.7380 C   0  0  0  0  0  0  0  0  0  0  0  0
  140.0320   70.0040  224.9980 C   0  0  0  0  0  0  0  0  0  0  0  0
  140.0200   69.1500  226.0670 C   0  0  0  0  0  0  0  0  0  0  0  0
  140.5170   69.5660  227.3010 C   0  0  0  0  0  0  0  0  0  0  0  0
  140.5210   68.5090  228.6960 Cl  0  0  0  0  0  0  0  0  0  0  0  0
  141.0300   70.8380  227.4790 C   0  0  0  0  0  0  0  0  0  0  0  0
  141.0350   71.6850  226.3940 C   0  0  0  0  0  0  0  0  0  0  0  0
  140.5440   71.2650  225.1840 C   0  0  0  0  0  0  0  0  0  0  0  0
  140.5690   72.1190  224.1610 N   0  0  0  0  0  0  0  0  0  0  0  0
  139.5290   74.3590  223.0620 H   0  0  0  0  0  0  0  0  0  0  0  0
  140.0979   74.6259  220.1068 H   0  0  0  0  0  0  0  0  0  0  0  0
  138.8227   75.5781  221.1096 H   0  0  0  0  0  0  0  0  0  0  0  0
  139.5747   78.4820  219.7091 H   0  0  0  0  0  0  0  0  0  0  0  0
  141.0533   79.3413  219.8732 H   0  0  0  0  0  0  0  0  0  0  0  0
  140.4825   76.9985  217.8427 H   0  0  0  0  0  0  0  0  0  0  0  0
  140.7187   78.6231  217.3297 H   0  0  0  0  0  0  0  0  0  0  0  0
  142.8790   76.9948  217.5849 H   0  0  0  0  0  0  0  0  0  0  0  0
  143.0743   78.6283  218.1899 H   0  0  0  0  0  0  0  0  0  0  0  0
  143.2624   77.6959  220.3793 H   0  0  0  0  0  0  0  0  0  0  0  0
  144.7429   75.9064  220.8978 H   0  0  0  0  0  0  0  0  0  0  0  0
  145.4314   73.5476  220.6213 H   0  0  0  0  0  0  0  0  0  0  0  0
  142.1086   72.9155  217.9589 H   0  0  0  0  0  0  0  0  0  0  0  0
  141.4513   75.2711  218.2593 H   0  0  0  0  0  0  0  0  0  0  0  0
  139.2095   70.2798  221.6934 H   0  0  0  0  0  0  0  0  0  0  0  0
  139.1395   68.6472  223.5761 H   0  0  0  0  0  0  0  0  0  0  0  0
  139.6172   68.1328  225.9523 H   0  0  0  0  0  0  0  0  0  0  0  0
  141.4209   71.1619  228.4549 H   0  0  0  0  0  0  0  0  0  0  0  0
  141.4350   72.7044  226.4978 H   0  0  0  0  0  0  0  0  0  0  0  0
  1  2  2  0
  2  3  1  0
  3  4  1  0
  4  5  1  0
  5  6  2  0
  5  7  1  0
  7  8  1  0
  8  9  1  0
  9 10  1  0
 10 11  1  0
 11 12  1  0
 12 13  2  0
 13 14  1  0
 14 15  2  0
 15 16  1  0
 16 17  1  0
 17 18  1  0
 17 19  1  0
 17 20  1  0
 15 21  1  0
 21 22  2  0
  2 23  1  0
 23 24  2  0
 24 25  1  0
 25 26  2  0
 26 27  1  0
 27 28  2  0
 28 29  1  0
 28 30  1  0
 30 31  2  0
 31 32  1  0
 32 33  2  0
 11  7  1  0
 22 12  1  0
 33 23  1  0
 32 26  1  0
  3 34  1  0
  4 35  1  0
  4 36  1  0
  8 37  1  0
  8 38  1  0
  9 39  1  0
  9 40  1  0
 10 41  1  0
 10 42  1  0
 11 43  1  1
 13 44  1  0
 14 45  1  0
 21 46  1  0
 22 47  1  0
 24 48  1  0
 25 49  1  0
 27 50  1  0
 30 51  1  0
 31 52  1  0
M  END
>  <smiles>  (5) 
O=C(NCC(=O)N1CCCC1c1ccc(OC(F)(F)F)cc1)c1ccc2cc(Cl)ccc2n1

>  <score_type>  (5) 
oracle

>  <origin>  (5) 
autodockgpu

>  <m_score__min__energy>  (5) 
-7.8600000000000003

>  <m_primary>  (5) 
energy

>  <rmsd>  (5) 
2.1376032788223056

>  <m_score__min__rmsd>  (5) 
2.1376032788223056

>  <meeko>  (5) 
{"free_energy": -7.25, "intermolecular_energy": -9.34, "internal_energy": -2.28, "cluster_size": 11, "cluster_id": 2, "rank_in_cluster": 8}

>  <energy>  (5) 
-7.81

>  <cluster_rmsd>  (5) 
0.4

>  <cluster>  (5) 
1

$$$$

     RDKit          3D

 52 55  0  0  0  0  0  0  0  0999 V2000
  139.2550   72.0610  220.6640 O   0  0  0  0  0  0  0  0  0  0  0  0
  139.4000   72.4480  221.8430 C   0  0  0  0  0  0  0  0  0  0  0  0
  139.3790   73.8690  222.0640 N   0  0  0  0  0  0  0  0  0  0  0  0
  139.2030   74.8390  221.0380 C   0  0  0  0  0  0  0  0  0  0  0  0
  140.0950   74.8550  219.8840 C   0  0  0  0  0  0  0  0  0  0  0  0
  139.5080   75.3500  218.8120 O   0  0  0  0  0  0  0  0  0  0  0  0
  141.4020   74.4560  219.7010 N   0  0  0  0  0  0  0  0  0  0  0  0
  142.1750   73.2550  219.9440 C   0  0  0  0  0  0  0  0  0  0  0  0
  143.2970   73.8910  220.7760 C   0  0  0  0  0  0  0  0  0  0  0  0
  143.7330   74.9410  219.7820 C   0  0  0  0  0  0  0  0  0  0  0  0
  142.4390   75.3670  219.1380 C   0  0  2  0  0  0  0  0  0  0  0  0
  142.1950   76.7720  219.5170 C   0  0  0  0  0  0  0  0  0  0  0  0
  142.2960   77.8460  218.6810 C   0  0  0  0  0  0  0  0  0  0  0  0
  142.0490   79.1420  219.1120 C   0  0  0  0  0  0  0  0  0  0  0  0
  141.6870   79.3710  220.4290 C   0  0  0  0  0  0  0  0  0  0  0  0
  141.4260   80.6410  220.9260 O   0  0  0  0  0  0  0  0  0  0  0  0
  141.8310   80.9400  222.2540 C   0  0  0  0  0  0  0  0  0  0  0  0
  143.1190   80.4800  222.4110 F   0  0  0  0  0  0  0  0  0  0  0  0
  140.9610   80.3950  223.1780 F   0  0  0  0  0  0  0  0  0  0  0  0
  141.8250   82.3180  222.3690 F   0  0  0  0  0  0  0  0  0  0  0  0
  141.5770   78.3020  221.2980 C   0  0  0  0  0  0  0  0  0  0  0  0
  141.8300   77.0280  220.8380 C   0  0  0  0  0  0  0  0  0  0  0  0
  139.5840   71.5140  222.9500 C   0  0  0  0  0  0  0  0  0  0  0  0
  139.1930   70.2110  222.7690 C   0  0  0  0  0  0  0  0  0  0  0  0
  139.3760   69.3450  223.8270 C   0  0  0  0  0  0  0  0  0  0  0  0
  139.9340   69.7830  225.0260 C   0  0  0  0  0  0  0  0  0  0  0  0
  140.1350   68.9630  226.1020 C   0  0  0  0  0  0  0  0  0  0  0  0
  140.6990   69.4690  227.2710 C   0  0  0  0  0  0  0  0  0  0  0  0
  140.9740   68.4570  228.6740 Cl  0  0  0  0  0  0  0  0  0  0  0  0
  141.0680   70.7970  227.3780 C   0  0  0  0  0  0  0  0  0  0  0  0
  140.8600   71.6090  226.2860 C   0  0  0  0  0  0  0  0  0  0  0  0
  140.3040   71.1010  225.1390 C   0  0  0  0  0  0  0  0  0  0  0  0
  140.1210   71.9240  224.1070 N   0  0  0  0  0  0  0  0  0  0  0  0
  139.5080   74.1430  223.0840 H   0  0  0  0  0  0  0  0  0  0  0  0
  138.1830   74.7063  220.6482 H   0  0  0  0  0  0  0  0  0  0  0  0
  139.4331   75.7869  221.5464 H   0  0  0  0  0  0  0  0  0  0  0  0
  141.6090   72.5027  220.5130 H   0  0  0  0  0  0  0  0  0  0  0  0
  142.4923   72.6952  219.0518 H   0  0  0  0  0  0  0  0  0  0  0  0
  142.9220   74.3334  221.7107 H   0  0  0  0  0  0  0  0  0  0  0  0
  144.0825   73.2059  221.1276 H   0  0  0  0  0  0  0  0  0  0  0  0
  144.2177   75.7876  220.2902 H   0  0  0  0  0  0  0  0  0  0  0  0
  144.4719   74.5677  219.0577 H   0  0  0  0  0  0  0  0  0  0  0  0
  142.4413   75.3066  218.0397 H   0  0  0  0  0  0  0  0  0  0  0  0
  142.5823   77.6792  217.6321 H   0  0  0  0  0  0  0  0  0  0  0  0
  142.1404   79.9841  218.4102 H   0  0  0  0  0  0  0  0  0  0  0  0
  141.2901   78.4667  222.3471 H   0  0  0  0  0  0  0  0  0  0  0  0
  141.7409   76.1836  221.5373 H   0  0  0  0  0  0  0  0  0  0  0  0
  138.7522   69.8715  221.8201 H   0  0  0  0  0  0  0  0  0  0  0  0
  139.0766   68.2917  223.7223 H   0  0  0  0  0  0  0  0  0  0  0  0
  139.8508   67.9019  226.0442 H   0  0  0  0  0  0  0  0  0  0  0  0
  141.5124   71.1912  228.3038 H   0  0  0  0  0  0  0  0  0  0  0  0
  141.1412   72.6714  226.3332 H   0  0  0  0  0  0  0  0  0  0  0  0
  1  2  2  0
  2  3  1  0
  3  4  1  0
  4  5  1  0
  5  6  2  0
  5  7  1  0
  7  8  1  0
  8  9  1  0
  9 10  1  0
 10 11  1  0
 11 12  1  0
 12 13  2  0
 13 14  1  0
 14 15  2  0
 15 16  1  0
 16 17  1  0
 17 18  1  0
 17 19  1  0
 17 20  1  0
 15 21  1  0
 21 22  2  0
  2 23  1  0
 23 24  2  0
 24 25  1  0
 25 26  2  0
 26 27  1  0
 27 28  2  0
 28 29  1  0
 28 30  1  0
 30 31  2  0
 31 32  1  0
 32 33  2  0
 11  7  1  0
 22 12  1  0
 33 23  1  0
 32 26  1  0
  3 34  1  0
  4 35  1  0
  4 36  1  0
  8 37  1  0
  8 38  1  0
  9 39  1  0
  9 40  1  0
 10 41  1  0
 10 42  1  0
 11 43  1  6
 13 44  1  0
 14 45  1  0
 21 46  1  0
 22 47  1  0
 24 48  1  0
 25 49  1  0
 27 50  1  0
 30 51  1  0
 31 52  1  0
M  END
>  <smiles>  (6) 
O=C(NCC(=O)N1CCCC1c1ccc(OC(F)(F)F)cc1)c1ccc2cc(Cl)ccc2n1

>  <score_type>  (6) 
oracle

>  <origin>  (6) 
autodockgpu

>  <m_score__min__energy>  (6) 
-7.8600000000000003

>  <m_primary>  (6) 
energy

>  <rmsd>  (6) 
2.5000382269409998

>  <m_score__min__rmsd>  (6) 
2.5000382269409998

>  <meeko>  (6) 
{"free_energy": -7.47, "intermolecular_energy": -9.56, "internal_energy": -1.78, "cluster_size": 23, "cluster_id": 1, "rank_in_cluster": 19}

>  <energy>  (6) 
-7.79

>  <cluster_rmsd>  (6) 
0.51

>  <cluster>  (6) 
1

$$$$

     RDKit          3D

 52 55  0  0  0  0  0  0  0  0999 V2000
  138.8990   71.7650  220.4070 O   0  0  0  0  0  0  0  0  0  0  0  0
  138.7530   72.1900  221.5720 C   0  0  0  0  0  0  0  0  0  0  0  0
  138.2870   73.5430  221.7130 N   0  0  0  0  0  0  0  0  0  0  0  0
  137.9860   74.4070  220.6250 C   0  0  0  0  0  0  0  0  0  0  0  0
  138.4240   75.7980  220.6500 C   0  0  0  0  0  0  0  0  0  0  0  0
  138.2880   76.3810  219.4750 O   0  0  0  0  0  0  0  0  0  0  0  0
  138.9460   76.6010  221.6420 N   0  0  0  0  0  0  0  0  0  0  0  0
  138.5870   77.8560  222.2720 C   0  0  0  0  0  0  0  0  0  0  0  0
  139.9140   78.5920  222.0470 C   0  0  0  0  0  0  0  0  0  0  0  0
  140.8310   77.5920  222.7100 C   0  0  0  0  0  0  0  0  0  0  0  0
  140.2130   76.2650  222.3520 C   0  0  2  0  0  0  0  0  0  0  0  0
  141.1600   75.5560  221.4720 C   0  0  0  0  0  0  0  0  0  0  0  0
  141.4230   74.2180  221.5060 C   0  0  0  0  0  0  0  0  0  0  0  0
  142.3300   73.6200  220.6420 C   0  0  0  0  0  0  0  0  0  0  0  0
  142.9990   74.3940  219.7080 C   0  0  0  0  0  0  0  0  0  0  0  0
  143.9190   73.8620  218.8140 O   0  0  0  0  0  0  0  0  0  0  0  0
  145.1120   73.2940  219.3340 C   0  0  0  0  0  0  0  0  0  0  0  0
  146.0710   73.3620  218.3480 F   0  0  0  0  0  0  0  0  0  0  0  0
  144.9020   72.0030  219.7760 F   0  0  0  0  0  0  0  0  0  0  0  0
  145.5000   74.0890  220.3980 F   0  0  0  0  0  0  0  0  0  0  0  0
  142.7540   75.7520  219.6500 C   0  0  0  0  0  0  0  0  0  0  0  0
  141.8470   76.3130  220.5220 C   0  0  0  0  0  0  0  0  0  0  0  0
  139.0390   71.3630  222.7410 C   0  0  0  0  0  0  0  0  0  0  0  0
  138.5680   70.0740  222.7530 C   0  0  0  0  0  0  0  0  0  0  0  0
  138.8500   69.3100  223.8660 C   0  0  0  0  0  0  0  0  0  0  0  0
  139.5820   69.8330  224.9300 C   0  0  0  0  0  0  0  0  0  0  0  0
  139.8870   69.1150  226.0540 C   0  0  0  0  0  0  0  0  0  0  0  0
  140.6240   69.7010  227.0800 C   0  0  0  0  0  0  0  0  0  0  0  0
  141.0360   68.8220  228.5370 Cl  0  0  0  0  0  0  0  0  0  0  0  0
  141.0650   71.0090  226.9950 C   0  0  0  0  0  0  0  0  0  0  0  0
  140.7510   71.7180  225.8580 C   0  0  0  0  0  0  0  0  0  0  0  0
  140.0250   71.1310  224.8530 C   0  0  0  0  0  0  0  0  0  0  0  0
  139.7440   71.8550  223.7690 N   0  0  0  0  0  0  0  0  0  0  0  0
  138.1820   73.8530  222.7260 H   0  0  0  0  0  0  0  0  0  0  0  0
  138.4291   73.9516  219.7271 H   0  0  0  0  0  0  0  0  0  0  0  0
  136.8898   74.4886  220.6655 H   0  0  0  0  0  0  0  0  0  0  0  0
  137.7447   78.3507  221.7662 H   0  0  0  0  0  0  0  0  0  0  0  0
  138.2398   77.7923  223.3138 H   0  0  0  0  0  0  0  0  0  0  0  0
  140.1421   78.7205  220.9786 H   0  0  0  0  0  0  0  0  0  0  0  0
  139.9646   79.6205  222.4338 H   0  0  0  0  0  0  0  0  0  0  0  0
  141.8535   77.6707  222.3122 H   0  0  0  0  0  0  0  0  0  0  0  0
  140.9227   77.7455  223.7954 H   0  0  0  0  0  0  0  0  0  0  0  0
  140.0035   75.6181  223.2167 H   0  0  0  0  0  0  0  0  0  0  0  0
  140.8987   73.5918  222.2429 H   0  0  0  0  0  0  0  0  0  0  0  0
  142.5165   72.5374  220.6987 H   0  0  0  0  0  0  0  0  0  0  0  0
  143.2782   76.3797  218.9144 H   0  0  0  0  0  0  0  0  0  0  0  0
  141.6577   77.3952  220.4676 H   0  0  0  0  0  0  0  0  0  0  0  0
  137.9898   69.6673  221.9102 H   0  0  0  0  0  0  0  0  0  0  0  0
  138.4914   68.2712  223.9145 H   0  0  0  0  0  0  0  0  0  0  0  0
  139.5492   68.0723  226.1475 H   0  0  0  0  0  0  0  0  0  0  0  0
  141.6469   71.4671  227.8084 H   0  0  0  0  0  0  0  0  0  0  0  0
  141.0841   72.7612  225.7546 H   0  0  0  0  0  0  0  0  0  0  0  0
  1  2  2  0
  2  3  1  0
  3  4  1  0
  4  5  1  0
  5  6  2  0
  5  7  1  0
  7  8  1  0
  8  9  1  0
  9 10  1  0
 10 11  1  0
 11 12  1  0
 12 13  2  0
 13 14  1  0
 14 15  2  0
 15 16  1  0
 16 17  1  0
 17 18  1  0
 17 19  1  0
 17 20  1  0
 15 21  1  0
 21 22  2  0
  2 23  1  0
 23 24  2  0
 24 25  1  0
 25 26  2  0
 26 27  1  0
 27 28  2  0
 28 29  1  0
 28 30  1  0
 30 31  2  0
 31 32  1  0
 32 33  2  0
 11  7  1  0
 22 12  1  0
 33 23  1  0
 32 26  1  0
  3 34  1  0
  4 35  1  0
  4 36  1  0
  8 37  1  0
  8 38  1  0
  9 39  1  0
  9 40  1  0
 10 41  1  0
 10 42  1  0
 11 43  1  1
 13 44  1  0
 14 45  1  0
 21 46  1  0
 22 47  1  0
 24 48  1  0
 25 49  1  0
 27 50  1  0
 30 51  1  0
 31 52  1  0
M  END
>  <smiles>  (7) 
O=C(NCC(=O)N1CCCC1c1ccc(OC(F)(F)F)cc1)c1ccc2cc(Cl)ccc2n1

>  <score_type>  (7) 
oracle

>  <origin>  (7) 
autodockgpu

>  <m_score__min__energy>  (7) 
-7.8600000000000003

>  <m_primary>  (7) 
energy

>  <rmsd>  (7) 
2.772755596587873

>  <m_score__min__rmsd>  (7) 
2.772755596587873

>  <meeko>  (7) 
{"free_energy": -7.07, "intermolecular_energy": -9.15, "internal_energy": -2.1, "cluster_size": 4, "cluster_id": 4, "rank_in_cluster": 4}

>  <energy>  (7) 
-7.79

>  <cluster_rmsd>  (7) 
1.54

>  <cluster>  (7) 
1

$$$$

     RDKit          3D

 52 55  0  0  0  0  0  0  0  0999 V2000
  139.1200   71.9110  220.6630 O   0  0  0  0  0  0  0  0  0  0  0  0
  139.1860   72.3210  221.8410 C   0  0  0  0  0  0  0  0  0  0  0  0
  139.0290   73.7360  222.0420 N   0  0  0  0  0  0  0  0  0  0  0  0
  138.8060   74.6760  220.9990 C   0  0  0  0  0  0  0  0  0  0  0  0
  139.6400   74.6540  219.8020 C   0  0  0  0  0  0  0  0  0  0  0  0
  138.9420   74.8920  218.7090 O   0  0  0  0  0  0  0  0  0  0  0  0
  140.9850   74.4330  219.5980 N   0  0  0  0  0  0  0  0  0  0  0  0
  141.8290   73.2870  219.3240 C   0  0  0  0  0  0  0  0  0  0  0  0
  142.8240   73.4760  220.4770 C   0  0  0  0  0  0  0  0  0  0  0  0
  143.2550   74.8880  220.1600 C   0  0  0  0  0  0  0  0  0  0  0  0
  141.9900   75.5320  219.6570 C   0  0  2  0  0  0  0  0  0  0  0  0
  141.6030   76.5720  220.6290 C   0  0  0  0  0  0  0  0  0  0  0  0
  141.1210   76.3430  221.8840 C   0  0  0  0  0  0  0  0  0  0  0  0
  140.7780   77.3770  222.7450 C   0  0  0  0  0  0  0  0  0  0  0  0
  140.9240   78.6900  222.3310 C   0  0  0  0  0  0  0  0  0  0  0  0
  140.6010   79.7720  223.1400 O   0  0  0  0  0  0  0  0  0  0  0  0
  139.2530   80.2190  223.1580 C   0  0  0  0  0  0  0  0  0  0  0  0
  138.5140   79.3460  222.3900 F   0  0  0  0  0  0  0  0  0  0  0  0
  139.1510   81.5240  222.7180 F   0  0  0  0  0  0  0  0  0  0  0  0
  138.8250   80.1380  224.4710 F   0  0  0  0  0  0  0  0  0  0  0  0
  141.4100   78.9530  221.0650 C   0  0  0  0  0  0  0  0  0  0  0  0
  141.7410   77.9040  220.2360 C   0  0  0  0  0  0  0  0  0  0  0  0
  139.4100   71.4170  222.9660 C   0  0  0  0  0  0  0  0  0  0  0  0
  139.0190   70.1090  222.8330 C   0  0  0  0  0  0  0  0  0  0  0  0
  139.2410   69.2720  223.9070 C   0  0  0  0  0  0  0  0  0  0  0  0
  139.8360   69.7440  225.0740 C   0  0  0  0  0  0  0  0  0  0  0  0
  140.0770   68.9540  226.1650 C   0  0  0  0  0  0  0  0  0  0  0  0
  140.6770   69.4930  227.3010 C   0  0  0  0  0  0  0  0  0  0  0  0
  141.0030   68.5200  228.7200 Cl  0  0  0  0  0  0  0  0  0  0  0  0
  141.0440   70.8250  227.3590 C   0  0  0  0  0  0  0  0  0  0  0  0
  140.7960   71.6070  226.2540 C   0  0  0  0  0  0  0  0  0  0  0  0
  140.2040   71.0660  225.1400 C   0  0  0  0  0  0  0  0  0  0  0  0
  139.9830   71.8610  224.0930 N   0  0  0  0  0  0  0  0  0  0  0  0
  139.0950   74.0300  223.0630 H   0  0  0  0  0  0  0  0  0  0  0  0
  137.7674   74.5372  220.6641 H   0  0  0  0  0  0  0  0  0  0  0  0
  139.0643   75.6371  221.4675 H   0  0  0  0  0  0  0  0  0  0  0  0
  141.2795   72.3371  219.3990 H   0  0  0  0  0  0  0  0  0  0  0  0
  142.2629   73.2367  218.3145 H   0  0  0  0  0  0  0  0  0  0  0  0
  142.3390   73.4003  221.4614 H   0  0  0  0  0  0  0  0  0  0  0  0
  143.6302   72.7306  220.5435 H   0  0  0  0  0  0  0  0  0  0  0  0
  143.6256   75.3985  221.0611 H   0  0  0  0  0  0  0  0  0  0  0  0
  144.0794   74.9334  219.4332 H   0  0  0  0  0  0  0  0  0  0  0  0
  142.0901   76.0081  218.6704 H   0  0  0  0  0  0  0  0  0  0  0  0
  140.9999   75.3044  222.2257 H   0  0  0  0  0  0  0  0  0  0  0  0
  140.3923   77.1540  223.7507 H   0  0  0  0  0  0  0  0  0  0  0  0
  141.5316   79.9910  220.7219 H   0  0  0  0  0  0  0  0  0  0  0  0
  142.1273   78.1236  219.2298 H   0  0  0  0  0  0  0  0  0  0  0  0
  138.5482   69.7428  221.9088 H   0  0  0  0  0  0  0  0  0  0  0  0
  138.9433   68.2152  223.8403 H   0  0  0  0  0  0  0  0  0  0  0  0
  139.7963   67.8906  226.1450 H   0  0  0  0  0  0  0  0  0  0  0  0
  141.5182   71.2454  228.2581 H   0  0  0  0  0  0  0  0  0  0  0  0
  141.0737   72.6713  226.2636 H   0  0  0  0  0  0  0  0  0  0  0  0
  1  2  2  0
  2  3  1  0
  3  4  1  0
  4  5  1  0
  5  6  2  0
  5  7  1  0
  7  8  1  0
  8  9  1  0
  9 10  1  0
 10 11  1  0
 11 12  1  0
 12 13  2  0
 13 14  1  0
 14 15  2  0
 15 16  1  0
 16 17  1  0
 17 18  1  0
 17 19  1  0
 17 20  1  0
 15 21  1  0
 21 22  2  0
  2 23  1  0
 23 24  2  0
 24 25  1  0
 25 26  2  0
 26 27  1  0
 27 28  2  0
 28 29  1  0
 28 30  1  0
 30 31  2  0
 31 32  1  0
 32 33  2  0
 11  7  1  0
 22 12  1  0
 33 23  1  0
 32 26  1  0
  3 34  1  0
  4 35  1  0
  4 36  1  0
  8 37  1  0
  8 38  1  0
  9 39  1  0
  9 40  1  0
 10 41  1  0
 10 42  1  0
 11 43  1  6
 13 44  1  0
 14 45  1  0
 21 46  1  0
 22 47  1  0
 24 48  1  0
 25 49  1  0
 27 50  1  0
 30 51  1  0
 31 52  1  0
M  END
>  <smiles>  (8) 
O=C(NCC(=O)N1CCCC1c1ccc(OC(F)(F)F)cc1)c1ccc2cc(Cl)ccc2n1

>  <score_type>  (8) 
oracle

>  <origin>  (8) 
autodockgpu

>  <m_score__min__energy>  (8) 
-7.8600000000000003

>  <m_primary>  (8) 
energy

>  <rmsd>  (8) 
2.2990691214628933

>  <m_score__min__rmsd>  (8) 
2.2990691214628933

>  <meeko>  (8) 
{"free_energy": -7.4, "intermolecular_energy": -9.48, "internal_energy": -1.83, "cluster_size": 23, "cluster_id": 1, "rank_in_cluster": 21}

>  <energy>  (8) 
-7.79

>  <cluster_rmsd>  (8) 
1.56

>  <cluster>  (8) 
1

$$$$

     RDKit          3D

 52 55  0  0  0  0  0  0  0  0999 V2000
  141.0890   72.4580  220.8280 O   0  0  0  0  0  0  0  0  0  0  0  0
  140.4200   72.7180  221.8500 C   0  0  0  0  0  0  0  0  0  0  0  0
  139.7870   74.0090  221.8990 N   0  0  0  0  0  0  0  0  0  0  0  0
  139.8760   74.9860  220.8690 C   0  0  0  0  0  0  0  0  0  0  0  0
  140.8820   76.0390  220.9440 C   0  0  0  0  0  0  0  0  0  0  0  0
  141.4150   76.1300  222.1470 O   0  0  0  0  0  0  0  0  0  0  0  0
  141.3680   76.9420  220.0220 N   0  0  0  0  0  0  0  0  0  0  0  0
  140.8330   78.0490  219.2570 C   0  0  0  0  0  0  0  0  0  0  0  0
  141.2610   77.5710  217.8630 C   0  0  0  0  0  0  0  0  0  0  0  0
  142.7390   77.4180  218.1320 C   0  0  0  0  0  0  0  0  0  0  0  0
  142.7820   76.9130  219.5510 C   0  0  2  0  0  0  0  0  0  0  0  0
  143.3180   75.5390  219.5190 C   0  0  0  0  0  0  0  0  0  0  0  0
  144.1940   75.0100  220.4210 C   0  0  0  0  0  0  0  0  0  0  0  0
  144.6550   73.7040  220.3250 C   0  0  0  0  0  0  0  0  0  0  0  0
  144.2220   72.8990  219.2840 C   0  0  0  0  0  0  0  0  0  0  0  0
  144.6430   71.5850  219.1270 O   0  0  0  0  0  0  0  0  0  0  0  0
  143.7960   70.5460  219.5970 C   0  0  0  0  0  0  0  0  0  0  0  0
  144.5760   69.4280  219.7900 F   0  0  0  0  0  0  0  0  0  0  0  0
  142.7530   70.3150  218.7220 F   0  0  0  0  0  0  0  0  0  0  0  0
  143.2950   70.9640  220.8160 F   0  0  0  0  0  0  0  0  0  0  0  0
  143.3360   73.4090  218.3540 C   0  0  0  0  0  0  0  0  0  0  0  0
  142.8980   74.7090  218.4800 C   0  0  0  0  0  0  0  0  0  0  0  0
  140.2810   71.7660  222.9490 C   0  0  0  0  0  0  0  0  0  0  0  0
  139.6750   70.5630  222.6900 C   0  0  0  0  0  0  0  0  0  0  0  0
  139.5530   69.6780  223.7410 C   0  0  0  0  0  0  0  0  0  0  0  0
  140.0300   70.0010  225.0100 C   0  0  0  0  0  0  0  0  0  0  0  0
  139.9330   69.1580  226.0830 C   0  0  0  0  0  0  0  0  0  0  0  0
  140.4310   69.5450  227.3250 C   0  0  0  0  0  0  0  0  0  0  0  0
  140.3290   68.5000  228.7260 Cl  0  0  0  0  0  0  0  0  0  0  0  0
  141.0310   70.7780  227.5080 C   0  0  0  0  0  0  0  0  0  0  0  0
  141.1210   71.6150  226.4190 C   0  0  0  0  0  0  0  0  0  0  0  0
  140.6270   71.2230  225.2000 C   0  0  0  0  0  0  0  0  0  0  0  0
  140.7360   72.0660  224.1730 N   0  0  0  0  0  0  0  0  0  0  0  0
  139.2330   74.1770  222.7910 H   0  0  0  0  0  0  0  0  0  0  0  0
  140.0565   74.4415  219.9304 H   0  0  0  0  0  0  0  0  0  0  0  0
  138.9283   75.5366  220.9621 H   0  0  0  0  0  0  0  0  0  0  0  0
  139.7402   78.1316  219.3519 H   0  0  0  0  0  0  0  0  0  0  0  0
  141.1785   79.0511  219.5512 H   0  0  0  0  0  0  0  0  0  0  0  0
  140.7877   76.6172  217.5870 H   0  0  0  0  0  0  0  0  0  0  0  0
  140.9906   78.2300  217.0248 H   0  0  0  0  0  0  0  0  0  0  0  0
  143.1922   76.6917  217.4413 H   0  0  0  0  0  0  0  0  0  0  0  0
  143.3016   78.3526  217.9902 H   0  0  0  0  0  0  0  0  0  0  0  0
  143.4175   77.5102  220.2214 H   0  0  0  0  0  0  0  0  0  0  0  0
  144.5467   75.6389  221.2517 H   0  0  0  0  0  0  0  0  0  0  0  0
  145.3604   73.3104  221.0716 H   0  0  0  0  0  0  0  0  0  0  0  0
  142.9839   72.7828  217.5210 H   0  0  0  0  0  0  0  0  0  0  0  0
  142.1925   75.1061  217.7353 H   0  0  0  0  0  0  0  0  0  0  0  0
  139.3017   70.3143  221.6856 H   0  0  0  0  0  0  0  0  0  0  0  0
  139.0720   68.7028  223.5750 H   0  0  0  0  0  0  0  0  0  0  0  0
  139.4604   68.1718  225.9647 H   0  0  0  0  0  0  0  0  0  0  0  0
  141.4229   71.0793  228.4906 H   0  0  0  0  0  0  0  0  0  0  0  0
  141.5914   72.6035  226.5263 H   0  0  0  0  0  0  0  0  0  0  0  0
  1  2  2  0
  2  3  1  0
  3  4  1  0
  4  5  1  0
  5  6  2  0
  5  7  1  0
  7  8  1  0
  8  9  1  0
  9 10  1  0
 10 11  1  0
 11 12  1  0
 12 13  2  0
 13 14  1  0
 14 15  2  0
 15 16  1  0
 16 17  1  0
 17 18  1  0
 17 19  1  0
 17 20  1  0
 15 21  1  0
 21 22  2  0
  2 23  1  0
 23 24  2  0
 24 25  1  0
 25 26  2  0
 26 27  1  0
 27 28  2  0
 28 29  1  0
 28 30  1  0
 30 31  2  0
 31 32  1  0
 32 33  2  0
 11  7  1  0
 22 12  1  0
 33 23  1  0
 32 26  1  0
  3 34  1  0
  4 35  1  0
  4 36  1  0
  8 37  1  0
  8 38  1  0
  9 39  1  0
  9 40  1  0
 10 41  1  0
 10 42  1  0
 11 43  1  1
 13 44  1  0
 14 45  1  0
 21 46  1  0
 22 47  1  0
 24 48  1  0
 25 49  1  0
 27 50  1  0
 30 51  1  0
 31 52  1  0
M  END
>  <smiles>  (9) 
O=C(NCC(=O)N1CCCC1c1ccc(OC(F)(F)F)cc1)c1ccc2cc(Cl)ccc2n1

>  <score_type>  (9) 
oracle

>  <origin>  (9) 
autodockgpu

>  <m_score__min__energy>  (9) 
-7.8600000000000003

>  <m_primary>  (9) 
energy

>  <rmsd>  (9) 
2.1193729296615427

>  <m_score__min__rmsd>  (9) 
2.1193729296615427

>  <meeko>  (9) 
{"free_energy": -7.3, "intermolecular_energy": -9.39, "internal_energy": -2.14, "cluster_size": 11, "cluster_id": 2, "rank_in_cluster": 6}

>  <energy>  (9) 
-7.78

>  <cluster_rmsd>  (9) 
0.25

>  <cluster>  (9) 
1

$$$$

     RDKit          3D

 52 55  0  0  0  0  0  0  0  0999 V2000
  139.5870   73.7850  222.3580 O   0  0  0  0  0  0  0  0  0  0  0  0
  139.7620   72.5730  222.1140 C   0  0  0  0  0  0  0  0  0  0  0  0
  139.8770   72.2020  220.7290 N   0  0  0  0  0  0  0  0  0  0  0  0
  139.8050   73.1180  219.6440 C   0  0  0  0  0  0  0  0  0  0  0  0
  140.9950   73.4120  218.8520 C   0  0  0  0  0  0  0  0  0  0  0  0
  140.6910   73.9090  217.6690 O   0  0  0  0  0  0  0  0  0  0  0  0
  142.3440   73.2680  219.0950 N   0  0  0  0  0  0  0  0  0  0  0  0
  143.2860   72.1690  219.1620 C   0  0  0  0  0  0  0  0  0  0  0  0
  143.8520   72.4590  220.5580 C   0  0  0  0  0  0  0  0  0  0  0  0
  144.2930   73.8840  220.3200 C   0  0  0  0  0  0  0  0  0  0  0  0
  143.2230   74.4300  219.4100 C   0  0  2  0  0  0  0  0  0  0  0  0
  142.4980   75.4770  220.1540 C   0  0  0  0  0  0  0  0  0  0  0  0
  141.7180   75.2700  221.2540 C   0  0  0  0  0  0  0  0  0  0  0  0
  141.0650   76.3080  221.9040 C   0  0  0  0  0  0  0  0  0  0  0  0
  141.1980   77.6040  221.4320 C   0  0  0  0  0  0  0  0  0  0  0  0
  140.5730   78.6890  222.0320 O   0  0  0  0  0  0  0  0  0  0  0  0
  141.2330   79.3320  223.1130 C   0  0  0  0  0  0  0  0  0  0  0  0
  142.2180   80.1350  222.5810 F   0  0  0  0  0  0  0  0  0  0  0  0
  141.7320   78.4130  224.0150 F   0  0  0  0  0  0  0  0  0  0  0  0
  140.2890   80.1280  223.7360 F   0  0  0  0  0  0  0  0  0  0  0  0
  141.9810   77.8440  220.3190 C   0  0  0  0  0  0  0  0  0  0  0  0
  142.6160   76.7900  219.6990 C   0  0  0  0  0  0  0  0  0  0  0  0
  139.8480   71.5720  223.1740 C   0  0  0  0  0  0  0  0  0  0  0  0
  139.4110   70.3000  222.9010 C   0  0  0  0  0  0  0  0  0  0  0  0
  139.5020   69.3710  223.9160 C   0  0  0  0  0  0  0  0  0  0  0  0
  140.0170   69.7180  225.1630 C   0  0  0  0  0  0  0  0  0  0  0  0
  140.1260   68.8320  226.2000 C   0  0  0  0  0  0  0  0  0  0  0  0
  140.6510   69.2470  227.4220 C   0  0  0  0  0  0  0  0  0  0  0  0
  140.8100   68.1490  228.7770 Cl  0  0  0  0  0  0  0  0  0  0  0  0
  141.0720   70.5490  227.6220 C   0  0  0  0  0  0  0  0  0  0  0  0
  140.9550   71.4280  226.5690 C   0  0  0  0  0  0  0  0  0  0  0  0
  140.4370   71.0090  225.3690 C   0  0  0  0  0  0  0  0  0  0  0  0
  140.3420   71.8940  224.3780 N   0  0  0  0  0  0  0  0  0  0  0  0
  140.0240   71.1590  220.5800 H   0  0  0  0  0  0  0  0  0  0  0  0
  139.0500   72.7249  218.9472 H   0  0  0  0  0  0  0  0  0  0  0  0
  139.5897   74.0766  220.1387 H   0  0  0  0  0  0  0  0  0  0  0  0
  142.7882   71.1895  219.1093 H   0  0  0  0  0  0  0  0  0  0  0  0
  144.0205   72.1119  218.3452 H   0  0  0  0  0  0  0  0  0  0  0  0
  143.0833   72.3870  221.3415 H   0  0  0  0  0  0  0  0  0  0  0  0
  144.6302   71.7680  220.9143 H   0  0  0  0  0  0  0  0  0  0  0  0
  144.3326   74.4472  221.2641 H   0  0  0  0  0  0  0  0  0  0  0  0
  145.3026   73.9562  219.8894 H   0  0  0  0  0  0  0  0  0  0  0  0
  143.6073   74.8772  218.4814 H   0  0  0  0  0  0  0  0  0  0  0  0
  141.6027   74.2459  221.6387 H   0  0  0  0  0  0  0  0  0  0  0  0
  140.4451   76.1029  222.7893 H   0  0  0  0  0  0  0  0  0  0  0  0
  142.0963   78.8670  219.9316 H   0  0  0  0  0  0  0  0  0  0  0  0
  143.2378   76.9912  218.8142 H   0  0  0  0  0  0  0  0  0  0  0  0
  139.0052   70.0328  221.9141 H   0  0  0  0  0  0  0  0  0  0  0  0
  139.1626   68.3399  223.7382 H   0  0  0  0  0  0  0  0  0  0  0  0
  139.7985   67.7901  226.0686 H   0  0  0  0  0  0  0  0  0  0  0  0
  141.4860   70.8711  228.5889 H   0  0  0  0  0  0  0  0  0  0  0  0
  141.2786   72.4723  226.6900 H   0  0  0  0  0  0  0  0  0  0  0  0
  1  2  2  0
  2  3  1  0
  3  4  1  0
  4  5  1  0
  5  6  2  0
  5  7  1  0
  7  8  1  0
  8  9  1  0
  9 10  1  0
 10 11  1  0
 11 12  1  0
 12 13  2  0
 13 14  1  0
 14 15  2  0
 15 16  1  0
 16 17  1  0
 17 18  1  0
 17 19  1  0
 17 20  1  0
 15 21  1  0
 21 22  2  0
  2 23  1  0
 23 24  2  0
 24 25  1  0
 25 26  2  0
 26 27  1  0
 27 28  2  0
 28 29  1  0
 28 30  1  0
 30 31  2  0
 31 32  1  0
 32 33  2  0
 11  7  1  0
 22 12  1  0
 33 23  1  0
 32 26  1  0
  3 34  1  0
  4 35  1  0
  4 36  1  0
  8 37  1  0
  8 38  1  0
  9 39  1  0
  9 40  1  0
 10 41  1  0
 10 42  1  0
 11 43  1  6
 13 44  1  0
 14 45  1  0
 21 46  1  0
 22 47  1  0
 24 48  1  0
 25 49  1  0
 27 50  1  0
 30 51  1  0
 31 52  1  0
M  END
>  <smiles>  (10) 
O=C(NCC(=O)N1CCCC1c1ccc(OC(F)(F)F)cc1)c1ccc2cc(Cl)ccc2n1

>  <score_type>  (10) 
oracle

>  <origin>  (10) 
autodockgpu

>  <m_score__min__energy>  (10) 
-7.8600000000000003

>  <m_primary>  (10) 
energy

>  <rmsd>  (10) 
3.217036141459309

>  <m_score__min__rmsd>  (10) 
3.217036141459309

>  <meeko>  (10) 
{"free_energy": -7.85, "intermolecular_energy": -9.93, "internal_energy": -1.75, "cluster_size": 23, "cluster_id": 1, "rank_in_cluster": 2}

>  <energy>  (10) 
-7.77

>  <cluster_rmsd>  (10) 
0.44

>  <cluster>  (10) 
1

$$$$

     RDKit          3D

 52 55  0  0  0  0  0  0  0  0999 V2000
  138.6440   71.5250  221.1300 O   0  0  0  0  0  0  0  0  0  0  0  0
  139.0840   71.9280  222.2280 C   0  0  0  0  0  0  0  0  0  0  0  0
  139.3250   73.3400  222.3490 N   0  0  0  0  0  0  0  0  0  0  0  0
  139.0960   74.2860  221.3120 C   0  0  0  0  0  0  0  0  0  0  0  0
  140.1810   75.1450  220.8510 C   0  0  0  0  0  0  0  0  0  0  0  0
  141.0550   75.3950  221.8070 O   0  0  0  0  0  0  0  0  0  0  0  0
  140.4600   75.7370  219.6370 N   0  0  0  0  0  0  0  0  0  0  0  0
  140.9860   75.3060  218.3580 C   0  0  0  0  0  0  0  0  0  0  0  0
  142.1260   76.3270  218.2430 C   0  0  0  0  0  0  0  0  0  0  0  0
  141.3040   77.5850  218.3930 C   0  0  0  0  0  0  0  0  0  0  0  0
  140.2500   77.1920  219.3950 C   0  0  2  0  0  0  0  0  0  0  0  0
  140.4790   77.9870  220.6170 C   0  0  0  0  0  0  0  0  0  0  0  0
  139.5050   78.4770  221.4370 C   0  0  0  0  0  0  0  0  0  0  0  0
  139.8000   79.2180  222.5730 C   0  0  0  0  0  0  0  0  0  0  0  0
  141.1210   79.4780  222.8990 C   0  0  0  0  0  0  0  0  0  0  0  0
  141.4870   80.2120  224.0190 O   0  0  0  0  0  0  0  0  0  0  0  0
  142.4320   81.2600  223.8580 C   0  0  0  0  0  0  0  0  0  0  0  0
  142.0710   81.9780  222.7400 F   0  0  0  0  0  0  0  0  0  0  0  0
  143.7190   80.7660  223.7740 F   0  0  0  0  0  0  0  0  0  0  0  0
  142.3190   82.0710  224.9730 F   0  0  0  0  0  0  0  0  0  0  0  0
  142.1290   78.9950  222.0870 C   0  0  0  0  0  0  0  0  0  0  0  0
  141.8010   78.2620  220.9660 C   0  0  0  0  0  0  0  0  0  0  0  0
  139.3430   71.0180  223.3410 C   0  0  0  0  0  0  0  0  0  0  0  0
  138.9620   69.7070  223.2070 C   0  0  0  0  0  0  0  0  0  0  0  0
  139.2170   68.8650  224.2690 C   0  0  0  0  0  0  0  0  0  0  0  0
  139.8350   69.3340  225.4260 C   0  0  0  0  0  0  0  0  0  0  0  0
  140.1080   68.5380  226.5050 C   0  0  0  0  0  0  0  0  0  0  0  0
  140.7300   69.0750  227.6300 C   0  0  0  0  0  0  0  0  0  0  0  0
  141.0990   68.0950  229.0340 Cl  0  0  0  0  0  0  0  0  0  0  0  0
  141.0860   70.4100  227.6900 C   0  0  0  0  0  0  0  0  0  0  0  0
  140.8040   71.1970  226.5970 C   0  0  0  0  0  0  0  0  0  0  0  0
  140.1920   70.6590  225.4930 C   0  0  0  0  0  0  0  0  0  0  0  0
  139.9390   71.4590  224.4580 N   0  0  0  0  0  0  0  0  0  0  0  0
  139.7000   73.6270  223.3030 H   0  0  0  0  0  0  0  0  0  0  0  0
  138.7476   73.7183  220.4366 H   0  0  0  0  0  0  0  0  0  0  0  0
  138.3915   74.9955  221.7705 H   0  0  0  0  0  0  0  0  0  0  0  0
  141.3552   74.2702  218.3867 H   0  0  0  0  0  0  0  0  0  0  0  0
  140.2700   75.2848  217.5232 H   0  0  0  0  0  0  0  0  0  0  0  0
  142.8668   76.2157  219.0485 H   0  0  0  0  0  0  0  0  0  0  0  0
  142.7415   76.2602  217.3338 H   0  0  0  0  0  0  0  0  0  0  0  0
  141.9187   78.4146  218.7724 H   0  0  0  0  0  0  0  0  0  0  0  0
  140.8823   77.9401  217.4411 H   0  0  0  0  0  0  0  0  0  0  0  0
  139.2190   77.3753  219.0582 H   0  0  0  0  0  0  0  0  0  0  0  0
  138.4517   78.2784  221.1899 H   0  0  0  0  0  0  0  0  0  0  0  0
  138.9885   79.5971  223.2115 H   0  0  0  0  0  0  0  0  0  0  0  0
  143.1828   79.1932  222.3323 H   0  0  0  0  0  0  0  0  0  0  0  0
  142.6098   77.8811  220.3251 H   0  0  0  0  0  0  0  0  0  0  0  0
  138.4737   69.3427  222.2911 H   0  0  0  0  0  0  0  0  0  0  0  0
  138.9277   67.8059  224.2014 H   0  0  0  0  0  0  0  0  0  0  0  0
  139.8359   67.4724  226.4841 H   0  0  0  0  0  0  0  0  0  0  0  0
  141.5776   70.8283  228.5807 H   0  0  0  0  0  0  0  0  0  0  0  0
  141.0709   72.2641  226.6084 H   0  0  0  0  0  0  0  0  0  0  0  0
  1  2  2  0
  2  3  1  0
  3  4  1  0
  4  5  1  0
  5  6  2  0
  5  7  1  0
  7  8  1  0
  8  9  1  0
  9 10  1  0
 10 11  1  0
 11 12  1  0
 12 13  2  0
 13 14  1  0
 14 15  2  0
 15 16  1  0
 16 17  1  0
 17 18  1  0
 17 19  1  0
 17 20  1  0
 15 21  1  0
 21 22  2  0
  2 23  1  0
 23 24  2  0
 24 25  1  0
 25 26  2  0
 26 27  1  0
 27 28  2  0
 28 29  1  0
 28 30  1  0
 30 31  2  0
 31 32  1  0
 32 33  2  0
 11  7  1  0
 22 12  1  0
 33 23  1  0
 32 26  1  0
  3 34  1  0
  4 35  1  0
  4 36  1  0
  8 37  1  0
  8 38  1  0
  9 39  1  0
  9 40  1  0
 10 41  1  0
 10 42  1  0
 11 43  1  6
 13 44  1  0
 14 45  1  0
 21 46  1  0
 22 47  1  0
 24 48  1  0
 25 49  1  0
 27 50  1  0
 30 51  1  0
 31 52  1  0
M  END
>  <smiles>  (11) 
O=C(NCC(=O)N1CCCC1c1ccc(OC(F)(F)F)cc1)c1ccc2cc(Cl)ccc2n1

>  <score_type>  (11) 
oracle

>  <origin>  (11) 
autodockgpu

>  <m_score__min__energy>  (11) 
-7.8600000000000003

>  <m_primary>  (11) 
energy

>  <rmsd>  (11) 
1.2651627583017855

>  <m_score__min__rmsd>  (11) 
1.2651627583017855

>  <meeko>  (11) 
{"free_energy": -7.64, "intermolecular_energy": -9.73, "internal_energy": -1.83, "cluster_size": 1, "cluster_id": 3, "rank_in_cluster": 1}

>  <energy>  (11) 
-7.73

>  <cluster_rmsd>  (11) 
0.36

>  <cluster>  (11) 
1

$$$$

     RDKit          3D

 52 55  0  0  0  0  0  0  0  0999 V2000
  140.7290   76.7390  218.7850 O   0  0  0  0  0  0  0  0  0  0  0  0
  141.9450   76.7220  219.0720 C   0  0  0  0  0  0  0  0  0  0  0  0
  142.5980   77.9980  219.1940 N   0  0  0  0  0  0  0  0  0  0  0  0
  141.9520   79.2510  219.0110 C   0  0  0  0  0  0  0  0  0  0  0  0
  140.8910   79.6680  219.9210 C   0  0  0  0  0  0  0  0  0  0  0  0
  139.6940   79.3550  219.4620 O   0  0  0  0  0  0  0  0  0  0  0  0
  140.8960   80.3170  221.1380 N   0  0  0  0  0  0  0  0  0  0  0  0
  141.5160   81.5050  221.6890 C   0  0  0  0  0  0  0  0  0  0  0  0
  142.1820   80.8510  222.9060 C   0  0  0  0  0  0  0  0  0  0  0  0
  140.9490   80.2280  223.5180 C   0  0  0  0  0  0  0  0  0  0  0  0
  140.1460   79.8000  222.3170 C   0  0  2  0  0  0  0  0  0  0  0  0
  140.0880   78.3260  222.3230 C   0  0  0  0  0  0  0  0  0  0  0  0
  141.1660   77.4910  222.3040 C   0  0  0  0  0  0  0  0  0  0  0  0
  141.0310   76.1090  222.3110 C   0  0  0  0  0  0  0  0  0  0  0  0
  139.7670   75.5430  222.3390 C   0  0  0  0  0  0  0  0  0  0  0  0
  139.5600   74.1710  222.3480 O   0  0  0  0  0  0  0  0  0  0  0  0
  140.1560   73.3940  221.3200 C   0  0  0  0  0  0  0  0  0  0  0  0
  139.9480   74.0500  220.1270 F   0  0  0  0  0  0  0  0  0  0  0  0
  139.6540   72.1070  221.3070 F   0  0  0  0  0  0  0  0  0  0  0  0
  141.5130   73.3580  221.5850 F   0  0  0  0  0  0  0  0  0  0  0  0
  138.6560   76.3640  222.3590 C   0  0  0  0  0  0  0  0  0  0  0  0
  138.8260   77.7320  222.3500 C   0  0  0  0  0  0  0  0  0  0  0  0
  142.6770   75.4750  219.2760 C   0  0  0  0  0  0  0  0  0  0  0  0
  143.8090   75.5080  220.0500 C   0  0  0  0  0  0  0  0  0  0  0  0
  144.4850   74.3200  220.2310 C   0  0  0  0  0  0  0  0  0  0  0  0
  144.0310   73.1390  219.6470 C   0  0  0  0  0  0  0  0  0  0  0  0
  144.6660   71.9370  219.7970 C   0  0  0  0  0  0  0  0  0  0  0  0
  144.1560   70.7950  219.1840 C   0  0  0  0  0  0  0  0  0  0  0  0
  144.9350   69.2360  219.3470 Cl  0  0  0  0  0  0  0  0  0  0  0  0
  143.0060   70.8410  218.4160 C   0  0  0  0  0  0  0  0  0  0  0  0
  142.3780   72.0580  218.2760 C   0  0  0  0  0  0  0  0  0  0  0  0
  142.8890   73.1770  218.8830 C   0  0  0  0  0  0  0  0  0  0  0  0
  142.2480   74.3340  218.7200 N   0  0  0  0  0  0  0  0  0  0  0  0
  143.6310   77.9240  219.4370 H   0  0  0  0  0  0  0  0  0  0  0  0
  142.7351   80.0218  219.0629 H   0  0  0  0  0  0  0  0  0  0  0  0
  141.4262   79.1250  218.0530 H   0  0  0  0  0  0  0  0  0  0  0  0
  142.2500   81.9496  221.0008 H   0  0  0  0  0  0  0  0  0  0  0  0
  140.8419   82.3478  221.9016 H   0  0  0  0  0  0  0  0  0  0  0  0
  142.9286   80.0970  222.6162 H   0  0  0  0  0  0  0  0  0  0  0  0
  142.7553   81.5245  223.5600 H   0  0  0  0  0  0  0  0  0  0  0  0
  141.2136   79.3631  224.1440 H   0  0  0  0  0  0  0  0  0  0  0  0
  140.4018   80.9157  224.1795 H   0  0  0  0  0  0  0  0  0  0  0  0
  139.1142   80.1810  222.3069 H   0  0  0  0  0  0  0  0  0  0  0  0
  142.1758   77.9266  222.2824 H   0  0  0  0  0  0  0  0  0  0  0  0
  141.9238   75.4666  222.2944 H   0  0  0  0  0  0  0  0  0  0  0  0
  137.6454   75.9302  222.3819 H   0  0  0  0  0  0  0  0  0  0  0  0
  137.9356   78.3777  222.3646 H   0  0  0  0  0  0  0  0  0  0  0  0
  144.1629   76.4437  220.5074 H   0  0  0  0  0  0  0  0  0  0  0  0
  145.3969   74.3042  220.8460 H   0  0  0  0  0  0  0  0  0  0  0  0
  145.5816   71.8720  220.4032 H   0  0  0  0  0  0  0  0  0  0  0  0
  142.6073   69.9362  217.9339 H   0  0  0  0  0  0  0  0  0  0  0  0
  141.4607   72.1336  217.6736 H   0  0  0  0  0  0  0  0  0  0  0  0
  1  2  2  0
  2  3  1  0
  3  4  1  0
  4  5  1  0
  5  6  2  0
  5  7  1  0
  7  8  1  0
  8  9  1  0
  9 10  1  0
 10 11  1  0
 11 12  1  0
 12 13  2  0
 13 14  1  0
 14 15  2  0
 15 16  1  0
 16 17  1  0
 17 18  1  0
 17 19  1  0
 17 20  1  0
 15 21  1  0
 21 22  2  0
  2 23  1  0
 23 24  2  0
 24 25  1  0
 25 26  2  0
 26 27  1  0
 27 28  2  0
 28 29  1  0
 28 30  1  0
 30 31  2  0
 31 32  1  0
 32 33  2  0
 11  7  1  0
 22 12  1  0
 33 23  1  0
 32 26  1  0
  3 34  1  0
  4 35  1  0
  4 36  1  0
  8 37  1  0
  8 38  1  0
  9 39  1  0
  9 40  1  0
 10 41  1  0
 10 42  1  0
 11 43  1  1
 13 44  1  0
 14 45  1  0
 21 46  1  0
 22 47  1  0
 24 48  1  0
 25 49  1  0
 27 50  1  0
 30 51  1  0
 31 52  1  0
M  END
>  <smiles>  (12) 
O=C(NCC(=O)N1CCCC1c1ccc(OC(F)(F)F)cc1)c1ccc2cc(Cl)ccc2n1

>  <score_type>  (12) 
oracle

>  <origin>  (12) 
autodockgpu

>  <m_score__min__energy>  (12) 
-7.8600000000000003

>  <m_primary>  (12) 
energy

>  <rmsd>  (12) 
7.706077612226465

>  <m_score__min__rmsd>  (12) 
7.706077612226465

>  <meeko>  (12) 
{"free_energy": -6.22, "intermolecular_energy": -8.31, "internal_energy": -2.74, "cluster_size": 9, "cluster_id": 6, "rank_in_cluster": 4}

>  <energy>  (12) 
-7.7

>  <cluster_rmsd>  (12) 
1.53

>  <cluster>  (12) 
1

$$$$

     RDKit          3D

 52 55  0  0  0  0  0  0  0  0999 V2000
  142.2630   79.4270  219.3680 O   0  0  0  0  0  0  0  0  0  0  0  0
  141.5460   78.4150  219.2220 C   0  0  0  0  0  0  0  0  0  0  0  0
  140.1240   78.6140  219.3020 N   0  0  0  0  0  0  0  0  0  0  0  0
  139.5000   79.8710  219.5320 C   0  0  0  0  0  0  0  0  0  0  0  0
  139.4180   80.4120  220.8850 C   0  0  0  0  0  0  0  0  0  0  0  0
  138.1770   80.6990  221.2280 O   0  0  0  0  0  0  0  0  0  0  0  0
  140.3670   80.6790  221.8490 N   0  0  0  0  0  0  0  0  0  0  0  0
  141.4150   81.6600  222.0440 C   0  0  0  0  0  0  0  0  0  0  0  0
  142.5780   80.6850  222.2710 C   0  0  0  0  0  0  0  0  0  0  0  0
  141.9820   79.9050  223.4190 C   0  0  0  0  0  0  0  0  0  0  0  0
  140.5180   79.8380  223.0700 C   0  0  2  0  0  0  0  0  0  0  0  0
  140.1870   78.4260  222.8040 C   0  0  0  0  0  0  0  0  0  0  0  0
  138.9300   77.8950  222.7960 C   0  0  0  0  0  0  0  0  0  0  0  0
  138.6970   76.5510  222.5350 C   0  0  0  0  0  0  0  0  0  0  0  0
  139.7650   75.7080  222.2720 C   0  0  0  0  0  0  0  0  0  0  0  0
  139.6040   74.3550  222.0040 O   0  0  0  0  0  0  0  0  0  0  0  0
  140.2400   73.8170  220.8550 C   0  0  0  0  0  0  0  0  0  0  0  0
  140.1460   74.7530  219.8490 F   0  0  0  0  0  0  0  0  0  0  0  0
  139.6860   72.6030  220.4970 F   0  0  0  0  0  0  0  0  0  0  0  0
  141.5710   73.6390  221.1840 F   0  0  0  0  0  0  0  0  0  0  0  0
  141.0490   76.2180  222.2740 C   0  0  0  0  0  0  0  0  0  0  0  0
  141.2450   77.5560  222.5370 C   0  0  0  0  0  0  0  0  0  0  0  0
  142.1120   77.0910  218.9810 C   0  0  0  0  0  0  0  0  0  0  0  0
  141.6470   76.3730  217.9080 C   0  0  0  0  0  0  0  0  0  0  0  0
  142.1950   75.1250  217.6980 C   0  0  0  0  0  0  0  0  0  0  0  0
  143.1800   74.6220  218.5450 C   0  0  0  0  0  0  0  0  0  0  0  0
  143.7530   73.3910  218.3780 C   0  0  0  0  0  0  0  0  0  0  0  0
  144.7340   72.9500  219.2640 C   0  0  0  0  0  0  0  0  0  0  0  0
  145.4950   71.3820  219.0900 Cl  0  0  0  0  0  0  0  0  0  0  0  0
  145.1510   73.7320  220.3250 C   0  0  0  0  0  0  0  0  0  0  0  0
  144.5650   74.9680  220.4790 C   0  0  0  0  0  0  0  0  0  0  0  0
  143.6010   75.3930  219.6010 C   0  0  0  0  0  0  0  0  0  0  0  0
  143.0600   76.5970  219.7890 N   0  0  0  0  0  0  0  0  0  0  0  0
  139.5620   77.7190  219.1720 H   0  0  0  0  0  0  0  0  0  0  0  0
  140.0453   80.6107  218.9275 H   0  0  0  0  0  0  0  0  0  0  0  0
  138.4479   79.6802  219.2735 H   0  0  0  0  0  0  0  0  0  0  0  0
  141.5667   82.2903  221.1554 H   0  0  0  0  0  0  0  0  0  0  0  0
  141.2424   82.4002  222.8392 H   0  0  0  0  0  0  0  0  0  0  0  0
  142.7677   80.0518  221.3918 H   0  0  0  0  0  0  0  0  0  0  0  0
  143.5604   81.1428  222.4586 H   0  0  0  0  0  0  0  0  0  0  0  0
  142.4191   78.8974  223.4797 H   0  0  0  0  0  0  0  0  0  0  0  0
  142.1701   80.3694  224.3983 H   0  0  0  0  0  0  0  0  0  0  0  0
  139.8492   80.1991  223.8652 H   0  0  0  0  0  0  0  0  0  0  0  0
  138.0732   78.5530  223.0031 H   0  0  0  0  0  0  0  0  0  0  0  0
  137.6698   76.1576  222.5370 H   0  0  0  0  0  0  0  0  0  0  0  0
  141.9071   75.5616  222.0674 H   0  0  0  0  0  0  0  0  0  0  0  0
  142.2711   77.9524  222.5365 H   0  0  0  0  0  0  0  0  0  0  0  0
  140.8692   76.7763  217.2428 H   0  0  0  0  0  0  0  0  0  0  0  0
  141.8491   74.5175  216.8487 H   0  0  0  0  0  0  0  0  0  0  0  0
  143.4387   72.7480  217.5427 H   0  0  0  0  0  0  0  0  0  0  0  0
  145.9248   73.3786  221.0224 H   0  0  0  0  0  0  0  0  0  0  0  0
  144.8717   75.6187  221.3112 H   0  0  0  0  0  0  0  0  0  0  0  0
  1  2  2  0
  2  3  1  0
  3  4  1  0
  4  5  1  0
  5  6  2  0
  5  7  1  0
  7  8  1  0
  8  9  1  0
  9 10  1  0
 10 11  1  0
 11 12  1  0
 12 13  2  0
 13 14  1  0
 14 15  2  0
 15 16  1  0
 16 17  1  0
 17 18  1  0
 17 19  1  0
 17 20  1  0
 15 21  1  0
 21 22  2  0
  2 23  1  0
 23 24  2  0
 24 25  1  0
 25 26  2  0
 26 27  1  0
 27 28  2  0
 28 29  1  0
 28 30  1  0
 30 31  2  0
 31 32  1  0
 32 33  2  0
 11  7  1  0
 22 12  1  0
 33 23  1  0
 32 26  1  0
  3 34  1  0
  4 35  1  0
  4 36  1  0
  8 37  1  0
  8 38  1  0
  9 39  1  0
  9 40  1  0
 10 41  1  0
 10 42  1  0
 11 43  1  1
 13 44  1  0
 14 45  1  0
 21 46  1  0
 22 47  1  0
 24 48  1  0
 25 49  1  0
 27 50  1  0
 30 51  1  0
 31 52  1  0
M  END
>  <smiles>  (13) 
O=C(NCC(=O)N1CCCC1c1ccc(OC(F)(F)F)cc1)c1ccc2cc(Cl)ccc2n1

>  <score_type>  (13) 
oracle

>  <origin>  (13) 
autodockgpu

>  <m_score__min__energy>  (13) 
-7.8600000000000003

>  <m_primary>  (13) 
energy

>  <rmsd>  (13) 
7.954702589812456

>  <m_score__min__rmsd>  (13) 
7.954702589812456

>  <meeko>  (13) 
{"free_energy": -5.91, "intermolecular_energy": -8.0, "internal_energy": -3.17, "cluster_size": 9, "cluster_id": 6, "rank_in_cluster": 9}

>  <energy>  (13) 
-7.7

>  <cluster_rmsd>  (13) 
1.56

>  <cluster>  (13) 
1

$$$$

     RDKit          3D

 52 55  0  0  0  0  0  0  0  0999 V2000
  139.2840   71.9190  220.6400 O   0  0  0  0  0  0  0  0  0  0  0  0
  139.2190   72.3090  221.8250 C   0  0  0  0  0  0  0  0  0  0  0  0
  138.9200   73.7000  222.0320 N   0  0  0  0  0  0  0  0  0  0  0  0
  138.6970   74.6380  220.9870 C   0  0  0  0  0  0  0  0  0  0  0  0
  139.6410   74.7380  219.8790 C   0  0  0  0  0  0  0  0  0  0  0  0
  139.0690   75.1990  218.7830 O   0  0  0  0  0  0  0  0  0  0  0  0
  140.9820   74.4460  219.7580 N   0  0  0  0  0  0  0  0  0  0  0  0
  141.7830   73.2500  219.5890 C   0  0  0  0  0  0  0  0  0  0  0  0
  142.7270   73.4570  220.7810 C   0  0  0  0  0  0  0  0  0  0  0  0
  143.2410   74.8290  220.4120 C   0  0  0  0  0  0  0  0  0  0  0  0
  142.0340   75.5010  219.8110 C   0  0  2  0  0  0  0  0  0  0  0  0
  141.6490   76.6090  220.7050 C   0  0  0  0  0  0  0  0  0  0  0  0
  141.1190   76.4710  221.9540 C   0  0  0  0  0  0  0  0  0  0  0  0
  140.7810   77.5650  222.7390 C   0  0  0  0  0  0  0  0  0  0  0  0
  140.9830   78.8460  222.2530 C   0  0  0  0  0  0  0  0  0  0  0  0
  140.6680   79.9840  222.9840 O   0  0  0  0  0  0  0  0  0  0  0  0
  139.2980   80.2870  223.1990 C   0  0  0  0  0  0  0  0  0  0  0  0
  138.5600   79.5460  222.3030 F   0  0  0  0  0  0  0  0  0  0  0  0
  139.0590   81.6420  223.0830 F   0  0  0  0  0  0  0  0  0  0  0  0
  138.9960   79.8730  224.4840 F   0  0  0  0  0  0  0  0  0  0  0  0
  141.5190   79.0170  220.9910 C   0  0  0  0  0  0  0  0  0  0  0  0
  141.8420   77.9100  220.2380 C   0  0  0  0  0  0  0  0  0  0  0  0
  139.4340   71.4060  222.9520 C   0  0  0  0  0  0  0  0  0  0  0  0
  139.0100   70.1060  222.8300 C   0  0  0  0  0  0  0  0  0  0  0  0
  139.2230   69.2700  223.9060 C   0  0  0  0  0  0  0  0  0  0  0  0
  139.8420   69.7330  225.0650 C   0  0  0  0  0  0  0  0  0  0  0  0
  140.0750   68.9430  226.1570 C   0  0  0  0  0  0  0  0  0  0  0  0
  140.7000   69.4730  227.2840 C   0  0  0  0  0  0  0  0  0  0  0  0
  141.0170   68.4990  228.7040 Cl  0  0  0  0  0  0  0  0  0  0  0  0
  141.0990   70.7960  227.3320 C   0  0  0  0  0  0  0  0  0  0  0  0
  140.8580   71.5780  226.2250 C   0  0  0  0  0  0  0  0  0  0  0  0
  140.2420   71.0460  225.1200 C   0  0  0  0  0  0  0  0  0  0  0  0
  140.0290   71.8410  224.0710 N   0  0  0  0  0  0  0  0  0  0  0  0
  138.8780   73.9770  223.0590 H   0  0  0  0  0  0  0  0  0  0  0  0
  137.7176   74.3967  220.5482 H   0  0  0  0  0  0  0  0  0  0  0  0
  138.8006   75.6087  221.4940 H   0  0  0  0  0  0  0  0  0  0  0  0
  141.1858   72.3312  219.6848 H   0  0  0  0  0  0  0  0  0  0  0  0
  142.2639   73.1250  218.6076 H   0  0  0  0  0  0  0  0  0  0  0  0
  142.1904   73.4582  221.7412 H   0  0  0  0  0  0  0  0  0  0  0  0
  143.4919   72.6805  220.9295 H   0  0  0  0  0  0  0  0  0  0  0  0
  143.5913   75.3713  221.3026 H   0  0  0  0  0  0  0  0  0  0  0  0
  144.1013   74.7967  219.7273 H   0  0  0  0  0  0  0  0  0  0  0  0
  142.2053   75.9176  218.8074 H   0  0  0  0  0  0  0  0  0  0  0  0
  140.9538   75.4592  222.3527 H   0  0  0  0  0  0  0  0  0  0  0  0
  140.3549   77.4151  223.7420 H   0  0  0  0  0  0  0  0  0  0  0  0
  141.6862   80.0281  220.5914 H   0  0  0  0  0  0  0  0  0  0  0  0
  142.2667   78.0563  219.2339 H   0  0  0  0  0  0  0  0  0  0  0  0
  138.5210   69.7463  221.9127 H   0  0  0  0  0  0  0  0  0  0  0  0
  138.8988   68.2204  223.8481 H   0  0  0  0  0  0  0  0  0  0  0  0
  139.7682   67.8867  226.1455 H   0  0  0  0  0  0  0  0  0  0  0  0
  141.5921   71.2095  228.2241 H   0  0  0  0  0  0  0  0  0  0  0  0
  141.1609   72.6355  226.2261 H   0  0  0  0  0  0  0  0  0  0  0  0
  1  2  2  0
  2  3  1  0
  3  4  1  0
  4  5  1  0
  5  6  2  0
  5  7  1  0
  7  8  1  0
  8  9  1  0
  9 10  1  0
 10 11  1  0
 11 12  1  0
 12 13  2  0
 13 14  1  0
 14 15  2  0
 15 16  1  0
 16 17  1  0
 17 18  1  0
 17 19  1  0
 17 20  1  0
 15 21  1  0
 21 22  2  0
  2 23  1  0
 23 24  2  0
 24 25  1  0
 25 26  2  0
 26 27  1  0
 27 28  2  0
 28 29  1  0
 28 30  1  0
 30 31  2  0
 31 32  1  0
 32 33  2  0
 11  7  1  0
 22 12  1  0
 33 23  1  0
 32 26  1  0
  3 34  1  0
  4 35  1  0
  4 36  1  0
  8 37  1  0
  8 38  1  0
  9 39  1  0
  9 40  1  0
 10 41  1  0
 10 42  1  0
 11 43  1  6
 13 44  1  0
 14 45  1  0
 21 46  1  0
 22 47  1  0
 24 48  1  0
 25 49  1  0
 27 50  1  0
 30 51  1  0
 31 52  1  0
M  END
>  <smiles>  (14) 
O=C(NCC(=O)N1CCCC1c1ccc(OC(F)(F)F)cc1)c1ccc2cc(Cl)ccc2n1

>  <score_type>  (14) 
oracle

>  <origin>  (14) 
autodockgpu

>  <m_score__min__energy>  (14) 
-7.8600000000000003

>  <m_primary>  (14) 
energy

>  <rmsd>  (14) 
2.332348965296719

>  <m_score__min__rmsd>  (14) 
2.332348965296719

>  <meeko>  (14) 
{"free_energy": -7.35, "intermolecular_energy": -9.43, "internal_energy": -1.92, "cluster_size": 23, "cluster_id": 1, "rank_in_cluster": 23}

>  <energy>  (14) 
-7.68

>  <cluster_rmsd>  (14) 
1.53

>  <cluster>  (14) 
1

$$$$

     RDKit          3D

 52 55  0  0  0  0  0  0  0  0999 V2000
  140.2930   74.1450  222.2670 O   0  0  0  0  0  0  0  0  0  0  0  0
  140.1070   72.9330  222.0310 C   0  0  0  0  0  0  0  0  0  0  0  0
  139.9110   72.5650  220.6540 N   0  0  0  0  0  0  0  0  0  0  0  0
  139.9170   73.4840  219.5690 C   0  0  0  0  0  0  0  0  0  0  0  0
  141.1550   73.7550  218.8460 C   0  0  0  0  0  0  0  0  0  0  0  0
  140.9270   74.2800  217.6570 O   0  0  0  0  0  0  0  0  0  0  0  0
  142.4850   73.5680  219.1550 N   0  0  0  0  0  0  0  0  0  0  0  0
  143.3060   72.4730  219.6320 C   0  0  0  0  0  0  0  0  0  0  0  0
  143.9210   73.1830  220.8450 C   0  0  0  0  0  0  0  0  0  0  0  0
  144.5070   74.3730  220.1240 C   0  0  0  0  0  0  0  0  0  0  0  0
  143.4870   74.6660  219.0540 C   0  0  2  0  0  0  0  0  0  0  0  0
  142.8880   75.9800  219.3580 C   0  0  0  0  0  0  0  0  0  0  0  0
  142.1520   76.2770  220.4680 C   0  0  0  0  0  0  0  0  0  0  0  0
  141.6200   77.5400  220.6860 C   0  0  0  0  0  0  0  0  0  0  0  0
  141.8330   78.5440  219.7550 C   0  0  0  0  0  0  0  0  0  0  0  0
  141.3290   79.8290  219.9090 O   0  0  0  0  0  0  0  0  0  0  0  0
  141.3620   80.4130  221.2030 C   0  0  0  0  0  0  0  0  0  0  0  0
  142.5850   80.1180  221.7630 F   0  0  0  0  0  0  0  0  0  0  0  0
  140.3070   79.9740  221.9780 F   0  0  0  0  0  0  0  0  0  0  0  0
  141.2650   81.7810  221.0230 F   0  0  0  0  0  0  0  0  0  0  0  0
  142.5730   78.2720  218.6210 C   0  0  0  0  0  0  0  0  0  0  0  0
  143.0870   77.0070  218.4360 C   0  0  0  0  0  0  0  0  0  0  0  0
  140.0890   71.9290  223.0920 C   0  0  0  0  0  0  0  0  0  0  0  0
  139.5720   70.6910  222.8020 C   0  0  0  0  0  0  0  0  0  0  0  0
  139.5640   69.7580  223.8180 C   0  0  0  0  0  0  0  0  0  0  0  0
  140.0620   70.0680  225.0820 C   0  0  0  0  0  0  0  0  0  0  0  0
  140.0760   69.1770  226.1200 C   0  0  0  0  0  0  0  0  0  0  0  0
  140.5890   69.5550  227.3590 C   0  0  0  0  0  0  0  0  0  0  0  0
  140.6260   68.4490  228.7160 Cl  0  0  0  0  0  0  0  0  0  0  0  0
  141.0930   70.8240  227.5740 C   0  0  0  0  0  0  0  0  0  0  0  0
  141.0730   71.7080  226.5200 C   0  0  0  0  0  0  0  0  0  0  0  0
  140.5650   71.3260  225.3030 C   0  0  0  0  0  0  0  0  0  0  0  0
  140.5650   72.2160  224.3110 N   0  0  0  0  0  0  0  0  0  0  0  0
  139.7560   71.5220  220.5110 H   0  0  0  0  0  0  0  0  0  0  0  0
  139.1945   73.1069  218.8302 H   0  0  0  0  0  0  0  0  0  0  0  0
  139.6925   74.4460  220.0529 H   0  0  0  0  0  0  0  0  0  0  0  0
  142.7063   71.5974  219.9212 H   0  0  0  0  0  0  0  0  0  0  0  0
  144.0173   72.0504  218.9071 H   0  0  0  0  0  0  0  0  0  0  0  0
  143.1611   73.4774  221.5839 H   0  0  0  0  0  0  0  0  0  0  0  0
  144.6267   72.5881  221.4434 H   0  0  0  0  0  0  0  0  0  0  0  0
  144.6211   75.2294  220.8049 H   0  0  0  0  0  0  0  0  0  0  0  0
  145.5117   74.1799  219.7200 H   0  0  0  0  0  0  0  0  0  0  0  0
  143.9024   74.7084  218.0363 H   0  0  0  0  0  0  0  0  0  0  0  0
  141.9745   75.4891  221.2148 H   0  0  0  0  0  0  0  0  0  0  0  0
  141.0322   77.7431  221.5933 H   0  0  0  0  0  0  0  0  0  0  0  0
  142.7504   79.0581  217.8723 H   0  0  0  0  0  0  0  0  0  0  0  0
  143.6747   76.8001  217.5295 H   0  0  0  0  0  0  0  0  0  0  0  0
  139.1807   70.4530  221.8019 H   0  0  0  0  0  0  0  0  0  0  0  0
  139.1581   68.7535  223.6274 H   0  0  0  0  0  0  0  0  0  0  0  0
  139.6815   68.1603  225.9762 H   0  0  0  0  0  0  0  0  0  0  0  0
  141.4964   71.1171  228.5545 H   0  0  0  0  0  0  0  0  0  0  0  0
  141.4662   72.7267  226.6531 H   0  0  0  0  0  0  0  0  0  0  0  0
  1  2  2  0
  2  3  1  0
  3  4  1  0
  4  5  1  0
  5  6  2  0
  5  7  1  0
  7  8  1  0
  8  9  1  0
  9 10  1  0
 10 11  1  0
 11 12  1  0
 12 13  2  0
 13 14  1  0
 14 15  2  0
 15 16  1  0
 16 17  1  0
 17 18  1  0
 17 19  1  0
 17 20  1  0
 15 21  1  0
 21 22  2  0
  2 23  1  0
 23 24  2  0
 24 25  1  0
 25 26  2  0
 26 27  1  0
 27 28  2  0
 28 29  1  0
 28 30  1  0
 30 31  2  0
 31 32  1  0
 32 33  2  0
 11  7  1  0
 22 12  1  0
 33 23  1  0
 32 26  1  0
  3 34  1  0
  4 35  1  0
  4 36  1  0
  8 37  1  0
  8 38  1  0
  9 39  1  0
  9 40  1  0
 10 41  1  0
 10 42  1  0
 11 43  1  6
 13 44  1  0
 14 45  1  0
 21 46  1  0
 22 47  1  0
 24 48  1  0
 25 49  1  0
 27 50  1  0
 30 51  1  0
 31 52  1  0
M  END
>  <smiles>  (15) 
O=C(NCC(=O)N1CCCC1c1ccc(OC(F)(F)F)cc1)c1ccc2cc(Cl)ccc2n1

>  <score_type>  (15) 
oracle

>  <origin>  (15) 
autodockgpu

>  <m_score__min__energy>  (15) 
-7.8600000000000003

>  <m_primary>  (15) 
energy

>  <rmsd>  (15) 
3.237239435689386

>  <m_score__min__rmsd>  (15) 
3.237239435689386

>  <meeko>  (15) 
{"free_energy": -7.46, "intermolecular_energy": -9.55, "internal_energy": -1.79, "cluster_size": 23, "cluster_id": 1, "rank_in_cluster": 20}

>  <energy>  (15) 
-7.66

>  <cluster_rmsd>  (15) 
1.49

>  <cluster>  (15) 
1

$$$$

     RDKit          3D

 52 55  0  0  0  0  0  0  0  0999 V2000
  139.5190   73.7880  222.3310 O   0  0  0  0  0  0  0  0  0  0  0  0
  139.5920   72.5650  222.0910 C   0  0  0  0  0  0  0  0  0  0  0  0
  139.5380   72.1730  220.7090 N   0  0  0  0  0  0  0  0  0  0  0  0
  139.4110   73.0800  219.6210 C   0  0  0  0  0  0  0  0  0  0  0  0
  140.5850   73.7780  219.1080 C   0  0  0  0  0  0  0  0  0  0  0  0
  140.2570   74.7770  218.3120 O   0  0  0  0  0  0  0  0  0  0  0  0
  141.9400   73.5960  219.2870 N   0  0  0  0  0  0  0  0  0  0  0  0
  142.8540   72.4720  219.2920 C   0  0  0  0  0  0  0  0  0  0  0  0
  143.4900   72.7220  220.6660 C   0  0  0  0  0  0  0  0  0  0  0  0
  143.9570   74.1390  220.4310 C   0  0  0  0  0  0  0  0  0  0  0  0
  142.8620   74.7290  219.5800 C   0  0  2  0  0  0  0  0  0  0  0  0
  142.1990   75.7800  220.3750 C   0  0  0  0  0  0  0  0  0  0  0  0
  141.4480   75.5710  221.4940 C   0  0  0  0  0  0  0  0  0  0  0  0
  140.8540   76.6150  222.1910 C   0  0  0  0  0  0  0  0  0  0  0  0
  141.0180   77.9170  221.7470 C   0  0  0  0  0  0  0  0  0  0  0  0
  140.4510   79.0070  222.3950 O   0  0  0  0  0  0  0  0  0  0  0  0
  141.2470   79.7240  223.3270 C   0  0  0  0  0  0  0  0  0  0  0  0
  142.2960   80.2870  222.6340 F   0  0  0  0  0  0  0  0  0  0  0  0
  141.6740   78.9070  224.3550 F   0  0  0  0  0  0  0  0  0  0  0  0
  140.4490   80.7320  223.8370 F   0  0  0  0  0  0  0  0  0  0  0  0
  141.7720   78.1590  220.6160 C   0  0  0  0  0  0  0  0  0  0  0  0
  142.3480   77.1000  219.9480 C   0  0  0  0  0  0  0  0  0  0  0  0
  139.7250   71.5720  223.1540 C   0  0  0  0  0  0  0  0  0  0  0  0
  139.3090   70.2900  222.8980 C   0  0  0  0  0  0  0  0  0  0  0  0
  139.4440   69.3680  223.9150 C   0  0  0  0  0  0  0  0  0  0  0  0
  139.9810   69.7320  225.1480 C   0  0  0  0  0  0  0  0  0  0  0  0
  140.1350   68.8550  226.1860 C   0  0  0  0  0  0  0  0  0  0  0  0
  140.6800   69.2880  227.3940 C   0  0  0  0  0  0  0  0  0  0  0  0
  140.8950   68.2010  228.7500 Cl  0  0  0  0  0  0  0  0  0  0  0  0
  141.0760   70.6000  227.5760 C   0  0  0  0  0  0  0  0  0  0  0  0
  140.9150   71.4700  226.5220 C   0  0  0  0  0  0  0  0  0  0  0  0
  140.3780   71.0340  225.3370 C   0  0  0  0  0  0  0  0  0  0  0  0
  140.2410   71.9110  224.3440 N   0  0  0  0  0  0  0  0  0  0  0  0
  139.6030   71.1210  220.5630 H   0  0  0  0  0  0  0  0  0  0  0  0
  138.9892   72.5094  218.7804 H   0  0  0  0  0  0  0  0  0  0  0  0
  138.7995   73.8922  220.0411 H   0  0  0  0  0  0  0  0  0  0  0  0
  142.3282   71.5069  219.2454 H   0  0  0  0  0  0  0  0  0  0  0  0
  143.5491   72.4105  218.4417 H   0  0  0  0  0  0  0  0  0  0  0  0
  142.7559   72.6559  221.4825 H   0  0  0  0  0  0  0  0  0  0  0  0
  144.2647   72.0050  220.9755 H   0  0  0  0  0  0  0  0  0  0  0  0
  144.0545   74.6844  221.3813 H   0  0  0  0  0  0  0  0  0  0  0  0
  144.9474   74.1922  219.9554 H   0  0  0  0  0  0  0  0  0  0  0  0
  143.2152   75.1833  218.6425 H   0  0  0  0  0  0  0  0  0  0  0  0
  141.3082   74.5418  221.8563 H   0  0  0  0  0  0  0  0  0  0  0  0
  140.2562   76.4092  223.0912 H   0  0  0  0  0  0  0  0  0  0  0  0
  141.9117   79.1874  220.2515 H   0  0  0  0  0  0  0  0  0  0  0  0
  142.9459   77.3024  219.0471 H   0  0  0  0  0  0  0  0  0  0  0  0
  138.8855   70.0091  221.9224 H   0  0  0  0  0  0  0  0  0  0  0  0
  139.1226   68.3290  223.7500 H   0  0  0  0  0  0  0  0  0  0  0  0
  139.8281   67.8054  226.0675 H   0  0  0  0  0  0  0  0  0  0  0  0
  141.5053   70.9371  228.5310 H   0  0  0  0  0  0  0  0  0  0  0  0
  141.2187   72.5217  226.6302 H   0  0  0  0  0  0  0  0  0  0  0  0
  1  2  2  0
  2  3  1  0
  3  4  1  0
  4  5  1  0
  5  6  2  0
  5  7  1  0
  7  8  1  0
  8  9  1  0
  9 10  1  0
 10 11  1  0
 11 12  1  0
 12 13  2  0
 13 14  1  0
 14 15  2  0
 15 16  1  0
 16 17  1  0
 17 18  1  0
 17 19  1  0
 17 20  1  0
 15 21  1  0
 21 22  2  0
  2 23  1  0
 23 24  2  0
 24 25  1  0
 25 26  2  0
 26 27  1  0
 27 28  2  0
 28 29  1  0
 28 30  1  0
 30 31  2  0
 31 32  1  0
 32 33  2  0
 11  7  1  0
 22 12  1  0
 33 23  1  0
 32 26  1  0
  3 34  1  0
  4 35  1  0
  4 36  1  0
  8 37  1  0
  8 38  1  0
  9 39  1  0
  9 40  1  0
 10 41  1  0
 10 42  1  0
 11 43  1  6
 13 44  1  0
 14 45  1  0
 21 46  1  0
 22 47  1  0
 24 48  1  0
 25 49  1  0
 27 50  1  0
 30 51  1  0
 31 52  1  0
M  END
>  <smiles>  (16) 
O=C(NCC(=O)N1CCCC1c1ccc(OC(F)(F)F)cc1)c1ccc2cc(Cl)ccc2n1

>  <score_type>  (16) 
oracle

>  <origin>  (16) 
autodockgpu

>  <m_score__min__energy>  (16) 
-7.8600000000000003

>  <m_primary>  (16) 
energy

>  <rmsd>  (16) 
2.957568078223787

>  <m_score__min__rmsd>  (16) 
2.957568078223787

>  <meeko>  (16) 
{"free_energy": -7.79, "intermolecular_energy": -9.88, "internal_energy": -1.8, "cluster_size": 23, "cluster_id": 1, "rank_in_cluster": 6}

>  <energy>  (16) 
-7.66

>  <cluster_rmsd>  (16) 
1.53

>  <cluster>  (16) 
1

$$$$

     RDKit          3D

 52 55  0  0  0  0  0  0  0  0999 V2000
  139.0880   71.9450  220.4830 O   0  0  0  0  0  0  0  0  0  0  0  0
  138.8550   72.2870  221.6610 C   0  0  0  0  0  0  0  0  0  0  0  0
  138.2820   73.5910  221.8560 N   0  0  0  0  0  0  0  0  0  0  0  0
  137.9690   74.4960  220.8040 C   0  0  0  0  0  0  0  0  0  0  0  0
  138.6120   75.8040  220.7470 C   0  0  0  0  0  0  0  0  0  0  0  0
  138.6790   76.2680  219.5140 O   0  0  0  0  0  0  0  0  0  0  0  0
  139.1570   76.6260  221.7100 N   0  0  0  0  0  0  0  0  0  0  0  0
  138.7890   77.8710  222.3540 C   0  0  0  0  0  0  0  0  0  0  0  0
  140.0790   78.6490  222.0620 C   0  0  0  0  0  0  0  0  0  0  0  0
  141.0590   77.6810  222.6810 C   0  0  0  0  0  0  0  0  0  0  0  0
  140.4670   76.3340  222.3570 C   0  0  2  0  0  0  0  0  0  0  0  0
  141.3920   75.6520  221.4310 C   0  0  0  0  0  0  0  0  0  0  0  0
  142.1410   76.2630  220.4690 C   0  0  0  0  0  0  0  0  0  0  0  0
  142.9920   75.5520  219.6330 C   0  0  0  0  0  0  0  0  0  0  0  0
  143.0960   74.1780  219.7680 C   0  0  0  0  0  0  0  0  0  0  0  0
  143.9260   73.4060  218.9660 O   0  0  0  0  0  0  0  0  0  0  0  0
  145.2130   73.0660  219.4610 C   0  0  0  0  0  0  0  0  0  0  0  0
  146.1330   73.3890  218.4880 F   0  0  0  0  0  0  0  0  0  0  0  0
  145.2760   71.7350  219.8230 F   0  0  0  0  0  0  0  0  0  0  0  0
  145.4330   73.8590  220.5730 F   0  0  0  0  0  0  0  0  0  0  0  0
  142.3480   73.5320  220.7340 C   0  0  0  0  0  0  0  0  0  0  0  0
  141.5140   74.2670  221.5470 C   0  0  0  0  0  0  0  0  0  0  0  0
  139.1470   71.4120  222.7940 C   0  0  0  0  0  0  0  0  0  0  0  0
  138.7340   70.1060  222.7270 C   0  0  0  0  0  0  0  0  0  0  0  0
  139.0200   69.2980  223.8070 C   0  0  0  0  0  0  0  0  0  0  0  0
  139.7000   69.7950  224.9170 C   0  0  0  0  0  0  0  0  0  0  0  0
  140.0060   69.0330  226.0110 C   0  0  0  0  0  0  0  0  0  0  0  0
  140.6900   69.5970  227.0860 C   0  0  0  0  0  0  0  0  0  0  0  0
  141.1020   68.6610  228.5070 Cl  0  0  0  0  0  0  0  0  0  0  0  0
  141.0740   70.9250  227.0800 C   0  0  0  0  0  0  0  0  0  0  0  0
  140.7590   71.6780  225.9720 C   0  0  0  0  0  0  0  0  0  0  0  0
  140.0860   71.1130  224.9180 C   0  0  0  0  0  0  0  0  0  0  0  0
  139.8020   71.8800  223.8660 N   0  0  0  0  0  0  0  0  0  0  0  0
  138.1060   73.8300  222.8770 H   0  0  0  0  0  0  0  0  0  0  0  0
  138.2113   73.9826  219.8618 H   0  0  0  0  0  0  0  0  0  0  0  0
  136.9135   74.7430  220.9910 H   0  0  0  0  0  0  0  0  0  0  0  0
  137.9072   78.3362  221.8893 H   0  0  0  0  0  0  0  0  0  0  0  0
  138.4959   77.8001  223.4119 H   0  0  0  0  0  0  0  0  0  0  0  0
  140.2499   78.7810  220.9834 H   0  0  0  0  0  0  0  0  0  0  0  0
  140.1155   79.6801  222.4435 H   0  0  0  0  0  0  0  0  0  0  0  0
  142.0576   77.7907  222.2329 H   0  0  0  0  0  0  0  0  0  0  0  0
  141.1992   77.8413  223.7602 H   0  0  0  0  0  0  0  0  0  0  0  0
  140.3217   75.6844  223.2327 H   0  0  0  0  0  0  0  0  0  0  0  0
  142.0688   77.3543  220.3514 H   0  0  0  0  0  0  0  0  0  0  0  0
  143.5807   76.0781  218.8671 H   0  0  0  0  0  0  0  0  0  0  0  0
  142.4181   72.4406  220.8524 H   0  0  0  0  0  0  0  0  0  0  0  0
  140.9239   73.7442  222.3141 H   0  0  0  0  0  0  0  0  0  0  0  0
  138.1970   69.7192  221.8484 H   0  0  0  0  0  0  0  0  0  0  0  0
  138.7062   68.2438  223.7921 H   0  0  0  0  0  0  0  0  0  0  0  0
  139.7117   67.9736  226.0422 H   0  0  0  0  0  0  0  0  0  0  0  0
  141.6131   71.3649  227.9320 H   0  0  0  0  0  0  0  0  0  0  0  0
  141.0483   72.7385  225.9310 H   0  0  0  0  0  0  0  0  0  0  0  0
  1  2  2  0
  2  3  1  0
  3  4  1  0
  4  5  1  0
  5  6  2  0
  5  7  1  0
  7  8  1  0
  8  9  1  0
  9 10  1  0
 10 11  1  0
 11 12  1  0
 12 13  2  0
 13 14  1  0
 14 15  2  0
 15 16  1  0
 16 17  1  0
 17 18  1  0
 17 19  1  0
 17 20  1  0
 15 21  1  0
 21 22  2  0
  2 23  1  0
 23 24  2  0
 24 25  1  0
 25 26  2  0
 26 27  1  0
 27 28  2  0
 28 29  1  0
 28 30  1  0
 30 31  2  0
 31 32  1  0
 32 33  2  0
 11  7  1  0
 22 12  1  0
 33 23  1  0
 32 26  1  0
  3 34  1  0
  4 35  1  0
  4 36  1  0
  8 37  1  0
  8 38  1  0
  9 39  1  0
  9 40  1  0
 10 41  1  0
 10 42  1  0
 11 43  1  1
 13 44  1  0
 14 45  1  0
 21 46  1  0
 22 47  1  0
 24 48  1  0
 25 49  1  0
 27 50  1  0
 30 51  1  0
 31 52  1  0
M  END
>  <smiles>  (17) 
O=C(NCC(=O)N1CCCC1c1ccc(OC(F)(F)F)cc1)c1ccc2cc(Cl)ccc2n1

>  <score_type>  (17) 
oracle

>  <origin>  (17) 
autodockgpu

>  <m_score__min__energy>  (17) 
-7.8600000000000003

>  <m_primary>  (17) 
energy

>  <rmsd>  (17) 
2.7571439800022546

>  <m_score__min__rmsd>  (17) 
2.7571439800022546

>  <meeko>  (17) 
{"free_energy": -7.2, "intermolecular_energy": -9.29, "internal_energy": -2.11, "cluster_size": 4, "cluster_id": 4, "rank_in_cluster": 3}

>  <energy>  (17) 
-7.65

>  <cluster_rmsd>  (17) 
1.43

>  <cluster>  (17) 
1

$$$$

     RDKit          3D

 52 55  0  0  0  0  0  0  0  0999 V2000
  141.0130   76.1420  218.4820 O   0  0  0  0  0  0  0  0  0  0  0  0
  142.1510   76.2610  218.9820 C   0  0  0  0  0  0  0  0  0  0  0  0
  142.5600   77.5900  219.3480 N   0  0  0  0  0  0  0  0  0  0  0  0
  141.7590   78.7530  219.1780 C   0  0  0  0  0  0  0  0  0  0  0  0
  140.8660   79.1900  220.2450 C   0  0  0  0  0  0  0  0  0  0  0  0
  139.6140   79.2770  219.8370 O   0  0  0  0  0  0  0  0  0  0  0  0
  141.0730   79.5270  221.5660 N   0  0  0  0  0  0  0  0  0  0  0  0
  141.9300   80.4420  222.2920 C   0  0  0  0  0  0  0  0  0  0  0  0
  142.5560   79.4260  223.2560 C   0  0  0  0  0  0  0  0  0  0  0  0
  141.2800   78.8770  223.8480 C   0  0  0  0  0  0  0  0  0  0  0  0
  140.3300   78.8710  222.6790 C   0  0  2  0  0  0  0  0  0  0  0  0
  140.0130   77.4640  222.3700 C   0  0  0  0  0  0  0  0  0  0  0  0
  138.7610   76.9260  222.3230 C   0  0  0  0  0  0  0  0  0  0  0  0
  138.5410   75.5880  222.0230 C   0  0  0  0  0  0  0  0  0  0  0  0
  139.6190   74.7590  221.7600 C   0  0  0  0  0  0  0  0  0  0  0  0
  139.4720   73.4130  221.4540 O   0  0  0  0  0  0  0  0  0  0  0  0
  140.3670   72.4850  222.0500 C   0  0  0  0  0  0  0  0  0  0  0  0
  139.9840   71.2230  221.6540 F   0  0  0  0  0  0  0  0  0  0  0  0
  140.3890   72.6220  223.4240 F   0  0  0  0  0  0  0  0  0  0  0  0
  141.6220   72.7580  221.5370 F   0  0  0  0  0  0  0  0  0  0  0  0
  140.9000   75.2760  221.8010 C   0  0  0  0  0  0  0  0  0  0  0  0
  141.0820   76.6080  222.1020 C   0  0  0  0  0  0  0  0  0  0  0  0
  143.0310   75.1140  219.1900 C   0  0  0  0  0  0  0  0  0  0  0  0
  144.0260   75.2230  220.1290 C   0  0  0  0  0  0  0  0  0  0  0  0
  144.8450   74.1290  220.3100 C   0  0  0  0  0  0  0  0  0  0  0  0
  144.6640   72.9660  219.5660 C   0  0  0  0  0  0  0  0  0  0  0  0
  145.4510   71.8550  219.7090 C   0  0  0  0  0  0  0  0  0  0  0  0
  145.2130   70.7250  218.9310 C   0  0  0  0  0  0  0  0  0  0  0  0
  146.1940   69.2810  219.0790 Cl  0  0  0  0  0  0  0  0  0  0  0  0
  144.1890   70.6900  218.0030 C   0  0  0  0  0  0  0  0  0  0  0  0
  143.4060   71.8150  217.8710 C   0  0  0  0  0  0  0  0  0  0  0  0
  143.6490   72.9230  218.6420 C   0  0  0  0  0  0  0  0  0  0  0  0
  142.8660   73.9900  218.4800 N   0  0  0  0  0  0  0  0  0  0  0  0
  143.5370   77.6330  219.7680 H   0  0  0  0  0  0  0  0  0  0  0  0
  142.4489   79.5868  218.9809 H   0  0  0  0  0  0  0  0  0  0  0  0
  141.0666   78.4656  218.3730 H   0  0  0  0  0  0  0  0  0  0  0  0
  142.6796   80.9162  221.6415 H   0  0  0  0  0  0  0  0  0  0  0  0
  141.4316   81.3056  222.7566 H   0  0  0  0  0  0  0  0  0  0  0  0
  143.1353   78.6542  222.7281 H   0  0  0  0  0  0  0  0  0  0  0  0
  143.2845   79.8301  223.9743 H   0  0  0  0  0  0  0  0  0  0  0  0
  141.4321   77.8595  224.2373 H   0  0  0  0  0  0  0  0  0  0  0  0
  140.9113   79.4681  224.6992 H   0  0  0  0  0  0  0  0  0  0  0  0
  139.3832   79.3989  222.8657 H   0  0  0  0  0  0  0  0  0  0  0  0
  137.8961   77.5735  222.5297 H   0  0  0  0  0  0  0  0  0  0  0  0
  137.5164   75.1888  221.9944 H   0  0  0  0  0  0  0  0  0  0  0  0
  141.7662   74.6300  221.5952 H   0  0  0  0  0  0  0  0  0  0  0  0
  142.1052   77.0106  222.1321 H   0  0  0  0  0  0  0  0  0  0  0  0
  144.1642   76.1450  220.7129 H   0  0  0  0  0  0  0  0  0  0  0  0
  145.6541   74.1755  221.0538 H   0  0  0  0  0  0  0  0  0  0  0  0
  146.2730   71.8550  220.4400 H   0  0  0  0  0  0  0  0  0  0  0  0
  144.0060   69.7944  217.3911 H   0  0  0  0  0  0  0  0  0  0  0  0
  142.5812   71.8251  217.1433 H   0  0  0  0  0  0  0  0  0  0  0  0
  1  2  2  0
  2  3  1  0
  3  4  1  0
  4  5  1  0
  5  6  2  0
  5  7  1  0
  7  8  1  0
  8  9  1  0
  9 10  1  0
 10 11  1  0
 11 12  1  0
 12 13  2  0
 13 14  1  0
 14 15  2  0
 15 16  1  0
 16 17  1  0
 17 18  1  0
 17 19  1  0
 17 20  1  0
 15 21  1  0
 21 22  2  0
  2 23  1  0
 23 24  2  0
 24 25  1  0
 25 26  2  0
 26 27  1  0
 27 28  2  0
 28 29  1  0
 28 30  1  0
 30 31  2  0
 31 32  1  0
 32 33  2  0
 11  7  1  0
 22 12  1  0
 33 23  1  0
 32 26  1  0
  3 34  1  0
  4 35  1  0
  4 36  1  0
  8 37  1  0
  8 38  1  0
  9 39  1  0
  9 40  1  0
 10 41  1  0
 10 42  1  0
 11 43  1  1
 13 44  1  0
 14 45  1  0
 21 46  1  0
 22 47  1  0
 24 48  1  0
 25 49  1  0
 27 50  1  0
 30 51  1  0
 31 52  1  0
M  END
>  <smiles>  (18) 
O=C(NCC(=O)N1CCCC1c1ccc(OC(F)(F)F)cc1)c1ccc2cc(Cl)ccc2n1

>  <score_type>  (18) 
oracle

>  <origin>  (18) 
autodockgpu

>  <m_score__min__energy>  (18) 
-7.8600000000000003

>  <m_primary>  (18) 
energy

>  <rmsd>  (18) 
7.687548789563762

>  <m_score__min__rmsd>  (18) 
7.687548789563762

>  <meeko>  (18) 
{"free_energy": -6.43, "intermolecular_energy": -8.51, "internal_energy": -2.33, "cluster_size": 9, "cluster_id": 6, "rank_in_cluster": 3}

>  <energy>  (18) 
-7.53

>  <cluster_rmsd>  (18) 
1.49

>  <cluster>  (18) 
1

$$$$

     RDKit          3D

 52 55  0  0  0  0  0  0  0  0999 V2000
  133.5970   70.0340  226.5970 O   0  0  0  0  0  0  0  0  0  0  0  0
  133.8090   71.1560  226.0910 C   0  0  0  0  0  0  0  0  0  0  0  0
  134.7140   71.2000  224.9750 N   0  0  0  0  0  0  0  0  0  0  0  0
  135.3680   70.0630  224.4240 C   0  0  0  0  0  0  0  0  0  0  0  0
  136.4410   70.2340  223.4510 C   0  0  0  0  0  0  0  0  0  0  0  0
  136.8470   71.4870  223.3780 O   0  0  0  0  0  0  0  0  0  0  0  0
  137.0930   69.3600  222.6080 N   0  0  0  0  0  0  0  0  0  0  0  0
  136.7210   68.2360  221.7720 C   0  0  0  0  0  0  0  0  0  0  0  0
  137.7110   67.2120  222.3420 C   0  0  0  0  0  0  0  0  0  0  0  0
  138.9830   67.9950  222.1190 C   0  0  0  0  0  0  0  0  0  0  0  0
  138.5660   69.4180  222.3880 C   0  0  2  0  0  0  0  0  0  0  0  0
  139.2800   69.8700  223.5970 C   0  0  0  0  0  0  0  0  0  0  0  0
  139.3610   69.1830  224.7730 C   0  0  0  0  0  0  0  0  0  0  0  0
  140.0540   69.6740  225.8710 C   0  0  0  0  0  0  0  0  0  0  0  0
  140.6900   70.9020  225.7860 C   0  0  0  0  0  0  0  0  0  0  0  0
  141.4000   71.4530  226.8450 O   0  0  0  0  0  0  0  0  0  0  0  0
  140.9260   71.2250  228.1640 C   0  0  0  0  0  0  0  0  0  0  0  0
  141.8020   71.8360  229.0330 F   0  0  0  0  0  0  0  0  0  0  0  0
  140.7840   69.8760  228.4210 F   0  0  0  0  0  0  0  0  0  0  0  0
  139.6920   71.8450  228.2550 F   0  0  0  0  0  0  0  0  0  0  0  0
  140.6250   71.6210  224.6080 C   0  0  0  0  0  0  0  0  0  0  0  0
  139.9290   71.1040  223.5380 C   0  0  0  0  0  0  0  0  0  0  0  0
  133.1750   72.3690  226.5990 C   0  0  0  0  0  0  0  0  0  0  0  0
  131.9930   72.2430  227.2850 C   0  0  0  0  0  0  0  0  0  0  0  0
  131.4110   73.4010  227.7560 C   0  0  0  0  0  0  0  0  0  0  0  0
  132.0040   74.6430  227.5400 C   0  0  0  0  0  0  0  0  0  0  0  0
  131.4660   75.8180  227.9880 C   0  0  0  0  0  0  0  0  0  0  0  0
  132.1140   77.0260  227.7350 C   0  0  0  0  0  0  0  0  0  0  0  0
  131.4620   78.5540  228.2880 Cl  0  0  0  0  0  0  0  0  0  0  0  0
  133.3050   77.0720  227.0350 C   0  0  0  0  0  0  0  0  0  0  0  0
  133.8340   75.8810  226.5920 C   0  0  0  0  0  0  0  0  0  0  0  0
  133.1880   74.6980  226.8460 C   0  0  0  0  0  0  0  0  0  0  0  0
  133.7370   73.5690  226.3970 N   0  0  0  0  0  0  0  0  0  0  0  0
  134.8590   72.1800  224.5840 H   0  0  0  0  0  0  0  0  0  0  0  0
  135.7934   69.5019  225.2691 H   0  0  0  0  0  0  0  0  0  0  0  0
  134.5740   69.5762  223.8387 H   0  0  0  0  0  0  0  0  0  0  0  0
  135.6744   67.9327  221.9225 H   0  0  0  0  0  0  0  0  0  0  0  0
  136.7705   68.4038  220.6860 H   0  0  0  0  0  0  0  0  0  0  0  0
  137.5301   67.0073  223.4075 H   0  0  0  0  0  0  0  0  0  0  0  0
  137.6784   66.2092  221.8912 H   0  0  0  0  0  0  0  0  0  0  0  0
  139.7698   67.6760  222.8185 H   0  0  0  0  0  0  0  0  0  0  0  0
  139.4051   67.8530  221.1132 H   0  0  0  0  0  0  0  0  0  0  0  0
  138.8012   70.1177  221.5725 H   0  0  0  0  0  0  0  0  0  0  0  0
  138.8602   68.2070  224.8538 H   0  0  0  0  0  0  0  0  0  0  0  0
  140.0980   69.0916  226.8031 H   0  0  0  0  0  0  0  0  0  0  0  0
  141.1246   72.5975  224.5255 H   0  0  0  0  0  0  0  0  0  0  0  0
  139.8831   71.6839  222.6044 H   0  0  0  0  0  0  0  0  0  0  0  0
  131.5294   71.2596  227.4521 H   0  0  0  0  0  0  0  0  0  0  0  0
  130.4632   73.3432  228.3112 H   0  0  0  0  0  0  0  0  0  0  0  0
  130.5199   75.8097  228.5492 H   0  0  0  0  0  0  0  0  0  0  0  0
  133.8127   78.0278  226.8387 H   0  0  0  0  0  0  0  0  0  0  0  0
  134.7802   75.8779  226.0311 H   0  0  0  0  0  0  0  0  0  0  0  0
  1  2  2  0
  2  3  1  0
  3  4  1  0
  4  5  1  0
  5  6  2  0
  5  7  1  0
  7  8  1  0
  8  9  1  0
  9 10  1  0
 10 11  1  0
 11 12  1  0
 12 13  2  0
 13 14  1  0
 14 15  2  0
 15 16  1  0
 16 17  1  0
 17 18  1  0
 17 19  1  0
 17 20  1  0
 15 21  1  0
 21 22  2  0
  2 23  1  0
 23 24  2  0
 24 25  1  0
 25 26  2  0
 26 27  1  0
 27 28  2  0
 28 29  1  0
 28 30  1  0
 30 31  2  0
 31 32  1  0
 32 33  2  0
 11  7  1  0
 22 12  1  0
 33 23  1  0
 32 26  1  0
  3 34  1  0
  4 35  1  0
  4 36  1  0
  8 37  1  0
  8 38  1  0
  9 39  1  0
  9 40  1  0
 10 41  1  0
 10 42  1  0
 11 43  1  6
 13 44  1  0
 14 45  1  0
 21 46  1  0
 22 47  1  0
 24 48  1  0
 25 49  1  0
 27 50  1  0
 30 51  1  0
 31 52  1  0
M  END
>  <smiles>  (19) 
O=C(NCC(=O)N1CCCC1c1ccc(OC(F)(F)F)cc1)c1ccc2cc(Cl)ccc2n1

>  <score_type>  (19) 
oracle

>  <origin>  (19) 
autodockgpu

>  <m_score__min__energy>  (19) 
-7.8600000000000003

>  <m_primary>  (19) 
energy

>  <rmsd>  (19) 
8.621185920670424

>  <m_score__min__rmsd>  (19) 
8.621185920670424

>  <meeko>  (19) 
{"free_energy": -7.46, "intermolecular_energy": -9.55, "internal_energy": -1.85, "cluster_size": 1, "cluster_id": 5, "rank_in_cluster": 1}

>  <energy>  (19) 
-7.47

>  <cluster_rmsd>  (19) 
1.5

>  <cluster>  (19) 
1

$$$$

     RDKit          3D

 52 55  0  0  0  0  0  0  0  0999 V2000
  140.7230   72.3820  220.7780 O   0  0  0  0  0  0  0  0  0  0  0  0
  140.3170   72.7030  221.9140 C   0  0  0  0  0  0  0  0  0  0  0  0
  139.9370   74.0770  222.1010 N   0  0  0  0  0  0  0  0  0  0  0  0
  139.9940   75.0720  221.0860 C   0  0  0  0  0  0  0  0  0  0  0  0
  140.8410   76.2470  221.2580 C   0  0  0  0  0  0  0  0  0  0  0  0
  141.0810   76.5010  222.5310 O   0  0  0  0  0  0  0  0  0  0  0  0
  141.4220   77.1260  220.3690 N   0  0  0  0  0  0  0  0  0  0  0  0
  141.0480   78.3730  219.7330 C   0  0  0  0  0  0  0  0  0  0  0  0
  141.2890   77.9480  218.2780 C   0  0  0  0  0  0  0  0  0  0  0  0
  142.7300   77.5160  218.4170 C   0  0  0  0  0  0  0  0  0  0  0  0
  142.7740   76.8910  219.7870 C   0  0  2  0  0  0  0  0  0  0  0  0
  143.0490   75.4520  219.6110 C   0  0  0  0  0  0  0  0  0  0  0  0
  142.4220   74.6290  218.7210 C   0  0  0  0  0  0  0  0  0  0  0  0
  142.7360   73.2810  218.6130 C   0  0  0  0  0  0  0  0  0  0  0  0
  143.7160   72.7380  219.4270 C   0  0  0  0  0  0  0  0  0  0  0  0
  144.0790   71.3990  219.3720 O   0  0  0  0  0  0  0  0  0  0  0  0
  145.3650   71.0710  218.8650 C   0  0  0  0  0  0  0  0  0  0  0  0
  146.2950   71.4630  219.8030 F   0  0  0  0  0  0  0  0  0  0  0  0
  145.5820   71.6550  217.6320 F   0  0  0  0  0  0  0  0  0  0  0  0
  145.4030   69.6950  218.7390 F   0  0  0  0  0  0  0  0  0  0  0  0
  144.3670   73.5470  220.3380 C   0  0  0  0  0  0  0  0  0  0  0  0
  144.0310   74.8810  220.4200 C   0  0  0  0  0  0  0  0  0  0  0  0
  140.2270   71.7390  223.0070 C   0  0  0  0  0  0  0  0  0  0  0  0
  139.6510   70.5200  222.7500 C   0  0  0  0  0  0  0  0  0  0  0  0
  139.5770   69.6240  223.7960 C   0  0  0  0  0  0  0  0  0  0  0  0
  140.0690   69.9510  225.0570 C   0  0  0  0  0  0  0  0  0  0  0  0
  140.0180   69.0970  226.1250 C   0  0  0  0  0  0  0  0  0  0  0  0
  140.5290   69.4890  227.3600 C   0  0  0  0  0  0  0  0  0  0  0  0
  140.4860   68.4300  228.7540 Cl  0  0  0  0  0  0  0  0  0  0  0  0
  141.0960   70.7370  227.5420 C   0  0  0  0  0  0  0  0  0  0  0  0
  141.1400   71.5850  226.4580 C   0  0  0  0  0  0  0  0  0  0  0  0
  140.6340   71.1880  225.2460 C   0  0  0  0  0  0  0  0  0  0  0  0
  140.6980   72.0420  224.2250 N   0  0  0  0  0  0  0  0  0  0  0  0
  139.6000   74.2950  223.0860 H   0  0  0  0  0  0  0  0  0  0  0  0
  140.3326   74.5691  220.1682 H   0  0  0  0  0  0  0  0  0  0  0  0
  138.9776   75.4926  221.0895 H   0  0  0  0  0  0  0  0  0  0  0  0
  139.9973   78.6386  219.9214 H   0  0  0  0  0  0  0  0  0  0  0  0
  141.5883   79.2696  220.0710 H   0  0  0  0  0  0  0  0  0  0  0  0
  140.6337   77.1189  217.9728 H   0  0  0  0  0  0  0  0  0  0  0  0
  141.0874   78.7128  217.5135 H   0  0  0  0  0  0  0  0  0  0  0  0
  142.9985   76.7839  217.6411 H   0  0  0  0  0  0  0  0  0  0  0  0
  143.4415   78.3466  218.2998 H   0  0  0  0  0  0  0  0  0  0  0  0
  143.5493   77.3074  220.4469 H   0  0  0  0  0  0  0  0  0  0  0  0
  141.6422   75.0475  218.0677 H   0  0  0  0  0  0  0  0  0  0  0  0
  142.2090   72.6474  217.8845 H   0  0  0  0  0  0  0  0  0  0  0  0
  145.1468   73.1300  220.9923 H   0  0  0  0  0  0  0  0  0  0  0  0
  144.5553   75.5171  221.1484 H   0  0  0  0  0  0  0  0  0  0  0  0
  139.2645   70.2681  221.7514 H   0  0  0  0  0  0  0  0  0  0  0  0
  139.1223   68.6359  223.6316 H   0  0  0  0  0  0  0  0  0  0  0  0
  139.5722   68.0982  226.0079 H   0  0  0  0  0  0  0  0  0  0  0  0
  141.4981   71.0420  228.5194 H   0  0  0  0  0  0  0  0  0  0  0  0
  141.5832   72.5861  226.5643 H   0  0  0  0  0  0  0  0  0  0  0  0
  1  2  2  0
  2  3  1  0
  3  4  1  0
  4  5  1  0
  5  6  2  0
  5  7  1  0
  7  8  1  0
  8  9  1  0
  9 10  1  0
 10 11  1  0
 11 12  1  0
 12 13  2  0
 13 14  1  0
 14 15  2  0
 15 16  1  0
 16 17  1  0
 17 18  1  0
 17 19  1  0
 17 20  1  0
 15 21  1  0
 21 22  2  0
  2 23  1  0
 23 24  2  0
 24 25  1  0
 25 26  2  0
 26 27  1  0
 27 28  2  0
 28 29  1  0
 28 30  1  0
 30 31  2  0
 31 32  1  0
 32 33  2  0
 11  7  1  0
 22 12  1  0
 33 23  1  0
 32 26  1  0
  3 34  1  0
  4 35  1  0
  4 36  1  0
  8 37  1  0
  8 38  1  0
  9 39  1  0
  9 40  1  0
 10 41  1  0
 10 42  1  0
 11 43  1  1
 13 44  1  0
 14 45  1  0
 21 46  1  0
 22 47  1  0
 24 48  1  0
 25 49  1  0
 27 50  1  0
 30 51  1  0
 31 52  1  0
M  END
>  <smiles>  (20) 
O=C(NCC(=O)N1CCCC1c1ccc(OC(F)(F)F)cc1)c1ccc2cc(Cl)ccc2n1

>  <score_type>  (20) 
oracle

>  <origin>  (20) 
autodockgpu

>  <m_score__min__energy>  (20) 
-7.8600000000000003

>  <m_primary>  (20) 
energy

>  <rmsd>  (20) 
2.229548894354166

>  <m_score__min__rmsd>  (20) 
2.229548894354166

>  <meeko>  (20) 
{"free_energy": -7.31, "intermolecular_energy": -9.4, "internal_energy": -2.12, "cluster_size": 11, "cluster_id": 2, "rank_in_cluster": 4}

>  <energy>  (20) 
-7.46

>  <cluster_rmsd>  (20) 
0.95

>  <cluster>  (20) 
1

$$$$

     RDKit          3D

 52 55  0  0  0  0  0  0  0  0999 V2000
  139.6160   73.8160  222.3400 O   0  0  0  0  0  0  0  0  0  0  0  0
  139.8530   72.6130  222.1040 C   0  0  0  0  0  0  0  0  0  0  0  0
  140.0610   72.2520  220.7270 N   0  0  0  0  0  0  0  0  0  0  0  0
  140.0140   73.1690  219.6410 C   0  0  0  0  0  0  0  0  0  0  0  0
  141.2070   73.4180  218.8400 C   0  0  0  0  0  0  0  0  0  0  0  0
  140.9080   73.7740  217.6050 O   0  0  0  0  0  0  0  0  0  0  0  0
  142.5560   73.3480  219.1150 N   0  0  0  0  0  0  0  0  0  0  0  0
  143.5540   72.3020  219.2090 C   0  0  0  0  0  0  0  0  0  0  0  0
  144.0690   72.6270  220.6180 C   0  0  0  0  0  0  0  0  0  0  0  0
  144.4380   74.0720  220.3840 C   0  0  0  0  0  0  0  0  0  0  0  0
  143.3630   74.5570  219.4460 C   0  0  2  0  0  0  0  0  0  0  0  0
  142.5640   75.5650  220.1680 C   0  0  0  0  0  0  0  0  0  0  0  0
  141.7920   75.3240  221.2670 C   0  0  0  0  0  0  0  0  0  0  0  0
  141.0660   76.3280  221.8950 C   0  0  0  0  0  0  0  0  0  0  0  0
  141.1160   77.6210  221.4010 C   0  0  0  0  0  0  0  0  0  0  0  0
  140.4150   78.6720  221.9790 O   0  0  0  0  0  0  0  0  0  0  0  0
  141.0330   79.3910  223.0360 C   0  0  0  0  0  0  0  0  0  0  0  0
  141.8390   80.3540  222.4710 F   0  0  0  0  0  0  0  0  0  0  0  0
  141.7310   78.5470  223.8770 F   0  0  0  0  0  0  0  0  0  0  0  0
  140.0160   80.0100  223.7420 F   0  0  0  0  0  0  0  0  0  0  0  0
  141.8890   77.8950  220.2890 C   0  0  0  0  0  0  0  0  0  0  0  0
  142.5960   76.8750  219.6910 C   0  0  0  0  0  0  0  0  0  0  0  0
  139.9200   71.6120  223.1660 C   0  0  0  0  0  0  0  0  0  0  0  0
  139.4790   70.3420  222.8870 C   0  0  0  0  0  0  0  0  0  0  0  0
  139.5510   69.4130  223.9040 C   0  0  0  0  0  0  0  0  0  0  0  0
  140.0510   69.7570  225.1580 C   0  0  0  0  0  0  0  0  0  0  0  0
  140.1420   68.8720  226.1960 C   0  0  0  0  0  0  0  0  0  0  0  0
  140.6520   69.2850  227.4250 C   0  0  0  0  0  0  0  0  0  0  0  0
  140.7860   68.1870  228.7830 Cl  0  0  0  0  0  0  0  0  0  0  0  0
  141.0770   70.5840  227.6300 C   0  0  0  0  0  0  0  0  0  0  0  0
  140.9790   71.4630  226.5750 C   0  0  0  0  0  0  0  0  0  0  0  0
  140.4750   71.0470  225.3690 C   0  0  0  0  0  0  0  0  0  0  0  0
  140.3990   71.9320  224.3750 N   0  0  0  0  0  0  0  0  0  0  0  0
  140.2580   71.2160  220.5840 H   0  0  0  0  0  0  0  0  0  0  0  0
  139.2397   72.8030  218.9507 H   0  0  0  0  0  0  0  0  0  0  0  0
  139.8377   74.1354  220.1359 H   0  0  0  0  0  0  0  0  0  0  0  0
  143.1115   71.2968  219.1483 H   0  0  0  0  0  0  0  0  0  0  0  0
  144.3103   72.2821  218.4104 H   0  0  0  0  0  0  0  0  0  0  0  0
  143.2861   72.5163  221.3827 H   0  0  0  0  0  0  0  0  0  0  0  0
  144.8741   71.9803  220.9968 H   0  0  0  0  0  0  0  0  0  0  0  0
  144.4244   74.6397  221.3261 H   0  0  0  0  0  0  0  0  0  0  0  0
  145.4524   74.1967  219.9773 H   0  0  0  0  0  0  0  0  0  0  0  0
  143.7454   75.0220  218.5254 H   0  0  0  0  0  0  0  0  0  0  0  0
  141.7430   74.3012  221.6688 H   0  0  0  0  0  0  0  0  0  0  0  0
  140.4546   76.0974  222.7799 H   0  0  0  0  0  0  0  0  0  0  0  0
  141.9394   78.9170  219.8854 H   0  0  0  0  0  0  0  0  0  0  0  0
  143.2077   77.1020  218.8054 H   0  0  0  0  0  0  0  0  0  0  0  0
  139.0851   70.0767  221.8948 H   0  0  0  0  0  0  0  0  0  0  0  0
  139.2080   68.3838  223.7220 H   0  0  0  0  0  0  0  0  0  0  0  0
  139.8118   67.8315  226.0606 H   0  0  0  0  0  0  0  0  0  0  0  0
  141.4795   70.9044  228.6023 H   0  0  0  0  0  0  0  0  0  0  0  0
  141.3070   72.5055  226.6999 H   0  0  0  0  0  0  0  0  0  0  0  0
  1  2  2  0
  2  3  1  0
  3  4  1  0
  4  5  1  0
  5  6  2  0
  5  7  1  0
  7  8  1  0
  8  9  1  0
  9 10  1  0
 10 11  1  0
 11 12  1  0
 12 13  2  0
 13 14  1  0
 14 15  2  0
 15 16  1  0
 16 17  1  0
 17 18  1  0
 17 19  1  0
 17 20  1  0
 15 21  1  0
 21 22  2  0
  2 23  1  0
 23 24  2  0
 24 25  1  0
 25 26  2  0
 26 27  1  0
 27 28  2  0
 28 29  1  0
 28 30  1  0
 30 31  2  0
 31 32  1  0
 32 33  2  0
 11  7  1  0
 22 12  1  0
 33 23  1  0
 32 26  1  0
  3 34  1  0
  4 35  1  0
  4 36  1  0
  8 37  1  0
  8 38  1  0
  9 39  1  0
  9 40  1  0
 10 41  1  0
 10 42  1  0
 11 43  1  6
 13 44  1  0
 14 45  1  0
 21 46  1  0
 22 47  1  0
 24 48  1  0
 25 49  1  0
 27 50  1  0
 30 51  1  0
 31 52  1  0
M  END
>  <smiles>  (21) 
O=C(NCC(=O)N1CCCC1c1ccc(OC(F)(F)F)cc1)c1ccc2cc(Cl)ccc2n1

>  <score_type>  (21) 
oracle

>  <origin>  (21) 
autodockgpu

>  <m_score__min__energy>  (21) 
-7.8600000000000003

>  <m_primary>  (21) 
energy

>  <rmsd>  (21) 
3.2770168356746674

>  <m_score__min__rmsd>  (21) 
3.2770168356746674

>  <meeko>  (21) 
{"free_energy": -7.86, "intermolecular_energy": -9.95, "internal_energy": -1.73, "cluster_size": 23, "cluster_id": 1, "rank_in_cluster": 1}

>  <energy>  (21) 
-7.4

>  <cluster_rmsd>  (21) 
1.52

>  <cluster>  (21) 
1

$$$$

     RDKit          3D

 52 55  0  0  0  0  0  0  0  0999 V2000
  139.5980   73.7740  222.3470 O   0  0  0  0  0  0  0  0  0  0  0  0
  139.7800   72.5590  222.1190 C   0  0  0  0  0  0  0  0  0  0  0  0
  139.9030   72.1710  220.7400 N   0  0  0  0  0  0  0  0  0  0  0  0
  139.8330   73.0730  219.6430 C   0  0  0  0  0  0  0  0  0  0  0  0
  141.0480   73.4630  218.9360 C   0  0  0  0  0  0  0  0  0  0  0  0
  140.7820   74.0870  217.8040 O   0  0  0  0  0  0  0  0  0  0  0  0
  142.3880   73.3040  219.2130 N   0  0  0  0  0  0  0  0  0  0  0  0
  143.3070   72.1920  219.3450 C   0  0  0  0  0  0  0  0  0  0  0  0
  143.8490   72.5290  220.7400 C   0  0  0  0  0  0  0  0  0  0  0  0
  144.3230   73.9340  220.4530 C   0  0  0  0  0  0  0  0  0  0  0  0
  143.2830   74.4620  219.4990 C   0  0  2  0  0  0  0  0  0  0  0  0
  142.5630   75.5520  220.1840 C   0  0  0  0  0  0  0  0  0  0  0  0
  141.7200   75.3980  221.2460 C   0  0  0  0  0  0  0  0  0  0  0  0
  141.0770   76.4760  221.8400 C   0  0  0  0  0  0  0  0  0  0  0  0
  141.2860   77.7540  221.3510 C   0  0  0  0  0  0  0  0  0  0  0  0
  140.6740   78.8750  221.8960 O   0  0  0  0  0  0  0  0  0  0  0  0
  141.3300   79.5490  222.9610 C   0  0  0  0  0  0  0  0  0  0  0  0
  141.6650   78.6060  223.9080 F   0  0  0  0  0  0  0  0  0  0  0  0
  140.5420   80.5570  223.4780 F   0  0  0  0  0  0  0  0  0  0  0  0
  142.4890   80.0910  222.4340 F   0  0  0  0  0  0  0  0  0  0  0  0
  142.1330   77.9400  220.2760 C   0  0  0  0  0  0  0  0  0  0  0  0
  142.7560   76.8490  219.7100 C   0  0  0  0  0  0  0  0  0  0  0  0
  139.8650   71.5720  223.1930 C   0  0  0  0  0  0  0  0  0  0  0  0
  139.4210   70.2990  222.9390 C   0  0  0  0  0  0  0  0  0  0  0  0
  139.5110   69.3830  223.9660 C   0  0  0  0  0  0  0  0  0  0  0  0
  140.0310   69.7440  225.2070 C   0  0  0  0  0  0  0  0  0  0  0  0
  140.1400   68.8720  226.2550 C   0  0  0  0  0  0  0  0  0  0  0  0
  140.6710   69.3010  227.4700 C   0  0  0  0  0  0  0  0  0  0  0  0
  140.8290   68.2210  228.8390 Cl  0  0  0  0  0  0  0  0  0  0  0  0
  141.0980   70.6040  227.6500 C   0  0  0  0  0  0  0  0  0  0  0  0
  140.9810   71.4690  226.5860 C   0  0  0  0  0  0  0  0  0  0  0  0
  140.4580   71.0360  225.3940 C   0  0  0  0  0  0  0  0  0  0  0  0
  140.3640   71.9090  224.3900 N   0  0  0  0  0  0  0  0  0  0  0  0
  140.0550   71.1260  220.6050 H   0  0  0  0  0  0  0  0  0  0  0  0
  139.1663   72.6144  218.8979 H   0  0  0  0  0  0  0  0  0  0  0  0
  139.5024   74.0121  220.1108 H   0  0  0  0  0  0  0  0  0  0  0  0
  142.7918   71.2204  219.3215 H   0  0  0  0  0  0  0  0  0  0  0  0
  144.0572   72.0879  218.5473 H   0  0  0  0  0  0  0  0  0  0  0  0
  143.0627   72.5043  221.5088 H   0  0  0  0  0  0  0  0  0  0  0  0
  144.6055   71.8388  221.1417 H   0  0  0  0  0  0  0  0  0  0  0  0
  144.3547   74.5351  221.3737 H   0  0  0  0  0  0  0  0  0  0  0  0
  145.3424   73.9689  220.0413 H   0  0  0  0  0  0  0  0  0  0  0  0
  143.6951   74.8636  218.5615 H   0  0  0  0  0  0  0  0  0  0  0  0
  141.5442   74.3878  221.6442 H   0  0  0  0  0  0  0  0  0  0  0  0
  140.4045   76.3150  222.6954 H   0  0  0  0  0  0  0  0  0  0  0  0
  142.3085   78.9494  219.8755 H   0  0  0  0  0  0  0  0  0  0  0  0
  143.4291   77.0068  218.8544 H   0  0  0  0  0  0  0  0  0  0  0  0
  139.0104   70.0206  221.9572 H   0  0  0  0  0  0  0  0  0  0  0  0
  139.1668   68.3511  223.8027 H   0  0  0  0  0  0  0  0  0  0  0  0
  139.8078   67.8298  226.1386 H   0  0  0  0  0  0  0  0  0  0  0  0
  141.5169   70.9376  228.6108 H   0  0  0  0  0  0  0  0  0  0  0  0
  141.3088   72.5137  226.6920 H   0  0  0  0  0  0  0  0  0  0  0  0
  1  2  2  0
  2  3  1  0
  3  4  1  0
  4  5  1  0
  5  6  2  0
  5  7  1  0
  7  8  1  0
  8  9  1  0
  9 10  1  0
 10 11  1  0
 11 12  1  0
 12 13  2  0
 13 14  1  0
 14 15  2  0
 15 16  1  0
 16 17  1  0
 17 18  1  0
 17 19  1  0
 17 20  1  0
 15 21  1  0
 21 22  2  0
  2 23  1  0
 23 24  2  0
 24 25  1  0
 25 26  2  0
 26 27  1  0
 27 28  2  0
 28 29  1  0
 28 30  1  0
 30 31  2  0
 31 32  1  0
 32 33  2  0
 11  7  1  0
 22 12  1  0
 33 23  1  0
 32 26  1  0
  3 34  1  0
  4 35  1  0
  4 36  1  0
  8 37  1  0
  8 38  1  0
  9 39  1  0
  9 40  1  0
 10 41  1  0
 10 42  1  0
 11 43  1  6
 13 44  1  0
 14 45  1  0
 21 46  1  0
 22 47  1  0
 24 48  1  0
 25 49  1  0
 27 50  1  0
 30 51  1  0
 31 52  1  0
M  END
>  <smiles>  (22) 
O=C(NCC(=O)N1CCCC1c1ccc(OC(F)(F)F)cc1)c1ccc2cc(Cl)ccc2n1

>  <score_type>  (22) 
oracle

>  <origin>  (22) 
autodockgpu

>  <m_score__min__energy>  (22) 
-7.8600000000000003

>  <m_primary>  (22) 
energy

>  <rmsd>  (22) 
3.2266050551478984

>  <m_score__min__rmsd>  (22) 
3.2266050551478984

>  <meeko>  (22) 
{"free_energy": -7.78, "intermolecular_energy": -9.87, "internal_energy": -1.79, "cluster_size": 23, "cluster_id": 1, "rank_in_cluster": 9}

>  <energy>  (22) 
-7.37

>  <cluster_rmsd>  (22) 
1.55

>  <cluster>  (22) 
1

$$$$

     RDKit          3D

 52 55  0  0  0  0  0  0  0  0999 V2000
  142.2080   79.5590  219.8460 O   0  0  0  0  0  0  0  0  0  0  0  0
  141.6440   78.5940  219.2870 C   0  0  0  0  0  0  0  0  0  0  0  0
  140.2540   78.7590  218.9590 N   0  0  0  0  0  0  0  0  0  0  0  0
  139.4990   79.9350  219.2280 C   0  0  0  0  0  0  0  0  0  0  0  0
  139.0980   80.2520  220.5940 C   0  0  0  0  0  0  0  0  0  0  0  0
  137.8230   79.9900  220.8080 O   0  0  0  0  0  0  0  0  0  0  0  0
  139.7780   80.7660  221.6770 N   0  0  0  0  0  0  0  0  0  0  0  0
  140.5230   81.9740  221.9710 C   0  0  0  0  0  0  0  0  0  0  0  0
  141.8210   81.3120  222.4490 C   0  0  0  0  0  0  0  0  0  0  0  0
  141.2320   80.4450  223.5370 C   0  0  0  0  0  0  0  0  0  0  0  0
  139.9050   80.0210  222.9620 C   0  0  2  0  0  0  0  0  0  0  0  0
  139.9600   78.5630  222.7440 C   0  0  0  0  0  0  0  0  0  0  0  0
  141.0990   77.8300  222.5800 C   0  0  0  0  0  0  0  0  0  0  0  0
  141.0710   76.4560  222.3790 C   0  0  0  0  0  0  0  0  0  0  0  0
  139.8550   75.7940  222.3400 C   0  0  0  0  0  0  0  0  0  0  0  0
  139.7540   74.4230  222.1420 O   0  0  0  0  0  0  0  0  0  0  0  0
  139.9860   73.9130  220.8380 C   0  0  0  0  0  0  0  0  0  0  0  0
  141.0460   73.0360  220.9150 F   0  0  0  0  0  0  0  0  0  0  0  0
  140.2110   74.9320  219.9330 F   0  0  0  0  0  0  0  0  0  0  0  0
  138.8480   73.2150  220.4760 F   0  0  0  0  0  0  0  0  0  0  0  0
  138.6850   76.5110  222.5020 C   0  0  0  0  0  0  0  0  0  0  0  0
  138.7490   77.8730  222.7000 C   0  0  0  0  0  0  0  0  0  0  0  0
  142.3520   77.3550  218.9770 C   0  0  0  0  0  0  0  0  0  0  0  0
  142.6880   77.1110  217.6690 C   0  0  0  0  0  0  0  0  0  0  0  0
  143.3560   75.9350  217.3990 C   0  0  0  0  0  0  0  0  0  0  0  0
  143.6720   75.0380  218.4170 C   0  0  0  0  0  0  0  0  0  0  0  0
  144.3330   73.8610  218.1980 C   0  0  0  0  0  0  0  0  0  0  0  0
  144.6170   73.0090  219.2640 C   0  0  0  0  0  0  0  0  0  0  0  0
  145.4610   71.4920  219.0320 Cl  0  0  0  0  0  0  0  0  0  0  0  0
  144.2450   73.3250  220.5570 C   0  0  0  0  0  0  0  0  0  0  0  0
  143.5810   74.5130  220.7610 C   0  0  0  0  0  0  0  0  0  0  0  0
  143.3070   75.3440  219.7050 C   0  0  0  0  0  0  0  0  0  0  0  0
  142.6610   76.4850  219.9490 N   0  0  0  0  0  0  0  0  0  0  0  0
  139.8240   77.9080  218.4870 H   0  0  0  0  0  0  0  0  0  0  0  0
  140.0976   80.7849  218.8683 H   0  0  0  0  0  0  0  0  0  0  0  0
  138.5410   79.7390  218.7242 H   0  0  0  0  0  0  0  0  0  0  0  0
  140.6772   82.5965  221.0773 H   0  0  0  0  0  0  0  0  0  0  0  0
  140.0499   82.6740  222.6754 H   0  0  0  0  0  0  0  0  0  0  0  0
  142.3007   80.7175  221.6575 H   0  0  0  0  0  0  0  0  0  0  0  0
  142.6235   81.9965  222.7610 H   0  0  0  0  0  0  0  0  0  0  0  0
  141.8721   79.5728  223.7357 H   0  0  0  0  0  0  0  0  0  0  0  0
  141.1365   80.9681  224.4999 H   0  0  0  0  0  0  0  0  0  0  0  0
  139.0437   80.2354  223.6118 H   0  0  0  0  0  0  0  0  0  0  0  0
  142.0711   78.3440  222.6079 H   0  0  0  0  0  0  0  0  0  0  0  0
  142.0095   75.8966  222.2515 H   0  0  0  0  0  0  0  0  0  0  0  0
  137.7117   75.9993  222.4732 H   0  0  0  0  0  0  0  0  0  0  0  0
  137.8124   78.4356  222.8278 H   0  0  0  0  0  0  0  0  0  0  0  0
  142.4352   77.8232  216.8697 H   0  0  0  0  0  0  0  0  0  0  0  0
  143.6439   75.7016  216.3633 H   0  0  0  0  0  0  0  0  0  0  0  0
  144.6412   73.5861  217.1785 H   0  0  0  0  0  0  0  0  0  0  0  0
  144.4720   72.6495  221.3950 H   0  0  0  0  0  0  0  0  0  0  0  0
  143.2683   74.7976  221.7765 H   0  0  0  0  0  0  0  0  0  0  0  0
  1  2  2  0
  2  3  1  0
  3  4  1  0
  4  5  1  0
  5  6  2  0
  5  7  1  0
  7  8  1  0
  8  9  1  0
  9 10  1  0
 10 11  1  0
 11 12  1  0
 12 13  2  0
 13 14  1  0
 14 15  2  0
 15 16  1  0
 16 17  1  0
 17 18  1  0
 17 19  1  0
 17 20  1  0
 15 21  1  0
 21 22  2  0
  2 23  1  0
 23 24  2  0
 24 25  1  0
 25 26  2  0
 26 27  1  0
 27 28  2  0
 28 29  1  0
 28 30  1  0
 30 31  2  0
 31 32  1  0
 32 33  2  0
 11  7  1  0
 22 12  1  0
 33 23  1  0
 32 26  1  0
  3 34  1  0
  4 35  1  0
  4 36  1  0
  8 37  1  0
  8 38  1  0
  9 39  1  0
  9 40  1  0
 10 41  1  0
 10 42  1  0
 11 43  1  1
 13 44  1  0
 14 45  1  0
 21 46  1  0
 22 47  1  0
 24 48  1  0
 25 49  1  0
 27 50  1  0
 30 51  1  0
 31 52  1  0
M  END
>  <smiles>  (23) 
O=C(NCC(=O)N1CCCC1c1ccc(OC(F)(F)F)cc1)c1ccc2cc(Cl)ccc2n1

>  <score_type>  (23) 
oracle

>  <origin>  (23) 
autodockgpu

>  <m_score__min__energy>  (23) 
-7.8600000000000003

>  <m_primary>  (23) 
energy

>  <rmsd>  (23) 
8.193388373287416

>  <m_score__min__rmsd>  (23) 
8.193388373287416

>  <meeko>  (23) 
{"free_energy": -5.99, "intermolecular_energy": -8.08, "internal_energy": -2.94, "cluster_size": 9, "cluster_id": 6, "rank_in_cluster": 7}

>  <energy>  (23) 
-7.35

>  <cluster_rmsd>  (23) 
1.54

>  <cluster>  (23) 
1

$$$$

     RDKit          3D

 52 55  0  0  0  0  0  0  0  0999 V2000
  139.6190   73.7940  222.3480 O   0  0  0  0  0  0  0  0  0  0  0  0
  139.6730   72.5710  222.1000 C   0  0  0  0  0  0  0  0  0  0  0  0
  139.6060   72.1890  220.7150 N   0  0  0  0  0  0  0  0  0  0  0  0
  139.4860   73.1050  219.6340 C   0  0  0  0  0  0  0  0  0  0  0  0
  140.6790   73.6990  219.0410 C   0  0  0  0  0  0  0  0  0  0  0  0
  140.3790   74.6240  218.1490 O   0  0  0  0  0  0  0  0  0  0  0  0
  142.0270   73.4820  219.2240 N   0  0  0  0  0  0  0  0  0  0  0  0
  142.9000   72.3290  219.3150 C   0  0  0  0  0  0  0  0  0  0  0  0
  143.5590   72.6680  220.6590 C   0  0  0  0  0  0  0  0  0  0  0  0
  144.0750   74.0420  220.3060 C   0  0  0  0  0  0  0  0  0  0  0  0
  142.9940   74.6010  219.4170 C   0  0  2  0  0  0  0  0  0  0  0  0
  142.3770   75.7370  220.1270 C   0  0  0  0  0  0  0  0  0  0  0  0
  142.4430   77.0430  219.7380 C   0  0  0  0  0  0  0  0  0  0  0  0
  141.8350   78.0610  220.4600 C   0  0  0  0  0  0  0  0  0  0  0  0
  141.1330   77.7580  221.6150 C   0  0  0  0  0  0  0  0  0  0  0  0
  140.5010   78.7260  222.3850 O   0  0  0  0  0  0  0  0  0  0  0  0
  141.2920   79.4970  223.2780 C   0  0  0  0  0  0  0  0  0  0  0  0
  140.4670   80.4330  223.8620 F   0  0  0  0  0  0  0  0  0  0  0  0
  142.3650   80.0730  222.6270 F   0  0  0  0  0  0  0  0  0  0  0  0
  141.7520   78.6300  224.2520 F   0  0  0  0  0  0  0  0  0  0  0  0
  141.0490   76.4440  222.0340 C   0  0  0  0  0  0  0  0  0  0  0  0
  141.6650   75.4580  221.2940 C   0  0  0  0  0  0  0  0  0  0  0  0
  139.7980   71.5690  223.1550 C   0  0  0  0  0  0  0  0  0  0  0  0
  139.3970   70.2860  222.8810 C   0  0  0  0  0  0  0  0  0  0  0  0
  139.5230   69.3560  223.8910 C   0  0  0  0  0  0  0  0  0  0  0  0
  140.0380   69.7130  225.1350 C   0  0  0  0  0  0  0  0  0  0  0  0
  140.1830   68.8270  226.1680 C   0  0  0  0  0  0  0  0  0  0  0  0
  140.7060   69.2530  227.3870 C   0  0  0  0  0  0  0  0  0  0  0  0
  140.9090   68.1550  228.7360 Cl  0  0  0  0  0  0  0  0  0  0  0  0
  141.0890   70.5660  227.5880 C   0  0  0  0  0  0  0  0  0  0  0  0
  140.9370   71.4450  226.5400 C   0  0  0  0  0  0  0  0  0  0  0  0
  140.4220   71.0150  225.3430 C   0  0  0  0  0  0  0  0  0  0  0  0
  140.2920   71.9020  224.3560 N   0  0  0  0  0  0  0  0  0  0  0  0
  139.6550   71.1370  220.5620 H   0  0  0  0  0  0  0  0  0  0  0  0
  138.9612   72.5744  218.8259 H   0  0  0  0  0  0  0  0  0  0  0  0
  138.9767   73.9666  220.0903 H   0  0  0  0  0  0  0  0  0  0  0  0
  142.3393   71.3834  219.3523 H   0  0  0  0  0  0  0  0  0  0  0  0
  143.5834   72.1720  218.4675 H   0  0  0  0  0  0  0  0  0  0  0  0
  142.8313   72.6964  221.4834 H   0  0  0  0  0  0  0  0  0  0  0  0
  144.3105   71.9506  221.0202 H   0  0  0  0  0  0  0  0  0  0  0  0
  144.2016   74.6590  221.2078 H   0  0  0  0  0  0  0  0  0  0  0  0
  145.0620   74.0194  219.8210 H   0  0  0  0  0  0  0  0  0  0  0  0
  143.3552   74.9638  218.4434 H   0  0  0  0  0  0  0  0  0  0  0  0
  142.9962   77.2978  218.8220 H   0  0  0  0  0  0  0  0  0  0  0  0
  141.9104   79.1033  220.1165 H   0  0  0  0  0  0  0  0  0  0  0  0
  140.4957   76.1874  222.9494 H   0  0  0  0  0  0  0  0  0  0  0  0
  141.5928   74.4148  221.6353 H   0  0  0  0  0  0  0  0  0  0  0  0
  138.9917   70.0106  221.8962 H   0  0  0  0  0  0  0  0  0  0  0  0
  139.2121   68.3162  223.7117 H   0  0  0  0  0  0  0  0  0  0  0  0
  139.8859   67.7762  226.0355 H   0  0  0  0  0  0  0  0  0  0  0  0
  141.5012   70.8969  228.5527 H   0  0  0  0  0  0  0  0  0  0  0  0
  141.2300   72.4982  226.6626 H   0  0  0  0  0  0  0  0  0  0  0  0
  1  2  2  0
  2  3  1  0
  3  4  1  0
  4  5  1  0
  5  6  2  0
  5  7  1  0
  7  8  1  0
  8  9  1  0
  9 10  1  0
 10 11  1  0
 11 12  1  0
 12 13  2  0
 13 14  1  0
 14 15  2  0
 15 16  1  0
 16 17  1  0
 17 18  1  0
 17 19  1  0
 17 20  1  0
 15 21  1  0
 21 22  2  0
  2 23  1  0
 23 24  2  0
 24 25  1  0
 25 26  2  0
 26 27  1  0
 27 28  2  0
 28 29  1  0
 28 30  1  0
 30 31  2  0
 31 32  1  0
 32 33  2  0
 11  7  1  0
 22 12  1  0
 33 23  1  0
 32 26  1  0
  3 34  1  0
  4 35  1  0
  4 36  1  0
  8 37  1  0
  8 38  1  0
  9 39  1  0
  9 40  1  0
 10 41  1  0
 10 42  1  0
 11 43  1  6
 13 44  1  0
 14 45  1  0
 21 46  1  0
 22 47  1  0
 24 48  1  0
 25 49  1  0
 27 50  1  0
 30 51  1  0
 31 52  1  0
M  END
>  <smiles>  (24) 
O=C(NCC(=O)N1CCCC1c1ccc(OC(F)(F)F)cc1)c1ccc2cc(Cl)ccc2n1

>  <score_type>  (24) 
oracle

>  <origin>  (24) 
autodockgpu

>  <m_score__min__energy>  (24) 
-7.8600000000000003

>  <m_primary>  (24) 
energy

>  <rmsd>  (24) 
3.0271858419954234

>  <m_score__min__rmsd>  (24) 
3.0271858419954234

>  <meeko>  (24) 
{"free_energy": -7.81, "intermolecular_energy": -9.9, "internal_energy": -1.78, "cluster_size": 23, "cluster_id": 1, "rank_in_cluster": 5}

>  <energy>  (24) 
-7.76

>  <cluster_rmsd>  (24) 
0.0

>  <cluster>  (24) 
2

$$$$

     RDKit          3D

 52 55  0  0  0  0  0  0  0  0999 V2000
  140.4290   72.2890  220.6680 O   0  0  0  0  0  0  0  0  0  0  0  0
  140.1710   72.6420  221.8380 C   0  0  0  0  0  0  0  0  0  0  0  0
  139.9270   74.0430  222.0520 N   0  0  0  0  0  0  0  0  0  0  0  0
  139.9600   75.0290  221.0280 C   0  0  0  0  0  0  0  0  0  0  0  0
  140.8920   76.1480  221.1180 C   0  0  0  0  0  0  0  0  0  0  0  0
  141.0650   76.5480  222.3640 O   0  0  0  0  0  0  0  0  0  0  0  0
  141.6050   76.8560  220.1750 N   0  0  0  0  0  0  0  0  0  0  0  0
  141.3900   78.0420  219.3710 C   0  0  0  0  0  0  0  0  0  0  0  0
  141.6760   77.4210  217.9970 C   0  0  0  0  0  0  0  0  0  0  0  0
  143.0580   76.8850  218.2870 C   0  0  0  0  0  0  0  0  0  0  0  0
  142.9600   76.4330  219.7210 C   0  0  2  0  0  0  0  0  0  0  0  0
  143.1060   74.9650  219.7360 C   0  0  0  0  0  0  0  0  0  0  0  0
  142.5070   74.1010  218.8670 C   0  0  0  0  0  0  0  0  0  0  0  0
  142.6940   72.7270  218.9440 C   0  0  0  0  0  0  0  0  0  0  0  0
  143.5120   72.2000  219.9300 C   0  0  0  0  0  0  0  0  0  0  0  0
  143.7410   70.8380  220.0640 O   0  0  0  0  0  0  0  0  0  0  0  0
  144.7440   70.2410  219.2550 C   0  0  0  0  0  0  0  0  0  0  0  0
  144.9120   68.9440  219.6870 F   0  0  0  0  0  0  0  0  0  0  0  0
  145.9190   70.9660  219.2960 F   0  0  0  0  0  0  0  0  0  0  0  0
  144.2540   70.2270  217.9610 F   0  0  0  0  0  0  0  0  0  0  0  0
  144.1310   73.0510  220.8250 C   0  0  0  0  0  0  0  0  0  0  0  0
  143.9240   74.4090  220.7200 C   0  0  0  0  0  0  0  0  0  0  0  0
  140.1170   71.6880  222.9420 C   0  0  0  0  0  0  0  0  0  0  0  0
  139.5650   70.4540  222.7060 C   0  0  0  0  0  0  0  0  0  0  0  0
  139.5240   69.5680  223.7620 C   0  0  0  0  0  0  0  0  0  0  0  0
  140.0250   69.9200  225.0140 C   0  0  0  0  0  0  0  0  0  0  0  0
  140.0070   69.0760  226.0910 C   0  0  0  0  0  0  0  0  0  0  0  0
  140.5260   69.4930  227.3150 C   0  0  0  0  0  0  0  0  0  0  0  0
  140.5240   68.4490  228.7200 Cl  0  0  0  0  0  0  0  0  0  0  0  0
  141.0680   70.7550  227.4750 C   0  0  0  0  0  0  0  0  0  0  0  0
  141.0790   71.5920  226.3820 C   0  0  0  0  0  0  0  0  0  0  0  0
  140.5660   71.1710  225.1820 C   0  0  0  0  0  0  0  0  0  0  0  0
  140.5970   72.0150  224.1500 N   0  0  0  0  0  0  0  0  0  0  0  0
  139.7140   74.2870  223.0650 H   0  0  0  0  0  0  0  0  0  0  0  0
  140.1863   74.5030  220.0888 H   0  0  0  0  0  0  0  0  0  0  0  0
  138.9764   75.5138  221.1142 H   0  0  0  0  0  0  0  0  0  0  0  0
  140.3599   78.4194  219.4518 H   0  0  0  0  0  0  0  0  0  0  0  0
  141.9922   78.9229  219.6382 H   0  0  0  0  0  0  0  0  0  0  0  0
  140.9639   76.6211  217.7457 H   0  0  0  0  0  0  0  0  0  0  0  0
  141.5945   78.1003  217.1357 H   0  0  0  0  0  0  0  0  0  0  0  0
  143.3009   76.0418  217.6237 H   0  0  0  0  0  0  0  0  0  0  0  0
  143.8516   77.6289  218.1232 H   0  0  0  0  0  0  0  0  0  0  0  0
  143.7311   76.8585  220.3800 H   0  0  0  0  0  0  0  0  0  0  0  0
  141.8544   74.5058  218.0794 H   0  0  0  0  0  0  0  0  0  0  0  0
  142.1949   72.0603  218.2254 H   0  0  0  0  0  0  0  0  0  0  0  0
  144.7830   72.6482  221.6140 H   0  0  0  0  0  0  0  0  0  0  0  0
  144.4212   75.0785  221.4373 H   0  0  0  0  0  0  0  0  0  0  0  0
  139.1714   70.1827  221.7153 H   0  0  0  0  0  0  0  0  0  0  0  0
  139.0893   68.5684  223.6139 H   0  0  0  0  0  0  0  0  0  0  0  0
  139.5820   68.0664  225.9902 H   0  0  0  0  0  0  0  0  0  0  0  0
  141.4768   71.0794  228.4434 H   0  0  0  0  0  0  0  0  0  0  0  0
  141.5015   72.6037  226.4718 H   0  0  0  0  0  0  0  0  0  0  0  0
  1  2  2  0
  2  3  1  0
  3  4  1  0
  4  5  1  0
  5  6  2  0
  5  7  1  0
  7  8  1  0
  8  9  1  0
  9 10  1  0
 10 11  1  0
 11 12  1  0
 12 13  2  0
 13 14  1  0
 14 15  2  0
 15 16  1  0
 16 17  1  0
 17 18  1  0
 17 19  1  0
 17 20  1  0
 15 21  1  0
 21 22  2  0
  2 23  1  0
 23 24  2  0
 24 25  1  0
 25 26  2  0
 26 27  1  0
 27 28  2  0
 28 29  1  0
 28 30  1  0
 30 31  2  0
 31 32  1  0
 32 33  2  0
 11  7  1  0
 22 12  1  0
 33 23  1  0
 32 26  1  0
  3 34  1  0
  4 35  1  0
  4 36  1  0
  8 37  1  0
  8 38  1  0
  9 39  1  0
  9 40  1  0
 10 41  1  0
 10 42  1  0
 11 43  1  1
 13 44  1  0
 14 45  1  0
 21 46  1  0
 22 47  1  0
 24 48  1  0
 25 49  1  0
 27 50  1  0
 30 51  1  0
 31 52  1  0
M  END
>  <smiles>  (25) 
O=C(NCC(=O)N1CCCC1c1ccc(OC(F)(F)F)cc1)c1ccc2cc(Cl)ccc2n1

>  <score_type>  (25) 
oracle

>  <origin>  (25) 
autodockgpu

>  <m_score__min__energy>  (25) 
-7.8600000000000003

>  <m_primary>  (25) 
energy

>  <rmsd>  (25) 
2.2089919555706694

>  <m_score__min__rmsd>  (25) 
2.2089919555706694

>  <meeko>  (25) 
{"free_energy": -7.3, "intermolecular_energy": -9.39, "internal_energy": -2.29, "cluster_size": 11, "cluster_id": 2, "rank_in_cluster": 5}

>  <energy>  (25) 
-7.47

>  <cluster_rmsd>  (25) 
1.02

>  <cluster>  (25) 
2

$$$$

     RDKit          3D

 52 55  0  0  0  0  0  0  0  0999 V2000
  139.9990   72.6810  220.5480 O   0  0  0  0  0  0  0  0  0  0  0  0
  139.5230   72.8720  221.6870 C   0  0  0  0  0  0  0  0  0  0  0  0
  138.8400   74.1200  221.9010 N   0  0  0  0  0  0  0  0  0  0  0  0
  138.6780   75.1270  220.9100 C   0  0  0  0  0  0  0  0  0  0  0  0
  138.5770   76.5290  221.3000 C   0  0  0  0  0  0  0  0  0  0  0  0
  137.6640   77.1730  220.5980 O   0  0  0  0  0  0  0  0  0  0  0  0
  139.2390   77.2950  222.2350 N   0  0  0  0  0  0  0  0  0  0  0  0
  138.9190   78.4280  223.0790 C   0  0  0  0  0  0  0  0  0  0  0  0
  140.0690   79.3470  222.6460 C   0  0  0  0  0  0  0  0  0  0  0  0
  141.2160   78.4140  222.9530 C   0  0  0  0  0  0  0  0  0  0  0  0
  140.6680   77.0590  222.5880 C   0  0  2  0  0  0  0  0  0  0  0  0
  141.4400   76.5630  221.4320 C   0  0  0  0  0  0  0  0  0  0  0  0
  141.8000   75.2650  221.2190 C   0  0  0  0  0  0  0  0  0  0  0  0
  142.5290   74.8730  220.1040 C   0  0  0  0  0  0  0  0  0  0  0  0
  142.9110   75.8200  219.1680 C   0  0  0  0  0  0  0  0  0  0  0  0
  143.6400   75.4980  218.0310 O   0  0  0  0  0  0  0  0  0  0  0  0
  143.1550   75.9420  216.7720 C   0  0  0  0  0  0  0  0  0  0  0  0
  141.7790   75.8990  216.8170 F   0  0  0  0  0  0  0  0  0  0  0  0
  143.6720   75.1840  215.7400 F   0  0  0  0  0  0  0  0  0  0  0  0
  143.5620   77.2560  216.6310 F   0  0  0  0  0  0  0  0  0  0  0  0
  142.5610   77.1430  219.3580 C   0  0  0  0  0  0  0  0  0  0  0  0
  141.8370   77.4970  220.4750 C   0  0  0  0  0  0  0  0  0  0  0  0
  139.6470   71.8850  222.7560 C   0  0  0  0  0  0  0  0  0  0  0  0
  139.1770   70.6170  222.5230 C   0  0  0  0  0  0  0  0  0  0  0  0
  139.3050   69.7000  223.5460 C   0  0  0  0  0  0  0  0  0  0  0  0
  139.8870   70.0550  224.7610 C   0  0  0  0  0  0  0  0  0  0  0  0
  140.0350   69.1820  225.8030 C   0  0  0  0  0  0  0  0  0  0  0  0
  140.6270   69.6060  226.9910 C   0  0  0  0  0  0  0  0  0  0  0  0
  140.8370   68.5240  228.3520 Cl  0  0  0  0  0  0  0  0  0  0  0  0
  141.0760   70.9030  227.1510 C   0  0  0  0  0  0  0  0  0  0  0  0
  140.9200   71.7700  226.0920 C   0  0  0  0  0  0  0  0  0  0  0  0
  140.3360   71.3420  224.9270 C   0  0  0  0  0  0  0  0  0  0  0  0
  140.2050   72.2160  223.9280 N   0  0  0  0  0  0  0  0  0  0  0  0
  138.4570   74.2300  222.8870 H   0  0  0  0  0  0  0  0  0  0  0  0
  139.5418   75.0477  220.2335 H   0  0  0  0  0  0  0  0  0  0  0  0
  137.6840   74.9103  220.4917 H   0  0  0  0  0  0  0  0  0  0  0  0
  137.9329   78.8561  222.8458 H   0  0  0  0  0  0  0  0  0  0  0  0
  138.8450   78.2218  224.1570 H   0  0  0  0  0  0  0  0  0  0  0  0
  140.0164   79.6041  221.5778 H   0  0  0  0  0  0  0  0  0  0  0  0
  140.1068   80.3326  223.1329 H   0  0  0  0  0  0  0  0  0  0  0  0
  142.0979   78.6597  222.3431 H   0  0  0  0  0  0  0  0  0  0  0  0
  141.5523   78.4749  223.9986 H   0  0  0  0  0  0  0  0  0  0  0  0
  140.7422   76.3125  223.3925 H   0  0  0  0  0  0  0  0  0  0  0  0
  141.5030   74.5032  221.9549 H   0  0  0  0  0  0  0  0  0  0  0  0
  142.8016   73.8164  219.9648 H   0  0  0  0  0  0  0  0  0  0  0  0
  142.8578   77.9066  218.6240 H   0  0  0  0  0  0  0  0  0  0  0  0
  141.5624   78.5526  220.6173 H   0  0  0  0  0  0  0  0  0  0  0  0
  138.7178   70.3433  221.5616 H   0  0  0  0  0  0  0  0  0  0  0  0
  138.9416   68.6721  223.3999 H   0  0  0  0  0  0  0  0  0  0  0  0
  139.6862   68.1435  225.7032 H   0  0  0  0  0  0  0  0  0  0  0  0
  141.5420   71.2318  228.0916 H   0  0  0  0  0  0  0  0  0  0  0  0
  141.2654   72.8106  226.1810 H   0  0  0  0  0  0  0  0  0  0  0  0
  1  2  2  0
  2  3  1  0
  3  4  1  0
  4  5  1  0
  5  6  2  0
  5  7  1  0
  7  8  1  0
  8  9  1  0
  9 10  1  0
 10 11  1  0
 11 12  1  0
 12 13  2  0
 13 14  1  0
 14 15  2  0
 15 16  1  0
 16 17  1  0
 17 18  1  0
 17 19  1  0
 17 20  1  0
 15 21  1  0
 21 22  2  0
  2 23  1  0
 23 24  2  0
 24 25  1  0
 25 26  2  0
 26 27  1  0
 27 28  2  0
 28 29  1  0
 28 30  1  0
 30 31  2  0
 31 32  1  0
 32 33  2  0
 11  7  1  0
 22 12  1  0
 33 23  1  0
 32 26  1  0
  3 34  1  0
  4 35  1  0
  4 36  1  0
  8 37  1  0
  8 38  1  0
  9 39  1  0
  9 40  1  0
 10 41  1  0
 10 42  1  0
 11 43  1  1
 13 44  1  0
 14 45  1  0
 21 46  1  0
 22 47  1  0
 24 48  1  0
 25 49  1  0
 27 50  1  0
 30 51  1  0
 31 52  1  0
M  END
>  <smiles>  (26) 
O=C(NCC(=O)N1CCCC1c1ccc(OC(F)(F)F)cc1)c1ccc2cc(Cl)ccc2n1

>  <score_type>  (26) 
oracle

>  <origin>  (26) 
autodockgpu

>  <m_score__min__energy>  (26) 
-7.8600000000000003

>  <m_primary>  (26) 
energy

>  <rmsd>  (26) 
3.1848839360368366

>  <m_score__min__rmsd>  (26) 
3.1848839360368366

>  <meeko>  (26) 
{"free_energy": -7.49, "intermolecular_energy": -9.57, "internal_energy": -1.76, "cluster_size": 4, "cluster_id": 4, "rank_in_cluster": 1}

>  <energy>  (26) 
-7.37

>  <cluster_rmsd>  (26) 
1.01

>  <cluster>  (26) 
2

$$$$

     RDKit          3D

 52 55  0  0  0  0  0  0  0  0999 V2000
  141.3570   78.3370  217.2270 O   0  0  0  0  0  0  0  0  0  0  0  0
  142.0500   77.9060  218.1720 C   0  0  0  0  0  0  0  0  0  0  0  0
  142.1750   78.7590  219.3230 N   0  0  0  0  0  0  0  0  0  0  0  0
  141.5650   80.0380  219.4460 C   0  0  0  0  0  0  0  0  0  0  0  0
  140.7510   80.3530  220.6140 C   0  0  0  0  0  0  0  0  0  0  0  0
  139.4600   80.2970  220.3470 O   0  0  0  0  0  0  0  0  0  0  0  0
  141.0630   80.6950  221.9130 N   0  0  0  0  0  0  0  0  0  0  0  0
  141.9480   81.6390  222.5640 C   0  0  0  0  0  0  0  0  0  0  0  0
  142.6940   80.6450  223.4640 C   0  0  0  0  0  0  0  0  0  0  0  0
  141.4960   80.0490  224.1650 C   0  0  0  0  0  0  0  0  0  0  0  0
  140.4460   80.0110  223.0850 C   0  0  2  0  0  0  0  0  0  0  0  0
  140.1530   78.5940  222.7980 C   0  0  0  0  0  0  0  0  0  0  0  0
  138.9070   78.0470  222.7000 C   0  0  0  0  0  0  0  0  0  0  0  0
  138.7110   76.7000  222.4260 C   0  0  0  0  0  0  0  0  0  0  0  0
  139.8050   75.8710  222.2430 C   0  0  0  0  0  0  0  0  0  0  0  0
  139.6810   74.5160  221.9670 O   0  0  0  0  0  0  0  0  0  0  0  0
  140.4520   73.9720  220.9060 C   0  0  0  0  0  0  0  0  0  0  0  0
  141.6530   73.5550  221.4340 F   0  0  0  0  0  0  0  0  0  0  0  0
  140.6160   74.8870  219.8840 F   0  0  0  0  0  0  0  0  0  0  0  0
  139.7590   72.8720  220.4340 F   0  0  0  0  0  0  0  0  0  0  0  0
  141.0790   76.3970  222.3370 C   0  0  0  0  0  0  0  0  0  0  0  0
  141.2380   77.7380  222.6100 C   0  0  0  0  0  0  0  0  0  0  0  0
  142.7070   76.6030  218.1210 C   0  0  0  0  0  0  0  0  0  0  0  0
  142.7580   75.9500  216.9150 C   0  0  0  0  0  0  0  0  0  0  0  0
  143.3830   74.7210  216.8900 C   0  0  0  0  0  0  0  0  0  0  0  0
  143.9350   74.1710  218.0450 C   0  0  0  0  0  0  0  0  0  0  0  0
  144.5640   72.9570  218.0690 C   0  0  0  0  0  0  0  0  0  0  0  0
  145.0940   72.4670  219.2610 C   0  0  0  0  0  0  0  0  0  0  0  0
  145.9060   70.9180  219.3410 Cl  0  0  0  0  0  0  0  0  0  0  0  0
  145.0020   73.1850  220.4390 C   0  0  0  0  0  0  0  0  0  0  0  0
  144.3670   74.4060  220.3980 C   0  0  0  0  0  0  0  0  0  0  0  0
  143.8490   74.8780  219.2190 C   0  0  0  0  0  0  0  0  0  0  0  0
  143.2420   76.0650  219.2260 N   0  0  0  0  0  0  0  0  0  0  0  0
  142.7770   78.3430  220.0960 H   0  0  0  0  0  0  0  0  0  0  0  0
  142.3765   80.7800  219.4162 H   0  0  0  0  0  0  0  0  0  0  0  0
  140.8361   80.0484  218.6223 H   0  0  0  0  0  0  0  0  0  0  0  0
  142.6191   82.1409  221.8514 H   0  0  0  0  0  0  0  0  0  0  0  0
  141.4622   82.4832  223.0753 H   0  0  0  0  0  0  0  0  0  0  0  0
  143.2515   79.8954  222.8832 H   0  0  0  0  0  0  0  0  0  0  0  0
  143.4686   81.0744  224.1163 H   0  0  0  0  0  0  0  0  0  0  0  0
  141.7186   79.0369  224.5340 H   0  0  0  0  0  0  0  0  0  0  0  0
  141.1839   80.6248  225.0488 H   0  0  0  0  0  0  0  0  0  0  0  0
  139.5016   80.5044  223.3584 H   0  0  0  0  0  0  0  0  0  0  0  0
  138.0291   78.6942  222.8427 H   0  0  0  0  0  0  0  0  0  0  0  0
  137.6914   76.2933  222.3546 H   0  0  0  0  0  0  0  0  0  0  0  0
  141.9581   75.7512  222.1952 H   0  0  0  0  0  0  0  0  0  0  0  0
  142.2562   78.1479  222.6822 H   0  0  0  0  0  0  0  0  0  0  0  0
  142.3189   76.3884  216.0067 H   0  0  0  0  0  0  0  0  0  0  0  0
  143.4468   74.1657  215.9426 H   0  0  0  0  0  0  0  0  0  0  0  0
  144.6518   72.3660  217.1454 H   0  0  0  0  0  0  0  0  0  0  0  0
  145.4220   72.7939  221.3774 H   0  0  0  0  0  0  0  0  0  0  0  0
  144.2747   75.0059  221.3154 H   0  0  0  0  0  0  0  0  0  0  0  0
  1  2  2  0
  2  3  1  0
  3  4  1  0
  4  5  1  0
  5  6  2  0
  5  7  1  0
  7  8  1  0
  8  9  1  0
  9 10  1  0
 10 11  1  0
 11 12  1  0
 12 13  2  0
 13 14  1  0
 14 15  2  0
 15 16  1  0
 16 17  1  0
 17 18  1  0
 17 19  1  0
 17 20  1  0
 15 21  1  0
 21 22  2  0
  2 23  1  0
 23 24  2  0
 24 25  1  0
 25 26  2  0
 26 27  1  0
 27 28  2  0
 28 29  1  0
 28 30  1  0
 30 31  2  0
 31 32  1  0
 32 33  2  0
 11  7  1  0
 22 12  1  0
 33 23  1  0
 32 26  1  0
  3 34  1  0
  4 35  1  0
  4 36  1  0
  8 37  1  0
  8 38  1  0
  9 39  1  0
  9 40  1  0
 10 41  1  0
 10 42  1  0
 11 43  1  1
 13 44  1  0
 14 45  1  0
 21 46  1  0
 22 47  1  0
 24 48  1  0
 25 49  1  0
 27 50  1  0
 30 51  1  0
 31 52  1  0
M  END
>  <smiles>  (27) 
O=C(NCC(=O)N1CCCC1c1ccc(OC(F)(F)F)cc1)c1ccc2cc(Cl)ccc2n1

>  <score_type>  (27) 
oracle

>  <origin>  (27) 
autodockgpu

>  <m_score__min__energy>  (27) 
-7.8600000000000003

>  <m_primary>  (27) 
energy

>  <rmsd>  (27) 
8.31830704946018

>  <m_score__min__rmsd>  (27) 
8.31830704946018

>  <meeko>  (27) 
{"free_energy": -6.54, "intermolecular_energy": -8.62, "internal_energy": -2.7, "cluster_size": 9, "cluster_id": 6, "rank_in_cluster": 2}

>  <energy>  (27) 
-7.31

>  <cluster_rmsd>  (27) 
1.09

>  <cluster>  (27) 
2

$$$$

     RDKit          3D

 52 55  0  0  0  0  0  0  0  0999 V2000
  139.5820   73.7580  222.3380 O   0  0  0  0  0  0  0  0  0  0  0  0
  139.6000   72.5330  222.0980 C   0  0  0  0  0  0  0  0  0  0  0  0
  139.4880   72.1410  220.7190 N   0  0  0  0  0  0  0  0  0  0  0  0
  139.3600   73.0510  219.6340 C   0  0  0  0  0  0  0  0  0  0  0  0
  140.5190   73.8070  219.1710 C   0  0  0  0  0  0  0  0  0  0  0  0
  140.1690   74.8710  218.4740 O   0  0  0  0  0  0  0  0  0  0  0  0
  141.8780   73.6260  219.3140 N   0  0  0  0  0  0  0  0  0  0  0  0
  142.7930   72.5020  219.2960 C   0  0  0  0  0  0  0  0  0  0  0  0
  143.4640   72.7530  220.6530 C   0  0  0  0  0  0  0  0  0  0  0  0
  143.9250   74.1700  220.4060 C   0  0  0  0  0  0  0  0  0  0  0  0
  142.8080   74.7590  219.5840 C   0  0  2  0  0  0  0  0  0  0  0  0
  142.1650   75.8100  220.3950 C   0  0  0  0  0  0  0  0  0  0  0  0
  141.4480   75.6020  221.5370 C   0  0  0  0  0  0  0  0  0  0  0  0
  140.8710   76.6450  222.2480 C   0  0  0  0  0  0  0  0  0  0  0  0
  141.0180   77.9470  221.7970 C   0  0  0  0  0  0  0  0  0  0  0  0
  140.4670   79.0360  222.4580 O   0  0  0  0  0  0  0  0  0  0  0  0
  141.2920   79.7660  223.3550 C   0  0  0  0  0  0  0  0  0  0  0  0
  140.5350   80.7930  223.8750 F   0  0  0  0  0  0  0  0  0  0  0  0
  142.4360   80.2200  222.7280 F   0  0  0  0  0  0  0  0  0  0  0  0
  141.6360   78.8970  224.3740 F   0  0  0  0  0  0  0  0  0  0  0  0
  141.7380   78.1880  220.6430 C   0  0  0  0  0  0  0  0  0  0  0  0
  142.2970   77.1300  219.9610 C   0  0  0  0  0  0  0  0  0  0  0  0
  139.7300   71.5370  223.1590 C   0  0  0  0  0  0  0  0  0  0  0  0
  139.3080   70.2570  222.9000 C   0  0  0  0  0  0  0  0  0  0  0  0
  139.4400   69.3320  223.9150 C   0  0  0  0  0  0  0  0  0  0  0  0
  139.9790   69.6910  225.1480 C   0  0  0  0  0  0  0  0  0  0  0  0
  140.1300   68.8100  226.1840 C   0  0  0  0  0  0  0  0  0  0  0  0
  140.6780   69.2380  227.3920 C   0  0  0  0  0  0  0  0  0  0  0  0
  140.8890   68.1470  228.7450 Cl  0  0  0  0  0  0  0  0  0  0  0  0
  141.0810   70.5480  227.5770 C   0  0  0  0  0  0  0  0  0  0  0  0
  140.9230   71.4210  226.5250 C   0  0  0  0  0  0  0  0  0  0  0  0
  140.3830   70.9900  225.3400 C   0  0  0  0  0  0  0  0  0  0  0  0
  140.2480   71.8710  224.3490 N   0  0  0  0  0  0  0  0  0  0  0  0
  139.5080   71.0870  220.5740 H   0  0  0  0  0  0  0  0  0  0  0  0
  138.9968   72.4694  218.7738 H   0  0  0  0  0  0  0  0  0  0  0  0
  138.6962   73.8303  220.0367 H   0  0  0  0  0  0  0  0  0  0  0  0
  142.2668   71.5366  219.2634 H   0  0  0  0  0  0  0  0  0  0  0  0
  143.4660   72.4406  218.4281 H   0  0  0  0  0  0  0  0  0  0  0  0
  142.7510   72.6872  221.4880 H   0  0  0  0  0  0  0  0  0  0  0  0
  144.2465   72.0362  220.9426 H   0  0  0  0  0  0  0  0  0  0  0  0
  144.0472   74.7155  221.3534 H   0  0  0  0  0  0  0  0  0  0  0  0
  144.9029   74.2236  219.9051 H   0  0  0  0  0  0  0  0  0  0  0  0
  143.1377   75.2129  218.6378 H   0  0  0  0  0  0  0  0  0  0  0  0
  141.3231   74.5735  221.9065 H   0  0  0  0  0  0  0  0  0  0  0  0
  140.2997   76.4391  223.1652 H   0  0  0  0  0  0  0  0  0  0  0  0
  141.8638   79.2159  220.2720 H   0  0  0  0  0  0  0  0  0  0  0  0
  142.8673   77.3323  219.0424 H   0  0  0  0  0  0  0  0  0  0  0  0
  138.8824   69.9803  221.9241 H   0  0  0  0  0  0  0  0  0  0  0  0
  139.1144   68.2947  223.7478 H   0  0  0  0  0  0  0  0  0  0  0  0
  139.8183   67.7620  226.0633 H   0  0  0  0  0  0  0  0  0  0  0  0
  141.5130   70.8807  228.5323 H   0  0  0  0  0  0  0  0  0  0  0  0
  141.2317   72.4710  226.6351 H   0  0  0  0  0  0  0  0  0  0  0  0
  1  2  2  0
  2  3  1  0
  3  4  1  0
  4  5  1  0
  5  6  2  0
  5  7  1  0
  7  8  1  0
  8  9  1  0
  9 10  1  0
 10 11  1  0
 11 12  1  0
 12 13  2  0
 13 14  1  0
 14 15  2  0
 15 16  1  0
 16 17  1  0
 17 18  1  0
 17 19  1  0
 17 20  1  0
 15 21  1  0
 21 22  2  0
  2 23  1  0
 23 24  2  0
 24 25  1  0
 25 26  2  0
 26 27  1  0
 27 28  2  0
 28 29  1  0
 28 30  1  0
 30 31  2  0
 31 32  1  0
 32 33  2  0
 11  7  1  0
 22 12  1  0
 33 23  1  0
 32 26  1  0
  3 34  1  0
  4 35  1  0
  4 36  1  0
  8 37  1  0
  8 38  1  0
  9 39  1  0
  9 40  1  0
 10 41  1  0
 10 42  1  0
 11 43  1  6
 13 44  1  0
 14 45  1  0
 21 46  1  0
 22 47  1  0
 24 48  1  0
 25 49  1  0
 27 50  1  0
 30 51  1  0
 31 52  1  0
M  END
>  <smiles>  (28) 
O=C(NCC(=O)N1CCCC1c1ccc(OC(F)(F)F)cc1)c1ccc2cc(Cl)ccc2n1

>  <score_type>  (28) 
oracle

>  <origin>  (28) 
autodockgpu

>  <m_score__min__energy>  (28) 
-7.8600000000000003

>  <m_primary>  (28) 
energy

>  <rmsd>  (28) 
2.9188831709694267

>  <m_score__min__rmsd>  (28) 
2.9188831709694267

>  <meeko>  (28) 
{"free_energy": -7.84, "intermolecular_energy": -9.93, "internal_energy": -1.78, "cluster_size": 23, "cluster_id": 1, "rank_in_cluster": 3}

>  <energy>  (28) 
-7.3

>  <cluster_rmsd>  (28) 
1.12

>  <cluster>  (28) 
2

$$$$

     RDKit          3D

 52 55  0  0  0  0  0  0  0  0999 V2000
  138.8560   71.6610  220.6810 O   0  0  0  0  0  0  0  0  0  0  0  0
  138.9360   72.0910  221.8500 C   0  0  0  0  0  0  0  0  0  0  0  0
  138.7370   73.5040  222.0340 N   0  0  0  0  0  0  0  0  0  0  0  0
  138.4590   74.4190  220.9820 C   0  0  0  0  0  0  0  0  0  0  0  0
  139.4560   74.6730  219.9480 C   0  0  0  0  0  0  0  0  0  0  0  0
  138.9830   75.4370  218.9820 O   0  0  0  0  0  0  0  0  0  0  0  0
  140.7660   74.2740  219.7870 N   0  0  0  0  0  0  0  0  0  0  0  0
  141.4670   73.0140  219.6460 C   0  0  0  0  0  0  0  0  0  0  0  0
  142.4760   73.2040  220.7870 C   0  0  0  0  0  0  0  0  0  0  0  0
  143.0730   74.5140  220.3300 C   0  0  0  0  0  0  0  0  0  0  0  0
  141.8940   75.2470  219.7450 C   0  0  2  0  0  0  0  0  0  0  0  0
  141.6330   76.4220  220.5970 C   0  0  0  0  0  0  0  0  0  0  0  0
  141.1140   76.3860  221.8580 C   0  0  0  0  0  0  0  0  0  0  0  0
  140.8960   77.5380  222.6020 C   0  0  0  0  0  0  0  0  0  0  0  0
  141.2110   78.7730  222.0600 C   0  0  0  0  0  0  0  0  0  0  0  0
  141.0180   79.9640  222.7470 O   0  0  0  0  0  0  0  0  0  0  0  0
  142.0450   80.4110  223.6200 C   0  0  0  0  0  0  0  0  0  0  0  0
  142.2210   79.4440  224.5850 F   0  0  0  0  0  0  0  0  0  0  0  0
  141.7430   81.6450  224.1610 F   0  0  0  0  0  0  0  0  0  0  0  0
  143.1970   80.5070  222.8610 F   0  0  0  0  0  0  0  0  0  0  0  0
  141.7370   78.8410  220.7840 C   0  0  0  0  0  0  0  0  0  0  0  0
  141.9400   77.6780  220.0740 C   0  0  0  0  0  0  0  0  0  0  0  0
  139.2170   71.2140  222.9830 C   0  0  0  0  0  0  0  0  0  0  0  0
  138.8370   69.8980  222.8930 C   0  0  0  0  0  0  0  0  0  0  0  0
  139.1120   69.0860  223.9730 C   0  0  0  0  0  0  0  0  0  0  0  0
  139.7500   69.5890  225.1050 C   0  0  0  0  0  0  0  0  0  0  0  0
  140.0440   68.8240  226.2000 C   0  0  0  0  0  0  0  0  0  0  0  0
  140.6830   69.3930  227.3000 C   0  0  0  0  0  0  0  0  0  0  0  0
  141.0790   68.4530  228.7230 Cl  0  0  0  0  0  0  0  0  0  0  0  0
  141.0370   70.7290  227.3160 C   0  0  0  0  0  0  0  0  0  0  0  0
  140.7340   71.4860  226.2070 C   0  0  0  0  0  0  0  0  0  0  0  0
  140.1040   70.9160  225.1290 C   0  0  0  0  0  0  0  0  0  0  0  0
  139.8310   71.6860  224.0770 N   0  0  0  0  0  0  0  0  0  0  0  0
  138.8180   73.8160  223.0480 H   0  0  0  0  0  0  0  0  0  0  0  0
  137.5589   74.0484  220.4697 H   0  0  0  0  0  0  0  0  0  0  0  0
  138.3862   75.3852  221.5028 H   0  0  0  0  0  0  0  0  0  0  0  0
  140.8077   72.1493  219.8121 H   0  0  0  0  0  0  0  0  0  0  0  0
  141.8932   72.8064  218.6534 H   0  0  0  0  0  0  0  0  0  0  0  0
  141.9841   73.2905  221.7671 H   0  0  0  0  0  0  0  0  0  0  0  0
  143.1873   72.3794  220.9424 H   0  0  0  0  0  0  0  0  0  0  0  0
  143.5009   75.0691  221.1778 H   0  0  0  0  0  0  0  0  0  0  0  0
  143.8978   74.3845  219.6138 H   0  0  0  0  0  0  0  0  0  0  0  0
  142.0506   75.6018  218.7156 H   0  0  0  0  0  0  0  0  0  0  0  0
  140.8596   75.4115  222.3004 H   0  0  0  0  0  0  0  0  0  0  0  0
  140.4755   77.4701  223.6162 H   0  0  0  0  0  0  0  0  0  0  0  0
  141.9912   79.8145  220.3394 H   0  0  0  0  0  0  0  0  0  0  0  0
  142.3590   77.7422  219.0589 H   0  0  0  0  0  0  0  0  0  0  0  0
  138.3338   69.5073  221.9962 H   0  0  0  0  0  0  0  0  0  0  0  0
  138.8233   68.0251  223.9404 H   0  0  0  0  0  0  0  0  0  0  0  0
  139.7755   67.7573  226.2124 H   0  0  0  0  0  0  0  0  0  0  0  0
  141.5439   71.1724  228.1858 H   0  0  0  0  0  0  0  0  0  0  0  0
  140.9982   72.5536  226.1846 H   0  0  0  0  0  0  0  0  0  0  0  0
  1  2  2  0
  2  3  1  0
  3  4  1  0
  4  5  1  0
  5  6  2  0
  5  7  1  0
  7  8  1  0
  8  9  1  0
  9 10  1  0
 10 11  1  0
 11 12  1  0
 12 13  2  0
 13 14  1  0
 14 15  2  0
 15 16  1  0
 16 17  1  0
 17 18  1  0
 17 19  1  0
 17 20  1  0
 15 21  1  0
 21 22  2  0
  2 23  1  0
 23 24  2  0
 24 25  1  0
 25 26  2  0
 26 27  1  0
 27 28  2  0
 28 29  1  0
 28 30  1  0
 30 31  2  0
 31 32  1  0
 32 33  2  0
 11  7  1  0
 22 12  1  0
 33 23  1  0
 32 26  1  0
  3 34  1  0
  4 35  1  0
  4 36  1  0
  8 37  1  0
  8 38  1  0
  9 39  1  0
  9 40  1  0
 10 41  1  0
 10 42  1  0
 11 43  1  6
 13 44  1  0
 14 45  1  0
 21 46  1  0
 22 47  1  0
 24 48  1  0
 25 49  1  0
 27 50  1  0
 30 51  1  0
 31 52  1  0
M  END
>  <smiles>  (29) 
O=C(NCC(=O)N1CCCC1c1ccc(OC(F)(F)F)cc1)c1ccc2cc(Cl)ccc2n1

>  <score_type>  (29) 
oracle

>  <origin>  (29) 
autodockgpu

>  <m_score__min__energy>  (29) 
-7.8600000000000003

>  <m_primary>  (29) 
energy

>  <rmsd>  (29) 
2.290537851917191

>  <m_score__min__rmsd>  (29) 
2.290537851917191

>  <meeko>  (29) 
{"free_energy": -7.68, "intermolecular_energy": -9.76, "internal_energy": -1.99, "cluster_size": 23, "cluster_id": 1, "rank_in_cluster": 14}

>  <energy>  (29) 
-7.3

>  <cluster_rmsd>  (29) 
1.02

>  <cluster>  (29) 
2

$$$$

     RDKit          3D

 52 55  0  0  0  0  0  0  0  0999 V2000
  138.9310   71.7880  220.6610 O   0  0  0  0  0  0  0  0  0  0  0  0
  139.0170   72.2060  221.8350 C   0  0  0  0  0  0  0  0  0  0  0  0
  138.8390   73.6190  222.0320 N   0  0  0  0  0  0  0  0  0  0  0  0
  138.5750   74.5490  220.9890 C   0  0  0  0  0  0  0  0  0  0  0  0
  139.5600   74.7670  219.9350 C   0  0  0  0  0  0  0  0  0  0  0  0
  139.0870   75.5280  218.9670 O   0  0  0  0  0  0  0  0  0  0  0  0
  140.8570   74.3350  219.7570 N   0  0  0  0  0  0  0  0  0  0  0  0
  141.5290   73.0570  219.6360 C   0  0  0  0  0  0  0  0  0  0  0  0
  142.5670   73.2590  220.7490 C   0  0  0  0  0  0  0  0  0  0  0  0
  143.1800   74.5420  220.2410 C   0  0  0  0  0  0  0  0  0  0  0  0
  142.0030   75.2830  219.6610 C   0  0  2  0  0  0  0  0  0  0  0  0
  141.7860   76.4870  220.4850 C   0  0  0  0  0  0  0  0  0  0  0  0
  142.0150   77.7710  220.0860 C   0  0  0  0  0  0  0  0  0  0  0  0
  141.7850   78.8570  220.9210 C   0  0  0  0  0  0  0  0  0  0  0  0
  141.3070   78.6460  222.2040 C   0  0  0  0  0  0  0  0  0  0  0  0
  141.0560   79.6850  223.0900 O   0  0  0  0  0  0  0  0  0  0  0  0
  142.0010   80.7410  223.1750 C   0  0  0  0  0  0  0  0  0  0  0  0
  143.2580   80.1770  223.1670 F   0  0  0  0  0  0  0  0  0  0  0  0
  141.7820   81.5230  224.2920 F   0  0  0  0  0  0  0  0  0  0  0  0
  141.8420   81.5080  222.0350 F   0  0  0  0  0  0  0  0  0  0  0  0
  141.0660   77.3560  222.6360 C   0  0  0  0  0  0  0  0  0  0  0  0
  141.3050   76.3010  221.7820 C   0  0  0  0  0  0  0  0  0  0  0  0
  139.2840   71.3130  222.9590 C   0  0  0  0  0  0  0  0  0  0  0  0
  138.9060   69.9980  222.8460 C   0  0  0  0  0  0  0  0  0  0  0  0
  139.1680   69.1720  223.9180 C   0  0  0  0  0  0  0  0  0  0  0  0
  139.7900   69.6600  225.0650 C   0  0  0  0  0  0  0  0  0  0  0  0
  140.0710   68.8800  226.1540 C   0  0  0  0  0  0  0  0  0  0  0  0
  140.6950   69.4340  227.2690 C   0  0  0  0  0  0  0  0  0  0  0  0
  141.0730   68.4760  228.6850 Cl  0  0  0  0  0  0  0  0  0  0  0  0
  141.0470   70.7710  227.3090 C   0  0  0  0  0  0  0  0  0  0  0  0
  140.7580   71.5420  226.2060 C   0  0  0  0  0  0  0  0  0  0  0  0
  140.1430   70.9860  225.1130 C   0  0  0  0  0  0  0  0  0  0  0  0
  139.8830   71.7710  224.0670 N   0  0  0  0  0  0  0  0  0  0  0  0
  138.9240   73.9190  223.0490 H   0  0  0  0  0  0  0  0  0  0  0  0
  137.6503   74.2166  220.4946 H   0  0  0  0  0  0  0  0  0  0  0  0
  138.5509   75.5153  221.5141 H   0  0  0  0  0  0  0  0  0  0  0  0
  140.8566   72.2110  219.8412 H   0  0  0  0  0  0  0  0  0  0  0  0
  141.9281   72.8124  218.6406 H   0  0  0  0  0  0  0  0  0  0  0  0
  142.0989   73.3842  221.7365 H   0  0  0  0  0  0  0  0  0  0  0  0
  143.2647   72.4246  220.9131 H   0  0  0  0  0  0  0  0  0  0  0  0
  143.6384   75.1120  221.0626 H   0  0  0  0  0  0  0  0  0  0  0  0
  143.9854   74.3745  219.5107 H   0  0  0  0  0  0  0  0  0  0  0  0
  142.1426   75.6052  218.6186 H   0  0  0  0  0  0  0  0  0  0  0  0
  142.3943   77.9525  219.0695 H   0  0  0  0  0  0  0  0  0  0  0  0
  141.9814   79.8792  220.5653 H   0  0  0  0  0  0  0  0  0  0  0  0
  140.6869   77.1727  223.6522 H   0  0  0  0  0  0  0  0  0  0  0  0
  141.1100   75.2774  222.1346 H   0  0  0  0  0  0  0  0  0  0  0  0
  138.4145   69.6193  221.9377 H   0  0  0  0  0  0  0  0  0  0  0  0
  138.8815   68.1112  223.8670 H   0  0  0  0  0  0  0  0  0  0  0  0
  139.8033   67.8131  226.1485 H   0  0  0  0  0  0  0  0  0  0  0  0
  141.5408   71.2032  228.1918 H   0  0  0  0  0  0  0  0  0  0  0  0
  141.0216   72.6099  226.2009 H   0  0  0  0  0  0  0  0  0  0  0  0
  1  2  2  0
  2  3  1  0
  3  4  1  0
  4  5  1  0
  5  6  2  0
  5  7  1  0
  7  8  1  0
  8  9  1  0
  9 10  1  0
 10 11  1  0
 11 12  1  0
 12 13  2  0
 13 14  1  0
 14 15  2  0
 15 16  1  0
 16 17  1  0
 17 18  1  0
 17 19  1  0
 17 20  1  0
 15 21  1  0
 21 22  2  0
  2 23  1  0
 23 24  2  0
 24 25  1  0
 25 26  2  0
 26 27  1  0
 27 28  2  0
 28 29  1  0
 28 30  1  0
 30 31  2  0
 31 32  1  0
 32 33  2  0
 11  7  1  0
 22 12  1  0
 33 23  1  0
 32 26  1  0
  3 34  1  0
  4 35  1  0
  4 36  1  0
  8 37  1  0
  8 38  1  0
  9 39  1  0
  9 40  1  0
 10 41  1  0
 10 42  1  0
 11 43  1  6
 13 44  1  0
 14 45  1  0
 21 46  1  0
 22 47  1  0
 24 48  1  0
 25 49  1  0
 27 50  1  0
 30 51  1  0
 31 52  1  0
M  END
>  <smiles>  (30) 
O=C(NCC(=O)N1CCCC1c1ccc(OC(F)(F)F)cc1)c1ccc2cc(Cl)ccc2n1

>  <score_type>  (30) 
oracle

>  <origin>  (30) 
autodockgpu

>  <m_score__min__energy>  (30) 
-7.8600000000000003

>  <m_primary>  (30) 
energy

>  <rmsd>  (30) 
2.3170002131026295

>  <m_score__min__rmsd>  (30) 
2.3170002131026295

>  <meeko>  (30) 
{"free_energy": -7.7, "intermolecular_energy": -9.79, "internal_energy": -1.92, "cluster_size": 23, "cluster_id": 1, "rank_in_cluster": 12}

>  <energy>  (30) 
-7.25

>  <cluster_rmsd>  (30) 
1.21

>  <cluster>  (30) 
2

$$$$

     RDKit          3D

 52 55  0  0  0  0  0  0  0  0999 V2000
  139.4950   72.1580  220.8120 O   0  0  0  0  0  0  0  0  0  0  0  0
  138.9230   72.2760  221.9150 C   0  0  0  0  0  0  0  0  0  0  0  0
  137.9670   73.3430  222.0370 N   0  0  0  0  0  0  0  0  0  0  0  0
  137.6410   74.2530  220.9940 C   0  0  0  0  0  0  0  0  0  0  0  0
  138.3620   75.5150  220.8700 C   0  0  0  0  0  0  0  0  0  0  0  0
  138.6620   75.7920  219.6160 O   0  0  0  0  0  0  0  0  0  0  0  0
  138.7850   76.4490  221.7910 N   0  0  0  0  0  0  0  0  0  0  0  0
  138.2310   77.6360  222.4100 C   0  0  0  0  0  0  0  0  0  0  0  0
  139.3630   78.6090  222.0540 C   0  0  0  0  0  0  0  0  0  0  0  0
  140.5080   77.8410  222.6690 C   0  0  0  0  0  0  0  0  0  0  0  0
  140.1430   76.4030  222.4030 C   0  0  2  0  0  0  0  0  0  0  0  0
  141.1450   75.8550  221.4690 C   0  0  0  0  0  0  0  0  0  0  0  0
  141.8320   76.5730  220.5350 C   0  0  0  0  0  0  0  0  0  0  0  0
  142.7630   75.9860  219.6880 C   0  0  0  0  0  0  0  0  0  0  0  0
  143.0120   74.6260  219.7810 C   0  0  0  0  0  0  0  0  0  0  0  0
  143.9280   73.9750  218.9660 O   0  0  0  0  0  0  0  0  0  0  0  0
  145.1030   73.4460  219.5630 C   0  0  0  0  0  0  0  0  0  0  0  0
  145.4090   74.2340  220.6510 F   0  0  0  0  0  0  0  0  0  0  0  0
  146.1400   73.3770  218.6540 F   0  0  0  0  0  0  0  0  0  0  0  0
  144.7870   72.1730  220.0030 F   0  0  0  0  0  0  0  0  0  0  0  0
  142.3300   73.8730  220.7170 C   0  0  0  0  0  0  0  0  0  0  0  0
  141.4130   74.4880  221.5420 C   0  0  0  0  0  0  0  0  0  0  0  0
  139.2030   71.3800  223.0340 C   0  0  0  0  0  0  0  0  0  0  0  0
  138.8060   70.0700  222.9300 C   0  0  0  0  0  0  0  0  0  0  0  0
  139.0800   69.2410  223.9970 C   0  0  0  0  0  0  0  0  0  0  0  0
  139.7330   69.7210  225.1300 C   0  0  0  0  0  0  0  0  0  0  0  0
  140.0260   68.9380  226.2130 C   0  0  0  0  0  0  0  0  0  0  0  0
  140.6810   69.4850  227.3150 C   0  0  0  0  0  0  0  0  0  0  0  0
  141.0770   68.5220  228.7220 Cl  0  0  0  0  0  0  0  0  0  0  0  0
  141.0500   70.8170  227.3460 C   0  0  0  0  0  0  0  0  0  0  0  0
  140.7480   71.5920  226.2490 C   0  0  0  0  0  0  0  0  0  0  0  0
  140.1030   71.0430  225.1690 C   0  0  0  0  0  0  0  0  0  0  0  0
  139.8300   71.8310  224.1290 N   0  0  0  0  0  0  0  0  0  0  0  0
  137.5110   73.3980  222.9970 H   0  0  0  0  0  0  0  0  0  0  0  0
  137.7830   73.7127  220.0464 H   0  0  0  0  0  0  0  0  0  0  0  0
  136.6196   74.5716  221.2492 H   0  0  0  0  0  0  0  0  0  0  0  0
  137.2711   77.9310  221.9610 H   0  0  0  0  0  0  0  0  0  0  0  0
  137.9833   77.5530  223.4785 H   0  0  0  0  0  0  0  0  0  0  0  0
  139.4802   78.7308  220.9671 H   0  0  0  0  0  0  0  0  0  0  0  0
  139.2353   79.6441  222.4038 H   0  0  0  0  0  0  0  0  0  0  0  0
  141.4615   78.1014  222.1863 H   0  0  0  0  0  0  0  0  0  0  0  0
  140.6478   78.0591  223.7381 H   0  0  0  0  0  0  0  0  0  0  0  0
  140.1326   75.7678  223.3010 H   0  0  0  0  0  0  0  0  0  0  0  0
  141.6424   77.6532  220.4497 H   0  0  0  0  0  0  0  0  0  0  0  0
  143.2997   76.5972  218.9475 H   0  0  0  0  0  0  0  0  0  0  0  0
  142.5171   72.7924  220.8031 H   0  0  0  0  0  0  0  0  0  0  0  0
  140.8740   73.8800  222.2835 H   0  0  0  0  0  0  0  0  0  0  0  0
  138.2906   69.6972  222.0325 H   0  0  0  0  0  0  0  0  0  0  0  0
  138.7783   68.1841  223.9529 H   0  0  0  0  0  0  0  0  0  0  0  0
  139.7441   67.8747  226.2140 H   0  0  0  0  0  0  0  0  0  0  0  0
  141.5676   71.2433  228.2180 H   0  0  0  0  0  0  0  0  0  0  0  0
  141.0250   72.6565  226.2380 H   0  0  0  0  0  0  0  0  0  0  0  0
  1  2  2  0
  2  3  1  0
  3  4  1  0
  4  5  1  0
  5  6  2  0
  5  7  1  0
  7  8  1  0
  8  9  1  0
  9 10  1  0
 10 11  1  0
 11 12  1  0
 12 13  2  0
 13 14  1  0
 14 15  2  0
 15 16  1  0
 16 17  1  0
 17 18  1  0
 17 19  1  0
 17 20  1  0
 15 21  1  0
 21 22  2  0
  2 23  1  0
 23 24  2  0
 24 25  1  0
 25 26  2  0
 26 27  1  0
 27 28  2  0
 28 29  1  0
 28 30  1  0
 30 31  2  0
 31 32  1  0
 32 33  2  0
 11  7  1  0
 22 12  1  0
 33 23  1  0
 32 26  1  0
  3 34  1  0
  4 35  1  0
  4 36  1  0
  8 37  1  0
  8 38  1  0
  9 39  1  0
  9 40  1  0
 10 41  1  0
 10 42  1  0
 11 43  1  1
 13 44  1  0
 14 45  1  0
 21 46  1  0
 22 47  1  0
 24 48  1  0
 25 49  1  0
 27 50  1  0
 30 51  1  0
 31 52  1  0
M  END
>  <smiles>  (31) 
O=C(NCC(=O)N1CCCC1c1ccc(OC(F)(F)F)cc1)c1ccc2cc(Cl)ccc2n1

>  <score_type>  (31) 
oracle

>  <origin>  (31) 
autodockgpu

>  <m_score__min__energy>  (31) 
-7.8600000000000003

>  <m_primary>  (31) 
energy

>  <rmsd>  (31) 
2.7244507361333308

>  <m_score__min__rmsd>  (31) 
2.7244507361333308

>  <meeko>  (31) 
{"free_energy": -7.38, "intermolecular_energy": -9.47, "internal_energy": -2.0, "cluster_size": 4, "cluster_id": 4, "rank_in_cluster": 2}

>  <energy>  (31) 
-7.25

>  <cluster_rmsd>  (31) 
1.13

>  <cluster>  (31) 
2

$$$$

     RDKit          3D

 52 55  0  0  0  0  0  0  0  0999 V2000
  138.8980   71.9180  220.7080 O   0  0  0  0  0  0  0  0  0  0  0  0
  139.1080   72.3300  221.8680 C   0  0  0  0  0  0  0  0  0  0  0  0
  139.0900   73.7550  222.0620 N   0  0  0  0  0  0  0  0  0  0  0  0
  138.8520   74.7030  221.0290 C   0  0  0  0  0  0  0  0  0  0  0  0
  139.7430   74.7710  219.8770 C   0  0  0  0  0  0  0  0  0  0  0  0
  139.1250   75.2170  218.8000 O   0  0  0  0  0  0  0  0  0  0  0  0
  141.0740   74.4610  219.6980 N   0  0  0  0  0  0  0  0  0  0  0  0
  141.8740   73.2530  219.6680 C   0  0  0  0  0  0  0  0  0  0  0  0
  142.9070   73.6560  220.7290 C   0  0  0  0  0  0  0  0  0  0  0  0
  143.3730   74.9460  220.0960 C   0  0  0  0  0  0  0  0  0  0  0  0
  142.1140   75.5090  219.4890 C   0  0  2  0  0  0  0  0  0  0  0  0
  141.7870   76.7520  220.2130 C   0  0  0  0  0  0  0  0  0  0  0  0
  141.8010   78.0070  219.6780 C   0  0  0  0  0  0  0  0  0  0  0  0
  141.4800   79.1320  220.4250 C   0  0  0  0  0  0  0  0  0  0  0  0
  141.1330   78.9940  221.7590 C   0  0  0  0  0  0  0  0  0  0  0  0
  140.8020   80.0770  222.5630 O   0  0  0  0  0  0  0  0  0  0  0  0
  141.8280   80.9950  222.9110 C   0  0  0  0  0  0  0  0  0  0  0  0
  141.6400   81.3510  224.2280 F   0  0  0  0  0  0  0  0  0  0  0  0
  141.8300   82.0880  222.0660 F   0  0  0  0  0  0  0  0  0  0  0  0
  143.0270   80.3160  222.7920 F   0  0  0  0  0  0  0  0  0  0  0  0
  141.1120   77.7360  222.3280 C   0  0  0  0  0  0  0  0  0  0  0  0
  141.4350   76.6400  221.5590 C   0  0  0  0  0  0  0  0  0  0  0  0
  139.3590   71.4180  222.9810 C   0  0  0  0  0  0  0  0  0  0  0  0
  138.9840   70.1060  222.8400 C   0  0  0  0  0  0  0  0  0  0  0  0
  139.2300   69.2620  223.9030 C   0  0  0  0  0  0  0  0  0  0  0  0
  139.8350   69.7310  225.0670 C   0  0  0  0  0  0  0  0  0  0  0  0
  140.1000   68.9330  226.1460 C   0  0  0  0  0  0  0  0  0  0  0  0
  140.7070   69.4690  227.2800 C   0  0  0  0  0  0  0  0  0  0  0  0
  141.0640   68.4870  228.6850 Cl  0  0  0  0  0  0  0  0  0  0  0  0
  141.0570   70.8050  227.3470 C   0  0  0  0  0  0  0  0  0  0  0  0
  140.7840   71.5940  226.2530 C   0  0  0  0  0  0  0  0  0  0  0  0
  140.1860   71.0560  225.1420 C   0  0  0  0  0  0  0  0  0  0  0  0
  139.9400   71.8580  224.1050 N   0  0  0  0  0  0  0  0  0  0  0  0
  139.2760   74.0490  223.0680 H   0  0  0  0  0  0  0  0  0  0  0  0
  137.8442   74.4992  220.6382 H   0  0  0  0  0  0  0  0  0  0  0  0
  139.0170   75.6677  221.5310 H   0  0  0  0  0  0  0  0  0  0  0  0
  141.2977   72.3639  219.9638 H   0  0  0  0  0  0  0  0  0  0  0  0
  142.2772   72.9648  218.6860 H   0  0  0  0  0  0  0  0  0  0  0  0
  142.4483   73.8187  221.7154 H   0  0  0  0  0  0  0  0  0  0  0  0
  143.6909   72.9146  220.9432 H   0  0  0  0  0  0  0  0  0  0  0  0
  143.7855   75.6297  220.8526 H   0  0  0  0  0  0  0  0  0  0  0  0
  144.1770   74.7984  219.3599 H   0  0  0  0  0  0  0  0  0  0  0  0
  142.2005   75.7509  218.4194 H   0  0  0  0  0  0  0  0  0  0  0  0
  142.0756   78.1314  218.6201 H   0  0  0  0  0  0  0  0  0  0  0  0
  141.5011   80.1286  219.9598 H   0  0  0  0  0  0  0  0  0  0  0  0
  140.8397   77.6103  223.3863 H   0  0  0  0  0  0  0  0  0  0  0  0
  141.4149   75.6421  222.0215 H   0  0  0  0  0  0  0  0  0  0  0  0
  138.5071   69.7422  221.9179 H   0  0  0  0  0  0  0  0  0  0  0  0
  138.9441   68.2023  223.8305 H   0  0  0  0  0  0  0  0  0  0  0  0
  139.8334   67.8661  226.1184 H   0  0  0  0  0  0  0  0  0  0  0  0
  141.5372   71.2229  228.2441 H   0  0  0  0  0  0  0  0  0  0  0  0
  141.0468   72.6620  226.2696 H   0  0  0  0  0  0  0  0  0  0  0  0
  1  2  2  0
  2  3  1  0
  3  4  1  0
  4  5  1  0
  5  6  2  0
  5  7  1  0
  7  8  1  0
  8  9  1  0
  9 10  1  0
 10 11  1  0
 11 12  1  0
 12 13  2  0
 13 14  1  0
 14 15  2  0
 15 16  1  0
 16 17  1  0
 17 18  1  0
 17 19  1  0
 17 20  1  0
 15 21  1  0
 21 22  2  0
  2 23  1  0
 23 24  2  0
 24 25  1  0
 25 26  2  0
 26 27  1  0
 27 28  2  0
 28 29  1  0
 28 30  1  0
 30 31  2  0
 31 32  1  0
 32 33  2  0
 11  7  1  0
 22 12  1  0
 33 23  1  0
 32 26  1  0
  3 34  1  0
  4 35  1  0
  4 36  1  0
  8 37  1  0
  8 38  1  0
  9 39  1  0
  9 40  1  0
 10 41  1  0
 10 42  1  0
 11 43  1  6
 13 44  1  0
 14 45  1  0
 21 46  1  0
 22 47  1  0
 24 48  1  0
 25 49  1  0
 27 50  1  0
 30 51  1  0
 31 52  1  0
M  END
>  <smiles>  (32) 
O=C(NCC(=O)N1CCCC1c1ccc(OC(F)(F)F)cc1)c1ccc2cc(Cl)ccc2n1

>  <score_type>  (32) 
oracle

>  <origin>  (32) 
autodockgpu

>  <m_score__min__energy>  (32) 
-7.8600000000000003

>  <m_primary>  (32) 
energy

>  <rmsd>  (32) 
2.340299145110634

>  <m_score__min__rmsd>  (32) 
2.340299145110634

>  <meeko>  (32) 
{"free_energy": -7.53, "intermolecular_energy": -9.62, "internal_energy": -1.95, "cluster_size": 23, "cluster_id": 1, "rank_in_cluster": 18}

>  <energy>  (32) 
-7.15

>  <cluster_rmsd>  (32) 
1.2

>  <cluster>  (32) 
2

$$$$

     RDKit          3D

 52 55  0  0  0  0  0  0  0  0999 V2000
  138.9370   71.7120  220.6540 O   0  0  0  0  0  0  0  0  0  0  0  0
  139.0000   72.1350  221.8270 C   0  0  0  0  0  0  0  0  0  0  0  0
  138.7920   73.5450  222.0190 N   0  0  0  0  0  0  0  0  0  0  0  0
  138.5220   74.4660  220.9700 C   0  0  0  0  0  0  0  0  0  0  0  0
  139.5080   74.6900  219.9190 C   0  0  0  0  0  0  0  0  0  0  0  0
  139.0190   75.4100  218.9270 O   0  0  0  0  0  0  0  0  0  0  0  0
  140.8210   74.2990  219.7630 N   0  0  0  0  0  0  0  0  0  0  0  0
  141.5250   73.0480  219.5660 C   0  0  0  0  0  0  0  0  0  0  0  0
  142.5090   73.1730  220.7370 C   0  0  0  0  0  0  0  0  0  0  0  0
  143.1160   74.5060  220.3660 C   0  0  0  0  0  0  0  0  0  0  0  0
  141.9500   75.2720  219.7990 C   0  0  2  0  0  0  0  0  0  0  0  0
  141.6700   76.3980  220.7100 C   0  0  0  0  0  0  0  0  0  0  0  0
  141.1160   76.2920  221.9520 C   0  0  0  0  0  0  0  0  0  0  0  0
  140.8830   77.4010  222.7540 C   0  0  0  0  0  0  0  0  0  0  0  0
  141.2190   78.6630  222.2940 C   0  0  0  0  0  0  0  0  0  0  0  0
  141.0130   79.8140  223.0430 O   0  0  0  0  0  0  0  0  0  0  0  0
  142.0560   80.7760  223.1000 C   0  0  0  0  0  0  0  0  0  0  0  0
  141.8550   81.5440  224.2250 F   0  0  0  0  0  0  0  0  0  0  0  0
  142.1040   81.5340  221.9460 F   0  0  0  0  0  0  0  0  0  0  0  0
  143.2380   80.0710  223.2390 F   0  0  0  0  0  0  0  0  0  0  0  0
  141.7810   78.8010  221.0390 C   0  0  0  0  0  0  0  0  0  0  0  0
  141.9990   77.6800  220.2690 C   0  0  0  0  0  0  0  0  0  0  0  0
  139.2720   71.2500  222.9570 C   0  0  0  0  0  0  0  0  0  0  0  0
  138.8990   69.9340  222.8530 C   0  0  0  0  0  0  0  0  0  0  0  0
  139.1650   69.1160  223.9310 C   0  0  0  0  0  0  0  0  0  0  0  0
  139.7860   69.6140  225.0750 C   0  0  0  0  0  0  0  0  0  0  0  0
  140.0700   68.8430  226.1680 C   0  0  0  0  0  0  0  0  0  0  0  0
  140.6940   69.4070  227.2790 C   0  0  0  0  0  0  0  0  0  0  0  0
  141.0760   68.4590  228.7010 Cl  0  0  0  0  0  0  0  0  0  0  0  0
  141.0400   70.7450  227.3100 C   0  0  0  0  0  0  0  0  0  0  0  0
  140.7470   71.5080  226.2020 C   0  0  0  0  0  0  0  0  0  0  0  0
  140.1340   70.9420  225.1130 C   0  0  0  0  0  0  0  0  0  0  0  0
  139.8690   71.7190  224.0620 N   0  0  0  0  0  0  0  0  0  0  0  0
  138.8580   73.8500  223.0360 H   0  0  0  0  0  0  0  0  0  0  0  0
  137.6032   74.1203  220.4737 H   0  0  0  0  0  0  0  0  0  0  0  0
  138.4852   75.4346  221.4900 H   0  0  0  0  0  0  0  0  0  0  0  0
  140.8626   72.1759  219.6692 H   0  0  0  0  0  0  0  0  0  0  0  0
  141.9722   72.8959  218.5726 H   0  0  0  0  0  0  0  0  0  0  0  0
  141.9961   73.2057  221.7096 H   0  0  0  0  0  0  0  0  0  0  0  0
  143.2167   72.3401  220.8618 H   0  0  0  0  0  0  0  0  0  0  0  0
  143.5266   75.0123  221.2521 H   0  0  0  0  0  0  0  0  0  0  0  0
  143.9553   74.4154  219.6607 H   0  0  0  0  0  0  0  0  0  0  0  0
  142.1289   75.6840  218.7949 H   0  0  0  0  0  0  0  0  0  0  0  0
  140.8450   75.2953  222.3304 H   0  0  0  0  0  0  0  0  0  0  0  0
  140.4335   77.2777  223.7504 H   0  0  0  0  0  0  0  0  0  0  0  0
  142.0518   79.7970  220.6585 H   0  0  0  0  0  0  0  0  0  0  0  0
  142.4480   77.7997  219.2720 H   0  0  0  0  0  0  0  0  0  0  0  0
  138.4083   69.5473  221.9476 H   0  0  0  0  0  0  0  0  0  0  0  0
  138.8826   68.0538  223.8872 H   0  0  0  0  0  0  0  0  0  0  0  0
  139.8054   67.7753  226.1703 H   0  0  0  0  0  0  0  0  0  0  0  0
  141.5325   71.1850  228.1897 H   0  0  0  0  0  0  0  0  0  0  0  0
  141.0058   72.5771  226.1899 H   0  0  0  0  0  0  0  0  0  0  0  0
  1  2  2  0
  2  3  1  0
  3  4  1  0
  4  5  1  0
  5  6  2  0
  5  7  1  0
  7  8  1  0
  8  9  1  0
  9 10  1  0
 10 11  1  0
 11 12  1  0
 12 13  2  0
 13 14  1  0
 14 15  2  0
 15 16  1  0
 16 17  1  0
 17 18  1  0
 17 19  1  0
 17 20  1  0
 15 21  1  0
 21 22  2  0
  2 23  1  0
 23 24  2  0
 24 25  1  0
 25 26  2  0
 26 27  1  0
 27 28  2  0
 28 29  1  0
 28 30  1  0
 30 31  2  0
 31 32  1  0
 32 33  2  0
 11  7  1  0
 22 12  1  0
 33 23  1  0
 32 26  1  0
  3 34  1  0
  4 35  1  0
  4 36  1  0
  8 37  1  0
  8 38  1  0
  9 39  1  0
  9 40  1  0
 10 41  1  0
 10 42  1  0
 11 43  1  6
 13 44  1  0
 14 45  1  0
 21 46  1  0
 22 47  1  0
 24 48  1  0
 25 49  1  0
 27 50  1  0
 30 51  1  0
 31 52  1  0
M  END
>  <smiles>  (33) 
O=C(NCC(=O)N1CCCC1c1ccc(OC(F)(F)F)cc1)c1ccc2cc(Cl)ccc2n1

>  <score_type>  (33) 
oracle

>  <origin>  (33) 
autodockgpu

>  <m_score__min__energy>  (33) 
-7.8600000000000003

>  <m_primary>  (33) 
energy

>  <rmsd>  (33) 
2.3077214713063334

>  <m_score__min__rmsd>  (33) 
2.3077214713063334

>  <meeko>  (33) 
{"free_energy": -7.79, "intermolecular_energy": -9.88, "internal_energy": -1.98, "cluster_size": 23, "cluster_id": 1, "rank_in_cluster": 7}

>  <energy>  (33) 
-7.13

>  <cluster_rmsd>  (33) 
0.86

>  <cluster>  (33) 
2

$$$$

     RDKit          3D

 52 55  0  0  0  0  0  0  0  0999 V2000
  141.7050   79.0580  217.3370 O   0  0  0  0  0  0  0  0  0  0  0  0
  142.2180   78.4930  218.3260 C   0  0  0  0  0  0  0  0  0  0  0  0
  142.1810   79.2090  219.5720 N   0  0  0  0  0  0  0  0  0  0  0  0
  141.6040   80.4980  219.7410 C   0  0  0  0  0  0  0  0  0  0  0  0
  140.8140   80.7970  220.9300 C   0  0  0  0  0  0  0  0  0  0  0  0
  139.6260   81.2830  220.6250 O   0  0  0  0  0  0  0  0  0  0  0  0
  141.0660   80.6780  222.2800 N   0  0  0  0  0  0  0  0  0  0  0  0
  141.8930   81.3580  223.2560 C   0  0  0  0  0  0  0  0  0  0  0  0
  142.6380   80.1290  223.7950 C   0  0  0  0  0  0  0  0  0  0  0  0
  141.4360   79.3060  224.1930 C   0  0  0  0  0  0  0  0  0  0  0  0
  140.4290   79.6220  223.1180 C   0  0  2  0  0  0  0  0  0  0  0  0
  140.1960   78.3840  222.3490 C   0  0  0  0  0  0  0  0  0  0  0  0
  139.1540   78.1670  221.4950 C   0  0  0  0  0  0  0  0  0  0  0  0
  139.0010   76.9730  220.8040 C   0  0  0  0  0  0  0  0  0  0  0  0
  139.9270   75.9570  220.9770 C   0  0  0  0  0  0  0  0  0  0  0  0
  139.8350   74.7380  220.3190 O   0  0  0  0  0  0  0  0  0  0  0  0
  139.9860   74.7220  218.9070 C   0  0  0  0  0  0  0  0  0  0  0  0
  141.0140   73.8560  218.6070 F   0  0  0  0  0  0  0  0  0  0  0  0
  140.2060   75.9930  218.4120 F   0  0  0  0  0  0  0  0  0  0  0  0
  138.8060   74.2210  218.3870 F   0  0  0  0  0  0  0  0  0  0  0  0
  140.9920   76.1480  221.8370 C   0  0  0  0  0  0  0  0  0  0  0  0
  141.1140   77.3460  222.5070 C   0  0  0  0  0  0  0  0  0  0  0  0
  142.8280   77.1690  218.2320 C   0  0  0  0  0  0  0  0  0  0  0  0
  143.0800   76.6590  216.9830 C   0  0  0  0  0  0  0  0  0  0  0  0
  143.6560   75.4080  216.9180 C   0  0  0  0  0  0  0  0  0  0  0  0
  143.9670   74.6980  218.0760 C   0  0  0  0  0  0  0  0  0  0  0  0
  144.5390   73.4560  218.0610 C   0  0  0  0  0  0  0  0  0  0  0  0
  144.8220   72.8020  219.2590 C   0  0  0  0  0  0  0  0  0  0  0  0
  145.5540   71.2110  219.2900 Cl  0  0  0  0  0  0  0  0  0  0  0  0
  144.5390   73.3830  220.4810 C   0  0  0  0  0  0  0  0  0  0  0  0
  143.9640   74.6330  220.4790 C   0  0  0  0  0  0  0  0  0  0  0  0
  143.6890   75.2680  219.2940 C   0  0  0  0  0  0  0  0  0  0  0  0
  143.1310   76.4780  219.3400 N   0  0  0  0  0  0  0  0  0  0  0  0
  142.6320   78.6810  220.3790 H   0  0  0  0  0  0  0  0  0  0  0  0
  142.4327   81.2211  219.7212 H   0  0  0  0  0  0  0  0  0  0  0  0
  140.8645   80.5506  218.9284 H   0  0  0  0  0  0  0  0  0  0  0  0
  142.5729   82.0870  222.7909 H   0  0  0  0  0  0  0  0  0  0  0  0
  141.3599   81.9658  224.0019 H   0  0  0  0  0  0  0  0  0  0  0  0
  143.2416   79.6353  223.0192 H   0  0  0  0  0  0  0  0  0  0  0  0
  143.3728   80.3227  224.5903 H   0  0  0  0  0  0  0  0  0  0  0  0
  141.6786   78.2331  224.2027 H   0  0  0  0  0  0  0  0  0  0  0  0
  141.0722   79.5366  225.2051 H   0  0  0  0  0  0  0  0  0  0  0  0
  139.4594   79.9739  223.5000 H   0  0  0  0  0  0  0  0  0  0  0  0
  138.4107   78.9647  221.3494 H   0  0  0  0  0  0  0  0  0  0  0  0
  138.1488   76.8341  220.1224 H   0  0  0  0  0  0  0  0  0  0  0  0
  141.7355   75.3510  221.9853 H   0  0  0  0  0  0  0  0  0  0  0  0
  141.9646   77.4885  223.1898 H   0  0  0  0  0  0  0  0  0  0  0  0
  142.8329   77.2244  216.0723 H   0  0  0  0  0  0  0  0  0  0  0  0
  143.8736   74.9631  215.9358 H   0  0  0  0  0  0  0  0  0  0  0  0
  144.7762   72.9722  217.1020 H   0  0  0  0  0  0  0  0  0  0  0  0
  144.7659   72.8633  221.4236 H   0  0  0  0  0  0  0  0  0  0  0  0
  143.7235   75.1260  221.4325 H   0  0  0  0  0  0  0  0  0  0  0  0
  1  2  2  0
  2  3  1  0
  3  4  1  0
  4  5  1  0
  5  6  2  0
  5  7  1  0
  7  8  1  0
  8  9  1  0
  9 10  1  0
 10 11  1  0
 11 12  1  0
 12 13  2  0
 13 14  1  0
 14 15  2  0
 15 16  1  0
 16 17  1  0
 17 18  1  0
 17 19  1  0
 17 20  1  0
 15 21  1  0
 21 22  2  0
  2 23  1  0
 23 24  2  0
 24 25  1  0
 25 26  2  0
 26 27  1  0
 27 28  2  0
 28 29  1  0
 28 30  1  0
 30 31  2  0
 31 32  1  0
 32 33  2  0
 11  7  1  0
 22 12  1  0
 33 23  1  0
 32 26  1  0
  3 34  1  0
  4 35  1  0
  4 36  1  0
  8 37  1  0
  8 38  1  0
  9 39  1  0
  9 40  1  0
 10 41  1  0
 10 42  1  0
 11 43  1  1
 13 44  1  0
 14 45  1  0
 21 46  1  0
 22 47  1  0
 24 48  1  0
 25 49  1  0
 27 50  1  0
 30 51  1  0
 31 52  1  0
M  END
>  <smiles>  (34) 
O=C(NCC(=O)N1CCCC1c1ccc(OC(F)(F)F)cc1)c1ccc2cc(Cl)ccc2n1

>  <score_type>  (34) 
oracle

>  <origin>  (34) 
autodockgpu

>  <m_score__min__energy>  (34) 
-7.8600000000000003

>  <m_primary>  (34) 
energy

>  <rmsd>  (34) 
8.512019631547469

>  <m_score__min__rmsd>  (34) 
8.512019631547469

>  <meeko>  (34) 
{"free_energy": -5.95, "intermolecular_energy": -8.04, "internal_energy": -3.23, "cluster_size": 9, "cluster_id": 6, "rank_in_cluster": 8}

>  <energy>  (34) 
-7.09

>  <cluster_rmsd>  (34) 
1.26

>  <cluster>  (34) 
2

$$$$

     RDKit          3D

 52 55  0  0  0  0  0  0  0  0999 V2000
  140.6520   72.3960  220.7380 O   0  0  0  0  0  0  0  0  0  0  0  0
  140.2670   72.7260  221.8790 C   0  0  0  0  0  0  0  0  0  0  0  0
  139.9020   74.1040  222.0660 N   0  0  0  0  0  0  0  0  0  0  0  0
  139.9520   75.0930  221.0460 C   0  0  0  0  0  0  0  0  0  0  0  0
  140.8970   76.2000  221.1440 C   0  0  0  0  0  0  0  0  0  0  0  0
  141.2390   76.4490  222.3940 O   0  0  0  0  0  0  0  0  0  0  0  0
  141.4850   77.0210  220.2050 N   0  0  0  0  0  0  0  0  0  0  0  0
  141.0990   78.2000  219.4560 C   0  0  0  0  0  0  0  0  0  0  0  0
  141.4030   77.6660  218.0500 C   0  0  0  0  0  0  0  0  0  0  0  0
  142.8480   77.2890  218.2700 C   0  0  0  0  0  0  0  0  0  0  0  0
  142.8610   76.7790  219.6870 C   0  0  2  0  0  0  0  0  0  0  0  0
  143.1800   75.3390  219.6390 C   0  0  0  0  0  0  0  0  0  0  0  0
  142.5480   74.4140  218.8610 C   0  0  0  0  0  0  0  0  0  0  0  0
  142.9060   73.0730  218.8690 C   0  0  0  0  0  0  0  0  0  0  0  0
  143.9360   72.6430  219.6900 C   0  0  0  0  0  0  0  0  0  0  0  0
  144.3450   71.3170  219.7480 O   0  0  0  0  0  0  0  0  0  0  0  0
  145.2220   70.8380  218.7400 C   0  0  0  0  0  0  0  0  0  0  0  0
  146.3180   70.2870  219.3670 F   0  0  0  0  0  0  0  0  0  0  0  0
  145.5710   71.8440  217.8590 F   0  0  0  0  0  0  0  0  0  0  0  0
  144.5420   69.8430  218.0610 F   0  0  0  0  0  0  0  0  0  0  0  0
  144.5940   73.5570  220.4900 C   0  0  0  0  0  0  0  0  0  0  0  0
  144.2130   74.8810  220.4570 C   0  0  0  0  0  0  0  0  0  0  0  0
  140.1870   71.7670  222.9780 C   0  0  0  0  0  0  0  0  0  0  0  0
  139.6210   70.5420  222.7280 C   0  0  0  0  0  0  0  0  0  0  0  0
  139.5560   69.6510  223.7790 C   0  0  0  0  0  0  0  0  0  0  0  0
  140.0450   69.9900  225.0390 C   0  0  0  0  0  0  0  0  0  0  0  0
  140.0030   69.1410  226.1110 C   0  0  0  0  0  0  0  0  0  0  0  0
  140.5120   69.5460  227.3440 C   0  0  0  0  0  0  0  0  0  0  0  0
  140.4780   68.4940  228.7440 Cl  0  0  0  0  0  0  0  0  0  0  0  0
  141.0680   70.8000  227.5180 C   0  0  0  0  0  0  0  0  0  0  0  0
  141.1030   71.6410  226.4300 C   0  0  0  0  0  0  0  0  0  0  0  0
  140.6000   71.2330  225.2200 C   0  0  0  0  0  0  0  0  0  0  0  0
  140.6550   72.0820  224.1940 N   0  0  0  0  0  0  0  0  0  0  0  0
  139.5830   74.3290  223.0560 H   0  0  0  0  0  0  0  0  0  0  0  0
  140.1761   74.5675  220.1060 H   0  0  0  0  0  0  0  0  0  0  0  0
  138.9741   75.5896  221.1297 H   0  0  0  0  0  0  0  0  0  0  0  0
  140.0353   78.4476  219.5871 H   0  0  0  0  0  0  0  0  0  0  0  0
  141.6019   79.1372  219.7365 H   0  0  0  0  0  0  0  0  0  0  0  0
  140.7810   76.7961  217.7922 H   0  0  0  0  0  0  0  0  0  0  0  0
  141.2087   78.3608  217.2196 H   0  0  0  0  0  0  0  0  0  0  0  0
  143.1622   76.5044  217.5659 H   0  0  0  0  0  0  0  0  0  0  0  0
  143.5412   78.1276  218.1079 H   0  0  0  0  0  0  0  0  0  0  0  0
  143.6020   77.2704  220.3347 H   0  0  0  0  0  0  0  0  0  0  0  0
  141.7276   74.7416  218.2056 H   0  0  0  0  0  0  0  0  0  0  0  0
  142.3747   72.3552  218.2268 H   0  0  0  0  0  0  0  0  0  0  0  0
  145.4140   73.2312  221.1469 H   0  0  0  0  0  0  0  0  0  0  0  0
  144.7419   75.6017  221.0980 H   0  0  0  0  0  0  0  0  0  0  0  0
  139.2354   70.2816  221.7313 H   0  0  0  0  0  0  0  0  0  0  0  0
  139.1113   68.6575  223.6200 H   0  0  0  0  0  0  0  0  0  0  0  0
  139.5669   68.1373  225.9998 H   0  0  0  0  0  0  0  0  0  0  0  0
  141.4686   71.1143  228.4931 H   0  0  0  0  0  0  0  0  0  0  0  0
  141.5369   72.6468  226.5304 H   0  0  0  0  0  0  0  0  0  0  0  0
  1  2  2  0
  2  3  1  0
  3  4  1  0
  4  5  1  0
  5  6  2  0
  5  7  1  0
  7  8  1  0
  8  9  1  0
  9 10  1  0
 10 11  1  0
 11 12  1  0
 12 13  2  0
 13 14  1  0
 14 15  2  0
 15 16  1  0
 16 17  1  0
 17 18  1  0
 17 19  1  0
 17 20  1  0
 15 21  1  0
 21 22  2  0
  2 23  1  0
 23 24  2  0
 24 25  1  0
 25 26  2  0
 26 27  1  0
 27 28  2  0
 28 29  1  0
 28 30  1  0
 30 31  2  0
 31 32  1  0
 32 33  2  0
 11  7  1  0
 22 12  1  0
 33 23  1  0
 32 26  1  0
  3 34  1  0
  4 35  1  0
  4 36  1  0
  8 37  1  0
  8 38  1  0
  9 39  1  0
  9 40  1  0
 10 41  1  0
 10 42  1  0
 11 43  1  1
 13 44  1  0
 14 45  1  0
 21 46  1  0
 22 47  1  0
 24 48  1  0
 25 49  1  0
 27 50  1  0
 30 51  1  0
 31 52  1  0
M  END
>  <smiles>  (35) 
O=C(NCC(=O)N1CCCC1c1ccc(OC(F)(F)F)cc1)c1ccc2cc(Cl)ccc2n1

>  <score_type>  (35) 
oracle

>  <origin>  (35) 
autodockgpu

>  <m_score__min__energy>  (35) 
-7.8600000000000003

>  <m_primary>  (35) 
energy

>  <rmsd>  (35) 
2.199466314783875

>  <m_score__min__rmsd>  (35) 
2.199466314783875

>  <meeko>  (35) 
{"free_energy": -7.47, "intermolecular_energy": -9.56, "internal_energy": -2.11, "cluster_size": 11, "cluster_id": 2, "rank_in_cluster": 2}

>  <energy>  (35) 
-7.64

>  <cluster_rmsd>  (35) 
0.0

>  <cluster>  (35) 
3

$$$$

     RDKit          3D

 52 55  0  0  0  0  0  0  0  0999 V2000
  139.1990   71.9270  220.5800 O   0  0  0  0  0  0  0  0  0  0  0  0
  139.1400   72.3240  221.7620 C   0  0  0  0  0  0  0  0  0  0  0  0
  138.8620   73.7200  221.9630 N   0  0  0  0  0  0  0  0  0  0  0  0
  138.6510   74.6560  220.9130 C   0  0  0  0  0  0  0  0  0  0  0  0
  139.5800   74.7180  219.7900 C   0  0  0  0  0  0  0  0  0  0  0  0
  138.9960   75.1510  218.6890 O   0  0  0  0  0  0  0  0  0  0  0  0
  140.9180   74.4130  219.6590 N   0  0  0  0  0  0  0  0  0  0  0  0
  141.7040   73.2150  219.4430 C   0  0  0  0  0  0  0  0  0  0  0  0
  142.6480   73.3630  220.6440 C   0  0  0  0  0  0  0  0  0  0  0  0
  143.1800   74.7410  220.3310 C   0  0  0  0  0  0  0  0  0  0  0  0
  141.9830   75.4520  219.7550 C   0  0  2  0  0  0  0  0  0  0  0  0
  141.6110   76.5290  220.6920 C   0  0  0  0  0  0  0  0  0  0  0  0
  141.0690   76.3480  221.9300 C   0  0  0  0  0  0  0  0  0  0  0  0
  140.7440   77.4150  222.7580 C   0  0  0  0  0  0  0  0  0  0  0  0
  140.9720   78.7110  222.3270 C   0  0  0  0  0  0  0  0  0  0  0  0
  140.6710   79.8230  223.1030 O   0  0  0  0  0  0  0  0  0  0  0  0
  139.3270   80.2800  223.1300 C   0  0  0  0  0  0  0  0  0  0  0  0
  139.3260   81.5950  222.7170 F   0  0  0  0  0  0  0  0  0  0  0  0
  138.7680   80.1210  224.3820 F   0  0  0  0  0  0  0  0  0  0  0  0
  138.6290   79.5180  222.2110 F   0  0  0  0  0  0  0  0  0  0  0  0
  141.5200   78.9250  221.0770 C   0  0  0  0  0  0  0  0  0  0  0  0
  141.8300   77.8440  220.2810 C   0  0  0  0  0  0  0  0  0  0  0  0
  139.3430   71.4230  222.8940 C   0  0  0  0  0  0  0  0  0  0  0  0
  138.8950   70.1310  222.7820 C   0  0  0  0  0  0  0  0  0  0  0  0
  139.0960   69.2970  223.8620 C   0  0  0  0  0  0  0  0  0  0  0  0
  139.7300   69.7560  225.0150 C   0  0  0  0  0  0  0  0  0  0  0  0
  139.9530   68.9670  226.1100 C   0  0  0  0  0  0  0  0  0  0  0  0
  140.5930   69.4920  227.2310 C   0  0  0  0  0  0  0  0  0  0  0  0
  140.8990   68.5210  228.6560 Cl  0  0  0  0  0  0  0  0  0  0  0  0
  141.0170   70.8070  227.2690 C   0  0  0  0  0  0  0  0  0  0  0  0
  140.7860   71.5870  226.1590 C   0  0  0  0  0  0  0  0  0  0  0  0
  140.1550   71.0610  225.0600 C   0  0  0  0  0  0  0  0  0  0  0  0
  139.9520   71.8530  224.0080 N   0  0  0  0  0  0  0  0  0  0  0  0
  138.8250   74.0030  222.9880 H   0  0  0  0  0  0  0  0  0  0  0  0
  137.6580   74.4409  220.4914 H   0  0  0  0  0  0  0  0  0  0  0  0
  138.7917   75.6273  221.4098 H   0  0  0  0  0  0  0  0  0  0  0  0
  141.0953   72.3006  219.5011 H   0  0  0  0  0  0  0  0  0  0  0  0
  142.1850   73.1230  218.4580 H   0  0  0  0  0  0  0  0  0  0  0  0
  142.1092   73.3331  221.6026 H   0  0  0  0  0  0  0  0  0  0  0  0
  143.4028   72.5717  220.7628 H   0  0  0  0  0  0  0  0  0  0  0  0
  143.5352   75.2428  221.2431 H   0  0  0  0  0  0  0  0  0  0  0  0
  144.0413   74.7248  219.6470 H   0  0  0  0  0  0  0  0  0  0  0  0
  142.1610   75.9059  218.7690 H   0  0  0  0  0  0  0  0  0  0  0  0
  140.8830   75.3235  222.2847 H   0  0  0  0  0  0  0  0  0  0  0  0
  140.3078   77.2313  223.7509 H   0  0  0  0  0  0  0  0  0  0  0  0
  141.7071   79.9487  220.7206 H   0  0  0  0  0  0  0  0  0  0  0  0
  142.2653   78.0241  219.2870 H   0  0  0  0  0  0  0  0  0  0  0  0
  138.3961   69.7750  221.8686 H   0  0  0  0  0  0  0  0  0  0  0  0
  138.7506   68.2538  223.8125 H   0  0  0  0  0  0  0  0  0  0  0  0
  139.6266   67.9165  226.1056 H   0  0  0  0  0  0  0  0  0  0  0  0
  141.5220   71.2162  228.1564 H   0  0  0  0  0  0  0  0  0  0  0  0
  141.1092   72.6384  226.1528 H   0  0  0  0  0  0  0  0  0  0  0  0
  1  2  2  0
  2  3  1  0
  3  4  1  0
  4  5  1  0
  5  6  2  0
  5  7  1  0
  7  8  1  0
  8  9  1  0
  9 10  1  0
 10 11  1  0
 11 12  1  0
 12 13  2  0
 13 14  1  0
 14 15  2  0
 15 16  1  0
 16 17  1  0
 17 18  1  0
 17 19  1  0
 17 20  1  0
 15 21  1  0
 21 22  2  0
  2 23  1  0
 23 24  2  0
 24 25  1  0
 25 26  2  0
 26 27  1  0
 27 28  2  0
 28 29  1  0
 28 30  1  0
 30 31  2  0
 31 32  1  0
 32 33  2  0
 11  7  1  0
 22 12  1  0
 33 23  1  0
 32 26  1  0
  3 34  1  0
  4 35  1  0
  4 36  1  0
  8 37  1  0
  8 38  1  0
  9 39  1  0
  9 40  1  0
 10 41  1  0
 10 42  1  0
 11 43  1  6
 13 44  1  0
 14 45  1  0
 21 46  1  0
 22 47  1  0
 24 48  1  0
 25 49  1  0
 27 50  1  0
 30 51  1  0
 31 52  1  0
M  END
>  <smiles>  (36) 
O=C(NCC(=O)N1CCCC1c1ccc(OC(F)(F)F)cc1)c1ccc2cc(Cl)ccc2n1

>  <score_type>  (36) 
oracle

>  <origin>  (36) 
autodockgpu

>  <m_score__min__energy>  (36) 
-7.8600000000000003

>  <m_primary>  (36) 
energy

>  <rmsd>  (36) 
2.3206774927455887

>  <m_score__min__rmsd>  (36) 
2.3206774927455887

>  <meeko>  (36) 
{"free_energy": -7.37, "intermolecular_energy": -9.46, "internal_energy": -1.92, "cluster_size": 23, "cluster_id": 1, "rank_in_cluster": 22}

>  <energy>  (36) 
-7.49

>  <cluster_rmsd>  (36) 
0.0

>  <cluster>  (36) 
4

$$$$

     RDKit          3D

 52 55  0  0  0  0  0  0  0  0999 V2000
  140.5490   72.4920  220.6950 O   0  0  0  0  0  0  0  0  0  0  0  0
  140.2140   72.8130  221.8540 C   0  0  0  0  0  0  0  0  0  0  0  0
  139.8960   74.1970  222.0770 N   0  0  0  0  0  0  0  0  0  0  0  0
  139.9390   75.2030  221.0720 C   0  0  0  0  0  0  0  0  0  0  0  0
  140.6880   76.4340  221.2990 C   0  0  0  0  0  0  0  0  0  0  0  0
  140.8080   76.7100  222.5830 O   0  0  0  0  0  0  0  0  0  0  0  0
  141.2770   77.3450  220.4490 N   0  0  0  0  0  0  0  0  0  0  0  0
  140.9280   78.6370  219.8930 C   0  0  0  0  0  0  0  0  0  0  0  0
  141.1280   78.2910  218.4120 C   0  0  0  0  0  0  0  0  0  0  0  0
  142.5570   77.8100  218.4940 C   0  0  0  0  0  0  0  0  0  0  0  0
  142.6090   77.1050  219.8250 C   0  0  2  0  0  0  0  0  0  0  0  0
  142.8370   75.6720  219.5600 C   0  0  0  0  0  0  0  0  0  0  0  0
  142.1350   74.9090  218.6740 C   0  0  0  0  0  0  0  0  0  0  0  0
  142.4080   73.5620  218.4790 C   0  0  0  0  0  0  0  0  0  0  0  0
  143.4240   72.9570  219.2010 C   0  0  0  0  0  0  0  0  0  0  0  0
  143.7500   71.6150  219.0560 O   0  0  0  0  0  0  0  0  0  0  0  0
  143.1890   70.6840  219.9690 C   0  0  0  0  0  0  0  0  0  0  0  0
  144.0800   69.6420  220.1040 F   0  0  0  0  0  0  0  0  0  0  0  0
  141.9430   70.2600  219.5510 F   0  0  0  0  0  0  0  0  0  0  0  0
  143.0720   71.3380  221.1820 F   0  0  0  0  0  0  0  0  0  0  0  0
  144.1520   73.7040  220.1060 C   0  0  0  0  0  0  0  0  0  0  0  0
  143.8540   75.0390  220.2750 C   0  0  0  0  0  0  0  0  0  0  0  0
  140.1440   71.8370  222.9390 C   0  0  0  0  0  0  0  0  0  0  0  0
  139.5910   70.6100  222.6720 C   0  0  0  0  0  0  0  0  0  0  0  0
  139.5350   69.7040  223.7100 C   0  0  0  0  0  0  0  0  0  0  0  0
  140.0220   70.0290  224.9740 C   0  0  0  0  0  0  0  0  0  0  0  0
  139.9890   69.1650  226.0340 C   0  0  0  0  0  0  0  0  0  0  0  0
  140.4940   69.5560  227.2720 C   0  0  0  0  0  0  0  0  0  0  0  0
  140.4720   68.4840  228.6560 Cl  0  0  0  0  0  0  0  0  0  0  0  0
  141.0380   70.8130  227.4640 C   0  0  0  0  0  0  0  0  0  0  0  0
  141.0640   71.6710  226.3880 C   0  0  0  0  0  0  0  0  0  0  0  0
  140.5640   71.2750  225.1730 C   0  0  0  0  0  0  0  0  0  0  0  0
  140.6100   72.1390  224.1590 N   0  0  0  0  0  0  0  0  0  0  0  0
  139.6180   74.4140  223.0810 H   0  0  0  0  0  0  0  0  0  0  0  0
  140.3649   74.7343  220.1726 H   0  0  0  0  0  0  0  0  0  0  0  0
  138.8964   75.5496  221.0188 H   0  0  0  0  0  0  0  0  0  0  0  0
  139.8895   78.9211  220.1183 H   0  0  0  0  0  0  0  0  0  0  0  0
  141.5014   79.4965  220.2704 H   0  0  0  0  0  0  0  0  0  0  0  0
  140.4420   77.5006  218.0734 H   0  0  0  0  0  0  0  0  0  0  0  0
  140.9351   79.1051  217.6978 H   0  0  0  0  0  0  0  0  0  0  0  0
  142.7874   77.1168  217.6715 H   0  0  0  0  0  0  0  0  0  0  0  0
  143.2912   78.6247  218.4092 H   0  0  0  0  0  0  0  0  0  0  0  0
  143.4093   77.4595  220.4913 H   0  0  0  0  0  0  0  0  0  0  0  0
  141.3254   75.3766  218.0945 H   0  0  0  0  0  0  0  0  0  0  0  0
  141.8208   72.9780  217.7550 H   0  0  0  0  0  0  0  0  0  0  0  0
  144.9619   73.2380  220.6864 H   0  0  0  0  0  0  0  0  0  0  0  0
  144.4385   75.6258  220.9989 H   0  0  0  0  0  0  0  0  0  0  0  0
  139.2083   70.3595  221.6716 H   0  0  0  0  0  0  0  0  0  0  0  0
  139.0989   68.7090  223.5372 H   0  0  0  0  0  0  0  0  0  0  0  0
  139.5626   68.1588  225.9085 H   0  0  0  0  0  0  0  0  0  0  0  0
  141.4363   71.1168  228.4433 H   0  0  0  0  0  0  0  0  0  0  0  0
  141.4879   72.6796  226.5027 H   0  0  0  0  0  0  0  0  0  0  0  0
  1  2  2  0
  2  3  1  0
  3  4  1  0
  4  5  1  0
  5  6  2  0
  5  7  1  0
  7  8  1  0
  8  9  1  0
  9 10  1  0
 10 11  1  0
 11 12  1  0
 12 13  2  0
 13 14  1  0
 14 15  2  0
 15 16  1  0
 16 17  1  0
 17 18  1  0
 17 19  1  0
 17 20  1  0
 15 21  1  0
 21 22  2  0
  2 23  1  0
 23 24  2  0
 24 25  1  0
 25 26  2  0
 26 27  1  0
 27 28  2  0
 28 29  1  0
 28 30  1  0
 30 31  2  0
 31 32  1  0
 32 33  2  0
 11  7  1  0
 22 12  1  0
 33 23  1  0
 32 26  1  0
  3 34  1  0
  4 35  1  0
  4 36  1  0
  8 37  1  0
  8 38  1  0
  9 39  1  0
  9 40  1  0
 10 41  1  0
 10 42  1  0
 11 43  1  1
 13 44  1  0
 14 45  1  0
 21 46  1  0
 22 47  1  0
 24 48  1  0
 25 49  1  0
 27 50  1  0
 30 51  1  0
 31 52  1  0
M  END
>  <smiles>  (37) 
O=C(NCC(=O)N1CCCC1c1ccc(OC(F)(F)F)cc1)c1ccc2cc(Cl)ccc2n1

>  <score_type>  (37) 
oracle

>  <origin>  (37) 
autodockgpu

>  <m_score__min__energy>  (37) 
-7.8600000000000003

>  <m_primary>  (37) 
energy

>  <rmsd>  (37) 
2.289278481399461

>  <m_score__min__rmsd>  (37) 
2.289278481399461

>  <meeko>  (37) 
{"free_energy": -7.09, "intermolecular_energy": -9.18, "internal_energy": -2.42, "cluster_size": 11, "cluster_id": 2, "rank_in_cluster": 11}

>  <energy>  (37) 
-7.38

>  <cluster_rmsd>  (37) 
1.87

>  <cluster>  (37) 
4

$$$$

     RDKit          3D

 52 55  0  0  0  0  0  0  0  0999 V2000
  138.8770   71.7020  220.6720 O   0  0  0  0  0  0  0  0  0  0  0  0
  138.9540   72.1310  221.8430 C   0  0  0  0  0  0  0  0  0  0  0  0
  138.7560   73.5430  222.0290 N   0  0  0  0  0  0  0  0  0  0  0  0
  138.4820   74.4610  220.9780 C   0  0  0  0  0  0  0  0  0  0  0  0
  139.5180   74.7940  220.0070 C   0  0  0  0  0  0  0  0  0  0  0  0
  139.1120   75.7050  219.1430 O   0  0  0  0  0  0  0  0  0  0  0  0
  140.8080   74.3470  219.8180 N   0  0  0  0  0  0  0  0  0  0  0  0
  141.4650   73.0610  219.7020 C   0  0  0  0  0  0  0  0  0  0  0  0
  142.5170   73.2600  220.8010 C   0  0  0  0  0  0  0  0  0  0  0  0
  143.1390   74.5320  220.2750 C   0  0  0  0  0  0  0  0  0  0  0  0
  141.9640   75.2810  219.7020 C   0  0  2  0  0  0  0  0  0  0  0  0
  141.7690   76.4940  220.5180 C   0  0  0  0  0  0  0  0  0  0  0  0
  142.0170   77.7720  220.1080 C   0  0  0  0  0  0  0  0  0  0  0  0
  141.8070   78.8670  220.9350 C   0  0  0  0  0  0  0  0  0  0  0  0
  141.3310   78.6740  222.2220 C   0  0  0  0  0  0  0  0  0  0  0  0
  141.0990   79.7230  223.1010 O   0  0  0  0  0  0  0  0  0  0  0  0
  142.0490   80.7770  223.1550 C   0  0  0  0  0  0  0  0  0  0  0  0
  141.8730   81.5550  222.0320 F   0  0  0  0  0  0  0  0  0  0  0  0
  143.3360   80.2880  223.2610 F   0  0  0  0  0  0  0  0  0  0  0  0
  141.7460   81.5280  224.2770 F   0  0  0  0  0  0  0  0  0  0  0  0
  141.0720   77.3910  222.6640 C   0  0  0  0  0  0  0  0  0  0  0  0
  141.2910   76.3260  221.8170 C   0  0  0  0  0  0  0  0  0  0  0  0
  139.2310   71.2500  222.9750 C   0  0  0  0  0  0  0  0  0  0  0  0
  138.8310   69.9400  222.8890 C   0  0  0  0  0  0  0  0  0  0  0  0
  139.1030   69.1260  223.9690 C   0  0  0  0  0  0  0  0  0  0  0  0
  139.7560   69.6210  225.0950 C   0  0  0  0  0  0  0  0  0  0  0  0
  140.0470   68.8540  226.1890 C   0  0  0  0  0  0  0  0  0  0  0  0
  140.7030   69.4150  227.2830 C   0  0  0  0  0  0  0  0  0  0  0  0
  141.0950   68.4710  228.7050 Cl  0  0  0  0  0  0  0  0  0  0  0  0
  141.0750   70.7460  227.2950 C   0  0  0  0  0  0  0  0  0  0  0  0
  140.7750   71.5050  226.1870 C   0  0  0  0  0  0  0  0  0  0  0  0
  140.1290   70.9430  225.1150 C   0  0  0  0  0  0  0  0  0  0  0  0
  139.8590   71.7160  224.0630 N   0  0  0  0  0  0  0  0  0  0  0  0
  138.8350   73.8530  223.0440 H   0  0  0  0  0  0  0  0  0  0  0  0
  137.6358   74.0480  220.4093 H   0  0  0  0  0  0  0  0  0  0  0  0
  138.3217   75.4106  221.5096 H   0  0  0  0  0  0  0  0  0  0  0  0
  140.7855   72.2244  219.9220 H   0  0  0  0  0  0  0  0  0  0  0  0
  141.8510   72.8039  218.7046 H   0  0  0  0  0  0  0  0  0  0  0  0
  142.0615   73.3989  221.7926 H   0  0  0  0  0  0  0  0  0  0  0  0
  143.2069   72.4190  220.9645 H   0  0  0  0  0  0  0  0  0  0  0  0
  143.6130   75.1037  221.0864 H   0  0  0  0  0  0  0  0  0  0  0  0
  143.9343   74.3493  219.5373 H   0  0  0  0  0  0  0  0  0  0  0  0
  142.0963   75.5927  218.6554 H   0  0  0  0  0  0  0  0  0  0  0  0
  142.3956   77.9398  219.0889 H   0  0  0  0  0  0  0  0  0  0  0  0
  142.0175   79.8832  220.5703 H   0  0  0  0  0  0  0  0  0  0  0  0
  140.6943   77.2209  223.6830 H   0  0  0  0  0  0  0  0  0  0  0  0
  141.0815   75.3084  222.1783 H   0  0  0  0  0  0  0  0  0  0  0  0
  138.3153   69.5554  221.9967 H   0  0  0  0  0  0  0  0  0  0  0  0
  138.7993   68.0691  223.9403 H   0  0  0  0  0  0  0  0  0  0  0  0
  139.7626   67.7915  226.2055 H   0  0  0  0  0  0  0  0  0  0  0  0
  141.5933   71.1838  228.1608 H   0  0  0  0  0  0  0  0  0  0  0  0
  141.0548   72.5685  226.1607 H   0  0  0  0  0  0  0  0  0  0  0  0
  1  2  2  0
  2  3  1  0
  3  4  1  0
  4  5  1  0
  5  6  2  0
  5  7  1  0
  7  8  1  0
  8  9  1  0
  9 10  1  0
 10 11  1  0
 11 12  1  0
 12 13  2  0
 13 14  1  0
 14 15  2  0
 15 16  1  0
 16 17  1  0
 17 18  1  0
 17 19  1  0
 17 20  1  0
 15 21  1  0
 21 22  2  0
  2 23  1  0
 23 24  2  0
 24 25  1  0
 25 26  2  0
 26 27  1  0
 27 28  2  0
 28 29  1  0
 28 30  1  0
 30 31  2  0
 31 32  1  0
 32 33  2  0
 11  7  1  0
 22 12  1  0
 33 23  1  0
 32 26  1  0
  3 34  1  0
  4 35  1  0
  4 36  1  0
  8 37  1  0
  8 38  1  0
  9 39  1  0
  9 40  1  0
 10 41  1  0
 10 42  1  0
 11 43  1  6
 13 44  1  0
 14 45  1  0
 21 46  1  0
 22 47  1  0
 24 48  1  0
 25 49  1  0
 27 50  1  0
 30 51  1  0
 31 52  1  0
M  END
>  <smiles>  (38) 
O=C(NCC(=O)N1CCCC1c1ccc(OC(F)(F)F)cc1)c1ccc2cc(Cl)ccc2n1

>  <score_type>  (38) 
oracle

>  <origin>  (38) 
autodockgpu

>  <m_score__min__energy>  (38) 
-7.8600000000000003

>  <m_primary>  (38) 
energy

>  <rmsd>  (38) 
2.2910436807830656

>  <m_score__min__rmsd>  (38) 
2.2910436807830656

>  <meeko>  (38) 
{"free_energy": -7.7, "intermolecular_energy": -9.79, "internal_energy": -1.89, "cluster_size": 23, "cluster_id": 1, "rank_in_cluster": 13}

>  <energy>  (38) 
-7.2

>  <cluster_rmsd>  (38) 
1.89

>  <cluster>  (38) 
4

$$$$

     RDKit          3D

 52 55  0  0  0  0  0  0  0  0999 V2000
  138.7740   72.2810  220.9800 O   0  0  0  0  0  0  0  0  0  0  0  0
  139.5590   72.4500  221.9370 C   0  0  0  0  0  0  0  0  0  0  0  0
  140.3610   73.6430  221.9130 N   0  0  0  0  0  0  0  0  0  0  0  0
  140.3120   74.6230  220.8840 C   0  0  0  0  0  0  0  0  0  0  0  0
  141.1120   75.8390  220.9900 C   0  0  0  0  0  0  0  0  0  0  0  0
  141.1730   76.2830  222.2310 O   0  0  0  0  0  0  0  0  0  0  0  0
  141.7970   76.5970  220.0650 N   0  0  0  0  0  0  0  0  0  0  0  0
  141.5130   77.7570  219.2450 C   0  0  0  0  0  0  0  0  0  0  0  0
  141.8950   77.1550  217.8860 C   0  0  0  0  0  0  0  0  0  0  0  0
  143.3050   76.7350  218.2260 C   0  0  0  0  0  0  0  0  0  0  0  0
  143.1970   76.2840  219.6590 C   0  0  2  0  0  0  0  0  0  0  0  0
  143.4610   74.8330  219.6910 C   0  0  0  0  0  0  0  0  0  0  0  0
  142.7920   73.8900  218.9660 C   0  0  0  0  0  0  0  0  0  0  0  0
  143.1000   72.5390  219.0490 C   0  0  0  0  0  0  0  0  0  0  0  0
  144.1160   72.1170  219.8900 C   0  0  0  0  0  0  0  0  0  0  0  0
  144.4750   70.7820  220.0220 O   0  0  0  0  0  0  0  0  0  0  0  0
  145.0900   70.1390  218.9150 C   0  0  0  0  0  0  0  0  0  0  0  0
  145.8970   71.0640  218.2900 F   0  0  0  0  0  0  0  0  0  0  0  0
  144.1480   69.5990  218.0620 F   0  0  0  0  0  0  0  0  0  0  0  0
  145.8790   69.1270  219.4320 F   0  0  0  0  0  0  0  0  0  0  0  0
  144.8110   73.0490  220.6370 C   0  0  0  0  0  0  0  0  0  0  0  0
  144.4800   74.3820  220.5310 C   0  0  0  0  0  0  0  0  0  0  0  0
  139.6650   71.4890  223.0320 C   0  0  0  0  0  0  0  0  0  0  0  0
  139.1760   70.2230  222.8320 C   0  0  0  0  0  0  0  0  0  0  0  0
  139.2860   69.3320  223.8780 C   0  0  0  0  0  0  0  0  0  0  0  0
  139.8720   69.7090  225.0850 C   0  0  0  0  0  0  0  0  0  0  0  0
  140.0040   68.8620  226.1500 C   0  0  0  0  0  0  0  0  0  0  0  0
  140.6000   69.3070  227.3280 C   0  0  0  0  0  0  0  0  0  0  0  0
  140.7900   68.2580  228.7180 Cl  0  0  0  0  0  0  0  0  0  0  0  0
  141.0710   70.6010  227.4540 C   0  0  0  0  0  0  0  0  0  0  0  0
  140.9310   71.4410  226.3730 C   0  0  0  0  0  0  0  0  0  0  0  0
  140.3420   70.9930  225.2180 C   0  0  0  0  0  0  0  0  0  0  0  0
  140.2270   71.8420  224.1960 N   0  0  0  0  0  0  0  0  0  0  0  0
  141.0120   73.7350  222.7500 H   0  0  0  0  0  0  0  0  0  0  0  0
  140.6195   74.1217  219.9544 H   0  0  0  0  0  0  0  0  0  0  0  0
  139.2790   74.9965  220.9424 H   0  0  0  0  0  0  0  0  0  0  0  0
  140.4533   78.0490  219.2885 H   0  0  0  0  0  0  0  0  0  0  0  0
  142.0319   78.6856  219.5252 H   0  0  0  0  0  0  0  0  0  0  0  0
  141.2593   76.2985  217.6170 H   0  0  0  0  0  0  0  0  0  0  0  0
  141.7877   77.8214  217.0174 H   0  0  0  0  0  0  0  0  0  0  0  0
  143.6377   75.9110  217.5777 H   0  0  0  0  0  0  0  0  0  0  0  0
  144.0401   77.5406  218.0828 H   0  0  0  0  0  0  0  0  0  0  0  0
  143.9090   76.7745  220.3390 H   0  0  0  0  0  0  0  0  0  0  0  0
  141.9824   74.2109  218.2940 H   0  0  0  0  0  0  0  0  0  0  0  0
  142.5394   71.8068  218.4493 H   0  0  0  0  0  0  0  0  0  0  0  0
  145.6206   72.7296  221.3097 H   0  0  0  0  0  0  0  0  0  0  0  0
  145.0385   75.1167  221.1295 H   0  0  0  0  0  0  0  0  0  0  0  0
  138.7153   69.9310  221.8767 H   0  0  0  0  0  0  0  0  0  0  0  0
  138.9052   68.3070  223.7581 H   0  0  0  0  0  0  0  0  0  0  0  0
  139.6389   67.8270  226.0766 H   0  0  0  0  0  0  0  0  0  0  0  0
  141.5414   70.9470  228.3862 H   0  0  0  0  0  0  0  0  0  0  0  0
  141.2935   72.4777  226.4355 H   0  0  0  0  0  0  0  0  0  0  0  0
  1  2  2  0
  2  3  1  0
  3  4  1  0
  4  5  1  0
  5  6  2  0
  5  7  1  0
  7  8  1  0
  8  9  1  0
  9 10  1  0
 10 11  1  0
 11 12  1  0
 12 13  2  0
 13 14  1  0
 14 15  2  0
 15 16  1  0
 16 17  1  0
 17 18  1  0
 17 19  1  0
 17 20  1  0
 15 21  1  0
 21 22  2  0
  2 23  1  0
 23 24  2  0
 24 25  1  0
 25 26  2  0
 26 27  1  0
 27 28  2  0
 28 29  1  0
 28 30  1  0
 30 31  2  0
 31 32  1  0
 32 33  2  0
 11  7  1  0
 22 12  1  0
 33 23  1  0
 32 26  1  0
  3 34  1  0
  4 35  1  0
  4 36  1  0
  8 37  1  0
  8 38  1  0
  9 39  1  0
  9 40  1  0
 10 41  1  0
 10 42  1  0
 11 43  1  1
 13 44  1  0
 14 45  1  0
 21 46  1  0
 22 47  1  0
 24 48  1  0
 25 49  1  0
 27 50  1  0
 30 51  1  0
 31 52  1  0
M  END
>  <smiles>  (39) 
O=C(NCC(=O)N1CCCC1c1ccc(OC(F)(F)F)cc1)c1ccc2cc(Cl)ccc2n1

>  <score_type>  (39) 
oracle

>  <origin>  (39) 
autodockgpu

>  <m_score__min__energy>  (39) 
-7.8600000000000003

>  <m_primary>  (39) 
energy

>  <rmsd>  (39) 
2.1899475477343935

>  <m_score__min__rmsd>  (39) 
2.1899475477343935

>  <meeko>  (39) 
{"free_energy": -7.13, "intermolecular_energy": -9.21, "internal_energy": -2.04, "cluster_size": 11, "cluster_id": 2, "rank_in_cluster": 10}

>  <energy>  (39) 
-7.07

>  <cluster_rmsd>  (39) 
1.81

>  <cluster>  (39) 
4

$$$$

     RDKit          3D

 52 55  0  0  0  0  0  0  0  0999 V2000
  139.1090   71.8090  220.6530 O   0  0  0  0  0  0  0  0  0  0  0  0
  139.1610   72.2270  221.8290 C   0  0  0  0  0  0  0  0  0  0  0  0
  138.9890   73.6420  222.0210 N   0  0  0  0  0  0  0  0  0  0  0  0
  138.7670   74.5740  220.9700 C   0  0  0  0  0  0  0  0  0  0  0  0
  139.6460   74.5880  219.8060 C   0  0  0  0  0  0  0  0  0  0  0  0
  139.0300   75.0330  218.7270 O   0  0  0  0  0  0  0  0  0  0  0  0
  140.9640   74.2300  219.6190 N   0  0  0  0  0  0  0  0  0  0  0  0
  141.7000   72.9940  219.4460 C   0  0  0  0  0  0  0  0  0  0  0  0
  142.7200   73.1960  220.5740 C   0  0  0  0  0  0  0  0  0  0  0  0
  143.2720   74.5300  220.1300 C   0  0  0  0  0  0  0  0  0  0  0  0
  142.0630   75.2370  219.5740 C   0  0  2  0  0  0  0  0  0  0  0  0
  141.7800   76.3900  220.4500 C   0  0  0  0  0  0  0  0  0  0  0  0
  141.3300   76.3170  221.7350 C   0  0  0  0  0  0  0  0  0  0  0  0
  141.0870   77.4500  222.4990 C   0  0  0  0  0  0  0  0  0  0  0  0
  141.3040   78.7050  221.9530 C   0  0  0  0  0  0  0  0  0  0  0  0
  141.0810   79.8790  222.6600 O   0  0  0  0  0  0  0  0  0  0  0  0
  142.0310   80.2640  223.6420 C   0  0  0  0  0  0  0  0  0  0  0  0
  142.0830   79.2630  224.5870 F   0  0  0  0  0  0  0  0  0  0  0  0
  141.7160   81.4910  224.1920 F   0  0  0  0  0  0  0  0  0  0  0  0
  143.2540   80.3440  223.0010 F   0  0  0  0  0  0  0  0  0  0  0  0
  141.7590   78.8100  220.6530 C   0  0  0  0  0  0  0  0  0  0  0  0
  141.9900   77.6650  219.9230 C   0  0  0  0  0  0  0  0  0  0  0  0
  139.3840   71.3320  222.9620 C   0  0  0  0  0  0  0  0  0  0  0  0
  138.9630   70.0300  222.8510 C   0  0  0  0  0  0  0  0  0  0  0  0
  139.1830   69.2020  223.9310 C   0  0  0  0  0  0  0  0  0  0  0  0
  139.8080   69.6750  225.0830 C   0  0  0  0  0  0  0  0  0  0  0  0
  140.0480   68.8920  226.1790 C   0  0  0  0  0  0  0  0  0  0  0  0
  140.6780   69.4320  227.2990 C   0  0  0  0  0  0  0  0  0  0  0  0
  141.0060   68.4690  228.7250 Cl  0  0  0  0  0  0  0  0  0  0  0  0
  141.0740   70.7560  227.3360 C   0  0  0  0  0  0  0  0  0  0  0  0
  140.8250   71.5300  226.2250 C   0  0  0  0  0  0  0  0  0  0  0  0
  140.2050   70.9890  225.1270 C   0  0  0  0  0  0  0  0  0  0  0  0
  139.9840   71.7760  224.0740 N   0  0  0  0  0  0  0  0  0  0  0  0
  139.0440   73.9420  223.0410 H   0  0  0  0  0  0  0  0  0  0  0  0
  137.7485   74.3931  220.5959 H   0  0  0  0  0  0  0  0  0  0  0  0
  138.9672   75.5443  221.4479 H   0  0  0  0  0  0  0  0  0  0  0  0
  141.0696   72.1072  219.6076 H   0  0  0  0  0  0  0  0  0  0  0  0
  142.1165   72.8154  218.4437 H   0  0  0  0  0  0  0  0  0  0  0  0
  142.2408   73.2526  221.5625 H   0  0  0  0  0  0  0  0  0  0  0  0
  143.4574   72.3904  220.7050 H   0  0  0  0  0  0  0  0  0  0  0  0
  143.6960   75.0839  220.9805 H   0  0  0  0  0  0  0  0  0  0  0  0
  144.0897   74.4364  219.4002 H   0  0  0  0  0  0  0  0  0  0  0  0
  142.1936   75.6120  218.5482 H   0  0  0  0  0  0  0  0  0  0  0  0
  141.1537   75.3271  222.1811 H   0  0  0  0  0  0  0  0  0  0  0  0
  140.7240   77.3522  223.5327 H   0  0  0  0  0  0  0  0  0  0  0  0
  141.9353   79.7990  220.2048 H   0  0  0  0  0  0  0  0  0  0  0  0
  142.3526   77.7589  218.8887 H   0  0  0  0  0  0  0  0  0  0  0  0
  138.4707   69.6628  221.9384 H   0  0  0  0  0  0  0  0  0  0  0  0
  138.8601   68.1516  223.8826 H   0  0  0  0  0  0  0  0  0  0  0  0
  139.7434   67.8350  226.1763 H   0  0  0  0  0  0  0  0  0  0  0  0
  141.5710   71.1766  228.2226 H   0  0  0  0  0  0  0  0  0  0  0  0
  141.1248   72.5883  226.2175 H   0  0  0  0  0  0  0  0  0  0  0  0
  1  2  2  0
  2  3  1  0
  3  4  1  0
  4  5  1  0
  5  6  2  0
  5  7  1  0
  7  8  1  0
  8  9  1  0
  9 10  1  0
 10 11  1  0
 11 12  1  0
 12 13  2  0
 13 14  1  0
 14 15  2  0
 15 16  1  0
 16 17  1  0
 17 18  1  0
 17 19  1  0
 17 20  1  0
 15 21  1  0
 21 22  2  0
  2 23  1  0
 23 24  2  0
 24 25  1  0
 25 26  2  0
 26 27  1  0
 27 28  2  0
 28 29  1  0
 28 30  1  0
 30 31  2  0
 31 32  1  0
 32 33  2  0
 11  7  1  0
 22 12  1  0
 33 23  1  0
 32 26  1  0
  3 34  1  0
  4 35  1  0
  4 36  1  0
  8 37  1  0
  8 38  1  0
  9 39  1  0
  9 40  1  0
 10 41  1  0
 10 42  1  0
 11 43  1  6
 13 44  1  0
 14 45  1  0
 21 46  1  0
 22 47  1  0
 24 48  1  0
 25 49  1  0
 27 50  1  0
 30 51  1  0
 31 52  1  0
M  END
>  <smiles>  (40) 
O=C(NCC(=O)N1CCCC1c1ccc(OC(F)(F)F)cc1)c1ccc2cc(Cl)ccc2n1

>  <score_type>  (40) 
oracle

>  <origin>  (40) 
autodockgpu

>  <m_score__min__energy>  (40) 
-7.8600000000000003

>  <m_primary>  (40) 
energy

>  <rmsd>  (40) 
2.3589655379603522

>  <m_score__min__rmsd>  (40) 
2.3589655379603522

>  <meeko>  (40) 
{"free_energy": -7.65, "intermolecular_energy": -9.74, "internal_energy": -1.94, "cluster_size": 23, "cluster_id": 1, "rank_in_cluster": 17}

>  <energy>  (40) 
-7.46

>  <cluster_rmsd>  (40) 
0.0

>  <cluster>  (40) 
5

$$$$

     RDKit          3D

 52 55  0  0  0  0  0  0  0  0999 V2000
  142.4190   79.8200  218.9830 O   0  0  0  0  0  0  0  0  0  0  0  0
  141.8160   78.7330  219.1070 C   0  0  0  0  0  0  0  0  0  0  0  0
  140.4320   78.8020  219.4890 N   0  0  0  0  0  0  0  0  0  0  0  0
  139.7240   80.0110  219.7290 C   0  0  0  0  0  0  0  0  0  0  0  0
  139.6930   80.5890  221.0680 C   0  0  0  0  0  0  0  0  0  0  0  0
  138.4990   81.0600  221.3760 O   0  0  0  0  0  0  0  0  0  0  0  0
  140.6490   80.7390  222.0500 N   0  0  0  0  0  0  0  0  0  0  0  0
  141.7920   81.6010  222.2760 C   0  0  0  0  0  0  0  0  0  0  0  0
  142.8420   80.5050  222.5010 C   0  0  0  0  0  0  0  0  0  0  0  0
  142.1510   79.7720  223.6260 C   0  0  0  0  0  0  0  0  0  0  0  0
  140.6930   79.8660  223.2570 C   0  0  2  0  0  0  0  0  0  0  0  0
  140.2210   78.5010  222.9600 C   0  0  0  0  0  0  0  0  0  0  0  0
  138.9190   78.0930  222.9720 C   0  0  0  0  0  0  0  0  0  0  0  0
  138.5500   76.7870  222.6800 C   0  0  0  0  0  0  0  0  0  0  0  0
  139.5240   75.8540  222.3640 C   0  0  0  0  0  0  0  0  0  0  0  0
  139.2260   74.5320  222.0620 O   0  0  0  0  0  0  0  0  0  0  0  0
  139.7770   73.9710  220.8790 C   0  0  0  0  0  0  0  0  0  0  0  0
  140.0700   75.0090  220.0220 F   0  0  0  0  0  0  0  0  0  0  0  0
  138.9180   73.0480  220.3150 F   0  0  0  0  0  0  0  0  0  0  0  0
  140.9530   73.3440  221.2480 F   0  0  0  0  0  0  0  0  0  0  0  0
  140.8510   76.2380  222.3440 C   0  0  0  0  0  0  0  0  0  0  0  0
  141.1820   77.5420  222.6390 C   0  0  0  0  0  0  0  0  0  0  0  0
  142.4740   77.4500  218.8760 C   0  0  0  0  0  0  0  0  0  0  0  0
  142.8950   77.1580  217.6030 C   0  0  0  0  0  0  0  0  0  0  0  0
  143.5140   75.9410  217.4070 C   0  0  0  0  0  0  0  0  0  0  0  0
  143.7010   75.0520  218.4630 C   0  0  0  0  0  0  0  0  0  0  0  0
  144.3090   73.8350  218.3180 C   0  0  0  0  0  0  0  0  0  0  0  0
  144.4620   72.9940  219.4180 C   0  0  0  0  0  0  0  0  0  0  0  0
  145.2330   71.4280  219.2810 Cl  0  0  0  0  0  0  0  0  0  0  0  0
  144.0110   73.3600  220.6730 C   0  0  0  0  0  0  0  0  0  0  0  0
  143.4020   74.5870  220.8020 C   0  0  0  0  0  0  0  0  0  0  0  0
  143.2560   75.4070  219.7120 C   0  0  0  0  0  0  0  0  0  0  0  0
  142.6590   76.5870  219.8840 N   0  0  0  0  0  0  0  0  0  0  0  0
  139.9690   77.8480  219.5810 H   0  0  0  0  0  0  0  0  0  0  0  0
  140.1619   80.7715  219.0658 H   0  0  0  0  0  0  0  0  0  0  0  0
  138.6758   79.7270  219.5539 H   0  0  0  0  0  0  0  0  0  0  0  0
  142.0225   82.2260  221.4006 H   0  0  0  0  0  0  0  0  0  0  0  0
  141.6867   82.3425  223.0817 H   0  0  0  0  0  0  0  0  0  0  0  0
  142.9776   79.8705  221.6128 H   0  0  0  0  0  0  0  0  0  0  0  0
  143.8638   80.8540  222.7108 H   0  0  0  0  0  0  0  0  0  0  0  0
  142.4788   78.7230  223.6728 H   0  0  0  0  0  0  0  0  0  0  0  0
  142.3726   80.1963  224.6164 H   0  0  0  0  0  0  0  0  0  0  0  0
  140.0539   80.2821  224.0497 H   0  0  0  0  0  0  0  0  0  0  0  0
  138.1354   78.8236  223.2215 H   0  0  0  0  0  0  0  0  0  0  0  0
  137.4898   76.4945  222.6994 H   0  0  0  0  0  0  0  0  0  0  0  0
  141.6360   75.5089  222.0947 H   0  0  0  0  0  0  0  0  0  0  0  0
  142.2414   77.8377  222.6209 H   0  0  0  0  0  0  0  0  0  0  0  0
  142.7451   77.8648  216.7736 H   0  0  0  0  0  0  0  0  0  0  0  0
  143.8655   75.6682  216.4010 H   0  0  0  0  0  0  0  0  0  0  0  0
  144.6778   73.5199  217.3307 H   0  0  0  0  0  0  0  0  0  0  0  0
  144.1349   72.6928  221.5387 H   0  0  0  0  0  0  0  0  0  0  0  0
  143.0300   74.9123  221.7848 H   0  0  0  0  0  0  0  0  0  0  0  0
  1  2  2  0
  2  3  1  0
  3  4  1  0
  4  5  1  0
  5  6  2  0
  5  7  1  0
  7  8  1  0
  8  9  1  0
  9 10  1  0
 10 11  1  0
 11 12  1  0
 12 13  2  0
 13 14  1  0
 14 15  2  0
 15 16  1  0
 16 17  1  0
 17 18  1  0
 17 19  1  0
 17 20  1  0
 15 21  1  0
 21 22  2  0
  2 23  1  0
 23 24  2  0
 24 25  1  0
 25 26  2  0
 26 27  1  0
 27 28  2  0
 28 29  1  0
 28 30  1  0
 30 31  2  0
 31 32  1  0
 32 33  2  0
 11  7  1  0
 22 12  1  0
 33 23  1  0
 32 26  1  0
  3 34  1  0
  4 35  1  0
  4 36  1  0
  8 37  1  0
  8 38  1  0
  9 39  1  0
  9 40  1  0
 10 41  1  0
 10 42  1  0
 11 43  1  1
 13 44  1  0
 14 45  1  0
 21 46  1  0
 22 47  1  0
 24 48  1  0
 25 49  1  0
 27 50  1  0
 30 51  1  0
 31 52  1  0
M  END
>  <smiles>  (41) 
O=C(NCC(=O)N1CCCC1c1ccc(OC(F)(F)F)cc1)c1ccc2cc(Cl)ccc2n1

>  <score_type>  (41) 
oracle

>  <origin>  (41) 
autodockgpu

>  <m_score__min__energy>  (41) 
-7.8600000000000003

>  <m_primary>  (41) 
energy

>  <rmsd>  (41) 
8.198356580399249

>  <m_score__min__rmsd>  (41) 
8.198356580399249

>  <meeko>  (41) 
{"free_energy": -6.14, "intermolecular_energy": -8.23, "internal_energy": -2.93, "cluster_size": 9, "cluster_id": 6, "rank_in_cluster": 6}

>  <energy>  (41) 
-6.78

>  <cluster_rmsd>  (41) 
0.0

>  <cluster>  (41) 
6

$$$$

     RDKit          3D

 52 55  0  0  0  0  0  0  0  0999 V2000
  141.5780   76.8550  217.6380 O   0  0  0  0  0  0  0  0  0  0  0  0
  142.3970   76.8190  218.5800 C   0  0  0  0  0  0  0  0  0  0  0  0
  142.5420   78.0200  219.3590 N   0  0  0  0  0  0  0  0  0  0  0  0
  141.8200   79.2220  219.1220 C   0  0  0  0  0  0  0  0  0  0  0  0
  140.8980   79.7330  220.1310 C   0  0  0  0  0  0  0  0  0  0  0  0
  139.6450   79.6980  219.7180 O   0  0  0  0  0  0  0  0  0  0  0  0
  141.0790   80.2380  221.4000 N   0  0  0  0  0  0  0  0  0  0  0  0
  141.8900   81.2720  222.0110 C   0  0  0  0  0  0  0  0  0  0  0  0
  142.5510   80.4110  223.0940 C   0  0  0  0  0  0  0  0  0  0  0  0
  141.2950   79.8830  223.7460 C   0  0  0  0  0  0  0  0  0  0  0  0
  140.3560   79.6920  222.5840 C   0  0  2  0  0  0  0  0  0  0  0  0
  140.1030   78.2450  222.4490 C   0  0  0  0  0  0  0  0  0  0  0  0
  138.8890   77.6380  222.5840 C   0  0  0  0  0  0  0  0  0  0  0  0
  138.7290   76.2660  222.4410 C   0  0  0  0  0  0  0  0  0  0  0  0
  139.8280   75.4740  222.1520 C   0  0  0  0  0  0  0  0  0  0  0  0
  139.7400   74.0970  221.9970 O   0  0  0  0  0  0  0  0  0  0  0  0
  140.5440   73.4790  221.0030 C   0  0  0  0  0  0  0  0  0  0  0  0
  141.8110   73.3330  221.5230 F   0  0  0  0  0  0  0  0  0  0  0  0
  140.5360   74.2050  219.8290 F   0  0  0  0  0  0  0  0  0  0  0  0
  140.0020   72.2260  220.7760 F   0  0  0  0  0  0  0  0  0  0  0  0
  141.0700   76.0610  222.0100 C   0  0  0  0  0  0  0  0  0  0  0  0
  141.1940   77.4250  222.1580 C   0  0  0  0  0  0  0  0  0  0  0  0
  143.1750   75.6210  218.8860 C   0  0  0  0  0  0  0  0  0  0  0  0
  143.8800   75.5900  220.0630 C   0  0  0  0  0  0  0  0  0  0  0  0
  144.6070   74.4500  220.3330 C   0  0  0  0  0  0  0  0  0  0  0  0
  144.6210   73.3790  219.4420 C   0  0  0  0  0  0  0  0  0  0  0  0
  145.3260   72.2280  219.6650 C   0  0  0  0  0  0  0  0  0  0  0  0
  145.2940   71.1960  218.7300 C   0  0  0  0  0  0  0  0  0  0  0  0
  146.1810   69.7060  218.9730 Cl  0  0  0  0  0  0  0  0  0  0  0  0
  144.5580   71.3010  217.5640 C   0  0  0  0  0  0  0  0  0  0  0  0
  143.8540   72.4650  217.3550 C   0  0  0  0  0  0  0  0  0  0  0  0
  143.8920   73.4760  218.2820 C   0  0  0  0  0  0  0  0  0  0  0  0
  143.1950   74.5850  218.0370 N   0  0  0  0  0  0  0  0  0  0  0  0
  143.2530   77.9320  220.1460 H   0  0  0  0  0  0  0  0  0  0  0  0
  142.5663   80.0107  218.9460 H   0  0  0  0  0  0  0  0  0  0  0  0
  141.1563   78.9563  218.2860 H   0  0  0  0  0  0  0  0  0  0  0  0
  142.6239   81.6952  221.3094 H   0  0  0  0  0  0  0  0  0  0  0  0
  141.3508   82.1632  222.3645 H   0  0  0  0  0  0  0  0  0  0  0  0
  143.1675   79.6064  222.6667 H   0  0  0  0  0  0  0  0  0  0  0  0
  143.2553   80.9321  223.7591 H   0  0  0  0  0  0  0  0  0  0  0  0
  141.4879   78.9286  224.2578 H   0  0  0  0  0  0  0  0  0  0  0  0
  140.8941   80.5571  224.5173 H   0  0  0  0  0  0  0  0  0  0  0  0
  139.3860   80.1971  222.7022 H   0  0  0  0  0  0  0  0  0  0  0  0
  138.0080   78.2554  222.8136 H   0  0  0  0  0  0  0  0  0  0  0  0
  137.7345   75.8105  222.5566 H   0  0  0  0  0  0  0  0  0  0  0  0
  141.9521   75.4451  221.7808 H   0  0  0  0  0  0  0  0  0  0  0  0
  142.1872   77.8836  222.0428 H   0  0  0  0  0  0  0  0  0  0  0  0
  143.8657   76.4393  220.7619 H   0  0  0  0  0  0  0  0  0  0  0  0
  145.1851   74.3851  221.2666 H   0  0  0  0  0  0  0  0  0  0  0  0
  145.9194   72.1173  220.5846 H   0  0  0  0  0  0  0  0  0  0  0  0
  144.5360   70.4827  216.8292 H   0  0  0  0  0  0  0  0  0  0  0  0
  143.2571   72.5856  216.4390 H   0  0  0  0  0  0  0  0  0  0  0  0
  1  2  2  0
  2  3  1  0
  3  4  1  0
  4  5  1  0
  5  6  2  0
  5  7  1  0
  7  8  1  0
  8  9  1  0
  9 10  1  0
 10 11  1  0
 11 12  1  0
 12 13  2  0
 13 14  1  0
 14 15  2  0
 15 16  1  0
 16 17  1  0
 17 18  1  0
 17 19  1  0
 17 20  1  0
 15 21  1  0
 21 22  2  0
  2 23  1  0
 23 24  2  0
 24 25  1  0
 25 26  2  0
 26 27  1  0
 27 28  2  0
 28 29  1  0
 28 30  1  0
 30 31  2  0
 31 32  1  0
 32 33  2  0
 11  7  1  0
 22 12  1  0
 33 23  1  0
 32 26  1  0
  3 34  1  0
  4 35  1  0
  4 36  1  0
  8 37  1  0
  8 38  1  0
  9 39  1  0
  9 40  1  0
 10 41  1  0
 10 42  1  0
 11 43  1  1
 13 44  1  0
 14 45  1  0
 21 46  1  0
 22 47  1  0
 24 48  1  0
 25 49  1  0
 27 50  1  0
 30 51  1  0
 31 52  1  0
M  END
>  <smiles>  (42) 
O=C(NCC(=O)N1CCCC1c1ccc(OC(F)(F)F)cc1)c1ccc2cc(Cl)ccc2n1

>  <score_type>  (42) 
oracle

>  <origin>  (42) 
autodockgpu

>  <m_score__min__energy>  (42) 
-7.8600000000000003

>  <m_primary>  (42) 
energy

>  <rmsd>  (42) 
8.055971249213476

>  <m_score__min__rmsd>  (42) 
8.055971249213476

>  <meeko>  (42) 
{"free_energy": -6.78, "intermolecular_energy": -8.87, "internal_energy": -2.34, "cluster_size": 9, "cluster_id": 6, "rank_in_cluster": 1}

>  <energy>  (42) 
-6.54

>  <cluster_rmsd>  (42) 
0.95

>  <cluster>  (42) 
6

$$$$

     RDKit          3D

 52 55  0  0  0  0  0  0  0  0999 V2000
  141.1080   72.5610  220.8920 O   0  0  0  0  0  0  0  0  0  0  0  0
  140.3850   72.7850  221.8860 C   0  0  0  0  0  0  0  0  0  0  0  0
  139.6850   74.0410  221.9070 N   0  0  0  0  0  0  0  0  0  0  0  0
  139.7650   75.0230  220.8820 C   0  0  0  0  0  0  0  0  0  0  0  0
  140.8870   75.9540  220.8450 C   0  0  0  0  0  0  0  0  0  0  0  0
  141.4300   76.1210  222.0360 O   0  0  0  0  0  0  0  0  0  0  0  0
  141.4730   76.6800  219.8300 N   0  0  0  0  0  0  0  0  0  0  0  0
  141.0520   77.7060  218.8970 C   0  0  0  0  0  0  0  0  0  0  0  0
  141.4890   77.0060  217.6030 C   0  0  0  0  0  0  0  0  0  0  0  0
  142.9410   76.7870  217.9560 C   0  0  0  0  0  0  0  0  0  0  0  0
  142.8960   76.4850  219.4320 C   0  0  2  0  0  0  0  0  0  0  0  0
  143.3250   75.0850  219.6120 C   0  0  0  0  0  0  0  0  0  0  0  0
  144.1660   74.6340  220.5870 C   0  0  0  0  0  0  0  0  0  0  0  0
  144.5240   73.2970  220.6940 C   0  0  0  0  0  0  0  0  0  0  0  0
  144.0210   72.3770  219.7890 C   0  0  0  0  0  0  0  0  0  0  0  0
  144.3380   71.0260  219.8370 O   0  0  0  0  0  0  0  0  0  0  0  0
  143.3380   70.0870  219.4710 C   0  0  0  0  0  0  0  0  0  0  0  0
  143.2480   70.0870  218.0960 F   0  0  0  0  0  0  0  0  0  0  0  0
  142.1320   70.3770  220.0770 F   0  0  0  0  0  0  0  0  0  0  0  0
  143.7830   68.8480  219.8950 F   0  0  0  0  0  0  0  0  0  0  0  0
  143.1680   72.8050  218.7900 C   0  0  0  0  0  0  0  0  0  0  0  0
  142.8320   74.1390  218.7120 C   0  0  0  0  0  0  0  0  0  0  0  0
  140.2500   71.8250  222.9790 C   0  0  0  0  0  0  0  0  0  0  0  0
  139.6450   70.6230  222.7130 C   0  0  0  0  0  0  0  0  0  0  0  0
  139.5280   69.7310  223.7590 C   0  0  0  0  0  0  0  0  0  0  0  0
  140.0060   70.0460  225.0280 C   0  0  0  0  0  0  0  0  0  0  0  0
  139.9140   69.1960  226.0960 C   0  0  0  0  0  0  0  0  0  0  0  0
  140.4140   69.5760  227.3390 C   0  0  0  0  0  0  0  0  0  0  0  0
  140.3170   68.5220  228.7330 Cl  0  0  0  0  0  0  0  0  0  0  0  0
  141.0130   70.8080  227.5290 C   0  0  0  0  0  0  0  0  0  0  0  0
  141.0990   71.6530  226.4450 C   0  0  0  0  0  0  0  0  0  0  0  0
  140.6030   71.2680  225.2250 C   0  0  0  0  0  0  0  0  0  0  0  0
  140.7080   72.1180  224.2040 N   0  0  0  0  0  0  0  0  0  0  0  0
  139.0860   74.1790  222.7760 H   0  0  0  0  0  0  0  0  0  0  0  0
  139.7709   74.4816  219.9245 H   0  0  0  0  0  0  0  0  0  0  0  0
  138.9044   75.6753  221.0916 H   0  0  0  0  0  0  0  0  0  0  0  0
  139.9665   77.8805  218.9308 H   0  0  0  0  0  0  0  0  0  0  0  0
  141.4638   78.7119  219.0658 H   0  0  0  0  0  0  0  0  0  0  0  0
  140.9531   76.0591  217.4411 H   0  0  0  0  0  0  0  0  0  0  0  0
  141.2989   77.5574  216.6704 H   0  0  0  0  0  0  0  0  0  0  0  0
  143.3602   75.9401  217.3929 H   0  0  0  0  0  0  0  0  0  0  0  0
  143.5787   77.6494  217.7118 H   0  0  0  0  0  0  0  0  0  0  0  0
  143.5516   77.1237  220.0422 H   0  0  0  0  0  0  0  0  0  0  0  0
  144.5739   75.3535  221.3123 H   0  0  0  0  0  0  0  0  0  0  0  0
  145.2042   72.9696  221.4941 H   0  0  0  0  0  0  0  0  0  0  0  0
  142.7606   72.0869  218.0631 H   0  0  0  0  0  0  0  0  0  0  0  0
  142.1520   74.4697  217.9131 H   0  0  0  0  0  0  0  0  0  0  0  0
  139.2690   70.3805  221.7081 H   0  0  0  0  0  0  0  0  0  0  0  0
  139.0495   68.7555  223.5876 H   0  0  0  0  0  0  0  0  0  0  0  0
  139.4436   68.2093  225.9725 H   0  0  0  0  0  0  0  0  0  0  0  0
  141.4074   71.1029  228.5126 H   0  0  0  0  0  0  0  0  0  0  0  0
  141.5678   72.6417  226.5578 H   0  0  0  0  0  0  0  0  0  0  0  0
  1  2  2  0
  2  3  1  0
  3  4  1  0
  4  5  1  0
  5  6  2  0
  5  7  1  0
  7  8  1  0
  8  9  1  0
  9 10  1  0
 10 11  1  0
 11 12  1  0
 12 13  2  0
 13 14  1  0
 14 15  2  0
 15 16  1  0
 16 17  1  0
 17 18  1  0
 17 19  1  0
 17 20  1  0
 15 21  1  0
 21 22  2  0
  2 23  1  0
 23 24  2  0
 24 25  1  0
 25 26  2  0
 26 27  1  0
 27 28  2  0
 28 29  1  0
 28 30  1  0
 30 31  2  0
 31 32  1  0
 32 33  2  0
 11  7  1  0
 22 12  1  0
 33 23  1  0
 32 26  1  0
  3 34  1  0
  4 35  1  0
  4 36  1  0
  8 37  1  0
  8 38  1  0
  9 39  1  0
  9 40  1  0
 10 41  1  0
 10 42  1  0
 11 43  1  1
 13 44  1  0
 14 45  1  0
 21 46  1  0
 22 47  1  0
 24 48  1  0
 25 49  1  0
 27 50  1  0
 30 51  1  0
 31 52  1  0
M  END
>  <smiles>  (43) 
O=C(NCC(=O)N1CCCC1c1ccc(OC(F)(F)F)cc1)c1ccc2cc(Cl)ccc2n1

>  <score_type>  (43) 
oracle

>  <origin>  (43) 
autodockgpu

>  <m_score__min__energy>  (43) 
-7.8600000000000003

>  <m_primary>  (43) 
energy

>  <rmsd>  (43) 
2.1113144310381085

>  <m_score__min__rmsd>  (43) 
2.1113144310381085

>  <meeko>  (43) 
{"free_energy": -7.25, "intermolecular_energy": -9.34, "internal_energy": -2.14, "cluster_size": 11, "cluster_id": 2, "rank_in_cluster": 7}

>  <energy>  (43) 
-6.43

>  <cluster_rmsd>  (43) 
0.88

>  <cluster>  (43) 
6

$$$$

     RDKit          3D

 52 55  0  0  0  0  0  0  0  0999 V2000
  139.0560   71.9320  220.6780 O   0  0  0  0  0  0  0  0  0  0  0  0
  139.1650   72.3420  221.8530 C   0  0  0  0  0  0  0  0  0  0  0  0
  139.0460   73.7610  222.0560 N   0  0  0  0  0  0  0  0  0  0  0  0
  138.8130   74.7040  221.0170 C   0  0  0  0  0  0  0  0  0  0  0  0
  139.6700   74.7200  219.8370 C   0  0  0  0  0  0  0  0  0  0  0  0
  139.0180   75.1100  218.7580 O   0  0  0  0  0  0  0  0  0  0  0  0
  140.9980   74.4080  219.6340 N   0  0  0  0  0  0  0  0  0  0  0  0
  141.7720   73.1990  219.4400 C   0  0  0  0  0  0  0  0  0  0  0  0
  142.7940   73.4200  220.5630 C   0  0  0  0  0  0  0  0  0  0  0  0
  143.2980   74.7770  220.1320 C   0  0  0  0  0  0  0  0  0  0  0  0
  142.0620   75.4510  219.5960 C   0  0  2  0  0  0  0  0  0  0  0  0
  141.7490   76.5830  220.4890 C   0  0  0  0  0  0  0  0  0  0  0  0
  141.3390   76.4780  221.7860 C   0  0  0  0  0  0  0  0  0  0  0  0
  141.0630   77.5920  222.5660 C   0  0  0  0  0  0  0  0  0  0  0  0
  141.2040   78.8600  222.0250 C   0  0  0  0  0  0  0  0  0  0  0  0
  140.9450   80.0170  222.7480 O   0  0  0  0  0  0  0  0  0  0  0  0
  142.0340   80.8710  223.0640 C   0  0  0  0  0  0  0  0  0  0  0  0
  142.1810   81.7620  222.0240 F   0  0  0  0  0  0  0  0  0  0  0  0
  143.1860   80.1480  223.3040 F   0  0  0  0  0  0  0  0  0  0  0  0
  141.6770   81.5640  224.2060 F   0  0  0  0  0  0  0  0  0  0  0  0
  141.6180   78.9970  220.7140 C   0  0  0  0  0  0  0  0  0  0  0  0
  141.8830   77.8700  219.9680 C   0  0  0  0  0  0  0  0  0  0  0  0
  139.4020   71.4350  222.9730 C   0  0  0  0  0  0  0  0  0  0  0  0
  139.0210   70.1240  222.8360 C   0  0  0  0  0  0  0  0  0  0  0  0
  139.2540   69.2850  223.9050 C   0  0  0  0  0  0  0  0  0  0  0  0
  139.8530   69.7570  225.0710 C   0  0  0  0  0  0  0  0  0  0  0  0
  140.1050   68.9630  226.1570 C   0  0  0  0  0  0  0  0  0  0  0  0
  140.7060   69.5020  227.2920 C   0  0  0  0  0  0  0  0  0  0  0  0
  141.0470   68.5260  228.7050 Cl  0  0  0  0  0  0  0  0  0  0  0  0
  141.0630   70.8360  227.3550 C   0  0  0  0  0  0  0  0  0  0  0  0
  140.8030   71.6210  226.2540 C   0  0  0  0  0  0  0  0  0  0  0  0
  140.2100   71.0810  225.1410 C   0  0  0  0  0  0  0  0  0  0  0  0
  139.9780   71.8780  224.0990 N   0  0  0  0  0  0  0  0  0  0  0  0
  139.1480   74.0540  223.0730 H   0  0  0  0  0  0  0  0  0  0  0  0
  137.7861   74.5355  220.6606 H   0  0  0  0  0  0  0  0  0  0  0  0
  139.0312   75.6683  221.4992 H   0  0  0  0  0  0  0  0  0  0  0  0
  141.1719   72.2903  219.5952 H   0  0  0  0  0  0  0  0  0  0  0  0
  142.1861   73.0464  218.4324 H   0  0  0  0  0  0  0  0  0  0  0  0
  142.3212   73.4482  221.5558 H   0  0  0  0  0  0  0  0  0  0  0  0
  143.5585   72.6375  220.6780 H   0  0  0  0  0  0  0  0  0  0  0  0
  143.7114   75.3334  220.9861 H   0  0  0  0  0  0  0  0  0  0  0  0
  144.1117   74.7197  219.3940 H   0  0  0  0  0  0  0  0  0  0  0  0
  142.1713   75.8444  218.5746 H   0  0  0  0  0  0  0  0  0  0  0  0
  141.2234   75.4773  222.2280 H   0  0  0  0  0  0  0  0  0  0  0  0
  140.7340   77.4692  223.6084 H   0  0  0  0  0  0  0  0  0  0  0  0
  141.7349   79.9967  220.2703 H   0  0  0  0  0  0  0  0  0  0  0  0
  142.2118   77.9889  218.9250 H   0  0  0  0  0  0  0  0  0  0  0  0
  138.5495   69.7577  221.9121 H   0  0  0  0  0  0  0  0  0  0  0  0
  138.9625   68.2266  223.8362 H   0  0  0  0  0  0  0  0  0  0  0  0
  139.8325   67.8976  226.1334 H   0  0  0  0  0  0  0  0  0  0  0  0
  141.5384   71.2559  228.2537 H   0  0  0  0  0  0  0  0  0  0  0  0
  141.0724   72.6874  226.2670 H   0  0  0  0  0  0  0  0  0  0  0  0
  1  2  2  0
  2  3  1  0
  3  4  1  0
  4  5  1  0
  5  6  2  0
  5  7  1  0
  7  8  1  0
  8  9  1  0
  9 10  1  0
 10 11  1  0
 11 12  1  0
 12 13  2  0
 13 14  1  0
 14 15  2  0
 15 16  1  0
 16 17  1  0
 17 18  1  0
 17 19  1  0
 17 20  1  0
 15 21  1  0
 21 22  2  0
  2 23  1  0
 23 24  2  0
 24 25  1  0
 25 26  2  0
 26 27  1  0
 27 28  2  0
 28 29  1  0
 28 30  1  0
 30 31  2  0
 31 32  1  0
 32 33  2  0
 11  7  1  0
 22 12  1  0
 33 23  1  0
 32 26  1  0
  3 34  1  0
  4 35  1  0
  4 36  1  0
  8 37  1  0
  8 38  1  0
  9 39  1  0
  9 40  1  0
 10 41  1  0
 10 42  1  0
 11 43  1  6
 13 44  1  0
 14 45  1  0
 21 46  1  0
 22 47  1  0
 24 48  1  0
 25 49  1  0
 27 50  1  0
 30 51  1  0
 31 52  1  0
M  END
>  <smiles>  (44) 
O=C(NCC(=O)N1CCCC1c1ccc(OC(F)(F)F)cc1)c1ccc2cc(Cl)ccc2n1

>  <score_type>  (44) 
oracle

>  <origin>  (44) 
autodockgpu

>  <m_score__min__energy>  (44) 
-7.8600000000000003

>  <m_primary>  (44) 
energy

>  <rmsd>  (44) 
2.3313513219950655

>  <m_score__min__rmsd>  (44) 
2.3313513219950655

>  <meeko>  (44) 
{"free_energy": -7.66, "intermolecular_energy": -9.74, "internal_energy": -1.98, "cluster_size": 23, "cluster_id": 1, "rank_in_cluster": 15}

>  <energy>  (44) 
-6.22

>  <cluster_rmsd>  (44) 
0.78

>  <cluster>  (44) 
6

$$$$

     RDKit          3D

 52 55  0  0  0  0  0  0  0  0999 V2000
  138.8830   71.7370  220.6770 O   0  0  0  0  0  0  0  0  0  0  0  0
  138.9660   72.1630  221.8480 C   0  0  0  0  0  0  0  0  0  0  0  0
  138.7690   73.5740  222.0390 N   0  0  0  0  0  0  0  0  0  0  0  0
  138.4890   74.4950  220.9920 C   0  0  0  0  0  0  0  0  0  0  0  0
  139.4780   74.7390  219.9470 C   0  0  0  0  0  0  0  0  0  0  0  0
  138.9930   75.4860  218.9730 O   0  0  0  0  0  0  0  0  0  0  0  0
  140.7880   74.3450  219.7820 N   0  0  0  0  0  0  0  0  0  0  0  0
  141.4890   73.0930  219.5850 C   0  0  0  0  0  0  0  0  0  0  0  0
  142.4830   73.2210  220.7470 C   0  0  0  0  0  0  0  0  0  0  0  0
  143.0890   74.5510  220.3660 C   0  0  0  0  0  0  0  0  0  0  0  0
  141.9190   75.3160  219.8050 C   0  0  2  0  0  0  0  0  0  0  0  0
  141.6490   76.4470  220.7130 C   0  0  0  0  0  0  0  0  0  0  0  0
  141.1040   76.3470  221.9600 C   0  0  0  0  0  0  0  0  0  0  0  0
  140.8800   77.4600  222.7600 C   0  0  0  0  0  0  0  0  0  0  0  0
  141.2140   78.7200  222.2910 C   0  0  0  0  0  0  0  0  0  0  0  0
  141.0160   79.8740  223.0370 O   0  0  0  0  0  0  0  0  0  0  0  0
  142.0660   80.8290  223.0900 C   0  0  0  0  0  0  0  0  0  0  0  0
  141.8740   81.5970  224.2170 F   0  0  0  0  0  0  0  0  0  0  0  0
  142.1130   81.5880  221.9370 F   0  0  0  0  0  0  0  0  0  0  0  0
  143.2440   80.1170  223.2240 F   0  0  0  0  0  0  0  0  0  0  0  0
  141.7670   78.8510  221.0310 C   0  0  0  0  0  0  0  0  0  0  0  0
  141.9760   77.7260  220.2640 C   0  0  0  0  0  0  0  0  0  0  0  0
  139.2490   71.2790  222.9760 C   0  0  0  0  0  0  0  0  0  0  0  0
  138.8930   69.9580  222.8700 C   0  0  0  0  0  0  0  0  0  0  0  0
  139.1690   69.1420  223.9460 C   0  0  0  0  0  0  0  0  0  0  0  0
  139.7850   69.6450  225.0900 C   0  0  0  0  0  0  0  0  0  0  0  0
  140.0790   68.8750  226.1820 C   0  0  0  0  0  0  0  0  0  0  0  0
  140.6960   69.4450  227.2940 C   0  0  0  0  0  0  0  0  0  0  0  0
  141.0920   68.4990  228.7130 Cl  0  0  0  0  0  0  0  0  0  0  0  0
  141.0260   70.7870  227.3260 C   0  0  0  0  0  0  0  0  0  0  0  0
  140.7240   71.5480  226.2200 C   0  0  0  0  0  0  0  0  0  0  0  0
  140.1160   70.9770  225.1300 C   0  0  0  0  0  0  0  0  0  0  0  0
  139.8420   71.7530  224.0810 N   0  0  0  0  0  0  0  0  0  0  0  0
  138.8530   73.8810  223.0540 H   0  0  0  0  0  0  0  0  0  0  0  0
  137.5787   74.1362  220.4893 H   0  0  0  0  0  0  0  0  0  0  0  0
  138.4326   75.4609  221.5153 H   0  0  0  0  0  0  0  0  0  0  0  0
  140.8264   72.2221  219.6973 H   0  0  0  0  0  0  0  0  0  0  0  0
  141.9280   72.9367  218.5886 H   0  0  0  0  0  0  0  0  0  0  0  0
  141.9784   73.2584  221.7237 H   0  0  0  0  0  0  0  0  0  0  0  0
  143.1903   72.3874  220.8689 H   0  0  0  0  0  0  0  0  0  0  0  0
  143.5072   75.0604  221.2467 H   0  0  0  0  0  0  0  0  0  0  0  0
  143.9228   74.4565  219.6548 H   0  0  0  0  0  0  0  0  0  0  0  0
  142.0899   75.7228  218.7974 H   0  0  0  0  0  0  0  0  0  0  0  0
  140.8333   75.3525  222.3442 H   0  0  0  0  0  0  0  0  0  0  0  0
  140.4396   77.3416  223.7610 H   0  0  0  0  0  0  0  0  0  0  0  0
  142.0377   79.8445  220.6443 H   0  0  0  0  0  0  0  0  0  0  0  0
  142.4162   77.8406  219.2625 H   0  0  0  0  0  0  0  0  0  0  0  0
  138.4075   69.5665  221.9639 H   0  0  0  0  0  0  0  0  0  0  0  0
  138.8986   68.0767  223.9008 H   0  0  0  0  0  0  0  0  0  0  0  0
  139.8279   67.8040  226.1823 H   0  0  0  0  0  0  0  0  0  0  0  0
  141.5136   71.2317  228.2061 H   0  0  0  0  0  0  0  0  0  0  0  0
  140.9712   72.6198  226.2094 H   0  0  0  0  0  0  0  0  0  0  0  0
  1  2  2  0
  2  3  1  0
  3  4  1  0
  4  5  1  0
  5  6  2  0
  5  7  1  0
  7  8  1  0
  8  9  1  0
  9 10  1  0
 10 11  1  0
 11 12  1  0
 12 13  2  0
 13 14  1  0
 14 15  2  0
 15 16  1  0
 16 17  1  0
 17 18  1  0
 17 19  1  0
 17 20  1  0
 15 21  1  0
 21 22  2  0
  2 23  1  0
 23 24  2  0
 24 25  1  0
 25 26  2  0
 26 27  1  0
 27 28  2  0
 28 29  1  0
 28 30  1  0
 30 31  2  0
 31 32  1  0
 32 33  2  0
 11  7  1  0
 22 12  1  0
 33 23  1  0
 32 26  1  0
  3 34  1  0
  4 35  1  0
  4 36  1  0
  8 37  1  0
  8 38  1  0
  9 39  1  0
  9 40  1  0
 10 41  1  0
 10 42  1  0
 11 43  1  6
 13 44  1  0
 14 45  1  0
 21 46  1  0
 22 47  1  0
 24 48  1  0
 25 49  1  0
 27 50  1  0
 30 51  1  0
 31 52  1  0
M  END
>  <smiles>  (45) 
O=C(NCC(=O)N1CCCC1c1ccc(OC(F)(F)F)cc1)c1ccc2cc(Cl)ccc2n1

>  <score_type>  (45) 
oracle

>  <origin>  (45) 
autodockgpu

>  <m_score__min__energy>  (45) 
-7.8600000000000003

>  <m_primary>  (45) 
energy

>  <rmsd>  (45) 
2.2897336197154883

>  <m_score__min__rmsd>  (45) 
2.2897336197154883

>  <meeko>  (45) 
{"free_energy": -7.79, "intermolecular_energy": -9.88, "internal_energy": -1.99, "cluster_size": 23, "cluster_id": 1, "rank_in_cluster": 8}

>  <energy>  (45) 
-6.21

>  <cluster_rmsd>  (45) 
1.55

>  <cluster>  (45) 
6

$$$$

     RDKit          3D

 52 55  0  0  0  0  0  0  0  0999 V2000
  140.6450   72.2380  220.7120 O   0  0  0  0  0  0  0  0  0  0  0  0
  140.2490   72.5670  221.8500 C   0  0  0  0  0  0  0  0  0  0  0  0
  139.8800   73.9450  222.0320 N   0  0  0  0  0  0  0  0  0  0  0  0
  139.9390   74.9340  221.0120 C   0  0  0  0  0  0  0  0  0  0  0  0
  140.9240   76.0080  221.0880 C   0  0  0  0  0  0  0  0  0  0  0  0
  141.3920   76.1640  222.3110 O   0  0  0  0  0  0  0  0  0  0  0  0
  141.4440   76.8740  220.1500 N   0  0  0  0  0  0  0  0  0  0  0  0
  140.9720   78.0310  219.4150 C   0  0  0  0  0  0  0  0  0  0  0  0
  141.2960   77.5300  218.0020 C   0  0  0  0  0  0  0  0  0  0  0  0
  142.7670   77.2510  218.2050 C   0  0  0  0  0  0  0  0  0  0  0  0
  142.8290   76.7320  219.6170 C   0  0  2  0  0  0  0  0  0  0  0  0
  143.2450   75.3180  219.5540 C   0  0  0  0  0  0  0  0  0  0  0  0
  142.7180   74.3740  218.7220 C   0  0  0  0  0  0  0  0  0  0  0  0
  143.1630   73.0590  218.7190 C   0  0  0  0  0  0  0  0  0  0  0  0
  144.1760   72.6760  219.5830 C   0  0  0  0  0  0  0  0  0  0  0  0
  144.6680   71.3790  219.6330 O   0  0  0  0  0  0  0  0  0  0  0  0
  143.7380   70.3070  219.6650 C   0  0  0  0  0  0  0  0  0  0  0  0
  142.6860   70.6900  220.4680 F   0  0  0  0  0  0  0  0  0  0  0  0
  144.3330   69.1380  220.0990 F   0  0  0  0  0  0  0  0  0  0  0  0
  143.2800   70.1390  218.3700 F   0  0  0  0  0  0  0  0  0  0  0  0
  144.7280   73.6100  220.4380 C   0  0  0  0  0  0  0  0  0  0  0  0
  144.2630   74.9070  220.4150 C   0  0  0  0  0  0  0  0  0  0  0  0
  140.1590   71.6090  222.9480 C   0  0  0  0  0  0  0  0  0  0  0  0
  139.5840   70.3890  222.6970 C   0  0  0  0  0  0  0  0  0  0  0  0
  139.5100   69.4980  223.7480 C   0  0  0  0  0  0  0  0  0  0  0  0
  140.0000   69.8330  225.0080 C   0  0  0  0  0  0  0  0  0  0  0  0
  139.9490   68.9840  226.0800 C   0  0  0  0  0  0  0  0  0  0  0  0
  140.4590   69.3840  227.3140 C   0  0  0  0  0  0  0  0  0  0  0  0
  140.4150   68.3330  228.7130 Cl  0  0  0  0  0  0  0  0  0  0  0  0
  141.0250   70.6340  227.4890 C   0  0  0  0  0  0  0  0  0  0  0  0
  141.0690   71.4750  226.4010 C   0  0  0  0  0  0  0  0  0  0  0  0
  140.5640   71.0720  225.1910 C   0  0  0  0  0  0  0  0  0  0  0  0
  140.6280   71.9200  224.1640 N   0  0  0  0  0  0  0  0  0  0  0  0
  139.5520   74.1700  223.0190 H   0  0  0  0  0  0  0  0  0  0  0  0
  140.1217   74.4030  220.0661 H   0  0  0  0  0  0  0  0  0  0  0  0
  138.9811   75.4638  221.1204 H   0  0  0  0  0  0  0  0  0  0  0  0
  139.8956   78.2058  219.5589 H   0  0  0  0  0  0  0  0  0  0  0  0
  141.4141   78.9975  219.6986 H   0  0  0  0  0  0  0  0  0  0  0  0
  140.7322   76.6216  217.7433 H   0  0  0  0  0  0  0  0  0  0  0  0
  141.0455   78.2158  217.1792 H   0  0  0  0  0  0  0  0  0  0  0  0
  143.1270   76.4954  217.4912 H   0  0  0  0  0  0  0  0  0  0  0  0
  143.3995   78.1363  218.0434 H   0  0  0  0  0  0  0  0  0  0  0  0
  143.5410   77.2684  220.2615 H   0  0  0  0  0  0  0  0  0  0  0  0
  141.9135   74.6645  218.0303 H   0  0  0  0  0  0  0  0  0  0  0  0
  142.7136   72.3249  218.0341 H   0  0  0  0  0  0  0  0  0  0  0  0
  145.5317   73.3210  221.1312 H   0  0  0  0  0  0  0  0  0  0  0  0
  144.7098   75.6436  221.0990 H   0  0  0  0  0  0  0  0  0  0  0  0
  139.1981   70.1318  221.6996 H   0  0  0  0  0  0  0  0  0  0  0  0
  139.0572   68.5083  223.5884 H   0  0  0  0  0  0  0  0  0  0  0  0
  139.5047   67.9840  225.9677 H   0  0  0  0  0  0  0  0  0  0  0  0
  141.4262   70.9450  228.4648 H   0  0  0  0  0  0  0  0  0  0  0  0
  141.5119   72.4768  226.5021 H   0  0  0  0  0  0  0  0  0  0  0  0
  1  2  2  0
  2  3  1  0
  3  4  1  0
  4  5  1  0
  5  6  2  0
  5  7  1  0
  7  8  1  0
  8  9  1  0
  9 10  1  0
 10 11  1  0
 11 12  1  0
 12 13  2  0
 13 14  1  0
 14 15  2  0
 15 16  1  0
 16 17  1  0
 17 18  1  0
 17 19  1  0
 17 20  1  0
 15 21  1  0
 21 22  2  0
  2 23  1  0
 23 24  2  0
 24 25  1  0
 25 26  2  0
 26 27  1  0
 27 28  2  0
 28 29  1  0
 28 30  1  0
 30 31  2  0
 31 32  1  0
 32 33  2  0
 11  7  1  0
 22 12  1  0
 33 23  1  0
 32 26  1  0
  3 34  1  0
  4 35  1  0
  4 36  1  0
  8 37  1  0
  8 38  1  0
  9 39  1  0
  9 40  1  0
 10 41  1  0
 10 42  1  0
 11 43  1  1
 13 44  1  0
 14 45  1  0
 21 46  1  0
 22 47  1  0
 24 48  1  0
 25 49  1  0
 27 50  1  0
 30 51  1  0
 31 52  1  0
M  END
>  <smiles>  (46) 
O=C(NCC(=O)N1CCCC1c1ccc(OC(F)(F)F)cc1)c1ccc2cc(Cl)ccc2n1

>  <score_type>  (46) 
oracle

>  <origin>  (46) 
autodockgpu

>  <m_score__min__energy>  (46) 
-7.8600000000000003

>  <m_primary>  (46) 
energy

>  <rmsd>  (46) 
2.095548342694987

>  <m_score__min__rmsd>  (46) 
2.095548342694987

>  <meeko>  (46) 
{"free_energy": -7.37, "intermolecular_energy": -9.46, "internal_energy": -2.18, "cluster_size": 11, "cluster_id": 2, "rank_in_cluster": 3}

>  <energy>  (46) 
-6.14

>  <cluster_rmsd>  (46) 
1.46

>  <cluster>  (46) 
6

$$$$

     RDKit          3D

 52 55  0  0  0  0  0  0  0  0999 V2000
  138.3000   71.8260  220.3990 O   0  0  0  0  0  0  0  0  0  0  0  0
  138.3880   72.2720  221.5630 C   0  0  0  0  0  0  0  0  0  0  0  0
  138.1490   73.6790  221.7360 N   0  0  0  0  0  0  0  0  0  0  0  0
  137.8240   74.5750  220.6810 C   0  0  0  0  0  0  0  0  0  0  0  0
  138.3990   75.9150  220.6530 C   0  0  0  0  0  0  0  0  0  0  0  0
  138.3080   76.4670  219.4580 O   0  0  0  0  0  0  0  0  0  0  0  0
  139.0110   76.6950  221.6110 N   0  0  0  0  0  0  0  0  0  0  0  0
  138.7970   78.0070  222.1870 C   0  0  0  0  0  0  0  0  0  0  0  0
  140.1970   78.5810  221.9330 C   0  0  0  0  0  0  0  0  0  0  0  0
  140.9980   77.5130  222.6390 C   0  0  0  0  0  0  0  0  0  0  0  0
  140.2350   76.2500  222.3360 C   0  0  2  0  0  0  0  0  0  0  0  0
  141.0940   75.4040  221.4870 C   0  0  0  0  0  0  0  0  0  0  0  0
  141.9120   75.8530  220.4920 C   0  0  0  0  0  0  0  0  0  0  0  0
  142.6940   74.9920  219.7330 C   0  0  0  0  0  0  0  0  0  0  0  0
  142.6540   73.6300  219.9810 C   0  0  0  0  0  0  0  0  0  0  0  0
  143.4080   72.7140  219.2610 O   0  0  0  0  0  0  0  0  0  0  0  0
  144.5180   72.1030  219.9030 C   0  0  0  0  0  0  0  0  0  0  0  0
  144.0540   71.4960  221.0490 F   0  0  0  0  0  0  0  0  0  0  0  0
  145.5160   73.0210  220.1610 F   0  0  0  0  0  0  0  0  0  0  0  0
  144.9930   71.1330  219.0380 F   0  0  0  0  0  0  0  0  0  0  0  0
  141.8340   73.1460  220.9820 C   0  0  0  0  0  0  0  0  0  0  0  0
  141.0710   74.0280  221.7170 C   0  0  0  0  0  0  0  0  0  0  0  0
  138.7160   71.4150  222.6990 C   0  0  0  0  0  0  0  0  0  0  0  0
  138.1610   70.1610  222.7450 C   0  0  0  0  0  0  0  0  0  0  0  0
  138.4840   69.3680  223.8260 C   0  0  0  0  0  0  0  0  0  0  0  0
  139.3390   69.8280  224.8250 C   0  0  0  0  0  0  0  0  0  0  0  0
  139.6890   69.0800  225.9150 C   0  0  0  0  0  0  0  0  0  0  0  0
  140.5500   69.6040  226.8770 C   0  0  0  0  0  0  0  0  0  0  0  0
  141.0240   68.6830  228.2890 Cl  0  0  0  0  0  0  0  0  0  0  0  0
  141.0700   70.8800  226.7600 C   0  0  0  0  0  0  0  0  0  0  0  0
  140.7090   71.6200  225.6580 C   0  0  0  0  0  0  0  0  0  0  0  0
  139.8600   71.0940  224.7160 C   0  0  0  0  0  0  0  0  0  0  0  0
  139.5380   71.8480  223.6650 N   0  0  0  0  0  0  0  0  0  0  0  0
  138.2380   74.0040  222.7460 H   0  0  0  0  0  0  0  0  0  0  0  0
  138.1232   74.0825  219.7440 H   0  0  0  0  0  0  0  0  0  0  0  0
  136.7517   74.7656  220.8356 H   0  0  0  0  0  0  0  0  0  0  0  0
  138.0133   78.5709  221.6599 H   0  0  0  0  0  0  0  0  0  0  0  0
  138.4489   78.0259  223.2303 H   0  0  0  0  0  0  0  0  0  0  0  0
  140.4347   78.6385  220.8605 H   0  0  0  0  0  0  0  0  0  0  0  0
  140.3635   79.6129  222.2759 H   0  0  0  0  0  0  0  0  0  0  0  0
  142.0218   77.4601  222.2402 H   0  0  0  0  0  0  0  0  0  0  0  0
  141.1090   77.7005  223.7172 H   0  0  0  0  0  0  0  0  0  0  0  0
  139.9578   75.6672  223.2268 H   0  0  0  0  0  0  0  0  0  0  0  0
  141.9536   76.9323  220.2840 H   0  0  0  0  0  0  0  0  0  0  0  0
  143.3422   75.3901  218.9384 H   0  0  0  0  0  0  0  0  0  0  0  0
  141.7903   72.0668  221.1906 H   0  0  0  0  0  0  0  0  0  0  0  0
  140.4216   73.6334  222.5123 H   0  0  0  0  0  0  0  0  0  0  0  0
  137.4868   69.8033  221.9529 H   0  0  0  0  0  0  0  0  0  0  0  0
  138.0596   68.3559  223.9006 H   0  0  0  0  0  0  0  0  0  0  0  0
  139.2897   68.0618  226.0326 H   0  0  0  0  0  0  0  0  0  0  0  0
  141.7493   71.2894  227.5222 H   0  0  0  0  0  0  0  0  0  0  0  0
  141.1029   72.6392  225.5308 H   0  0  0  0  0  0  0  0  0  0  0  0
  1  2  2  0
  2  3  1  0
  3  4  1  0
  4  5  1  0
  5  6  2  0
  5  7  1  0
  7  8  1  0
  8  9  1  0
  9 10  1  0
 10 11  1  0
 11 12  1  0
 12 13  2  0
 13 14  1  0
 14 15  2  0
 15 16  1  0
 16 17  1  0
 17 18  1  0
 17 19  1  0
 17 20  1  0
 15 21  1  0
 21 22  2  0
  2 23  1  0
 23 24  2  0
 24 25  1  0
 25 26  2  0
 26 27  1  0
 27 28  2  0
 28 29  1  0
 28 30  1  0
 30 31  2  0
 31 32  1  0
 32 33  2  0
 11  7  1  0
 22 12  1  0
 33 23  1  0
 32 26  1  0
  3 34  1  0
  4 35  1  0
  4 36  1  0
  8 37  1  0
  8 38  1  0
  9 39  1  0
  9 40  1  0
 10 41  1  0
 10 42  1  0
 11 43  1  1
 13 44  1  0
 14 45  1  0
 21 46  1  0
 22 47  1  0
 24 48  1  0
 25 49  1  0
 27 50  1  0
 30 51  1  0
 31 52  1  0
M  END
>  <smiles>  (47) 
O=C(NCC(=O)N1CCCC1c1ccc(OC(F)(F)F)cc1)c1ccc2cc(Cl)ccc2n1

>  <score_type>  (47) 
oracle

>  <origin>  (47) 
autodockgpu

>  <m_score__min__energy>  (47) 
-7.8600000000000003

>  <m_primary>  (47) 
energy

>  <rmsd>  (47) 
2.8050353989472225

>  <m_score__min__rmsd>  (47) 
2.8050353989472225

>  <meeko>  (47) 
{"free_energy": -6.77, "intermolecular_energy": -8.86, "internal_energy": -2.13, "cluster_size": 1, "cluster_id": 7, "rank_in_cluster": 1}

>  <energy>  (47) 
-5.99

>  <cluster_rmsd>  (47) 
1.49

>  <cluster>  (47) 
6

$$$$

     RDKit          3D

 52 55  0  0  0  0  0  0  0  0999 V2000
  139.5010   73.7760  222.3300 O   0  0  0  0  0  0  0  0  0  0  0  0
  139.6500   72.5600  222.0850 C   0  0  0  0  0  0  0  0  0  0  0  0
  139.6920   72.1810  220.6980 N   0  0  0  0  0  0  0  0  0  0  0  0
  139.5760   73.0920  219.6130 C   0  0  0  0  0  0  0  0  0  0  0  0
  140.7730   73.6360  218.9820 C   0  0  0  0  0  0  0  0  0  0  0  0
  140.4800   74.4570  217.9910 O   0  0  0  0  0  0  0  0  0  0  0  0
  142.1200   73.4580  219.2110 N   0  0  0  0  0  0  0  0  0  0  0  0
  143.0390   72.3380  219.2420 C   0  0  0  0  0  0  0  0  0  0  0  0
  143.6190   72.5780  220.6420 C   0  0  0  0  0  0  0  0  0  0  0  0
  144.0890   73.9990  220.4390 C   0  0  0  0  0  0  0  0  0  0  0  0
  143.0250   74.5920  219.5520 C   0  0  2  0  0  0  0  0  0  0  0  0
  142.3260   75.6330  220.3300 C   0  0  0  0  0  0  0  0  0  0  0  0
  141.5700   75.4150  221.4440 C   0  0  0  0  0  0  0  0  0  0  0  0
  140.9410   76.4480  222.1250 C   0  0  0  0  0  0  0  0  0  0  0  0
  141.0750   77.7500  221.6710 C   0  0  0  0  0  0  0  0  0  0  0  0
  140.4740   78.8300  222.3020 O   0  0  0  0  0  0  0  0  0  0  0  0
  141.2280   79.5530  223.2640 C   0  0  0  0  0  0  0  0  0  0  0  0
  141.7170   78.6470  224.1780 F   0  0  0  0  0  0  0  0  0  0  0  0
  140.4690   80.5430  223.8570 F   0  0  0  0  0  0  0  0  0  0  0  0
  142.2880   80.1280  222.5860 F   0  0  0  0  0  0  0  0  0  0  0  0
  141.8350   78.0010  220.5440 C   0  0  0  0  0  0  0  0  0  0  0  0
  142.4460   76.9530  219.8930 C   0  0  0  0  0  0  0  0  0  0  0  0
  139.7780   71.5650  223.1460 C   0  0  0  0  0  0  0  0  0  0  0  0
  139.3640   70.2830  222.8840 C   0  0  0  0  0  0  0  0  0  0  0  0
  139.4940   69.3580  223.8990 C   0  0  0  0  0  0  0  0  0  0  0  0
  140.0250   69.7190  225.1350 C   0  0  0  0  0  0  0  0  0  0  0  0
  140.1740   68.8380  226.1710 C   0  0  0  0  0  0  0  0  0  0  0  0
  140.7130   69.2680  227.3820 C   0  0  0  0  0  0  0  0  0  0  0  0
  140.9210   68.1770  228.7360 Cl  0  0  0  0  0  0  0  0  0  0  0  0
  141.1090   70.5790  227.5700 C   0  0  0  0  0  0  0  0  0  0  0  0
  140.9530   71.4520  226.5180 C   0  0  0  0  0  0  0  0  0  0  0  0
  140.4210   71.0190  225.3300 C   0  0  0  0  0  0  0  0  0  0  0  0
  140.2890   71.9000  224.3380 N   0  0  0  0  0  0  0  0  0  0  0  0
  139.8190   71.1350  220.5480 H   0  0  0  0  0  0  0  0  0  0  0  0
  139.0093   72.5751  218.8246 H   0  0  0  0  0  0  0  0  0  0  0  0
  139.1122   73.9757  220.0756 H   0  0  0  0  0  0  0  0  0  0  0  0
  142.5203   71.3710  219.1658 H   0  0  0  0  0  0  0  0  0  0  0  0
  143.7674   72.2878  218.4193 H   0  0  0  0  0  0  0  0  0  0  0  0
  142.8534   72.5014  221.4281 H   0  0  0  0  0  0  0  0  0  0  0  0
  144.3840   71.8612  220.9752 H   0  0  0  0  0  0  0  0  0  0  0  0
  144.1473   74.5356  221.3975 H   0  0  0  0  0  0  0  0  0  0  0  0
  145.0970   74.0611  220.0030 H   0  0  0  0  0  0  0  0  0  0  0  0
  143.4130   75.0568  218.6336 H   0  0  0  0  0  0  0  0  0  0  0  0
  141.4549   74.3860  221.8153 H   0  0  0  0  0  0  0  0  0  0  0  0
  140.3392   76.2340  223.0206 H   0  0  0  0  0  0  0  0  0  0  0  0
  141.9506   79.0292  220.1705 H   0  0  0  0  0  0  0  0  0  0  0  0
  143.0495   77.1633  218.9977 H   0  0  0  0  0  0  0  0  0  0  0  0
  138.9459   70.0047  221.9054 H   0  0  0  0  0  0  0  0  0  0  0  0
  139.1734   68.3195  223.7297 H   0  0  0  0  0  0  0  0  0  0  0  0
  139.8679   67.7886  226.0479 H   0  0  0  0  0  0  0  0  0  0  0  0
  141.5343   70.9129  228.5279 H   0  0  0  0  0  0  0  0  0  0  0  0
  141.2567   72.5033  226.6302 H   0  0  0  0  0  0  0  0  0  0  0  0
  1  2  2  0
  2  3  1  0
  3  4  1  0
  4  5  1  0
  5  6  2  0
  5  7  1  0
  7  8  1  0
  8  9  1  0
  9 10  1  0
 10 11  1  0
 11 12  1  0
 12 13  2  0
 13 14  1  0
 14 15  2  0
 15 16  1  0
 16 17  1  0
 17 18  1  0
 17 19  1  0
 17 20  1  0
 15 21  1  0
 21 22  2  0
  2 23  1  0
 23 24  2  0
 24 25  1  0
 25 26  2  0
 26 27  1  0
 27 28  2  0
 28 29  1  0
 28 30  1  0
 30 31  2  0
 31 32  1  0
 32 33  2  0
 11  7  1  0
 22 12  1  0
 33 23  1  0
 32 26  1  0
  3 34  1  0
  4 35  1  0
  4 36  1  0
  8 37  1  0
  8 38  1  0
  9 39  1  0
  9 40  1  0
 10 41  1  0
 10 42  1  0
 11 43  1  6
 13 44  1  0
 14 45  1  0
 21 46  1  0
 22 47  1  0
 24 48  1  0
 25 49  1  0
 27 50  1  0
 30 51  1  0
 31 52  1  0
M  END
>  <smiles>  (48) 
O=C(NCC(=O)N1CCCC1c1ccc(OC(F)(F)F)cc1)c1ccc2cc(Cl)ccc2n1

>  <score_type>  (48) 
oracle

>  <origin>  (48) 
autodockgpu

>  <m_score__min__energy>  (48) 
-7.8600000000000003

>  <m_primary>  (48) 
energy

>  <rmsd>  (48) 
3.075408419762518

>  <m_score__min__rmsd>  (48) 
3.075408419762518

>  <meeko>  (48) 
{"free_energy": -7.73, "intermolecular_energy": -9.82, "internal_energy": -1.82, "cluster_size": 23, "cluster_id": 1, "rank_in_cluster": 11}

>  <energy>  (48) 
-5.95

>  <cluster_rmsd>  (48) 
1.45

>  <cluster>  (48) 
6

$$$$

     RDKit          3D

 52 55  0  0  0  0  0  0  0  0999 V2000
  139.0580   71.8620  220.6540 O   0  0  0  0  0  0  0  0  0  0  0  0
  139.0930   72.2700  221.8340 C   0  0  0  0  0  0  0  0  0  0  0  0
  138.8780   73.6770  222.0390 N   0  0  0  0  0  0  0  0  0  0  0  0
  138.6310   74.6120  220.9960 C   0  0  0  0  0  0  0  0  0  0  0  0
  139.5370   74.6930  219.8550 C   0  0  0  0  0  0  0  0  0  0  0  0
  138.9510   75.2170  218.7960 O   0  0  0  0  0  0  0  0  0  0  0  0
  140.8540   74.3310  219.6730 N   0  0  0  0  0  0  0  0  0  0  0  0
  141.5800   73.0980  219.4420 C   0  0  0  0  0  0  0  0  0  0  0  0
  142.5780   73.2200  220.6000 C   0  0  0  0  0  0  0  0  0  0  0  0
  143.1540   74.5710  220.2470 C   0  0  0  0  0  0  0  0  0  0  0  0
  141.9640   75.3250  219.7120 C   0  0  2  0  0  0  0  0  0  0  0  0
  141.6770   76.4270  220.6490 C   0  0  0  0  0  0  0  0  0  0  0  0
  141.1340   76.2870  221.8930 C   0  0  0  0  0  0  0  0  0  0  0  0
  140.8920   77.3750  222.7200 C   0  0  0  0  0  0  0  0  0  0  0  0
  141.2060   78.6520  222.2840 C   0  0  0  0  0  0  0  0  0  0  0  0
  140.9900   79.7840  223.0590 O   0  0  0  0  0  0  0  0  0  0  0  0
  142.0220   80.7560  223.1310 C   0  0  0  0  0  0  0  0  0  0  0  0
  141.9130   81.5640  222.0210 F   0  0  0  0  0  0  0  0  0  0  0  0
  143.2650   80.1630  223.2300 F   0  0  0  0  0  0  0  0  0  0  0  0
  141.7790   81.5110  224.2650 F   0  0  0  0  0  0  0  0  0  0  0  0
  141.7560   78.8240  221.0280 C   0  0  0  0  0  0  0  0  0  0  0  0
  141.9830   77.7230  220.2330 C   0  0  0  0  0  0  0  0  0  0  0  0
  139.3390   71.3710  222.9580 C   0  0  0  0  0  0  0  0  0  0  0  0
  138.9410   70.0630  222.8400 C   0  0  0  0  0  0  0  0  0  0  0  0
  139.1830   69.2310  223.9130 C   0  0  0  0  0  0  0  0  0  0  0  0
  139.8060   69.7060  225.0650 C   0  0  0  0  0  0  0  0  0  0  0  0
  140.0670   68.9200  226.1540 C   0  0  0  0  0  0  0  0  0  0  0  0
  140.6940   69.4630  227.2740 C   0  0  0  0  0  0  0  0  0  0  0  0
  141.0480   68.4960  228.6900 Cl  0  0  0  0  0  0  0  0  0  0  0  0
  141.0670   70.7940  227.3180 C   0  0  0  0  0  0  0  0  0  0  0  0
  140.7970   71.5710  226.2140 C   0  0  0  0  0  0  0  0  0  0  0  0
  140.1800   71.0270  225.1160 C   0  0  0  0  0  0  0  0  0  0  0  0
  139.9380   71.8170  224.0700 N   0  0  0  0  0  0  0  0  0  0  0  0
  138.9200   73.9680  223.0620 H   0  0  0  0  0  0  0  0  0  0  0  0
  137.6338   74.3812  220.5931 H   0  0  0  0  0  0  0  0  0  0  0  0
  138.7651   75.5841  221.4930 H   0  0  0  0  0  0  0  0  0  0  0  0
  140.9365   72.2110  219.5378 H   0  0  0  0  0  0  0  0  0  0  0  0
  142.0155   72.9740  218.4395 H   0  0  0  0  0  0  0  0  0  0  0  0
  142.0790   73.2241  221.5803 H   0  0  0  0  0  0  0  0  0  0  0  0
  143.3034   72.3989  220.6980 H   0  0  0  0  0  0  0  0  0  0  0  0
  143.5679   75.0678  221.1368 H   0  0  0  0  0  0  0  0  0  0  0  0
  143.9846   74.5108  219.5283 H   0  0  0  0  0  0  0  0  0  0  0  0
  142.1189   75.7599  218.7136 H   0  0  0  0  0  0  0  0  0  0  0  0
  140.8798   75.2788  222.2521 H   0  0  0  0  0  0  0  0  0  0  0  0
  140.4528   77.2241  223.7172 H   0  0  0  0  0  0  0  0  0  0  0  0
  142.0101   79.8314  220.6666 H   0  0  0  0  0  0  0  0  0  0  0  0
  142.4210   77.8704  219.2348 H   0  0  0  0  0  0  0  0  0  0  0  0
  138.4495   69.6936  221.9278 H   0  0  0  0  0  0  0  0  0  0  0  0
  138.8792   68.1752  223.8583 H   0  0  0  0  0  0  0  0  0  0  0  0
  139.7815   67.8577  226.1456 H   0  0  0  0  0  0  0  0  0  0  0  0
  141.5623   71.2172  228.2044 H   0  0  0  0  0  0  0  0  0  0  0  0
  141.0777   72.6346  226.2123 H   0  0  0  0  0  0  0  0  0  0  0  0
  1  2  2  0
  2  3  1  0
  3  4  1  0
  4  5  1  0
  5  6  2  0
  5  7  1  0
  7  8  1  0
  8  9  1  0
  9 10  1  0
 10 11  1  0
 11 12  1  0
 12 13  2  0
 13 14  1  0
 14 15  2  0
 15 16  1  0
 16 17  1  0
 17 18  1  0
 17 19  1  0
 17 20  1  0
 15 21  1  0
 21 22  2  0
  2 23  1  0
 23 24  2  0
 24 25  1  0
 25 26  2  0
 26 27  1  0
 27 28  2  0
 28 29  1  0
 28 30  1  0
 30 31  2  0
 31 32  1  0
 32 33  2  0
 11  7  1  0
 22 12  1  0
 33 23  1  0
 32 26  1  0
  3 34  1  0
  4 35  1  0
  4 36  1  0
  8 37  1  0
  8 38  1  0
  9 39  1  0
  9 40  1  0
 10 41  1  0
 10 42  1  0
 11 43  1  6
 13 44  1  0
 14 45  1  0
 21 46  1  0
 22 47  1  0
 24 48  1  0
 25 49  1  0
 27 50  1  0
 30 51  1  0
 31 52  1  0
M  END
>  <smiles>  (49) 
O=C(NCC(=O)N1CCCC1c1ccc(OC(F)(F)F)cc1)c1ccc2cc(Cl)ccc2n1

>  <score_type>  (49) 
oracle

>  <origin>  (49) 
autodockgpu

>  <m_score__min__energy>  (49) 
-7.8600000000000003

>  <m_primary>  (49) 
energy

>  <rmsd>  (49) 
2.315490136907731

>  <m_score__min__rmsd>  (49) 
2.315490136907731

>  <meeko>  (49) 
{"free_energy": -7.83, "intermolecular_energy": -9.92, "internal_energy": -1.92, "cluster_size": 23, "cluster_id": 1, "rank_in_cluster": 4}

>  <energy>  (49) 
-5.91

>  <cluster_rmsd>  (49) 
1.41

>  <cluster>  (49) 
6

$$$$

     RDKit          3D

 52 55  0  0  0  0  0  0  0  0999 V2000
  138.8380   72.3870  221.1610 O   0  0  0  0  0  0  0  0  0  0  0  0
  139.8390   72.2720  221.9000 C   0  0  0  0  0  0  0  0  0  0  0  0
  140.9700   73.1050  221.5920 N   0  0  0  0  0  0  0  0  0  0  0  0
  141.0130   74.0350  220.5170 C   0  0  0  0  0  0  0  0  0  0  0  0
  141.1640   75.4610  220.7880 C   0  0  0  0  0  0  0  0  0  0  0  0
  140.8630   75.7610  222.0360 O   0  0  0  0  0  0  0  0  0  0  0  0
  141.5450   76.5300  220.0060 N   0  0  0  0  0  0  0  0  0  0  0  0
  140.8790   77.6270  219.3340 C   0  0  0  0  0  0  0  0  0  0  0  0
  141.4470   77.3900  217.9280 C   0  0  0  0  0  0  0  0  0  0  0  0
  142.9150   77.4340  218.2790 C   0  0  0  0  0  0  0  0  0  0  0  0
  142.9670   76.7750  219.6330 C   0  0  2  0  0  0  0  0  0  0  0  0
  143.7170   75.5130  219.4850 C   0  0  0  0  0  0  0  0  0  0  0  0
  144.4480   74.9070  220.4650 C   0  0  0  0  0  0  0  0  0  0  0  0
  145.1280   73.7160  220.2500 C   0  0  0  0  0  0  0  0  0  0  0  0
  145.0730   73.1090  219.0060 C   0  0  0  0  0  0  0  0  0  0  0  0
  145.7280   71.9190  218.7220 O   0  0  0  0  0  0  0  0  0  0  0  0
  145.0430   70.6990  218.9630 C   0  0  0  0  0  0  0  0  0  0  0  0
  145.9850   69.7470  219.2870 F   0  0  0  0  0  0  0  0  0  0  0  0
  144.2750   70.3310  217.8750 F   0  0  0  0  0  0  0  0  0  0  0  0
  144.2230   70.9130  220.0570 F   0  0  0  0  0  0  0  0  0  0  0  0
  144.3400   73.7000  217.9950 C   0  0  0  0  0  0  0  0  0  0  0  0
  143.6770   74.8820  218.2410 C   0  0  0  0  0  0  0  0  0  0  0  0
  139.8700   71.3390  223.0240 C   0  0  0  0  0  0  0  0  0  0  0  0
  139.2850   70.1090  222.8610 C   0  0  0  0  0  0  0  0  0  0  0  0
  139.3260   69.2440  223.9340 C   0  0  0  0  0  0  0  0  0  0  0  0
  139.9380   69.6120  225.1300 C   0  0  0  0  0  0  0  0  0  0  0  0
  140.0040   68.7900  226.2220 C   0  0  0  0  0  0  0  0  0  0  0  0
  140.6320   69.2240  227.3880 C   0  0  0  0  0  0  0  0  0  0  0  0
  140.7400   68.2060  228.8090 Cl  0  0  0  0  0  0  0  0  0  0  0  0
  141.2000   70.4810  227.4750 C   0  0  0  0  0  0  0  0  0  0  0  0
  141.1260   71.2960  226.3690 C   0  0  0  0  0  0  0  0  0  0  0  0
  140.5050   70.8600  225.2260 C   0  0  0  0  0  0  0  0  0  0  0  0
  140.4570   71.6830  224.1790 N   0  0  0  0  0  0  0  0  0  0  0  0
  141.7930   72.9640  222.2510 H   0  0  0  0  0  0  0  0  0  0  0  0
  141.8594   73.7423  219.8783 H   0  0  0  0  0  0  0  0  0  0  0  0
  140.0038   73.9666  220.0847 H   0  0  0  0  0  0  0  0  0  0  0  0
  139.7836   77.5303  219.3629 H   0  0  0  0  0  0  0  0  0  0  0  0
  141.0451   78.6274  219.7602 H   0  0  0  0  0  0  0  0  0  0  0  0
  141.1467   76.4148  217.5171 H   0  0  0  0  0  0  0  0  0  0  0  0
  141.1170   78.0950  217.1508 H   0  0  0  0  0  0  0  0  0  0  0  0
  143.5127   76.8739  217.5448 H   0  0  0  0  0  0  0  0  0  0  0  0
  143.3271   78.4539  218.2803 H   0  0  0  0  0  0  0  0  0  0  0  0
  143.4640   77.3775  220.4076 H   0  0  0  0  0  0  0  0  0  0  0  0
  144.5002   75.3776  221.4579 H   0  0  0  0  0  0  0  0  0  0  0  0
  145.7079   73.2563  221.0638 H   0  0  0  0  0  0  0  0  0  0  0  0
  144.2863   73.2304  217.0017 H   0  0  0  0  0  0  0  0  0  0  0  0
  143.0962   75.3443  217.4292 H   0  0  0  0  0  0  0  0  0  0  0  0
  138.8033   69.8246  221.9138 H   0  0  0  0  0  0  0  0  0  0  0  0
  138.8683   68.2478  223.8442 H   0  0  0  0  0  0  0  0  0  0  0  0
  139.5603   67.7843  226.1794 H   0  0  0  0  0  0  0  0  0  0  0  0
  141.6947   70.8186  228.3977 H   0  0  0  0  0  0  0  0  0  0  0  0
  141.5673   72.3031  226.4014 H   0  0  0  0  0  0  0  0  0  0  0  0
  1  2  2  0
  2  3  1  0
  3  4  1  0
  4  5  1  0
  5  6  2  0
  5  7  1  0
  7  8  1  0
  8  9  1  0
  9 10  1  0
 10 11  1  0
 11 12  1  0
 12 13  2  0
 13 14  1  0
 14 15  2  0
 15 16  1  0
 16 17  1  0
 17 18  1  0
 17 19  1  0
 17 20  1  0
 15 21  1  0
 21 22  2  0
  2 23  1  0
 23 24  2  0
 24 25  1  0
 25 26  2  0
 26 27  1  0
 27 28  2  0
 28 29  1  0
 28 30  1  0
 30 31  2  0
 31 32  1  0
 32 33  2  0
 11  7  1  0
 22 12  1  0
 33 23  1  0
 32 26  1  0
  3 34  1  0
  4 35  1  0
  4 36  1  0
  8 37  1  0
  8 38  1  0
  9 39  1  0
  9 40  1  0
 10 41  1  0
 10 42  1  0
 11 43  1  1
 13 44  1  0
 14 45  1  0
 21 46  1  0
 22 47  1  0
 24 48  1  0
 25 49  1  0
 27 50  1  0
 30 51  1  0
 31 52  1  0
M  END
>  <smiles>  (50) 
O=C(NCC(=O)N1CCCC1c1ccc(OC(F)(F)F)cc1)c1ccc2cc(Cl)ccc2n1

>  <score_type>  (50) 
oracle

>  <origin>  (50) 
autodockgpu

>  <m_score__min__energy>  (50) 
-7.8600000000000003

>  <m_primary>  (50) 
energy

>  <rmsd>  (50) 
2.1372322172225635

>  <m_score__min__rmsd>  (50) 
2.1372322172225635

>  <meeko>  (50) 
{"free_energy": -7.76, "intermolecular_energy": -9.85, "internal_energy": -1.7, "cluster_size": 11, "cluster_id": 2, "rank_in_cluster": 1}

>  <energy>  (50) 
-6.77

>  <cluster_rmsd>  (50) 
0.0

>  <cluster>  (50) 
7

$$$$

     RDKit          3D

 52 55  0  0  0  0  0  0  0  0999 V2000
  140.0100   72.0690  220.5350 O   0  0  0  0  0  0  0  0  0  0  0  0
  139.8760   72.5150  221.7200 C   0  0  0  0  0  0  0  0  0  0  0  0
  139.6790   73.8980  221.9830 N   0  0  0  0  0  0  0  0  0  0  0  0
  139.6170   74.8910  220.9280 C   0  0  0  0  0  0  0  0  0  0  0  0
  139.8500   76.2330  221.5440 C   0  0  0  0  0  0  0  0  0  0  0  0
  139.6040   76.3510  222.7720 O   0  0  0  0  0  0  0  0  0  0  0  0
  140.3320   77.3200  220.7450 N   0  0  0  0  0  0  0  0  0  0  0  0
  140.2840   78.7190  221.1240 C   0  0  0  0  0  0  0  0  0  0  0  0
  141.5010   79.2760  220.4500 C   0  0  0  0  0  0  0  0  0  0  0  0
  141.4620   78.5420  219.1060 C   0  0  0  0  0  0  0  0  0  0  0  0
  140.9350   77.1560  219.4430 C   0  0  1  0  0  0  0  0  0  0  0  0
  141.9670   76.1210  219.3710 C   0  0  0  0  0  0  0  0  0  0  0  0
  141.7560   75.0060  218.5880 C   0  0  0  0  0  0  0  0  0  0  0  0
  142.7340   74.0370  218.5270 C   0  0  0  0  0  0  0  0  0  0  0  0
  143.9300   74.1340  219.2220 C   0  0  0  0  0  0  0  0  0  0  0  0
  144.8790   73.1470  219.1350 O   0  0  0  0  0  0  0  0  0  0  0  0
  145.5980   72.6700  220.2610 C   0  0  0  0  0  0  0  0  0  0  0  0
  146.3390   71.5660  219.8740 F   0  0  0  0  0  0  0  0  0  0  0  0
  146.4570   73.6530  220.6930 F   0  0  0  0  0  0  0  0  0  0  0  0
  144.6890   72.2910  221.2340 F   0  0  0  0  0  0  0  0  0  0  0  0
  144.1070   75.2660  219.9980 C   0  0  0  0  0  0  0  0  0  0  0  0
  143.1490   76.2600  220.0860 C   0  0  0  0  0  0  0  0  0  0  0  0
  139.9230   71.5860  222.8700 C   0  0  0  0  0  0  0  0  0  0  0  0
  139.4730   70.2880  222.7250 C   0  0  0  0  0  0  0  0  0  0  0  0
  139.4970   69.3790  223.7810 C   0  0  0  0  0  0  0  0  0  0  0  0
  140.0020   69.8630  224.9810 C   0  0  0  0  0  0  0  0  0  0  0  0
  140.0760   69.0520  226.0990 C   0  0  0  0  0  0  0  0  0  0  0  0
  140.5770   69.5270  227.2940 C   0  0  0  0  0  0  0  0  0  0  0  0
  140.6730   68.4960  228.7220 Cl  0  0  0  0  0  0  0  0  0  0  0  0
  141.0240   70.8280  227.4240 C   0  0  0  0  0  0  0  0  0  0  0  0
  140.9570   71.6600  226.3060 C   0  0  0  0  0  0  0  0  0  0  0  0
  140.4520   71.1590  225.1240 C   0  0  0  0  0  0  0  0  0  0  0  0
  140.4070   72.0010  224.0750 N   0  0  0  0  0  0  0  0  0  0  0  0
  139.5740   74.1960  222.9980 H   0  0  0  0  0  0  0  0  0  0  0  0
  140.3928   74.6856  220.1757 H   0  0  0  0  0  0  0  0  0  0  0  0
  138.6351   74.8625  220.4330 H   0  0  0  0  0  0  0  0  0  0  0  0
  139.3676   79.2009  220.7526 H   0  0  0  0  0  0  0  0  0  0  0  0
  140.2714   78.8798  222.2121 H   0  0  0  0  0  0  0  0  0  0  0  0
  141.4244   80.3652  220.3164 H   0  0  0  0  0  0  0  0  0  0  0  0
  142.4341   79.1327  221.0147 H   0  0  0  0  0  0  0  0  0  0  0  0
  140.7881   79.0537  218.4032 H   0  0  0  0  0  0  0  0  0  0  0  0
  142.4483   78.5073  218.6201 H   0  0  0  0  0  0  0  0  0  0  0  0
  140.2000   76.7878  218.7121 H   0  0  0  0  0  0  0  0  0  0  0  0
  140.8208   74.8915  218.0203 H   0  0  0  0  0  0  0  0  0  0  0  0
  142.5586   73.1497  217.9009 H   0  0  0  0  0  0  0  0  0  0  0  0
  145.0427   75.3794  220.5650 H   0  0  0  0  0  0  0  0  0  0  0  0
  143.3211   77.1472  220.7130 H   0  0  0  0  0  0  0  0  0  0  0  0
  139.0848   69.9628  221.7485 H   0  0  0  0  0  0  0  0  0  0  0  0
  139.1390   68.3447  223.6713 H   0  0  0  0  0  0  0  0  0  0  0  0
  139.7294   68.0100  226.0345 H   0  0  0  0  0  0  0  0  0  0  0  0
  141.4211   71.1970  228.3811 H   0  0  0  0  0  0  0  0  0  0  0  0
  141.3026   72.7026  226.3663 H   0  0  0  0  0  0  0  0  0  0  0  0
  1  2  2  0
  2  3  1  0
  3  4  1  0
  4  5  1  0
  5  6  2  0
  5  7  1  0
  7  8  1  0
  8  9  1  0
  9 10  1  0
 10 11  1  0
 11 12  1  0
 12 13  2  0
 13 14  1  0
 14 15  2  0
 15 16  1  0
 16 17  1  0
 17 18  1  0
 17 19  1  0
 17 20  1  0
 15 21  1  0
 21 22  2  0
  2 23  1  0
 23 24  2  0
 24 25  1  0
 25 26  2  0
 26 27  1  0
 27 28  2  0
 28 29  1  0
 28 30  1  0
 30 31  2  0
 31 32  1  0
 32 33  2  0
 11  7  1  0
 22 12  1  0
 33 23  1  0
 32 26  1  0
  3 34  1  0
  4 35  1  0
  4 36  1  0
  8 37  1  0
  8 38  1  0
  9 39  1  0
  9 40  1  0
 10 41  1  0
 10 42  1  0
 11 43  1  6
 13 44  1  0
 14 45  1  0
 21 46  1  0
 22 47  1  0
 24 48  1  0
 25 49  1  0
 27 50  1  0
 30 51  1  0
 31 52  1  0
M  END
>  <smiles>  (51) 
O=C(NCC(=O)N1CCCC1c1ccc(OC(F)(F)F)cc1)c1ccc2cc(Cl)ccc2n1

>  <score_type>  (51) 
oracle

>  <origin>  (51) 
autodockgpu

>  <m_score__min__energy>  (51) 
-7.96

>  <m_primary>  (51) 
energy

>  <rmsd>  (51) 
2.3911040208394634

>  <m_score__min__rmsd>  (51) 
2.3911040208394634

>  <meeko>  (51) 
{"free_energy": -7.51, "intermolecular_energy": -9.59, "internal_energy": -2.36, "cluster_size": 14, "cluster_id": 3, "rank_in_cluster": 11}

>  <energy>  (51) 
-7.96

>  <cluster_rmsd>  (51) 
0.0

>  <cluster>  (51) 
1

$$$$

     RDKit          3D

 52 55  0  0  0  0  0  0  0  0999 V2000
  141.4020   79.3150  217.7170 O   0  0  0  0  0  0  0  0  0  0  0  0
  142.0310   78.7500  218.6680 C   0  0  0  0  0  0  0  0  0  0  0  0
  142.1970   79.3760  219.9340 N   0  0  0  0  0  0  0  0  0  0  0  0
  141.6660   80.6930  220.2280 C   0  0  0  0  0  0  0  0  0  0  0  0
  141.6190   80.8500  221.7140 C   0  0  0  0  0  0  0  0  0  0  0  0
  142.7130   80.7800  222.3320 O   0  0  0  0  0  0  0  0  0  0  0  0
  140.3690   81.0690  222.3770 N   0  0  0  0  0  0  0  0  0  0  0  0
  139.4800   82.1890  222.1310 C   0  0  0  0  0  0  0  0  0  0  0  0
  138.1300   81.5910  222.3940 C   0  0  0  0  0  0  0  0  0  0  0  0
  138.4220   80.7210  223.6200 C   0  0  0  0  0  0  0  0  0  0  0  0
  139.8290   80.1910  223.3870 C   0  0  1  0  0  0  0  0  0  0  0  0
  139.8510   78.7700  223.0400 C   0  0  0  0  0  0  0  0  0  0  0  0
  141.0530   78.0970  223.0100 C   0  0  0  0  0  0  0  0  0  0  0  0
  141.0620   76.7580  222.6810 C   0  0  0  0  0  0  0  0  0  0  0  0
  139.9080   76.0520  222.3770 C   0  0  0  0  0  0  0  0  0  0  0  0
  139.9600   74.7190  222.0550 O   0  0  0  0  0  0  0  0  0  0  0  0
  140.5270   74.2440  220.8440 C   0  0  0  0  0  0  0  0  0  0  0  0
  141.7280   73.6190  221.1370 F   0  0  0  0  0  0  0  0  0  0  0  0
  139.6730   73.3240  220.2810 F   0  0  0  0  0  0  0  0  0  0  0  0
  140.7660   75.3270  220.0160 F   0  0  0  0  0  0  0  0  0  0  0  0
  138.7200   76.7600  222.4170 C   0  0  0  0  0  0  0  0  0  0  0  0
  138.6690   78.1030  222.7420 C   0  0  0  0  0  0  0  0  0  0  0  0
  142.6130   77.4040  218.4750 C   0  0  0  0  0  0  0  0  0  0  0  0
  142.6110   76.8280  217.2190 C   0  0  0  0  0  0  0  0  0  0  0  0
  143.1470   75.5630  216.9900 C   0  0  0  0  0  0  0  0  0  0  0  0
  143.6820   74.9240  218.1010 C   0  0  0  0  0  0  0  0  0  0  0  0
  144.2430   73.6640  217.9960 C   0  0  0  0  0  0  0  0  0  0  0  0
  144.7760   73.0250  219.0970 C   0  0  0  0  0  0  0  0  0  0  0  0
  145.4920   71.4190  218.9660 Cl  0  0  0  0  0  0  0  0  0  0  0  0
  144.7710   73.6140  220.3460 C   0  0  0  0  0  0  0  0  0  0  0  0
  144.2090   74.8850  220.4710 C   0  0  0  0  0  0  0  0  0  0  0  0
  143.6840   75.5010  219.3540 C   0  0  0  0  0  0  0  0  0  0  0  0
  143.1530   76.7260  219.5260 N   0  0  0  0  0  0  0  0  0  0  0  0
  142.7340   78.8420  220.6810 H   0  0  0  0  0  0  0  0  0  0  0  0
  142.3175   81.4643  219.7914 H   0  0  0  0  0  0  0  0  0  0  0  0
  140.6589   80.8038  219.7996 H   0  0  0  0  0  0  0  0  0  0  0  0
  139.6879   83.0211  222.8198 H   0  0  0  0  0  0  0  0  0  0  0  0
  139.5821   82.6187  221.1236 H   0  0  0  0  0  0  0  0  0  0  0  0
  137.3828   82.3663  222.6189 H   0  0  0  0  0  0  0  0  0  0  0  0
  137.7068   81.0404  221.5409 H   0  0  0  0  0  0  0  0  0  0  0  0
  138.3805   81.3211  224.5410 H   0  0  0  0  0  0  0  0  0  0  0  0
  137.6863   79.9125  223.7430 H   0  0  0  0  0  0  0  0  0  0  0  0
  140.4494   80.2079  224.2952 H   0  0  0  0  0  0  0  0  0  0  0  0
  141.9916   78.6203  223.2451 H   0  0  0  0  0  0  0  0  0  0  0  0
  142.0254   76.2275  222.6588 H   0  0  0  0  0  0  0  0  0  0  0  0
  137.7821   76.2355  222.1818 H   0  0  0  0  0  0  0  0  0  0  0  0
  137.7068   78.6356  222.7643 H   0  0  0  0  0  0  0  0  0  0  0  0
  142.1739   77.3840  216.3765 H   0  0  0  0  0  0  0  0  0  0  0  0
  143.1466   75.0994  215.9924 H   0  0  0  0  0  0  0  0  0  0  0  0
  144.2647   73.1623  217.0173 H   0  0  0  0  0  0  0  0  0  0  0  0
  145.1979   73.0960  221.2175 H   0  0  0  0  0  0  0  0  0  0  0  0
  144.1849   75.3895  221.4482 H   0  0  0  0  0  0  0  0  0  0  0  0
  1  2  2  0
  2  3  1  0
  3  4  1  0
  4  5  1  0
  5  6  2  0
  5  7  1  0
  7  8  1  0
  8  9  1  0
  9 10  1  0
 10 11  1  0
 11 12  1  0
 12 13  2  0
 13 14  1  0
 14 15  2  0
 15 16  1  0
 16 17  1  0
 17 18  1  0
 17 19  1  0
 17 20  1  0
 15 21  1  0
 21 22  2  0
  2 23  1  0
 23 24  2  0
 24 25  1  0
 25 26  2  0
 26 27  1  0
 27 28  2  0
 28 29  1  0
 28 30  1  0
 30 31  2  0
 31 32  1  0
 32 33  2  0
 11  7  1  0
 22 12  1  0
 33 23  1  0
 32 26  1  0
  3 34  1  0
  4 35  1  0
  4 36  1  0
  8 37  1  0
  8 38  1  0
  9 39  1  0
  9 40  1  0
 10 41  1  0
 10 42  1  0
 11 43  1  1
 13 44  1  0
 14 45  1  0
 21 46  1  0
 22 47  1  0
 24 48  1  0
 25 49  1  0
 27 50  1  0
 30 51  1  0
 31 52  1  0
M  END
>  <smiles>  (52) 
O=C(NCC(=O)N1CCCC1c1ccc(OC(F)(F)F)cc1)c1ccc2cc(Cl)ccc2n1

>  <score_type>  (52) 
oracle

>  <origin>  (52) 
autodockgpu

>  <m_score__min__energy>  (52) 
-7.96

>  <m_primary>  (52) 
energy

>  <rmsd>  (52) 
8.589457062214459

>  <m_score__min__rmsd>  (52) 
8.589457062214459

>  <meeko>  (52) 
{"free_energy": -6.77, "intermolecular_energy": -8.86, "internal_energy": -2.96, "cluster_size": 8, "cluster_id": 7, "rank_in_cluster": 1}

>  <energy>  (52) 
-7.87

>  <cluster_rmsd>  (52) 
1.48

>  <cluster>  (52) 
1

$$$$

     RDKit          3D

 52 55  0  0  0  0  0  0  0  0999 V2000
  141.0690   78.9430  217.9630 O   0  0  0  0  0  0  0  0  0  0  0  0
  141.8170   78.4460  218.8640 C   0  0  0  0  0  0  0  0  0  0  0  0
  142.1580   79.1700  220.0390 N   0  0  0  0  0  0  0  0  0  0  0  0
  141.6810   80.5150  220.2930 C   0  0  0  0  0  0  0  0  0  0  0  0
  141.6520   80.7230  221.7730 C   0  0  0  0  0  0  0  0  0  0  0  0
  142.7550   80.7010  222.3770 O   0  0  0  0  0  0  0  0  0  0  0  0
  140.4060   80.9360  222.4460 N   0  0  0  0  0  0  0  0  0  0  0  0
  139.5250   82.0690  222.2330 C   0  0  0  0  0  0  0  0  0  0  0  0
  138.1720   81.4760  222.4860 C   0  0  0  0  0  0  0  0  0  0  0  0
  138.4610   80.5720  223.6890 C   0  0  0  0  0  0  0  0  0  0  0  0
  139.8620   80.0360  223.4360 C   0  0  1  0  0  0  0  0  0  0  0  0
  139.8710   78.6240  223.0530 C   0  0  0  0  0  0  0  0  0  0  0  0
  138.6780   77.9810  222.8060 C   0  0  0  0  0  0  0  0  0  0  0  0
  138.6980   76.6500  222.4470 C   0  0  0  0  0  0  0  0  0  0  0  0
  139.8720   75.9250  222.3200 C   0  0  0  0  0  0  0  0  0  0  0  0
  139.8490   74.6010  221.9600 O   0  0  0  0  0  0  0  0  0  0  0  0
  140.5910   74.0900  220.8630 C   0  0  0  0  0  0  0  0  0  0  0  0
  141.9030   73.9070  221.2700 F   0  0  0  0  0  0  0  0  0  0  0  0
  140.0670   72.8740  220.4950 F   0  0  0  0  0  0  0  0  0  0  0  0
  140.5560   75.0200  219.8380 F   0  0  0  0  0  0  0  0  0  0  0  0
  141.0510   76.6030  222.5760 C   0  0  0  0  0  0  0  0  0  0  0  0
  141.0730   77.9370  222.9400 C   0  0  0  0  0  0  0  0  0  0  0  0
  142.3590   77.0790  218.7050 C   0  0  0  0  0  0  0  0  0  0  0  0
  141.9900   76.3150  217.6150 C   0  0  0  0  0  0  0  0  0  0  0  0
  142.4740   75.0230  217.4250 C   0  0  0  0  0  0  0  0  0  0  0  0
  143.3470   74.5570  218.3980 C   0  0  0  0  0  0  0  0  0  0  0  0
  143.8930   73.2880  218.3160 C   0  0  0  0  0  0  0  0  0  0  0  0
  144.7620   72.8200  219.2810 C   0  0  0  0  0  0  0  0  0  0  0  0
  145.4590   71.2040  219.1790 Cl  0  0  0  0  0  0  0  0  0  0  0  0
  145.1220   73.5960  220.3660 C   0  0  0  0  0  0  0  0  0  0  0  0
  144.5810   74.8780  220.4650 C   0  0  0  0  0  0  0  0  0  0  0  0
  143.7160   75.3210  219.4860 C   0  0  0  0  0  0  0  0  0  0  0  0
  143.2200   76.5640  219.6270 N   0  0  0  0  0  0  0  0  0  0  0  0
  142.7880   78.6880  220.7490 H   0  0  0  0  0  0  0  0  0  0  0  0
  142.3583   81.2456  219.8266 H   0  0  0  0  0  0  0  0  0  0  0  0
  140.6754   80.6504  219.8683 H   0  0  0  0  0  0  0  0  0  0  0  0
  139.7425   82.8812  222.9422 H   0  0  0  0  0  0  0  0  0  0  0  0
  139.6265   82.5237  221.2365 H   0  0  0  0  0  0  0  0  0  0  0  0
  137.4322   82.2516  222.7335 H   0  0  0  0  0  0  0  0  0  0  0  0
  137.7413   80.9507  221.6208 H   0  0  0  0  0  0  0  0  0  0  0  0
  138.4287   81.1487  224.6251 H   0  0  0  0  0  0  0  0  0  0  0  0
  137.7185   79.7673  223.7950 H   0  0  0  0  0  0  0  0  0  0  0  0
  140.4861   80.0240  224.3417 H   0  0  0  0  0  0  0  0  0  0  0  0
  137.7239   78.5213  222.8939 H   0  0  0  0  0  0  0  0  0  0  0  0
  137.7417   76.1422  222.2532 H   0  0  0  0  0  0  0  0  0  0  0  0
  142.0044   76.0616  222.4868 H   0  0  0  0  0  0  0  0  0  0  0  0
  142.0279   78.4463  223.1371 H   0  0  0  0  0  0  0  0  0  0  0  0
  141.2942   76.7391  216.8761 H   0  0  0  0  0  0  0  0  0  0  0  0
  142.1828   74.4108  216.5587 H   0  0  0  0  0  0  0  0  0  0  0  0
  143.6298   72.6406  217.4665 H   0  0  0  0  0  0  0  0  0  0  0  0
  145.8153   73.2139  221.1298 H   0  0  0  0  0  0  0  0  0  0  0  0
  144.8410   75.5279  221.3136 H   0  0  0  0  0  0  0  0  0  0  0  0
  1  2  2  0
  2  3  1  0
  3  4  1  0
  4  5  1  0
  5  6  2  0
  5  7  1  0
  7  8  1  0
  8  9  1  0
  9 10  1  0
 10 11  1  0
 11 12  1  0
 12 13  2  0
 13 14  1  0
 14 15  2  0
 15 16  1  0
 16 17  1  0
 17 18  1  0
 17 19  1  0
 17 20  1  0
 15 21  1  0
 21 22  2  0
  2 23  1  0
 23 24  2  0
 24 25  1  0
 25 26  2  0
 26 27  1  0
 27 28  2  0
 28 29  1  0
 28 30  1  0
 30 31  2  0
 31 32  1  0
 32 33  2  0
 11  7  1  0
 22 12  1  0
 33 23  1  0
 32 26  1  0
  3 34  1  0
  4 35  1  0
  4 36  1  0
  8 37  1  0
  8 38  1  0
  9 39  1  0
  9 40  1  0
 10 41  1  0
 10 42  1  0
 11 43  1  1
 13 44  1  0
 14 45  1  0
 21 46  1  0
 22 47  1  0
 24 48  1  0
 25 49  1  0
 27 50  1  0
 30 51  1  0
 31 52  1  0
M  END
>  <smiles>  (53) 
O=C(NCC(=O)N1CCCC1c1ccc(OC(F)(F)F)cc1)c1ccc2cc(Cl)ccc2n1

>  <score_type>  (53) 
oracle

>  <origin>  (53) 
autodockgpu

>  <m_score__min__energy>  (53) 
-7.96

>  <m_primary>  (53) 
energy

>  <rmsd>  (53) 
8.319103458964786

>  <m_score__min__rmsd>  (53) 
8.319103458964786

>  <meeko>  (53) 
{"free_energy": -6.6, "intermolecular_energy": -8.69, "internal_energy": -3.1, "cluster_size": 8, "cluster_id": 7, "rank_in_cluster": 3}

>  <energy>  (53) 
-7.82

>  <cluster_rmsd>  (53) 
0.86

>  <cluster>  (53) 
1

$$$$

     RDKit          3D

 52 55  0  0  0  0  0  0  0  0999 V2000
  140.7920   78.4940  218.3650 O   0  0  0  0  0  0  0  0  0  0  0  0
  141.6900   78.0600  219.1550 C   0  0  0  0  0  0  0  0  0  0  0  0
  142.1930   78.8500  220.2250 N   0  0  0  0  0  0  0  0  0  0  0  0
  141.7210   80.1950  220.4900 C   0  0  0  0  0  0  0  0  0  0  0  0
  141.6870   80.3880  221.9720 C   0  0  0  0  0  0  0  0  0  0  0  0
  142.7940   80.4780  222.5640 O   0  0  0  0  0  0  0  0  0  0  0  0
  140.4330   80.4640  222.6610 N   0  0  0  0  0  0  0  0  0  0  0  0
  139.5570   81.6200  222.6730 C   0  0  0  0  0  0  0  0  0  0  0  0
  138.2000   80.9930  222.7840 C   0  0  0  0  0  0  0  0  0  0  0  0
  138.4740   79.8620  223.7810 C   0  0  0  0  0  0  0  0  0  0  0  0
  139.8770   79.3840  223.4400 C   0  0  1  0  0  0  0  0  0  0  0  0
  139.8880   78.0790  222.7770 C   0  0  0  0  0  0  0  0  0  0  0  0
  141.0640   77.3640  222.7070 C   0  0  0  0  0  0  0  0  0  0  0  0
  141.0630   76.1360  222.0800 C   0  0  0  0  0  0  0  0  0  0  0  0
  139.9250   75.5850  221.5120 C   0  0  0  0  0  0  0  0  0  0  0  0
  139.9670   74.3590  220.8960 O   0  0  0  0  0  0  0  0  0  0  0  0
  140.6290   73.2380  221.4610 C   0  0  0  0  0  0  0  0  0  0  0  0
  140.3790   72.1330  220.6630 F   0  0  0  0  0  0  0  0  0  0  0  0
  141.9840   73.4790  221.4750 F   0  0  0  0  0  0  0  0  0  0  0  0
  140.1140   73.0140  222.7250 F   0  0  0  0  0  0  0  0  0  0  0  0
  138.7640   76.3310  221.6000 C   0  0  0  0  0  0  0  0  0  0  0  0
  138.7230   77.5660  222.2210 C   0  0  0  0  0  0  0  0  0  0  0  0
  142.2420   76.7000  218.9730 C   0  0  0  0  0  0  0  0  0  0  0  0
  141.7310   75.8760  217.9890 C   0  0  0  0  0  0  0  0  0  0  0  0
  142.2190   74.5870  217.7820 C   0  0  0  0  0  0  0  0  0  0  0  0
  143.2460   74.1890  218.6270 C   0  0  0  0  0  0  0  0  0  0  0  0
  143.8100   72.9310  218.5160 C   0  0  0  0  0  0  0  0  0  0  0  0
  144.8320   72.5300  219.3530 C   0  0  0  0  0  0  0  0  0  0  0  0
  145.5540   70.9270  219.2140 Cl  0  0  0  0  0  0  0  0  0  0  0  0
  145.3330   73.3650  220.3330 C   0  0  0  0  0  0  0  0  0  0  0  0
  144.7760   74.6380  220.4590 C   0  0  0  0  0  0  0  0  0  0  0  0
  143.7560   75.0130  219.6090 C   0  0  0  0  0  0  0  0  0  0  0  0
  143.2510   76.2500  219.7710 N   0  0  0  0  0  0  0  0  0  0  0  0
  142.9430   78.4200  220.8440 H   0  0  0  0  0  0  0  0  0  0  0  0
  142.4035   80.9270  220.0336 H   0  0  0  0  0  0  0  0  0  0  0  0
  140.7179   80.3396  220.0623 H   0  0  0  0  0  0  0  0  0  0  0  0
  139.7671   82.2698  223.5353 H   0  0  0  0  0  0  0  0  0  0  0  0
  139.6715   82.2679  221.7915 H   0  0  0  0  0  0  0  0  0  0  0  0
  137.4582   81.7045  223.1757 H   0  0  0  0  0  0  0  0  0  0  0  0
  137.7787   80.6567  221.8251 H   0  0  0  0  0  0  0  0  0  0  0  0
  138.4314   80.2362  224.8145 H   0  0  0  0  0  0  0  0  0  0  0  0
  137.7295   79.0551  223.7126 H   0  0  0  0  0  0  0  0  0  0  0  0
  140.4910   79.1856  224.3309 H   0  0  0  0  0  0  0  0  0  0  0  0
  141.9893   77.7668  223.1446 H   0  0  0  0  0  0  0  0  0  0  0  0
  142.0047   75.5699  222.0284 H   0  0  0  0  0  0  0  0  0  0  0  0
  137.8399   75.9276  221.1603 H   0  0  0  0  0  0  0  0  0  0  0  0
  137.7822   78.1335  222.2738 H   0  0  0  0  0  0  0  0  0  0  0  0
  140.9159   76.2477  217.3507 H   0  0  0  0  0  0  0  0  0  0  0  0
  141.8162   73.9274  216.9993 H   0  0  0  0  0  0  0  0  0  0  0  0
  143.4377   72.2378  217.7473 H   0  0  0  0  0  0  0  0  0  0  0  0
  146.1475   73.0357  220.9949 H   0  0  0  0  0  0  0  0  0  0  0  0
  145.1455   75.3340  221.2265 H   0  0  0  0  0  0  0  0  0  0  0  0
  1  2  2  0
  2  3  1  0
  3  4  1  0
  4  5  1  0
  5  6  2  0
  5  7  1  0
  7  8  1  0
  8  9  1  0
  9 10  1  0
 10 11  1  0
 11 12  1  0
 12 13  2  0
 13 14  1  0
 14 15  2  0
 15 16  1  0
 16 17  1  0
 17 18  1  0
 17 19  1  0
 17 20  1  0
 15 21  1  0
 21 22  2  0
  2 23  1  0
 23 24  2  0
 24 25  1  0
 25 26  2  0
 26 27  1  0
 27 28  2  0
 28 29  1  0
 28 30  1  0
 30 31  2  0
 31 32  1  0
 32 33  2  0
 11  7  1  0
 22 12  1  0
 33 23  1  0
 32 26  1  0
  3 34  1  0
  4 35  1  0
  4 36  1  0
  8 37  1  0
  8 38  1  0
  9 39  1  0
  9 40  1  0
 10 41  1  0
 10 42  1  0
 11 43  1  1
 13 44  1  0
 14 45  1  0
 21 46  1  0
 22 47  1  0
 24 48  1  0
 25 49  1  0
 27 50  1  0
 30 51  1  0
 31 52  1  0
M  END
>  <smiles>  (54) 
O=C(NCC(=O)N1CCCC1c1ccc(OC(F)(F)F)cc1)c1ccc2cc(Cl)ccc2n1

>  <score_type>  (54) 
oracle

>  <origin>  (54) 
autodockgpu

>  <m_score__min__energy>  (54) 
-7.96

>  <m_primary>  (54) 
energy

>  <rmsd>  (54) 
8.027903513928372

>  <m_score__min__rmsd>  (54) 
8.027903513928372

>  <meeko>  (54) 
{"free_energy": -6.07, "intermolecular_energy": -8.16, "internal_energy": -3.4, "cluster_size": 8, "cluster_id": 7, "rank_in_cluster": 8}

>  <energy>  (54) 
-7.81

>  <cluster_rmsd>  (54) 
0.74

>  <cluster>  (54) 
1

$$$$

     RDKit          3D

 52 55  0  0  0  0  0  0  0  0999 V2000
  138.8380   71.9190  220.7510 O   0  0  0  0  0  0  0  0  0  0  0  0
  139.1520   72.3820  221.8940 C   0  0  0  0  0  0  0  0  0  0  0  0
  139.2760   73.7790  222.1300 N   0  0  0  0  0  0  0  0  0  0  0  0
  139.0570   74.7670  221.0920 C   0  0  0  0  0  0  0  0  0  0  0  0
  139.6990   76.0440  221.5270 C   0  0  0  0  0  0  0  0  0  0  0  0
  139.6420   76.3260  222.7520 O   0  0  0  0  0  0  0  0  0  0  0  0
  140.3430   76.8910  220.5680 N   0  0  0  0  0  0  0  0  0  0  0  0
  140.4010   78.3390  220.6410 C   0  0  0  0  0  0  0  0  0  0  0  0
  141.7150   78.6410  219.9840 C   0  0  0  0  0  0  0  0  0  0  0  0
  141.7070   77.6390  218.8260 C   0  0  0  0  0  0  0  0  0  0  0  0
  141.0240   76.4040  219.3930 C   0  0  1  0  0  0  0  0  0  0  0  0
  141.9540   75.3000  219.6360 C   0  0  0  0  0  0  0  0  0  0  0  0
  143.2170   75.5700  220.1180 C   0  0  0  0  0  0  0  0  0  0  0  0
  144.0840   74.5230  220.3420 C   0  0  0  0  0  0  0  0  0  0  0  0
  143.7420   73.2010  220.1040 C   0  0  0  0  0  0  0  0  0  0  0  0
  144.6360   72.1870  220.3410 O   0  0  0  0  0  0  0  0  0  0  0  0
  146.0170   72.2930  220.0340 C   0  0  0  0  0  0  0  0  0  0  0  0
  146.6840   72.7460  221.1620 F   0  0  0  0  0  0  0  0  0  0  0  0
  146.5000   71.0490  219.7020 F   0  0  0  0  0  0  0  0  0  0  0  0
  146.1700   73.2150  219.0130 F   0  0  0  0  0  0  0  0  0  0  0  0
  142.4680   72.9670  219.6210 C   0  0  0  0  0  0  0  0  0  0  0  0
  141.5670   73.9900  219.3820 C   0  0  0  0  0  0  0  0  0  0  0  0
  139.3980   71.4600  223.0250 C   0  0  0  0  0  0  0  0  0  0  0  0
  139.0220   70.1340  222.9250 C   0  0  0  0  0  0  0  0  0  0  0  0
  139.2330   69.2300  223.9640 C   0  0  0  0  0  0  0  0  0  0  0  0
  139.8430   69.7480  225.0990 C   0  0  0  0  0  0  0  0  0  0  0  0
  140.1040   68.9460  226.1950 C   0  0  0  0  0  0  0  0  0  0  0  0
  140.7110   69.4550  227.3250 C   0  0  0  0  0  0  0  0  0  0  0  0
  141.0460   68.4340  228.7240 Cl  0  0  0  0  0  0  0  0  0  0  0  0
  141.0810   70.7830  227.4100 C   0  0  0  0  0  0  0  0  0  0  0  0
  140.8260   71.6070  226.3140 C   0  0  0  0  0  0  0  0  0  0  0  0
  140.2190   71.0720  225.1970 C   0  0  0  0  0  0  0  0  0  0  0  0
  139.9930   71.9080  224.1660 N   0  0  0  0  0  0  0  0  0  0  0  0
  139.5410   74.0910  223.1110 H   0  0  0  0  0  0  0  0  0  0  0  0
  139.5086   74.4244  220.1493 H   0  0  0  0  0  0  0  0  0  0  0  0
  137.9796   74.9173  220.9288 H   0  0  0  0  0  0  0  0  0  0  0  0
  139.5662   78.7991  220.0919 H   0  0  0  0  0  0  0  0  0  0  0  0
  140.3208   78.7314  221.6655 H   0  0  0  0  0  0  0  0  0  0  0  0
  141.7542   79.6780  219.6192 H   0  0  0  0  0  0  0  0  0  0  0  0
  142.5844   78.5515  220.6519 H   0  0  0  0  0  0  0  0  0  0  0  0
  141.1412   78.0378  217.9711 H   0  0  0  0  0  0  0  0  0  0  0  0
  142.7194   77.4225  218.4543 H   0  0  0  0  0  0  0  0  0  0  0  0
  140.3142   75.9457  218.6887 H   0  0  0  0  0  0  0  0  0  0  0  0
  143.5278   76.6055  220.3206 H   0  0  0  0  0  0  0  0  0  0  0  0
  145.0904   74.7456  220.7260 H   0  0  0  0  0  0  0  0  0  0  0  0
  142.1593   71.9306  219.4194 H   0  0  0  0  0  0  0  0  0  0  0  0
  140.5604   73.7694  218.9971 H   0  0  0  0  0  0  0  0  0  0  0  0
  138.5428   69.7824  221.9994 H   0  0  0  0  0  0  0  0  0  0  0  0
  138.9355   68.1736  223.8900 H   0  0  0  0  0  0  0  0  0  0  0  0
  139.8226   67.8830  226.1655 H   0  0  0  0  0  0  0  0  0  0  0  0
  141.5629   71.1793  228.3160 H   0  0  0  0  0  0  0  0  0  0  0  0
  141.1056   72.6706  226.3401 H   0  0  0  0  0  0  0  0  0  0  0  0
  1  2  2  0
  2  3  1  0
  3  4  1  0
  4  5  1  0
  5  6  2  0
  5  7  1  0
  7  8  1  0
  8  9  1  0
  9 10  1  0
 10 11  1  0
 11 12  1  0
 12 13  2  0
 13 14  1  0
 14 15  2  0
 15 16  1  0
 16 17  1  0
 17 18  1  0
 17 19  1  0
 17 20  1  0
 15 21  1  0
 21 22  2  0
  2 23  1  0
 23 24  2  0
 24 25  1  0
 25 26  2  0
 26 27  1  0
 27 28  2  0
 28 29  1  0
 28 30  1  0
 30 31  2  0
 31 32  1  0
 32 33  2  0
 11  7  1  0
 22 12  1  0
 33 23  1  0
 32 26  1  0
  3 34  1  0
  4 35  1  0
  4 36  1  0
  8 37  1  0
  8 38  1  0
  9 39  1  0
  9 40  1  0
 10 41  1  0
 10 42  1  0
 11 43  1  6
 13 44  1  0
 14 45  1  0
 21 46  1  0
 22 47  1  0
 24 48  1  0
 25 49  1  0
 27 50  1  0
 30 51  1  0
 31 52  1  0
M  END
>  <smiles>  (55) 
O=C(NCC(=O)N1CCCC1c1ccc(OC(F)(F)F)cc1)c1ccc2cc(Cl)ccc2n1

>  <score_type>  (55) 
oracle

>  <origin>  (55) 
autodockgpu

>  <m_score__min__energy>  (55) 
-7.96

>  <m_primary>  (55) 
energy

>  <rmsd>  (55) 
2.076924790718862

>  <m_score__min__rmsd>  (55) 
2.076924790718862

>  <meeko>  (55) 
{"free_energy": -7.24, "intermolecular_energy": -9.33, "internal_energy": -2.44, "cluster_size": 14, "cluster_id": 3, "rank_in_cluster": 12}

>  <energy>  (55) 
-7.8

>  <cluster_rmsd>  (55) 
1.48

>  <cluster>  (55) 
1

$$$$

     RDKit          3D

 52 55  0  0  0  0  0  0  0  0999 V2000
  139.0710   71.6830  220.7420 O   0  0  0  0  0  0  0  0  0  0  0  0
  139.2990   72.1450  221.9050 C   0  0  0  0  0  0  0  0  0  0  0  0
  139.3720   73.5430  222.1560 N   0  0  0  0  0  0  0  0  0  0  0  0
  139.1950   74.5330  221.1110 C   0  0  0  0  0  0  0  0  0  0  0  0
  140.1760   75.6360  221.3490 C   0  0  0  0  0  0  0  0  0  0  0  0
  140.3130   76.0350  222.5340 O   0  0  0  0  0  0  0  0  0  0  0  0
  140.9130   76.1940  220.2550 N   0  0  0  0  0  0  0  0  0  0  0  0
  141.2990   77.5870  220.1350 C   0  0  0  0  0  0  0  0  0  0  0  0
  142.5880   77.4980  219.3750 C   0  0  0  0  0  0  0  0  0  0  0  0
  142.2620   76.3990  218.3600 C   0  0  0  0  0  0  0  0  0  0  0  0
  141.3690   75.4300  219.1180 C   0  0  1  0  0  0  0  0  0  0  0  0
  142.0450   74.1760  219.4530 C   0  0  0  0  0  0  0  0  0  0  0  0
  143.2040   74.2080  220.1990 C   0  0  0  0  0  0  0  0  0  0  0  0
  143.8320   73.0210  220.5070 C   0  0  0  0  0  0  0  0  0  0  0  0
  143.3480   71.7870  220.1010 C   0  0  0  0  0  0  0  0  0  0  0  0
  144.0040   70.6280  220.4300 O   0  0  0  0  0  0  0  0  0  0  0  0
  143.8950   69.4390  219.6630 C   0  0  0  0  0  0  0  0  0  0  0  0
  144.1820   69.7430  218.3410 F   0  0  0  0  0  0  0  0  0  0  0  0
  144.8170   68.5250  220.1190 F   0  0  0  0  0  0  0  0  0  0  0  0
  142.5940   68.9760  219.7530 F   0  0  0  0  0  0  0  0  0  0  0  0
  142.1830   71.7930  219.3540 C   0  0  0  0  0  0  0  0  0  0  0  0
  141.5230   72.9630  219.0230 C   0  0  0  0  0  0  0  0  0  0  0  0
  139.4950   71.2220  223.0440 C   0  0  0  0  0  0  0  0  0  0  0  0
  139.0800   69.9080  222.9430 C   0  0  0  0  0  0  0  0  0  0  0  0
  139.2430   69.0030  223.9900 C   0  0  0  0  0  0  0  0  0  0  0  0
  139.8480   69.5070  225.1340 C   0  0  0  0  0  0  0  0  0  0  0  0
  140.0630   68.7030  226.2380 C   0  0  0  0  0  0  0  0  0  0  0  0
  140.6640   69.1990  227.3770 C   0  0  0  0  0  0  0  0  0  0  0  0
  140.9410   68.1750  228.7870 Cl  0  0  0  0  0  0  0  0  0  0  0  0
  141.0740   70.5150  227.4630 C   0  0  0  0  0  0  0  0  0  0  0  0
  140.8650   71.3410  226.3590 C   0  0  0  0  0  0  0  0  0  0  0  0
  140.2630   70.8190  225.2330 C   0  0  0  0  0  0  0  0  0  0  0  0
  140.0820   71.6570  224.1940 N   0  0  0  0  0  0  0  0  0  0  0  0
  139.5650   73.8550  223.1540 H   0  0  0  0  0  0  0  0  0  0  0  0
  139.3792   74.0752  220.1279 H   0  0  0  0  0  0  0  0  0  0  0  0
  138.1675   74.9254  221.1262 H   0  0  0  0  0  0  0  0  0  0  0  0
  140.5461   78.1621  219.5761 H   0  0  0  0  0  0  0  0  0  0  0  0
  141.3931   78.1025  221.1022 H   0  0  0  0  0  0  0  0  0  0  0  0
  142.8279   78.4486  218.8762 H   0  0  0  0  0  0  0  0  0  0  0  0
  143.4669   77.2864  220.0016 H   0  0  0  0  0  0  0  0  0  0  0  0
  141.7321   76.8172  217.4915 H   0  0  0  0  0  0  0  0  0  0  0  0
  143.1668   75.9123  217.9669 H   0  0  0  0  0  0  0  0  0  0  0  0
  140.5195   75.0713  218.5183 H   0  0  0  0  0  0  0  0  0  0  0  0
  143.6207   75.1662  220.5429 H   0  0  0  0  0  0  0  0  0  0  0  0
  144.7574   73.0539  221.1007 H   0  0  0  0  0  0  0  0  0  0  0  0
  141.7672   70.8339  219.0115 H   0  0  0  0  0  0  0  0  0  0  0  0
  140.5983   72.9329  218.4279 H   0  0  0  0  0  0  0  0  0  0  0  0
  138.6077   69.5667  222.0100 H   0  0  0  0  0  0  0  0  0  0  0  0
  138.9135   67.9562  223.9152 H   0  0  0  0  0  0  0  0  0  0  0  0
  139.7494   67.6491  226.2080 H   0  0  0  0  0  0  0  0  0  0  0  0
  141.5516   70.9005  228.3759 H   0  0  0  0  0  0  0  0  0  0  0  0
  141.1763   72.3957  226.3858 H   0  0  0  0  0  0  0  0  0  0  0  0
  1  2  2  0
  2  3  1  0
  3  4  1  0
  4  5  1  0
  5  6  2  0
  5  7  1  0
  7  8  1  0
  8  9  1  0
  9 10  1  0
 10 11  1  0
 11 12  1  0
 12 13  2  0
 13 14  1  0
 14 15  2  0
 15 16  1  0
 16 17  1  0
 17 18  1  0
 17 19  1  0
 17 20  1  0
 15 21  1  0
 21 22  2  0
  2 23  1  0
 23 24  2  0
 24 25  1  0
 25 26  2  0
 26 27  1  0
 27 28  2  0
 28 29  1  0
 28 30  1  0
 30 31  2  0
 31 32  1  0
 32 33  2  0
 11  7  1  0
 22 12  1  0
 33 23  1  0
 32 26  1  0
  3 34  1  0
  4 35  1  0
  4 36  1  0
  8 37  1  0
  8 38  1  0
  9 39  1  0
  9 40  1  0
 10 41  1  0
 10 42  1  0
 11 43  1  6
 13 44  1  0
 14 45  1  0
 21 46  1  0
 22 47  1  0
 24 48  1  0
 25 49  1  0
 27 50  1  0
 30 51  1  0
 31 52  1  0
M  END
>  <smiles>  (56) 
O=C(NCC(=O)N1CCCC1c1ccc(OC(F)(F)F)cc1)c1ccc2cc(Cl)ccc2n1

>  <score_type>  (56) 
oracle

>  <origin>  (56) 
autodockgpu

>  <m_score__min__energy>  (56) 
-7.96

>  <m_primary>  (56) 
energy

>  <rmsd>  (56) 
1.9848684888790695

>  <m_score__min__rmsd>  (56) 
1.9848684888790695

>  <meeko>  (56) 
{"free_energy": -6.83, "intermolecular_energy": -8.92, "internal_energy": -2.61, "cluster_size": 14, "cluster_id": 3, "rank_in_cluster": 13}

>  <energy>  (56) 
-7.77

>  <cluster_rmsd>  (56) 
0.71

>  <cluster>  (56) 
1

$$$$

     RDKit          3D

 52 55  0  0  0  0  0  0  0  0999 V2000
  139.3370   71.9550  220.6280 O   0  0  0  0  0  0  0  0  0  0  0  0
  139.4370   72.4090  221.8130 C   0  0  0  0  0  0  0  0  0  0  0  0
  139.4120   73.8050  222.0860 N   0  0  0  0  0  0  0  0  0  0  0  0
  139.2730   74.8010  221.0420 C   0  0  0  0  0  0  0  0  0  0  0  0
  139.9840   76.0390  221.4880 C   0  0  0  0  0  0  0  0  0  0  0  0
  140.0550   76.2440  222.7270 O   0  0  0  0  0  0  0  0  0  0  0  0
  140.5480   76.9330  220.5220 N   0  0  0  0  0  0  0  0  0  0  0  0
  140.5010   78.3810  220.6000 C   0  0  0  0  0  0  0  0  0  0  0  0
  141.7780   78.7800  219.9230 C   0  0  0  0  0  0  0  0  0  0  0  0
  141.8250   77.7840  218.7610 C   0  0  0  0  0  0  0  0  0  0  0  0
  141.2440   76.5000  219.3340 C   0  0  1  0  0  0  0  0  0  0  0  0
  142.2560   75.4670  219.5570 C   0  0  0  0  0  0  0  0  0  0  0  0
  141.9210   74.1410  219.3840 C   0  0  0  0  0  0  0  0  0  0  0  0
  142.8820   73.1770  219.5980 C   0  0  0  0  0  0  0  0  0  0  0  0
  144.1790   73.4810  219.9810 C   0  0  0  0  0  0  0  0  0  0  0  0
  145.1070   72.4900  220.1830 O   0  0  0  0  0  0  0  0  0  0  0  0
  145.1820   71.3310  219.3680 C   0  0  0  0  0  0  0  0  0  0  0  0
  146.4260   70.7480  219.5490 F   0  0  0  0  0  0  0  0  0  0  0  0
  144.2110   70.4410  219.7640 F   0  0  0  0  0  0  0  0  0  0  0  0
  145.0470   71.7150  218.0450 F   0  0  0  0  0  0  0  0  0  0  0  0
  144.4790   74.8220  220.1450 C   0  0  0  0  0  0  0  0  0  0  0  0
  143.5430   75.8200  219.9410 C   0  0  0  0  0  0  0  0  0  0  0  0
  139.5830   71.4780  222.9530 C   0  0  0  0  0  0  0  0  0  0  0  0
  139.1270   70.1790  222.8420 C   0  0  0  0  0  0  0  0  0  0  0  0
  139.2430   69.2680  223.8900 C   0  0  0  0  0  0  0  0  0  0  0  0
  139.8440   69.7500  225.0440 C   0  0  0  0  0  0  0  0  0  0  0  0
  140.0140   68.9370  226.1500 C   0  0  0  0  0  0  0  0  0  0  0  0
  140.6110   69.4110  227.3010 C   0  0  0  0  0  0  0  0  0  0  0  0
  140.8300   68.3770  228.7130 Cl  0  0  0  0  0  0  0  0  0  0  0  0
  141.0630   70.7130  227.3970 C   0  0  0  0  0  0  0  0  0  0  0  0
  140.9000   71.5480  226.2910 C   0  0  0  0  0  0  0  0  0  0  0  0
  140.3000   71.0480  225.1530 C   0  0  0  0  0  0  0  0  0  0  0  0
  140.1650   71.8920  224.1140 N   0  0  0  0  0  0  0  0  0  0  0  0
  139.5000   74.1100  223.1010 H   0  0  0  0  0  0  0  0  0  0  0  0
  139.7208   74.4288  220.1088 H   0  0  0  0  0  0  0  0  0  0  0  0
  138.2101   75.0158  220.8573 H   0  0  0  0  0  0  0  0  0  0  0  0
  139.6258   78.7803  220.0665 H   0  0  0  0  0  0  0  0  0  0  0  0
  140.4093   78.7637  221.6272 H   0  0  0  0  0  0  0  0  0  0  0  0
  141.7351   79.8182  219.5621 H   0  0  0  0  0  0  0  0  0  0  0  0
  142.6623   78.7520  220.5766 H   0  0  0  0  0  0  0  0  0  0  0  0
  141.2174   78.1426  217.9170 H   0  0  0  0  0  0  0  0  0  0  0  0
  142.8443   77.6440  218.3719 H   0  0  0  0  0  0  0  0  0  0  0  0
  140.5584   75.9922  218.6397 H   0  0  0  0  0  0  0  0  0  0  0  0
  140.9027   73.8570  219.0799 H   0  0  0  0  0  0  0  0  0  0  0  0
  142.6081   72.1208  219.4589 H   0  0  0  0  0  0  0  0  0  0  0  0
  145.4979   75.1044  220.4484 H   0  0  0  0  0  0  0  0  0  0  0  0
  143.8140   76.8769  220.0808 H   0  0  0  0  0  0  0  0  0  0  0  0
  138.6595   69.8547  221.9006 H   0  0  0  0  0  0  0  0  0  0  0  0
  138.8811   68.2325  223.8077 H   0  0  0  0  0  0  0  0  0  0  0  0
  139.6672   67.8938  226.1118 H   0  0  0  0  0  0  0  0  0  0  0  0
  141.5377   71.0808  228.3187 H   0  0  0  0  0  0  0  0  0  0  0  0
  141.2454   72.5918  226.3256 H   0  0  0  0  0  0  0  0  0  0  0  0
  1  2  2  0
  2  3  1  0
  3  4  1  0
  4  5  1  0
  5  6  2  0
  5  7  1  0
  7  8  1  0
  8  9  1  0
  9 10  1  0
 10 11  1  0
 11 12  1  0
 12 13  2  0
 13 14  1  0
 14 15  2  0
 15 16  1  0
 16 17  1  0
 17 18  1  0
 17 19  1  0
 17 20  1  0
 15 21  1  0
 21 22  2  0
  2 23  1  0
 23 24  2  0
 24 25  1  0
 25 26  2  0
 26 27  1  0
 27 28  2  0
 28 29  1  0
 28 30  1  0
 30 31  2  0
 31 32  1  0
 32 33  2  0
 11  7  1  0
 22 12  1  0
 33 23  1  0
 32 26  1  0
  3 34  1  0
  4 35  1  0
  4 36  1  0
  8 37  1  0
  8 38  1  0
  9 39  1  0
  9 40  1  0
 10 41  1  0
 10 42  1  0
 11 43  1  6
 13 44  1  0
 14 45  1  0
 21 46  1  0
 22 47  1  0
 24 48  1  0
 25 49  1  0
 27 50  1  0
 30 51  1  0
 31 52  1  0
M  END
>  <smiles>  (57) 
O=C(NCC(=O)N1CCCC1c1ccc(OC(F)(F)F)cc1)c1ccc2cc(Cl)ccc2n1

>  <score_type>  (57) 
oracle

>  <origin>  (57) 
autodockgpu

>  <m_score__min__energy>  (57) 
-7.96

>  <m_primary>  (57) 
energy

>  <rmsd>  (57) 
2.1137689427510056

>  <m_score__min__rmsd>  (57) 
2.1137689427510056

>  <meeko>  (57) 
{"free_energy": -7.51, "intermolecular_energy": -9.6, "internal_energy": -2.44, "cluster_size": 14, "cluster_id": 3, "rank_in_cluster": 10}

>  <energy>  (57) 
-7.76

>  <cluster_rmsd>  (57) 
0.72

>  <cluster>  (57) 
1

$$$$

     RDKit          3D

 52 55  0  0  0  0  0  0  0  0999 V2000
  133.3340   69.8930  226.5320 O   0  0  0  0  0  0  0  0  0  0  0  0
  133.7600   71.0170  226.1140 C   0  0  0  0  0  0  0  0  0  0  0  0
  134.8230   71.1140  225.1750 N   0  0  0  0  0  0  0  0  0  0  0  0
  135.4930   69.9490  224.6320 C   0  0  0  0  0  0  0  0  0  0  0  0
  136.4280   70.4110  223.5610 C   0  0  0  0  0  0  0  0  0  0  0  0
  136.4780   71.6490  223.3380 O   0  0  0  0  0  0  0  0  0  0  0  0
  137.2190   69.4630  222.8350 N   0  0  0  0  0  0  0  0  0  0  0  0
  137.3030   69.3810  221.3890 C   0  0  0  0  0  0  0  0  0  0  0  0
  138.7010   68.8840  221.1770 C   0  0  0  0  0  0  0  0  0  0  0  0
  138.8270   67.8540  222.3040 C   0  0  0  0  0  0  0  0  0  0  0  0
  138.0420   68.4550  223.4600 C   0  0  1  0  0  0  0  0  0  0  0  0
  138.9010   68.9470  224.5370 C   0  0  0  0  0  0  0  0  0  0  0  0
  139.5560   70.1500  224.3880 C   0  0  0  0  0  0  0  0  0  0  0  0
  140.3640   70.6030  225.4090 C   0  0  0  0  0  0  0  0  0  0  0  0
  140.5470   69.8980  226.5890 C   0  0  0  0  0  0  0  0  0  0  0  0
  141.3600   70.3850  227.5820 O   0  0  0  0  0  0  0  0  0  0  0  0
  141.1770   71.6650  228.1660 C   0  0  0  0  0  0  0  0  0  0  0  0
  141.3250   72.6230  227.1760 F   0  0  0  0  0  0  0  0  0  0  0  0
  139.9030   71.7470  228.6770 F   0  0  0  0  0  0  0  0  0  0  0  0
  142.1530   71.8510  229.1300 F   0  0  0  0  0  0  0  0  0  0  0  0
  139.8750   68.6950  226.7040 C   0  0  0  0  0  0  0  0  0  0  0  0
  139.0560   68.2060  225.7020 C   0  0  0  0  0  0  0  0  0  0  0  0
  133.1460   72.2700  226.6040 C   0  0  0  0  0  0  0  0  0  0  0  0
  131.9400   72.2270  227.2780 C   0  0  0  0  0  0  0  0  0  0  0  0
  131.3250   73.3820  227.7570 C   0  0  0  0  0  0  0  0  0  0  0  0
  132.0000   74.5700  227.5140 C   0  0  0  0  0  0  0  0  0  0  0  0
  131.4860   75.7810  227.9420 C   0  0  0  0  0  0  0  0  0  0  0  0
  132.1540   76.9650  227.7030 C   0  0  0  0  0  0  0  0  0  0  0  0
  131.5010   78.5100  228.2490 Cl  0  0  0  0  0  0  0  0  0  0  0  0
  133.3580   76.9920  227.0280 C   0  0  0  0  0  0  0  0  0  0  0  0
  133.8920   75.7800  226.5890 C   0  0  0  0  0  0  0  0  0  0  0  0
  133.2040   74.6110  226.8410 C   0  0  0  0  0  0  0  0  0  0  0  0
  133.7600   73.4690  226.3960 N   0  0  0  0  0  0  0  0  0  0  0  0
  135.1240   72.0880  224.8710 H   0  0  0  0  0  0  0  0  0  0  0  0
  136.0580   69.4393  225.4263 H   0  0  0  0  0  0  0  0  0  0  0  0
  134.7574   69.2432  224.2187 H   0  0  0  0  0  0  0  0  0  0  0  0
  136.5634   68.6731  220.9867 H   0  0  0  0  0  0  0  0  0  0  0  0
  137.0929   70.3339  220.8812 H   0  0  0  0  0  0  0  0  0  0  0  0
  138.8164   68.4155  220.1885 H   0  0  0  0  0  0  0  0  0  0  0  0
  139.4678   69.6724  221.1992 H   0  0  0  0  0  0  0  0  0  0  0  0
  138.3937   66.8899  221.9996 H   0  0  0  0  0  0  0  0  0  0  0  0
  139.8750   67.6523  222.5706 H   0  0  0  0  0  0  0  0  0  0  0  0
  137.4244   67.7143  223.9890 H   0  0  0  0  0  0  0  0  0  0  0  0
  139.4359   70.7404  223.4677 H   0  0  0  0  0  0  0  0  0  0  0  0
  140.8851   71.5634  225.2824 H   0  0  0  0  0  0  0  0  0  0  0  0
  139.9959   68.1058  227.6250 H   0  0  0  0  0  0  0  0  0  0  0  0
  138.5353   67.2450  225.8258 H   0  0  0  0  0  0  0  0  0  0  0  0
  131.4524   71.2545  227.4407 H   0  0  0  0  0  0  0  0  0  0  0  0
  130.3653   73.3539  228.2938 H   0  0  0  0  0  0  0  0  0  0  0  0
  130.5280   75.8007  228.4823 H   0  0  0  0  0  0  0  0  0  0  0  0
  133.8812   77.9415  226.8417 H   0  0  0  0  0  0  0  0  0  0  0  0
  134.8498   75.7568  226.0486 H   0  0  0  0  0  0  0  0  0  0  0  0
  1  2  2  0
  2  3  1  0
  3  4  1  0
  4  5  1  0
  5  6  2  0
  5  7  1  0
  7  8  1  0
  8  9  1  0
  9 10  1  0
 10 11  1  0
 11 12  1  0
 12 13  2  0
 13 14  1  0
 14 15  2  0
 15 16  1  0
 16 17  1  0
 17 18  1  0
 17 19  1  0
 17 20  1  0
 15 21  1  0
 21 22  2  0
  2 23  1  0
 23 24  2  0
 24 25  1  0
 25 26  2  0
 26 27  1  0
 27 28  2  0
 28 29  1  0
 28 30  1  0
 30 31  2  0
 31 32  1  0
 32 33  2  0
 11  7  1  0
 22 12  1  0
 33 23  1  0
 32 26  1  0
  3 34  1  0
  4 35  1  0
  4 36  1  0
  8 37  1  0
  8 38  1  0
  9 39  1  0
  9 40  1  0
 10 41  1  0
 10 42  1  0
 11 43  1  1
 13 44  1  0
 14 45  1  0
 21 46  1  0
 22 47  1  0
 24 48  1  0
 25 49  1  0
 27 50  1  0
 30 51  1  0
 31 52  1  0
M  END
>  <smiles>  (58) 
O=C(NCC(=O)N1CCCC1c1ccc(OC(F)(F)F)cc1)c1ccc2cc(Cl)ccc2n1

>  <score_type>  (58) 
oracle

>  <origin>  (58) 
autodockgpu

>  <m_score__min__energy>  (58) 
-7.96

>  <m_primary>  (58) 
energy

>  <rmsd>  (58) 
8.577524458138905

>  <m_score__min__rmsd>  (58) 
8.577524458138905

>  <meeko>  (58) 
{"free_energy": -7.89, "intermolecular_energy": -9.98, "internal_energy": -2.29, "cluster_size": 5, "cluster_id": 2, "rank_in_cluster": 2}

>  <energy>  (58) 
-7.69

>  <cluster_rmsd>  (58) 
0.88

>  <cluster>  (58) 
1

$$$$

     RDKit          3D

 52 55  0  0  0  0  0  0  0  0999 V2000
  140.0610   72.0530  220.5610 O   0  0  0  0  0  0  0  0  0  0  0  0
  139.9090   72.4970  221.7440 C   0  0  0  0  0  0  0  0  0  0  0  0
  139.7080   73.8790  222.0070 N   0  0  0  0  0  0  0  0  0  0  0  0
  139.6620   74.8750  220.9540 C   0  0  0  0  0  0  0  0  0  0  0  0
  140.3230   76.1150  221.4620 C   0  0  0  0  0  0  0  0  0  0  0  0
  140.5130   76.1970  222.7030 O   0  0  0  0  0  0  0  0  0  0  0  0
  140.7110   77.1500  220.5510 N   0  0  0  0  0  0  0  0  0  0  0  0
  140.6320   78.5730  220.8230 C   0  0  0  0  0  0  0  0  0  0  0  0
  141.7820   79.1160  220.0290 C   0  0  0  0  0  0  0  0  0  0  0  0
  141.6870   78.2760  218.7520 C   0  0  0  0  0  0  0  0  0  0  0  0
  141.2360   76.9040  219.2290 C   0  0  1  0  0  0  0  0  0  0  0  0
  142.3010   75.9020  219.1690 C   0  0  0  0  0  0  0  0  0  0  0  0
  143.3300   75.9490  220.0850 C   0  0  0  0  0  0  0  0  0  0  0  0
  144.3280   75.0010  220.0180 C   0  0  0  0  0  0  0  0  0  0  0  0
  144.3440   73.9940  219.0650 C   0  0  0  0  0  0  0  0  0  0  0  0
  145.3560   73.0680  219.0330 O   0  0  0  0  0  0  0  0  0  0  0  0
  145.6820   72.2480  220.1440 C   0  0  0  0  0  0  0  0  0  0  0  0
  144.5040   71.8420  220.7500 F   0  0  0  0  0  0  0  0  0  0  0  0
  146.3580   71.1360  219.6970 F   0  0  0  0  0  0  0  0  0  0  0  0
  146.4220   72.9970  221.0420 F   0  0  0  0  0  0  0  0  0  0  0  0
  143.2960   73.9780  218.1620 C   0  0  0  0  0  0  0  0  0  0  0  0
  142.2750   74.9110  218.1950 C   0  0  0  0  0  0  0  0  0  0  0  0
  139.9390   71.5660  222.8930 C   0  0  0  0  0  0  0  0  0  0  0  0
  139.4390   70.2860  222.7540 C   0  0  0  0  0  0  0  0  0  0  0  0
  139.4450   69.3750  223.8090 C   0  0  0  0  0  0  0  0  0  0  0  0
  139.9860   69.8380  225.0010 C   0  0  0  0  0  0  0  0  0  0  0  0
  140.0470   69.0240  226.1180 C   0  0  0  0  0  0  0  0  0  0  0  0
  140.5830   69.4790  227.3060 C   0  0  0  0  0  0  0  0  0  0  0  0
  140.6630   68.4440  228.7310 Cl  0  0  0  0  0  0  0  0  0  0  0  0
  141.0800   70.7620  227.4290 C   0  0  0  0  0  0  0  0  0  0  0  0
  141.0270   71.5970  226.3130 C   0  0  0  0  0  0  0  0  0  0  0  0
  140.4860   71.1170  225.1390 C   0  0  0  0  0  0  0  0  0  0  0  0
  140.4570   71.9610  224.0900 N   0  0  0  0  0  0  0  0  0  0  0  0
  139.5880   74.1760  223.0210 H   0  0  0  0  0  0  0  0  0  0  0  0
  140.1955   74.5045  220.0662 H   0  0  0  0  0  0  0  0  0  0  0  0
  138.6197   75.0855  220.6725 H   0  0  0  0  0  0  0  0  0  0  0  0
  139.6758   78.9921  220.4764 H   0  0  0  0  0  0  0  0  0  0  0  0
  140.6815   78.8195  221.8939 H   0  0  0  0  0  0  0  0  0  0  0  0
  141.6545   80.1877  219.8166 H   0  0  0  0  0  0  0  0  0  0  0  0
  142.7537   79.0506  220.5404 H   0  0  0  0  0  0  0  0  0  0  0  0
  140.9511   78.7071  218.0573 H   0  0  0  0  0  0  0  0  0  0  0  0
  142.6416   78.2355  218.2069 H   0  0  0  0  0  0  0  0  0  0  0  0
  140.4708   76.4547  218.5789 H   0  0  0  0  0  0  0  0  0  0  0  0
  143.3542   76.7314  220.8578 H   0  0  0  0  0  0  0  0  0  0  0  0
  145.1465   75.0451  220.7516 H   0  0  0  0  0  0  0  0  0  0  0  0
  143.2737   73.1950  217.3897 H   0  0  0  0  0  0  0  0  0  0  0  0
  141.4558   74.8691  217.4621 H   0  0  0  0  0  0  0  0  0  0  0  0
  139.0243   69.9768  221.7832 H   0  0  0  0  0  0  0  0  0  0  0  0
  139.0468   68.3550  223.7040 H   0  0  0  0  0  0  0  0  0  0  0  0
  139.6614   67.9955  226.0584 H   0  0  0  0  0  0  0  0  0  0  0  0
  141.5054   71.1151  228.3800 H   0  0  0  0  0  0  0  0  0  0  0  0
  141.4121   72.6259  226.3687 H   0  0  0  0  0  0  0  0  0  0  0  0
  1  2  2  0
  2  3  1  0
  3  4  1  0
  4  5  1  0
  5  6  2  0
  5  7  1  0
  7  8  1  0
  8  9  1  0
  9 10  1  0
 10 11  1  0
 11 12  1  0
 12 13  2  0
 13 14  1  0
 14 15  2  0
 15 16  1  0
 16 17  1  0
 17 18  1  0
 17 19  1  0
 17 20  1  0
 15 21  1  0
 21 22  2  0
  2 23  1  0
 23 24  2  0
 24 25  1  0
 25 26  2  0
 26 27  1  0
 27 28  2  0
 28 29  1  0
 28 30  1  0
 30 31  2  0
 31 32  1  0
 32 33  2  0
 11  7  1  0
 22 12  1  0
 33 23  1  0
 32 26  1  0
  3 34  1  0
  4 35  1  0
  4 36  1  0
  8 37  1  0
  8 38  1  0
  9 39  1  0
  9 40  1  0
 10 41  1  0
 10 42  1  0
 11 43  1  6
 13 44  1  0
 14 45  1  0
 21 46  1  0
 22 47  1  0
 24 48  1  0
 25 49  1  0
 27 50  1  0
 30 51  1  0
 31 52  1  0
M  END
>  <smiles>  (59) 
O=C(NCC(=O)N1CCCC1c1ccc(OC(F)(F)F)cc1)c1ccc2cc(Cl)ccc2n1

>  <score_type>  (59) 
oracle

>  <origin>  (59) 
autodockgpu

>  <m_score__min__energy>  (59) 
-7.96

>  <m_primary>  (59) 
energy

>  <rmsd>  (59) 
2.2996908311084763

>  <m_score__min__rmsd>  (59) 
2.2996908311084763

>  <meeko>  (59) 
{"free_energy": -7.7, "intermolecular_energy": -9.79, "internal_energy": -2.34, "cluster_size": 14, "cluster_id": 3, "rank_in_cluster": 2}

>  <energy>  (59) 
-7.29

>  <cluster_rmsd>  (59) 
0.78

>  <cluster>  (59) 
1

$$$$

     RDKit          3D

 52 55  0  0  0  0  0  0  0  0999 V2000
  140.5520   72.2080  220.5940 O   0  0  0  0  0  0  0  0  0  0  0  0
  140.1050   72.5910  221.7220 C   0  0  0  0  0  0  0  0  0  0  0  0
  139.6210   73.9130  221.9270 N   0  0  0  0  0  0  0  0  0  0  0  0
  139.6040   74.9090  220.8740 C   0  0  0  0  0  0  0  0  0  0  0  0
  139.9420   76.2310  221.4850 C   0  0  0  0  0  0  0  0  0  0  0  0
  139.8370   76.3290  222.7340 O   0  0  0  0  0  0  0  0  0  0  0  0
  140.3630   77.3210  220.6560 N   0  0  0  0  0  0  0  0  0  0  0  0
  140.2750   78.7240  221.0160 C   0  0  0  0  0  0  0  0  0  0  0  0
  141.4530   79.3130  220.3010 C   0  0  0  0  0  0  0  0  0  0  0  0
  141.4040   78.5570  218.9690 C   0  0  0  0  0  0  0  0  0  0  0  0
  140.9360   77.1580  219.3410 C   0  0  1  0  0  0  0  0  0  0  0  0
  142.0010   76.1600  219.2550 C   0  0  0  0  0  0  0  0  0  0  0  0
  143.1030   76.2710  220.0760 C   0  0  0  0  0  0  0  0  0  0  0  0
  144.1010   75.3250  219.9860 C   0  0  0  0  0  0  0  0  0  0  0  0
  144.0470   74.2580  219.1020 C   0  0  0  0  0  0  0  0  0  0  0  0
  145.0630   73.3370  219.0440 O   0  0  0  0  0  0  0  0  0  0  0  0
  145.4700   72.5710  220.1670 C   0  0  0  0  0  0  0  0  0  0  0  0
  144.3410   72.2050  220.8810 F   0  0  0  0  0  0  0  0  0  0  0  0
  146.1070   71.4340  219.7270 F   0  0  0  0  0  0  0  0  0  0  0  0
  146.2790   73.3600  220.9660 F   0  0  0  0  0  0  0  0  0  0  0  0
  142.9270   74.1780  218.2940 C   0  0  0  0  0  0  0  0  0  0  0  0
  141.9040   75.1080  218.3530 C   0  0  0  0  0  0  0  0  0  0  0  0
  140.0770   71.6530  222.8650 C   0  0  0  0  0  0  0  0  0  0  0  0
  139.5520   70.3860  222.7020 C   0  0  0  0  0  0  0  0  0  0  0  0
  139.5040   69.4700  223.7510 C   0  0  0  0  0  0  0  0  0  0  0  0
  140.0180   69.9130  224.9620 C   0  0  0  0  0  0  0  0  0  0  0  0
  140.0250   69.0910  226.0740 C   0  0  0  0  0  0  0  0  0  0  0  0
  140.5350   69.5260  227.2810 C   0  0  0  0  0  0  0  0  0  0  0  0
  140.5460   68.4800  228.7010 Cl  0  0  0  0  0  0  0  0  0  0  0  0
  141.0580   70.7960  227.4290 C   0  0  0  0  0  0  0  0  0  0  0  0
  141.0590   71.6380  226.3170 C   0  0  0  0  0  0  0  0  0  0  0  0
  140.5440   71.1780  225.1230 C   0  0  0  0  0  0  0  0  0  0  0  0
  140.5670   72.0290  224.0800 N   0  0  0  0  0  0  0  0  0  0  0  0
  139.2620   74.1600  222.8970 H   0  0  0  0  0  0  0  0  0  0  0  0
  140.3471   74.6521  220.1048 H   0  0  0  0  0  0  0  0  0  0  0  0
  138.6119   74.9486  220.4006 H   0  0  0  0  0  0  0  0  0  0  0  0
  139.3323   79.1673  220.6626 H   0  0  0  0  0  0  0  0  0  0  0  0
  140.2856   78.9012  222.1016 H   0  0  0  0  0  0  0  0  0  0  0  0
  141.3342   80.3966  220.1537 H   0  0  0  0  0  0  0  0  0  0  0  0
  142.4054   79.2115  220.8420 H   0  0  0  0  0  0  0  0  0  0  0  0
  140.6935   79.0335  218.2776 H   0  0  0  0  0  0  0  0  0  0  0  0
  142.3773   78.5496  218.4566 H   0  0  0  0  0  0  0  0  0  0  0  0
  140.1949   76.7523  218.6366 H   0  0  0  0  0  0  0  0  0  0  0  0
  143.1844   77.1021  220.7920 H   0  0  0  0  0  0  0  0  0  0  0  0
  144.9778   75.4203  220.6434 H   0  0  0  0  0  0  0  0  0  0  0  0
  142.8468   73.3457  217.5793 H   0  0  0  0  0  0  0  0  0  0  0  0
  141.0271   75.0156  217.6954 H   0  0  0  0  0  0  0  0  0  0  0  0
  139.1609   70.0918  221.7168 H   0  0  0  0  0  0  0  0  0  0  0  0
  139.0855   68.4603  223.6274 H   0  0  0  0  0  0  0  0  0  0  0  0
  139.6170   68.0725  225.9955 H   0  0  0  0  0  0  0  0  0  0  0  0
  141.4617   71.1332  228.3951 H   0  0  0  0  0  0  0  0  0  0  0  0
  141.4659   72.6573  226.3914 H   0  0  0  0  0  0  0  0  0  0  0  0
  1  2  2  0
  2  3  1  0
  3  4  1  0
  4  5  1  0
  5  6  2  0
  5  7  1  0
  7  8  1  0
  8  9  1  0
  9 10  1  0
 10 11  1  0
 11 12  1  0
 12 13  2  0
 13 14  1  0
 14 15  2  0
 15 16  1  0
 16 17  1  0
 17 18  1  0
 17 19  1  0
 17 20  1  0
 15 21  1  0
 21 22  2  0
  2 23  1  0
 23 24  2  0
 24 25  1  0
 25 26  2  0
 26 27  1  0
 27 28  2  0
 28 29  1  0
 28 30  1  0
 30 31  2  0
 31 32  1  0
 32 33  2  0
 11  7  1  0
 22 12  1  0
 33 23  1  0
 32 26  1  0
  3 34  1  0
  4 35  1  0
  4 36  1  0
  8 37  1  0
  8 38  1  0
  9 39  1  0
  9 40  1  0
 10 41  1  0
 10 42  1  0
 11 43  1  6
 13 44  1  0
 14 45  1  0
 21 46  1  0
 22 47  1  0
 24 48  1  0
 25 49  1  0
 27 50  1  0
 30 51  1  0
 31 52  1  0
M  END
>  <smiles>  (60) 
O=C(NCC(=O)N1CCCC1c1ccc(OC(F)(F)F)cc1)c1ccc2cc(Cl)ccc2n1

>  <score_type>  (60) 
oracle

>  <origin>  (60) 
autodockgpu

>  <m_score__min__energy>  (60) 
-7.96

>  <m_primary>  (60) 
energy

>  <rmsd>  (60) 
2.389936717529086

>  <m_score__min__rmsd>  (60) 
2.389936717529086

>  <meeko>  (60) 
{"free_energy": -7.61, "intermolecular_energy": -9.7, "internal_energy": -2.32, "cluster_size": 14, "cluster_id": 3, "rank_in_cluster": 7}

>  <energy>  (60) 
-7.9

>  <cluster_rmsd>  (60) 
0.0

>  <cluster>  (60) 
2

$$$$

     RDKit          3D

 52 55  0  0  0  0  0  0  0  0999 V2000
  138.8500   71.6140  220.8500 O   0  0  0  0  0  0  0  0  0  0  0  0
  139.1870   72.0770  221.9860 C   0  0  0  0  0  0  0  0  0  0  0  0
  139.3470   73.4720  222.2100 N   0  0  0  0  0  0  0  0  0  0  0  0
  139.1400   74.4580  221.1680 C   0  0  0  0  0  0  0  0  0  0  0  0
  140.0910   75.5860  221.4040 C   0  0  0  0  0  0  0  0  0  0  0  0
  140.0440   76.1500  222.5280 O   0  0  0  0  0  0  0  0  0  0  0  0
  141.0040   75.9870  220.3750 N   0  0  0  0  0  0  0  0  0  0  0  0
  141.8160   77.1890  220.4030 C   0  0  0  0  0  0  0  0  0  0  0  0
  143.0360   76.7700  219.6400 C   0  0  0  0  0  0  0  0  0  0  0  0
  142.4130   75.9390  218.5130 C   0  0  0  0  0  0  0  0  0  0  0  0
  141.2330   75.2350  219.1650 C   0  0  1  0  0  0  0  0  0  0  0  0
  141.4640   73.8040  219.3660 C   0  0  0  0  0  0  0  0  0  0  0  0
  140.8500   72.8940  218.5340 C   0  0  0  0  0  0  0  0  0  0  0  0
  141.0740   71.5480  218.7330 C   0  0  0  0  0  0  0  0  0  0  0  0
  141.8970   71.0660  219.7390 C   0  0  0  0  0  0  0  0  0  0  0  0
  142.0950   69.7180  219.9040 O   0  0  0  0  0  0  0  0  0  0  0  0
  141.0930   68.7540  219.6190 C   0  0  0  0  0  0  0  0  0  0  0  0
  140.9130   68.7000  218.2460 F   0  0  0  0  0  0  0  0  0  0  0  0
  141.5160   67.5230  220.0610 F   0  0  0  0  0  0  0  0  0  0  0  0
  139.9120   69.1590  220.2180 F   0  0  0  0  0  0  0  0  0  0  0  0
  142.4970   72.0080  220.5550 C   0  0  0  0  0  0  0  0  0  0  0  0
  142.2970   73.3670  220.3890 C   0  0  0  0  0  0  0  0  0  0  0  0
  139.4250   71.1570  223.1200 C   0  0  0  0  0  0  0  0  0  0  0  0
  139.0450   69.8320  223.0210 C   0  0  0  0  0  0  0  0  0  0  0  0
  139.2480   68.9300  224.0630 C   0  0  0  0  0  0  0  0  0  0  0  0
  139.8540   69.4480  225.2000 C   0  0  0  0  0  0  0  0  0  0  0  0
  140.1070   68.6480  226.2990 C   0  0  0  0  0  0  0  0  0  0  0  0
  140.7090   69.1580  227.4320 C   0  0  0  0  0  0  0  0  0  0  0  0
  141.0330   68.1390  228.8350 Cl  0  0  0  0  0  0  0  0  0  0  0  0
  141.0830   70.4850  227.5150 C   0  0  0  0  0  0  0  0  0  0  0  0
  140.8360   71.3070  226.4160 C   0  0  0  0  0  0  0  0  0  0  0  0
  140.2330   70.7710  225.2970 C   0  0  0  0  0  0  0  0  0  0  0  0
  140.0150   71.6050  224.2630 N   0  0  0  0  0  0  0  0  0  0  0  0
  139.6300   73.7840  223.1870 H   0  0  0  0  0  0  0  0  0  0  0  0
  139.3330   74.0068  220.1835 H   0  0  0  0  0  0  0  0  0  0  0  0
  138.1024   74.8226  221.1877 H   0  0  0  0  0  0  0  0  0  0  0  0
  141.3043   78.0268  219.9067 H   0  0  0  0  0  0  0  0  0  0  0  0
  142.0347   77.5485  221.4193 H   0  0  0  0  0  0  0  0  0  0  0  0
  143.5824   77.6391  219.2450 H   0  0  0  0  0  0  0  0  0  0  0  0
  143.7801   76.2277  220.2418 H   0  0  0  0  0  0  0  0  0  0  0  0
  142.0731   76.5889  217.6932 H   0  0  0  0  0  0  0  0  0  0  0  0
  143.1294   75.2312  218.0707 H   0  0  0  0  0  0  0  0  0  0  0  0
  140.3345   75.2278  218.5305 H   0  0  0  0  0  0  0  0  0  0  0  0
  140.1906   73.2360  217.7227 H   0  0  0  0  0  0  0  0  0  0  0  0
  140.5791   70.8269  218.0658 H   0  0  0  0  0  0  0  0  0  0  0  0
  143.1570   71.6643  221.3651 H   0  0  0  0  0  0  0  0  0  0  0  0
  142.7894   74.0899  221.0560 H   0  0  0  0  0  0  0  0  0  0  0  0
  138.5691   69.4799  222.0939 H   0  0  0  0  0  0  0  0  0  0  0  0
  138.9473   67.8744  223.9898 H   0  0  0  0  0  0  0  0  0  0  0  0
  139.8234   67.5856  226.2701 H   0  0  0  0  0  0  0  0  0  0  0  0
  141.5620   70.8821  228.4221 H   0  0  0  0  0  0  0  0  0  0  0  0
  141.1185   72.3698  226.4410 H   0  0  0  0  0  0  0  0  0  0  0  0
  1  2  2  0
  2  3  1  0
  3  4  1  0
  4  5  1  0
  5  6  2  0
  5  7  1  0
  7  8  1  0
  8  9  1  0
  9 10  1  0
 10 11  1  0
 11 12  1  0
 12 13  2  0
 13 14  1  0
 14 15  2  0
 15 16  1  0
 16 17  1  0
 17 18  1  0
 17 19  1  0
 17 20  1  0
 15 21  1  0
 21 22  2  0
  2 23  1  0
 23 24  2  0
 24 25  1  0
 25 26  2  0
 26 27  1  0
 27 28  2  0
 28 29  1  0
 28 30  1  0
 30 31  2  0
 31 32  1  0
 32 33  2  0
 11  7  1  0
 22 12  1  0
 33 23  1  0
 32 26  1  0
  3 34  1  0
  4 35  1  0
  4 36  1  0
  8 37  1  0
  8 38  1  0
  9 39  1  0
  9 40  1  0
 10 41  1  0
 10 42  1  0
 11 43  1  6
 13 44  1  0
 14 45  1  0
 21 46  1  0
 22 47  1  0
 24 48  1  0
 25 49  1  0
 27 50  1  0
 30 51  1  0
 31 52  1  0
M  END
>  <smiles>  (61) 
O=C(NCC(=O)N1CCCC1c1ccc(OC(F)(F)F)cc1)c1ccc2cc(Cl)ccc2n1

>  <score_type>  (61) 
oracle

>  <origin>  (61) 
autodockgpu

>  <m_score__min__energy>  (61) 
-7.96

>  <m_primary>  (61) 
energy

>  <rmsd>  (61) 
2.0961373116961934

>  <m_score__min__rmsd>  (61) 
2.0961373116961934

>  <meeko>  (61) 
{"free_energy": -6.24, "intermolecular_energy": -8.33, "internal_energy": -2.82, "cluster_size": 1, "cluster_id": 9, "rank_in_cluster": 1}

>  <energy>  (61) 
-7.89

>  <cluster_rmsd>  (61) 
0.14

>  <cluster>  (61) 
2

$$$$

     RDKit          3D

 52 55  0  0  0  0  0  0  0  0999 V2000
  139.8560   74.1110  222.0540 O   0  0  0  0  0  0  0  0  0  0  0  0
  140.4140   72.9720  221.9590 C   0  0  0  0  0  0  0  0  0  0  0  0
  141.1890   72.6090  220.8240 N   0  0  0  0  0  0  0  0  0  0  0  0
  141.3970   73.5040  219.7030 C   0  0  0  0  0  0  0  0  0  0  0  0
  142.5930   74.3490  220.0020 C   0  0  0  0  0  0  0  0  0  0  0  0
  143.4440   73.8760  220.8000 O   0  0  0  0  0  0  0  0  0  0  0  0
  142.7360   75.6380  219.3940 N   0  0  0  0  0  0  0  0  0  0  0  0
  143.2200   75.8750  218.0470 C   0  0  0  0  0  0  0  0  0  0  0  0
  142.4750   77.1140  217.6520 C   0  0  0  0  0  0  0  0  0  0  0  0
  142.5260   77.9220  218.9520 C   0  0  0  0  0  0  0  0  0  0  0  0
  142.4120   76.8800  220.0540 C   0  0  1  0  0  0  0  0  0  0  0  0
  141.1110   76.8990  220.7230 C   0  0  0  0  0  0  0  0  0  0  0  0
  139.9710   76.6270  219.9970 C   0  0  0  0  0  0  0  0  0  0  0  0
  138.7510   76.6480  220.6370 C   0  0  0  0  0  0  0  0  0  0  0  0
  138.6160   76.9310  221.9870 C   0  0  0  0  0  0  0  0  0  0  0  0
  137.3810   76.9420  222.5870 O   0  0  0  0  0  0  0  0  0  0  0  0
  136.5790   75.7780  222.7130 C   0  0  0  0  0  0  0  0  0  0  0  0
  136.2290   75.6290  224.0450 F   0  0  0  0  0  0  0  0  0  0  0  0
  135.4350   75.9400  221.9680 F   0  0  0  0  0  0  0  0  0  0  0  0
  137.3270   74.6840  222.3120 F   0  0  0  0  0  0  0  0  0  0  0  0
  139.7810   77.1990  222.6840 C   0  0  0  0  0  0  0  0  0  0  0  0
  141.0250   77.1880  222.0790 C   0  0  0  0  0  0  0  0  0  0  0  0
  140.2660   71.9810  223.0470 C   0  0  0  0  0  0  0  0  0  0  0  0
  139.6690   70.7620  222.7910 C   0  0  0  0  0  0  0  0  0  0  0  0
  139.5070   69.7990  223.7850 C   0  0  0  0  0  0  0  0  0  0  0  0
  139.9840   70.1450  225.0420 C   0  0  0  0  0  0  0  0  0  0  0  0
  139.8800   69.2690  226.1080 C   0  0  0  0  0  0  0  0  0  0  0  0
  140.3520   69.6070  227.3600 C   0  0  0  0  0  0  0  0  0  0  0  0
  140.2210   68.4930  228.7210 Cl  0  0  0  0  0  0  0  0  0  0  0  0
  140.9470   70.8300  227.6010 C   0  0  0  0  0  0  0  0  0  0  0  0
  141.0610   71.7260  226.5380 C   0  0  0  0  0  0  0  0  0  0  0  0
  140.5810   71.3620  225.2970 C   0  0  0  0  0  0  0  0  0  0  0  0
  140.7140   72.2610  224.3040 N   0  0  0  0  0  0  0  0  0  0  0  0
  141.6260   71.6390  220.8150 H   0  0  0  0  0  0  0  0  0  0  0  0
  141.5718   72.9205  218.7870 H   0  0  0  0  0  0  0  0  0  0  0  0
  140.5106   74.1371  219.5501 H   0  0  0  0  0  0  0  0  0  0  0  0
  144.3069   76.0442  218.0385 H   0  0  0  0  0  0  0  0  0  0  0  0
  143.0567   75.0273  217.3653 H   0  0  0  0  0  0  0  0  0  0  0  0
  142.9795   77.6422  216.8295 H   0  0  0  0  0  0  0  0  0  0  0  0
  141.4578   76.9278  217.2769 H   0  0  0  0  0  0  0  0  0  0  0  0
  143.4765   78.4699  219.0320 H   0  0  0  0  0  0  0  0  0  0  0  0
  141.7277   78.6768  219.0064 H   0  0  0  0  0  0  0  0  0  0  0  0
  143.0962   77.0684  220.8945 H   0  0  0  0  0  0  0  0  0  0  0  0
  140.0344   76.3967  218.9232 H   0  0  0  0  0  0  0  0  0  0  0  0
  137.8455   76.4309  220.0514 H   0  0  0  0  0  0  0  0  0  0  0  0
  139.7156   77.4290  223.7577 H   0  0  0  0  0  0  0  0  0  0  0  0
  141.9319   77.4047  222.6626 H   0  0  0  0  0  0  0  0  0  0  0  0
  139.3113   70.5453  221.7736 H   0  0  0  0  0  0  0  0  0  0  0  0
  139.0317   68.8271  223.5864 H   0  0  0  0  0  0  0  0  0  0  0  0
  139.4125   68.2851  225.9547 H   0  0  0  0  0  0  0  0  0  0  0  0
  141.3203   71.0900  228.6025 H   0  0  0  0  0  0  0  0  0  0  0  0
  141.5279   72.7107  226.6875 H   0  0  0  0  0  0  0  0  0  0  0  0
  1  2  2  0
  2  3  1  0
  3  4  1  0
  4  5  1  0
  5  6  2  0
  5  7  1  0
  7  8  1  0
  8  9  1  0
  9 10  1  0
 10 11  1  0
 11 12  1  0
 12 13  2  0
 13 14  1  0
 14 15  2  0
 15 16  1  0
 16 17  1  0
 17 18  1  0
 17 19  1  0
 17 20  1  0
 15 21  1  0
 21 22  2  0
  2 23  1  0
 23 24  2  0
 24 25  1  0
 25 26  2  0
 26 27  1  0
 27 28  2  0
 28 29  1  0
 28 30  1  0
 30 31  2  0
 31 32  1  0
 32 33  2  0
 11  7  1  0
 22 12  1  0
 33 23  1  0
 32 26  1  0
  3 34  1  0
  4 35  1  0
  4 36  1  0
  8 37  1  0
  8 38  1  0
  9 39  1  0
  9 40  1  0
 10 41  1  0
 10 42  1  0
 11 43  1  1
 13 44  1  0
 14 45  1  0
 21 46  1  0
 22 47  1  0
 24 48  1  0
 25 49  1  0
 27 50  1  0
 30 51  1  0
 31 52  1  0
M  END
>  <smiles>  (62) 
O=C(NCC(=O)N1CCCC1c1ccc(OC(F)(F)F)cc1)c1ccc2cc(Cl)ccc2n1

>  <score_type>  (62) 
oracle

>  <origin>  (62) 
autodockgpu

>  <m_score__min__energy>  (62) 
-7.96

>  <m_primary>  (62) 
energy

>  <rmsd>  (62) 
2.592537025409803

>  <m_score__min__rmsd>  (62) 
2.592537025409803

>  <meeko>  (62) 
{"free_energy": -7.17, "intermolecular_energy": -9.26, "internal_energy": -2.11, "cluster_size": 4, "cluster_id": 6, "rank_in_cluster": 2}

>  <energy>  (62) 
-7.89

>  <cluster_rmsd>  (62) 
0.13

>  <cluster>  (62) 
2

$$$$

     RDKit          3D

 52 55  0  0  0  0  0  0  0  0999 V2000
  133.5370   69.9520  226.6830 O   0  0  0  0  0  0  0  0  0  0  0  0
  133.8080   71.0610  226.1190 C   0  0  0  0  0  0  0  0  0  0  0  0
  134.7010   71.1420  225.0160 N   0  0  0  0  0  0  0  0  0  0  0  0
  135.3620   69.9780  224.4600 C   0  0  0  0  0  0  0  0  0  0  0  0
  136.4110   70.4540  223.5070 C   0  0  0  0  0  0  0  0  0  0  0  0
  136.5390   71.6980  223.3690 O   0  0  0  0  0  0  0  0  0  0  0  0
  137.2200   69.5100  222.7960 N   0  0  0  0  0  0  0  0  0  0  0  0
  137.3290   69.4270  221.3510 C   0  0  0  0  0  0  0  0  0  0  0  0
  138.7340   68.9390  221.1620 C   0  0  0  0  0  0  0  0  0  0  0  0
  138.8490   67.9120  222.2930 C   0  0  0  0  0  0  0  0  0  0  0  0
  138.0400   68.5090  223.4350 C   0  0  1  0  0  0  0  0  0  0  0  0
  138.8780   69.0070  224.5260 C   0  0  0  0  0  0  0  0  0  0  0  0
  138.8680   68.3570  225.7410 C   0  0  0  0  0  0  0  0  0  0  0  0
  139.6600   68.8360  226.7620 C   0  0  0  0  0  0  0  0  0  0  0  0
  140.4750   69.9490  226.6210 C   0  0  0  0  0  0  0  0  0  0  0  0
  141.2500   70.3930  227.6630 O   0  0  0  0  0  0  0  0  0  0  0  0
  141.1850   71.7220  228.1550 C   0  0  0  0  0  0  0  0  0  0  0  0
  139.9340   71.9220  228.7140 F   0  0  0  0  0  0  0  0  0  0  0  0
  142.1400   71.8850  229.1320 F   0  0  0  0  0  0  0  0  0  0  0  0
  141.3550   72.5930  227.0930 F   0  0  0  0  0  0  0  0  0  0  0  0
  140.4600   70.5760  225.3880 C   0  0  0  0  0  0  0  0  0  0  0  0
  139.6780   70.1270  224.3380 C   0  0  0  0  0  0  0  0  0  0  0  0
  133.1880   72.3110  226.6080 C   0  0  0  0  0  0  0  0  0  0  0  0
  131.9930   72.2620  227.3000 C   0  0  0  0  0  0  0  0  0  0  0  0
  131.3720   73.4140  227.7780 C   0  0  0  0  0  0  0  0  0  0  0  0
  132.0300   74.6070  227.5140 C   0  0  0  0  0  0  0  0  0  0  0  0
  131.5100   75.8160  227.9400 C   0  0  0  0  0  0  0  0  0  0  0  0
  132.1600   77.0050  227.6810 C   0  0  0  0  0  0  0  0  0  0  0  0
  131.4990   78.5480  228.2230 Cl  0  0  0  0  0  0  0  0  0  0  0  0
  133.3540   77.0390  226.9870 C   0  0  0  0  0  0  0  0  0  0  0  0
  133.8940   75.8290  226.5500 C   0  0  0  0  0  0  0  0  0  0  0  0
  133.2240   74.6550  226.8240 C   0  0  0  0  0  0  0  0  0  0  0  0
  133.7850   73.5150  226.3800 N   0  0  0  0  0  0  0  0  0  0  0  0
  134.8790   72.1030  224.5960 H   0  0  0  0  0  0  0  0  0  0  0  0
  135.8280   69.3926  225.2663 H   0  0  0  0  0  0  0  0  0  0  0  0
  134.6347   69.3377  223.9393 H   0  0  0  0  0  0  0  0  0  0  0  0
  136.6009   68.7138  220.9372 H   0  0  0  0  0  0  0  0  0  0  0  0
  137.1214   70.3782  220.8391 H   0  0  0  0  0  0  0  0  0  0  0  0
  138.8681   68.4694  220.1763 H   0  0  0  0  0  0  0  0  0  0  0  0
  139.4950   69.7326  221.1947 H   0  0  0  0  0  0  0  0  0  0  0  0
  138.4283   66.9440  221.9832 H   0  0  0  0  0  0  0  0  0  0  0  0
  139.8939   67.7190  222.5775 H   0  0  0  0  0  0  0  0  0  0  0  0
  137.4181   67.7649  223.9541 H   0  0  0  0  0  0  0  0  0  0  0  0
  138.2371   67.4689  225.8937 H   0  0  0  0  0  0  0  0  0  0  0  0
  139.6450   68.3133  227.7298 H   0  0  0  0  0  0  0  0  0  0  0  0
  141.0923   71.4633  225.2366 H   0  0  0  0  0  0  0  0  0  0  0  0
  139.6898   70.6489  223.3698 H   0  0  0  0  0  0  0  0  0  0  0  0
  131.5185   71.2858  227.4786 H   0  0  0  0  0  0  0  0  0  0  0  0
  130.4208   73.3801  228.3295 H   0  0  0  0  0  0  0  0  0  0  0  0
  130.5607   75.8296  228.4955 H   0  0  0  0  0  0  0  0  0  0  0  0
  133.8642   77.9923  226.7848 H   0  0  0  0  0  0  0  0  0  0  0  0
  134.8427   75.8116  225.9936 H   0  0  0  0  0  0  0  0  0  0  0  0
  1  2  2  0
  2  3  1  0
  3  4  1  0
  4  5  1  0
  5  6  2  0
  5  7  1  0
  7  8  1  0
  8  9  1  0
  9 10  1  0
 10 11  1  0
 11 12  1  0
 12 13  2  0
 13 14  1  0
 14 15  2  0
 15 16  1  0
 16 17  1  0
 17 18  1  0
 17 19  1  0
 17 20  1  0
 15 21  1  0
 21 22  2  0
  2 23  1  0
 23 24  2  0
 24 25  1  0
 25 26  2  0
 26 27  1  0
 27 28  2  0
 28 29  1  0
 28 30  1  0
 30 31  2  0
 31 32  1  0
 32 33  2  0
 11  7  1  0
 22 12  1  0
 33 23  1  0
 32 26  1  0
  3 34  1  0
  4 35  1  0
  4 36  1  0
  8 37  1  0
  8 38  1  0
  9 39  1  0
  9 40  1  0
 10 41  1  0
 10 42  1  0
 11 43  1  1
 13 44  1  0
 14 45  1  0
 21 46  1  0
 22 47  1  0
 24 48  1  0
 25 49  1  0
 27 50  1  0
 30 51  1  0
 31 52  1  0
M  END
>  <smiles>  (63) 
O=C(NCC(=O)N1CCCC1c1ccc(OC(F)(F)F)cc1)c1ccc2cc(Cl)ccc2n1

>  <score_type>  (63) 
oracle

>  <origin>  (63) 
autodockgpu

>  <m_score__min__energy>  (63) 
-7.96

>  <m_primary>  (63) 
energy

>  <rmsd>  (63) 
8.552882097376099

>  <m_score__min__rmsd>  (63) 
8.552882097376099

>  <meeko>  (63) 
{"free_energy": -7.85, "intermolecular_energy": -9.94, "internal_energy": -2.26, "cluster_size": 5, "cluster_id": 2, "rank_in_cluster": 4}

>  <energy>  (63) 
-7.85

>  <cluster_rmsd>  (63) 
0.13

>  <cluster>  (63) 
2

$$$$

     RDKit          3D

 52 55  0  0  0  0  0  0  0  0999 V2000
  139.1990   71.9400  220.6310 O   0  0  0  0  0  0  0  0  0  0  0  0
  139.3830   72.3940  221.8050 C   0  0  0  0  0  0  0  0  0  0  0  0
  139.4330   73.7910  222.0700 N   0  0  0  0  0  0  0  0  0  0  0  0
  139.2800   74.7880  221.0280 C   0  0  0  0  0  0  0  0  0  0  0  0
  140.1070   75.9760  221.4010 C   0  0  0  0  0  0  0  0  0  0  0  0
  140.5070   76.0450  222.5920 O   0  0  0  0  0  0  0  0  0  0  0  0
  140.4130   76.9770  220.4240 N   0  0  0  0  0  0  0  0  0  0  0  0
  140.1780   78.3990  220.5860 C   0  0  0  0  0  0  0  0  0  0  0  0
  141.2890   79.0020  219.7800 C   0  0  0  0  0  0  0  0  0  0  0  0
  141.3210   78.0660  218.5680 C   0  0  0  0  0  0  0  0  0  0  0  0
  141.0010   76.6920  219.1370 C   0  0  1  0  0  0  0  0  0  0  0  0
  142.1650   75.8070  219.1760 C   0  0  0  0  0  0  0  0  0  0  0  0
  142.2370   74.7410  218.3060 C   0  0  0  0  0  0  0  0  0  0  0  0
  143.3380   73.9130  218.3530 C   0  0  0  0  0  0  0  0  0  0  0  0
  144.3850   74.1060  219.2410 C   0  0  0  0  0  0  0  0  0  0  0  0
  145.4640   73.2580  219.2550 O   0  0  0  0  0  0  0  0  0  0  0  0
  145.9370   72.6360  220.4390 C   0  0  0  0  0  0  0  0  0  0  0  0
  146.7360   73.5400  221.1200 F   0  0  0  0  0  0  0  0  0  0  0  0
  144.8620   72.3080  221.2320 F   0  0  0  0  0  0  0  0  0  0  0  0
  146.6950   71.5340  220.0840 F   0  0  0  0  0  0  0  0  0  0  0  0
  144.2790   75.1850  220.1000 C   0  0  0  0  0  0  0  0  0  0  0  0
  143.1900   76.0390  220.0850 C   0  0  0  0  0  0  0  0  0  0  0  0
  139.5520   71.4630  222.9420 C   0  0  0  0  0  0  0  0  0  0  0  0
  139.1170   70.1570  222.8300 C   0  0  0  0  0  0  0  0  0  0  0  0
  139.2540   69.2450  223.8750 C   0  0  0  0  0  0  0  0  0  0  0  0
  139.8530   69.7340  225.0270 C   0  0  0  0  0  0  0  0  0  0  0  0
  140.0430   68.9210  226.1300 C   0  0  0  0  0  0  0  0  0  0  0  0
  140.6390   69.4030  227.2790 C   0  0  0  0  0  0  0  0  0  0  0  0
  140.8830   68.3680  228.6870 Cl  0  0  0  0  0  0  0  0  0  0  0  0
  141.0690   70.7120  227.3750 C   0  0  0  0  0  0  0  0  0  0  0  0
  140.8860   71.5460  226.2720 C   0  0  0  0  0  0  0  0  0  0  0  0
  140.2880   71.0390  225.1370 C   0  0  0  0  0  0  0  0  0  0  0  0
  140.1330   71.8840  224.1010 N   0  0  0  0  0  0  0  0  0  0  0  0
  139.5890   74.0960  223.0770 H   0  0  0  0  0  0  0  0  0  0  0  0
  139.6254   74.3796  220.0668 H   0  0  0  0  0  0  0  0  0  0  0  0
  138.2230   75.0749  220.9256 H   0  0  0  0  0  0  0  0  0  0  0  0
  139.1945   78.6880  220.1869 H   0  0  0  0  0  0  0  0  0  0  0  0
  140.1686   78.7264  221.6361 H   0  0  0  0  0  0  0  0  0  0  0  0
  141.0572   80.0359  219.4846 H   0  0  0  0  0  0  0  0  0  0  0  0
  142.2461   79.0774  220.3169 H   0  0  0  0  0  0  0  0  0  0  0  0
  140.5657   78.3649  217.8263 H   0  0  0  0  0  0  0  0  0  0  0  0
  142.2907   78.0876  218.0492 H   0  0  0  0  0  0  0  0  0  0  0  0
  140.3069   76.1174  218.5060 H   0  0  0  0  0  0  0  0  0  0  0  0
  141.4279   74.5535  217.5847 H   0  0  0  0  0  0  0  0  0  0  0  0
  143.3880   73.0631  217.6564 H   0  0  0  0  0  0  0  0  0  0  0  0
  145.0890   75.3709  220.8206 H   0  0  0  0  0  0  0  0  0  0  0  0
  143.1367   76.8884  220.7820 H   0  0  0  0  0  0  0  0  0  0  0  0
  138.6496   69.8276  221.8903 H   0  0  0  0  0  0  0  0  0  0  0  0
  138.9092   68.2038  223.7917 H   0  0  0  0  0  0  0  0  0  0  0  0
  139.7136   67.8722  226.0913 H   0  0  0  0  0  0  0  0  0  0  0  0
  141.5422   71.0861  228.2949 H   0  0  0  0  0  0  0  0  0  0  0  0
  141.2145   72.5952  226.3068 H   0  0  0  0  0  0  0  0  0  0  0  0
  1  2  2  0
  2  3  1  0
  3  4  1  0
  4  5  1  0
  5  6  2  0
  5  7  1  0
  7  8  1  0
  8  9  1  0
  9 10  1  0
 10 11  1  0
 11 12  1  0
 12 13  2  0
 13 14  1  0
 14 15  2  0
 15 16  1  0
 16 17  1  0
 17 18  1  0
 17 19  1  0
 17 20  1  0
 15 21  1  0
 21 22  2  0
  2 23  1  0
 23 24  2  0
 24 25  1  0
 25 26  2  0
 26 27  1  0
 27 28  2  0
 28 29  1  0
 28 30  1  0
 30 31  2  0
 31 32  1  0
 32 33  2  0
 11  7  1  0
 22 12  1  0
 33 23  1  0
 32 26  1  0
  3 34  1  0
  4 35  1  0
  4 36  1  0
  8 37  1  0
  8 38  1  0
  9 39  1  0
  9 40  1  0
 10 41  1  0
 10 42  1  0
 11 43  1  6
 13 44  1  0
 14 45  1  0
 21 46  1  0
 22 47  1  0
 24 48  1  0
 25 49  1  0
 27 50  1  0
 30 51  1  0
 31 52  1  0
M  END
>  <smiles>  (64) 
O=C(NCC(=O)N1CCCC1c1ccc(OC(F)(F)F)cc1)c1ccc2cc(Cl)ccc2n1

>  <score_type>  (64) 
oracle

>  <origin>  (64) 
autodockgpu

>  <m_score__min__energy>  (64) 
-7.96

>  <m_primary>  (64) 
energy

>  <rmsd>  (64) 
2.0731616704860696

>  <m_score__min__rmsd>  (64) 
2.0731616704860696

>  <meeko>  (64) 
{"free_energy": -7.55, "intermolecular_energy": -9.64, "internal_energy": -2.39, "cluster_size": 14, "cluster_id": 3, "rank_in_cluster": 9}

>  <energy>  (64) 
-7.17

>  <cluster_rmsd>  (64) 
0.84

>  <cluster>  (64) 
2

$$$$

     RDKit          3D

 52 55  0  0  0  0  0  0  0  0999 V2000
  139.6140   71.9990  220.5730 O   0  0  0  0  0  0  0  0  0  0  0  0
  139.6980   72.4530  221.7590 C   0  0  0  0  0  0  0  0  0  0  0  0
  139.7440   73.8490  222.0260 N   0  0  0  0  0  0  0  0  0  0  0  0
  139.7010   74.8460  220.9740 C   0  0  0  0  0  0  0  0  0  0  0  0
  140.6220   75.9600  221.3550 C   0  0  0  0  0  0  0  0  0  0  0  0
  140.9680   76.0300  222.5630 O   0  0  0  0  0  0  0  0  0  0  0  0
  141.0730   76.8930  220.3670 N   0  0  0  0  0  0  0  0  0  0  0  0
  140.9970   76.6890  218.9320 C   0  0  0  0  0  0  0  0  0  0  0  0
  140.8190   78.0860  218.4190 C   0  0  0  0  0  0  0  0  0  0  0  0
  141.7760   78.8630  219.3280 C   0  0  0  0  0  0  0  0  0  0  0  0
  141.6690   78.1700  220.6780 C   0  0  1  0  0  0  0  0  0  0  0  0
  140.9390   78.9630  221.6680 C   0  0  0  0  0  0  0  0  0  0  0  0
  139.7000   79.4750  221.3480 C   0  0  0  0  0  0  0  0  0  0  0  0
  139.0220   80.2200  222.2880 C   0  0  0  0  0  0  0  0  0  0  0  0
  139.5330   80.4800  223.5500 C   0  0  0  0  0  0  0  0  0  0  0  0
  138.8250   81.2280  224.4580 O   0  0  0  0  0  0  0  0  0  0  0  0
  137.4290   81.0720  224.6590 C   0  0  0  0  0  0  0  0  0  0  0  0
  136.7680   82.0360  223.9150 F   0  0  0  0  0  0  0  0  0  0  0  0
  137.0480   79.8270  224.2130 F   0  0  0  0  0  0  0  0  0  0  0  0
  137.1540   81.2640  226.0020 F   0  0  0  0  0  0  0  0  0  0  0  0
  140.7780   79.9510  223.8370 C   0  0  0  0  0  0  0  0  0  0  0  0
  141.4910   79.1980  222.9210 C   0  0  0  0  0  0  0  0  0  0  0  0
  139.7490   71.5220  222.9070 C   0  0  0  0  0  0  0  0  0  0  0  0
  139.1970   70.2600  222.7940 C   0  0  0  0  0  0  0  0  0  0  0  0
  139.2210   69.3500  223.8490 C   0  0  0  0  0  0  0  0  0  0  0  0
  139.8340   69.7940  225.0130 C   0  0  0  0  0  0  0  0  0  0  0  0
  139.9190   68.9780  226.1270 C   0  0  0  0  0  0  0  0  0  0  0  0
  140.5270   69.4130  227.2870 C   0  0  0  0  0  0  0  0  0  0  0  0
  140.6370   68.3750  228.7090 Cl  0  0  0  0  0  0  0  0  0  0  0  0
  141.0740   70.6770  227.3850 C   0  0  0  0  0  0  0  0  0  0  0  0
  140.9980   71.5140  226.2710 C   0  0  0  0  0  0  0  0  0  0  0  0
  140.3850   71.0530  225.1240 C   0  0  0  0  0  0  0  0  0  0  0  0
  140.3360   71.8980  224.0780 N   0  0  0  0  0  0  0  0  0  0  0  0
  139.8140   74.1540  223.0430 H   0  0  0  0  0  0  0  0  0  0  0  0
  140.0282   74.3998  220.0233 H   0  0  0  0  0  0  0  0  0  0  0  0
  138.6758   75.2242  220.8478 H   0  0  0  0  0  0  0  0  0  0  0  0
  141.9221   76.2373  218.5444 H   0  0  0  0  0  0  0  0  0  0  0  0
  140.1936   76.0024  218.6270 H   0  0  0  0  0  0  0  0  0  0  0  0
  141.1123   78.1674  217.3620 H   0  0  0  0  0  0  0  0  0  0  0  0
  139.7802   78.4467  218.4449 H   0  0  0  0  0  0  0  0  0  0  0  0
  142.8056   78.8095  218.9444 H   0  0  0  0  0  0  0  0  0  0  0  0
  141.5216   79.9316  219.3859 H   0  0  0  0  0  0  0  0  0  0  0  0
  142.6433   78.0397  221.1718 H   0  0  0  0  0  0  0  0  0  0  0  0
  139.2591   79.2916  220.3571 H   0  0  0  0  0  0  0  0  0  0  0  0
  138.0336   80.6255  222.0260 H   0  0  0  0  0  0  0  0  0  0  0  0
  141.2170   80.1353  224.8286 H   0  0  0  0  0  0  0  0  0  0  0  0
  142.4796   78.7917  223.1809 H   0  0  0  0  0  0  0  0  0  0  0  0
  138.7256   69.9657  221.8447 H   0  0  0  0  0  0  0  0  0  0  0  0
  138.7825   68.3447  223.7651 H   0  0  0  0  0  0  0  0  0  0  0  0
  139.4943   67.9641  226.0874 H   0  0  0  0  0  0  0  0  0  0  0  0
  141.5558   71.0145  228.3145 H   0  0  0  0  0  0  0  0  0  0  0  0
  141.4215   72.5286  226.3068 H   0  0  0  0  0  0  0  0  0  0  0  0
  1  2  2  0
  2  3  1  0
  3  4  1  0
  4  5  1  0
  5  6  2  0
  5  7  1  0
  7  8  1  0
  8  9  1  0
  9 10  1  0
 10 11  1  0
 11 12  1  0
 12 13  2  0
 13 14  1  0
 14 15  2  0
 15 16  1  0
 16 17  1  0
 17 18  1  0
 17 19  1  0
 17 20  1  0
 15 21  1  0
 21 22  2  0
  2 23  1  0
 23 24  2  0
 24 25  1  0
 25 26  2  0
 26 27  1  0
 27 28  2  0
 28 29  1  0
 28 30  1  0
 30 31  2  0
 31 32  1  0
 32 33  2  0
 11  7  1  0
 22 12  1  0
 33 23  1  0
 32 26  1  0
  3 34  1  0
  4 35  1  0
  4 36  1  0
  8 37  1  0
  8 38  1  0
  9 39  1  0
  9 40  1  0
 10 41  1  0
 10 42  1  0
 11 43  1  1
 13 44  1  0
 14 45  1  0
 21 46  1  0
 22 47  1  0
 24 48  1  0
 25 49  1  0
 27 50  1  0
 30 51  1  0
 31 52  1  0
M  END
>  <smiles>  (65) 
O=C(NCC(=O)N1CCCC1c1ccc(OC(F)(F)F)cc1)c1ccc2cc(Cl)ccc2n1

>  <score_type>  (65) 
oracle

>  <origin>  (65) 
autodockgpu

>  <m_score__min__energy>  (65) 
-7.96

>  <m_primary>  (65) 
energy

>  <rmsd>  (65) 
1.7142468234366515

>  <m_score__min__rmsd>  (65) 
1.7142468234366515

>  <meeko>  (65) 
{"free_energy": -7.77, "intermolecular_energy": -9.86, "internal_energy": -2.14, "cluster_size": 9, "cluster_id": 1, "rank_in_cluster": 6}

>  <energy>  (65) 
-7.84

>  <cluster_rmsd>  (65) 
0.0

>  <cluster>  (65) 
3

$$$$

     RDKit          3D

 52 55  0  0  0  0  0  0  0  0999 V2000
  139.3070   73.7490  222.2920 O   0  0  0  0  0  0  0  0  0  0  0  0
  139.7280   72.5740  222.0460 C   0  0  0  0  0  0  0  0  0  0  0  0
  140.1180   72.1760  220.7380 N   0  0  0  0  0  0  0  0  0  0  0  0
  140.0640   73.0740  219.6010 C   0  0  0  0  0  0  0  0  0  0  0  0
  141.3040   72.8690  218.7910 C   0  0  0  0  0  0  0  0  0  0  0  0
  141.1590   72.7010  217.5530 O   0  0  0  0  0  0  0  0  0  0  0  0
  142.5880   72.8690  219.4260 N   0  0  0  0  0  0  0  0  0  0  0  0
  143.7590   72.1660  218.9370 C   0  0  0  0  0  0  0  0  0  0  0  0
  144.8790   73.0490  219.4000 C   0  0  0  0  0  0  0  0  0  0  0  0
  144.3890   73.4460  220.7960 C   0  0  0  0  0  0  0  0  0  0  0  0
  142.8810   73.5760  220.6490 C   0  0  1  0  0  0  0  0  0  0  0  0
  142.4240   74.9660  220.6790 C   0  0  0  0  0  0  0  0  0  0  0  0
  141.4660   75.3460  221.5940 C   0  0  0  0  0  0  0  0  0  0  0  0
  141.0420   76.6570  221.6120 C   0  0  0  0  0  0  0  0  0  0  0  0
  141.5400   77.6190  220.7470 C   0  0  0  0  0  0  0  0  0  0  0  0
  141.0920   78.9150  220.7980 O   0  0  0  0  0  0  0  0  0  0  0  0
  141.4640   79.8160  221.8300 C   0  0  0  0  0  0  0  0  0  0  0  0
  140.4660   79.8160  222.7920 F   0  0  0  0  0  0  0  0  0  0  0  0
  142.6350   79.3810  222.4040 F   0  0  0  0  0  0  0  0  0  0  0  0
  141.5740   81.0840  221.2860 F   0  0  0  0  0  0  0  0  0  0  0  0
  142.5000   77.2020  219.8420 C   0  0  0  0  0  0  0  0  0  0  0  0
  142.9520   75.8950  219.7910 C   0  0  0  0  0  0  0  0  0  0  0  0
  139.8240   71.5780  223.1350 C   0  0  0  0  0  0  0  0  0  0  0  0
  139.3920   70.2830  222.9220 C   0  0  0  0  0  0  0  0  0  0  0  0
  139.4620   69.3120  223.9190 C   0  0  0  0  0  0  0  0  0  0  0  0
  139.9920   69.7300  225.1320 C   0  0  0  0  0  0  0  0  0  0  0  0
  140.1110   68.8540  226.1960 C   0  0  0  0  0  0  0  0  0  0  0  0
  140.6370   69.2640  227.4040 C   0  0  0  0  0  0  0  0  0  0  0  0
  140.7920   68.1490  228.7620 Cl  0  0  0  0  0  0  0  0  0  0  0  0
  141.0650   70.5630  227.6020 C   0  0  0  0  0  0  0  0  0  0  0  0
  140.9520   71.4600  226.5400 C   0  0  0  0  0  0  0  0  0  0  0  0
  140.4230   71.0230  225.3430 C   0  0  0  0  0  0  0  0  0  0  0  0
  140.3340   71.9270  224.3490 N   0  0  0  0  0  0  0  0  0  0  0  0
  140.4610   71.1770  220.6080 H   0  0  0  0  0  0  0  0  0  0  0  0
  139.1775   72.8494  218.9897 H   0  0  0  0  0  0  0  0  0  0  0  0
  139.9981   74.1179  219.9414 H   0  0  0  0  0  0  0  0  0  0  0  0
  143.8344   71.1619  219.3797 H   0  0  0  0  0  0  0  0  0  0  0  0
  143.7504   71.9994  217.8497 H   0  0  0  0  0  0  0  0  0  0  0  0
  145.8311   72.5003  219.4481 H   0  0  0  0  0  0  0  0  0  0  0  0
  145.0859   73.9009  218.7355 H   0  0  0  0  0  0  0  0  0  0  0  0
  144.6421   72.6689  221.5322 H   0  0  0  0  0  0  0  0  0  0  0  0
  144.8556   74.3757  221.1538 H   0  0  0  0  0  0  0  0  0  0  0  0
  142.3289   73.1422  221.4958 H   0  0  0  0  0  0  0  0  0  0  0  0
  141.0461   74.6138  222.2993 H   0  0  0  0  0  0  0  0  0  0  0  0
  140.2759   76.9527  222.3438 H   0  0  0  0  0  0  0  0  0  0  0  0
  142.9190   77.9358  219.1377 H   0  0  0  0  0  0  0  0  0  0  0  0
  143.7170   75.5964  219.0592 H   0  0  0  0  0  0  0  0  0  0  0  0
  138.9815   70.0110  221.9384 H   0  0  0  0  0  0  0  0  0  0  0  0
  139.1190   68.2797  223.7552 H   0  0  0  0  0  0  0  0  0  0  0  0
  139.7803   67.8117  226.0769 H   0  0  0  0  0  0  0  0  0  0  0  0
  141.4826   70.8803  228.5689 H   0  0  0  0  0  0  0  0  0  0  0  0
  141.2807   72.5034  226.6553 H   0  0  0  0  0  0  0  0  0  0  0  0
  1  2  2  0
  2  3  1  0
  3  4  1  0
  4  5  1  0
  5  6  2  0
  5  7  1  0
  7  8  1  0
  8  9  1  0
  9 10  1  0
 10 11  1  0
 11 12  1  0
 12 13  2  0
 13 14  1  0
 14 15  2  0
 15 16  1  0
 16 17  1  0
 17 18  1  0
 17 19  1  0
 17 20  1  0
 15 21  1  0
 21 22  2  0
  2 23  1  0
 23 24  2  0
 24 25  1  0
 25 26  2  0
 26 27  1  0
 27 28  2  0
 28 29  1  0
 28 30  1  0
 30 31  2  0
 31 32  1  0
 32 33  2  0
 11  7  1  0
 22 12  1  0
 33 23  1  0
 32 26  1  0
  3 34  1  0
  4 35  1  0
  4 36  1  0
  8 37  1  0
  8 38  1  0
  9 39  1  0
  9 40  1  0
 10 41  1  0
 10 42  1  0
 11 43  1  1
 13 44  1  0
 14 45  1  0
 21 46  1  0
 22 47  1  0
 24 48  1  0
 25 49  1  0
 27 50  1  0
 30 51  1  0
 31 52  1  0
M  END
>  <smiles>  (66) 
O=C(NCC(=O)N1CCCC1c1ccc(OC(F)(F)F)cc1)c1ccc2cc(Cl)ccc2n1

>  <score_type>  (66) 
oracle

>  <origin>  (66) 
autodockgpu

>  <m_score__min__energy>  (66) 
-7.96

>  <m_primary>  (66) 
energy

>  <rmsd>  (66) 
3.510087054724951

>  <m_score__min__rmsd>  (66) 
3.510087054724951

>  <meeko>  (66) 
{"free_energy": -7.35, "intermolecular_energy": -9.43, "internal_energy": -1.75, "cluster_size": 2, "cluster_id": 5, "rank_in_cluster": 1}

>  <energy>  (66) 
-7.7

>  <cluster_rmsd>  (66) 
0.7

>  <cluster>  (66) 
3

$$$$

     RDKit          3D

 52 55  0  0  0  0  0  0  0  0999 V2000
  137.6850   70.8770  221.3960 O   0  0  0  0  0  0  0  0  0  0  0  0
  138.3420   71.4190  222.3420 C   0  0  0  0  0  0  0  0  0  0  0  0
  138.6380   72.8100  222.3480 N   0  0  0  0  0  0  0  0  0  0  0  0
  138.2170   73.7020  221.2850 C   0  0  0  0  0  0  0  0  0  0  0  0
  138.5430   75.1010  221.7000 C   0  0  0  0  0  0  0  0  0  0  0  0
  139.5130   75.2540  222.4860 O   0  0  0  0  0  0  0  0  0  0  0  0
  137.7650   76.1980  221.2080 N   0  0  0  0  0  0  0  0  0  0  0  0
  136.3170   76.2220  221.1250 C   0  0  0  0  0  0  0  0  0  0  0  0
  136.0080   77.6740  221.3350 C   0  0  0  0  0  0  0  0  0  0  0  0
  137.1250   78.3380  220.5240 C   0  0  0  0  0  0  0  0  0  0  0  0
  138.3330   77.4350  220.7270 C   0  0  1  0  0  0  0  0  0  0  0  0
  139.3460   78.0260  221.6000 C   0  0  0  0  0  0  0  0  0  0  0  0
  138.9510   78.7650  222.6950 C   0  0  0  0  0  0  0  0  0  0  0  0
  139.9140   79.3180  223.5110 C   0  0  0  0  0  0  0  0  0  0  0  0
  141.2720   79.1640  223.2800 C   0  0  0  0  0  0  0  0  0  0  0  0
  142.2000   79.7310  224.1170 O   0  0  0  0  0  0  0  0  0  0  0  0
  142.9120   80.9130  223.7860 C   0  0  0  0  0  0  0  0  0  0  0  0
  142.5590   81.2930  222.5020 F   0  0  0  0  0  0  0  0  0  0  0  0
  142.5540   81.9120  224.6600 F   0  0  0  0  0  0  0  0  0  0  0  0
  144.2670   80.6330  223.8230 F   0  0  0  0  0  0  0  0  0  0  0  0
  141.6320   78.4170  222.1730 C   0  0  0  0  0  0  0  0  0  0  0  0
  140.6960   77.8460  221.3290 C   0  0  0  0  0  0  0  0  0  0  0  0
  138.8200   70.6000  223.4760 C   0  0  0  0  0  0  0  0  0  0  0  0
  138.6000   69.2360  223.4800 C   0  0  0  0  0  0  0  0  0  0  0  0
  139.0320   68.4250  224.5280 C   0  0  0  0  0  0  0  0  0  0  0  0
  139.6940   69.0750  225.5600 C   0  0  0  0  0  0  0  0  0  0  0  0
  140.1690   68.3740  226.6540 C   0  0  0  0  0  0  0  0  0  0  0  0
  140.8280   69.0150  227.6830 C   0  0  0  0  0  0  0  0  0  0  0  0
  141.4350   68.1230  229.0780 Cl  0  0  0  0  0  0  0  0  0  0  0  0
  141.0410   70.3800  227.6650 C   0  0  0  0  0  0  0  0  0  0  0  0
  140.5690   71.1030  226.5700 C   0  0  0  0  0  0  0  0  0  0  0  0
  139.9140   70.4370  225.5550 C   0  0  0  0  0  0  0  0  0  0  0  0
  139.4770   71.1790  224.5210 N   0  0  0  0  0  0  0  0  0  0  0  0
  139.1910   73.1920  223.1720 H   0  0  0  0  0  0  0  0  0  0  0  0
  138.7513   73.4540  220.3560 H   0  0  0  0  0  0  0  0  0  0  0  0
  137.1368   73.5987  221.1046 H   0  0  0  0  0  0  0  0  0  0  0  0
  135.9689   75.8793  220.1394 H   0  0  0  0  0  0  0  0  0  0  0  0
  135.8236   75.5577  221.8498 H   0  0  0  0  0  0  0  0  0  0  0  0
  135.0146   77.9354  220.9416 H   0  0  0  0  0  0  0  0  0  0  0  0
  135.9749   77.9797  222.3912 H   0  0  0  0  0  0  0  0  0  0  0  0
  136.8536   78.3906  219.4593 H   0  0  0  0  0  0  0  0  0  0  0  0
  137.3173   79.3720  220.8462 H   0  0  0  0  0  0  0  0  0  0  0  0
  138.9065   77.2717  219.8026 H   0  0  0  0  0  0  0  0  0  0  0  0
  137.8830   78.9110  222.9140 H   0  0  0  0  0  0  0  0  0  0  0  0
  139.5913   79.9065  224.3825 H   0  0  0  0  0  0  0  0  0  0  0  0
  142.7005   78.2717  221.9559 H   0  0  0  0  0  0  0  0  0  0  0  0
  141.0165   77.2582  220.4562 H   0  0  0  0  0  0  0  0  0  0  0  0
  138.0692   68.7774  222.6327 H   0  0  0  0  0  0  0  0  0  0  0  0
  138.8592   67.3387  224.5365 H   0  0  0  0  0  0  0  0  0  0  0  0
  140.0186   67.2855  226.7045 H   0  0  0  0  0  0  0  0  0  0  0  0
  141.5675   70.8817  228.4903 H   0  0  0  0  0  0  0  0  0  0  0  0
  140.7172   72.1916  226.5163 H   0  0  0  0  0  0  0  0  0  0  0  0
  1  2  2  0
  2  3  1  0
  3  4  1  0
  4  5  1  0
  5  6  2  0
  5  7  1  0
  7  8  1  0
  8  9  1  0
  9 10  1  0
 10 11  1  0
 11 12  1  0
 12 13  2  0
 13 14  1  0
 14 15  2  0
 15 16  1  0
 16 17  1  0
 17 18  1  0
 17 19  1  0
 17 20  1  0
 15 21  1  0
 21 22  2  0
  2 23  1  0
 23 24  2  0
 24 25  1  0
 25 26  2  0
 26 27  1  0
 27 28  2  0
 28 29  1  0
 28 30  1  0
 30 31  2  0
 31 32  1  0
 32 33  2  0
 11  7  1  0
 22 12  1  0
 33 23  1  0
 32 26  1  0
  3 34  1  0
  4 35  1  0
  4 36  1  0
  8 37  1  0
  8 38  1  0
  9 39  1  0
  9 40  1  0
 10 41  1  0
 10 42  1  0
 11 43  1  6
 13 44  1  0
 14 45  1  0
 21 46  1  0
 22 47  1  0
 24 48  1  0
 25 49  1  0
 27 50  1  0
 30 51  1  0
 31 52  1  0
M  END
>  <smiles>  (67) 
O=C(NCC(=O)N1CCCC1c1ccc(OC(F)(F)F)cc1)c1ccc2cc(Cl)ccc2n1

>  <score_type>  (67) 
oracle

>  <origin>  (67) 
autodockgpu

>  <m_score__min__energy>  (67) 
-7.96

>  <m_primary>  (67) 
energy

>  <rmsd>  (67) 
2.5324739438494324

>  <m_score__min__rmsd>  (67) 
2.5324739438494324

>  <meeko>  (67) 
{"free_energy": -7.73, "intermolecular_energy": -9.82, "internal_energy": -2.28, "cluster_size": 5, "cluster_id": 4, "rank_in_cluster": 2}

>  <energy>  (67) 
-7.68

>  <cluster_rmsd>  (67) 
0.96

>  <cluster>  (67) 
3

$$$$

     RDKit          3D

 52 55  0  0  0  0  0  0  0  0999 V2000
  139.9700   74.1560  222.1320 O   0  0  0  0  0  0  0  0  0  0  0  0
  140.3890   72.9680  221.9560 C   0  0  0  0  0  0  0  0  0  0  0  0
  140.9830   72.5550  220.7320 N   0  0  0  0  0  0  0  0  0  0  0  0
  141.1520   73.4520  219.6060 C   0  0  0  0  0  0  0  0  0  0  0  0
  142.4050   74.2380  219.8260 C   0  0  0  0  0  0  0  0  0  0  0  0
  143.2960   73.7080  220.5390 O   0  0  0  0  0  0  0  0  0  0  0  0
  142.5560   75.5350  219.2370 N   0  0  0  0  0  0  0  0  0  0  0  0
  142.9700   75.7860  217.8690 C   0  0  0  0  0  0  0  0  0  0  0  0
  142.2450   77.0570  217.5430 C   0  0  0  0  0  0  0  0  0  0  0  0
  142.3960   77.8340  218.8550 C   0  0  0  0  0  0  0  0  0  0  0  0
  142.3110   76.7710  219.9400 C   0  0  1  0  0  0  0  0  0  0  0  0
  141.0510   76.8160  220.6830 C   0  0  0  0  0  0  0  0  0  0  0  0
  139.8750   76.4910  220.0430 C   0  0  0  0  0  0  0  0  0  0  0  0
  138.6940   76.5380  220.7520 C   0  0  0  0  0  0  0  0  0  0  0  0
  138.6350   76.8980  222.0900 C   0  0  0  0  0  0  0  0  0  0  0  0
  137.4380   76.9310  222.7600 O   0  0  0  0  0  0  0  0  0  0  0  0
  136.5830   75.8030  222.8610 C   0  0  0  0  0  0  0  0  0  0  0  0
  135.4660   76.0270  222.0720 F   0  0  0  0  0  0  0  0  0  0  0  0
  137.2460   74.6940  222.3890 F   0  0  0  0  0  0  0  0  0  0  0  0
  136.1890   75.6670  224.1810 F   0  0  0  0  0  0  0  0  0  0  0  0
  139.8350   77.2170  222.6990 C   0  0  0  0  0  0  0  0  0  0  0  0
  141.0410   77.1840  222.0220 C   0  0  0  0  0  0  0  0  0  0  0  0
  140.2650   71.9700  223.0410 C   0  0  0  0  0  0  0  0  0  0  0  0
  139.7010   70.7360  222.7800 C   0  0  0  0  0  0  0  0  0  0  0  0
  139.5630   69.7670  223.7710 C   0  0  0  0  0  0  0  0  0  0  0  0
  140.0270   70.1210  225.0300 C   0  0  0  0  0  0  0  0  0  0  0  0
  139.9440   69.2400  226.0930 C   0  0  0  0  0  0  0  0  0  0  0  0
  140.4050   69.5870  227.3470 C   0  0  0  0  0  0  0  0  0  0  0  0
  140.3000   68.4660  228.7050 Cl  0  0  0  0  0  0  0  0  0  0  0  0
  140.9660   70.8250  227.5930 C   0  0  0  0  0  0  0  0  0  0  0  0
  141.0590   71.7270  226.5330 C   0  0  0  0  0  0  0  0  0  0  0  0
  140.5910   71.3530  225.2900 C   0  0  0  0  0  0  0  0  0  0  0  0
  140.7020   72.2590  224.2990 N   0  0  0  0  0  0  0  0  0  0  0  0
  141.3100   71.5460  220.6590 H   0  0  0  0  0  0  0  0  0  0  0  0
  141.2339   72.8715  218.6752 H   0  0  0  0  0  0  0  0  0  0  0  0
  140.2873   74.1267  219.5215 H   0  0  0  0  0  0  0  0  0  0  0  0
  144.0596   75.9204  217.8010 H   0  0  0  0  0  0  0  0  0  0  0  0
  142.7401   74.9592  217.1808 H   0  0  0  0  0  0  0  0  0  0  0  0
  142.7193   77.5873  216.7041 H   0  0  0  0  0  0  0  0  0  0  0  0
  141.2026   76.9116  217.2231 H   0  0  0  0  0  0  0  0  0  0  0  0
  143.3668   78.3500  218.8916 H   0  0  0  0  0  0  0  0  0  0  0  0
  141.6271   78.6120  218.9709 H   0  0  0  0  0  0  0  0  0  0  0  0
  143.0478   76.9184  220.7434 H   0  0  0  0  0  0  0  0  0  0  0  0
  139.8786   76.1985  218.9826 H   0  0  0  0  0  0  0  0  0  0  0  0
  137.7585   76.2790  220.2346 H   0  0  0  0  0  0  0  0  0  0  0  0
  139.8304   77.5074  223.7600 H   0  0  0  0  0  0  0  0  0  0  0  0
  141.9776   77.4452  222.5364 H   0  0  0  0  0  0  0  0  0  0  0  0
  139.3513   70.5126  221.7613 H   0  0  0  0  0  0  0  0  0  0  0  0
  139.1145   68.7832  223.5684 H   0  0  0  0  0  0  0  0  0  0  0  0
  139.5026   68.2447  225.9363 H   0  0  0  0  0  0  0  0  0  0  0  0
  141.3292   71.0921  228.5964 H   0  0  0  0  0  0  0  0  0  0  0  0
  141.4996   72.7232  226.6860 H   0  0  0  0  0  0  0  0  0  0  0  0
  1  2  2  0
  2  3  1  0
  3  4  1  0
  4  5  1  0
  5  6  2  0
  5  7  1  0
  7  8  1  0
  8  9  1  0
  9 10  1  0
 10 11  1  0
 11 12  1  0
 12 13  2  0
 13 14  1  0
 14 15  2  0
 15 16  1  0
 16 17  1  0
 17 18  1  0
 17 19  1  0
 17 20  1  0
 15 21  1  0
 21 22  2  0
  2 23  1  0
 23 24  2  0
 24 25  1  0
 25 26  2  0
 26 27  1  0
 27 28  2  0
 28 29  1  0
 28 30  1  0
 30 31  2  0
 31 32  1  0
 32 33  2  0
 11  7  1  0
 22 12  1  0
 33 23  1  0
 32 26  1  0
  3 34  1  0
  4 35  1  0
  4 36  1  0
  8 37  1  0
  8 38  1  0
  9 39  1  0
  9 40  1  0
 10 41  1  0
 10 42  1  0
 11 43  1  1
 13 44  1  0
 14 45  1  0
 21 46  1  0
 22 47  1  0
 24 48  1  0
 25 49  1  0
 27 50  1  0
 30 51  1  0
 31 52  1  0
M  END
>  <smiles>  (68) 
O=C(NCC(=O)N1CCCC1c1ccc(OC(F)(F)F)cc1)c1ccc2cc(Cl)ccc2n1

>  <score_type>  (68) 
oracle

>  <origin>  (68) 
autodockgpu

>  <m_score__min__energy>  (68) 
-7.96

>  <m_primary>  (68) 
energy

>  <rmsd>  (68) 
2.4876387769149164

>  <m_score__min__rmsd>  (68) 
2.4876387769149164

>  <meeko>  (68) 
{"free_energy": -7.17, "intermolecular_energy": -9.26, "internal_energy": -2.07, "cluster_size": 4, "cluster_id": 6, "rank_in_cluster": 1}

>  <energy>  (68) 
-7.65

>  <cluster_rmsd>  (68) 
0.6

>  <cluster>  (68) 
3

$$$$

     RDKit          3D

 52 55  0  0  0  0  0  0  0  0999 V2000
  140.0010   78.3520  219.0390 O   0  0  0  0  0  0  0  0  0  0  0  0
  141.2390   78.4020  219.3320 C   0  0  0  0  0  0  0  0  0  0  0  0
  141.8340   79.5730  219.8770 N   0  0  0  0  0  0  0  0  0  0  0  0
  141.0790   80.7830  220.1350 C   0  0  0  0  0  0  0  0  0  0  0  0
  141.1930   81.0970  221.5920 C   0  0  0  0  0  0  0  0  0  0  0  0
  142.3520   81.2600  222.0540 O   0  0  0  0  0  0  0  0  0  0  0  0
  140.0160   81.2000  222.4020 N   0  0  0  0  0  0  0  0  0  0  0  0
  139.0090   82.2370  222.2810 C   0  0  0  0  0  0  0  0  0  0  0  0
  137.7580   81.5200  222.6920 C   0  0  0  0  0  0  0  0  0  0  0  0
  138.2700   80.6730  223.8610 C   0  0  0  0  0  0  0  0  0  0  0  0
  139.6800   80.2720  223.4550 C   0  0  1  0  0  0  0  0  0  0  0  0
  139.7850   78.8600  223.0850 C   0  0  0  0  0  0  0  0  0  0  0  0
  138.6460   78.1580  222.7550 C   0  0  0  0  0  0  0  0  0  0  0  0
  138.7570   76.8290  222.4090 C   0  0  0  0  0  0  0  0  0  0  0  0
  139.9710   76.1600  222.3770 C   0  0  0  0  0  0  0  0  0  0  0  0
  140.0390   74.8350  222.0270 O   0  0  0  0  0  0  0  0  0  0  0  0
  139.4110   74.3150  220.8660 C   0  0  0  0  0  0  0  0  0  0  0  0
  140.0840   73.1660  220.4810 F   0  0  0  0  0  0  0  0  0  0  0  0
  138.1100   73.9880  221.1680 F   0  0  0  0  0  0  0  0  0  0  0  0
  139.5040   75.2580  219.8570 F   0  0  0  0  0  0  0  0  0  0  0  0
  141.0930   76.8960  222.7150 C   0  0  0  0  0  0  0  0  0  0  0  0
  141.0240   78.2320  223.0680 C   0  0  0  0  0  0  0  0  0  0  0  0
  142.1010   77.2210  219.1080 C   0  0  0  0  0  0  0  0  0  0  0  0
  142.8410   77.1200  217.9460 C   0  0  0  0  0  0  0  0  0  0  0  0
  143.6660   76.0270  217.6920 C   0  0  0  0  0  0  0  0  0  0  0  0
  143.6950   75.0520  218.6800 C   0  0  0  0  0  0  0  0  0  0  0  0
  144.4780   73.9200  218.5400 C   0  0  0  0  0  0  0  0  0  0  0  0
  144.5120   72.9480  219.5190 C   0  0  0  0  0  0  0  0  0  0  0  0
  145.5100   71.5050  219.3440 Cl  0  0  0  0  0  0  0  0  0  0  0  0
  143.7670   73.0640  220.6770 C   0  0  0  0  0  0  0  0  0  0  0  0
  142.9710   74.1980  220.8360 C   0  0  0  0  0  0  0  0  0  0  0  0
  142.9570   75.1550  219.8410 C   0  0  0  0  0  0  0  0  0  0  0  0
  142.1730   76.2300  220.0410 N   0  0  0  0  0  0  0  0  0  0  0  0
  142.8740   79.5400  220.0980 H   0  0  0  0  0  0  0  0  0  0  0  0
  141.4895   81.6129  219.5411 H   0  0  0  0  0  0  0  0  0  0  0  0
  140.0244   80.6421  219.8559 H   0  0  0  0  0  0  0  0  0  0  0  0
  139.2235   83.0805  222.9536 H   0  0  0  0  0  0  0  0  0  0  0  0
  138.9520   82.6793  221.2755 H   0  0  0  0  0  0  0  0  0  0  0  0
  136.9778   82.2244  223.0161 H   0  0  0  0  0  0  0  0  0  0  0  0
  137.2858   80.9386  221.8864 H   0  0  0  0  0  0  0  0  0  0  0  0
  138.2860   81.2621  224.7898 H   0  0  0  0  0  0  0  0  0  0  0  0
  137.6284   79.8013  224.0573 H   0  0  0  0  0  0  0  0  0  0  0  0
  140.4006   80.3394  224.2834 H   0  0  0  0  0  0  0  0  0  0  0  0
  137.6629   78.6513  222.7676 H   0  0  0  0  0  0  0  0  0  0  0  0
  137.8435   76.2751  222.1469 H   0  0  0  0  0  0  0  0  0  0  0  0
  142.0753   76.4010  222.7026 H   0  0  0  0  0  0  0  0  0  0  0  0
  141.9359   78.7882  223.3310 H   0  0  0  0  0  0  0  0  0  0  0  0
  142.7769   77.9258  217.2000 H   0  0  0  0  0  0  0  0  0  0  0  0
  144.2567   75.9417  216.7680 H   0  0  0  0  0  0  0  0  0  0  0  0
  145.0847   73.7924  217.6314 H   0  0  0  0  0  0  0  0  0  0  0  0
  143.8009   72.2838  221.4517 H   0  0  0  0  0  0  0  0  0  0  0  0
  142.3620   74.3283  221.7427 H   0  0  0  0  0  0  0  0  0  0  0  0
  1  2  2  0
  2  3  1  0
  3  4  1  0
  4  5  1  0
  5  6  2  0
  5  7  1  0
  7  8  1  0
  8  9  1  0
  9 10  1  0
 10 11  1  0
 11 12  1  0
 12 13  2  0
 13 14  1  0
 14 15  2  0
 15 16  1  0
 16 17  1  0
 17 18  1  0
 17 19  1  0
 17 20  1  0
 15 21  1  0
 21 22  2  0
  2 23  1  0
 23 24  2  0
 24 25  1  0
 25 26  2  0
 26 27  1  0
 27 28  2  0
 28 29  1  0
 28 30  1  0
 30 31  2  0
 31 32  1  0
 32 33  2  0
 11  7  1  0
 22 12  1  0
 33 23  1  0
 32 26  1  0
  3 34  1  0
  4 35  1  0
  4 36  1  0
  8 37  1  0
  8 38  1  0
  9 39  1  0
  9 40  1  0
 10 41  1  0
 10 42  1  0
 11 43  1  1
 13 44  1  0
 14 45  1  0
 21 46  1  0
 22 47  1  0
 24 48  1  0
 25 49  1  0
 27 50  1  0
 30 51  1  0
 31 52  1  0
M  END
>  <smiles>  (69) 
O=C(NCC(=O)N1CCCC1c1ccc(OC(F)(F)F)cc1)c1ccc2cc(Cl)ccc2n1

>  <score_type>  (69) 
oracle

>  <origin>  (69) 
autodockgpu

>  <m_score__min__energy>  (69) 
-7.96

>  <m_primary>  (69) 
energy

>  <rmsd>  (69) 
8.413912006039833

>  <m_score__min__rmsd>  (69) 
8.413912006039833

>  <meeko>  (69) 
{"free_energy": -6.25, "intermolecular_energy": -8.33, "internal_energy": -2.95, "cluster_size": 8, "cluster_id": 7, "rank_in_cluster": 6}

>  <energy>  (69) 
-7.65

>  <cluster_rmsd>  (69) 
0.71

>  <cluster>  (69) 
3

$$$$

     RDKit          3D

 52 55  0  0  0  0  0  0  0  0999 V2000
  140.0790   71.9970  220.5130 O   0  0  0  0  0  0  0  0  0  0  0  0
  139.9130   72.4590  221.6870 C   0  0  0  0  0  0  0  0  0  0  0  0
  139.7200   73.8470  221.9260 N   0  0  0  0  0  0  0  0  0  0  0  0
  139.7000   74.8270  220.8580 C   0  0  0  0  0  0  0  0  0  0  0  0
  140.3080   76.0900  221.3790 C   0  0  0  0  0  0  0  0  0  0  0  0
  140.4420   76.1900  222.6250 O   0  0  0  0  0  0  0  0  0  0  0  0
  140.7080   77.1250  220.4720 N   0  0  0  0  0  0  0  0  0  0  0  0
  140.6200   78.5480  220.7410 C   0  0  0  0  0  0  0  0  0  0  0  0
  141.7820   79.0930  219.9660 C   0  0  0  0  0  0  0  0  0  0  0  0
  141.7120   78.2500  218.6890 C   0  0  0  0  0  0  0  0  0  0  0  0
  141.2570   76.8780  219.1600 C   0  0  1  0  0  0  0  0  0  0  0  0
  142.3250   75.8790  219.1200 C   0  0  0  0  0  0  0  0  0  0  0  0
  142.3390   74.9400  218.1110 C   0  0  0  0  0  0  0  0  0  0  0  0
  143.3500   74.0040  218.0830 C   0  0  0  0  0  0  0  0  0  0  0  0
  144.3620   73.9630  219.0300 C   0  0  0  0  0  0  0  0  0  0  0  0
  145.3510   73.0140  218.9670 O   0  0  0  0  0  0  0  0  0  0  0  0
  145.6010   72.0940  220.0170 C   0  0  0  0  0  0  0  0  0  0  0  0
  146.3550   72.7320  220.9890 F   0  0  0  0  0  0  0  0  0  0  0  0
  144.4020   71.7060  220.5680 F   0  0  0  0  0  0  0  0  0  0  0  0
  146.3220   71.0290  219.5060 F   0  0  0  0  0  0  0  0  0  0  0  0
  144.3160   74.9200  220.0280 C   0  0  0  0  0  0  0  0  0  0  0  0
  143.3180   75.8760  220.0920 C   0  0  0  0  0  0  0  0  0  0  0  0
  139.9150   71.5450  222.8500 C   0  0  0  0  0  0  0  0  0  0  0  0
  139.3900   70.2730  222.7260 C   0  0  0  0  0  0  0  0  0  0  0  0
  139.3700   69.3790  223.7950 C   0  0  0  0  0  0  0  0  0  0  0  0
  139.9110   69.8490  224.9840 C   0  0  0  0  0  0  0  0  0  0  0  0
  139.9470   69.0500  226.1130 C   0  0  0  0  0  0  0  0  0  0  0  0
  140.4830   69.5120  227.2980 C   0  0  0  0  0  0  0  0  0  0  0  0
  140.5310   68.4970  228.7390 Cl  0  0  0  0  0  0  0  0  0  0  0  0
  141.0050   70.7860  227.4060 C   0  0  0  0  0  0  0  0  0  0  0  0
  140.9780   71.6050  226.2770 C   0  0  0  0  0  0  0  0  0  0  0  0
  140.4360   71.1190  225.1060 C   0  0  0  0  0  0  0  0  0  0  0  0
  140.4310   71.9470  224.0450 N   0  0  0  0  0  0  0  0  0  0  0  0
  139.5860   74.1600  222.9340 H   0  0  0  0  0  0  0  0  0  0  0  0
  140.2829   74.4577  220.0014 H   0  0  0  0  0  0  0  0  0  0  0  0
  138.6674   75.0087  220.5251 H   0  0  0  0  0  0  0  0  0  0  0  0
  139.6687   78.9639  220.3775 H   0  0  0  0  0  0  0  0  0  0  0  0
  140.6502   78.7961  221.8122 H   0  0  0  0  0  0  0  0  0  0  0  0
  141.6548   80.1639  219.7492 H   0  0  0  0  0  0  0  0  0  0  0  0
  142.7448   79.0316  220.4944 H   0  0  0  0  0  0  0  0  0  0  0  0
  140.9872   78.6776  217.9806 H   0  0  0  0  0  0  0  0  0  0  0  0
  142.6763   78.2114  218.1611 H   0  0  0  0  0  0  0  0  0  0  0  0
  140.5048   76.4252  218.4974 H   0  0  0  0  0  0  0  0  0  0  0  0
  141.5548   74.9378  217.3396 H   0  0  0  0  0  0  0  0  0  0  0  0
  143.3544   73.2576  217.2750 H   0  0  0  0  0  0  0  0  0  0  0  0
  145.1012   74.9208  220.7984 H   0  0  0  0  0  0  0  0  0  0  0  0
  143.3107   76.6224  220.9000 H   0  0  0  0  0  0  0  0  0  0  0  0
  138.9764   69.9572  221.7569 H   0  0  0  0  0  0  0  0  0  0  0  0
  138.9522   68.3656  223.7025 H   0  0  0  0  0  0  0  0  0  0  0  0
  139.5413   68.0287  226.0653 H   0  0  0  0  0  0  0  0  0  0  0  0
  141.4299   71.1447  228.3551 H   0  0  0  0  0  0  0  0  0  0  0  0
  141.3842   72.6263  226.3204 H   0  0  0  0  0  0  0  0  0  0  0  0
  1  2  2  0
  2  3  1  0
  3  4  1  0
  4  5  1  0
  5  6  2  0
  5  7  1  0
  7  8  1  0
  8  9  1  0
  9 10  1  0
 10 11  1  0
 11 12  1  0
 12 13  2  0
 13 14  1  0
 14 15  2  0
 15 16  1  0
 16 17  1  0
 17 18  1  0
 17 19  1  0
 17 20  1  0
 15 21  1  0
 21 22  2  0
  2 23  1  0
 23 24  2  0
 24 25  1  0
 25 26  2  0
 26 27  1  0
 27 28  2  0
 28 29  1  0
 28 30  1  0
 30 31  2  0
 31 32  1  0
 32 33  2  0
 11  7  1  0
 22 12  1  0
 33 23  1  0
 32 26  1  0
  3 34  1  0
  4 35  1  0
  4 36  1  0
  8 37  1  0
  8 38  1  0
  9 39  1  0
  9 40  1  0
 10 41  1  0
 10 42  1  0
 11 43  1  6
 13 44  1  0
 14 45  1  0
 21 46  1  0
 22 47  1  0
 24 48  1  0
 25 49  1  0
 27 50  1  0
 30 51  1  0
 31 52  1  0
M  END
>  <smiles>  (70) 
O=C(NCC(=O)N1CCCC1c1ccc(OC(F)(F)F)cc1)c1ccc2cc(Cl)ccc2n1

>  <score_type>  (70) 
oracle

>  <origin>  (70) 
autodockgpu

>  <m_score__min__energy>  (70) 
-7.96

>  <m_primary>  (70) 
energy

>  <rmsd>  (70) 
2.281563720949077

>  <m_score__min__rmsd>  (70) 
2.281563720949077

>  <meeko>  (70) 
{"free_energy": -7.64, "intermolecular_energy": -9.72, "internal_energy": -2.36, "cluster_size": 14, "cluster_id": 3, "rank_in_cluster": 6}

>  <energy>  (70) 
-7.64

>  <cluster_rmsd>  (70) 
0.64

>  <cluster>  (70) 
3

$$$$

     RDKit          3D

 52 55  0  0  0  0  0  0  0  0999 V2000
  133.5860   69.9760  226.7360 O   0  0  0  0  0  0  0  0  0  0  0  0
  133.8460   71.0810  226.1610 C   0  0  0  0  0  0  0  0  0  0  0  0
  134.7370   71.1610  225.0560 N   0  0  0  0  0  0  0  0  0  0  0  0
  135.4090   69.9970  224.5110 C   0  0  0  0  0  0  0  0  0  0  0  0
  136.4080   70.4700  223.5040 C   0  0  0  0  0  0  0  0  0  0  0  0
  136.4920   71.7120  223.3200 O   0  0  0  0  0  0  0  0  0  0  0  0
  137.2200   69.5270  222.7950 N   0  0  0  0  0  0  0  0  0  0  0  0
  137.3390   69.4490  221.3520 C   0  0  0  0  0  0  0  0  0  0  0  0
  138.7440   68.9580  221.1720 C   0  0  0  0  0  0  0  0  0  0  0  0
  138.8470   67.9260  222.2990 C   0  0  0  0  0  0  0  0  0  0  0  0
  138.0310   68.5210  223.4380 C   0  0  1  0  0  0  0  0  0  0  0  0
  138.8620   69.0130  224.5370 C   0  0  0  0  0  0  0  0  0  0  0  0
  138.8800   68.3280  225.7330 C   0  0  0  0  0  0  0  0  0  0  0  0
  139.6660   68.8010  226.7620 C   0  0  0  0  0  0  0  0  0  0  0  0
  140.4460   69.9410  226.6470 C   0  0  0  0  0  0  0  0  0  0  0  0
  141.2160   70.3780  227.6960 O   0  0  0  0  0  0  0  0  0  0  0  0
  141.1570   71.7070  228.1900 C   0  0  0  0  0  0  0  0  0  0  0  0
  141.3730   72.5780  227.1340 F   0  0  0  0  0  0  0  0  0  0  0  0
  139.9030   71.9380  228.7070 F   0  0  0  0  0  0  0  0  0  0  0  0
  142.1600   71.8710  229.1300 F   0  0  0  0  0  0  0  0  0  0  0  0
  140.4040   70.6020  225.4330 C   0  0  0  0  0  0  0  0  0  0  0  0
  139.6280   70.1610  224.3760 C   0  0  0  0  0  0  0  0  0  0  0  0
  133.2140   72.3310  226.6380 C   0  0  0  0  0  0  0  0  0  0  0  0
  132.0100   72.2780  227.3130 C   0  0  0  0  0  0  0  0  0  0  0  0
  131.3780   73.4290  227.7800 C   0  0  0  0  0  0  0  0  0  0  0  0
  132.0350   74.6240  227.5230 C   0  0  0  0  0  0  0  0  0  0  0  0
  131.5040   75.8320  227.9380 C   0  0  0  0  0  0  0  0  0  0  0  0
  132.1540   77.0230  227.6850 C   0  0  0  0  0  0  0  0  0  0  0  0
  131.4790   78.5650  228.2150 Cl  0  0  0  0  0  0  0  0  0  0  0  0
  133.3580   77.0600  227.0090 C   0  0  0  0  0  0  0  0  0  0  0  0
  133.9080   75.8510  226.5830 C   0  0  0  0  0  0  0  0  0  0  0  0
  133.2380   74.6750  226.8490 C   0  0  0  0  0  0  0  0  0  0  0  0
  133.8100   73.5360  226.4160 N   0  0  0  0  0  0  0  0  0  0  0  0
  134.9050   72.1190  224.6260 H   0  0  0  0  0  0  0  0  0  0  0  0
  135.9210   69.4502  225.3165 H   0  0  0  0  0  0  0  0  0  0  0  0
  134.6807   69.3213  224.0388 H   0  0  0  0  0  0  0  0  0  0  0  0
  136.6121   68.7392  220.9304 H   0  0  0  0  0  0  0  0  0  0  0  0
  137.1374   70.4024  220.8418 H   0  0  0  0  0  0  0  0  0  0  0  0
  138.8847   68.4924  220.1854 H   0  0  0  0  0  0  0  0  0  0  0  0
  139.5070   69.7493  221.2142 H   0  0  0  0  0  0  0  0  0  0  0  0
  138.4254   66.9608  221.9818 H   0  0  0  0  0  0  0  0  0  0  0  0
  139.8891   67.7282  222.5905 H   0  0  0  0  0  0  0  0  0  0  0  0
  137.4032   67.7771  223.9504 H   0  0  0  0  0  0  0  0  0  0  0  0
  138.2764   67.4178  225.8644 H   0  0  0  0  0  0  0  0  0  0  0  0
  139.6745   68.2506  227.7144 H   0  0  0  0  0  0  0  0  0  0  0  0
  141.0094   71.5112  225.3031 H   0  0  0  0  0  0  0  0  0  0  0  0
  139.6176   70.7105  223.4232 H   0  0  0  0  0  0  0  0  0  0  0  0
  131.5369   71.3002  227.4867 H   0  0  0  0  0  0  0  0  0  0  0  0
  130.4193   73.3925  228.3181 H   0  0  0  0  0  0  0  0  0  0  0  0
  130.5465   75.8436  228.4794 H   0  0  0  0  0  0  0  0  0  0  0  0
  133.8680   78.0146  226.8124 H   0  0  0  0  0  0  0  0  0  0  0  0
  134.8651   75.8356  226.0411 H   0  0  0  0  0  0  0  0  0  0  0  0
  1  2  2  0
  2  3  1  0
  3  4  1  0
  4  5  1  0
  5  6  2  0
  5  7  1  0
  7  8  1  0
  8  9  1  0
  9 10  1  0
 10 11  1  0
 11 12  1  0
 12 13  2  0
 13 14  1  0
 14 15  2  0
 15 16  1  0
 16 17  1  0
 17 18  1  0
 17 19  1  0
 17 20  1  0
 15 21  1  0
 21 22  2  0
  2 23  1  0
 23 24  2  0
 24 25  1  0
 25 26  2  0
 26 27  1  0
 27 28  2  0
 28 29  1  0
 28 30  1  0
 30 31  2  0
 31 32  1  0
 32 33  2  0
 11  7  1  0
 22 12  1  0
 33 23  1  0
 32 26  1  0
  3 34  1  0
  4 35  1  0
  4 36  1  0
  8 37  1  0
  8 38  1  0
  9 39  1  0
  9 40  1  0
 10 41  1  0
 10 42  1  0
 11 43  1  1
 13 44  1  0
 14 45  1  0
 21 46  1  0
 22 47  1  0
 24 48  1  0
 25 49  1  0
 27 50  1  0
 30 51  1  0
 31 52  1  0
M  END
>  <smiles>  (71) 
O=C(NCC(=O)N1CCCC1c1ccc(OC(F)(F)F)cc1)c1ccc2cc(Cl)ccc2n1

>  <score_type>  (71) 
oracle

>  <origin>  (71) 
autodockgpu

>  <m_score__min__energy>  (71) 
-7.96

>  <m_primary>  (71) 
energy

>  <rmsd>  (71) 
8.550952402761167

>  <m_score__min__rmsd>  (71) 
8.550952402761167

>  <meeko>  (71) 
{"free_energy": -7.89, "intermolecular_energy": -9.98, "internal_energy": -2.25, "cluster_size": 5, "cluster_id": 2, "rank_in_cluster": 3}

>  <energy>  (71) 
-7.61

>  <cluster_rmsd>  (71) 
0.94

>  <cluster>  (71) 
3

$$$$

     RDKit          3D

 52 55  0  0  0  0  0  0  0  0999 V2000
  139.4570   71.9290  220.6040 O   0  0  0  0  0  0  0  0  0  0  0  0
  139.5870   72.3820  221.7870 C   0  0  0  0  0  0  0  0  0  0  0  0
  139.6430   73.7780  222.0530 N   0  0  0  0  0  0  0  0  0  0  0  0
  139.5570   74.7760  221.0050 C   0  0  0  0  0  0  0  0  0  0  0  0
  140.3060   75.9870  221.4600 C   0  0  0  0  0  0  0  0  0  0  0  0
  140.3740   76.1870  222.7000 O   0  0  0  0  0  0  0  0  0  0  0  0
  140.9070   76.8650  220.5010 N   0  0  0  0  0  0  0  0  0  0  0  0
  140.9720   76.6200  219.0720 C   0  0  0  0  0  0  0  0  0  0  0  0
  140.9240   78.0070  218.5060 C   0  0  0  0  0  0  0  0  0  0  0  0
  141.8190   78.7640  219.4920 C   0  0  0  0  0  0  0  0  0  0  0  0
  141.5340   78.1200  220.8400 C   0  0  1  0  0  0  0  0  0  0  0  0
  140.7460   78.9790  221.7250 C   0  0  0  0  0  0  0  0  0  0  0  0
  139.5910   79.5630  221.2530 C   0  0  0  0  0  0  0  0  0  0  0  0
  138.8580   80.3710  222.0950 C   0  0  0  0  0  0  0  0  0  0  0  0
  139.2320   80.6240  223.4060 C   0  0  0  0  0  0  0  0  0  0  0  0
  138.4730   81.4350  224.2130 O   0  0  0  0  0  0  0  0  0  0  0  0
  137.2040   81.0460  224.7160 C   0  0  0  0  0  0  0  0  0  0  0  0
  137.2980   80.9230  226.0930 F   0  0  0  0  0  0  0  0  0  0  0  0
  136.2850   82.0260  224.4180 F   0  0  0  0  0  0  0  0  0  0  0  0
  136.8720   79.8190  224.1690 F   0  0  0  0  0  0  0  0  0  0  0  0
  140.3970   80.0220  223.8460 C   0  0  0  0  0  0  0  0  0  0  0  0
  141.1610   79.2050  223.0320 C   0  0  0  0  0  0  0  0  0  0  0  0
  139.6830   71.4490  222.9310 C   0  0  0  0  0  0  0  0  0  0  0  0
  139.2070   70.1590  222.8080 C   0  0  0  0  0  0  0  0  0  0  0  0
  139.2760   69.2460  223.8580 C   0  0  0  0  0  0  0  0  0  0  0  0
  139.8520   69.7190  225.0300 C   0  0  0  0  0  0  0  0  0  0  0  0
  139.9760   68.9030  226.1410 C   0  0  0  0  0  0  0  0  0  0  0  0
  140.5480   69.3680  227.3080 C   0  0  0  0  0  0  0  0  0  0  0  0
  140.7080   68.3310  228.7250 Cl  0  0  0  0  0  0  0  0  0  0  0  0
  141.0210   70.6610  227.4160 C   0  0  0  0  0  0  0  0  0  0  0  0
  140.9050   71.4970  226.3050 C   0  0  0  0  0  0  0  0  0  0  0  0
  140.3290   71.0080  225.1510 C   0  0  0  0  0  0  0  0  0  0  0  0
  140.2390   71.8530  224.1080 N   0  0  0  0  0  0  0  0  0  0  0  0
  139.7510   74.0820  223.0670 H   0  0  0  0  0  0  0  0  0  0  0  0
  140.0052   74.3854  220.0795 H   0  0  0  0  0  0  0  0  0  0  0  0
  138.5058   75.0295  220.8031 H   0  0  0  0  0  0  0  0  0  0  0  0
  141.9073   76.1102  218.7976 H   0  0  0  0  0  0  0  0  0  0  0  0
  140.1695   75.9655  218.7010 H   0  0  0  0  0  0  0  0  0  0  0  0
  141.3319   78.0397  217.4849 H   0  0  0  0  0  0  0  0  0  0  0  0
  139.9089   78.4198  218.4102 H   0  0  0  0  0  0  0  0  0  0  0  0
  142.8791   78.6478  219.2224 H   0  0  0  0  0  0  0  0  0  0  0  0
  141.6161   79.8451  219.4946 H   0  0  0  0  0  0  0  0  0  0  0  0
  142.4429   77.9571  221.4377 H   0  0  0  0  0  0  0  0  0  0  0  0
  139.2588   79.3870  220.2193 H   0  0  0  0  0  0  0  0  0  0  0  0
  137.9375   80.8348  221.7109 H   0  0  0  0  0  0  0  0  0  0  0  0
  140.7278   80.1992  224.8800 H   0  0  0  0  0  0  0  0  0  0  0  0
  142.0828   78.7414  223.4133 H   0  0  0  0  0  0  0  0  0  0  0  0
  138.7605   69.8430  221.8537 H   0  0  0  0  0  0  0  0  0  0  0  0
  138.8987   68.2170  223.7649 H   0  0  0  0  0  0  0  0  0  0  0  0
  139.6124   67.8659  226.0932 H   0  0  0  0  0  0  0  0  0  0  0  0
  141.4758   71.0212  228.3505 H   0  0  0  0  0  0  0  0  0  0  0  0
  141.2687   72.5342  226.3489 H   0  0  0  0  0  0  0  0  0  0  0  0
  1  2  2  0
  2  3  1  0
  3  4  1  0
  4  5  1  0
  5  6  2  0
  5  7  1  0
  7  8  1  0
  8  9  1  0
  9 10  1  0
 10 11  1  0
 11 12  1  0
 12 13  2  0
 13 14  1  0
 14 15  2  0
 15 16  1  0
 16 17  1  0
 17 18  1  0
 17 19  1  0
 17 20  1  0
 15 21  1  0
 21 22  2  0
  2 23  1  0
 23 24  2  0
 24 25  1  0
 25 26  2  0
 26 27  1  0
 27 28  2  0
 28 29  1  0
 28 30  1  0
 30 31  2  0
 31 32  1  0
 32 33  2  0
 11  7  1  0
 22 12  1  0
 33 23  1  0
 32 26  1  0
  3 34  1  0
  4 35  1  0
  4 36  1  0
  8 37  1  0
  8 38  1  0
  9 39  1  0
  9 40  1  0
 10 41  1  0
 10 42  1  0
 11 43  1  1
 13 44  1  0
 14 45  1  0
 21 46  1  0
 22 47  1  0
 24 48  1  0
 25 49  1  0
 27 50  1  0
 30 51  1  0
 31 52  1  0
M  END
>  <smiles>  (72) 
O=C(NCC(=O)N1CCCC1c1ccc(OC(F)(F)F)cc1)c1ccc2cc(Cl)ccc2n1

>  <score_type>  (72) 
oracle

>  <origin>  (72) 
autodockgpu

>  <m_score__min__energy>  (72) 
-7.96

>  <m_primary>  (72) 
energy

>  <rmsd>  (72) 
1.669413512109917

>  <m_score__min__rmsd>  (72) 
1.669413512109917

>  <meeko>  (72) 
{"free_energy": -7.69, "intermolecular_energy": -9.78, "internal_energy": -2.2, "cluster_size": 9, "cluster_id": 1, "rank_in_cluster": 8}

>  <energy>  (72) 
-7.56

>  <cluster_rmsd>  (72) 
0.4

>  <cluster>  (72) 
3

$$$$

     RDKit          3D

 52 55  0  0  0  0  0  0  0  0999 V2000
  139.6780   71.8730  220.5710 O   0  0  0  0  0  0  0  0  0  0  0  0
  139.7150   72.3310  221.7580 C   0  0  0  0  0  0  0  0  0  0  0  0
  139.6900   73.7270  222.0250 N   0  0  0  0  0  0  0  0  0  0  0  0
  139.6230   74.7210  220.9710 C   0  0  0  0  0  0  0  0  0  0  0  0
  140.4370   75.9010  221.3980 C   0  0  0  0  0  0  0  0  0  0  0  0
  140.6260   76.0510  222.6320 O   0  0  0  0  0  0  0  0  0  0  0  0
  140.9640   76.8050  220.4190 N   0  0  0  0  0  0  0  0  0  0  0  0
  140.9140   76.6010  218.9840 C   0  0  0  0  0  0  0  0  0  0  0  0
  140.8260   78.0040  218.4640 C   0  0  0  0  0  0  0  0  0  0  0  0
  141.8000   78.7300  219.3960 C   0  0  0  0  0  0  0  0  0  0  0  0
  141.6200   78.0480  220.7440 C   0  0  1  0  0  0  0  0  0  0  0  0
  140.9090   78.8830  221.7130 C   0  0  0  0  0  0  0  0  0  0  0  0
  139.6580   79.3700  221.4010 C   0  0  0  0  0  0  0  0  0  0  0  0
  138.9990   80.1560  222.3210 C   0  0  0  0  0  0  0  0  0  0  0  0
  139.5390   80.4800  223.5560 C   0  0  0  0  0  0  0  0  0  0  0  0
  138.8480   81.2650  224.4450 O   0  0  0  0  0  0  0  0  0  0  0  0
  137.4340   81.2390  224.5540 C   0  0  0  0  0  0  0  0  0  0  0  0
  136.9890   79.9760  224.1990 F   0  0  0  0  0  0  0  0  0  0  0  0
  137.0810   81.4850  225.8610 F   0  0  0  0  0  0  0  0  0  0  0  0
  136.9090   82.1710  223.6750 F   0  0  0  0  0  0  0  0  0  0  0  0
  140.7960   79.9730  223.8350 C   0  0  0  0  0  0  0  0  0  0  0  0
  141.4910   79.1820  222.9390 C   0  0  0  0  0  0  0  0  0  0  0  0
  139.7830   71.4020  222.9080 C   0  0  0  0  0  0  0  0  0  0  0  0
  139.2770   70.1230  222.7900 C   0  0  0  0  0  0  0  0  0  0  0  0
  139.3190   69.2150  223.8460 C   0  0  0  0  0  0  0  0  0  0  0  0
  139.9020   69.6800  225.0170 C   0  0  0  0  0  0  0  0  0  0  0  0
  140.0000   68.8680  226.1330 C   0  0  0  0  0  0  0  0  0  0  0  0
  140.5790   69.3250  227.3000 C   0  0  0  0  0  0  0  0  0  0  0  0
  140.7070   68.2930  228.7240 Cl  0  0  0  0  0  0  0  0  0  0  0  0
  141.0820   70.6080  227.4030 C   0  0  0  0  0  0  0  0  0  0  0  0
  140.9910   71.4400  226.2870 C   0  0  0  0  0  0  0  0  0  0  0  0
  140.4080   70.9580  225.1330 C   0  0  0  0  0  0  0  0  0  0  0  0
  140.3430   71.8000  224.0850 N   0  0  0  0  0  0  0  0  0  0  0  0
  139.7220   74.0350  223.0420 H   0  0  0  0  0  0  0  0  0  0  0  0
  140.0302   74.3042  220.0380 H   0  0  0  0  0  0  0  0  0  0  0  0
  138.5796   75.0201  220.7928 H   0  0  0  0  0  0  0  0  0  0  0  0
  141.8226   76.0981  218.6213 H   0  0  0  0  0  0  0  0  0  0  0  0
  140.0823   75.9583  218.6595 H   0  0  0  0  0  0  0  0  0  0  0  0
  141.1506   78.0659  217.4148 H   0  0  0  0  0  0  0  0  0  0  0  0
  139.8082   78.4211  218.4622 H   0  0  0  0  0  0  0  0  0  0  0  0
  142.8347   78.6189  219.0395 H   0  0  0  0  0  0  0  0  0  0  0  0
  141.6033   79.8111  219.4454 H   0  0  0  0  0  0  0  0  0  0  0  0
  142.5720   77.8660  221.2641 H   0  0  0  0  0  0  0  0  0  0  0  0
  139.1928   79.1348  220.4324 H   0  0  0  0  0  0  0  0  0  0  0  0
  138.0017   80.5429  222.0646 H   0  0  0  0  0  0  0  0  0  0  0  0
  141.2590   80.2078  224.8048 H   0  0  0  0  0  0  0  0  0  0  0  0
  142.4891   78.7954  223.1926 H   0  0  0  0  0  0  0  0  0  0  0  0
  138.8279   69.8119  221.8352 H   0  0  0  0  0  0  0  0  0  0  0  0
  138.9161   68.1953  223.7575 H   0  0  0  0  0  0  0  0  0  0  0  0
  139.6098   67.8404  226.0896 H   0  0  0  0  0  0  0  0  0  0  0  0
  141.5407   70.9628  228.3377 H   0  0  0  0  0  0  0  0  0  0  0  0
  141.3795   72.4684  226.3265 H   0  0  0  0  0  0  0  0  0  0  0  0
  1  2  2  0
  2  3  1  0
  3  4  1  0
  4  5  1  0
  5  6  2  0
  5  7  1  0
  7  8  1  0
  8  9  1  0
  9 10  1  0
 10 11  1  0
 11 12  1  0
 12 13  2  0
 13 14  1  0
 14 15  2  0
 15 16  1  0
 16 17  1  0
 17 18  1  0
 17 19  1  0
 17 20  1  0
 15 21  1  0
 21 22  2  0
  2 23  1  0
 23 24  2  0
 24 25  1  0
 25 26  2  0
 26 27  1  0
 27 28  2  0
 28 29  1  0
 28 30  1  0
 30 31  2  0
 31 32  1  0
 32 33  2  0
 11  7  1  0
 22 12  1  0
 33 23  1  0
 32 26  1  0
  3 34  1  0
  4 35  1  0
  4 36  1  0
  8 37  1  0
  8 38  1  0
  9 39  1  0
  9 40  1  0
 10 41  1  0
 10 42  1  0
 11 43  1  1
 13 44  1  0
 14 45  1  0
 21 46  1  0
 22 47  1  0
 24 48  1  0
 25 49  1  0
 27 50  1  0
 30 51  1  0
 31 52  1  0
M  END
>  <smiles>  (73) 
O=C(NCC(=O)N1CCCC1c1ccc(OC(F)(F)F)cc1)c1ccc2cc(Cl)ccc2n1

>  <score_type>  (73) 
oracle

>  <origin>  (73) 
autodockgpu

>  <m_score__min__energy>  (73) 
-7.96

>  <m_primary>  (73) 
energy

>  <rmsd>  (73) 
1.6320124281720498

>  <m_score__min__rmsd>  (73) 
1.6320124281720498

>  <meeko>  (73) 
{"free_energy": -7.81, "intermolecular_energy": -9.9, "internal_energy": -2.13, "cluster_size": 9, "cluster_id": 1, "rank_in_cluster": 4}

>  <energy>  (73) 
-7.55

>  <cluster_rmsd>  (73) 
0.86

>  <cluster>  (73) 
3

$$$$

     RDKit          3D

 52 55  0  0  0  0  0  0  0  0999 V2000
  138.5250   71.8030  220.9100 O   0  0  0  0  0  0  0  0  0  0  0  0
  138.9670   72.2360  222.0220 C   0  0  0  0  0  0  0  0  0  0  0  0
  139.1920   73.6210  222.2520 N   0  0  0  0  0  0  0  0  0  0  0  0
  138.9360   74.6300  221.2430 C   0  0  0  0  0  0  0  0  0  0  0  0
  138.8170   75.9520  221.9320 C   0  0  0  0  0  0  0  0  0  0  0  0
  139.7730   76.3010  222.6710 O   0  0  0  0  0  0  0  0  0  0  0  0
  137.6510   76.7620  221.7410 N   0  0  0  0  0  0  0  0  0  0  0  0
  137.4330   77.6570  220.6200 C   0  0  0  0  0  0  0  0  0  0  0  0
  135.9430   77.6120  220.4590 C   0  0  0  0  0  0  0  0  0  0  0  0
  135.4840   77.6150  221.9200 C   0  0  0  0  0  0  0  0  0  0  0  0
  136.5320   76.7900  222.6520 C   0  0  1  0  0  0  0  0  0  0  0  0
  136.0390   75.4740  223.0590 C   0  0  0  0  0  0  0  0  0  0  0  0
  135.8020   74.5120  222.1000 C   0  0  0  0  0  0  0  0  0  0  0  0
  135.3370   73.2760  222.4950 C   0  0  0  0  0  0  0  0  0  0  0  0
  135.0940   72.9540  223.8210 C   0  0  0  0  0  0  0  0  0  0  0  0
  134.6310   71.7110  224.1720 O   0  0  0  0  0  0  0  0  0  0  0  0
  135.4910   70.6020  224.3840 C   0  0  0  0  0  0  0  0  0  0  0  0
  135.0740   69.9350  225.5240 F   0  0  0  0  0  0  0  0  0  0  0  0
  135.3950   69.7490  223.3090 F   0  0  0  0  0  0  0  0  0  0  0  0
  136.7780   71.0750  224.5760 F   0  0  0  0  0  0  0  0  0  0  0  0
  135.3420   73.9430  224.7550 C   0  0  0  0  0  0  0  0  0  0  0  0
  135.8090   75.1970  224.4000 C   0  0  0  0  0  0  0  0  0  0  0  0
  139.2620   71.2900  223.1210 C   0  0  0  0  0  0  0  0  0  0  0  0
  138.9300   69.9560  222.9870 C   0  0  0  0  0  0  0  0  0  0  0  0
  139.1880   69.0300  223.9950 C   0  0  0  0  0  0  0  0  0  0  0  0
  139.7970   69.5350  225.1360 C   0  0  0  0  0  0  0  0  0  0  0  0
  140.1020   68.7100  226.2040 C   0  0  0  0  0  0  0  0  0  0  0  0
  140.7070   69.2060  227.3400 C   0  0  0  0  0  0  0  0  0  0  0  0
  141.0980   68.1570  228.7030 Cl  0  0  0  0  0  0  0  0  0  0  0  0
  141.0330   70.5430  227.4600 C   0  0  0  0  0  0  0  0  0  0  0  0
  140.7330   71.3900  226.3930 C   0  0  0  0  0  0  0  0  0  0  0  0
  140.1280   70.8670  225.2680 C   0  0  0  0  0  0  0  0  0  0  0  0
  139.8580   71.7250  224.2670 N   0  0  0  0  0  0  0  0  0  0  0  0
  139.5620   73.9080  223.2070 H   0  0  0  0  0  0  0  0  0  0  0  0
  139.7673   74.6576  220.5232 H   0  0  0  0  0  0  0  0  0  0  0  0
  138.0094   74.3985  220.6972 H   0  0  0  0  0  0  0  0  0  0  0  0
  137.7780   78.6757  220.8508 H   0  0  0  0  0  0  0  0  0  0  0  0
  137.9827   77.3674  219.7123 H   0  0  0  0  0  0  0  0  0  0  0  0
  135.5695   78.4937  219.9176 H   0  0  0  0  0  0  0  0  0  0  0  0
  135.5785   76.7549  219.8737 H   0  0  0  0  0  0  0  0  0  0  0  0
  135.4518   78.6411  222.3150 H   0  0  0  0  0  0  0  0  0  0  0  0
  134.4706   77.2044  222.0402 H   0  0  0  0  0  0  0  0  0  0  0  0
  136.8223   77.2266  223.6190 H   0  0  0  0  0  0  0  0  0  0  0  0
  135.9812   74.7276  221.0363 H   0  0  0  0  0  0  0  0  0  0  0  0
  135.1509   72.5127  221.7251 H   0  0  0  0  0  0  0  0  0  0  0  0
  135.1618   73.7256  225.8181 H   0  0  0  0  0  0  0  0  0  0  0  0
  135.9950   75.9620  225.1683 H   0  0  0  0  0  0  0  0  0  0  0  0
  138.4485   69.6154  222.0585 H   0  0  0  0  0  0  0  0  0  0  0  0
  138.9260   67.9665  223.8936 H   0  0  0  0  0  0  0  0  0  0  0  0
  139.8576   67.6391  226.1461 H   0  0  0  0  0  0  0  0  0  0  0  0
  141.5151   70.9285  228.3705 H   0  0  0  0  0  0  0  0  0  0  0  0
  140.9756   72.4615  226.4475 H   0  0  0  0  0  0  0  0  0  0  0  0
  1  2  2  0
  2  3  1  0
  3  4  1  0
  4  5  1  0
  5  6  2  0
  5  7  1  0
  7  8  1  0
  8  9  1  0
  9 10  1  0
 10 11  1  0
 11 12  1  0
 12 13  2  0
 13 14  1  0
 14 15  2  0
 15 16  1  0
 16 17  1  0
 17 18  1  0
 17 19  1  0
 17 20  1  0
 15 21  1  0
 21 22  2  0
  2 23  1  0
 23 24  2  0
 24 25  1  0
 25 26  2  0
 26 27  1  0
 27 28  2  0
 28 29  1  0
 28 30  1  0
 30 31  2  0
 31 32  1  0
 32 33  2  0
 11  7  1  0
 22 12  1  0
 33 23  1  0
 32 26  1  0
  3 34  1  0
  4 35  1  0
  4 36  1  0
  8 37  1  0
  8 38  1  0
  9 39  1  0
  9 40  1  0
 10 41  1  0
 10 42  1  0
 11 43  1  1
 13 44  1  0
 14 45  1  0
 21 46  1  0
 22 47  1  0
 24 48  1  0
 25 49  1  0
 27 50  1  0
 30 51  1  0
 31 52  1  0
M  END
>  <smiles>  (74) 
O=C(NCC(=O)N1CCCC1c1ccc(OC(F)(F)F)cc1)c1ccc2cc(Cl)ccc2n1

>  <score_type>  (74) 
oracle

>  <origin>  (74) 
autodockgpu

>  <m_score__min__energy>  (74) 
-7.96

>  <m_primary>  (74) 
energy

>  <rmsd>  (74) 
3.2841052333527023

>  <m_score__min__rmsd>  (74) 
3.2841052333527023

>  <meeko>  (74) 
{"free_energy": -6.1, "intermolecular_energy": -8.18, "internal_energy": -2.95, "cluster_size": 2, "cluster_id": 8, "rank_in_cluster": 2}

>  <energy>  (74) 
-7.51

>  <cluster_rmsd>  (74) 
0.67

>  <cluster>  (74) 
3

$$$$

     RDKit          3D

 52 55  0  0  0  0  0  0  0  0999 V2000
  138.8280   71.9410  220.7740 O   0  0  0  0  0  0  0  0  0  0  0  0
  139.1510   72.3890  221.9210 C   0  0  0  0  0  0  0  0  0  0  0  0
  139.2920   73.7810  222.1710 N   0  0  0  0  0  0  0  0  0  0  0  0
  139.0790   74.7830  221.1440 C   0  0  0  0  0  0  0  0  0  0  0  0
  139.9320   74.4290  219.9690 C   0  0  0  0  0  0  0  0  0  0  0  0
  139.3820   74.4390  218.8380 O   0  0  0  0  0  0  0  0  0  0  0  0
  141.3130   74.0960  220.1550 N   0  0  0  0  0  0  0  0  0  0  0  0
  141.9060   72.8060  219.8570 C   0  0  0  0  0  0  0  0  0  0  0  0
  143.3030   73.1790  219.4620 C   0  0  0  0  0  0  0  0  0  0  0  0
  143.6190   74.2790  220.4810 C   0  0  0  0  0  0  0  0  0  0  0  0
  142.3000   75.0140  220.6700 C   0  0  1  0  0  0  0  0  0  0  0  0
  142.2920   76.3370  220.0460 C   0  0  0  0  0  0  0  0  0  0  0  0
  141.6610   77.3840  220.6820 C   0  0  0  0  0  0  0  0  0  0  0  0
  141.6580   78.6260  220.0850 C   0  0  0  0  0  0  0  0  0  0  0  0
  142.2670   78.8730  218.8640 C   0  0  0  0  0  0  0  0  0  0  0  0
  142.2420   80.1250  218.3030 O   0  0  0  0  0  0  0  0  0  0  0  0
  141.4180   81.1700  218.7940 C   0  0  0  0  0  0  0  0  0  0  0  0
  141.6050   82.2880  217.9970 F   0  0  0  0  0  0  0  0  0  0  0  0
  140.1020   80.7800  218.7110 F   0  0  0  0  0  0  0  0  0  0  0  0
  141.8070   81.4640  220.0900 F   0  0  0  0  0  0  0  0  0  0  0  0
  142.8900   77.7990  218.2530 C   0  0  0  0  0  0  0  0  0  0  0  0
  142.9150   76.5370  218.8200 C   0  0  0  0  0  0  0  0  0  0  0  0
  139.3920   71.4520  223.0400 C   0  0  0  0  0  0  0  0  0  0  0  0
  139.0070   70.1300  222.9260 C   0  0  0  0  0  0  0  0  0  0  0  0
  139.2130   69.2130  223.9550 C   0  0  0  0  0  0  0  0  0  0  0  0
  139.8280   69.7130  225.0940 C   0  0  0  0  0  0  0  0  0  0  0  0
  140.0850   68.8970  226.1800 C   0  0  0  0  0  0  0  0  0  0  0  0
  140.6970   69.3890  227.3160 C   0  0  0  0  0  0  0  0  0  0  0  0
  141.0260   68.3490  228.7020 Cl  0  0  0  0  0  0  0  0  0  0  0  0
  141.0770   70.7130  227.4150 C   0  0  0  0  0  0  0  0  0  0  0  0
  140.8260   71.5510  226.3290 C   0  0  0  0  0  0  0  0  0  0  0  0
  140.2140   71.0330  225.2070 C   0  0  0  0  0  0  0  0  0  0  0  0
  139.9920   71.8830  224.1860 N   0  0  0  0  0  0  0  0  0  0  0  0
  139.5640   74.0810  223.1550 H   0  0  0  0  0  0  0  0  0  0  0  0
  138.0200   74.7935  220.8467 H   0  0  0  0  0  0  0  0  0  0  0  0
  139.3454   75.7808  221.5227 H   0  0  0  0  0  0  0  0  0  0  0  0
  141.9034   72.1526  220.7419 H   0  0  0  0  0  0  0  0  0  0  0  0
  141.3656   72.2416  219.0827 H   0  0  0  0  0  0  0  0  0  0  0  0
  143.9912   72.3268  219.5628 H   0  0  0  0  0  0  0  0  0  0  0  0
  143.4060   73.4934  218.4129 H   0  0  0  0  0  0  0  0  0  0  0  0
  143.9603   73.8423  221.4312 H   0  0  0  0  0  0  0  0  0  0  0  0
  144.4243   74.9461  220.1399 H   0  0  0  0  0  0  0  0  0  0  0  0
  142.0946   75.2628  221.7216 H   0  0  0  0  0  0  0  0  0  0  0  0
  141.1666   77.2305  221.6526 H   0  0  0  0  0  0  0  0  0  0  0  0
  141.1512   79.4563  220.5986 H   0  0  0  0  0  0  0  0  0  0  0  0
  143.3829   77.9540  217.2819 H   0  0  0  0  0  0  0  0  0  0  0  0
  143.4203   75.7048  218.3081 H   0  0  0  0  0  0  0  0  0  0  0  0
  138.5244   69.7918  221.9971 H   0  0  0  0  0  0  0  0  0  0  0  0
  138.9075   68.1597  223.8697 H   0  0  0  0  0  0  0  0  0  0  0  0
  139.7967   67.8363  226.1384 H   0  0  0  0  0  0  0  0  0  0  0  0
  141.5636   71.0955  228.3243 H   0  0  0  0  0  0  0  0  0  0  0  0
  141.1127   72.6123  226.3669 H   0  0  0  0  0  0  0  0  0  0  0  0
  1  2  2  0
  2  3  1  0
  3  4  1  0
  4  5  1  0
  5  6  2  0
  5  7  1  0
  7  8  1  0
  8  9  1  0
  9 10  1  0
 10 11  1  0
 11 12  1  0
 12 13  2  0
 13 14  1  0
 14 15  2  0
 15 16  1  0
 16 17  1  0
 17 18  1  0
 17 19  1  0
 17 20  1  0
 15 21  1  0
 21 22  2  0
  2 23  1  0
 23 24  2  0
 24 25  1  0
 25 26  2  0
 26 27  1  0
 27 28  2  0
 28 29  1  0
 28 30  1  0
 30 31  2  0
 31 32  1  0
 32 33  2  0
 11  7  1  0
 22 12  1  0
 33 23  1  0
 32 26  1  0
  3 34  1  0
  4 35  1  0
  4 36  1  0
  8 37  1  0
  8 38  1  0
  9 39  1  0
  9 40  1  0
 10 41  1  0
 10 42  1  0
 11 43  1  1
 13 44  1  0
 14 45  1  0
 21 46  1  0
 22 47  1  0
 24 48  1  0
 25 49  1  0
 27 50  1  0
 30 51  1  0
 31 52  1  0
M  END
>  <smiles>  (75) 
O=C(NCC(=O)N1CCCC1c1ccc(OC(F)(F)F)cc1)c1ccc2cc(Cl)ccc2n1

>  <score_type>  (75) 
oracle

>  <origin>  (75) 
autodockgpu

>  <m_score__min__energy>  (75) 
-7.96

>  <m_primary>  (75) 
energy

>  <rmsd>  (75) 
2.578093029775923

>  <m_score__min__rmsd>  (75) 
2.578093029775923

>  <meeko>  (75) 
{"free_energy": -7.0, "intermolecular_energy": -9.09, "internal_energy": -2.0, "cluster_size": 2, "cluster_id": 5, "rank_in_cluster": 2}

>  <energy>  (75) 
-7.51

>  <cluster_rmsd>  (75) 
0.98

>  <cluster>  (75) 
3

$$$$

     RDKit          3D

 52 55  0  0  0  0  0  0  0  0999 V2000
  140.0090   72.2940  220.6080 O   0  0  0  0  0  0  0  0  0  0  0  0
  139.8690   72.7200  221.7990 C   0  0  0  0  0  0  0  0  0  0  0  0
  139.6810   74.1000  222.0850 N   0  0  0  0  0  0  0  0  0  0  0  0
  139.6370   75.1120  221.0480 C   0  0  0  0  0  0  0  0  0  0  0  0
  138.2110   75.2860  220.6330 C   0  0  0  0  0  0  0  0  0  0  0  0
  137.9090   74.9400  219.4620 O   0  0  0  0  0  0  0  0  0  0  0  0
  137.2540   75.8280  221.5510 N   0  0  0  0  0  0  0  0  0  0  0  0
  136.4050   75.0440  222.4280 C   0  0  0  0  0  0  0  0  0  0  0  0
  136.2440   75.9500  223.6120 C   0  0  0  0  0  0  0  0  0  0  0  0
  136.0890   77.3120  222.9280 C   0  0  0  0  0  0  0  0  0  0  0  0
  137.0110   77.2400  221.7210 C   0  0  1  0  0  0  0  0  0  0  0  0
  138.2160   78.0560  221.8760 C   0  0  0  0  0  0  0  0  0  0  0  0
  139.0250   78.2860  220.7840 C   0  0  0  0  0  0  0  0  0  0  0  0
  140.1580   79.0550  220.9420 C   0  0  0  0  0  0  0  0  0  0  0  0
  140.5230   79.6130  222.1580 C   0  0  0  0  0  0  0  0  0  0  0  0
  141.6590   80.3740  222.2730 O   0  0  0  0  0  0  0  0  0  0  0  0
  142.4580   80.3890  223.4460 C   0  0  0  0  0  0  0  0  0  0  0  0
  142.1100   81.4980  224.1990 F   0  0  0  0  0  0  0  0  0  0  0  0
  142.1980   79.2540  224.1790 F   0  0  0  0  0  0  0  0  0  0  0  0
  143.7860   80.4890  223.0710 F   0  0  0  0  0  0  0  0  0  0  0  0
  139.6880   79.3610  223.2320 C   0  0  0  0  0  0  0  0  0  0  0  0
  138.5420   78.5940  223.1150 C   0  0  0  0  0  0  0  0  0  0  0  0
  139.8980   71.7710  222.9330 C   0  0  0  0  0  0  0  0  0  0  0  0
  139.3840   70.4980  222.7780 C   0  0  0  0  0  0  0  0  0  0  0  0
  139.3900   69.5710  223.8190 C   0  0  0  0  0  0  0  0  0  0  0  0
  139.9440   70.0100  225.0140 C   0  0  0  0  0  0  0  0  0  0  0  0
  140.0050   69.1780  226.1170 C   0  0  0  0  0  0  0  0  0  0  0  0
  140.5550   69.6090  227.3070 C   0  0  0  0  0  0  0  0  0  0  0  0
  140.6360   68.5500  228.7160 Cl  0  0  0  0  0  0  0  0  0  0  0  0
  141.0660   70.8840  227.4470 C   0  0  0  0  0  0  0  0  0  0  0  0
  141.0130   71.7370  226.3450 C   0  0  0  0  0  0  0  0  0  0  0  0
  140.4580   71.2810  225.1670 C   0  0  0  0  0  0  0  0  0  0  0  0
  140.4290   72.1420  224.1330 N   0  0  0  0  0  0  0  0  0  0  0  0
  139.5700   74.3810  223.1050 H   0  0  0  0  0  0  0  0  0  0  0  0
  140.0313   76.0624  221.4368 H   0  0  0  0  0  0  0  0  0  0  0  0
  140.2507   74.8053  220.1882 H   0  0  0  0  0  0  0  0  0  0  0  0
  135.4349   74.8295  221.9559 H   0  0  0  0  0  0  0  0  0  0  0  0
  136.8241   74.0590  222.6812 H   0  0  0  0  0  0  0  0  0  0  0  0
  135.3510   75.6903  224.1994 H   0  0  0  0  0  0  0  0  0  0  0  0
  137.0725   75.8998  224.3339 H   0  0  0  0  0  0  0  0  0  0  0  0
  135.0475   77.4722  222.6125 H   0  0  0  0  0  0  0  0  0  0  0  0
  136.3418   78.1472  223.5977 H   0  0  0  0  0  0  0  0  0  0  0  0
  136.5640   77.6735  220.8142 H   0  0  0  0  0  0  0  0  0  0  0  0
  138.7703   77.8623  219.8013 H   0  0  0  0  0  0  0  0  0  0  0  0
  140.7997   79.2336  220.0666 H   0  0  0  0  0  0  0  0  0  0  0  0
  139.9442   79.7854  224.2139 H   0  0  0  0  0  0  0  0  0  0  0  0
  137.8993   78.4131  223.9892 H   0  0  0  0  0  0  0  0  0  0  0  0
  138.9582   70.2079  221.8061 H   0  0  0  0  0  0  0  0  0  0  0  0
  138.9818   68.5563  223.7012 H   0  0  0  0  0  0  0  0  0  0  0  0
  139.6081   68.1547  226.0445 H   0  0  0  0  0  0  0  0  0  0  0  0
  141.5023   71.2173  228.4002 H   0  0  0  0  0  0  0  0  0  0  0  0
  141.4089   72.7610  226.4141 H   0  0  0  0  0  0  0  0  0  0  0  0
  1  2  2  0
  2  3  1  0
  3  4  1  0
  4  5  1  0
  5  6  2  0
  5  7  1  0
  7  8  1  0
  8  9  1  0
  9 10  1  0
 10 11  1  0
 11 12  1  0
 12 13  2  0
 13 14  1  0
 14 15  2  0
 15 16  1  0
 16 17  1  0
 17 18  1  0
 17 19  1  0
 17 20  1  0
 15 21  1  0
 21 22  2  0
  2 23  1  0
 23 24  2  0
 24 25  1  0
 25 26  2  0
 26 27  1  0
 27 28  2  0
 28 29  1  0
 28 30  1  0
 30 31  2  0
 31 32  1  0
 32 33  2  0
 11  7  1  0
 22 12  1  0
 33 23  1  0
 32 26  1  0
  3 34  1  0
  4 35  1  0
  4 36  1  0
  8 37  1  0
  8 38  1  0
  9 39  1  0
  9 40  1  0
 10 41  1  0
 10 42  1  0
 11 43  1  6
 13 44  1  0
 14 45  1  0
 21 46  1  0
 22 47  1  0
 24 48  1  0
 25 49  1  0
 27 50  1  0
 30 51  1  0
 31 52  1  0
M  END
>  <smiles>  (76) 
O=C(NCC(=O)N1CCCC1c1ccc(OC(F)(F)F)cc1)c1ccc2cc(Cl)ccc2n1

>  <score_type>  (76) 
oracle

>  <origin>  (76) 
autodockgpu

>  <m_score__min__energy>  (76) 
-7.96

>  <m_primary>  (76) 
energy

>  <rmsd>  (76) 
3.659709676114096

>  <m_score__min__rmsd>  (76) 
3.659709676114096

>  <meeko>  (76) 
{"free_energy": -7.29, "intermolecular_energy": -9.37, "internal_energy": -1.65, "cluster_size": 5, "cluster_id": 4, "rank_in_cluster": 3}

>  <energy>  (76) 
-7.24

>  <cluster_rmsd>  (76) 
1.06

>  <cluster>  (76) 
3

$$$$

     RDKit          3D

 52 55  0  0  0  0  0  0  0  0999 V2000
  140.4120   72.2240  220.6170 O   0  0  0  0  0  0  0  0  0  0  0  0
  140.0010   72.6090  221.7580 C   0  0  0  0  0  0  0  0  0  0  0  0
  139.5260   73.9310  221.9780 N   0  0  0  0  0  0  0  0  0  0  0  0
  139.4760   74.9270  220.9260 C   0  0  0  0  0  0  0  0  0  0  0  0
  139.9710   76.2190  221.4900 C   0  0  0  0  0  0  0  0  0  0  0  0
  139.9960   76.3250  222.7440 O   0  0  0  0  0  0  0  0  0  0  0  0
  140.3900   77.2740  220.6160 N   0  0  0  0  0  0  0  0  0  0  0  0
  140.2950   78.6910  220.9150 C   0  0  0  0  0  0  0  0  0  0  0  0
  141.4730   79.2530  220.1780 C   0  0  0  0  0  0  0  0  0  0  0  0
  141.4310   78.4400  218.8810 C   0  0  0  0  0  0  0  0  0  0  0  0
  140.9670   77.0570  219.3110 C   0  0  1  0  0  0  0  0  0  0  0  0
  142.0360   76.0600  219.2710 C   0  0  0  0  0  0  0  0  0  0  0  0
  143.1410   76.2170  220.0800 C   0  0  0  0  0  0  0  0  0  0  0  0
  144.1430   75.2710  220.0340 C   0  0  0  0  0  0  0  0  0  0  0  0
  144.0900   74.1610  219.2040 C   0  0  0  0  0  0  0  0  0  0  0  0
  145.1090   73.2430  219.1880 O   0  0  0  0  0  0  0  0  0  0  0  0
  145.6610   72.6870  220.3720 C   0  0  0  0  0  0  0  0  0  0  0  0
  144.6210   72.3340  221.2170 F   0  0  0  0  0  0  0  0  0  0  0  0
  146.3730   71.5560  220.0460 F   0  0  0  0  0  0  0  0  0  0  0  0
  146.4420   73.6510  220.9860 F   0  0  0  0  0  0  0  0  0  0  0  0
  142.9670   74.0370  218.4060 C   0  0  0  0  0  0  0  0  0  0  0  0
  141.9400   74.9640  218.4230 C   0  0  0  0  0  0  0  0  0  0  0  0
  140.0080   71.6710  222.9030 C   0  0  0  0  0  0  0  0  0  0  0  0
  139.4960   70.3970  222.7510 C   0  0  0  0  0  0  0  0  0  0  0  0
  139.4810   69.4810  223.8010 C   0  0  0  0  0  0  0  0  0  0  0  0
  140.0120   69.9320  225.0010 C   0  0  0  0  0  0  0  0  0  0  0  0
  140.0520   69.1110  226.1140 C   0  0  0  0  0  0  0  0  0  0  0  0
  140.5800   69.5540  227.3100 C   0  0  0  0  0  0  0  0  0  0  0  0
  140.6330   68.5090  228.7310 Cl  0  0  0  0  0  0  0  0  0  0  0  0
  141.0890   70.8310  227.4470 C   0  0  0  0  0  0  0  0  0  0  0  0
  141.0570   71.6720  226.3350 C   0  0  0  0  0  0  0  0  0  0  0  0
  140.5250   71.2040  225.1510 C   0  0  0  0  0  0  0  0  0  0  0  0
  140.5160   72.0540  224.1080 N   0  0  0  0  0  0  0  0  0  0  0  0
  139.1970   74.1790  222.9590 H   0  0  0  0  0  0  0  0  0  0  0  0
  140.1159   74.6163  220.0870 H   0  0  0  0  0  0  0  0  0  0  0  0
  138.4464   75.0409  220.5560 H   0  0  0  0  0  0  0  0  0  0  0  0
  139.3516   79.1148  220.5403 H   0  0  0  0  0  0  0  0  0  0  0  0
  140.3015   78.9152  221.9919 H   0  0  0  0  0  0  0  0  0  0  0  0
  141.3504   80.3286  219.9832 H   0  0  0  0  0  0  0  0  0  0  0  0
  142.4242   79.1789  220.7255 H   0  0  0  0  0  0  0  0  0  0  0  0
  140.7211   78.8835  218.1673 H   0  0  0  0  0  0  0  0  0  0  0  0
  142.4062   78.4139  218.3729 H   0  0  0  0  0  0  0  0  0  0  0  0
  140.2294   76.6190  218.6224 H   0  0  0  0  0  0  0  0  0  0  0  0
  143.2222   77.0840  220.7522 H   0  0  0  0  0  0  0  0  0  0  0  0
  145.0215   75.4021  220.6829 H   0  0  0  0  0  0  0  0  0  0  0  0
  142.8876   73.1701  217.7336 H   0  0  0  0  0  0  0  0  0  0  0  0
  141.0607   74.8350  217.7748 H   0  0  0  0  0  0  0  0  0  0  0  0
  139.0889   70.0973  221.7741 H   0  0  0  0  0  0  0  0  0  0  0  0
  139.0743   68.4655  223.6859 H   0  0  0  0  0  0  0  0  0  0  0  0
  139.6560   68.0871  226.0445 H   0  0  0  0  0  0  0  0  0  0  0  0
  141.5071   71.1742  228.4048 H   0  0  0  0  0  0  0  0  0  0  0  0
  141.4514   72.6967  226.4010 H   0  0  0  0  0  0  0  0  0  0  0  0
  1  2  2  0
  2  3  1  0
  3  4  1  0
  4  5  1  0
  5  6  2  0
  5  7  1  0
  7  8  1  0
  8  9  1  0
  9 10  1  0
 10 11  1  0
 11 12  1  0
 12 13  2  0
 13 14  1  0
 14 15  2  0
 15 16  1  0
 16 17  1  0
 17 18  1  0
 17 19  1  0
 17 20  1  0
 15 21  1  0
 21 22  2  0
  2 23  1  0
 23 24  2  0
 24 25  1  0
 25 26  2  0
 26 27  1  0
 27 28  2  0
 28 29  1  0
 28 30  1  0
 30 31  2  0
 31 32  1  0
 32 33  2  0
 11  7  1  0
 22 12  1  0
 33 23  1  0
 32 26  1  0
  3 34  1  0
  4 35  1  0
  4 36  1  0
  8 37  1  0
  8 38  1  0
  9 39  1  0
  9 40  1  0
 10 41  1  0
 10 42  1  0
 11 43  1  6
 13 44  1  0
 14 45  1  0
 21 46  1  0
 22 47  1  0
 24 48  1  0
 25 49  1  0
 27 50  1  0
 30 51  1  0
 31 52  1  0
M  END
>  <smiles>  (77) 
O=C(NCC(=O)N1CCCC1c1ccc(OC(F)(F)F)cc1)c1ccc2cc(Cl)ccc2n1

>  <score_type>  (77) 
oracle

>  <origin>  (77) 
autodockgpu

>  <m_score__min__energy>  (77) 
-7.96

>  <m_primary>  (77) 
energy

>  <rmsd>  (77) 
2.335444256331967

>  <m_score__min__rmsd>  (77) 
2.335444256331967

>  <meeko>  (77) 
{"free_energy": -7.68, "intermolecular_energy": -9.77, "internal_energy": -2.29, "cluster_size": 14, "cluster_id": 3, "rank_in_cluster": 3}

>  <energy>  (77) 
-6.83

>  <cluster_rmsd>  (77) 
1.4

>  <cluster>  (77) 
3

$$$$

     RDKit          3D

 52 55  0  0  0  0  0  0  0  0999 V2000
  141.8540   78.9960  216.6540 O   0  0  0  0  0  0  0  0  0  0  0  0
  142.3050   78.5250  217.7470 C   0  0  0  0  0  0  0  0  0  0  0  0
  142.2840   79.2780  218.9530 N   0  0  0  0  0  0  0  0  0  0  0  0
  141.7520   80.6240  219.0220 C   0  0  0  0  0  0  0  0  0  0  0  0
  140.9340   80.7340  220.2690 C   0  0  0  0  0  0  0  0  0  0  0  0
  139.6980   80.9160  220.1290 O   0  0  0  0  0  0  0  0  0  0  0  0
  141.5610   80.6330  221.5530 N   0  0  0  0  0  0  0  0  0  0  0  0
  141.7760   81.7410  222.4650 C   0  0  0  0  0  0  0  0  0  0  0  0
  141.6850   81.0760  223.8050 C   0  0  0  0  0  0  0  0  0  0  0  0
  142.4290   79.7640  223.5400 C   0  0  0  0  0  0  0  0  0  0  0  0
  142.0630   79.3990  222.1090 C   0  0  1  0  0  0  0  0  0  0  0  0
  141.1390   78.2680  222.0280 C   0  0  0  0  0  0  0  0  0  0  0  0
  141.4450   77.1980  221.2160 C   0  0  0  0  0  0  0  0  0  0  0  0
  140.5670   76.1380  221.1480 C   0  0  0  0  0  0  0  0  0  0  0  0
  139.3800   76.0990  221.8640 C   0  0  0  0  0  0  0  0  0  0  0  0
  138.5320   75.0240  221.7680 O   0  0  0  0  0  0  0  0  0  0  0  0
  138.9960   73.6880  221.6610 C   0  0  0  0  0  0  0  0  0  0  0  0
  140.2100   73.5910  222.3210 F   0  0  0  0  0  0  0  0  0  0  0  0
  138.0910   72.8490  222.2690 F   0  0  0  0  0  0  0  0  0  0  0  0
  139.1800   73.3930  220.3210 F   0  0  0  0  0  0  0  0  0  0  0  0
  139.1050   77.1910  222.6680 C   0  0  0  0  0  0  0  0  0  0  0  0
  139.9600   78.2740  222.7640 C   0  0  0  0  0  0  0  0  0  0  0  0
  142.8710   77.1590  217.7870 C   0  0  0  0  0  0  0  0  0  0  0  0
  143.0840   76.4680  216.6100 C   0  0  0  0  0  0  0  0  0  0  0  0
  143.6140   75.1790  216.6000 C   0  0  0  0  0  0  0  0  0  0  0  0
  143.9130   74.6410  217.8440 C   0  0  0  0  0  0  0  0  0  0  0  0
  144.4450   73.3690  217.9590 C   0  0  0  0  0  0  0  0  0  0  0  0
  144.7440   72.8290  219.1940 C   0  0  0  0  0  0  0  0  0  0  0  0
  145.4230   71.2080  219.3440 Cl  0  0  0  0  0  0  0  0  0  0  0  0
  144.5270   73.5330  220.3620 C   0  0  0  0  0  0  0  0  0  0  0  0
  143.9920   74.8170  220.2650 C   0  0  0  0  0  0  0  0  0  0  0  0
  143.7020   75.3330  219.0190 C   0  0  0  0  0  0  0  0  0  0  0  0
  143.1860   76.5750  218.9780 N   0  0  0  0  0  0  0  0  0  0  0  0
  142.6780   78.8180  219.8270 H   0  0  0  0  0  0  0  0  0  0  0  0
  142.5773   81.3506  219.0516 H   0  0  0  0  0  0  0  0  0  0  0  0
  141.1321   80.8357  218.1383 H   0  0  0  0  0  0  0  0  0  0  0  0
  142.7660   82.1957  222.3126 H   0  0  0  0  0  0  0  0  0  0  0  0
  141.0590   82.5647  222.3331 H   0  0  0  0  0  0  0  0  0  0  0  0
  142.1832   81.6711  224.5845 H   0  0  0  0  0  0  0  0  0  0  0  0
  140.6570   80.9444  224.1737 H   0  0  0  0  0  0  0  0  0  0  0  0
  143.5152   79.9065  223.6389 H   0  0  0  0  0  0  0  0  0  0  0  0
  142.1532   78.9755  224.2557 H   0  0  0  0  0  0  0  0  0  0  0  0
  142.9201   79.0261  221.5290 H   0  0  0  0  0  0  0  0  0  0  0  0
  142.3763   77.1899  220.6307 H   0  0  0  0  0  0  0  0  0  0  0  0
  140.8184   75.2868  220.4982 H   0  0  0  0  0  0  0  0  0  0  0  0
  138.1728   77.1981  223.2519 H   0  0  0  0  0  0  0  0  0  0  0  0
  139.7108   79.1267  223.4127 H   0  0  0  0  0  0  0  0  0  0  0  0
  142.8282   76.9484  215.6541 H   0  0  0  0  0  0  0  0  0  0  0  0
  143.7844   74.6236  215.6659 H   0  0  0  0  0  0  0  0  0  0  0  0
  144.6330   72.7777  217.0507 H   0  0  0  0  0  0  0  0  0  0  0  0
  144.7692   73.0935  221.3408 H   0  0  0  0  0  0  0  0  0  0  0  0
  143.8035   75.4113  221.1712 H   0  0  0  0  0  0  0  0  0  0  0  0
  1  2  2  0
  2  3  1  0
  3  4  1  0
  4  5  1  0
  5  6  2  0
  5  7  1  0
  7  8  1  0
  8  9  1  0
  9 10  1  0
 10 11  1  0
 11 12  1  0
 12 13  2  0
 13 14  1  0
 14 15  2  0
 15 16  1  0
 16 17  1  0
 17 18  1  0
 17 19  1  0
 17 20  1  0
 15 21  1  0
 21 22  2  0
  2 23  1  0
 23 24  2  0
 24 25  1  0
 25 26  2  0
 26 27  1  0
 27 28  2  0
 28 29  1  0
 28 30  1  0
 30 31  2  0
 31 32  1  0
 32 33  2  0
 11  7  1  0
 22 12  1  0
 33 23  1  0
 32 26  1  0
  3 34  1  0
  4 35  1  0
  4 36  1  0
  8 37  1  0
  8 38  1  0
  9 39  1  0
  9 40  1  0
 10 41  1  0
 10 42  1  0
 11 43  1  6
 13 44  1  0
 14 45  1  0
 21 46  1  0
 22 47  1  0
 24 48  1  0
 25 49  1  0
 27 50  1  0
 30 51  1  0
 31 52  1  0
M  END
>  <smiles>  (78) 
O=C(NCC(=O)N1CCCC1c1ccc(OC(F)(F)F)cc1)c1ccc2cc(Cl)ccc2n1

>  <score_type>  (78) 
oracle

>  <origin>  (78) 
autodockgpu

>  <m_score__min__energy>  (78) 
-7.96

>  <m_primary>  (78) 
energy

>  <rmsd>  (78) 
8.605201923077983

>  <m_score__min__rmsd>  (78) 
8.605201923077983

>  <meeko>  (78) 
{"free_energy": -6.44, "intermolecular_energy": -8.52, "internal_energy": -2.51, "cluster_size": 8, "cluster_id": 7, "rank_in_cluster": 5}

>  <energy>  (78) 
-6.71

>  <cluster_rmsd>  (78) 
1.31

>  <cluster>  (78) 
3

$$$$

     RDKit          3D

 52 55  0  0  0  0  0  0  0  0999 V2000
  137.9530   70.9240  221.2720 O   0  0  0  0  0  0  0  0  0  0  0  0
  138.5260   71.4680  222.2700 C   0  0  0  0  0  0  0  0  0  0  0  0
  138.7660   72.8690  222.3240 N   0  0  0  0  0  0  0  0  0  0  0  0
  138.3780   73.7690  221.2560 C   0  0  0  0  0  0  0  0  0  0  0  0
  138.6060   75.1690  221.7260 C   0  0  0  0  0  0  0  0  0  0  0  0
  139.5620   75.3580  222.5220 O   0  0  0  0  0  0  0  0  0  0  0  0
  137.7560   76.2290  221.2730 N   0  0  0  0  0  0  0  0  0  0  0  0
  136.3090   76.1630  221.1990 C   0  0  0  0  0  0  0  0  0  0  0  0
  135.9090   77.5850  221.4550 C   0  0  0  0  0  0  0  0  0  0  0  0
  136.9750   78.3440  220.6600 C   0  0  0  0  0  0  0  0  0  0  0  0
  138.2390   77.5140  220.8270 C   0  0  1  0  0  0  0  0  0  0  0  0
  139.2190   78.1420  221.7130 C   0  0  0  0  0  0  0  0  0  0  0  0
  140.5620   78.0540  221.4120 C   0  0  0  0  0  0  0  0  0  0  0  0
  141.4760   78.6490  222.2540 C   0  0  0  0  0  0  0  0  0  0  0  0
  141.1050   79.3380  223.3980 C   0  0  0  0  0  0  0  0  0  0  0  0
  142.0470   79.9170  224.2110 O   0  0  0  0  0  0  0  0  0  0  0  0
  142.7620   81.0870  223.8450 C   0  0  0  0  0  0  0  0  0  0  0  0
  142.6020   82.0300  224.8460 F   0  0  0  0  0  0  0  0  0  0  0  0
  144.0980   80.7790  223.7340 F   0  0  0  0  0  0  0  0  0  0  0  0
  142.2280   81.5770  222.6660 F   0  0  0  0  0  0  0  0  0  0  0  0
  139.7500   79.4060  223.6690 C   0  0  0  0  0  0  0  0  0  0  0  0
  138.8010   78.8220  222.8500 C   0  0  0  0  0  0  0  0  0  0  0  0
  138.9620   70.6410  223.4160 C   0  0  0  0  0  0  0  0  0  0  0  0
  138.7150   69.2820  223.4160 C   0  0  0  0  0  0  0  0  0  0  0  0
  139.1070   68.4640  224.4740 C   0  0  0  0  0  0  0  0  0  0  0  0
  139.7590   69.1030  225.5200 C   0  0  0  0  0  0  0  0  0  0  0  0
  140.1960   68.3940  226.6250 C   0  0  0  0  0  0  0  0  0  0  0  0
  140.8440   69.0240  227.6680 C   0  0  0  0  0  0  0  0  0  0  0  0
  141.4020   68.1220  229.0770 Cl  0  0  0  0  0  0  0  0  0  0  0  0
  141.0850   70.3840  227.6530 C   0  0  0  0  0  0  0  0  0  0  0  0
  140.6520   71.1150  226.5470 C   0  0  0  0  0  0  0  0  0  0  0  0
  140.0060   70.4600  225.5180 C   0  0  0  0  0  0  0  0  0  0  0  0
  139.6070   71.2100  224.4730 N   0  0  0  0  0  0  0  0  0  0  0  0
  139.2480   73.2530  223.1910 H   0  0  0  0  0  0  0  0  0  0  0  0
  138.9873   73.5716  220.3617 H   0  0  0  0  0  0  0  0  0  0  0  0
  137.3193   73.6206  220.9970 H   0  0  0  0  0  0  0  0  0  0  0  0
  135.9761   75.8286  220.2054 H   0  0  0  0  0  0  0  0  0  0  0  0
  135.8647   75.4471  221.9062 H   0  0  0  0  0  0  0  0  0  0  0  0
  134.8982   77.7937  221.0746 H   0  0  0  0  0  0  0  0  0  0  0  0
  135.8636   77.8555  222.5203 H   0  0  0  0  0  0  0  0  0  0  0  0
  136.6928   78.4131  219.5991 H   0  0  0  0  0  0  0  0  0  0  0  0
  137.1038   79.3774  221.0144 H   0  0  0  0  0  0  0  0  0  0  0  0
  138.8134   77.4159  219.8940 H   0  0  0  0  0  0  0  0  0  0  0  0
  140.8985   77.5168  220.5130 H   0  0  0  0  0  0  0  0  0  0  0  0
  142.5455   78.5740  222.0079 H   0  0  0  0  0  0  0  0  0  0  0  0
  139.4155   79.9439  224.5683 H   0  0  0  0  0  0  0  0  0  0  0  0
  137.7311   78.8948  223.0952 H   0  0  0  0  0  0  0  0  0  0  0  0
  138.1945   68.8330  222.5572 H   0  0  0  0  0  0  0  0  0  0  0  0
  138.9123   67.3814  224.4800 H   0  0  0  0  0  0  0  0  0  0  0  0
  140.0238   67.3086  226.6730 H   0  0  0  0  0  0  0  0  0  0  0  0
  141.6034   70.8762  228.4891 H   0  0  0  0  0  0  0  0  0  0  0  0
  140.8232   72.2004  226.4953 H   0  0  0  0  0  0  0  0  0  0  0  0
  1  2  2  0
  2  3  1  0
  3  4  1  0
  4  5  1  0
  5  6  2  0
  5  7  1  0
  7  8  1  0
  8  9  1  0
  9 10  1  0
 10 11  1  0
 11 12  1  0
 12 13  2  0
 13 14  1  0
 14 15  2  0
 15 16  1  0
 16 17  1  0
 17 18  1  0
 17 19  1  0
 17 20  1  0
 15 21  1  0
 21 22  2  0
  2 23  1  0
 23 24  2  0
 24 25  1  0
 25 26  2  0
 26 27  1  0
 27 28  2  0
 28 29  1  0
 28 30  1  0
 30 31  2  0
 31 32  1  0
 32 33  2  0
 11  7  1  0
 22 12  1  0
 33 23  1  0
 32 26  1  0
  3 34  1  0
  4 35  1  0
  4 36  1  0
  8 37  1  0
  8 38  1  0
  9 39  1  0
  9 40  1  0
 10 41  1  0
 10 42  1  0
 11 43  1  6
 13 44  1  0
 14 45  1  0
 21 46  1  0
 22 47  1  0
 24 48  1  0
 25 49  1  0
 27 50  1  0
 30 51  1  0
 31 52  1  0
M  END
>  <smiles>  (79) 
O=C(NCC(=O)N1CCCC1c1ccc(OC(F)(F)F)cc1)c1ccc2cc(Cl)ccc2n1

>  <score_type>  (79) 
oracle

>  <origin>  (79) 
autodockgpu

>  <m_score__min__energy>  (79) 
-7.96

>  <m_primary>  (79) 
energy

>  <rmsd>  (79) 
2.5916571374401762

>  <m_score__min__rmsd>  (79) 
2.5916571374401762

>  <meeko>  (79) 
{"free_energy": -7.75, "intermolecular_energy": -9.84, "internal_energy": -2.26, "cluster_size": 5, "cluster_id": 4, "rank_in_cluster": 1}

>  <energy>  (79) 
-7.75

>  <cluster_rmsd>  (79) 
0.0

>  <cluster>  (79) 
4

$$$$

     RDKit          3D

 52 55  0  0  0  0  0  0  0  0999 V2000
  140.1890   78.8880  219.0210 O   0  0  0  0  0  0  0  0  0  0  0  0
  141.2520   78.4830  219.5920 C   0  0  0  0  0  0  0  0  0  0  0  0
  142.0450   79.3440  220.4000 N   0  0  0  0  0  0  0  0  0  0  0  0
  141.7010   80.7330  220.6300 C   0  0  0  0  0  0  0  0  0  0  0  0
  141.4310   80.9070  222.0900 C   0  0  0  0  0  0  0  0  0  0  0  0
  142.4290   80.9590  222.8550 O   0  0  0  0  0  0  0  0  0  0  0  0
  140.0840   81.0050  222.5670 N   0  0  0  0  0  0  0  0  0  0  0  0
  139.1550   82.0660  222.2270 C   0  0  0  0  0  0  0  0  0  0  0  0
  137.8330   81.3600  222.2700 C   0  0  0  0  0  0  0  0  0  0  0  0
  138.0120   80.4630  223.4990 C   0  0  0  0  0  0  0  0  0  0  0  0
  139.4750   80.0480  223.4590 C   0  0  1  0  0  0  0  0  0  0  0  0
  139.6590   78.6480  223.0760 C   0  0  0  0  0  0  0  0  0  0  0  0
  138.5630   77.8910  222.7240 C   0  0  0  0  0  0  0  0  0  0  0  0
  138.7480   76.5730  222.3660 C   0  0  0  0  0  0  0  0  0  0  0  0
  139.9960   75.9700  222.3410 C   0  0  0  0  0  0  0  0  0  0  0  0
  140.1380   74.6540  221.9770 O   0  0  0  0  0  0  0  0  0  0  0  0
  139.1960   73.9780  221.1600 C   0  0  0  0  0  0  0  0  0  0  0  0
  138.1250   73.5940  221.9510 F   0  0  0  0  0  0  0  0  0  0  0  0
  138.7440   74.8400  220.1880 F   0  0  0  0  0  0  0  0  0  0  0  0
  139.8010   72.8500  220.6330 F   0  0  0  0  0  0  0  0  0  0  0  0
  141.0740   76.7600  222.7000 C   0  0  0  0  0  0  0  0  0  0  0  0
  140.9300   78.0860  223.0670 C   0  0  0  0  0  0  0  0  0  0  0  0
  141.6950   77.0820  219.4230 C   0  0  0  0  0  0  0  0  0  0  0  0
  140.9240   76.2000  218.6910 C   0  0  0  0  0  0  0  0  0  0  0  0
  141.3000   74.8720  218.5070 C   0  0  0  0  0  0  0  0  0  0  0  0
  142.4960   74.4960  219.1050 C   0  0  0  0  0  0  0  0  0  0  0  0
  142.9720   73.2020  218.9900 C   0  0  0  0  0  0  0  0  0  0  0  0
  144.1600   72.8230  219.5820 C   0  0  0  0  0  0  0  0  0  0  0  0
  144.7710   71.1750  219.4370 Cl  0  0  0  0  0  0  0  0  0  0  0  0
  144.9210   73.7160  220.3110 C   0  0  0  0  0  0  0  0  0  0  0  0
  144.4560   75.0250  220.4370 C   0  0  0  0  0  0  0  0  0  0  0  0
  143.2660   75.3770  219.8350 C   0  0  0  0  0  0  0  0  0  0  0  0
  142.8600   76.6520  219.9860 N   0  0  0  0  0  0  0  0  0  0  0  0
  142.9200   78.9340  220.8450 H   0  0  0  0  0  0  0  0  0  0  0  0
  142.5369   81.3799  220.3254 H   0  0  0  0  0  0  0  0  0  0  0  0
  140.8133   81.0090  220.0419 H   0  0  0  0  0  0  0  0  0  0  0  0
  139.1950   82.8817  222.9639 H   0  0  0  0  0  0  0  0  0  0  0  0
  139.3676   82.5439  221.2593 H   0  0  0  0  0  0  0  0  0  0  0  0
  137.0024   82.0683  222.4059 H   0  0  0  0  0  0  0  0  0  0  0  0
  137.5826   80.8157  221.3475 H   0  0  0  0  0  0  0  0  0  0  0  0
  137.7909   81.0194  224.4218 H   0  0  0  0  0  0  0  0  0  0  0  0
  137.3319   79.5985  223.4880 H   0  0  0  0  0  0  0  0  0  0  0  0
  139.9548   80.0722  224.4485 H   0  0  0  0  0  0  0  0  0  0  0  0
  137.5553   78.3320  222.7286 H   0  0  0  0  0  0  0  0  0  0  0  0
  137.8681   75.9742  222.0883 H   0  0  0  0  0  0  0  0  0  0  0  0
  142.0812   76.3179  222.6933 H   0  0  0  0  0  0  0  0  0  0  0  0
  141.8080   78.6863  223.3474 H   0  0  0  0  0  0  0  0  0  0  0  0
  139.9861   76.5570  218.2405 H   0  0  0  0  0  0  0  0  0  0  0  0
  140.6891   74.1659  217.9254 H   0  0  0  0  0  0  0  0  0  0  0  0
  142.3937   72.4624  218.4169 H   0  0  0  0  0  0  0  0  0  0  0  0
  145.8664   73.4039  220.7787 H   0  0  0  0  0  0  0  0  0  0  0  0
  145.0313   75.7675  221.0095 H   0  0  0  0  0  0  0  0  0  0  0  0
  1  2  2  0
  2  3  1  0
  3  4  1  0
  4  5  1  0
  5  6  2  0
  5  7  1  0
  7  8  1  0
  8  9  1  0
  9 10  1  0
 10 11  1  0
 11 12  1  0
 12 13  2  0
 13 14  1  0
 14 15  2  0
 15 16  1  0
 16 17  1  0
 17 18  1  0
 17 19  1  0
 17 20  1  0
 15 21  1  0
 21 22  2  0
  2 23  1  0
 23 24  2  0
 24 25  1  0
 25 26  2  0
 26 27  1  0
 27 28  2  0
 28 29  1  0
 28 30  1  0
 30 31  2  0
 31 32  1  0
 32 33  2  0
 11  7  1  0
 22 12  1  0
 33 23  1  0
 32 26  1  0
  3 34  1  0
  4 35  1  0
  4 36  1  0
  8 37  1  0
  8 38  1  0
  9 39  1  0
  9 40  1  0
 10 41  1  0
 10 42  1  0
 11 43  1  1
 13 44  1  0
 14 45  1  0
 21 46  1  0
 22 47  1  0
 24 48  1  0
 25 49  1  0
 27 50  1  0
 30 51  1  0
 31 52  1  0
M  END
>  <smiles>  (80) 
O=C(NCC(=O)N1CCCC1c1ccc(OC(F)(F)F)cc1)c1ccc2cc(Cl)ccc2n1

>  <score_type>  (80) 
oracle

>  <origin>  (80) 
autodockgpu

>  <m_score__min__energy>  (80) 
-7.96

>  <m_primary>  (80) 
energy

>  <rmsd>  (80) 
8.034059296493387

>  <m_score__min__rmsd>  (80) 
8.034059296493387

>  <meeko>  (80) 
{"free_energy": -6.16, "intermolecular_energy": -8.25, "internal_energy": -3.32, "cluster_size": 8, "cluster_id": 7, "rank_in_cluster": 7}

>  <energy>  (80) 
-7.73

>  <cluster_rmsd>  (80) 
0.19

>  <cluster>  (80) 
4

$$$$

     RDKit          3D

 52 55  0  0  0  0  0  0  0  0999 V2000
  139.2300   71.5470  220.7170 O   0  0  0  0  0  0  0  0  0  0  0  0
  139.4270   72.0280  221.8790 C   0  0  0  0  0  0  0  0  0  0  0  0
  139.5260   73.4280  222.1050 N   0  0  0  0  0  0  0  0  0  0  0  0
  139.4100   74.4010  221.0360 C   0  0  0  0  0  0  0  0  0  0  0  0
  140.0420   75.6730  221.4990 C   0  0  0  0  0  0  0  0  0  0  0  0
  139.9660   75.9380  222.7270 O   0  0  0  0  0  0  0  0  0  0  0  0
  140.6990   76.5350  220.5620 N   0  0  0  0  0  0  0  0  0  0  0  0
  140.7110   76.3460  219.1240 C   0  0  0  0  0  0  0  0  0  0  0  0
  140.7740   77.7550  218.6160 C   0  0  0  0  0  0  0  0  0  0  0  0
  141.7540   78.3880  219.6090 C   0  0  0  0  0  0  0  0  0  0  0  0
  141.4410   77.7150  220.9360 C   0  0  1  0  0  0  0  0  0  0  0  0
  140.7520   78.6010  221.8750 C   0  0  0  0  0  0  0  0  0  0  0  0
  141.4250   79.0730  222.9810 C   0  0  0  0  0  0  0  0  0  0  0  0
  140.7660   79.9060  223.8590 C   0  0  0  0  0  0  0  0  0  0  0  0
  139.4480   80.2950  223.6780 C   0  0  0  0  0  0  0  0  0  0  0  0
  138.8280   81.1280  224.5760 O   0  0  0  0  0  0  0  0  0  0  0  0
  137.4280   81.3610  224.5680 C   0  0  0  0  0  0  0  0  0  0  0  0
  137.0910   82.0510  225.7210 F   0  0  0  0  0  0  0  0  0  0  0  0
  137.1100   82.1350  223.4770 F   0  0  0  0  0  0  0  0  0  0  0  0
  136.7800   80.1380  224.5620 F   0  0  0  0  0  0  0  0  0  0  0  0
  138.8040   79.8030  222.5580 C   0  0  0  0  0  0  0  0  0  0  0  0
  139.4300   78.9630  221.6530 C   0  0  0  0  0  0  0  0  0  0  0  0
  139.5600   71.1230  223.0420 C   0  0  0  0  0  0  0  0  0  0  0  0
  139.0940   69.8250  222.9600 C   0  0  0  0  0  0  0  0  0  0  0  0
  139.1970   68.9380  224.0300 C   0  0  0  0  0  0  0  0  0  0  0  0
  139.7970   69.4430  225.1750 C   0  0  0  0  0  0  0  0  0  0  0  0
  139.9560   68.6550  226.3010 C   0  0  0  0  0  0  0  0  0  0  0  0
  140.5520   69.1520  227.4430 C   0  0  0  0  0  0  0  0  0  0  0  0
  140.7560   68.1490  228.8800 Cl  0  0  0  0  0  0  0  0  0  0  0  0
  141.0140   70.4520  227.5100 C   0  0  0  0  0  0  0  0  0  0  0  0
  140.8630   71.2610  226.3830 C   0  0  0  0  0  0  0  0  0  0  0  0
  140.2640   70.7390  225.2550 C   0  0  0  0  0  0  0  0  0  0  0  0
  140.1400   71.5590  224.1950 N   0  0  0  0  0  0  0  0  0  0  0  0
  139.6900   73.7560  223.1040 H   0  0  0  0  0  0  0  0  0  0  0  0
  139.9274   74.0324  220.1380 H   0  0  0  0  0  0  0  0  0  0  0  0
  138.3522   74.5690  220.7853 H   0  0  0  0  0  0  0  0  0  0  0  0
  141.5913   75.7682  218.8057 H   0  0  0  0  0  0  0  0  0  0  0  0
  139.8459   75.7807  218.7472 H   0  0  0  0  0  0  0  0  0  0  0  0
  141.1609   77.7953  217.5871 H   0  0  0  0  0  0  0  0  0  0  0  0
  139.7977   78.2590  218.5629 H   0  0  0  0  0  0  0  0  0  0  0  0
  142.7936   78.1903  219.3086 H   0  0  0  0  0  0  0  0  0  0  0  0
  141.6489   79.4818  219.6602 H   0  0  0  0  0  0  0  0  0  0  0  0
  142.3441   77.4478  221.5043 H   0  0  0  0  0  0  0  0  0  0  0  0
  142.4725   78.7891  223.1603 H   0  0  0  0  0  0  0  0  0  0  0  0
  141.3088   80.2778  224.7405 H   0  0  0  0  0  0  0  0  0  0  0  0
  137.7570   80.0891  222.3796 H   0  0  0  0  0  0  0  0  0  0  0  0
  138.8886   78.5882  220.7719 H   0  0  0  0  0  0  0  0  0  0  0  0
  138.6287   69.4821  222.0241 H   0  0  0  0  0  0  0  0  0  0  0  0
  138.8265   67.9040  223.9708 H   0  0  0  0  0  0  0  0  0  0  0  0
  139.6012   67.6139  226.2862 H   0  0  0  0  0  0  0  0  0  0  0  0
  141.4871   70.8383  228.4249 H   0  0  0  0  0  0  0  0  0  0  0  0
  141.2173   72.3023  226.3938 H   0  0  0  0  0  0  0  0  0  0  0  0
  1  2  2  0
  2  3  1  0
  3  4  1  0
  4  5  1  0
  5  6  2  0
  5  7  1  0
  7  8  1  0
  8  9  1  0
  9 10  1  0
 10 11  1  0
 11 12  1  0
 12 13  2  0
 13 14  1  0
 14 15  2  0
 15 16  1  0
 16 17  1  0
 17 18  1  0
 17 19  1  0
 17 20  1  0
 15 21  1  0
 21 22  2  0
  2 23  1  0
 23 24  2  0
 24 25  1  0
 25 26  2  0
 26 27  1  0
 27 28  2  0
 28 29  1  0
 28 30  1  0
 30 31  2  0
 31 32  1  0
 32 33  2  0
 11  7  1  0
 22 12  1  0
 33 23  1  0
 32 26  1  0
  3 34  1  0
  4 35  1  0
  4 36  1  0
  8 37  1  0
  8 38  1  0
  9 39  1  0
  9 40  1  0
 10 41  1  0
 10 42  1  0
 11 43  1  1
 13 44  1  0
 14 45  1  0
 21 46  1  0
 22 47  1  0
 24 48  1  0
 25 49  1  0
 27 50  1  0
 30 51  1  0
 31 52  1  0
M  END
>  <smiles>  (81) 
O=C(NCC(=O)N1CCCC1c1ccc(OC(F)(F)F)cc1)c1ccc2cc(Cl)ccc2n1

>  <score_type>  (81) 
oracle

>  <origin>  (81) 
autodockgpu

>  <m_score__min__energy>  (81) 
-7.96

>  <m_primary>  (81) 
energy

>  <rmsd>  (81) 
1.4182871477674113

>  <m_score__min__rmsd>  (81) 
1.4182871477674113

>  <meeko>  (81) 
{"free_energy": -7.82, "intermolecular_energy": -9.91, "internal_energy": -2.17, "cluster_size": 9, "cluster_id": 1, "rank_in_cluster": 3}

>  <energy>  (81) 
-7.29

>  <cluster_rmsd>  (81) 
1.43

>  <cluster>  (81) 
4

$$$$

     RDKit          3D

 52 55  0  0  0  0  0  0  0  0999 V2000
  140.0900   72.3230  220.6360 O   0  0  0  0  0  0  0  0  0  0  0  0
  139.9050   72.7490  221.8210 C   0  0  0  0  0  0  0  0  0  0  0  0
  139.7150   74.1300  222.1000 N   0  0  0  0  0  0  0  0  0  0  0  0
  139.7180   75.1430  221.0630 C   0  0  0  0  0  0  0  0  0  0  0  0
  141.1410   75.4870  220.7580 C   0  0  0  0  0  0  0  0  0  0  0  0
  142.0290   74.7600  221.2740 O   0  0  0  0  0  0  0  0  0  0  0  0
  141.4480   76.6020  219.9140 N   0  0  0  0  0  0  0  0  0  0  0  0
  141.3690   76.5980  218.4650 C   0  0  0  0  0  0  0  0  0  0  0  0
  141.0030   78.0190  218.1590 C   0  0  0  0  0  0  0  0  0  0  0  0
  141.8720   78.7750  219.1690 C   0  0  0  0  0  0  0  0  0  0  0  0
  141.8820   77.8880  220.4050 C   0  0  1  0  0  0  0  0  0  0  0  0
  141.0770   78.4300  221.5010 C   0  0  0  0  0  0  0  0  0  0  0  0
  141.7040   78.8990  222.6350 C   0  0  0  0  0  0  0  0  0  0  0  0
  140.9360   79.4060  223.6620 C   0  0  0  0  0  0  0  0  0  0  0  0
  139.5520   79.4670  223.6040 C   0  0  0  0  0  0  0  0  0  0  0  0
  138.8240   79.9800  224.6480 O   0  0  0  0  0  0  0  0  0  0  0  0
  137.7700   80.9110  224.4650 C   0  0  0  0  0  0  0  0  0  0  0  0
  138.0830   81.7220  223.3860 F   0  0  0  0  0  0  0  0  0  0  0  0
  136.6110   80.2260  224.1840 F   0  0  0  0  0  0  0  0  0  0  0  0
  137.6670   81.6890  225.6050 F   0  0  0  0  0  0  0  0  0  0  0  0
  138.9580   78.9880  222.4510 C   0  0  0  0  0  0  0  0  0  0  0  0
  139.6920   78.4700  221.3990 C   0  0  0  0  0  0  0  0  0  0  0  0
  139.8830   71.8000  222.9550 C   0  0  0  0  0  0  0  0  0  0  0  0
  139.2660   70.5720  222.8120 C   0  0  0  0  0  0  0  0  0  0  0  0
  139.2200   69.6460  223.8520 C   0  0  0  0  0  0  0  0  0  0  0  0
  139.8320   70.0380  225.0350 C   0  0  0  0  0  0  0  0  0  0  0  0
  139.8500   69.2030  226.1370 C   0  0  0  0  0  0  0  0  0  0  0  0
  140.4570   69.5870  227.3160 C   0  0  0  0  0  0  0  0  0  0  0  0
  140.4830   68.5240  228.7230 Cl  0  0  0  0  0  0  0  0  0  0  0  0
  141.0700   70.8190  227.4440 C   0  0  0  0  0  0  0  0  0  0  0  0
  141.0610   71.6740  226.3430 C   0  0  0  0  0  0  0  0  0  0  0  0
  140.4480   71.2640  225.1770 C   0  0  0  0  0  0  0  0  0  0  0  0
  140.4660   72.1260  224.1430 N   0  0  0  0  0  0  0  0  0  0  0  0
  139.5650   74.4120  223.1150 H   0  0  0  0  0  0  0  0  0  0  0  0
  139.2260   74.7538  220.1594 H   0  0  0  0  0  0  0  0  0  0  0  0
  139.1723   76.0367  221.3999 H   0  0  0  0  0  0  0  0  0  0  0  0
  142.3361   76.3302  218.0144 H   0  0  0  0  0  0  0  0  0  0  0  0
  140.6536   75.8640  218.0657 H   0  0  0  0  0  0  0  0  0  0  0  0
  141.2615   78.2878  217.1241 H   0  0  0  0  0  0  0  0  0  0  0  0
  139.9274   78.2350  218.2385 H   0  0  0  0  0  0  0  0  0  0  0  0
  142.8918   78.9102  218.7796 H   0  0  0  0  0  0  0  0  0  0  0  0
  141.4848   79.7825  219.3813 H   0  0  0  0  0  0  0  0  0  0  0  0
  142.8749   77.8159  220.8729 H   0  0  0  0  0  0  0  0  0  0  0  0
  142.8003   78.8694  222.7197 H   0  0  0  0  0  0  0  0  0  0  0  0
  141.4425   79.7776  224.5650 H   0  0  0  0  0  0  0  0  0  0  0  0
  137.8617   79.0200  222.3671 H   0  0  0  0  0  0  0  0  0  0  0  0
  139.1871   78.0958  220.4962 H   0  0  0  0  0  0  0  0  0  0  0  0
  138.7977   70.3182  221.8495 H   0  0  0  0  0  0  0  0  0  0  0  0
  138.7302   68.6671  223.7428 H   0  0  0  0  0  0  0  0  0  0  0  0
  139.3718   68.2144  226.0731 H   0  0  0  0  0  0  0  0  0  0  0  0
  141.5511   71.1163  228.3874 H   0  0  0  0  0  0  0  0  0  0  0  0
  141.5370   72.6638  226.4032 H   0  0  0  0  0  0  0  0  0  0  0  0
  1  2  2  0
  2  3  1  0
  3  4  1  0
  4  5  1  0
  5  6  2  0
  5  7  1  0
  7  8  1  0
  8  9  1  0
  9 10  1  0
 10 11  1  0
 11 12  1  0
 12 13  2  0
 13 14  1  0
 14 15  2  0
 15 16  1  0
 16 17  1  0
 17 18  1  0
 17 19  1  0
 17 20  1  0
 15 21  1  0
 21 22  2  0
  2 23  1  0
 23 24  2  0
 24 25  1  0
 25 26  2  0
 26 27  1  0
 27 28  2  0
 28 29  1  0
 28 30  1  0
 30 31  2  0
 31 32  1  0
 32 33  2  0
 11  7  1  0
 22 12  1  0
 33 23  1  0
 32 26  1  0
  3 34  1  0
  4 35  1  0
  4 36  1  0
  8 37  1  0
  8 38  1  0
  9 39  1  0
  9 40  1  0
 10 41  1  0
 10 42  1  0
 11 43  1  1
 13 44  1  0
 14 45  1  0
 21 46  1  0
 22 47  1  0
 24 48  1  0
 25 49  1  0
 27 50  1  0
 30 51  1  0
 31 52  1  0
M  END
>  <smiles>  (82) 
O=C(NCC(=O)N1CCCC1c1ccc(OC(F)(F)F)cc1)c1ccc2cc(Cl)ccc2n1

>  <score_type>  (82) 
oracle

>  <origin>  (82) 
autodockgpu

>  <m_score__min__energy>  (82) 
-7.96

>  <m_primary>  (82) 
energy

>  <rmsd>  (82) 
1.8472740072441398

>  <m_score__min__rmsd>  (82) 
1.8472740072441398

>  <meeko>  (82) 
{"free_energy": -7.96, "intermolecular_energy": -10.04, "internal_energy": -1.64, "cluster_size": 9, "cluster_id": 1, "rank_in_cluster": 1}

>  <energy>  (82) 
-7.17

>  <cluster_rmsd>  (82) 
1.97

>  <cluster>  (82) 
4

$$$$

     RDKit          3D

 52 55  0  0  0  0  0  0  0  0999 V2000
  133.4350   69.9730  226.6470 O   0  0  0  0  0  0  0  0  0  0  0  0
  133.7320   71.0840  226.1010 C   0  0  0  0  0  0  0  0  0  0  0  0
  134.6340   71.1630  225.0040 N   0  0  0  0  0  0  0  0  0  0  0  0
  135.2740   69.9930  224.4350 C   0  0  0  0  0  0  0  0  0  0  0  0
  136.4480   70.4540  223.6320 C   0  0  0  0  0  0  0  0  0  0  0  0
  136.6960   71.6880  223.6350 O   0  0  0  0  0  0  0  0  0  0  0  0
  137.2360   69.5090  222.9000 N   0  0  0  0  0  0  0  0  0  0  0  0
  137.3120   69.4300  221.4530 C   0  0  0  0  0  0  0  0  0  0  0  0
  138.7100   68.9370  221.2320 C   0  0  0  0  0  0  0  0  0  0  0  0
  138.8450   67.9050  222.3560 C   0  0  0  0  0  0  0  0  0  0  0  0
  138.0650   68.5020  223.5180 C   0  0  1  0  0  0  0  0  0  0  0  0
  138.9300   68.9930  224.5910 C   0  0  0  0  0  0  0  0  0  0  0  0
  139.5600   70.2110  224.4520 C   0  0  0  0  0  0  0  0  0  0  0  0
  140.3720   70.6630  225.4690 C   0  0  0  0  0  0  0  0  0  0  0  0
  140.5860   69.9440  226.6350 C   0  0  0  0  0  0  0  0  0  0  0  0
  141.4030   70.4310  227.6250 O   0  0  0  0  0  0  0  0  0  0  0  0
  141.2470   71.7260  228.1810 C   0  0  0  0  0  0  0  0  0  0  0  0
  142.1770   71.8830  229.1960 F   0  0  0  0  0  0  0  0  0  0  0  0
  141.4910   72.6650  227.2060 F   0  0  0  0  0  0  0  0  0  0  0  0
  139.9720   71.8260  228.7110 F   0  0  0  0  0  0  0  0  0  0  0  0
  139.9380   68.7270  226.7400 C   0  0  0  0  0  0  0  0  0  0  0  0
  139.1150   68.2370  225.7420 C   0  0  0  0  0  0  0  0  0  0  0  0
  133.1340   72.3400  226.6030 C   0  0  0  0  0  0  0  0  0  0  0  0
  131.9440   72.3030  227.3040 C   0  0  0  0  0  0  0  0  0  0  0  0
  131.3440   73.4600  227.7950 C   0  0  0  0  0  0  0  0  0  0  0  0
  132.0190   74.6460  227.5360 C   0  0  0  0  0  0  0  0  0  0  0  0
  131.5190   75.8590  227.9750 C   0  0  0  0  0  0  0  0  0  0  0  0
  132.1860   77.0400  227.7200 C   0  0  0  0  0  0  0  0  0  0  0  0
  131.5520   78.5890  228.2790 Cl  0  0  0  0  0  0  0  0  0  0  0  0
  133.3750   77.0620  227.0180 C   0  0  0  0  0  0  0  0  0  0  0  0
  133.8940   75.8470  226.5680 C   0  0  0  0  0  0  0  0  0  0  0  0
  133.2070   74.6810  226.8370 C   0  0  0  0  0  0  0  0  0  0  0  0
  133.7480   73.5360  226.3810 N   0  0  0  0  0  0  0  0  0  0  0  0
  134.8330   72.1260  224.5980 H   0  0  0  0  0  0  0  0  0  0  0  0
  135.6118   69.3236  225.2399 H   0  0  0  0  0  0  0  0  0  0  0  0
  134.5669   69.4425  223.7972 H   0  0  0  0  0  0  0  0  0  0  0  0
  136.5719   68.7210  221.0535 H   0  0  0  0  0  0  0  0  0  0  0  0
  137.0966   70.3834  220.9483 H   0  0  0  0  0  0  0  0  0  0  0  0
  138.8209   68.4709  220.2418 H   0  0  0  0  0  0  0  0  0  0  0  0
  139.4749   69.7273  221.2515 H   0  0  0  0  0  0  0  0  0  0  0  0
  138.4122   66.9404  222.0521 H   0  0  0  0  0  0  0  0  0  0  0  0
  139.8950   67.7052  222.6161 H   0  0  0  0  0  0  0  0  0  0  0  0
  137.4515   67.7594  224.0492 H   0  0  0  0  0  0  0  0  0  0  0  0
  139.4166   70.8131  223.5427 H   0  0  0  0  0  0  0  0  0  0  0  0
  140.8718   71.6357  225.3509 H   0  0  0  0  0  0  0  0  0  0  0  0
  140.0822   68.1266  227.6504 H   0  0  0  0  0  0  0  0  0  0  0  0
  138.6149   67.2641  225.8578 H   0  0  0  0  0  0  0  0  0  0  0  0
  131.4568   71.3325  227.4792 H   0  0  0  0  0  0  0  0  0  0  0  0
  130.3960   73.4361  228.3524 H   0  0  0  0  0  0  0  0  0  0  0  0
  130.5736   75.8825  228.5369 H   0  0  0  0  0  0  0  0  0  0  0  0
  133.8977   78.0092  226.8193 H   0  0  0  0  0  0  0  0  0  0  0  0
  134.8391   75.8193  226.0058 H   0  0  0  0  0  0  0  0  0  0  0  0
  1  2  2  0
  2  3  1  0
  3  4  1  0
  4  5  1  0
  5  6  2  0
  5  7  1  0
  7  8  1  0
  8  9  1  0
  9 10  1  0
 10 11  1  0
 11 12  1  0
 12 13  2  0
 13 14  1  0
 14 15  2  0
 15 16  1  0
 16 17  1  0
 17 18  1  0
 17 19  1  0
 17 20  1  0
 15 21  1  0
 21 22  2  0
  2 23  1  0
 23 24  2  0
 24 25  1  0
 25 26  2  0
 26 27  1  0
 27 28  2  0
 28 29  1  0
 28 30  1  0
 30 31  2  0
 31 32  1  0
 32 33  2  0
 11  7  1  0
 22 12  1  0
 33 23  1  0
 32 26  1  0
  3 34  1  0
  4 35  1  0
  4 36  1  0
  8 37  1  0
  8 38  1  0
  9 39  1  0
  9 40  1  0
 10 41  1  0
 10 42  1  0
 11 43  1  1
 13 44  1  0
 14 45  1  0
 21 46  1  0
 22 47  1  0
 24 48  1  0
 25 49  1  0
 27 50  1  0
 30 51  1  0
 31 52  1  0
M  END
>  <smiles>  (83) 
O=C(NCC(=O)N1CCCC1c1ccc(OC(F)(F)F)cc1)c1ccc2cc(Cl)ccc2n1

>  <score_type>  (83) 
oracle

>  <origin>  (83) 
autodockgpu

>  <m_score__min__energy>  (83) 
-7.96

>  <m_primary>  (83) 
energy

>  <rmsd>  (83) 
8.581264092120778

>  <m_score__min__rmsd>  (83) 
8.581264092120778

>  <meeko>  (83) 
{"free_energy": -7.9, "intermolecular_energy": -9.99, "internal_energy": -2.24, "cluster_size": 5, "cluster_id": 2, "rank_in_cluster": 1}

>  <energy>  (83) 
-6.99

>  <cluster_rmsd>  (83) 
1.2

>  <cluster>  (83) 
4

$$$$

     RDKit          3D

 52 55  0  0  0  0  0  0  0  0999 V2000
  141.0020   72.8300  221.0220 O   0  0  0  0  0  0  0  0  0  0  0  0
  140.2550   73.0120  222.0350 C   0  0  0  0  0  0  0  0  0  0  0  0
  139.4600   74.1820  222.1810 N   0  0  0  0  0  0  0  0  0  0  0  0
  139.4460   75.2430  221.1930 C   0  0  0  0  0  0  0  0  0  0  0  0
  139.5710   76.5470  221.9130 C   0  0  0  0  0  0  0  0  0  0  0  0
  138.7030   76.8060  222.7860 O   0  0  0  0  0  0  0  0  0  0  0  0
  140.6440   77.4430  221.6010 N   0  0  0  0  0  0  0  0  0  0  0  0
  141.4950   77.3480  220.4300 C   0  0  0  0  0  0  0  0  0  0  0  0
  141.8310   78.7840  220.1590 C   0  0  0  0  0  0  0  0  0  0  0  0
  142.0420   79.3150  221.5810 C   0  0  0  0  0  0  0  0  0  0  0  0
  141.0180   78.5690  222.4230 C   0  0  1  0  0  0  0  0  0  0  0  0
  139.9040   79.4160  222.8470 C   0  0  0  0  0  0  0  0  0  0  0  0
  139.1840   80.1140  221.9020 C   0  0  0  0  0  0  0  0  0  0  0  0
  138.1360   80.9100  222.3120 C   0  0  0  0  0  0  0  0  0  0  0  0
  137.7700   81.0410  223.6430 C   0  0  0  0  0  0  0  0  0  0  0  0
  136.7200   81.8440  224.0110 O   0  0  0  0  0  0  0  0  0  0  0  0
  135.8800   81.5520  225.1170 C   0  0  0  0  0  0  0  0  0  0  0  0
  135.4520   80.2390  225.0070 F   0  0  0  0  0  0  0  0  0  0  0  0
  136.6040   81.6880  226.2780 F   0  0  0  0  0  0  0  0  0  0  0  0
  134.7830   82.3950  225.0700 F   0  0  0  0  0  0  0  0  0  0  0  0
  138.5150   80.3270  224.5650 C   0  0  0  0  0  0  0  0  0  0  0  0
  139.5740   79.5180  224.1930 C   0  0  0  0  0  0  0  0  0  0  0  0
  140.1940   71.9910  223.1040 C   0  0  0  0  0  0  0  0  0  0  0  0
  139.6510   70.7490  222.8390 C   0  0  0  0  0  0  0  0  0  0  0  0
  139.5720   69.7580  223.8140 C   0  0  0  0  0  0  0  0  0  0  0  0
  140.0740   70.0990  225.0630 C   0  0  0  0  0  0  0  0  0  0  0  0
  140.0510   69.1960  226.1100 C   0  0  0  0  0  0  0  0  0  0  0  0
  140.5490   69.5300  227.3530 C   0  0  0  0  0  0  0  0  0  0  0  0
  140.5210   68.3800  228.6910 Cl  0  0  0  0  0  0  0  0  0  0  0  0
  141.0900   70.7760  227.6040 C   0  0  0  0  0  0  0  0  0  0  0  0
  141.1220   71.7000  226.5590 C   0  0  0  0  0  0  0  0  0  0  0  0
  140.6180   71.3390  225.3260 C   0  0  0  0  0  0  0  0  0  0  0  0
  140.6710   72.2660  224.3510 N   0  0  0  0  0  0  0  0  0  0  0  0
  138.8600   74.2650  223.0550 H   0  0  0  0  0  0  0  0  0  0  0  0
  140.2900   75.1176  220.4987 H   0  0  0  0  0  0  0  0  0  0  0  0
  138.5107   75.2141  220.6148 H   0  0  0  0  0  0  0  0  0  0  0  0
  142.4005   76.7607  220.6426 H   0  0  0  0  0  0  0  0  0  0  0  0
  141.0170   76.8403  219.5793 H   0  0  0  0  0  0  0  0  0  0  0  0
  142.7453   78.8767  219.5545 H   0  0  0  0  0  0  0  0  0  0  0  0
  141.0653   79.3257  219.5843 H   0  0  0  0  0  0  0  0  0  0  0  0
  143.0629   79.0990  221.9290 H   0  0  0  0  0  0  0  0  0  0  0  0
  141.9182   80.4063  221.6422 H   0  0  0  0  0  0  0  0  0  0  0  0
  141.4216   78.2330  223.3896 H   0  0  0  0  0  0  0  0  0  0  0  0
  139.4419   80.0371  220.8354 H   0  0  0  0  0  0  0  0  0  0  0  0
  137.5663   81.4644  221.5517 H   0  0  0  0  0  0  0  0  0  0  0  0
  138.2562   80.4054  225.6312 H   0  0  0  0  0  0  0  0  0  0  0  0
  140.1463   78.9638  224.9515 H   0  0  0  0  0  0  0  0  0  0  0  0
  139.2702   70.5367  221.8291 H   0  0  0  0  0  0  0  0  0  0  0  0
  139.1394   68.7679  223.6079 H   0  0  0  0  0  0  0  0  0  0  0  0
  139.6281   68.1933  225.9492 H   0  0  0  0  0  0  0  0  0  0  0  0
  141.4840   71.0322  228.5985 H   0  0  0  0  0  0  0  0  0  0  0  0
  141.5437   72.7037  226.7160 H   0  0  0  0  0  0  0  0  0  0  0  0
  1  2  2  0
  2  3  1  0
  3  4  1  0
  4  5  1  0
  5  6  2  0
  5  7  1  0
  7  8  1  0
  8  9  1  0
  9 10  1  0
 10 11  1  0
 11 12  1  0
 12 13  2  0
 13 14  1  0
 14 15  2  0
 15 16  1  0
 16 17  1  0
 17 18  1  0
 17 19  1  0
 17 20  1  0
 15 21  1  0
 21 22  2  0
  2 23  1  0
 23 24  2  0
 24 25  1  0
 25 26  2  0
 26 27  1  0
 27 28  2  0
 28 29  1  0
 28 30  1  0
 30 31  2  0
 31 32  1  0
 32 33  2  0
 11  7  1  0
 22 12  1  0
 33 23  1  0
 32 26  1  0
  3 34  1  0
  4 35  1  0
  4 36  1  0
  8 37  1  0
  8 38  1  0
  9 39  1  0
  9 40  1  0
 10 41  1  0
 10 42  1  0
 11 43  1  1
 13 44  1  0
 14 45  1  0
 21 46  1  0
 22 47  1  0
 24 48  1  0
 25 49  1  0
 27 50  1  0
 30 51  1  0
 31 52  1  0
M  END
>  <smiles>  (84) 
O=C(NCC(=O)N1CCCC1c1ccc(OC(F)(F)F)cc1)c1ccc2cc(Cl)ccc2n1

>  <score_type>  (84) 
oracle

>  <origin>  (84) 
autodockgpu

>  <m_score__min__energy>  (84) 
-7.96

>  <m_primary>  (84) 
energy

>  <rmsd>  (84) 
2.6571730104984126

>  <m_score__min__rmsd>  (84) 
2.6571730104984126

>  <meeko>  (84) 
{"free_energy": -7.87, "intermolecular_energy": -9.96, "internal_energy": -1.63, "cluster_size": 9, "cluster_id": 1, "rank_in_cluster": 2}

>  <energy>  (84) 
-7.35

>  <cluster_rmsd>  (84) 
0.0

>  <cluster>  (84) 
5

$$$$

     RDKit          3D

 52 55  0  0  0  0  0  0  0  0999 V2000
  140.7730   72.5250  220.7410 O   0  0  0  0  0  0  0  0  0  0  0  0
  140.3220   72.8890  221.8740 C   0  0  0  0  0  0  0  0  0  0  0  0
  139.9060   74.2260  222.1210 N   0  0  0  0  0  0  0  0  0  0  0  0
  139.9670   75.2620  221.1080 C   0  0  0  0  0  0  0  0  0  0  0  0
  139.8950   76.5860  221.7960 C   0  0  0  0  0  0  0  0  0  0  0  0
  139.0420   76.7110  222.7120 O   0  0  0  0  0  0  0  0  0  0  0  0
  140.7730   77.6500  221.4070 N   0  0  0  0  0  0  0  0  0  0  0  0
  141.5760   77.6670  220.1990 C   0  0  0  0  0  0  0  0  0  0  0  0
  141.6320   79.1300  219.8730 C   0  0  0  0  0  0  0  0  0  0  0  0
  141.8040   79.7410  221.2670 C   0  0  0  0  0  0  0  0  0  0  0  0
  140.9710   78.8530  222.1790 C   0  0  1  0  0  0  0  0  0  0  0  0
  139.7400   79.5000  222.6330 C   0  0  0  0  0  0  0  0  0  0  0  0
  139.6110   79.8600  223.9580 C   0  0  0  0  0  0  0  0  0  0  0  0
  138.4470   80.4680  224.3750 C   0  0  0  0  0  0  0  0  0  0  0  0
  137.3920   80.7380  223.5160 C   0  0  0  0  0  0  0  0  0  0  0  0
  136.2490   81.3470  223.9720 O   0  0  0  0  0  0  0  0  0  0  0  0
  136.1430   81.9070  225.2710 C   0  0  0  0  0  0  0  0  0  0  0  0
  134.8460   82.3590  225.4490 F   0  0  0  0  0  0  0  0  0  0  0  0
  136.4060   80.9310  226.2030 F   0  0  0  0  0  0  0  0  0  0  0  0
  137.0160   82.9780  225.3590 F   0  0  0  0  0  0  0  0  0  0  0  0
  137.5560   80.3640  222.1950 C   0  0  0  0  0  0  0  0  0  0  0  0
  138.7080   79.7500  221.7370 C   0  0  0  0  0  0  0  0  0  0  0  0
  140.2180   71.9120  222.9800 C   0  0  0  0  0  0  0  0  0  0  0  0
  139.6500   70.6730  222.7510 C   0  0  0  0  0  0  0  0  0  0  0  0
  139.5310   69.7210  223.7610 C   0  0  0  0  0  0  0  0  0  0  0  0
  140.0180   70.0990  225.0050 C   0  0  0  0  0  0  0  0  0  0  0  0
  139.9540   69.2370  226.0850 C   0  0  0  0  0  0  0  0  0  0  0  0
  140.4370   69.6070  227.3250 C   0  0  0  0  0  0  0  0  0  0  0  0
  140.3570   68.5100  228.7040 Cl  0  0  0  0  0  0  0  0  0  0  0  0
  141.0020   70.8490  227.5380 C   0  0  0  0  0  0  0  0  0  0  0  0
  141.0750   71.7310  226.4600 C   0  0  0  0  0  0  0  0  0  0  0  0
  140.5850   71.3360  225.2320 C   0  0  0  0  0  0  0  0  0  0  0  0
  140.6780   72.2230  224.2240 N   0  0  0  0  0  0  0  0  0  0  0  0
  139.5390   74.4570  223.0930 H   0  0  0  0  0  0  0  0  0  0  0  0
  140.9113   75.1826  220.5494 H   0  0  0  0  0  0  0  0  0  0  0  0
  139.1320   75.1536  220.4001 H   0  0  0  0  0  0  0  0  0  0  0  0
  142.5816   77.2612  220.3834 H   0  0  0  0  0  0  0  0  0  0  0  0
  141.1633   77.0503  219.3870 H   0  0  0  0  0  0  0  0  0  0  0  0
  142.4868   79.3652  219.2219 H   0  0  0  0  0  0  0  0  0  0  0  0
  140.7558   79.5030  219.3224 H   0  0  0  0  0  0  0  0  0  0  0  0
  142.8613   79.7261  221.5700 H   0  0  0  0  0  0  0  0  0  0  0  0
  141.4857   80.7933  221.3041 H   0  0  0  0  0  0  0  0  0  0  0  0
  141.4703   78.6302  223.1335 H   0  0  0  0  0  0  0  0  0  0  0  0
  140.4252   79.6647  224.6713 H   0  0  0  0  0  0  0  0  0  0  0  0
  138.3504   80.7511  225.4335 H   0  0  0  0  0  0  0  0  0  0  0  0
  136.7414   80.5617  221.4828 H   0  0  0  0  0  0  0  0  0  0  0  0
  138.8054   79.4640  220.6793 H   0  0  0  0  0  0  0  0  0  0  0  0
  139.2816   70.4319  221.7430 H   0  0  0  0  0  0  0  0  0  0  0  0
  139.0802   68.7333  223.5843 H   0  0  0  0  0  0  0  0  0  0  0  0
  139.5105   68.2389  225.9539 H   0  0  0  0  0  0  0  0  0  0  0  0
  141.3835   71.1345  228.5294 H   0  0  0  0  0  0  0  0  0  0  0  0
  141.5180   72.7298  226.5873 H   0  0  0  0  0  0  0  0  0  0  0  0
  1  2  2  0
  2  3  1  0
  3  4  1  0
  4  5  1  0
  5  6  2  0
  5  7  1  0
  7  8  1  0
  8  9  1  0
  9 10  1  0
 10 11  1  0
 11 12  1  0
 12 13  2  0
 13 14  1  0
 14 15  2  0
 15 16  1  0
 16 17  1  0
 17 18  1  0
 17 19  1  0
 17 20  1  0
 15 21  1  0
 21 22  2  0
  2 23  1  0
 23 24  2  0
 24 25  1  0
 25 26  2  0
 26 27  1  0
 27 28  2  0
 28 29  1  0
 28 30  1  0
 30 31  2  0
 31 32  1  0
 32 33  2  0
 11  7  1  0
 22 12  1  0
 33 23  1  0
 32 26  1  0
  3 34  1  0
  4 35  1  0
  4 36  1  0
  8 37  1  0
  8 38  1  0
  9 39  1  0
  9 40  1  0
 10 41  1  0
 10 42  1  0
 11 43  1  1
 13 44  1  0
 14 45  1  0
 21 46  1  0
 22 47  1  0
 24 48  1  0
 25 49  1  0
 27 50  1  0
 30 51  1  0
 31 52  1  0
M  END
>  <smiles>  (85) 
O=C(NCC(=O)N1CCCC1c1ccc(OC(F)(F)F)cc1)c1ccc2cc(Cl)ccc2n1

>  <score_type>  (85) 
oracle

>  <origin>  (85) 
autodockgpu

>  <m_score__min__energy>  (85) 
-7.96

>  <m_primary>  (85) 
energy

>  <rmsd>  (85) 
2.7014808675631468

>  <m_score__min__rmsd>  (85) 
2.7014808675631468

>  <meeko>  (85) 
{"free_energy": -7.8, "intermolecular_energy": -9.88, "internal_energy": -1.84, "cluster_size": 9, "cluster_id": 1, "rank_in_cluster": 5}

>  <energy>  (85) 
-7.0

>  <cluster_rmsd>  (85) 
1.78

>  <cluster>  (85) 
5

$$$$

     RDKit          3D

 52 55  0  0  0  0  0  0  0  0999 V2000
  139.8480   72.0280  220.5240 O   0  0  0  0  0  0  0  0  0  0  0  0
  139.8070   72.4920  221.7080 C   0  0  0  0  0  0  0  0  0  0  0  0
  139.7130   73.8880  221.9640 N   0  0  0  0  0  0  0  0  0  0  0  0
  139.6580   74.8730  220.9020 C   0  0  0  0  0  0  0  0  0  0  0  0
  140.3760   76.0980  221.3710 C   0  0  0  0  0  0  0  0  0  0  0  0
  140.6230   76.1810  222.6020 O   0  0  0  0  0  0  0  0  0  0  0  0
  140.7520   77.1160  220.4360 N   0  0  0  0  0  0  0  0  0  0  0  0
  140.6530   78.5440  220.6740 C   0  0  0  0  0  0  0  0  0  0  0  0
  141.7980   79.0830  219.8700 C   0  0  0  0  0  0  0  0  0  0  0  0
  141.7160   78.2110  218.6130 C   0  0  0  0  0  0  0  0  0  0  0  0
  141.2830   76.8450  219.1220 C   0  0  1  0  0  0  0  0  0  0  0  0
  142.3610   75.8560  219.0870 C   0  0  0  0  0  0  0  0  0  0  0  0
  142.4090   74.9400  218.0580 C   0  0  0  0  0  0  0  0  0  0  0  0
  143.4280   74.0130  218.0360 C   0  0  0  0  0  0  0  0  0  0  0  0
  144.4150   73.9600  219.0080 C   0  0  0  0  0  0  0  0  0  0  0  0
  145.4140   73.0200  218.9490 O   0  0  0  0  0  0  0  0  0  0  0  0
  145.6530   72.0870  219.9910 C   0  0  0  0  0  0  0  0  0  0  0  0
  146.3730   71.0230  219.4700 F   0  0  0  0  0  0  0  0  0  0  0  0
  146.4010   72.6920  220.9730 F   0  0  0  0  0  0  0  0  0  0  0  0
  144.4330   71.6270  220.4560 F   0  0  0  0  0  0  0  0  0  0  0  0
  144.3350   74.8940  220.0260 C   0  0  0  0  0  0  0  0  0  0  0  0
  143.3280   75.8400  220.0840 C   0  0  0  0  0  0  0  0  0  0  0  0
  139.8570   71.5730  222.8660 C   0  0  0  0  0  0  0  0  0  0  0  0
  139.3570   70.2910  222.7480 C   0  0  0  0  0  0  0  0  0  0  0  0
  139.3820   69.3910  223.8110 C   0  0  0  0  0  0  0  0  0  0  0  0
  139.9400   69.8670  224.9900 C   0  0  0  0  0  0  0  0  0  0  0  0
  140.0210   69.0640  226.1140 C   0  0  0  0  0  0  0  0  0  0  0  0
  140.5750   69.5320  227.2880 C   0  0  0  0  0  0  0  0  0  0  0  0
  140.6790   68.5100  228.7220 Cl  0  0  0  0  0  0  0  0  0  0  0  0
  141.0720   70.8160  227.3910 C   0  0  0  0  0  0  0  0  0  0  0  0
  140.9990   71.6400  226.2670 C   0  0  0  0  0  0  0  0  0  0  0  0
  140.4400   71.1470  225.1060 C   0  0  0  0  0  0  0  0  0  0  0  0
  140.3930   71.9810  224.0510 N   0  0  0  0  0  0  0  0  0  0  0  0
  139.6820   74.2010  222.9800 H   0  0  0  0  0  0  0  0  0  0  0  0
  140.1462   74.4766  219.9994 H   0  0  0  0  0  0  0  0  0  0  0  0
  138.6129   75.1128  220.6566 H   0  0  0  0  0  0  0  0  0  0  0  0
  139.6923   78.9418  220.3151 H   0  0  0  0  0  0  0  0  0  0  0  0
  140.6960   78.8167  221.7388 H   0  0  0  0  0  0  0  0  0  0  0  0
  141.6574   80.1477  219.6318 H   0  0  0  0  0  0  0  0  0  0  0  0
  142.7693   79.0427  220.3847 H   0  0  0  0  0  0  0  0  0  0  0  0
  140.9752   78.6153  217.9074 H   0  0  0  0  0  0  0  0  0  0  0  0
  142.6719   78.1704  218.0702 H   0  0  0  0  0  0  0  0  0  0  0  0
  140.5254   76.3693  218.4819 H   0  0  0  0  0  0  0  0  0  0  0  0
  141.6453   74.9490  217.2664 H   0  0  0  0  0  0  0  0  0  0  0  0
  143.4597   73.2843  217.2126 H   0  0  0  0  0  0  0  0  0  0  0  0
  145.0994   74.8835  220.8169 H   0  0  0  0  0  0  0  0  0  0  0  0
  143.2933   76.5688  220.9072 H   0  0  0  0  0  0  0  0  0  0  0  0
  138.9268   69.9715  221.7873 H   0  0  0  0  0  0  0  0  0  0  0  0
  138.9852   68.3689  223.7221 H   0  0  0  0  0  0  0  0  0  0  0  0
  139.6369   68.0341  226.0709 H   0  0  0  0  0  0  0  0  0  0  0  0
  141.5126   71.1788  228.3314 H   0  0  0  0  0  0  0  0  0  0  0  0
  141.3825   72.6702  226.3063 H   0  0  0  0  0  0  0  0  0  0  0  0
  1  2  2  0
  2  3  1  0
  3  4  1  0
  4  5  1  0
  5  6  2  0
  5  7  1  0
  7  8  1  0
  8  9  1  0
  9 10  1  0
 10 11  1  0
 11 12  1  0
 12 13  2  0
 13 14  1  0
 14 15  2  0
 15 16  1  0
 16 17  1  0
 17 18  1  0
 17 19  1  0
 17 20  1  0
 15 21  1  0
 21 22  2  0
  2 23  1  0
 23 24  2  0
 24 25  1  0
 25 26  2  0
 26 27  1  0
 27 28  2  0
 28 29  1  0
 28 30  1  0
 30 31  2  0
 31 32  1  0
 32 33  2  0
 11  7  1  0
 22 12  1  0
 33 23  1  0
 32 26  1  0
  3 34  1  0
  4 35  1  0
  4 36  1  0
  8 37  1  0
  8 38  1  0
  9 39  1  0
  9 40  1  0
 10 41  1  0
 10 42  1  0
 11 43  1  6
 13 44  1  0
 14 45  1  0
 21 46  1  0
 22 47  1  0
 24 48  1  0
 25 49  1  0
 27 50  1  0
 30 51  1  0
 31 52  1  0
M  END
>  <smiles>  (86) 
O=C(NCC(=O)N1CCCC1c1ccc(OC(F)(F)F)cc1)c1ccc2cc(Cl)ccc2n1

>  <score_type>  (86) 
oracle

>  <origin>  (86) 
autodockgpu

>  <m_score__min__energy>  (86) 
-7.96

>  <m_primary>  (86) 
energy

>  <rmsd>  (86) 
2.2672036201293118

>  <m_score__min__rmsd>  (86) 
2.2672036201293118

>  <meeko>  (86) 
{"free_energy": -7.65, "intermolecular_energy": -9.74, "internal_energy": -2.35, "cluster_size": 14, "cluster_id": 3, "rank_in_cluster": 4}

>  <energy>  (86) 
-7.17

>  <cluster_rmsd>  (86) 
0.0

>  <cluster>  (86) 
6

$$$$

     RDKit          3D

 52 55  0  0  0  0  0  0  0  0999 V2000
  139.8930   71.7540  220.3580 O   0  0  0  0  0  0  0  0  0  0  0  0
  140.2120   72.2150  221.5010 C   0  0  0  0  0  0  0  0  0  0  0  0
  140.6640   73.5520  221.6700 N   0  0  0  0  0  0  0  0  0  0  0  0
  140.7920   74.4790  220.5620 C   0  0  0  0  0  0  0  0  0  0  0  0
  140.7520   75.8670  221.1140 C   0  0  0  0  0  0  0  0  0  0  0  0
  140.2900   76.0090  222.2760 O   0  0  0  0  0  0  0  0  0  0  0  0
  141.2260   76.9690  220.3300 N   0  0  0  0  0  0  0  0  0  0  0  0
  141.2730   77.0000  218.8810 C   0  0  0  0  0  0  0  0  0  0  0  0
  141.0570   78.4530  218.5840 C   0  0  0  0  0  0  0  0  0  0  0  0
  141.8950   79.1110  219.6850 C   0  0  0  0  0  0  0  0  0  0  0  0
  141.7210   78.2020  220.8920 C   0  0  1  0  0  0  0  0  0  0  0  0
  140.8730   78.7890  221.9290 C   0  0  0  0  0  0  0  0  0  0  0  0
  141.3450   78.8810  223.2210 C   0  0  0  0  0  0  0  0  0  0  0  0
  140.5360   79.4340  224.1900 C   0  0  0  0  0  0  0  0  0  0  0  0
  139.2610   79.9080  223.9230 C   0  0  0  0  0  0  0  0  0  0  0  0
  138.4880   80.4540  224.9170 O   0  0  0  0  0  0  0  0  0  0  0  0
  137.2230   81.0450  224.6690 C   0  0  0  0  0  0  0  0  0  0  0  0
  136.7240   81.5340  225.8660 F   0  0  0  0  0  0  0  0  0  0  0  0
  137.3820   82.0940  223.7930 F   0  0  0  0  0  0  0  0  0  0  0  0
  136.3690   80.0700  224.1830 F   0  0  0  0  0  0  0  0  0  0  0  0
  138.8200   79.8000  222.6160 C   0  0  0  0  0  0  0  0  0  0  0  0
  139.6000   79.2500  221.6150 C   0  0  0  0  0  0  0  0  0  0  0  0
  140.1180   71.3540  222.7000 C   0  0  0  0  0  0  0  0  0  0  0  0
  139.4850   70.1280  222.6180 C   0  0  0  0  0  0  0  0  0  0  0  0
  139.3720   69.2850  223.7210 C   0  0  0  0  0  0  0  0  0  0  0  0
  139.9360   69.7550  224.9000 C   0  0  0  0  0  0  0  0  0  0  0  0
  139.8860   69.0040  226.0610 C   0  0  0  0  0  0  0  0  0  0  0  0
  140.4440   69.4670  227.2360 C   0  0  0  0  0  0  0  0  0  0  0  0
  140.3830   68.5120  228.7170 Cl  0  0  0  0  0  0  0  0  0  0  0  0
  141.0740   70.6940  227.3010 C   0  0  0  0  0  0  0  0  0  0  0  0
  141.1340   71.4650  226.1400 C   0  0  0  0  0  0  0  0  0  0  0  0
  140.5680   70.9780  224.9800 C   0  0  0  0  0  0  0  0  0  0  0  0
  140.6510   71.7590  223.8870 N   0  0  0  0  0  0  0  0  0  0  0  0
  140.9110   73.8680  222.6560 H   0  0  0  0  0  0  0  0  0  0  0  0
  141.7473   74.3110  220.0432 H   0  0  0  0  0  0  0  0  0  0  0  0
  139.9731   74.3301  219.8428 H   0  0  0  0  0  0  0  0  0  0  0  0
  142.2493   76.6580  218.5069 H   0  0  0  0  0  0  0  0  0  0  0  0
  140.5353   76.3389  218.4027 H   0  0  0  0  0  0  0  0  0  0  0  0
  141.4270   78.7189  217.5828 H   0  0  0  0  0  0  0  0  0  0  0  0
  140.0007   78.7597  218.5772 H   0  0  0  0  0  0  0  0  0  0  0  0
  142.9529   79.1650  219.3884 H   0  0  0  0  0  0  0  0  0  0  0  0
  141.5778   80.1440  219.8906 H   0  0  0  0  0  0  0  0  0  0  0  0
  142.6588   78.0346  221.4419 H   0  0  0  0  0  0  0  0  0  0  0  0
  142.3521   78.5185  223.4746 H   0  0  0  0  0  0  0  0  0  0  0  0
  140.9183   79.5022  225.2192 H   0  0  0  0  0  0  0  0  0  0  0  0
  137.8132   80.1646  222.3641 H   0  0  0  0  0  0  0  0  0  0  0  0
  139.2185   79.1785  220.5857 H   0  0  0  0  0  0  0  0  0  0  0  0
  139.0588   69.8093  221.6553 H   0  0  0  0  0  0  0  0  0  0  0  0
  138.8681   68.3090  223.6621 H   0  0  0  0  0  0  0  0  0  0  0  0
  139.3930   68.0207  226.0477 H   0  0  0  0  0  0  0  0  0  0  0  0
  141.5162   71.0534  228.2419 H   0  0  0  0  0  0  0  0  0  0  0  0
  141.6263   72.4486  226.1493 H   0  0  0  0  0  0  0  0  0  0  0  0
  1  2  2  0
  2  3  1  0
  3  4  1  0
  4  5  1  0
  5  6  2  0
  5  7  1  0
  7  8  1  0
  8  9  1  0
  9 10  1  0
 10 11  1  0
 11 12  1  0
 12 13  2  0
 13 14  1  0
 14 15  2  0
 15 16  1  0
 16 17  1  0
 17 18  1  0
 17 19  1  0
 17 20  1  0
 15 21  1  0
 21 22  2  0
  2 23  1  0
 23 24  2  0
 24 25  1  0
 25 26  2  0
 26 27  1  0
 27 28  2  0
 28 29  1  0
 28 30  1  0
 30 31  2  0
 31 32  1  0
 32 33  2  0
 11  7  1  0
 22 12  1  0
 33 23  1  0
 32 26  1  0
  3 34  1  0
  4 35  1  0
  4 36  1  0
  8 37  1  0
  8 38  1  0
  9 39  1  0
  9 40  1  0
 10 41  1  0
 10 42  1  0
 11 43  1  1
 13 44  1  0
 14 45  1  0
 21 46  1  0
 22 47  1  0
 24 48  1  0
 25 49  1  0
 27 50  1  0
 30 51  1  0
 31 52  1  0
M  END
>  <smiles>  (87) 
O=C(NCC(=O)N1CCCC1c1ccc(OC(F)(F)F)cc1)c1ccc2cc(Cl)ccc2n1

>  <score_type>  (87) 
oracle

>  <origin>  (87) 
autodockgpu

>  <m_score__min__energy>  (87) 
-7.96

>  <m_primary>  (87) 
energy

>  <rmsd>  (87) 
2.0733833124492493

>  <m_score__min__rmsd>  (87) 
2.0733833124492493

>  <meeko>  (87) 
{"free_energy": -7.29, "intermolecular_energy": -9.38, "internal_energy": -2.17, "cluster_size": 9, "cluster_id": 1, "rank_in_cluster": 9}

>  <energy>  (87) 
-7.17

>  <cluster_rmsd>  (87) 
0.17

>  <cluster>  (87) 
6

$$$$

     RDKit          3D

 52 55  0  0  0  0  0  0  0  0999 V2000
  138.6750   73.0410  220.5820 O   0  0  0  0  0  0  0  0  0  0  0  0
  139.6980   72.8340  221.3110 C   0  0  0  0  0  0  0  0  0  0  0  0
  140.9610   73.4150  221.0140 N   0  0  0  0  0  0  0  0  0  0  0  0
  141.1730   74.2780  219.8680 C   0  0  0  0  0  0  0  0  0  0  0  0
  142.3910   75.1030  220.1300 C   0  0  0  0  0  0  0  0  0  0  0  0
  143.4180   74.4970  220.5310 O   0  0  0  0  0  0  0  0  0  0  0  0
  142.3610   76.5200  219.9240 N   0  0  0  0  0  0  0  0  0  0  0  0
  142.9730   77.2130  218.8070 C   0  0  0  0  0  0  0  0  0  0  0  0
  142.0600   78.3880  218.6190 C   0  0  0  0  0  0  0  0  0  0  0  0
  141.7680   78.7740  220.0720 C   0  0  0  0  0  0  0  0  0  0  0  0
  141.7080   77.4480  220.8160 C   0  0  1  0  0  0  0  0  0  0  0  0
  140.3480   77.0740  221.2040 C   0  0  0  0  0  0  0  0  0  0  0  0
  140.1460   76.3630  222.3670 C   0  0  0  0  0  0  0  0  0  0  0  0
  138.8600   76.0150  222.7220 C   0  0  0  0  0  0  0  0  0  0  0  0
  137.7530   76.3510  221.9580 C   0  0  0  0  0  0  0  0  0  0  0  0
  136.4890   75.9850  222.3470 O   0  0  0  0  0  0  0  0  0  0  0  0
  135.9700   74.6810  222.1420 C   0  0  0  0  0  0  0  0  0  0  0  0
  136.3150   74.2660  220.8660 F   0  0  0  0  0  0  0  0  0  0  0  0
  136.5360   73.8240  223.0570 F   0  0  0  0  0  0  0  0  0  0  0  0
  134.5900   74.7360  222.2460 F   0  0  0  0  0  0  0  0  0  0  0  0
  137.9940   77.0640  220.7970 C   0  0  0  0  0  0  0  0  0  0  0  0
  139.2690   77.4320  220.4050 C   0  0  0  0  0  0  0  0  0  0  0  0
  139.5920   71.9690  222.5070 C   0  0  0  0  0  0  0  0  0  0  0  0
  138.7190   70.8990  222.5060 C   0  0  0  0  0  0  0  0  0  0  0  0
  138.5850   70.0580  223.6090 C   0  0  0  0  0  0  0  0  0  0  0  0
  139.3850   70.3660  224.7010 C   0  0  0  0  0  0  0  0  0  0  0  0
  139.3400   69.6010  225.8530 C   0  0  0  0  0  0  0  0  0  0  0  0
  140.1320   69.9030  226.9420 C   0  0  0  0  0  0  0  0  0  0  0  0
  140.0770   68.9300  228.4130 Cl  0  0  0  0  0  0  0  0  0  0  0  0
  141.0020   70.9760  226.9280 C   0  0  0  0  0  0  0  0  0  0  0  0
  141.0610   71.7580  225.7740 C   0  0  0  0  0  0  0  0  0  0  0  0
  140.2580   71.4340  224.7000 C   0  0  0  0  0  0  0  0  0  0  0  0
  140.3500   72.2190  223.6110 N   0  0  0  0  0  0  0  0  0  0  0  0
  141.7700   73.1980  221.6700 H   0  0  0  0  0  0  0  0  0  0  0  0
  141.3222   73.6687  218.9644 H   0  0  0  0  0  0  0  0  0  0  0  0
  140.2986   74.9267  219.7113 H   0  0  0  0  0  0  0  0  0  0  0  0
  143.9950   77.5381  219.0518 H   0  0  0  0  0  0  0  0  0  0  0  0
  143.0786   76.5895  217.9070 H   0  0  0  0  0  0  0  0  0  0  0  0
  142.5603   79.2046  218.0778 H   0  0  0  0  0  0  0  0  0  0  0  0
  141.1628   78.1711  218.0207 H   0  0  0  0  0  0  0  0  0  0  0  0
  142.5711   79.4090  220.4741 H   0  0  0  0  0  0  0  0  0  0  0  0
  140.8368   79.3511  220.1716 H   0  0  0  0  0  0  0  0  0  0  0  0
  142.2154   77.4795  221.7915 H   0  0  0  0  0  0  0  0  0  0  0  0
  140.9975   76.0775  223.0022 H   0  0  0  0  0  0  0  0  0  0  0  0
  138.7057   75.4465  223.6510 H   0  0  0  0  0  0  0  0  0  0  0  0
  137.1414   77.3485  220.1628 H   0  0  0  0  0  0  0  0  0  0  0  0
  139.4259   77.9990  219.4755 H   0  0  0  0  0  0  0  0  0  0  0  0
  138.1122   70.7051  221.6092 H   0  0  0  0  0  0  0  0  0  0  0  0
  137.8903   69.2052  223.6141 H   0  0  0  0  0  0  0  0  0  0  0  0
  138.6610   68.7369  225.9017 H   0  0  0  0  0  0  0  0  0  0  0  0
  141.6299   71.2071  227.8011 H   0  0  0  0  0  0  0  0  0  0  0  0
  141.7395   72.6222  225.7212 H   0  0  0  0  0  0  0  0  0  0  0  0
  1  2  2  0
  2  3  1  0
  3  4  1  0
  4  5  1  0
  5  6  2  0
  5  7  1  0
  7  8  1  0
  8  9  1  0
  9 10  1  0
 10 11  1  0
 11 12  1  0
 12 13  2  0
 13 14  1  0
 14 15  2  0
 15 16  1  0
 16 17  1  0
 17 18  1  0
 17 19  1  0
 17 20  1  0
 15 21  1  0
 21 22  2  0
  2 23  1  0
 23 24  2  0
 24 25  1  0
 25 26  2  0
 26 27  1  0
 27 28  2  0
 28 29  1  0
 28 30  1  0
 30 31  2  0
 31 32  1  0
 32 33  2  0
 11  7  1  0
 22 12  1  0
 33 23  1  0
 32 26  1  0
  3 34  1  0
  4 35  1  0
  4 36  1  0
  8 37  1  0
  8 38  1  0
  9 39  1  0
  9 40  1  0
 10 41  1  0
 10 42  1  0
 11 43  1  1
 13 44  1  0
 14 45  1  0
 21 46  1  0
 22 47  1  0
 24 48  1  0
 25 49  1  0
 27 50  1  0
 30 51  1  0
 31 52  1  0
M  END
>  <smiles>  (88) 
O=C(NCC(=O)N1CCCC1c1ccc(OC(F)(F)F)cc1)c1ccc2cc(Cl)ccc2n1

>  <score_type>  (88) 
oracle

>  <origin>  (88) 
autodockgpu

>  <m_score__min__energy>  (88) 
-7.96

>  <m_primary>  (88) 
energy

>  <rmsd>  (88) 
2.7046902043101078

>  <m_score__min__rmsd>  (88) 
2.7046902043101078

>  <meeko>  (88) 
{"free_energy": -6.09, "intermolecular_energy": -8.18, "internal_energy": -2.82, "cluster_size": 4, "cluster_id": 6, "rank_in_cluster": 3}

>  <energy>  (88) 
-6.09

>  <cluster_rmsd>  (88) 
1.15

>  <cluster>  (88) 
6

$$$$

     RDKit          3D

 52 55  0  0  0  0  0  0  0  0999 V2000
  140.7990   78.8110  218.1190 O   0  0  0  0  0  0  0  0  0  0  0  0
  141.6950   78.3990  218.9230 C   0  0  0  0  0  0  0  0  0  0  0  0
  142.1690   79.2050  219.9950 N   0  0  0  0  0  0  0  0  0  0  0  0
  141.6690   80.5420  220.2450 C   0  0  0  0  0  0  0  0  0  0  0  0
  141.5400   80.7180  221.7240 C   0  0  0  0  0  0  0  0  0  0  0  0
  142.5980   80.6550  222.4020 O   0  0  0  0  0  0  0  0  0  0  0  0
  140.2550   80.9450  222.3140 N   0  0  0  0  0  0  0  0  0  0  0  0
  139.3820   82.0620  222.0050 C   0  0  0  0  0  0  0  0  0  0  0  0
  138.0200   81.4680  222.2010 C   0  0  0  0  0  0  0  0  0  0  0  0
  138.2430   80.6130  223.4520 C   0  0  0  0  0  0  0  0  0  0  0  0
  139.6590   80.0800  223.3040 C   0  0  1  0  0  0  0  0  0  0  0  0
  139.7000   78.6540  222.9760 C   0  0  0  0  0  0  0  0  0  0  0  0
  140.9150   78.0070  222.9100 C   0  0  0  0  0  0  0  0  0  0  0  0
  140.9410   76.6640  222.6000 C   0  0  0  0  0  0  0  0  0  0  0  0
  139.7920   75.9290  222.3510 C   0  0  0  0  0  0  0  0  0  0  0  0
  139.8610   74.5930  222.0460 O   0  0  0  0  0  0  0  0  0  0  0  0
  140.6140   74.0930  220.9520 C   0  0  0  0  0  0  0  0  0  0  0  0
  141.9440   74.0160  221.3330 F   0  0  0  0  0  0  0  0  0  0  0  0
  140.1670   72.8310  220.6390 F   0  0  0  0  0  0  0  0  0  0  0  0
  140.4930   74.9790  219.8950 F   0  0  0  0  0  0  0  0  0  0  0  0
  138.5910   76.6110  222.4250 C   0  0  0  0  0  0  0  0  0  0  0  0
  138.5220   77.9590  222.7330 C   0  0  0  0  0  0  0  0  0  0  0  0
  142.2750   77.0480  218.7580 C   0  0  0  0  0  0  0  0  0  0  0  0
  141.9220   76.2780  217.6670 C   0  0  0  0  0  0  0  0  0  0  0  0
  142.4420   75.0000  217.4710 C   0  0  0  0  0  0  0  0  0  0  0  0
  143.3320   74.5560  218.4390 C   0  0  0  0  0  0  0  0  0  0  0  0
  143.9130   73.3040  218.3510 C   0  0  0  0  0  0  0  0  0  0  0  0
  144.7990   72.8580  219.3110 C   0  0  0  0  0  0  0  0  0  0  0  0
  145.5420   71.2620  219.2010 Cl  0  0  0  0  0  0  0  0  0  0  0  0
  145.1420   73.6400  220.3970 C   0  0  0  0  0  0  0  0  0  0  0  0
  144.5660   74.9060  220.5020 C   0  0  0  0  0  0  0  0  0  0  0  0
  143.6840   75.3270  219.5280 C   0  0  0  0  0  0  0  0  0  0  0  0
  143.1540   76.5560  219.6750 N   0  0  0  0  0  0  0  0  0  0  0  0
  142.9190   78.7930  220.6270 H   0  0  0  0  0  0  0  0  0  0  0  0
  142.3720   81.2851  219.8406 H   0  0  0  0  0  0  0  0  0  0  0  0
  140.6933   80.6825  219.7569 H   0  0  0  0  0  0  0  0  0  0  0  0
  139.5525   82.9029  222.6934 H   0  0  0  0  0  0  0  0  0  0  0  0
  139.5398   82.4787  220.9993 H   0  0  0  0  0  0  0  0  0  0  0  0
  137.2624   82.2463  222.3749 H   0  0  0  0  0  0  0  0  0  0  0  0
  137.6440   80.9068  221.3328 H   0  0  0  0  0  0  0  0  0  0  0  0
  138.1512   81.2244  224.3618 H   0  0  0  0  0  0  0  0  0  0  0  0
  137.5008   79.8063  223.5440 H   0  0  0  0  0  0  0  0  0  0  0  0
  140.2273   80.1082  224.2454 H   0  0  0  0  0  0  0  0  0  0  0  0
  141.8499   78.5539  223.1018 H   0  0  0  0  0  0  0  0  0  0  0  0
  141.9143   76.1540  222.5480 H   0  0  0  0  0  0  0  0  0  0  0  0
  137.6571   76.0627  222.2322 H   0  0  0  0  0  0  0  0  0  0  0  0
  137.5500   78.4715  222.7845 H   0  0  0  0  0  0  0  0  0  0  0  0
  141.2110   76.6847  216.9328 H   0  0  0  0  0  0  0  0  0  0  0  0
  142.1647   74.3823  216.6041 H   0  0  0  0  0  0  0  0  0  0  0  0
  143.6646   72.6519  217.5007 H   0  0  0  0  0  0  0  0  0  0  0  0
  145.8487   73.2749  221.1567 H   0  0  0  0  0  0  0  0  0  0  0  0
  144.8119   75.5608  221.3510 H   0  0  0  0  0  0  0  0  0  0  0  0
  1  2  2  0
  2  3  1  0
  3  4  1  0
  4  5  1  0
  5  6  2  0
  5  7  1  0
  7  8  1  0
  8  9  1  0
  9 10  1  0
 10 11  1  0
 11 12  1  0
 12 13  2  0
 13 14  1  0
 14 15  2  0
 15 16  1  0
 16 17  1  0
 17 18  1  0
 17 19  1  0
 17 20  1  0
 15 21  1  0
 21 22  2  0
  2 23  1  0
 23 24  2  0
 24 25  1  0
 25 26  2  0
 26 27  1  0
 27 28  2  0
 28 29  1  0
 28 30  1  0
 30 31  2  0
 31 32  1  0
 32 33  2  0
 11  7  1  0
 22 12  1  0
 33 23  1  0
 32 26  1  0
  3 34  1  0
  4 35  1  0
  4 36  1  0
  8 37  1  0
  8 38  1  0
  9 39  1  0
  9 40  1  0
 10 41  1  0
 10 42  1  0
 11 43  1  1
 13 44  1  0
 14 45  1  0
 21 46  1  0
 22 47  1  0
 24 48  1  0
 25 49  1  0
 27 50  1  0
 30 51  1  0
 31 52  1  0
M  END
>  <smiles>  (89) 
O=C(NCC(=O)N1CCCC1c1ccc(OC(F)(F)F)cc1)c1ccc2cc(Cl)ccc2n1

>  <score_type>  (89) 
oracle

>  <origin>  (89) 
autodockgpu

>  <m_score__min__energy>  (89) 
-7.96

>  <m_primary>  (89) 
energy

>  <rmsd>  (89) 
8.272558759151048

>  <m_score__min__rmsd>  (89) 
8.272558759151048

>  <meeko>  (89) 
{"free_energy": -6.47, "intermolecular_energy": -8.56, "internal_energy": -3.07, "cluster_size": 8, "cluster_id": 7, "rank_in_cluster": 4}

>  <energy>  (89) 
-5.87

>  <cluster_rmsd>  (89) 
1.24

>  <cluster>  (89) 
6

$$$$

     RDKit          3D

 52 55  0  0  0  0  0  0  0  0999 V2000
  139.6730   71.9560  220.5810 O   0  0  0  0  0  0  0  0  0  0  0  0
  139.6890   72.4100  221.7700 C   0  0  0  0  0  0  0  0  0  0  0  0
  139.6480   73.8050  222.0400 N   0  0  0  0  0  0  0  0  0  0  0  0
  139.5840   74.8020  220.9900 C   0  0  0  0  0  0  0  0  0  0  0  0
  140.6550   75.8130  221.2470 C   0  0  0  0  0  0  0  0  0  0  0  0
  141.2110   75.7840  222.3750 O   0  0  0  0  0  0  0  0  0  0  0  0
  141.0090   76.7610  220.2340 N   0  0  0  0  0  0  0  0  0  0  0  0
  140.8850   78.2010  220.3600 C   0  0  0  0  0  0  0  0  0  0  0  0
  142.0170   78.6960  219.5110 C   0  0  0  0  0  0  0  0  0  0  0  0
  141.9480   77.7280  218.3260 C   0  0  0  0  0  0  0  0  0  0  0  0
  141.5410   76.3980  218.9420 C   0  0  1  0  0  0  0  0  0  0  0  0
  142.6370   75.4290  218.9800 C   0  0  0  0  0  0  0  0  0  0  0  0
  143.4670   75.3870  220.0790 C   0  0  0  0  0  0  0  0  0  0  0  0
  144.4970   74.4710  220.1030 C   0  0  0  0  0  0  0  0  0  0  0  0
  144.7360   73.5830  219.0660 C   0  0  0  0  0  0  0  0  0  0  0  0
  145.7720   72.6850  219.1300 O   0  0  0  0  0  0  0  0  0  0  0  0
  145.5700   71.2830  219.2100 C   0  0  0  0  0  0  0  0  0  0  0  0
  144.5160   71.0410  220.0750 F   0  0  0  0  0  0  0  0  0  0  0  0
  145.2410   70.8060  217.9620 F   0  0  0  0  0  0  0  0  0  0  0  0
  146.7190   70.7020  219.7170 F   0  0  0  0  0  0  0  0  0  0  0  0
  143.8830   73.6540  217.9790 C   0  0  0  0  0  0  0  0  0  0  0  0
  142.8390   74.5590  217.9160 C   0  0  0  0  0  0  0  0  0  0  0  0
  139.7530   71.4790  222.9180 C   0  0  0  0  0  0  0  0  0  0  0  0
  139.2340   70.2040  222.7990 C   0  0  0  0  0  0  0  0  0  0  0  0
  139.2710   69.2940  223.8530 C   0  0  0  0  0  0  0  0  0  0  0  0
  139.8620   69.7510  225.0230 C   0  0  0  0  0  0  0  0  0  0  0  0
  139.9560   68.9360  226.1370 C   0  0  0  0  0  0  0  0  0  0  0  0
  140.5430   69.3860  227.3030 C   0  0  0  0  0  0  0  0  0  0  0  0
  140.6650   68.3490  228.7250 Cl  0  0  0  0  0  0  0  0  0  0  0  0
  141.0580   70.6630  227.4070 C   0  0  0  0  0  0  0  0  0  0  0  0
  140.9710   71.4990  226.2930 C   0  0  0  0  0  0  0  0  0  0  0  0
  140.3800   71.0240  225.1410 C   0  0  0  0  0  0  0  0  0  0  0  0
  140.3200   71.8680  224.0940 N   0  0  0  0  0  0  0  0  0  0  0  0
  139.6640   74.1100  223.0600 H   0  0  0  0  0  0  0  0  0  0  0  0
  139.7475   74.3254  220.0122 H   0  0  0  0  0  0  0  0  0  0  0  0
  138.5960   75.2856  220.9819 H   0  0  0  0  0  0  0  0  0  0  0  0
  139.9160   78.5523  219.9758 H   0  0  0  0  0  0  0  0  0  0  0  0
  140.9268   78.5568  221.4000 H   0  0  0  0  0  0  0  0  0  0  0  0
  141.8559   79.7361  219.1914 H   0  0  0  0  0  0  0  0  0  0  0  0
  142.9904   78.7131  220.0230 H   0  0  0  0  0  0  0  0  0  0  0  0
  141.1983   78.0628  217.5939 H   0  0  0  0  0  0  0  0  0  0  0  0
  142.9030   77.6625  217.7840 H   0  0  0  0  0  0  0  0  0  0  0  0
  140.7901   75.8607  218.3441 H   0  0  0  0  0  0  0  0  0  0  0  0
  143.3102   76.0736  220.9240 H   0  0  0  0  0  0  0  0  0  0  0  0
  145.1572   74.4437  220.9825 H   0  0  0  0  0  0  0  0  0  0  0  0
  144.0407   72.9664  217.1350 H   0  0  0  0  0  0  0  0  0  0  0  0
  142.1787   74.5894  217.0368 H   0  0  0  0  0  0  0  0  0  0  0  0
  138.7788   69.8990  221.8452 H   0  0  0  0  0  0  0  0  0  0  0  0
  138.8583   68.2782  223.7639 H   0  0  0  0  0  0  0  0  0  0  0  0
  139.5563   67.9121  226.0931 H   0  0  0  0  0  0  0  0  0  0  0  0
  141.5234   71.0112  228.3409 H   0  0  0  0  0  0  0  0  0  0  0  0
  141.3687   72.5238  226.3332 H   0  0  0  0  0  0  0  0  0  0  0  0
  1  2  2  0
  2  3  1  0
  3  4  1  0
  4  5  1  0
  5  6  2  0
  5  7  1  0
  7  8  1  0
  8  9  1  0
  9 10  1  0
 10 11  1  0
 11 12  1  0
 12 13  2  0
 13 14  1  0
 14 15  2  0
 15 16  1  0
 16 17  1  0
 17 18  1  0
 17 19  1  0
 17 20  1  0
 15 21  1  0
 21 22  2  0
  2 23  1  0
 23 24  2  0
 24 25  1  0
 25 26  2  0
 26 27  1  0
 27 28  2  0
 28 29  1  0
 28 30  1  0
 30 31  2  0
 31 32  1  0
 32 33  2  0
 11  7  1  0
 22 12  1  0
 33 23  1  0
 32 26  1  0
  3 34  1  0
  4 35  1  0
  4 36  1  0
  8 37  1  0
  8 38  1  0
  9 39  1  0
  9 40  1  0
 10 41  1  0
 10 42  1  0
 11 43  1  6
 13 44  1  0
 14 45  1  0
 21 46  1  0
 22 47  1  0
 24 48  1  0
 25 49  1  0
 27 50  1  0
 30 51  1  0
 31 52  1  0
M  END
>  <smiles>  (90) 
O=C(NCC(=O)N1CCCC1c1ccc(OC(F)(F)F)cc1)c1ccc2cc(Cl)ccc2n1

>  <score_type>  (90) 
oracle

>  <origin>  (90) 
autodockgpu

>  <m_score__min__energy>  (90) 
-7.96

>  <m_primary>  (90) 
energy

>  <rmsd>  (90) 
2.1252184963001395

>  <m_score__min__rmsd>  (90) 
2.1252184963001395

>  <meeko>  (90) 
{"free_energy": -7.84, "intermolecular_energy": -9.92, "internal_energy": -2.1, "cluster_size": 14, "cluster_id": 3, "rank_in_cluster": 1}

>  <energy>  (90) 
-6.77

>  <cluster_rmsd>  (90) 
0.0

>  <cluster>  (90) 
7

$$$$

     RDKit          3D

 52 55  0  0  0  0  0  0  0  0999 V2000
  133.7120   71.3100  226.0360 O   0  0  0  0  0  0  0  0  0  0  0  0
  134.4170   72.2450  225.5390 C   0  0  0  0  0  0  0  0  0  0  0  0
  135.4810   71.9810  224.6330 N   0  0  0  0  0  0  0  0  0  0  0  0
  135.8340   70.6390  224.2140 C   0  0  0  0  0  0  0  0  0  0  0  0
  136.8600   70.7470  223.1320 C   0  0  0  0  0  0  0  0  0  0  0  0
  137.1170   71.9000  222.6990 O   0  0  0  0  0  0  0  0  0  0  0  0
  137.5050   69.5710  222.6300 N   0  0  0  0  0  0  0  0  0  0  0  0
  137.6630   69.2430  221.2260 C   0  0  0  0  0  0  0  0  0  0  0  0
  138.9560   68.4840  221.2180 C   0  0  0  0  0  0  0  0  0  0  0  0
  138.8180   67.6440  222.4920 C   0  0  0  0  0  0  0  0  0  0  0  0
  138.0860   68.5510  223.4700 C   0  0  1  0  0  0  0  0  0  0  0  0
  138.9520   69.0540  224.5360 C   0  0  0  0  0  0  0  0  0  0  0  0
  138.9370   68.4380  225.7690 C   0  0  0  0  0  0  0  0  0  0  0  0
  139.7560   68.9210  226.7670 C   0  0  0  0  0  0  0  0  0  0  0  0
  140.6020   70.0050  226.5860 C   0  0  0  0  0  0  0  0  0  0  0  0
  141.4020   70.4540  227.6060 O   0  0  0  0  0  0  0  0  0  0  0  0
  141.2610   71.7430  228.1830 C   0  0  0  0  0  0  0  0  0  0  0  0
  141.4920   72.6910  227.1990 F   0  0  0  0  0  0  0  0  0  0  0  0
  139.9740   71.8870  228.6450 F   0  0  0  0  0  0  0  0  0  0  0  0
  142.2070   71.8820  229.1830 F   0  0  0  0  0  0  0  0  0  0  0  0
  140.5900   70.5980  225.3360 C   0  0  0  0  0  0  0  0  0  0  0  0
  139.7820   70.1440  224.3090 C   0  0  0  0  0  0  0  0  0  0  0  0
  134.1420   73.6520  225.9000 C   0  0  0  0  0  0  0  0  0  0  0  0
  134.8970   74.6660  225.3420 C   0  0  0  0  0  0  0  0  0  0  0  0
  134.6740   76.0050  225.6530 C   0  0  0  0  0  0  0  0  0  0  0  0
  133.6480   76.2520  226.5540 C   0  0  0  0  0  0  0  0  0  0  0  0
  133.3330   77.5430  226.9380 C   0  0  0  0  0  0  0  0  0  0  0  0
  132.3140   77.7940  227.8340 C   0  0  0  0  0  0  0  0  0  0  0  0
  131.9100   79.4400  228.3250 Cl  0  0  0  0  0  0  0  0  0  0  0  0
  131.5670   76.7710  228.3830 C   0  0  0  0  0  0  0  0  0  0  0  0
  131.8700   75.4620  228.0070 C   0  0  0  0  0  0  0  0  0  0  0  0
  132.8930   75.2400  227.1100 C   0  0  0  0  0  0  0  0  0  0  0  0
  133.1470   73.9600  226.7800 N   0  0  0  0  0  0  0  0  0  0  0  0
  136.0260   72.8140  224.2570 H   0  0  0  0  0  0  0  0  0  0  0  0
  136.2473   70.0787  225.0656 H   0  0  0  0  0  0  0  0  0  0  0  0
  134.9443   70.1077  223.8449 H   0  0  0  0  0  0  0  0  0  0  0  0
  136.8321   68.6179  220.8671 H   0  0  0  0  0  0  0  0  0  0  0  0
  137.6650   70.1229  220.5659 H   0  0  0  0  0  0  0  0  0  0  0  0
  139.0447   67.8488  220.3243 H   0  0  0  0  0  0  0  0  0  0  0  0
  139.8525   69.1210  221.1929 H   0  0  0  0  0  0  0  0  0  0  0  0
  138.2340   66.7328  222.2954 H   0  0  0  0  0  0  0  0  0  0  0  0
  139.7917   67.3103  222.8801 H   0  0  0  0  0  0  0  0  0  0  0  0
  137.3093   68.0248  224.0443 H   0  0  0  0  0  0  0  0  0  0  0  0
  138.2815   67.5742  225.9537 H   0  0  0  0  0  0  0  0  0  0  0  0
  139.7378   68.4255  227.7489 H   0  0  0  0  0  0  0  0  0  0  0  0
  141.2464   71.4613  225.1523 H   0  0  0  0  0  0  0  0  0  0  0  0
  139.7967   70.6392  223.3269 H   0  0  0  0  0  0  0  0  0  0  0  0
  135.6968   74.4082  224.6321 H   0  0  0  0  0  0  0  0  0  0  0  0
  135.2732   76.8154  225.2124 H   0  0  0  0  0  0  0  0  0  0  0  0
  133.9053   78.3850  226.5215 H   0  0  0  0  0  0  0  0  0  0  0  0
  130.7565   76.9818  229.0962 H   0  0  0  0  0  0  0  0  0  0  0  0
  131.2996   74.6175  228.4212 H   0  0  0  0  0  0  0  0  0  0  0  0
  1  2  2  0
  2  3  1  0
  3  4  1  0
  4  5  1  0
  5  6  2  0
  5  7  1  0
  7  8  1  0
  8  9  1  0
  9 10  1  0
 10 11  1  0
 11 12  1  0
 12 13  2  0
 13 14  1  0
 14 15  2  0
 15 16  1  0
 16 17  1  0
 17 18  1  0
 17 19  1  0
 17 20  1  0
 15 21  1  0
 21 22  2  0
  2 23  1  0
 23 24  2  0
 24 25  1  0
 25 26  2  0
 26 27  1  0
 27 28  2  0
 28 29  1  0
 28 30  1  0
 30 31  2  0
 31 32  1  0
 32 33  2  0
 11  7  1  0
 22 12  1  0
 33 23  1  0
 32 26  1  0
  3 34  1  0
  4 35  1  0
  4 36  1  0
  8 37  1  0
  8 38  1  0
  9 39  1  0
  9 40  1  0
 10 41  1  0
 10 42  1  0
 11 43  1  1
 13 44  1  0
 14 45  1  0
 21 46  1  0
 22 47  1  0
 24 48  1  0
 25 49  1  0
 27 50  1  0
 30 51  1  0
 31 52  1  0
M  END
>  <smiles>  (91) 
O=C(NCC(=O)N1CCCC1c1ccc(OC(F)(F)F)cc1)c1ccc2cc(Cl)ccc2n1

>  <score_type>  (91) 
oracle

>  <origin>  (91) 
autodockgpu

>  <m_score__min__energy>  (91) 
-7.96

>  <m_primary>  (91) 
energy

>  <rmsd>  (91) 
8.590563448630189

>  <m_score__min__rmsd>  (91) 
8.590563448630189

>  <meeko>  (91) 
{"free_energy": -7.17, "intermolecular_energy": -9.26, "internal_energy": -1.97, "cluster_size": 5, "cluster_id": 2, "rank_in_cluster": 5}

>  <energy>  (91) 
-6.69

>  <cluster_rmsd>  (91) 
0.12

>  <cluster>  (91) 
7

$$$$

     RDKit          3D

 52 55  0  0  0  0  0  0  0  0999 V2000
  137.9470   71.3300  220.8850 O   0  0  0  0  0  0  0  0  0  0  0  0
  138.3610   71.8540  221.9690 C   0  0  0  0  0  0  0  0  0  0  0  0
  138.4390   73.2640  222.1380 N   0  0  0  0  0  0  0  0  0  0  0  0
  138.0580   74.1970  221.0970 C   0  0  0  0  0  0  0  0  0  0  0  0
  138.9970   74.0170  219.9490 C   0  0  0  0  0  0  0  0  0  0  0  0
  138.5790   74.3460  218.8090 O   0  0  0  0  0  0  0  0  0  0  0  0
  140.3110   73.4900  220.1670 N   0  0  0  0  0  0  0  0  0  0  0  0
  140.9040   72.3950  219.4220 C   0  0  0  0  0  0  0  0  0  0  0  0
  142.3610   72.7480  219.4400 C   0  0  0  0  0  0  0  0  0  0  0  0
  142.5270   73.2660  220.8720 C   0  0  0  0  0  0  0  0  0  0  0  0
  141.2210   73.9870  221.1710 C   0  0  1  0  0  0  0  0  0  0  0  0
  141.3680   75.4430  221.1990 C   0  0  0  0  0  0  0  0  0  0  0  0
  142.0360   76.0770  220.1730 C   0  0  0  0  0  0  0  0  0  0  0  0
  142.1690   77.4480  220.2100 C   0  0  0  0  0  0  0  0  0  0  0  0
  141.6580   78.2250  221.2380 C   0  0  0  0  0  0  0  0  0  0  0  0
  141.8120   79.5880  221.2370 O   0  0  0  0  0  0  0  0  0  0  0  0
  142.1350   80.3260  222.4050 C   0  0  0  0  0  0  0  0  0  0  0  0
  141.1290   80.1320  223.3380 F   0  0  0  0  0  0  0  0  0  0  0  0
  143.3180   79.8520  222.9220 F   0  0  0  0  0  0  0  0  0  0  0  0
  142.1970   81.6680  222.0740 F   0  0  0  0  0  0  0  0  0  0  0  0
  140.9950   77.5550  222.2510 C   0  0  0  0  0  0  0  0  0  0  0  0
  140.8400   76.1800  222.2510 C   0  0  0  0  0  0  0  0  0  0  0  0
  138.7760   70.9920  223.0970 C   0  0  0  0  0  0  0  0  0  0  0  0
  138.5010   69.6380  223.0650 C   0  0  0  0  0  0  0  0  0  0  0  0
  138.8720   68.7880  224.1040 C   0  0  0  0  0  0  0  0  0  0  0  0
  139.5330   69.3890  225.1670 C   0  0  0  0  0  0  0  0  0  0  0  0
  139.9500   68.6460  226.2570 C   0  0  0  0  0  0  0  0  0  0  0  0
  140.6080   69.2380  227.3160 C   0  0  0  0  0  0  0  0  0  0  0  0
  141.1420   68.2930  228.7060 Cl  0  0  0  0  0  0  0  0  0  0  0  0
  140.8760   70.5930  227.3340 C   0  0  0  0  0  0  0  0  0  0  0  0
  140.4620   71.3580  226.2430 C   0  0  0  0  0  0  0  0  0  0  0  0
  139.8070   70.7410  225.1980 C   0  0  0  0  0  0  0  0  0  0  0  0
  139.4280   71.5220  224.1690 N   0  0  0  0  0  0  0  0  0  0  0  0
  138.7940   73.6280  223.0730 H   0  0  0  0  0  0  0  0  0  0  0  0
  137.0273   73.9927  220.7717 H   0  0  0  0  0  0  0  0  0  0  0  0
  138.1075   75.2297  221.4727 H   0  0  0  0  0  0  0  0  0  0  0  0
  140.7217   71.4305  219.9186 H   0  0  0  0  0  0  0  0  0  0  0  0
  140.4919   72.2775  218.4089 H   0  0  0  0  0  0  0  0  0  0  0  0
  142.9914   71.8656  219.2554 H   0  0  0  0  0  0  0  0  0  0  0  0
  142.6597   73.4675  218.6634 H   0  0  0  0  0  0  0  0  0  0  0  0
  142.6792   72.4313  221.5720 H   0  0  0  0  0  0  0  0  0  0  0  0
  143.4018   73.9241  220.9796 H   0  0  0  0  0  0  0  0  0  0  0  0
  140.8405   73.7824  222.1826 H   0  0  0  0  0  0  0  0  0  0  0  0
  142.4562   75.4974  219.3379 H   0  0  0  0  0  0  0  0  0  0  0  0
  142.7036   77.9473  219.3885 H   0  0  0  0  0  0  0  0  0  0  0  0
  140.5763   78.1361  223.0859 H   0  0  0  0  0  0  0  0  0  0  0  0
  140.3066   75.6783  223.0719 H   0  0  0  0  0  0  0  0  0  0  0  0
  137.9743   69.2199  222.1945 H   0  0  0  0  0  0  0  0  0  0  0  0
  138.6553   67.7098  224.0838 H   0  0  0  0  0  0  0  0  0  0  0  0
  139.7536   67.5639  226.2801 H   0  0  0  0  0  0  0  0  0  0  0  0
  141.4003   71.0553  228.1834 H   0  0  0  0  0  0  0  0  0  0  0  0
  140.6558   72.4405  226.2168 H   0  0  0  0  0  0  0  0  0  0  0  0
  1  2  2  0
  2  3  1  0
  3  4  1  0
  4  5  1  0
  5  6  2  0
  5  7  1  0
  7  8  1  0
  8  9  1  0
  9 10  1  0
 10 11  1  0
 11 12  1  0
 12 13  2  0
 13 14  1  0
 14 15  2  0
 15 16  1  0
 16 17  1  0
 17 18  1  0
 17 19  1  0
 17 20  1  0
 15 21  1  0
 21 22  2  0
  2 23  1  0
 23 24  2  0
 24 25  1  0
 25 26  2  0
 26 27  1  0
 27 28  2  0
 28 29  1  0
 28 30  1  0
 30 31  2  0
 31 32  1  0
 32 33  2  0
 11  7  1  0
 22 12  1  0
 33 23  1  0
 32 26  1  0
  3 34  1  0
  4 35  1  0
  4 36  1  0
  8 37  1  0
  8 38  1  0
  9 39  1  0
  9 40  1  0
 10 41  1  0
 10 42  1  0
 11 43  1  1
 13 44  1  0
 14 45  1  0
 21 46  1  0
 22 47  1  0
 24 48  1  0
 25 49  1  0
 27 50  1  0
 30 51  1  0
 31 52  1  0
M  END
>  <smiles>  (92) 
O=C(NCC(=O)N1CCCC1c1ccc(OC(F)(F)F)cc1)c1ccc2cc(Cl)ccc2n1

>  <score_type>  (92) 
oracle

>  <origin>  (92) 
autodockgpu

>  <m_score__min__energy>  (92) 
-7.96

>  <m_primary>  (92) 
energy

>  <rmsd>  (92) 
2.552119799693715

>  <m_score__min__rmsd>  (92) 
2.552119799693715

>  <meeko>  (92) 
{"free_energy": -7.17, "intermolecular_energy": -9.26, "internal_energy": -2.24, "cluster_size": 5, "cluster_id": 4, "rank_in_cluster": 4}

>  <energy>  (92) 
-6.6

>  <cluster_rmsd>  (92) 
0.38

>  <cluster>  (92) 
7

$$$$

     RDKit          3D

 52 55  0  0  0  0  0  0  0  0999 V2000
  140.0080   72.5270  220.4920 O   0  0  0  0  0  0  0  0  0  0  0  0
  139.6900   72.8520  221.6800 C   0  0  0  0  0  0  0  0  0  0  0  0
  139.2060   74.1510  221.9980 N   0  0  0  0  0  0  0  0  0  0  0  0
  139.0400   75.1880  220.9990 C   0  0  0  0  0  0  0  0  0  0  0  0
  139.2540   76.5090  221.6650 C   0  0  0  0  0  0  0  0  0  0  0  0
  138.6430   76.7110  222.7460 O   0  0  0  0  0  0  0  0  0  0  0  0
  140.1210   77.4830  221.0720 N   0  0  0  0  0  0  0  0  0  0  0  0
  140.4040   78.7940  221.6270 C   0  0  0  0  0  0  0  0  0  0  0  0
  141.8090   79.0400  221.1660 C   0  0  0  0  0  0  0  0  0  0  0  0
  141.7590   78.4830  219.7410 C   0  0  0  0  0  0  0  0  0  0  0  0
  140.8310   77.2810  219.8320 C   0  0  1  0  0  0  0  0  0  0  0  0
  141.5410   76.0050  219.7330 C   0  0  0  0  0  0  0  0  0  0  0  0
  141.5550   75.3290  218.5320 C   0  0  0  0  0  0  0  0  0  0  0  0
  142.2260   74.1280  218.4500 C   0  0  0  0  0  0  0  0  0  0  0  0
  142.8930   73.5650  219.5280 C   0  0  0  0  0  0  0  0  0  0  0  0
  143.5500   72.3660  219.4040 O   0  0  0  0  0  0  0  0  0  0  0  0
  143.1150   71.1820  220.0530 C   0  0  0  0  0  0  0  0  0  0  0  0
  142.0750   70.6360  219.3190 F   0  0  0  0  0  0  0  0  0  0  0  0
  144.1550   70.2830  220.0880 F   0  0  0  0  0  0  0  0  0  0  0  0
  142.6560   71.5160  221.3150 F   0  0  0  0  0  0  0  0  0  0  0  0
  142.8560   74.2710  220.7170 C   0  0  0  0  0  0  0  0  0  0  0  0
  142.1940   75.4790  220.8400 C   0  0  0  0  0  0  0  0  0  0  0  0
  139.8210   71.8690  222.7780 C   0  0  0  0  0  0  0  0  0  0  0  0
  139.4330   70.5580  222.5760 C   0  0  0  0  0  0  0  0  0  0  0  0
  139.5370   69.5980  223.5800 C   0  0  0  0  0  0  0  0  0  0  0  0
  140.0530   70.0440  224.7890 C   0  0  0  0  0  0  0  0  0  0  0  0
  140.2030   69.1820  225.8600 C   0  0  0  0  0  0  0  0  0  0  0  0
  140.7160   69.6200  227.0640 C   0  0  0  0  0  0  0  0  0  0  0  0
  140.9100   68.5220  228.4310 Cl  0  0  0  0  0  0  0  0  0  0  0  0
  141.1000   70.9330  227.2510 C   0  0  0  0  0  0  0  0  0  0  0  0
  140.9550   71.8180  226.1820 C   0  0  0  0  0  0  0  0  0  0  0  0
  140.4400   71.3530  224.9890 C   0  0  0  0  0  0  0  0  0  0  0  0
  140.3200   72.2450  223.9880 N   0  0  0  0  0  0  0  0  0  0  0  0
  138.9600   74.3500  223.0140 H   0  0  0  0  0  0  0  0  0  0  0  0
  139.7770   75.0521  220.1938 H   0  0  0  0  0  0  0  0  0  0  0  0
  138.0320   75.1394  220.5614 H   0  0  0  0  0  0  0  0  0  0  0  0
  139.7151   79.5528  221.2275 H   0  0  0  0  0  0  0  0  0  0  0  0
  140.2837   78.8451  222.7192 H   0  0  0  0  0  0  0  0  0  0  0  0
  142.0524   80.1127  221.1707 H   0  0  0  0  0  0  0  0  0  0  0  0
  142.5791   78.5800  221.8027 H   0  0  0  0  0  0  0  0  0  0  0  0
  141.3560   79.2331  219.0446 H   0  0  0  0  0  0  0  0  0  0  0  0
  142.7561   78.2129  219.3631 H   0  0  0  0  0  0  0  0  0  0  0  0
  140.1327   77.2135  218.9847 H   0  0  0  0  0  0  0  0  0  0  0  0
  141.0387   75.7416  217.6527 H   0  0  0  0  0  0  0  0  0  0  0  0
  142.2329   73.5932  217.4888 H   0  0  0  0  0  0  0  0  0  0  0  0
  143.3715   73.8568  221.5960 H   0  0  0  0  0  0  0  0  0  0  0  0
  142.1848   76.0152  221.8004 H   0  0  0  0  0  0  0  0  0  0  0  0
  139.0309   70.2645  221.5951 H   0  0  0  0  0  0  0  0  0  0  0  0
  139.2299   68.5532  223.4247 H   0  0  0  0  0  0  0  0  0  0  0  0
  139.9080   68.1280  225.7502 H   0  0  0  0  0  0  0  0  0  0  0  0
  141.5084   71.2715  228.2147 H   0  0  0  0  0  0  0  0  0  0  0  0
  141.2475   72.8730  226.2888 H   0  0  0  0  0  0  0  0  0  0  0  0
  1  2  2  0
  2  3  1  0
  3  4  1  0
  4  5  1  0
  5  6  2  0
  5  7  1  0
  7  8  1  0
  8  9  1  0
  9 10  1  0
 10 11  1  0
 11 12  1  0
 12 13  2  0
 13 14  1  0
 14 15  2  0
 15 16  1  0
 16 17  1  0
 17 18  1  0
 17 19  1  0
 17 20  1  0
 15 21  1  0
 21 22  2  0
  2 23  1  0
 23 24  2  0
 24 25  1  0
 25 26  2  0
 26 27  1  0
 27 28  2  0
 28 29  1  0
 28 30  1  0
 30 31  2  0
 31 32  1  0
 32 33  2  0
 11  7  1  0
 22 12  1  0
 33 23  1  0
 32 26  1  0
  3 34  1  0
  4 35  1  0
  4 36  1  0
  8 37  1  0
  8 38  1  0
  9 39  1  0
  9 40  1  0
 10 41  1  0
 10 42  1  0
 11 43  1  6
 13 44  1  0
 14 45  1  0
 21 46  1  0
 22 47  1  0
 24 48  1  0
 25 49  1  0
 27 50  1  0
 30 51  1  0
 31 52  1  0
M  END
>  <smiles>  (93) 
O=C(NCC(=O)N1CCCC1c1ccc(OC(F)(F)F)cc1)c1ccc2cc(Cl)ccc2n1

>  <score_type>  (93) 
oracle

>  <origin>  (93) 
autodockgpu

>  <m_score__min__energy>  (93) 
-7.96

>  <m_primary>  (93) 
energy

>  <rmsd>  (93) 
2.6198778847586497

>  <m_score__min__rmsd>  (93) 
2.6198778847586497

>  <meeko>  (93) 
{"free_energy": -6.71, "intermolecular_energy": -8.8, "internal_energy": -2.5, "cluster_size": 14, "cluster_id": 3, "rank_in_cluster": 14}

>  <energy>  (93) 
-6.47

>  <cluster_rmsd>  (93) 
0.44

>  <cluster>  (93) 
7

$$$$

     RDKit          3D

 52 55  0  0  0  0  0  0  0  0999 V2000
  140.2440   72.0980  220.5380 O   0  0  0  0  0  0  0  0  0  0  0  0
  140.0060   72.5430  221.7070 C   0  0  0  0  0  0  0  0  0  0  0  0
  139.7520   73.9220  221.9470 N   0  0  0  0  0  0  0  0  0  0  0  0
  139.7480   74.9100  220.8860 C   0  0  0  0  0  0  0  0  0  0  0  0
  140.3020   76.1830  221.4390 C   0  0  0  0  0  0  0  0  0  0  0  0
  140.3880   76.2750  222.6910 O   0  0  0  0  0  0  0  0  0  0  0  0
  140.7090   77.2360  220.5570 N   0  0  0  0  0  0  0  0  0  0  0  0
  140.6730   78.6510  220.8770 C   0  0  0  0  0  0  0  0  0  0  0  0
  141.8290   79.1870  220.0860 C   0  0  0  0  0  0  0  0  0  0  0  0
  141.6940   78.3930  218.7830 C   0  0  0  0  0  0  0  0  0  0  0  0
  141.2100   77.0190  219.2220 C   0  0  1  0  0  0  0  0  0  0  0  0
  142.2450   75.9900  219.1150 C   0  0  0  0  0  0  0  0  0  0  0  0
  143.2020   75.8850  220.1010 C   0  0  0  0  0  0  0  0  0  0  0  0
  144.1720   74.9130  219.9890 C   0  0  0  0  0  0  0  0  0  0  0  0
  144.2300   74.0290  218.9230 C   0  0  0  0  0  0  0  0  0  0  0  0
  145.2130   73.0740  218.8500 O   0  0  0  0  0  0  0  0  0  0  0  0
  145.5300   72.2130  219.9330 C   0  0  0  0  0  0  0  0  0  0  0  0
  146.3990   72.8790  220.7820 F   0  0  0  0  0  0  0  0  0  0  0  0
  144.3770   71.9160  220.6210 F   0  0  0  0  0  0  0  0  0  0  0  0
  146.1570   71.0870  219.4290 F   0  0  0  0  0  0  0  0  0  0  0  0
  143.2540   74.1630  217.9520 C   0  0  0  0  0  0  0  0  0  0  0  0
  142.2630   75.1260  218.0270 C   0  0  0  0  0  0  0  0  0  0  0  0
  139.9860   71.6200  222.8620 C   0  0  0  0  0  0  0  0  0  0  0  0
  139.4360   70.3590  222.7250 C   0  0  0  0  0  0  0  0  0  0  0  0
  139.3950   69.4560  223.7850 C   0  0  0  0  0  0  0  0  0  0  0  0
  139.9400   69.9050  224.9800 C   0  0  0  0  0  0  0  0  0  0  0  0
  139.9560   69.0960  226.1020 C   0  0  0  0  0  0  0  0  0  0  0  0
  140.4970   69.5370  227.2930 C   0  0  0  0  0  0  0  0  0  0  0  0
  140.5200   68.5080  228.7260 Cl  0  0  0  0  0  0  0  0  0  0  0  0
  141.0430   70.8000  227.4150 C   0  0  0  0  0  0  0  0  0  0  0  0
  141.0360   71.6290  226.2930 C   0  0  0  0  0  0  0  0  0  0  0  0
  140.4890   71.1630  225.1160 C   0  0  0  0  0  0  0  0  0  0  0  0
  140.5050   72.0010  224.0620 N   0  0  0  0  0  0  0  0  0  0  0  0
  139.5590   74.2200  222.9490 H   0  0  0  0  0  0  0  0  0  0  0  0
  140.3731   74.5628  220.0501 H   0  0  0  0  0  0  0  0  0  0  0  0
  138.7248   75.0679  220.5144 H   0  0  0  0  0  0  0  0  0  0  0  0
  139.7251   79.1079  220.5566 H   0  0  0  0  0  0  0  0  0  0  0  0
  140.7416   78.8608  221.9546 H   0  0  0  0  0  0  0  0  0  0  0  0
  141.7302   80.2685  219.9108 H   0  0  0  0  0  0  0  0  0  0  0  0
  142.8045   79.0765  220.5822 H   0  0  0  0  0  0  0  0  0  0  0  0
  140.9619   78.8672  218.1129 H   0  0  0  0  0  0  0  0  0  0  0  0
  142.6397   78.3440  218.2234 H   0  0  0  0  0  0  0  0  0  0  0  0
  140.4241   76.6129  218.5683 H   0  0  0  0  0  0  0  0  0  0  0  0
  143.1916   76.5668  220.9642 H   0  0  0  0  0  0  0  0  0  0  0  0
  144.9330   74.8352  220.7794 H   0  0  0  0  0  0  0  0  0  0  0  0
  143.2660   73.4800  217.0898 H   0  0  0  0  0  0  0  0  0  0  0  0
  141.5013   75.2062  217.2375 H   0  0  0  0  0  0  0  0  0  0  0  0
  139.0191   70.0604  221.7518 H   0  0  0  0  0  0  0  0  0  0  0  0
  138.9587   68.4515  223.6816 H   0  0  0  0  0  0  0  0  0  0  0  0
  139.5301   68.0834  226.0441 H   0  0  0  0  0  0  0  0  0  0  0  0
  141.4708   71.1421  228.3689 H   0  0  0  0  0  0  0  0  0  0  0  0
  141.4616   72.6419  226.3465 H   0  0  0  0  0  0  0  0  0  0  0  0
  1  2  2  0
  2  3  1  0
  3  4  1  0
  4  5  1  0
  5  6  2  0
  5  7  1  0
  7  8  1  0
  8  9  1  0
  9 10  1  0
 10 11  1  0
 11 12  1  0
 12 13  2  0
 13 14  1  0
 14 15  2  0
 15 16  1  0
 16 17  1  0
 17 18  1  0
 17 19  1  0
 17 20  1  0
 15 21  1  0
 21 22  2  0
  2 23  1  0
 23 24  2  0
 24 25  1  0
 25 26  2  0
 26 27  1  0
 27 28  2  0
 28 29  1  0
 28 30  1  0
 30 31  2  0
 31 32  1  0
 32 33  2  0
 11  7  1  0
 22 12  1  0
 33 23  1  0
 32 26  1  0
  3 34  1  0
  4 35  1  0
  4 36  1  0
  8 37  1  0
  8 38  1  0
  9 39  1  0
  9 40  1  0
 10 41  1  0
 10 42  1  0
 11 43  1  6
 13 44  1  0
 14 45  1  0
 21 46  1  0
 22 47  1  0
 24 48  1  0
 25 49  1  0
 27 50  1  0
 30 51  1  0
 31 52  1  0
M  END
>  <smiles>  (94) 
O=C(NCC(=O)N1CCCC1c1ccc(OC(F)(F)F)cc1)c1ccc2cc(Cl)ccc2n1

>  <score_type>  (94) 
oracle

>  <origin>  (94) 
autodockgpu

>  <m_score__min__energy>  (94) 
-7.96

>  <m_primary>  (94) 
energy

>  <rmsd>  (94) 
2.3696555490973608

>  <m_score__min__rmsd>  (94) 
2.3696555490973608

>  <meeko>  (94) 
{"free_energy": -7.65, "intermolecular_energy": -9.73, "internal_energy": -2.32, "cluster_size": 14, "cluster_id": 3, "rank_in_cluster": 5}

>  <energy>  (94) 
-6.44

>  <cluster_rmsd>  (94) 
1.32

>  <cluster>  (94) 
7

$$$$

     RDKit          3D

 52 55  0  0  0  0  0  0  0  0999 V2000
  139.6950   71.9760  220.5620 O   0  0  0  0  0  0  0  0  0  0  0  0
  139.7650   72.4300  221.7490 C   0  0  0  0  0  0  0  0  0  0  0  0
  139.7920   73.8260  222.0180 N   0  0  0  0  0  0  0  0  0  0  0  0
  139.7430   74.8230  220.9670 C   0  0  0  0  0  0  0  0  0  0  0  0
  140.6090   75.9710  221.3780 C   0  0  0  0  0  0  0  0  0  0  0  0
  140.8770   76.0760  222.6030 O   0  0  0  0  0  0  0  0  0  0  0  0
  141.0940   76.8950  220.3980 N   0  0  0  0  0  0  0  0  0  0  0  0
  141.0520   76.6870  218.9630 C   0  0  0  0  0  0  0  0  0  0  0  0
  140.9020   78.0840  218.4400 C   0  0  0  0  0  0  0  0  0  0  0  0
  141.8440   78.8550  219.3710 C   0  0  0  0  0  0  0  0  0  0  0  0
  141.6950   78.1680  220.7200 C   0  0  1  0  0  0  0  0  0  0  0  0
  140.9490   78.9710  221.6880 C   0  0  0  0  0  0  0  0  0  0  0  0
  141.4880   79.2060  222.9340 C   0  0  0  0  0  0  0  0  0  0  0  0
  140.7760   79.9640  223.8390 C   0  0  0  0  0  0  0  0  0  0  0  0
  139.5330   80.5060  223.5500 C   0  0  0  0  0  0  0  0  0  0  0  0
  138.8560   81.2550  224.4790 O   0  0  0  0  0  0  0  0  0  0  0  0
  137.4490   81.1810  224.6490 C   0  0  0  0  0  0  0  0  0  0  0  0
  136.8630   82.1750  223.8820 F   0  0  0  0  0  0  0  0  0  0  0  0
  137.0080   79.9570  224.2040 F   0  0  0  0  0  0  0  0  0  0  0  0
  137.1560   81.4020  225.9830 F   0  0  0  0  0  0  0  0  0  0  0  0
  139.0220   80.2490  222.2900 C   0  0  0  0  0  0  0  0  0  0  0  0
  139.7050   79.4930  221.3540 C   0  0  0  0  0  0  0  0  0  0  0  0
  139.8200   71.4980  222.8960 C   0  0  0  0  0  0  0  0  0  0  0  0
  139.3050   70.2220  222.7720 C   0  0  0  0  0  0  0  0  0  0  0  0
  139.3340   69.3110  223.8250 C   0  0  0  0  0  0  0  0  0  0  0  0
  139.9130   69.7690  225.0020 C   0  0  0  0  0  0  0  0  0  0  0  0
  139.9990   68.9530  226.1160 C   0  0  0  0  0  0  0  0  0  0  0  0
  140.5740   69.4030  227.2870 C   0  0  0  0  0  0  0  0  0  0  0  0
  140.6860   68.3650  228.7100 Cl  0  0  0  0  0  0  0  0  0  0  0  0
  141.0860   70.6810  227.3970 C   0  0  0  0  0  0  0  0  0  0  0  0
  141.0080   71.5170  226.2830 C   0  0  0  0  0  0  0  0  0  0  0  0
  140.4280   71.0430  225.1250 C   0  0  0  0  0  0  0  0  0  0  0  0
  140.3760   71.8880  224.0780 N   0  0  0  0  0  0  0  0  0  0  0  0
  139.8510   74.1310  223.0350 H   0  0  0  0  0  0  0  0  0  0  0  0
  140.1160   74.3922  220.0261 H   0  0  0  0  0  0  0  0  0  0  0  0
  138.7084   75.1620  220.8099 H   0  0  0  0  0  0  0  0  0  0  0  0
  141.9816   76.2240  218.6005 H   0  0  0  0  0  0  0  0  0  0  0  0
  140.2489   76.0081  218.6404 H   0  0  0  0  0  0  0  0  0  0  0  0
  141.2233   78.1579  217.3906 H   0  0  0  0  0  0  0  0  0  0  0  0
  139.8667   78.4557  218.4376 H   0  0  0  0  0  0  0  0  0  0  0  0
  142.8824   78.7895  219.0142 H   0  0  0  0  0  0  0  0  0  0  0  0
  141.5995   79.9264  219.4186 H   0  0  0  0  0  0  0  0  0  0  0  0
  142.6550   78.0298  221.2390 H   0  0  0  0  0  0  0  0  0  0  0  0
  142.4722   78.7948  223.2028 H   0  0  0  0  0  0  0  0  0  0  0  0
  141.2124   80.1465  224.8321 H   0  0  0  0  0  0  0  0  0  0  0  0
  138.0375   80.6605  222.0230 H   0  0  0  0  0  0  0  0  0  0  0  0
  139.2701   79.3079  220.3607 H   0  0  0  0  0  0  0  0  0  0  0  0
  138.8591   69.9168  221.8139 H   0  0  0  0  0  0  0  0  0  0  0  0
  138.9248   68.2943  223.7309 H   0  0  0  0  0  0  0  0  0  0  0  0
  139.6023   67.9282  226.0674 H   0  0  0  0  0  0  0  0  0  0  0  0
  141.5419   71.0294  228.3355 H   0  0  0  0  0  0  0  0  0  0  0  0
  141.4044   72.5421  226.3277 H   0  0  0  0  0  0  0  0  0  0  0  0
  1  2  2  0
  2  3  1  0
  3  4  1  0
  4  5  1  0
  5  6  2  0
  5  7  1  0
  7  8  1  0
  8  9  1  0
  9 10  1  0
 10 11  1  0
 11 12  1  0
 12 13  2  0
 13 14  1  0
 14 15  2  0
 15 16  1  0
 16 17  1  0
 17 18  1  0
 17 19  1  0
 17 20  1  0
 15 21  1  0
 21 22  2  0
  2 23  1  0
 23 24  2  0
 24 25  1  0
 25 26  2  0
 26 27  1  0
 27 28  2  0
 28 29  1  0
 28 30  1  0
 30 31  2  0
 31 32  1  0
 32 33  2  0
 11  7  1  0
 22 12  1  0
 33 23  1  0
 32 26  1  0
  3 34  1  0
  4 35  1  0
  4 36  1  0
  8 37  1  0
  8 38  1  0
  9 39  1  0
  9 40  1  0
 10 41  1  0
 10 42  1  0
 11 43  1  1
 13 44  1  0
 14 45  1  0
 21 46  1  0
 22 47  1  0
 24 48  1  0
 25 49  1  0
 27 50  1  0
 30 51  1  0
 31 52  1  0
M  END
>  <smiles>  (95) 
O=C(NCC(=O)N1CCCC1c1ccc(OC(F)(F)F)cc1)c1ccc2cc(Cl)ccc2n1

>  <score_type>  (95) 
oracle

>  <origin>  (95) 
autodockgpu

>  <m_score__min__energy>  (95) 
-7.96

>  <m_primary>  (95) 
energy

>  <rmsd>  (95) 
1.7362416503834455

>  <m_score__min__rmsd>  (95) 
1.7362416503834455

>  <meeko>  (95) 
{"free_energy": -7.76, "intermolecular_energy": -9.85, "internal_energy": -2.16, "cluster_size": 9, "cluster_id": 1, "rank_in_cluster": 7}

>  <energy>  (95) 
-6.25

>  <cluster_rmsd>  (95) 
0.85

>  <cluster>  (95) 
7

$$$$

     RDKit          3D

 52 55  0  0  0  0  0  0  0  0999 V2000
  138.9090   72.8230  220.2010 O   0  0  0  0  0  0  0  0  0  0  0  0
  139.8330   72.8020  221.0760 C   0  0  0  0  0  0  0  0  0  0  0  0
  141.0490   73.5170  220.9010 N   0  0  0  0  0  0  0  0  0  0  0  0
  141.3210   74.3150  219.7220 C   0  0  0  0  0  0  0  0  0  0  0  0
  142.5050   75.1800  220.0130 C   0  0  0  0  0  0  0  0  0  0  0  0
  143.5570   74.6040  220.3930 O   0  0  0  0  0  0  0  0  0  0  0  0
  142.4150   76.6010  219.8570 N   0  0  0  0  0  0  0  0  0  0  0  0
  142.9650   77.3550  218.7460 C   0  0  0  0  0  0  0  0  0  0  0  0
  142.0040   78.4990  218.6280 C   0  0  0  0  0  0  0  0  0  0  0  0
  141.7440   78.8250  220.1020 C   0  0  0  0  0  0  0  0  0  0  0  0
  141.7580   77.4740  220.8000 C   0  0  1  0  0  0  0  0  0  0  0  0
  140.4260   77.0350  221.2170 C   0  0  0  0  0  0  0  0  0  0  0  0
  139.3200   77.4610  220.5130 C   0  0  0  0  0  0  0  0  0  0  0  0
  138.0700   77.0420  220.9150 C   0  0  0  0  0  0  0  0  0  0  0  0
  137.8730   76.2050  222.0020 C   0  0  0  0  0  0  0  0  0  0  0  0
  136.6100   75.8100  222.3700 O   0  0  0  0  0  0  0  0  0  0  0  0
  136.0920   74.5230  222.0740 C   0  0  0  0  0  0  0  0  0  0  0  0
  136.5840   74.1240  220.8420 F   0  0  0  0  0  0  0  0  0  0  0  0
  136.5230   73.6350  223.0330 F   0  0  0  0  0  0  0  0  0  0  0  0
  134.7120   74.6090  222.0090 F   0  0  0  0  0  0  0  0  0  0  0  0
  139.0040   75.7980  222.6850 C   0  0  0  0  0  0  0  0  0  0  0  0
  140.2760   76.1960  222.3140 C   0  0  0  0  0  0  0  0  0  0  0  0
  139.6580   72.0180  222.3190 C   0  0  0  0  0  0  0  0  0  0  0  0
  138.7000   71.0240  222.3760 C   0  0  0  0  0  0  0  0  0  0  0  0
  138.5000   70.2610  223.5240 C   0  0  0  0  0  0  0  0  0  0  0  0
  139.3220   70.5650  224.6010 C   0  0  0  0  0  0  0  0  0  0  0  0
  139.2160   69.8750  225.7940 C   0  0  0  0  0  0  0  0  0  0  0  0
  140.0310   70.1720  226.8680 C   0  0  0  0  0  0  0  0  0  0  0  0
  139.8980   69.2930  228.3910 Cl  0  0  0  0  0  0  0  0  0  0  0  0
  140.9840   71.1690  226.7960 C   0  0  0  0  0  0  0  0  0  0  0  0
  141.1060   71.8760  225.5990 C   0  0  0  0  0  0  0  0  0  0  0  0
  140.2790   71.5580  224.5420 C   0  0  0  0  0  0  0  0  0  0  0  0
  140.4350   72.2690  223.4100 N   0  0  0  0  0  0  0  0  0  0  0  0
  141.7750   73.4530  221.6760 H   0  0  0  0  0  0  0  0  0  0  0  0
  141.5402   73.6570  218.8682 H   0  0  0  0  0  0  0  0  0  0  0  0
  140.4477   74.9346  219.4700 H   0  0  0  0  0  0  0  0  0  0  0  0
  143.9815   77.7104  218.9704 H   0  0  0  0  0  0  0  0  0  0  0  0
  143.0648   76.7670  217.8217 H   0  0  0  0  0  0  0  0  0  0  0  0
  142.4559   79.3519  218.1005 H   0  0  0  0  0  0  0  0  0  0  0  0
  141.0967   78.2678  218.0507 H   0  0  0  0  0  0  0  0  0  0  0  0
  142.5350   79.4769  220.5012 H   0  0  0  0  0  0  0  0  0  0  0  0
  140.7956   79.3621  220.2502 H   0  0  0  0  0  0  0  0  0  0  0  0
  142.2963   77.4931  221.7591 H   0  0  0  0  0  0  0  0  0  0  0  0
  139.4334   78.1253  219.6436 H   0  0  0  0  0  0  0  0  0  0  0  0
  137.1917   77.3864  220.3493 H   0  0  0  0  0  0  0  0  0  0  0  0
  138.8884   75.1341  223.5544 H   0  0  0  0  0  0  0  0  0  0  0  0
  141.1553   75.8533  222.8791 H   0  0  0  0  0  0  0  0  0  0  0  0
  138.0778   70.8298  221.4899 H   0  0  0  0  0  0  0  0  0  0  0  0
  137.7393   69.4681  223.5742 H   0  0  0  0  0  0  0  0  0  0  0  0
  138.4681   69.0741  225.8895 H   0  0  0  0  0  0  0  0  0  0  0  0
  141.6283   71.3992  227.6573 H   0  0  0  0  0  0  0  0  0  0  0  0
  141.8529   72.6774  225.4997 H   0  0  0  0  0  0  0  0  0  0  0  0
  1  2  2  0
  2  3  1  0
  3  4  1  0
  4  5  1  0
  5  6  2  0
  5  7  1  0
  7  8  1  0
  8  9  1  0
  9 10  1  0
 10 11  1  0
 11 12  1  0
 12 13  2  0
 13 14  1  0
 14 15  2  0
 15 16  1  0
 16 17  1  0
 17 18  1  0
 17 19  1  0
 17 20  1  0
 15 21  1  0
 21 22  2  0
  2 23  1  0
 23 24  2  0
 24 25  1  0
 25 26  2  0
 26 27  1  0
 27 28  2  0
 28 29  1  0
 28 30  1  0
 30 31  2  0
 31 32  1  0
 32 33  2  0
 11  7  1  0
 22 12  1  0
 33 23  1  0
 32 26  1  0
  3 34  1  0
  4 35  1  0
  4 36  1  0
  8 37  1  0
  8 38  1  0
  9 39  1  0
  9 40  1  0
 10 41  1  0
 10 42  1  0
 11 43  1  1
 13 44  1  0
 14 45  1  0
 21 46  1  0
 22 47  1  0
 24 48  1  0
 25 49  1  0
 27 50  1  0
 30 51  1  0
 31 52  1  0
M  END
>  <smiles>  (96) 
O=C(NCC(=O)N1CCCC1c1ccc(OC(F)(F)F)cc1)c1ccc2cc(Cl)ccc2n1

>  <score_type>  (96) 
oracle

>  <origin>  (96) 
autodockgpu

>  <m_score__min__energy>  (96) 
-7.96

>  <m_primary>  (96) 
energy

>  <rmsd>  (96) 
2.8191979992872507

>  <m_score__min__rmsd>  (96) 
2.8191979992872507

>  <meeko>  (96) 
{"free_energy": -5.87, "intermolecular_energy": -7.95, "internal_energy": -2.89, "cluster_size": 4, "cluster_id": 6, "rank_in_cluster": 4}

>  <energy>  (96) 
-6.16

>  <cluster_rmsd>  (96) 
1.05

>  <cluster>  (96) 
7

$$$$

     RDKit          3D

 52 55  0  0  0  0  0  0  0  0999 V2000
  140.3830   71.9630  220.4950 O   0  0  0  0  0  0  0  0  0  0  0  0
  140.0400   72.4120  221.6360 C   0  0  0  0  0  0  0  0  0  0  0  0
  139.6870   73.7750  221.8300 N   0  0  0  0  0  0  0  0  0  0  0  0
  139.6930   74.7440  220.7510 C   0  0  0  0  0  0  0  0  0  0  0  0
  140.2840   76.0130  221.2740 C   0  0  0  0  0  0  0  0  0  0  0  0
  140.3690   76.1350  222.5240 O   0  0  0  0  0  0  0  0  0  0  0  0
  140.7260   77.0300  220.3670 N   0  0  0  0  0  0  0  0  0  0  0  0
  140.6270   78.4580  220.6040 C   0  0  0  0  0  0  0  0  0  0  0  0
  141.8230   78.9890  219.8720 C   0  0  0  0  0  0  0  0  0  0  0  0
  141.8090   78.1220  218.6090 C   0  0  0  0  0  0  0  0  0  0  0  0
  141.3330   76.7580  219.0860 C   0  0  1  0  0  0  0  0  0  0  0  0
  142.4020   75.7590  219.1140 C   0  0  0  0  0  0  0  0  0  0  0  0
  143.3700   75.8280  220.0920 C   0  0  0  0  0  0  0  0  0  0  0  0
  144.3720   74.8820  220.1080 C   0  0  0  0  0  0  0  0  0  0  0  0
  144.4510   73.8570  219.1780 C   0  0  0  0  0  0  0  0  0  0  0  0
  145.4660   72.9340  219.2290 O   0  0  0  0  0  0  0  0  0  0  0  0
  145.2310   71.5360  219.2790 C   0  0  0  0  0  0  0  0  0  0  0  0
  144.2370   71.2920  220.2130 F   0  0  0  0  0  0  0  0  0  0  0  0
  144.7970   71.1090  218.0460 F   0  0  0  0  0  0  0  0  0  0  0  0
  146.3980   70.9090  219.6810 F   0  0  0  0  0  0  0  0  0  0  0  0
  143.4640   73.8200  218.2100 C   0  0  0  0  0  0  0  0  0  0  0  0
  142.4410   74.7500  218.1600 C   0  0  0  0  0  0  0  0  0  0  0  0
  140.0000   71.5080  222.8060 C   0  0  0  0  0  0  0  0  0  0  0  0
  139.4070   70.2650  222.6940 C   0  0  0  0  0  0  0  0  0  0  0  0
  139.3450   69.3810  223.7690 C   0  0  0  0  0  0  0  0  0  0  0  0
  139.9160   69.8300  224.9520 C   0  0  0  0  0  0  0  0  0  0  0  0
  139.9150   69.0390  226.0870 C   0  0  0  0  0  0  0  0  0  0  0  0
  140.4810   69.4800  227.2660 C   0  0  0  0  0  0  0  0  0  0  0  0
  140.4820   68.4740  228.7150 Cl  0  0  0  0  0  0  0  0  0  0  0  0
  141.0710   70.7260  227.3630 C   0  0  0  0  0  0  0  0  0  0  0  0
  141.0810   71.5370  226.2280 C   0  0  0  0  0  0  0  0  0  0  0  0
  140.5080   71.0710  225.0620 C   0  0  0  0  0  0  0  0  0  0  0  0
  140.5430   71.8910  223.9950 N   0  0  0  0  0  0  0  0  0  0  0  0
  139.4100   74.0770  222.8120 H   0  0  0  0  0  0  0  0  0  0  0  0
  140.2990   74.3670  219.9140 H   0  0  0  0  0  0  0  0  0  0  0  0
  138.6692   74.9197  220.3892 H   0  0  0  0  0  0  0  0  0  0  0  0
  139.6933   78.8664  220.1900 H   0  0  0  0  0  0  0  0  0  0  0  0
  140.6093   78.7265  221.6706 H   0  0  0  0  0  0  0  0  0  0  0  0
  141.7064   80.0557  219.6299 H   0  0  0  0  0  0  0  0  0  0  0  0
  142.7613   78.9380  220.4439 H   0  0  0  0  0  0  0  0  0  0  0  0
  141.1161   78.5357  217.8615 H   0  0  0  0  0  0  0  0  0  0  0  0
  142.7955   78.0740  218.1247 H   0  0  0  0  0  0  0  0  0  0  0  0
  140.6114   76.2919  218.3989 H   0  0  0  0  0  0  0  0  0  0  0  0
  143.3434   76.6261  220.8486 H   0  0  0  0  0  0  0  0  0  0  0  0
  145.1415   74.9428  220.8917 H   0  0  0  0  0  0  0  0  0  0  0  0
  143.4934   73.0227  217.4528 H   0  0  0  0  0  0  0  0  0  0  0  0
  141.6705   74.6914  217.3771 H   0  0  0  0  0  0  0  0  0  0  0  0
  138.9718   69.9651  221.7293 H   0  0  0  0  0  0  0  0  0  0  0  0
  138.8737   68.3906  223.6857 H   0  0  0  0  0  0  0  0  0  0  0  0
  139.4548   68.0406  226.0491 H   0  0  0  0  0  0  0  0  0  0  0  0
  141.5195   71.0681  228.3074 H   0  0  0  0  0  0  0  0  0  0  0  0
  141.5401   72.5360  226.2619 H   0  0  0  0  0  0  0  0  0  0  0  0
  1  2  2  0
  2  3  1  0
  3  4  1  0
  4  5  1  0
  5  6  2  0
  5  7  1  0
  7  8  1  0
  8  9  1  0
  9 10  1  0
 10 11  1  0
 11 12  1  0
 12 13  2  0
 13 14  1  0
 14 15  2  0
 15 16  1  0
 16 17  1  0
 17 18  1  0
 17 19  1  0
 17 20  1  0
 15 21  1  0
 21 22  2  0
  2 23  1  0
 23 24  2  0
 24 25  1  0
 25 26  2  0
 26 27  1  0
 27 28  2  0
 28 29  1  0
 28 30  1  0
 30 31  2  0
 31 32  1  0
 32 33  2  0
 11  7  1  0
 22 12  1  0
 33 23  1  0
 32 26  1  0
  3 34  1  0
  4 35  1  0
  4 36  1  0
  8 37  1  0
  8 38  1  0
  9 39  1  0
  9 40  1  0
 10 41  1  0
 10 42  1  0
 11 43  1  6
 13 44  1  0
 14 45  1  0
 21 46  1  0
 22 47  1  0
 24 48  1  0
 25 49  1  0
 27 50  1  0
 30 51  1  0
 31 52  1  0
M  END
>  <smiles>  (97) 
O=C(NCC(=O)N1CCCC1c1ccc(OC(F)(F)F)cc1)c1ccc2cc(Cl)ccc2n1

>  <score_type>  (97) 
oracle

>  <origin>  (97) 
autodockgpu

>  <m_score__min__energy>  (97) 
-7.96

>  <m_primary>  (97) 
energy

>  <rmsd>  (97) 
2.2437181356159344

>  <m_score__min__rmsd>  (97) 
2.2437181356159344

>  <meeko>  (97) 
{"free_energy": -7.56, "intermolecular_energy": -9.65, "internal_energy": -2.27, "cluster_size": 14, "cluster_id": 3, "rank_in_cluster": 8}

>  <energy>  (97) 
-6.07

>  <cluster_rmsd>  (97) 
0.95

>  <cluster>  (97) 
7

$$$$

     RDKit          3D

 52 55  0  0  0  0  0  0  0  0999 V2000
  141.3730   79.1640  217.6810 O   0  0  0  0  0  0  0  0  0  0  0  0
  142.0060   78.6150  218.6400 C   0  0  0  0  0  0  0  0  0  0  0  0
  142.1730   79.2610  219.8960 N   0  0  0  0  0  0  0  0  0  0  0  0
  141.6380   80.5800  220.1720 C   0  0  0  0  0  0  0  0  0  0  0  0
  141.6520   80.7830  221.6530 C   0  0  0  0  0  0  0  0  0  0  0  0
  142.7720   80.7530  222.2250 O   0  0  0  0  0  0  0  0  0  0  0  0
  140.4260   80.9990  222.3620 N   0  0  0  0  0  0  0  0  0  0  0  0
  139.5350   82.1260  222.1620 C   0  0  0  0  0  0  0  0  0  0  0  0
  138.1930   81.5310  222.4650 C   0  0  0  0  0  0  0  0  0  0  0  0
  138.5230   80.6430  223.6690 C   0  0  0  0  0  0  0  0  0  0  0  0
  139.9180   80.1100  223.3790 C   0  0  1  0  0  0  0  0  0  0  0  0
  139.9200   78.6930  223.0130 C   0  0  0  0  0  0  0  0  0  0  0  0
  138.7270   78.0620  222.7340 C   0  0  0  0  0  0  0  0  0  0  0  0
  138.7410   76.7270  222.3910 C   0  0  0  0  0  0  0  0  0  0  0  0
  139.9100   75.9850  222.3120 C   0  0  0  0  0  0  0  0  0  0  0  0
  139.8800   74.6570  221.9660 O   0  0  0  0  0  0  0  0  0  0  0  0
  140.5060   74.1550  220.7960 C   0  0  0  0  0  0  0  0  0  0  0  0
  141.7150   73.5820  221.1560 F   0  0  0  0  0  0  0  0  0  0  0  0
  139.7030   73.1860  220.2400 F   0  0  0  0  0  0  0  0  0  0  0  0
  140.7400   75.2120  219.9350 F   0  0  0  0  0  0  0  0  0  0  0  0
  141.0880   76.6500  222.5990 C   0  0  0  0  0  0  0  0  0  0  0  0
  141.1160   77.9890  222.9480 C   0  0  0  0  0  0  0  0  0  0  0  0
  142.5930   77.2690  218.4650 C   0  0  0  0  0  0  0  0  0  0  0  0
  142.5580   76.6600  217.2250 C   0  0  0  0  0  0  0  0  0  0  0  0
  143.0980   75.3920  217.0140 C   0  0  0  0  0  0  0  0  0  0  0  0
  143.6690   74.7870  218.1250 C   0  0  0  0  0  0  0  0  0  0  0  0
  144.2360   73.5290  218.0370 C   0  0  0  0  0  0  0  0  0  0  0  0
  144.8060   72.9230  219.1390 C   0  0  0  0  0  0  0  0  0  0  0  0
  145.5310   71.3180  219.0290 Cl  0  0  0  0  0  0  0  0  0  0  0  0
  144.8330   73.5450  220.3710 C   0  0  0  0  0  0  0  0  0  0  0  0
  144.2660   74.8140  220.4790 C   0  0  0  0  0  0  0  0  0  0  0  0
  143.7040   75.3970  219.3620 C   0  0  0  0  0  0  0  0  0  0  0  0
  143.1680   76.6220  219.5170 N   0  0  0  0  0  0  0  0  0  0  0  0
  142.7130   78.7400  220.6500 H   0  0  0  0  0  0  0  0  0  0  0  0
  142.2603   81.3449  219.6844 H   0  0  0  0  0  0  0  0  0  0  0  0
  140.6122   80.6654  219.7840 H   0  0  0  0  0  0  0  0  0  0  0  0
  139.7714   82.9481  222.8535 H   0  0  0  0  0  0  0  0  0  0  0  0
  139.6036   82.5684  221.1572 H   0  0  0  0  0  0  0  0  0  0  0  0
  137.4583   82.3068  222.7262 H   0  0  0  0  0  0  0  0  0  0  0  0
  137.7376   80.9934  221.6203 H   0  0  0  0  0  0  0  0  0  0  0  0
  138.5170   81.2308  224.5988 H   0  0  0  0  0  0  0  0  0  0  0  0
  137.7878   79.8366  223.8077 H   0  0  0  0  0  0  0  0  0  0  0  0
  140.5709   80.1121  224.2642 H   0  0  0  0  0  0  0  0  0  0  0  0
  137.7777   78.6155  222.7843 H   0  0  0  0  0  0  0  0  0  0  0  0
  137.7850   76.2294  222.1708 H   0  0  0  0  0  0  0  0  0  0  0  0
  142.0364   76.0951  222.5481 H   0  0  0  0  0  0  0  0  0  0  0  0
  142.0706   78.4882  223.1705 H   0  0  0  0  0  0  0  0  0  0  0  0
  142.0914   77.1900  216.3816 H   0  0  0  0  0  0  0  0  0  0  0  0
  143.0731   74.9021  216.0294 H   0  0  0  0  0  0  0  0  0  0  0  0
  144.2329   73.0015  217.0717 H   0  0  0  0  0  0  0  0  0  0  0  0
  145.2890   73.0533  221.2429 H   0  0  0  0  0  0  0  0  0  0  0  0
  144.2667   75.3439  221.4429 H   0  0  0  0  0  0  0  0  0  0  0  0
  1  2  2  0
  2  3  1  0
  3  4  1  0
  4  5  1  0
  5  6  2  0
  5  7  1  0
  7  8  1  0
  8  9  1  0
  9 10  1  0
 10 11  1  0
 11 12  1  0
 12 13  2  0
 13 14  1  0
 14 15  2  0
 15 16  1  0
 16 17  1  0
 17 18  1  0
 17 19  1  0
 17 20  1  0
 15 21  1  0
 21 22  2  0
  2 23  1  0
 23 24  2  0
 24 25  1  0
 25 26  2  0
 26 27  1  0
 27 28  2  0
 28 29  1  0
 28 30  1  0
 30 31  2  0
 31 32  1  0
 32 33  2  0
 11  7  1  0
 22 12  1  0
 33 23  1  0
 32 26  1  0
  3 34  1  0
  4 35  1  0
  4 36  1  0
  8 37  1  0
  8 38  1  0
  9 39  1  0
  9 40  1  0
 10 41  1  0
 10 42  1  0
 11 43  1  1
 13 44  1  0
 14 45  1  0
 21 46  1  0
 22 47  1  0
 24 48  1  0
 25 49  1  0
 27 50  1  0
 30 51  1  0
 31 52  1  0
M  END
>  <smiles>  (98) 
O=C(NCC(=O)N1CCCC1c1ccc(OC(F)(F)F)cc1)c1ccc2cc(Cl)ccc2n1

>  <score_type>  (98) 
oracle

>  <origin>  (98) 
autodockgpu

>  <m_score__min__energy>  (98) 
-7.96

>  <m_primary>  (98) 
energy

>  <rmsd>  (98) 
8.512243075885559

>  <m_score__min__rmsd>  (98) 
8.512243075885559

>  <meeko>  (98) 
{"free_energy": -6.69, "intermolecular_energy": -8.78, "internal_energy": -3.02, "cluster_size": 8, "cluster_id": 7, "rank_in_cluster": 2}

>  <energy>  (98) 
-6.3

>  <cluster_rmsd>  (98) 
0.0

>  <cluster>  (98) 
8

$$$$

     RDKit          3D

 52 55  0  0  0  0  0  0  0  0999 V2000
  137.6600   71.2940  221.5120 O   0  0  0  0  0  0  0  0  0  0  0  0
  138.4470   71.7500  222.4020 C   0  0  0  0  0  0  0  0  0  0  0  0
  138.9330   73.0850  222.3600 N   0  0  0  0  0  0  0  0  0  0  0  0
  138.5720   74.0140  221.3080 C   0  0  0  0  0  0  0  0  0  0  0  0
  138.7780   75.4010  221.8260 C   0  0  0  0  0  0  0  0  0  0  0  0
  139.8700   75.6420  222.4020 O   0  0  0  0  0  0  0  0  0  0  0  0
  137.7570   76.3920  221.6600 N   0  0  0  0  0  0  0  0  0  0  0  0
  137.6170   77.2590  220.5040 C   0  0  0  0  0  0  0  0  0  0  0  0
  136.1330   77.4660  220.4380 C   0  0  0  0  0  0  0  0  0  0  0  0
  135.7850   77.6160  221.9220 C   0  0  0  0  0  0  0  0  0  0  0  0
  136.7260   76.6570  222.6340 C   0  0  1  0  0  0  0  0  0  0  0  0
  136.0450   75.4670  223.1450 C   0  0  0  0  0  0  0  0  0  0  0  0
  135.8260   75.3400  224.5000 C   0  0  0  0  0  0  0  0  0  0  0  0
  135.1840   74.2150  224.9710 C   0  0  0  0  0  0  0  0  0  0  0  0
  134.7450   73.1970  224.1370 C   0  0  0  0  0  0  0  0  0  0  0  0
  134.1090   72.0920  224.6460 O   0  0  0  0  0  0  0  0  0  0  0  0
  134.7830   70.8720  224.9100 C   0  0  0  0  0  0  0  0  0  0  0  0
  134.6750   70.5950  226.2630 F   0  0  0  0  0  0  0  0  0  0  0  0
  134.1770   69.8630  224.1990 F   0  0  0  0  0  0  0  0  0  0  0  0
  136.1190   71.0280  224.5820 F   0  0  0  0  0  0  0  0  0  0  0  0
  134.9820   73.3580  222.7840 C   0  0  0  0  0  0  0  0  0  0  0  0
  135.6230   74.4720  222.2720 C   0  0  0  0  0  0  0  0  0  0  0  0
  138.8790   70.8850  223.5220 C   0  0  0  0  0  0  0  0  0  0  0  0
  138.5910   69.5340  223.4980 C   0  0  0  0  0  0  0  0  0  0  0  0
  138.9770   68.6820  224.5300 C   0  0  0  0  0  0  0  0  0  0  0  0
  139.6680   69.2780  225.5770 C   0  0  0  0  0  0  0  0  0  0  0  0
  140.1030   68.5320  226.6570 C   0  0  0  0  0  0  0  0  0  0  0  0
  140.7900   69.1190  227.7010 C   0  0  0  0  0  0  0  0  0  0  0  0
  141.3470   68.1700  229.0800 Cl  0  0  0  0  0  0  0  0  0  0  0  0
  141.0720   70.4710  227.7100 C   0  0  0  0  0  0  0  0  0  0  0  0
  140.6410   71.2390  226.6280 C   0  0  0  0  0  0  0  0  0  0  0  0
  139.9560   70.6260  225.5990 C   0  0  0  0  0  0  0  0  0  0  0  0
  139.5610   71.4100  224.5780 N   0  0  0  0  0  0  0  0  0  0  0  0
  139.5870   73.3960  223.1400 H   0  0  0  0  0  0  0  0  0  0  0  0
  139.2089   73.8461  220.4270 H   0  0  0  0  0  0  0  0  0  0  0  0
  137.5224   73.8682  221.0129 H   0  0  0  0  0  0  0  0  0  0  0  0
  138.1459   78.2118  220.6542 H   0  0  0  0  0  0  0  0  0  0  0  0
  138.0444   76.8370  219.5824 H   0  0  0  0  0  0  0  0  0  0  0  0
  135.8777   78.3732  219.8708 H   0  0  0  0  0  0  0  0  0  0  0  0
  135.5877   76.6590  219.9266 H   0  0  0  0  0  0  0  0  0  0  0  0
  135.9555   78.6493  222.2586 H   0  0  0  0  0  0  0  0  0  0  0  0
  134.7276   77.3934  222.1276 H   0  0  0  0  0  0  0  0  0  0  0  0
  137.1544   77.0813  223.5540 H   0  0  0  0  0  0  0  0  0  0  0  0
  136.1587   76.1249  225.1951 H   0  0  0  0  0  0  0  0  0  0  0  0
  135.0126   74.1204  226.0534 H   0  0  0  0  0  0  0  0  0  0  0  0
  134.6489   72.5722  222.0901 H   0  0  0  0  0  0  0  0  0  0  0  0
  135.7959   74.5685  221.1900 H   0  0  0  0  0  0  0  0  0  0  0  0
  138.0415   69.1196  222.6399 H   0  0  0  0  0  0  0  0  0  0  0  0
  138.7492   67.6059  224.5166 H   0  0  0  0  0  0  0  0  0  0  0  0
  139.8981   67.4516  226.6849 H   0  0  0  0  0  0  0  0  0  0  0  0
  141.6206   70.9290  228.5462 H   0  0  0  0  0  0  0  0  0  0  0  0
  140.8447   72.3195  226.5956 H   0  0  0  0  0  0  0  0  0  0  0  0
  1  2  2  0
  2  3  1  0
  3  4  1  0
  4  5  1  0
  5  6  2  0
  5  7  1  0
  7  8  1  0
  8  9  1  0
  9 10  1  0
 10 11  1  0
 11 12  1  0
 12 13  2  0
 13 14  1  0
 14 15  2  0
 15 16  1  0
 16 17  1  0
 17 18  1  0
 17 19  1  0
 17 20  1  0
 15 21  1  0
 21 22  2  0
  2 23  1  0
 23 24  2  0
 24 25  1  0
 25 26  2  0
 26 27  1  0
 27 28  2  0
 28 29  1  0
 28 30  1  0
 30 31  2  0
 31 32  1  0
 32 33  2  0
 11  7  1  0
 22 12  1  0
 33 23  1  0
 32 26  1  0
  3 34  1  0
  4 35  1  0
  4 36  1  0
  8 37  1  0
  8 38  1  0
  9 39  1  0
  9 40  1  0
 10 41  1  0
 10 42  1  0
 11 43  1  1
 13 44  1  0
 14 45  1  0
 21 46  1  0
 22 47  1  0
 24 48  1  0
 25 49  1  0
 27 50  1  0
 30 51  1  0
 31 52  1  0
M  END
>  <smiles>  (99) 
O=C(NCC(=O)N1CCCC1c1ccc(OC(F)(F)F)cc1)c1ccc2cc(Cl)ccc2n1

>  <score_type>  (99) 
oracle

>  <origin>  (99) 
autodockgpu

>  <m_score__min__energy>  (99) 
-7.96

>  <m_primary>  (99) 
energy

>  <rmsd>  (99) 
3.0838170464993633

>  <m_score__min__rmsd>  (99) 
3.0838170464993633

>  <meeko>  (99) 
{"free_energy": -6.3, "intermolecular_energy": -8.39, "internal_energy": -2.86, "cluster_size": 2, "cluster_id": 8, "rank_in_cluster": 1}

>  <energy>  (99) 
-6.1

>  <cluster_rmsd>  (99) 
0.63

>  <cluster>  (99) 
8

$$$$

     RDKit          3D

 52 55  0  0  0  0  0  0  0  0999 V2000
  139.7090   72.0400  220.6470 O   0  0  0  0  0  0  0  0  0  0  0  0
  139.6730   72.4740  221.8430 C   0  0  0  0  0  0  0  0  0  0  0  0
  139.5140   73.8560  222.1340 N   0  0  0  0  0  0  0  0  0  0  0  0
  139.3850   74.8620  221.0980 C   0  0  0  0  0  0  0  0  0  0  0  0
  138.6270   76.0170  221.6680 C   0  0  0  0  0  0  0  0  0  0  0  0
  138.6840   76.1820  222.9140 O   0  0  0  0  0  0  0  0  0  0  0  0
  137.8750   76.8820  220.8080 N   0  0  0  0  0  0  0  0  0  0  0  0
  136.4330   76.8540  220.6520 C   0  0  0  0  0  0  0  0  0  0  0  0
  136.1150   78.2900  220.3600 C   0  0  0  0  0  0  0  0  0  0  0  0
  137.2720   78.6700  219.4320 C   0  0  0  0  0  0  0  0  0  0  0  0
  138.4670   77.9020  219.9760 C   0  0  1  0  0  0  0  0  0  0  0  0
  139.4360   78.7620  220.6560 C   0  0  0  0  0  0  0  0  0  0  0  0
  140.7190   78.8630  220.1620 C   0  0  0  0  0  0  0  0  0  0  0  0
  141.6230   79.6750  220.8110 C   0  0  0  0  0  0  0  0  0  0  0  0
  141.2980   80.4030  221.9450 C   0  0  0  0  0  0  0  0  0  0  0  0
  142.2290   81.2020  222.5620 O   0  0  0  0  0  0  0  0  0  0  0  0
  142.7920   80.8900  223.8260 C   0  0  0  0  0  0  0  0  0  0  0  0
  144.1590   80.7310  223.6700 F   0  0  0  0  0  0  0  0  0  0  0  0
  142.5610   81.9350  224.6900 F   0  0  0  0  0  0  0  0  0  0  0  0
  142.2420   79.7000  224.2700 F   0  0  0  0  0  0  0  0  0  0  0  0
  140.0030   80.2790  222.4130 C   0  0  0  0  0  0  0  0  0  0  0  0
  139.0650   79.4730  221.7910 C   0  0  0  0  0  0  0  0  0  0  0  0
  139.7960   71.5320  222.9770 C   0  0  0  0  0  0  0  0  0  0  0  0
  139.4050   70.2160  222.8230 C   0  0  0  0  0  0  0  0  0  0  0  0
  139.5020   69.2940  223.8630 C   0  0  0  0  0  0  0  0  0  0  0  0
  140.0150   69.7840  225.0560 C   0  0  0  0  0  0  0  0  0  0  0  0
  140.1590   68.9610  226.1590 C   0  0  0  0  0  0  0  0  0  0  0  0
  140.6700   69.4430  227.3480 C   0  0  0  0  0  0  0  0  0  0  0  0
  140.8550   68.3960  228.7560 Cl  0  0  0  0  0  0  0  0  0  0  0  0
  141.0570   70.7610  227.4870 C   0  0  0  0  0  0  0  0  0  0  0  0
  140.9190   71.6050  226.3840 C   0  0  0  0  0  0  0  0  0  0  0  0
  140.4070   71.0980  225.2080 C   0  0  0  0  0  0  0  0  0  0  0  0
  140.2930   71.9520  224.1740 N   0  0  0  0  0  0  0  0  0  0  0  0
  139.4920   74.1450  223.1580 H   0  0  0  0  0  0  0  0  0  0  0  0
  140.3823   75.1936  220.7734 H   0  0  0  0  0  0  0  0  0  0  0  0
  138.8542   74.4486  220.2277 H   0  0  0  0  0  0  0  0  0  0  0  0
  136.1352   76.2024  219.8173 H   0  0  0  0  0  0  0  0  0  0  0  0
  135.9028   76.4551  221.5294 H   0  0  0  0  0  0  0  0  0  0  0  0
  135.1432   78.3927  219.8550 H   0  0  0  0  0  0  0  0  0  0  0  0
  136.0284   78.9235  221.2551 H   0  0  0  0  0  0  0  0  0  0  0  0
  137.0548   78.3683  218.3967 H   0  0  0  0  0  0  0  0  0  0  0  0
  137.4489   79.7554  219.4082 H   0  0  0  0  0  0  0  0  0  0  0  0
  139.0853   77.4547  219.1838 H   0  0  0  0  0  0  0  0  0  0  0  0
  141.0165   78.3035  219.2629 H   0  0  0  0  0  0  0  0  0  0  0  0
  142.6457   79.7488  220.4126 H   0  0  0  0  0  0  0  0  0  0  0  0
  139.7075   80.8407  223.3114 H   0  0  0  0  0  0  0  0  0  0  0  0
  138.0423   79.3965  222.1888 H   0  0  0  0  0  0  0  0  0  0  0  0
  139.0060   69.8869  221.8522 H   0  0  0  0  0  0  0  0  0  0  0  0
  139.1919   68.2451  223.7462 H   0  0  0  0  0  0  0  0  0  0  0  0
  139.8613   67.9045  226.0875 H   0  0  0  0  0  0  0  0  0  0  0  0
  141.4621   71.1348  228.4389 H   0  0  0  0  0  0  0  0  0  0  0  0
  141.2151   72.6622  226.4518 H   0  0  0  0  0  0  0  0  0  0  0  0
  1  2  2  0
  2  3  1  0
  3  4  1  0
  4  5  1  0
  5  6  2  0
  5  7  1  0
  7  8  1  0
  8  9  1  0
  9 10  1  0
 10 11  1  0
 11 12  1  0
 12 13  2  0
 13 14  1  0
 14 15  2  0
 15 16  1  0
 16 17  1  0
 17 18  1  0
 17 19  1  0
 17 20  1  0
 15 21  1  0
 21 22  2  0
  2 23  1  0
 23 24  2  0
 24 25  1  0
 25 26  2  0
 26 27  1  0
 27 28  2  0
 28 29  1  0
 28 30  1  0
 30 31  2  0
 31 32  1  0
 32 33  2  0
 11  7  1  0
 22 12  1  0
 33 23  1  0
 32 26  1  0
  3 34  1  0
  4 35  1  0
  4 36  1  0
  8 37  1  0
  8 38  1  0
  9 39  1  0
  9 40  1  0
 10 41  1  0
 10 42  1  0
 11 43  1  6
 13 44  1  0
 14 45  1  0
 21 46  1  0
 22 47  1  0
 24 48  1  0
 25 49  1  0
 27 50  1  0
 30 51  1  0
 31 52  1  0
M  END
>  <smiles>  (100) 
O=C(NCC(=O)N1CCCC1c1ccc(OC(F)(F)F)cc1)c1ccc2cc(Cl)ccc2n1

>  <score_type>  (100) 
oracle

>  <origin>  (100) 
autodockgpu

>  <m_score__min__energy>  (100) 
-7.96

>  <m_primary>  (100) 
energy

>  <rmsd>  (100) 
2.5673447005365553

>  <m_score__min__rmsd>  (100) 
2.5673447005365553

>  <meeko>  (100) 
{"free_energy": -6.99, "intermolecular_energy": -9.08, "internal_energy": -2.21, "cluster_size": 5, "cluster_id": 4, "rank_in_cluster": 5}

>  <energy>  (100) 
-6.24

>  <cluster_rmsd>  (100) 
0.0

>  <cluster>  (100) 
9

$$$$
