
     RDKit          3D

 50 53  0  0  0  0  0  0  0  0999 V2000
  140.5290   76.7910  218.4660 O   0  0  0  0  0  0  0  0  0  0  0  0
  141.6240   76.8500  219.1240 C   0  0  0  0  0  0  0  0  0  0  0  0
  142.0310   78.1080  219.6880 N   0  0  0  0  0  0  0  0  0  0  0  0
  141.2950   79.3060  219.5580 C   0  0  0  0  0  0  0  0  0  0  0  0
  140.4590   79.7880  220.6520 C   0  0  0  0  0  0  0  0  0  0  0  0
  139.2210   80.0090  220.2980 O   0  0  0  0  0  0  0  0  0  0  0  0
  140.7440   80.0480  221.9910 N   0  0  0  0  0  0  0  0  0  0  0  0
  140.9170   81.3630  222.5980 C   0  0  0  0  0  0  0  0  0  0  0  0
  141.8460   81.2540  223.8060 C   0  0  0  0  0  0  0  0  0  0  0  0
  142.9410   80.2830  223.4550 C   0  0  0  0  0  0  0  0  0  0  0  0
  142.3200   78.8910  223.4500 C   0  0  0  0  0  0  0  0  0  0  0  0
  140.9120   78.9570  222.9580 C   0  0  2  0  0  0  0  0  0  0  0  0
  140.3040   77.6820  222.5910 C   0  0  0  0  0  0  0  0  0  0  0  0
  138.9250   77.5110  222.4240 C   0  0  0  0  0  0  0  0  0  0  0  0
  138.3780   76.3060  222.0450 C   0  0  0  0  0  0  0  0  0  0  0  0
  139.1880   75.2120  221.8160 C   0  0  0  0  0  0  0  0  0  0  0  0
  140.5030   75.3790  221.9770 N   0  0  0  0  0  0  0  0  0  0  0  0
  141.0640   76.5450  222.3450 C   0  0  0  0  0  0  0  0  0  0  0  0
  142.4570   75.6410  219.3010 C   0  0  0  0  0  0  0  0  0  0  0  0
  142.0040   74.4600  218.7600 C   0  0  0  0  0  0  0  0  0  0  0  0
  142.7290   73.2990  218.8880 C   0  0  0  0  0  0  0  0  0  0  0  0
  143.9370   73.3570  219.5820 C   0  0  0  0  0  0  0  0  0  0  0  0
  144.6940   72.2190  219.7330 C   0  0  0  0  0  0  0  0  0  0  0  0
  145.8920   72.2760  220.4210 C   0  0  0  0  0  0  0  0  0  0  0  0
  146.3150   73.4780  220.9490 C   0  0  0  0  0  0  0  0  0  0  0  0
  145.5720   74.6430  220.8130 C   0  0  0  0  0  0  0  0  0  0  0  0
  144.3870   74.5620  220.1260 C   0  0  0  0  0  0  0  0  0  0  0  0
  143.6280   75.6830  219.9700 N   0  0  0  0  0  0  0  0  0  0  0  0
  142.9550   78.0510  220.2210 H   0  0  0  0  0  0  0  0  0  0  0  0
  142.0244   80.1016  219.3457 H   0  0  0  0  0  0  0  0  0  0  0  0
  140.5600   79.0592  218.7776 H   0  0  0  0  0  0  0  0  0  0  0  0
  141.3554   82.0514  221.8605 H   0  0  0  0  0  0  0  0  0  0  0  0
  139.9385   81.7454  222.9241 H   0  0  0  0  0  0  0  0  0  0  0  0
  142.2783   82.2389  224.0362 H   0  0  0  0  0  0  0  0  0  0  0  0
  141.2904   80.9054  224.6891 H   0  0  0  0  0  0  0  0  0  0  0  0
  143.3493   80.5177  222.4609 H   0  0  0  0  0  0  0  0  0  0  0  0
  143.7647   80.3420  224.1816 H   0  0  0  0  0  0  0  0  0  0  0  0
  142.9054   78.2342  222.7897 H   0  0  0  0  0  0  0  0  0  0  0  0
  142.3239   78.4922  224.4752 H   0  0  0  0  0  0  0  0  0  0  0  0
  140.2938   79.2186  223.8294 H   0  0  0  0  0  0  0  0  0  0  0  0
  138.2570   78.3668  222.6012 H   0  0  0  0  0  0  0  0  0  0  0  0
  137.2885   76.2143  221.9239 H   0  0  0  0  0  0  0  0  0  0  0  0
  138.7672   74.2418  221.5131 H   0  0  0  0  0  0  0  0  0  0  0  0
  142.1572   76.6000  222.4545 H   0  0  0  0  0  0  0  0  0  0  0  0
  141.0475   74.4444  218.2170 H   0  0  0  0  0  0  0  0  0  0  0  0
  142.3675   72.3540  218.4565 H   0  0  0  0  0  0  0  0  0  0  0  0
  144.3473   71.2657  219.3075 H   0  0  0  0  0  0  0  0  0  0  0  0
  146.5029   71.3699  220.5463 H   0  0  0  0  0  0  0  0  0  0  0  0
  147.2697   73.5147  221.4942 H   0  0  0  0  0  0  0  0  0  0  0  0
  145.9202   75.5951  221.2399 H   0  0  0  0  0  0  0  0  0  0  0  0
  1  2  2  0
  2  3  1  0
  3  4  1  0
  4  5  1  0
  5  6  2  0
  5  7  1  0
  7  8  1  0
  8  9  1  0
  9 10  1  0
 10 11  1  0
 11 12  1  0
 12 13  1  0
 13 14  2  0
 14 15  1  0
 15 16  2  0
 16 17  1  0
 17 18  2  0
  2 19  1  0
 19 20  2  0
 20 21  1  0
 21 22  2  0
 22 23  1  0
 23 24  2  0
 24 25  1  0
 25 26  2  0
 26 27  1  0
 27 28  2  0
 12  7  1  0
 18 13  1  0
 28 19  1  0
 27 22  1  0
  3 29  1  0
  4 30  1  0
  4 31  1  0
  8 32  1  0
  8 33  1  0
  9 34  1  0
  9 35  1  0
 10 36  1  0
 10 37  1  0
 11 38  1  0
 11 39  1  0
 12 40  1  1
 14 41  1  0
 15 42  1  0
 16 43  1  0
 18 44  1  0
 20 45  1  0
 21 46  1  0
 23 47  1  0
 24 48  1  0
 25 49  1  0
 26 50  1  0
M  END
>  <smiles>  (1) 
O=C(NCC(=O)N1CCCCC1c1cccnc1)c1ccc2ccccc2n1

>  <score_type>  (1) 
oracle

>  <origin>  (1) 
autodockgpu

>  <m_score__min__energy>  (1) 
-8.9499999999999993

>  <m_primary>  (1) 
energy

>  <rmsd>  (1) 
7.479263093805986

>  <m_score__min__rmsd>  (1) 
7.479263093805986

>  <meeko>  (1) 
{"free_energy": -7.25, "intermolecular_energy": -8.74, "internal_energy": -2.52, "cluster_size": 24, "cluster_id": 3, "rank_in_cluster": 18}

>  <energy>  (1) 
-8.95

>  <cluster_rmsd>  (1) 
0.0

>  <cluster>  (1) 
1

$$$$

     RDKit          3D

 50 53  0  0  0  0  0  0  0  0999 V2000
  138.9870   74.9940  221.7970 O   0  0  0  0  0  0  0  0  0  0  0  0
  140.1360   75.5410  221.9290 C   0  0  0  0  0  0  0  0  0  0  0  0
  141.3130   74.7640  221.6520 N   0  0  0  0  0  0  0  0  0  0  0  0
  141.2880   73.4120  221.2440 C   0  0  0  0  0  0  0  0  0  0  0  0
  142.0140   72.9810  220.0540 C   0  0  0  0  0  0  0  0  0  0  0  0
  141.2370   72.4960  219.1220 O   0  0  0  0  0  0  0  0  0  0  0  0
  143.3710   72.9980  219.7400 N   0  0  0  0  0  0  0  0  0  0  0  0
  144.2560   71.8400  219.6670 C   0  0  0  0  0  0  0  0  0  0  0  0
  145.6880   72.2660  219.9800 C   0  0  0  0  0  0  0  0  0  0  0  0
  145.6320   73.2760  221.0960 C   0  0  0  0  0  0  0  0  0  0  0  0
  145.0770   74.5660  220.5020 C   0  0  0  0  0  0  0  0  0  0  0  0
  144.0680   74.2560  219.4470 C   0  0  2  0  0  0  0  0  0  0  0  0
  143.2230   75.3680  219.0250 C   0  0  0  0  0  0  0  0  0  0  0  0
  143.1290   76.5710  219.7350 C   0  0  0  0  0  0  0  0  0  0  0  0
  142.3480   77.6170  219.2980 C   0  0  0  0  0  0  0  0  0  0  0  0
  141.6240   77.5090  218.1280 C   0  0  0  0  0  0  0  0  0  0  0  0
  141.7160   76.3600  217.4540 N   0  0  0  0  0  0  0  0  0  0  0  0
  142.4710   75.3220  217.8580 C   0  0  0  0  0  0  0  0  0  0  0  0
  140.2480   76.9510  222.3590 C   0  0  0  0  0  0  0  0  0  0  0  0
  139.0860   77.6470  222.6000 C   0  0  0  0  0  0  0  0  0  0  0  0
  139.1200   78.9610  223.0020 C   0  0  0  0  0  0  0  0  0  0  0  0
  140.3670   79.5650  223.1590 C   0  0  0  0  0  0  0  0  0  0  0  0
  140.4460   80.8780  223.5600 C   0  0  0  0  0  0  0  0  0  0  0  0
  141.6830   81.4760  223.7160 C   0  0  0  0  0  0  0  0  0  0  0  0
  142.8260   80.7470  223.4660 C   0  0  0  0  0  0  0  0  0  0  0  0
  142.7780   79.4200  223.0590 C   0  0  0  0  0  0  0  0  0  0  0  0
  141.5400   78.8480  222.9120 C   0  0  0  0  0  0  0  0  0  0  0  0
  141.4490   77.5460  222.5140 N   0  0  0  0  0  0  0  0  0  0  0  0
  142.2200   75.3110  221.7860 H   0  0  0  0  0  0  0  0  0  0  0  0
  141.6834   72.8225  222.0844 H   0  0  0  0  0  0  0  0  0  0  0  0
  140.2364   73.2606  220.9588 H   0  0  0  0  0  0  0  0  0  0  0  0
  143.9311   71.0849  220.3980 H   0  0  0  0  0  0  0  0  0  0  0  0
  144.2159   71.4144  218.6535 H   0  0  0  0  0  0  0  0  0  0  0  0
  146.2784   71.3927  220.2944 H   0  0  0  0  0  0  0  0  0  0  0  0
  146.1635   72.7023  219.0892 H   0  0  0  0  0  0  0  0  0  0  0  0
  144.9724   72.9155  221.8991 H   0  0  0  0  0  0  0  0  0  0  0  0
  146.6304   73.4401  221.5275 H   0  0  0  0  0  0  0  0  0  0  0  0
  144.6004   75.1568  221.2981 H   0  0  0  0  0  0  0  0  0  0  0  0
  145.9021   75.1378  220.0522 H   0  0  0  0  0  0  0  0  0  0  0  0
  144.6355   74.0866  218.5201 H   0  0  0  0  0  0  0  0  0  0  0  0
  143.6965   76.6838  220.6705 H   0  0  0  0  0  0  0  0  0  0  0  0
  142.3007   78.5457  219.8856 H   0  0  0  0  0  0  0  0  0  0  0  0
  140.9963   78.3363  217.7653 H   0  0  0  0  0  0  0  0  0  0  0  0
  142.4933   74.4088  217.2452 H   0  0  0  0  0  0  0  0  0  0  0  0
  138.1161   77.1449  222.4692 H   0  0  0  0  0  0  0  0  0  0  0  0
  138.1918   79.5191  223.1940 H   0  0  0  0  0  0  0  0  0  0  0  0
  139.5277   81.4510  223.7561 H   0  0  0  0  0  0  0  0  0  0  0  0
  141.7544   82.5256  224.0372 H   0  0  0  0  0  0  0  0  0  0  0  0
  143.8057   81.2309  223.5927 H   0  0  0  0  0  0  0  0  0  0  0  0
  143.6976   78.8495  222.8621 H   0  0  0  0  0  0  0  0  0  0  0  0
  1  2  2  0
  2  3  1  0
  3  4  1  0
  4  5  1  0
  5  6  2  0
  5  7  1  0
  7  8  1  0
  8  9  1  0
  9 10  1  0
 10 11  1  0
 11 12  1  0
 12 13  1  0
 13 14  2  0
 14 15  1  0
 15 16  2  0
 16 17  1  0
 17 18  2  0
  2 19  1  0
 19 20  2  0
 20 21  1  0
 21 22  2  0
 22 23  1  0
 23 24  2  0
 24 25  1  0
 25 26  2  0
 26 27  1  0
 27 28  2  0
 12  7  1  0
 18 13  1  0
 28 19  1  0
 27 22  1  0
  3 29  1  0
  4 30  1  0
  4 31  1  0
  8 32  1  0
  8 33  1  0
  9 34  1  0
  9 35  1  0
 10 36  1  0
 10 37  1  0
 11 38  1  0
 11 39  1  0
 12 40  1  6
 14 41  1  0
 15 42  1  0
 16 43  1  0
 18 44  1  0
 20 45  1  0
 21 46  1  0
 23 47  1  0
 24 48  1  0
 25 49  1  0
 26 50  1  0
M  END
>  <smiles>  (2) 
O=C(NCC(=O)N1CCCCC1c1cccnc1)c1ccc2ccccc2n1

>  <score_type>  (2) 
oracle

>  <origin>  (2) 
autodockgpu

>  <m_score__min__energy>  (2) 
-8.9499999999999993

>  <m_primary>  (2) 
energy

>  <rmsd>  (2) 
7.688859407696185

>  <m_score__min__rmsd>  (2) 
7.688859407696185

>  <meeko>  (2) 
{"free_energy": -7.36, "intermolecular_energy": -8.85, "internal_energy": -2.35, "cluster_size": 18, "cluster_id": 2, "rank_in_cluster": 8}

>  <energy>  (2) 
-8.92

>  <cluster_rmsd>  (2) 
0.09

>  <cluster>  (2) 
1

$$$$

     RDKit          3D

 50 53  0  0  0  0  0  0  0  0999 V2000
  140.4720   76.7890  218.7660 O   0  0  0  0  0  0  0  0  0  0  0  0
  141.6760   76.8640  219.1910 C   0  0  0  0  0  0  0  0  0  0  0  0
  142.1950   78.1430  219.5910 N   0  0  0  0  0  0  0  0  0  0  0  0
  141.4560   79.3450  219.5410 C   0  0  0  0  0  0  0  0  0  0  0  0
  140.5210   79.6900  220.6070 C   0  0  0  0  0  0  0  0  0  0  0  0
  139.2720   79.6700  220.2250 O   0  0  0  0  0  0  0  0  0  0  0  0
  140.7240   80.0290  221.9430 N   0  0  0  0  0  0  0  0  0  0  0  0
  140.8560   81.3790  222.4810 C   0  0  0  0  0  0  0  0  0  0  0  0
  141.7100   81.3470  223.7460 C   0  0  0  0  0  0  0  0  0  0  0  0
  142.8280   80.3640  223.5200 C   0  0  0  0  0  0  0  0  0  0  0  0
  142.2120   78.9700  223.5590 C   0  0  0  0  0  0  0  0  0  0  0  0
  140.8360   78.9980  222.9800 C   0  0  2  0  0  0  0  0  0  0  0  0
  140.2550   77.7000  222.6520 C   0  0  0  0  0  0  0  0  0  0  0  0
  138.8770   77.4870  222.5310 C   0  0  0  0  0  0  0  0  0  0  0  0
  138.3550   76.2600  222.1890 C   0  0  0  0  0  0  0  0  0  0  0  0
  139.1900   75.1860  221.9520 C   0  0  0  0  0  0  0  0  0  0  0  0
  140.5040   75.3940  222.0700 N   0  0  0  0  0  0  0  0  0  0  0  0
  141.0400   76.5820  222.4020 C   0  0  0  0  0  0  0  0  0  0  0  0
  142.5180   75.6520  219.2690 C   0  0  0  0  0  0  0  0  0  0  0  0
  142.1210   74.5430  218.5570 C   0  0  0  0  0  0  0  0  0  0  0  0
  142.8580   73.3830  218.5860 C   0  0  0  0  0  0  0  0  0  0  0  0
  144.0200   73.3660  219.3580 C   0  0  0  0  0  0  0  0  0  0  0  0
  144.7870   72.2260  219.4150 C   0  0  0  0  0  0  0  0  0  0  0  0
  145.9380   72.2090  220.1800 C   0  0  0  0  0  0  0  0  0  0  0  0
  146.3050   73.3400  220.8800 C   0  0  0  0  0  0  0  0  0  0  0  0
  145.5500   74.5050  220.8420 C   0  0  0  0  0  0  0  0  0  0  0  0
  144.4120   74.4980  220.0760 C   0  0  0  0  0  0  0  0  0  0  0  0
  143.6430   75.6220  220.0120 N   0  0  0  0  0  0  0  0  0  0  0  0
  143.2050   78.0990  219.9350 H   0  0  0  0  0  0  0  0  0  0  0  0
  142.1897   80.1629  219.4898 H   0  0  0  0  0  0  0  0  0  0  0  0
  140.7947   79.1902  218.6757 H   0  0  0  0  0  0  0  0  0  0  0  0
  141.3360   82.0259  221.7319 H   0  0  0  0  0  0  0  0  0  0  0  0
  139.8585   81.7735  222.7246 H   0  0  0  0  0  0  0  0  0  0  0  0
  142.1245   82.3466  223.9434 H   0  0  0  0  0  0  0  0  0  0  0  0
  141.1029   81.0468  224.6127 H   0  0  0  0  0  0  0  0  0  0  0  0
  143.2958   80.5428  222.5406 H   0  0  0  0  0  0  0  0  0  0  0  0
  143.6057   80.4707  224.2906 H   0  0  0  0  0  0  0  0  0  0  0  0
  142.8381   78.2796  222.9747 H   0  0  0  0  0  0  0  0  0  0  0  0
  142.1548   78.6319  224.6042 H   0  0  0  0  0  0  0  0  0  0  0  0
  140.1655   79.3057  223.7959 H   0  0  0  0  0  0  0  0  0  0  0  0
  138.1898   78.3260  222.7149 H   0  0  0  0  0  0  0  0  0  0  0  0
  137.2655   76.1342  222.1039 H   0  0  0  0  0  0  0  0  0  0  0  0
  138.7892   74.1992  221.6772 H   0  0  0  0  0  0  0  0  0  0  0  0
  142.1338   76.6708  222.4778 H   0  0  0  0  0  0  0  0  0  0  0  0
  141.2006   74.5856  217.9561 H   0  0  0  0  0  0  0  0  0  0  0  0
  142.5414   72.4957  218.0181 H   0  0  0  0  0  0  0  0  0  0  0  0
  144.4852   71.3298  218.8531 H   0  0  0  0  0  0  0  0  0  0  0  0
  146.5567   71.3009  220.2304 H   0  0  0  0  0  0  0  0  0  0  0  0
  147.2227   73.3182  221.4861 H   0  0  0  0  0  0  0  0  0  0  0  0
  145.8532   75.4000  221.4051 H   0  0  0  0  0  0  0  0  0  0  0  0
  1  2  2  0
  2  3  1  0
  3  4  1  0
  4  5  1  0
  5  6  2  0
  5  7  1  0
  7  8  1  0
  8  9  1  0
  9 10  1  0
 10 11  1  0
 11 12  1  0
 12 13  1  0
 13 14  2  0
 14 15  1  0
 15 16  2  0
 16 17  1  0
 17 18  2  0
  2 19  1  0
 19 20  2  0
 20 21  1  0
 21 22  2  0
 22 23  1  0
 23 24  2  0
 24 25  1  0
 25 26  2  0
 26 27  1  0
 27 28  2  0
 12  7  1  0
 18 13  1  0
 28 19  1  0
 27 22  1  0
  3 29  1  0
  4 30  1  0
  4 31  1  0
  8 32  1  0
  8 33  1  0
  9 34  1  0
  9 35  1  0
 10 36  1  0
 10 37  1  0
 11 38  1  0
 11 39  1  0
 12 40  1  1
 14 41  1  0
 15 42  1  0
 16 43  1  0
 18 44  1  0
 20 45  1  0
 21 46  1  0
 23 47  1  0
 24 48  1  0
 25 49  1  0
 26 50  1  0
M  END
>  <smiles>  (3) 
O=C(NCC(=O)N1CCCCC1c1cccnc1)c1ccc2ccccc2n1

>  <score_type>  (3) 
oracle

>  <origin>  (3) 
autodockgpu

>  <m_score__min__energy>  (3) 
-8.9499999999999993

>  <m_primary>  (3) 
energy

>  <rmsd>  (3) 
7.561603002581273

>  <m_score__min__rmsd>  (3) 
7.561603002581273

>  <meeko>  (3) 
{"free_energy": -7.42, "intermolecular_energy": -8.91, "internal_energy": -2.44, "cluster_size": 24, "cluster_id": 3, "rank_in_cluster": 3}

>  <energy>  (3) 
-8.91

>  <cluster_rmsd>  (3) 
0.09

>  <cluster>  (3) 
1

$$$$

     RDKit          3D

 50 53  0  0  0  0  0  0  0  0999 V2000
  139.0370   74.9560  221.8900 O   0  0  0  0  0  0  0  0  0  0  0  0
  140.1720   75.5450  221.9450 C   0  0  0  0  0  0  0  0  0  0  0  0
  141.3550   74.8110  221.5880 N   0  0  0  0  0  0  0  0  0  0  0  0
  141.3530   73.4590  221.1810 C   0  0  0  0  0  0  0  0  0  0  0  0
  142.0840   73.0390  219.9900 C   0  0  0  0  0  0  0  0  0  0  0  0
  141.3050   72.6450  219.0180 O   0  0  0  0  0  0  0  0  0  0  0  0
  143.4480   72.9880  219.7110 N   0  0  0  0  0  0  0  0  0  0  0  0
  144.2760   71.7880  219.6690 C   0  0  0  0  0  0  0  0  0  0  0  0
  145.7200   72.1460  220.0170 C   0  0  0  0  0  0  0  0  0  0  0  0
  145.6840   73.1680  221.1220 C   0  0  0  0  0  0  0  0  0  0  0  0
  145.2080   74.4780  220.5050 C   0  0  0  0  0  0  0  0  0  0  0  0
  144.2120   74.2070  219.4260 C   0  0  2  0  0  0  0  0  0  0  0  0
  143.4330   75.3550  218.9740 C   0  0  0  0  0  0  0  0  0  0  0  0
  142.7710   75.3940  217.7410 C   0  0  0  0  0  0  0  0  0  0  0  0
  142.0150   76.4770  217.3510 C   0  0  0  0  0  0  0  0  0  0  0  0
  141.8860   77.5730  218.1790 C   0  0  0  0  0  0  0  0  0  0  0  0
  142.5180   77.5330  219.3540 N   0  0  0  0  0  0  0  0  0  0  0  0
  143.2630   76.4880  219.7600 C   0  0  0  0  0  0  0  0  0  0  0  0
  140.2610   76.9580  222.3680 C   0  0  0  0  0  0  0  0  0  0  0  0
  139.0880   77.6360  222.6090 C   0  0  0  0  0  0  0  0  0  0  0  0
  139.1000   78.9520  223.0050 C   0  0  0  0  0  0  0  0  0  0  0  0
  140.3380   79.5780  223.1550 C   0  0  0  0  0  0  0  0  0  0  0  0
  140.3950   80.8940  223.5500 C   0  0  0  0  0  0  0  0  0  0  0  0
  141.6220   81.5140  223.6980 C   0  0  0  0  0  0  0  0  0  0  0  0
  142.7770   80.8040  223.4480 C   0  0  0  0  0  0  0  0  0  0  0  0
  142.7500   79.4740  223.0470 C   0  0  0  0  0  0  0  0  0  0  0  0
  141.5210   78.8800  222.9070 C   0  0  0  0  0  0  0  0  0  0  0  0
  141.4520   77.5760  222.5160 N   0  0  0  0  0  0  0  0  0  0  0  0
  142.2490   75.3910  221.6620 H   0  0  0  0  0  0  0  0  0  0  0  0
  141.7602   72.8773  222.0211 H   0  0  0  0  0  0  0  0  0  0  0  0
  140.3038   73.2896  220.8974 H   0  0  0  0  0  0  0  0  0  0  0  0
  143.8955   71.0556  220.3962 H   0  0  0  0  0  0  0  0  0  0  0  0
  144.2413   71.3568  218.6576 H   0  0  0  0  0  0  0  0  0  0  0  0
  146.2578   71.2478  220.3546 H   0  0  0  0  0  0  0  0  0  0  0  0
  146.2403   72.5492  219.1357 H   0  0  0  0  0  0  0  0  0  0  0  0
  144.9873   72.8470  221.9104 H   0  0  0  0  0  0  0  0  0  0  0  0
  146.6782   73.2879  221.5772 H   0  0  0  0  0  0  0  0  0  0  0  0
  144.7403   75.0979  221.2841 H   0  0  0  0  0  0  0  0  0  0  0  0
  146.0708   75.0061  220.0731 H   0  0  0  0  0  0  0  0  0  0  0  0
  144.7937   74.0014  218.5153 H   0  0  0  0  0  0  0  0  0  0  0  0
  142.8574   74.5325  217.0624 H   0  0  0  0  0  0  0  0  0  0  0  0
  141.5109   76.4682  216.3733 H   0  0  0  0  0  0  0  0  0  0  0  0
  141.2857   78.4458  217.8824 H   0  0  0  0  0  0  0  0  0  0  0  0
  143.7522   76.5324  220.7442 H   0  0  0  0  0  0  0  0  0  0  0  0
  138.1264   77.1169  222.4828 H   0  0  0  0  0  0  0  0  0  0  0  0
  138.1629   79.4949  223.1977 H   0  0  0  0  0  0  0  0  0  0  0  0
  139.4676   81.4515  223.7476 H   0  0  0  0  0  0  0  0  0  0  0  0
  141.6762   82.5665  224.0130 H   0  0  0  0  0  0  0  0  0  0  0  0
  143.7486   81.3052  223.5696 H   0  0  0  0  0  0  0  0  0  0  0  0
  143.6785   78.9183  222.8493 H   0  0  0  0  0  0  0  0  0  0  0  0
  1  2  2  0
  2  3  1  0
  3  4  1  0
  4  5  1  0
  5  6  2  0
  5  7  1  0
  7  8  1  0
  8  9  1  0
  9 10  1  0
 10 11  1  0
 11 12  1  0
 12 13  1  0
 13 14  2  0
 14 15  1  0
 15 16  2  0
 16 17  1  0
 17 18  2  0
  2 19  1  0
 19 20  2  0
 20 21  1  0
 21 22  2  0
 22 23  1  0
 23 24  2  0
 24 25  1  0
 25 26  2  0
 26 27  1  0
 27 28  2  0
 12  7  1  0
 18 13  1  0
 28 19  1  0
 27 22  1  0
  3 29  1  0
  4 30  1  0
  4 31  1  0
  8 32  1  0
  8 33  1  0
  9 34  1  0
  9 35  1  0
 10 36  1  0
 10 37  1  0
 11 38  1  0
 11 39  1  0
 12 40  1  6
 14 41  1  0
 15 42  1  0
 16 43  1  0
 18 44  1  0
 20 45  1  0
 21 46  1  0
 23 47  1  0
 24 48  1  0
 25 49  1  0
 26 50  1  0
M  END
>  <smiles>  (4) 
O=C(NCC(=O)N1CCCCC1c1cccnc1)c1ccc2ccccc2n1

>  <score_type>  (4) 
oracle

>  <origin>  (4) 
autodockgpu

>  <m_score__min__energy>  (4) 
-8.9499999999999993

>  <m_primary>  (4) 
energy

>  <rmsd>  (4) 
7.729593372371727

>  <m_score__min__rmsd>  (4) 
7.729593372371727

>  <meeko>  (4) 
{"free_energy": -7.33, "intermolecular_energy": -8.82, "internal_energy": -2.3, "cluster_size": 18, "cluster_id": 2, "rank_in_cluster": 12}

>  <energy>  (4) 
-8.38

>  <cluster_rmsd>  (4) 
0.53

>  <cluster>  (4) 
1

$$$$

     RDKit          3D

 50 53  0  0  0  0  0  0  0  0999 V2000
  139.5900   73.4770  222.3530 O   0  0  0  0  0  0  0  0  0  0  0  0
  140.4690   72.5700  222.5520 C   0  0  0  0  0  0  0  0  0  0  0  0
  141.6140   72.5070  221.6840 N   0  0  0  0  0  0  0  0  0  0  0  0
  141.8350   73.3900  220.6040 C   0  0  0  0  0  0  0  0  0  0  0  0
  141.9190   74.8300  220.8250 C   0  0  0  0  0  0  0  0  0  0  0  0
  141.3950   75.2100  221.9600 O   0  0  0  0  0  0  0  0  0  0  0  0
  142.4570   75.8560  220.0510 N   0  0  0  0  0  0  0  0  0  0  0  0
  141.9650   77.2270  219.9710 C   0  0  0  0  0  0  0  0  0  0  0  0
  142.3150   77.8210  218.6090 C   0  0  0  0  0  0  0  0  0  0  0  0
  142.1230   76.7430  217.5760 C   0  0  0  0  0  0  0  0  0  0  0  0
  143.2630   75.7470  217.7520 C   0  0  0  0  0  0  0  0  0  0  0  0
  143.6270   75.6290  219.1950 C   0  0  2  0  0  0  0  0  0  0  0  0
  144.4640   74.4880  219.5510 C   0  0  0  0  0  0  0  0  0  0  0  0
  144.9670   74.2800  220.8410 C   0  0  0  0  0  0  0  0  0  0  0  0
  145.7280   73.1780  221.1590 C   0  0  0  0  0  0  0  0  0  0  0  0
  146.0230   72.2310  220.1990 C   0  0  0  0  0  0  0  0  0  0  0  0
  145.5430   72.4330  218.9700 N   0  0  0  0  0  0  0  0  0  0  0  0
  144.7960   73.5000  218.6320 C   0  0  0  0  0  0  0  0  0  0  0  0
  140.3090   71.6020  223.6570 C   0  0  0  0  0  0  0  0  0  0  0  0
  139.6960   70.4020  223.3810 C   0  0  0  0  0  0  0  0  0  0  0  0
  139.5150   69.4580  224.3640 C   0  0  0  0  0  0  0  0  0  0  0  0
  139.9730   69.7550  225.6470 C   0  0  0  0  0  0  0  0  0  0  0  0
  139.8120   68.8380  226.6600 C   0  0  0  0  0  0  0  0  0  0  0  0
  140.2660   69.1320  227.9320 C   0  0  0  0  0  0  0  0  0  0  0  0
  140.8760   70.3450  228.1720 C   0  0  0  0  0  0  0  0  0  0  0  0
  141.0520   71.2910  227.1700 C   0  0  0  0  0  0  0  0  0  0  0  0
  140.5940   70.9760  225.9150 C   0  0  0  0  0  0  0  0  0  0  0  0
  140.7470   71.8770  224.9040 N   0  0  0  0  0  0  0  0  0  0  0  0
  142.2900   71.7200  221.9350 H   0  0  0  0  0  0  0  0  0  0  0  0
  142.7852   73.0873  220.1399 H   0  0  0  0  0  0  0  0  0  0  0  0
  140.9152   73.2861  220.0098 H   0  0  0  0  0  0  0  0  0  0  0  0
  140.8729   77.2317  220.1021 H   0  0  0  0  0  0  0  0  0  0  0  0
  142.4349   77.8293  220.7625 H   0  0  0  0  0  0  0  0  0  0  0  0
  141.6529   78.6717  218.3901 H   0  0  0  0  0  0  0  0  0  0  0  0
  143.3545   78.1808  218.6014 H   0  0  0  0  0  0  0  0  0  0  0  0
  141.1562   76.2412  217.7293 H   0  0  0  0  0  0  0  0  0  0  0  0
  142.1266   77.1675  216.5612 H   0  0  0  0  0  0  0  0  0  0  0  0
  142.9470   74.7630  217.3754 H   0  0  0  0  0  0  0  0  0  0  0  0
  144.1390   76.1013  217.1889 H   0  0  0  0  0  0  0  0  0  0  0  0
  144.3278   76.4507  219.4038 H   0  0  0  0  0  0  0  0  0  0  0  0
  144.7472   75.0201  221.6246 H   0  0  0  0  0  0  0  0  0  0  0  0
  146.1036   73.0511  222.1851 H   0  0  0  0  0  0  0  0  0  0  0  0
  146.6297   71.3449  220.4374 H   0  0  0  0  0  0  0  0  0  0  0  0
  144.4371   73.5930  217.5964 H   0  0  0  0  0  0  0  0  0  0  0  0
  139.3456   70.1947  222.3591 H   0  0  0  0  0  0  0  0  0  0  0  0
  139.0241   68.4983  224.1451 H   0  0  0  0  0  0  0  0  0  0  0  0
  139.3233   67.8734  226.4582 H   0  0  0  0  0  0  0  0  0  0  0  0
  140.1416   68.4036  228.7468 H   0  0  0  0  0  0  0  0  0  0  0  0
  141.2341   70.5704  229.1874 H   0  0  0  0  0  0  0  0  0  0  0  0
  141.5397   72.2555  227.3745 H   0  0  0  0  0  0  0  0  0  0  0  0
  1  2  2  0
  2  3  1  0
  3  4  1  0
  4  5  1  0
  5  6  2  0
  5  7  1  0
  7  8  1  0
  8  9  1  0
  9 10  1  0
 10 11  1  0
 11 12  1  0
 12 13  1  0
 13 14  2  0
 14 15  1  0
 15 16  2  0
 16 17  1  0
 17 18  2  0
  2 19  1  0
 19 20  2  0
 20 21  1  0
 21 22  2  0
 22 23  1  0
 23 24  2  0
 24 25  1  0
 25 26  2  0
 26 27  1  0
 27 28  2  0
 12  7  1  0
 18 13  1  0
 28 19  1  0
 27 22  1  0
  3 29  1  0
  4 30  1  0
  4 31  1  0
  8 32  1  0
  8 33  1  0
  9 34  1  0
  9 35  1  0
 10 36  1  0
 10 37  1  0
 11 38  1  0
 11 39  1  0
 12 40  1  1
 14 41  1  0
 15 42  1  0
 16 43  1  0
 18 44  1  0
 20 45  1  0
 21 46  1  0
 23 47  1  0
 24 48  1  0
 25 49  1  0
 26 50  1  0
M  END
>  <smiles>  (5) 
O=C(NCC(=O)N1CCCCC1c1cccnc1)c1ccc2ccccc2n1

>  <score_type>  (5) 
oracle

>  <origin>  (5) 
autodockgpu

>  <m_score__min__energy>  (5) 
-8.9499999999999993

>  <m_primary>  (5) 
energy

>  <rmsd>  (5) 
2.7317620289157314

>  <m_score__min__rmsd>  (5) 
2.7317620289157314

>  <meeko>  (5) 
{"free_energy": -8.95, "intermolecular_energy": -10.44, "internal_energy": -1.02, "cluster_size": 7, "cluster_id": 1, "rank_in_cluster": 1}

>  <energy>  (5) 
-8.04

>  <cluster_rmsd>  (5) 
1.32

>  <cluster>  (5) 
1

$$$$

     RDKit          3D

 50 53  0  0  0  0  0  0  0  0999 V2000
  140.3900   76.9360  218.9340 O   0  0  0  0  0  0  0  0  0  0  0  0
  141.6120   76.9910  219.3050 C   0  0  0  0  0  0  0  0  0  0  0  0
  142.1950   78.2720  219.5990 N   0  0  0  0  0  0  0  0  0  0  0  0
  141.4990   79.4960  219.4970 C   0  0  0  0  0  0  0  0  0  0  0  0
  140.6260   79.9480  220.5760 C   0  0  0  0  0  0  0  0  0  0  0  0
  139.3780   80.0720  220.2130 O   0  0  0  0  0  0  0  0  0  0  0  0
  140.8870   80.2630  221.9080 N   0  0  0  0  0  0  0  0  0  0  0  0
  141.2100   81.5840  222.4350 C   0  0  0  0  0  0  0  0  0  0  0  0
  142.0640   81.4420  223.6940 C   0  0  0  0  0  0  0  0  0  0  0  0
  143.0320   80.3110  223.4650 C   0  0  0  0  0  0  0  0  0  0  0  0
  142.2280   79.0170  223.5190 C   0  0  0  0  0  0  0  0  0  0  0  0
  140.8650   79.2320  222.9510 C   0  0  2  0  0  0  0  0  0  0  0  0
  140.1060   78.0260  222.6380 C   0  0  0  0  0  0  0  0  0  0  0  0
  140.7080   76.7980  222.3390 C   0  0  0  0  0  0  0  0  0  0  0  0
  139.9690   75.6670  222.0780 C   0  0  0  0  0  0  0  0  0  0  0  0
  138.5900   75.7110  222.1040 C   0  0  0  0  0  0  0  0  0  0  0  0
  138.0190   76.8840  222.3890 N   0  0  0  0  0  0  0  0  0  0  0  0
  138.7170   78.0050  222.6480 C   0  0  0  0  0  0  0  0  0  0  0  0
  142.4120   75.7540  219.4300 C   0  0  0  0  0  0  0  0  0  0  0  0
  141.9030   74.5980  218.8850 C   0  0  0  0  0  0  0  0  0  0  0  0
  142.5950   73.4130  218.9660 C   0  0  0  0  0  0  0  0  0  0  0  0
  143.8290   73.4200  219.6170 C   0  0  0  0  0  0  0  0  0  0  0  0
  144.5550   72.2560  219.7200 C   0  0  0  0  0  0  0  0  0  0  0  0
  145.7770   72.2640  220.3650 C   0  0  0  0  0  0  0  0  0  0  0  0
  146.2560   73.4420  220.8990 C   0  0  0  0  0  0  0  0  0  0  0  0
  145.5460   74.6310  220.8110 C   0  0  0  0  0  0  0  0  0  0  0  0
  144.3350   74.6000  220.1660 C   0  0  0  0  0  0  0  0  0  0  0  0
  143.6070   75.7470  220.0570 N   0  0  0  0  0  0  0  0  0  0  0  0
  143.2160   78.2100  219.9040 H   0  0  0  0  0  0  0  0  0  0  0  0
  142.2589   80.2792  219.3584 H   0  0  0  0  0  0  0  0  0  0  0  0
  140.7947   79.3101  218.6728 H   0  0  0  0  0  0  0  0  0  0  0  0
  141.7679   82.1535  221.6771 H   0  0  0  0  0  0  0  0  0  0  0  0
  140.2790   82.1141  222.6844 H   0  0  0  0  0  0  0  0  0  0  0  0
  142.6155   82.3754  223.8799 H   0  0  0  0  0  0  0  0  0  0  0  0
  141.4298   81.2354  224.5687 H   0  0  0  0  0  0  0  0  0  0  0  0
  143.5107   80.4173  222.4804 H   0  0  0  0  0  0  0  0  0  0  0  0
  143.8244   80.3125  224.2280 H   0  0  0  0  0  0  0  0  0  0  0  0
  142.7468   78.2425  222.9351 H   0  0  0  0  0  0  0  0  0  0  0  0
  142.1332   78.6973  224.5672 H   0  0  0  0  0  0  0  0  0  0  0  0
  140.2514   79.6346  223.7704 H   0  0  0  0  0  0  0  0  0  0  0  0
  141.8059   76.7353  222.3119 H   0  0  0  0  0  0  0  0  0  0  0  0
  140.4810   74.7212  221.8470 H   0  0  0  0  0  0  0  0  0  0  0  0
  137.9852   74.8155  221.8982 H   0  0  0  0  0  0  0  0  0  0  0  0
  138.1712   78.9328  222.8745 H   0  0  0  0  0  0  0  0  0  0  0  0
  140.9277   74.6222  218.3768 H   0  0  0  0  0  0  0  0  0  0  0  0
  142.1885   72.4880  218.5311 H   0  0  0  0  0  0  0  0  0  0  0  0
  144.1640   71.3219  219.2903 H   0  0  0  0  0  0  0  0  0  0  0  0
  146.3635   71.3375  220.4520 H   0  0  0  0  0  0  0  0  0  0  0  0
  147.2301   73.4389  221.4100 H   0  0  0  0  0  0  0  0  0  0  0  0
  145.9391   75.5635  221.2421 H   0  0  0  0  0  0  0  0  0  0  0  0
  1  2  2  0
  2  3  1  0
  3  4  1  0
  4  5  1  0
  5  6  2  0
  5  7  1  0
  7  8  1  0
  8  9  1  0
  9 10  1  0
 10 11  1  0
 11 12  1  0
 12 13  1  0
 13 14  2  0
 14 15  1  0
 15 16  2  0
 16 17  1  0
 17 18  2  0
  2 19  1  0
 19 20  2  0
 20 21  1  0
 21 22  2  0
 22 23  1  0
 23 24  2  0
 24 25  1  0
 25 26  2  0
 26 27  1  0
 27 28  2  0
 12  7  1  0
 18 13  1  0
 28 19  1  0
 27 22  1  0
  3 29  1  0
  4 30  1  0
  4 31  1  0
  8 32  1  0
  8 33  1  0
  9 34  1  0
  9 35  1  0
 10 36  1  0
 10 37  1  0
 11 38  1  0
 11 39  1  0
 12 40  1  1
 14 41  1  0
 15 42  1  0
 16 43  1  0
 18 44  1  0
 20 45  1  0
 21 46  1  0
 23 47  1  0
 24 48  1  0
 25 49  1  0
 26 50  1  0
M  END
>  <smiles>  (6) 
O=C(NCC(=O)N1CCCCC1c1cccnc1)c1ccc2ccccc2n1

>  <score_type>  (6) 
oracle

>  <origin>  (6) 
autodockgpu

>  <m_score__min__energy>  (6) 
-8.9499999999999993

>  <m_primary>  (6) 
energy

>  <rmsd>  (6) 
7.550132472677132

>  <m_score__min__rmsd>  (6) 
7.550132472677132

>  <meeko>  (6) 
{"free_energy": -7.12, "intermolecular_energy": -8.61, "internal_energy": -2.37, "cluster_size": 24, "cluster_id": 3, "rank_in_cluster": 22}

>  <energy>  (6) 
-8.01

>  <cluster_rmsd>  (6) 
1.35

>  <cluster>  (6) 
1

$$$$

     RDKit          3D

 50 53  0  0  0  0  0  0  0  0999 V2000
  140.5290   76.8290  218.5460 O   0  0  0  0  0  0  0  0  0  0  0  0
  141.6710   76.8920  219.1180 C   0  0  0  0  0  0  0  0  0  0  0  0
  142.1260   78.1570  219.6270 N   0  0  0  0  0  0  0  0  0  0  0  0
  141.3880   79.3570  219.5320 C   0  0  0  0  0  0  0  0  0  0  0  0
  140.4940   79.7690  220.6090 C   0  0  0  0  0  0  0  0  0  0  0  0
  139.2480   79.8790  220.2330 O   0  0  0  0  0  0  0  0  0  0  0  0
  140.7330   80.0580  221.9510 N   0  0  0  0  0  0  0  0  0  0  0  0
  140.8770   81.3860  222.5360 C   0  0  0  0  0  0  0  0  0  0  0  0
  141.7650   81.3100  223.7760 C   0  0  0  0  0  0  0  0  0  0  0  0
  142.8780   80.3390  223.4820 C   0  0  0  0  0  0  0  0  0  0  0  0
  142.2660   78.9430  223.4850 C   0  0  0  0  0  0  0  0  0  0  0  0
  140.8750   78.9880  222.9450 C   0  0  2  0  0  0  0  0  0  0  0  0
  140.2870   77.7020  222.5850 C   0  0  0  0  0  0  0  0  0  0  0  0
  138.9110   77.5080  222.4210 C   0  0  0  0  0  0  0  0  0  0  0  0
  138.3840   76.2920  222.0480 C   0  0  0  0  0  0  0  0  0  0  0  0
  139.2110   75.2110  221.8230 C   0  0  0  0  0  0  0  0  0  0  0  0
  140.5240   75.4000  221.9810 N   0  0  0  0  0  0  0  0  0  0  0  0
  141.0650   76.5770  222.3430 C   0  0  0  0  0  0  0  0  0  0  0  0
  142.5090   75.6820  219.2520 C   0  0  0  0  0  0  0  0  0  0  0  0
  142.0860   74.5310  218.6270 C   0  0  0  0  0  0  0  0  0  0  0  0
  142.8180   73.3700  218.7120 C   0  0  0  0  0  0  0  0  0  0  0  0
  144.0010   73.3960  219.4500 C   0  0  0  0  0  0  0  0  0  0  0  0
  144.7630   72.2570  219.5600 C   0  0  0  0  0  0  0  0  0  0  0  0
  145.9360   72.2830  220.2920 C   0  0  0  0  0  0  0  0  0  0  0  0
  146.3290   73.4550  220.9040 C   0  0  0  0  0  0  0  0  0  0  0  0
  145.5800   74.6200  220.8110 C   0  0  0  0  0  0  0  0  0  0  0  0
  144.4200   74.5700  220.0800 C   0  0  0  0  0  0  0  0  0  0  0  0
  143.6560   75.6930  219.9630 N   0  0  0  0  0  0  0  0  0  0  0  0
  143.0870   78.1040  220.0900 H   0  0  0  0  0  0  0  0  0  0  0  0
  142.1209   80.1673  219.4048 H   0  0  0  0  0  0  0  0  0  0  0  0
  140.6949   79.1535  218.7024 H   0  0  0  0  0  0  0  0  0  0  0  0
  141.3353   82.0621  221.7992 H   0  0  0  0  0  0  0  0  0  0  0  0
  139.8854   81.7672  222.8215 H   0  0  0  0  0  0  0  0  0  0  0  0
  142.1829   82.3028  223.9992 H   0  0  0  0  0  0  0  0  0  0  0  0
  141.1826   80.9767  224.6476 H   0  0  0  0  0  0  0  0  0  0  0  0
  143.3181   80.5561  222.4975 H   0  0  0  0  0  0  0  0  0  0  0  0
  143.6764   80.4185  224.2344 H   0  0  0  0  0  0  0  0  0  0  0  0
  142.8775   78.2770  222.8585 H   0  0  0  0  0  0  0  0  0  0  0  0
  142.2377   78.5661  224.5180 H   0  0  0  0  0  0  0  0  0  0  0  0
  140.2260   79.2618  223.7899 H   0  0  0  0  0  0  0  0  0  0  0  0
  138.2291   78.3533  222.5955 H   0  0  0  0  0  0  0  0  0  0  0  0
  137.2961   76.1817  221.9286 H   0  0  0  0  0  0  0  0  0  0  0  0
  138.8056   74.2327  221.5254 H   0  0  0  0  0  0  0  0  0  0  0  0
  142.1572   76.6510  222.4507 H   0  0  0  0  0  0  0  0  0  0  0  0
  141.1488   74.5400  218.0512 H   0  0  0  0  0  0  0  0  0  0  0  0
  142.4809   72.4493  218.2133 H   0  0  0  0  0  0  0  0  0  0  0  0
  144.4406   71.3279  219.0673 H   0  0  0  0  0  0  0  0  0  0  0  0
  146.5510   71.3758  220.3855 H   0  0  0  0  0  0  0  0  0  0  0  0
  147.2641   73.4668  221.4832 H   0  0  0  0  0  0  0  0  0  0  0  0
  145.9042   75.5480  221.3046 H   0  0  0  0  0  0  0  0  0  0  0  0
  1  2  2  0
  2  3  1  0
  3  4  1  0
  4  5  1  0
  5  6  2  0
  5  7  1  0
  7  8  1  0
  8  9  1  0
  9 10  1  0
 10 11  1  0
 11 12  1  0
 12 13  1  0
 13 14  2  0
 14 15  1  0
 15 16  2  0
 16 17  1  0
 17 18  2  0
  2 19  1  0
 19 20  2  0
 20 21  1  0
 21 22  2  0
 22 23  1  0
 23 24  2  0
 24 25  1  0
 25 26  2  0
 26 27  1  0
 27 28  2  0
 12  7  1  0
 18 13  1  0
 28 19  1  0
 27 22  1  0
  3 29  1  0
  4 30  1  0
  4 31  1  0
  8 32  1  0
  8 33  1  0
  9 34  1  0
  9 35  1  0
 10 36  1  0
 10 37  1  0
 11 38  1  0
 11 39  1  0
 12 40  1  1
 14 41  1  0
 15 42  1  0
 16 43  1  0
 18 44  1  0
 20 45  1  0
 21 46  1  0
 23 47  1  0
 24 48  1  0
 25 49  1  0
 26 50  1  0
M  END
>  <smiles>  (7) 
O=C(NCC(=O)N1CCCCC1c1cccnc1)c1ccc2ccccc2n1

>  <score_type>  (7) 
oracle

>  <origin>  (7) 
autodockgpu

>  <m_score__min__energy>  (7) 
-8.9499999999999993

>  <m_primary>  (7) 
energy

>  <rmsd>  (7) 
7.5468575379807605

>  <m_score__min__rmsd>  (7) 
7.5468575379807605

>  <meeko>  (7) 
{"free_energy": -7.32, "intermolecular_energy": -8.81, "internal_energy": -2.5, "cluster_size": 24, "cluster_id": 3, "rank_in_cluster": 13}

>  <energy>  (7) 
-7.94

>  <cluster_rmsd>  (7) 
1.32

>  <cluster>  (7) 
1

$$$$

     RDKit          3D

 50 53  0  0  0  0  0  0  0  0999 V2000
  140.0090   74.3330  222.3120 O   0  0  0  0  0  0  0  0  0  0  0  0
  140.3330   75.3290  221.5790 C   0  0  0  0  0  0  0  0  0  0  0  0
  140.7220   75.0930  220.2150 N   0  0  0  0  0  0  0  0  0  0  0  0
  140.7770   73.8140  219.6200 C   0  0  0  0  0  0  0  0  0  0  0  0
  141.8350   73.4780  218.6730 C   0  0  0  0  0  0  0  0  0  0  0  0
  141.3920   73.2350  217.4690 O   0  0  0  0  0  0  0  0  0  0  0  0
  143.2160   73.3750  218.8260 N   0  0  0  0  0  0  0  0  0  0  0  0
  144.0060   72.1520  218.7390 C   0  0  0  0  0  0  0  0  0  0  0  0
  145.2640   72.2900  219.5950 C   0  0  0  0  0  0  0  0  0  0  0  0
  144.8820   73.0180  220.8560 C   0  0  0  0  0  0  0  0  0  0  0  0
  144.6370   74.4730  220.4750 C   0  0  0  0  0  0  0  0  0  0  0  0
  144.0390   74.5560  219.1100 C   0  0  2  0  0  0  0  0  0  0  0  0
  143.4540   75.8420  218.7460 C   0  0  0  0  0  0  0  0  0  0  0  0
  143.2980   76.2650  217.4210 C   0  0  0  0  0  0  0  0  0  0  0  0
  142.7130   77.4700  217.1030 C   0  0  0  0  0  0  0  0  0  0  0  0
  142.2560   78.3100  218.0980 C   0  0  0  0  0  0  0  0  0  0  0  0
  142.4070   77.9030  219.3600 N   0  0  0  0  0  0  0  0  0  0  0  0
  142.9740   76.7310  219.7000 C   0  0  0  0  0  0  0  0  0  0  0  0
  140.3080   76.7010  222.1280 C   0  0  0  0  0  0  0  0  0  0  0  0
  139.0880   77.2370  222.4700 C   0  0  0  0  0  0  0  0  0  0  0  0
  138.9930   78.5080  222.9860 C   0  0  0  0  0  0  0  0  0  0  0  0
  140.1720   79.2350  223.1510 C   0  0  0  0  0  0  0  0  0  0  0  0
  140.1220   80.5110  223.6640 C   0  0  0  0  0  0  0  0  0  0  0  0
  141.2900   81.2320  223.8280 C   0  0  0  0  0  0  0  0  0  0  0  0
  142.4950   80.6610  223.4740 C   0  0  0  0  0  0  0  0  0  0  0  0
  142.5760   79.3770  222.9530 C   0  0  0  0  0  0  0  0  0  0  0  0
  141.4040   78.6810  222.8000 C   0  0  0  0  0  0  0  0  0  0  0  0
  141.4410   77.4160  222.2920 N   0  0  0  0  0  0  0  0  0  0  0  0
  140.9680   75.9880  219.6870 H   0  0  0  0  0  0  0  0  0  0  0  0
  140.8494   73.0875  220.4428 H   0  0  0  0  0  0  0  0  0  0  0  0
  139.8726   73.7956  218.9940 H   0  0  0  0  0  0  0  0  0  0  0  0
  143.4077   71.3035  219.1024 H   0  0  0  0  0  0  0  0  0  0  0  0
  144.2949   71.9785  217.6919 H   0  0  0  0  0  0  0  0  0  0  0  0
  145.6597   71.2940  219.8427 H   0  0  0  0  0  0  0  0  0  0  0  0
  146.0417   72.8453  219.0502 H   0  0  0  0  0  0  0  0  0  0  0  0
  143.9674   72.5802  221.2824 H   0  0  0  0  0  0  0  0  0  0  0  0
  145.6782   72.9391  221.6108 H   0  0  0  0  0  0  0  0  0  0  0  0
  143.9476   74.9275  221.2017 H   0  0  0  0  0  0  0  0  0  0  0  0
  145.5964   75.0110  220.4793 H   0  0  0  0  0  0  0  0  0  0  0  0
  144.8809   74.5246  218.4027 H   0  0  0  0  0  0  0  0  0  0  0  0
  143.6539   75.6145  216.6085 H   0  0  0  0  0  0  0  0  0  0  0  0
  142.6091   77.7653  216.0485 H   0  0  0  0  0  0  0  0  0  0  0  0
  141.7863   79.2759  217.8605 H   0  0  0  0  0  0  0  0  0  0  0  0
  143.0601   76.4689  220.7648 H   0  0  0  0  0  0  0  0  0  0  0  0
  138.1750   76.6400  222.3286 H   0  0  0  0  0  0  0  0  0  0  0  0
  138.0182   78.9378  223.2600 H   0  0  0  0  0  0  0  0  0  0  0  0
  139.1554   80.9559  223.9428 H   0  0  0  0  0  0  0  0  0  0  0  0
  141.2589   82.2525  224.2374 H   0  0  0  0  0  0  0  0  0  0  0  0
  143.4199   81.2410  223.6088 H   0  0  0  0  0  0  0  0  0  0  0  0
  143.5434   78.9344  222.6734 H   0  0  0  0  0  0  0  0  0  0  0  0
  1  2  2  0
  2  3  1  0
  3  4  1  0
  4  5  1  0
  5  6  2  0
  5  7  1  0
  7  8  1  0
  8  9  1  0
  9 10  1  0
 10 11  1  0
 11 12  1  0
 12 13  1  0
 13 14  2  0
 14 15  1  0
 15 16  2  0
 16 17  1  0
 17 18  2  0
  2 19  1  0
 19 20  2  0
 20 21  1  0
 21 22  2  0
 22 23  1  0
 23 24  2  0
 24 25  1  0
 25 26  2  0
 26 27  1  0
 27 28  2  0
 12  7  1  0
 18 13  1  0
 28 19  1  0
 27 22  1  0
  3 29  1  0
  4 30  1  0
  4 31  1  0
  8 32  1  0
  8 33  1  0
  9 34  1  0
  9 35  1  0
 10 36  1  0
 10 37  1  0
 11 38  1  0
 11 39  1  0
 12 40  1  6
 14 41  1  0
 15 42  1  0
 16 43  1  0
 18 44  1  0
 20 45  1  0
 21 46  1  0
 23 47  1  0
 24 48  1  0
 25 49  1  0
 26 50  1  0
M  END
>  <smiles>  (8) 
O=C(NCC(=O)N1CCCCC1c1cccnc1)c1ccc2ccccc2n1

>  <score_type>  (8) 
oracle

>  <origin>  (8) 
autodockgpu

>  <m_score__min__energy>  (8) 
-8.9499999999999993

>  <m_primary>  (8) 
energy

>  <rmsd>  (8) 
7.462814882044377

>  <m_score__min__rmsd>  (8) 
7.462814882044377

>  <meeko>  (8) 
{"free_energy": -7.01, "intermolecular_energy": -8.5, "internal_energy": -2.28, "cluster_size": 18, "cluster_id": 2, "rank_in_cluster": 18}

>  <energy>  (8) 
-7.45

>  <cluster_rmsd>  (8) 
0.0

>  <cluster>  (8) 
2

$$$$

     RDKit          3D

 50 53  0  0  0  0  0  0  0  0999 V2000
  140.8460   76.9180  218.0120 O   0  0  0  0  0  0  0  0  0  0  0  0
  141.8410   76.9220  218.8160 C   0  0  0  0  0  0  0  0  0  0  0  0
  142.1230   78.1130  219.5700 N   0  0  0  0  0  0  0  0  0  0  0  0
  141.3670   79.3020  219.4780 C   0  0  0  0  0  0  0  0  0  0  0  0
  140.4980   79.7190  220.5730 C   0  0  0  0  0  0  0  0  0  0  0  0
  139.2390   79.7980  220.2320 O   0  0  0  0  0  0  0  0  0  0  0  0
  140.7710   80.0390  221.9020 N   0  0  0  0  0  0  0  0  0  0  0  0
  140.9400   81.3810  222.4490 C   0  0  0  0  0  0  0  0  0  0  0  0
  141.8570   81.3270  223.6690 C   0  0  0  0  0  0  0  0  0  0  0  0
  142.9540   80.3380  223.3740 C   0  0  0  0  0  0  0  0  0  0  0  0
  142.3300   78.9490  223.4270 C   0  0  0  0  0  0  0  0  0  0  0  0
  140.9270   78.9940  222.9190 C   0  0  2  0  0  0  0  0  0  0  0  0
  140.3200   77.7050  222.6050 C   0  0  0  0  0  0  0  0  0  0  0  0
  138.9360   77.4960  222.5790 C   0  0  0  0  0  0  0  0  0  0  0  0
  138.3870   76.2780  222.2480 C   0  0  0  0  0  0  0  0  0  0  0  0
  139.1990   75.2090  221.9270 C   0  0  0  0  0  0  0  0  0  0  0  0
  140.5180   75.4110  221.9540 N   0  0  0  0  0  0  0  0  0  0  0  0
  141.0810   76.5910  222.2730 C   0  0  0  0  0  0  0  0  0  0  0  0
  142.6860   75.7190  218.9660 C   0  0  0  0  0  0  0  0  0  0  0  0
  142.4180   74.6360  218.1610 C   0  0  0  0  0  0  0  0  0  0  0  0
  143.1650   73.4860  218.2490 C   0  0  0  0  0  0  0  0  0  0  0  0
  144.2040   73.4510  219.1790 C   0  0  0  0  0  0  0  0  0  0  0  0
  144.9770   72.3200  219.3000 C   0  0  0  0  0  0  0  0  0  0  0  0
  146.0050   72.2860  220.2230 C   0  0  0  0  0  0  0  0  0  0  0  0
  146.2460   73.3900  221.0130 C   0  0  0  0  0  0  0  0  0  0  0  0
  145.4820   74.5460  220.9140 C   0  0  0  0  0  0  0  0  0  0  0  0
  144.4670   74.5560  219.9910 C   0  0  0  0  0  0  0  0  0  0  0  0
  143.6940   75.6720  219.8630 N   0  0  0  0  0  0  0  0  0  0  0  0
  142.9680   78.0130  220.2140 H   0  0  0  0  0  0  0  0  0  0  0  0
  142.0855   80.1195  219.3184 H   0  0  0  0  0  0  0  0  0  0  0  0
  140.6539   79.0771  218.6712 H   0  0  0  0  0  0  0  0  0  0  0  0
  141.3863   82.0341  221.6846 H   0  0  0  0  0  0  0  0  0  0  0  0
  139.9590   81.7792  222.7476 H   0  0  0  0  0  0  0  0  0  0  0  0
  142.2892   82.3209  223.8570 H   0  0  0  0  0  0  0  0  0  0  0  0
  141.2924   81.0210  224.5621 H   0  0  0  0  0  0  0  0  0  0  0  0
  143.3727   80.5258  222.3743 H   0  0  0  0  0  0  0  0  0  0  0  0
  143.7706   80.4289  224.1053 H   0  0  0  0  0  0  0  0  0  0  0  0
  142.9203   78.2615  222.8034 H   0  0  0  0  0  0  0  0  0  0  0  0
  142.3230   78.5984  224.4696 H   0  0  0  0  0  0  0  0  0  0  0  0
  140.3009   79.2956  223.7716 H   0  0  0  0  0  0  0  0  0  0  0  0
  138.2663   78.3314  222.8310 H   0  0  0  0  0  0  0  0  0  0  0  0
  137.2938   76.1557  222.2392 H   0  0  0  0  0  0  0  0  0  0  0  0
  138.7758   74.2295  221.6596 H   0  0  0  0  0  0  0  0  0  0  0  0
  142.1777   76.6762  222.2708 H   0  0  0  0  0  0  0  0  0  0  0  0
  141.5929   74.6915  217.4356 H   0  0  0  0  0  0  0  0  0  0  0  0
  142.9502   72.6198  217.6059 H   0  0  0  0  0  0  0  0  0  0  0  0
  144.7776   71.4450  218.6640 H   0  0  0  0  0  0  0  0  0  0  0  0
  146.6266   71.3844  220.3267 H   0  0  0  0  0  0  0  0  0  0  0  0
  147.0677   73.3544  221.7434 H   0  0  0  0  0  0  0  0  0  0  0  0
  145.6831   75.4198  221.5512 H   0  0  0  0  0  0  0  0  0  0  0  0
  1  2  2  0
  2  3  1  0
  3  4  1  0
  4  5  1  0
  5  6  2  0
  5  7  1  0
  7  8  1  0
  8  9  1  0
  9 10  1  0
 10 11  1  0
 11 12  1  0
 12 13  1  0
 13 14  2  0
 14 15  1  0
 15 16  2  0
 16 17  1  0
 17 18  2  0
  2 19  1  0
 19 20  2  0
 20 21  1  0
 21 22  2  0
 22 23  1  0
 23 24  2  0
 24 25  1  0
 25 26  2  0
 26 27  1  0
 27 28  2  0
 12  7  1  0
 18 13  1  0
 28 19  1  0
 27 22  1  0
  3 29  1  0
  4 30  1  0
  4 31  1  0
  8 32  1  0
  8 33  1  0
  9 34  1  0
  9 35  1  0
 10 36  1  0
 10 37  1  0
 11 38  1  0
 11 39  1  0
 12 40  1  1
 14 41  1  0
 15 42  1  0
 16 43  1  0
 18 44  1  0
 20 45  1  0
 21 46  1  0
 23 47  1  0
 24 48  1  0
 25 49  1  0
 26 50  1  0
M  END
>  <smiles>  (9) 
O=C(NCC(=O)N1CCCCC1c1cccnc1)c1ccc2ccccc2n1

>  <score_type>  (9) 
oracle

>  <origin>  (9) 
autodockgpu

>  <m_score__min__energy>  (9) 
-8.9499999999999993

>  <m_primary>  (9) 
energy

>  <rmsd>  (9) 
7.632980673254393

>  <m_score__min__rmsd>  (9) 
7.632980673254393

>  <meeko>  (9) 
{"free_energy": -7.29, "intermolecular_energy": -8.78, "internal_energy": -2.34, "cluster_size": 24, "cluster_id": 3, "rank_in_cluster": 16}

>  <energy>  (9) 
-7.43

>  <cluster_rmsd>  (9) 
0.16

>  <cluster>  (9) 
2

$$$$

     RDKit          3D

 50 53  0  0  0  0  0  0  0  0999 V2000
  139.0470   74.8610  221.9040 O   0  0  0  0  0  0  0  0  0  0  0  0
  140.1750   75.4620  221.9500 C   0  0  0  0  0  0  0  0  0  0  0  0
  141.3670   74.7350  221.6090 N   0  0  0  0  0  0  0  0  0  0  0  0
  141.3780   73.3760  221.2250 C   0  0  0  0  0  0  0  0  0  0  0  0
  142.1110   72.9430  220.0400 C   0  0  0  0  0  0  0  0  0  0  0  0
  141.3390   72.4650  219.1010 O   0  0  0  0  0  0  0  0  0  0  0  0
  143.4710   72.9540  219.7370 N   0  0  0  0  0  0  0  0  0  0  0  0
  144.3480   71.7910  219.6600 C   0  0  0  0  0  0  0  0  0  0  0  0
  145.7810   72.2040  219.9890 C   0  0  0  0  0  0  0  0  0  0  0  0
  145.7230   73.2040  221.1130 C   0  0  0  0  0  0  0  0  0  0  0  0
  145.1810   74.5030  220.5270 C   0  0  0  0  0  0  0  0  0  0  0  0
  144.1780   74.2090  219.4600 C   0  0  2  0  0  0  0  0  0  0  0  0
  143.3440   75.3310  219.0420 C   0  0  0  0  0  0  0  0  0  0  0  0
  142.5280   75.2960  217.9050 C   0  0  0  0  0  0  0  0  0  0  0  0
  141.7260   76.3570  217.5490 C   0  0  0  0  0  0  0  0  0  0  0  0
  141.7020   77.5040  218.3160 C   0  0  0  0  0  0  0  0  0  0  0  0
  142.4810   77.5330  219.3990 N   0  0  0  0  0  0  0  0  0  0  0  0
  143.2750   76.5120  219.7700 C   0  0  0  0  0  0  0  0  0  0  0  0
  140.2490   76.8840  222.3490 C   0  0  0  0  0  0  0  0  0  0  0  0
  139.0680   77.5640  222.5360 C   0  0  0  0  0  0  0  0  0  0  0  0
  139.0660   78.8880  222.9080 C   0  0  0  0  0  0  0  0  0  0  0  0
  140.2970   79.5180  223.0880 C   0  0  0  0  0  0  0  0  0  0  0  0
  140.3410   80.8420  223.4600 C   0  0  0  0  0  0  0  0  0  0  0  0
  141.5610   81.4660  223.6390 C   0  0  0  0  0  0  0  0  0  0  0  0
  142.7240   80.7510  223.4430 C   0  0  0  0  0  0  0  0  0  0  0  0
  142.7120   79.4150  223.0670 C   0  0  0  0  0  0  0  0  0  0  0  0
  141.4890   78.8160  222.8950 C   0  0  0  0  0  0  0  0  0  0  0  0
  141.4340   77.5050  222.5270 N   0  0  0  0  0  0  0  0  0  0  0  0
  142.2540   75.3250  221.6740 H   0  0  0  0  0  0  0  0  0  0  0  0
  141.7926   72.8129  222.0741 H   0  0  0  0  0  0  0  0  0  0  0  0
  140.3300   73.1913  220.9464 H   0  0  0  0  0  0  0  0  0  0  0  0
  144.0118   71.0312  220.3809 H   0  0  0  0  0  0  0  0  0  0  0  0
  144.3133   71.3755  218.6421 H   0  0  0  0  0  0  0  0  0  0  0  0
  146.3624   71.3237  220.3005 H   0  0  0  0  0  0  0  0  0  0  0  0
  146.2671   72.6448  219.1061 H   0  0  0  0  0  0  0  0  0  0  0  0
  145.0550   72.8405  221.9078 H   0  0  0  0  0  0  0  0  0  0  0  0
  146.7193   73.3577  221.5532 H   0  0  0  0  0  0  0  0  0  0  0  0
  144.7015   75.0892  221.3248 H   0  0  0  0  0  0  0  0  0  0  0  0
  146.0132   75.0740  220.0896 H   0  0  0  0  0  0  0  0  0  0  0  0
  144.7507   74.0438  218.5355 H   0  0  0  0  0  0  0  0  0  0  0  0
  142.5276   74.3931  217.2767 H   0  0  0  0  0  0  0  0  0  0  0  0
  141.1000   76.2900  216.6470 H   0  0  0  0  0  0  0  0  0  0  0  0
  141.0662   78.3599  218.0455 H   0  0  0  0  0  0  0  0  0  0  0  0
  143.8881   76.6157  220.6774 H   0  0  0  0  0  0  0  0  0  0  0  0
  138.1117   77.0415  222.3859 H   0  0  0  0  0  0  0  0  0  0  0  0
  138.1226   79.4332  223.0589 H   0  0  0  0  0  0  0  0  0  0  0  0
  139.4072   81.4025  223.6146 H   0  0  0  0  0  0  0  0  0  0  0  0
  141.6042   82.5244  223.9354 H   0  0  0  0  0  0  0  0  0  0  0  0
  143.6907   81.2550  223.5891 H   0  0  0  0  0  0  0  0  0  0  0  0
  143.6474   78.8572  222.9127 H   0  0  0  0  0  0  0  0  0  0  0  0
  1  2  2  0
  2  3  1  0
  3  4  1  0
  4  5  1  0
  5  6  2  0
  5  7  1  0
  7  8  1  0
  8  9  1  0
  9 10  1  0
 10 11  1  0
 11 12  1  0
 12 13  1  0
 13 14  2  0
 14 15  1  0
 15 16  2  0
 16 17  1  0
 17 18  2  0
  2 19  1  0
 19 20  2  0
 20 21  1  0
 21 22  2  0
 22 23  1  0
 23 24  2  0
 24 25  1  0
 25 26  2  0
 26 27  1  0
 27 28  2  0
 12  7  1  0
 18 13  1  0
 28 19  1  0
 27 22  1  0
  3 29  1  0
  4 30  1  0
  4 31  1  0
  8 32  1  0
  8 33  1  0
  9 34  1  0
  9 35  1  0
 10 36  1  0
 10 37  1  0
 11 38  1  0
 11 39  1  0
 12 40  1  6
 14 41  1  0
 15 42  1  0
 16 43  1  0
 18 44  1  0
 20 45  1  0
 21 46  1  0
 23 47  1  0
 24 48  1  0
 25 49  1  0
 26 50  1  0
M  END
>  <smiles>  (10) 
O=C(NCC(=O)N1CCCCC1c1cccnc1)c1ccc2ccccc2n1

>  <score_type>  (10) 
oracle

>  <origin>  (10) 
autodockgpu

>  <m_score__min__energy>  (10) 
-8.9499999999999993

>  <m_primary>  (10) 
energy

>  <rmsd>  (10) 
7.702402155068779

>  <m_score__min__rmsd>  (10) 
7.702402155068779

>  <meeko>  (10) 
{"free_energy": -7.27, "intermolecular_energy": -8.76, "internal_energy": -2.36, "cluster_size": 18, "cluster_id": 2, "rank_in_cluster": 17}

>  <energy>  (10) 
-7.43

>  <cluster_rmsd>  (10) 
0.15

>  <cluster>  (10) 
2

$$$$

     RDKit          3D

 50 53  0  0  0  0  0  0  0  0999 V2000
  139.5780   73.5080  222.3810 O   0  0  0  0  0  0  0  0  0  0  0  0
  140.4340   72.5760  222.5650 C   0  0  0  0  0  0  0  0  0  0  0  0
  141.5630   72.4820  221.6790 N   0  0  0  0  0  0  0  0  0  0  0  0
  141.7920   73.3600  220.5980 C   0  0  0  0  0  0  0  0  0  0  0  0
  141.8970   74.7990  220.8160 C   0  0  0  0  0  0  0  0  0  0  0  0
  141.4430   75.1790  221.9800 O   0  0  0  0  0  0  0  0  0  0  0  0
  142.3930   75.8240  220.0120 N   0  0  0  0  0  0  0  0  0  0  0  0
  141.8530   77.1750  219.9050 C   0  0  0  0  0  0  0  0  0  0  0  0
  142.1710   77.7480  218.5260 C   0  0  0  0  0  0  0  0  0  0  0  0
  142.0080   76.6400  217.5200 C   0  0  0  0  0  0  0  0  0  0  0  0
  143.1830   75.6880  217.7090 C   0  0  0  0  0  0  0  0  0  0  0  0
  143.5620   75.6160  219.1510 C   0  0  2  0  0  0  0  0  0  0  0  0
  144.4410   74.5140  219.5270 C   0  0  0  0  0  0  0  0  0  0  0  0
  144.9920   74.3750  220.8070 C   0  0  0  0  0  0  0  0  0  0  0  0
  145.7930   73.3080  221.1450 C   0  0  0  0  0  0  0  0  0  0  0  0
  146.0810   72.3280  220.2170 C   0  0  0  0  0  0  0  0  0  0  0  0
  145.5550   72.4640  218.9980 N   0  0  0  0  0  0  0  0  0  0  0  0
  144.7690   73.4960  218.6400 C   0  0  0  0  0  0  0  0  0  0  0  0
  140.2630   71.6110  223.6720 C   0  0  0  0  0  0  0  0  0  0  0  0
  139.5930   70.4390  223.4090 C   0  0  0  0  0  0  0  0  0  0  0  0
  139.4000   69.4990  224.3930 C   0  0  0  0  0  0  0  0  0  0  0  0
  139.9040   69.7710  225.6650 C   0  0  0  0  0  0  0  0  0  0  0  0
  139.7330   68.8580  226.6790 C   0  0  0  0  0  0  0  0  0  0  0  0
  140.2320   69.1280  227.9390 C   0  0  0  0  0  0  0  0  0  0  0  0
  140.8990   70.3140  228.1650 C   0  0  0  0  0  0  0  0  0  0  0  0
  141.0870   71.2550  227.1620 C   0  0  0  0  0  0  0  0  0  0  0  0
  140.5820   70.9650  225.9190 C   0  0  0  0  0  0  0  0  0  0  0  0
  140.7460   71.8630  224.9070 N   0  0  0  0  0  0  0  0  0  0  0  0
  142.2200   71.6750  221.9190 H   0  0  0  0  0  0  0  0  0  0  0  0
  142.7362   73.0434  220.1307 H   0  0  0  0  0  0  0  0  0  0  0  0
  140.8682   73.2683  220.0080 H   0  0  0  0  0  0  0  0  0  0  0  0
  140.7625   77.1452  220.0461 H   0  0  0  0  0  0  0  0  0  0  0  0
  142.3080   77.8117  220.6781 H   0  0  0  0  0  0  0  0  0  0  0  0
  141.4781   78.5700  218.2932 H   0  0  0  0  0  0  0  0  0  0  0  0
  143.1974   78.1428  218.5007 H   0  0  0  0  0  0  0  0  0  0  0  0
  141.0603   76.1091  217.6934 H   0  0  0  0  0  0  0  0  0  0  0  0
  141.9888   77.0404  216.4956 H   0  0  0  0  0  0  0  0  0  0  0  0
  142.8982   74.6852  217.3577 H   0  0  0  0  0  0  0  0  0  0  0  0
  144.0419   76.0590  217.1305 H   0  0  0  0  0  0  0  0  0  0  0  0
  144.2362   76.4659  219.3333 H   0  0  0  0  0  0  0  0  0  0  0  0
  144.7780   75.1423  221.5656 H   0  0  0  0  0  0  0  0  0  0  0  0
  146.2064   73.2359  222.1618 H   0  0  0  0  0  0  0  0  0  0  0  0
  146.7188   71.4688  220.4719 H   0  0  0  0  0  0  0  0  0  0  0  0
  144.3742   73.5348  217.6140 H   0  0  0  0  0  0  0  0  0  0  0  0
  139.2060   70.2513  222.3966 H   0  0  0  0  0  0  0  0  0  0  0  0
  138.8646   68.5611  224.1839 H   0  0  0  0  0  0  0  0  0  0  0  0
  139.2002   67.9149  226.4875 H   0  0  0  0  0  0  0  0  0  0  0  0
  140.0983   68.4029  228.7553 H   0  0  0  0  0  0  0  0  0  0  0  0
  141.2940   70.5204  229.1707 H   0  0  0  0  0  0  0  0  0  0  0  0
  141.6204   72.1973  227.3559 H   0  0  0  0  0  0  0  0  0  0  0  0
  1  2  2  0
  2  3  1  0
  3  4  1  0
  4  5  1  0
  5  6  2  0
  5  7  1  0
  7  8  1  0
  8  9  1  0
  9 10  1  0
 10 11  1  0
 11 12  1  0
 12 13  1  0
 13 14  2  0
 14 15  1  0
 15 16  2  0
 16 17  1  0
 17 18  2  0
  2 19  1  0
 19 20  2  0
 20 21  1  0
 21 22  2  0
 22 23  1  0
 23 24  2  0
 24 25  1  0
 25 26  2  0
 26 27  1  0
 27 28  2  0
 12  7  1  0
 18 13  1  0
 28 19  1  0
 27 22  1  0
  3 29  1  0
  4 30  1  0
  4 31  1  0
  8 32  1  0
  8 33  1  0
  9 34  1  0
  9 35  1  0
 10 36  1  0
 10 37  1  0
 11 38  1  0
 11 39  1  0
 12 40  1  1
 14 41  1  0
 15 42  1  0
 16 43  1  0
 18 44  1  0
 20 45  1  0
 21 46  1  0
 23 47  1  0
 24 48  1  0
 25 49  1  0
 26 50  1  0
M  END
>  <smiles>  (11) 
O=C(NCC(=O)N1CCCCC1c1cccnc1)c1ccc2ccccc2n1

>  <score_type>  (11) 
oracle

>  <origin>  (11) 
autodockgpu

>  <m_score__min__energy>  (11) 
-8.9499999999999993

>  <m_primary>  (11) 
energy

>  <rmsd>  (11) 
2.6858589675271474

>  <m_score__min__rmsd>  (11) 
2.6858589675271474

>  <meeko>  (11) 
{"free_energy": -8.91, "intermolecular_energy": -10.4, "internal_energy": -1.06, "cluster_size": 7, "cluster_id": 1, "rank_in_cluster": 3}

>  <energy>  (11) 
-7.42

>  <cluster_rmsd>  (11) 
0.14

>  <cluster>  (11) 
2

$$$$

     RDKit          3D

 50 53  0  0  0  0  0  0  0  0999 V2000
  141.1640   71.4920  221.4000 O   0  0  0  0  0  0  0  0  0  0  0  0
  140.5660   72.0830  222.3640 C   0  0  0  0  0  0  0  0  0  0  0  0
  140.1730   73.4570  222.2040 N   0  0  0  0  0  0  0  0  0  0  0  0
  140.4120   74.2140  221.0360 C   0  0  0  0  0  0  0  0  0  0  0  0
  141.1070   75.4950  221.1080 C   0  0  0  0  0  0  0  0  0  0  0  0
  141.2060   75.9610  222.3250 O   0  0  0  0  0  0  0  0  0  0  0  0
  141.6780   76.2960  220.1220 N   0  0  0  0  0  0  0  0  0  0  0  0
  141.2690   77.6500  219.7650 C   0  0  0  0  0  0  0  0  0  0  0  0
  141.6050   77.9200  218.2990 C   0  0  0  0  0  0  0  0  0  0  0  0
  141.3080   76.6640  217.5230 C   0  0  0  0  0  0  0  0  0  0  0  0
  142.3900   75.6520  217.8800 C   0  0  0  0  0  0  0  0  0  0  0  0
  142.7980   75.8140  219.3060 C   0  0  2  0  0  0  0  0  0  0  0  0
  143.5760   74.7200  219.8770 C   0  0  0  0  0  0  0  0  0  0  0  0
  143.1580   73.3840  219.8430 C   0  0  0  0  0  0  0  0  0  0  0  0
  143.9250   72.3650  220.3600 C   0  0  0  0  0  0  0  0  0  0  0  0
  145.1500   72.6350  220.9370 C   0  0  0  0  0  0  0  0  0  0  0  0
  145.5450   73.9100  220.9680 N   0  0  0  0  0  0  0  0  0  0  0  0
  144.8150   74.9250  220.4700 C   0  0  0  0  0  0  0  0  0  0  0  0
  140.2830   71.3620  223.6230 C   0  0  0  0  0  0  0  0  0  0  0  0
  139.5850   70.1790  223.5470 C   0  0  0  0  0  0  0  0  0  0  0  0
  139.2900   69.4580  224.6800 C   0  0  0  0  0  0  0  0  0  0  0  0
  139.7190   69.9640  225.9070 C   0  0  0  0  0  0  0  0  0  0  0  0
  139.4450   69.2740  227.0650 C   0  0  0  0  0  0  0  0  0  0  0  0
  139.8700   69.7750  228.2810 C   0  0  0  0  0  0  0  0  0  0  0  0
  140.5680   70.9640  228.3180 C   0  0  0  0  0  0  0  0  0  0  0  0
  140.8600   71.6830  227.1660 C   0  0  0  0  0  0  0  0  0  0  0  0
  140.4270   71.1660  225.9710 C   0  0  0  0  0  0  0  0  0  0  0  0
  140.6930   71.8400  224.8170 N   0  0  0  0  0  0  0  0  0  0  0  0
  139.6770   73.8560  223.0610 H   0  0  0  0  0  0  0  0  0  0  0  0
  141.0009   73.5745  220.3621 H   0  0  0  0  0  0  0  0  0  0  0  0
  139.3989   74.5021  220.7188 H   0  0  0  0  0  0  0  0  0  0  0  0
  140.1848   77.7566  219.9172 H   0  0  0  0  0  0  0  0  0  0  0  0
  141.8039   78.3714  220.4001 H   0  0  0  0  0  0  0  0  0  0  0  0
  140.9894   78.7491  217.9200 H   0  0  0  0  0  0  0  0  0  0  0  0
  142.6637   78.1986  218.1911 H   0  0  0  0  0  0  0  0  0  0  0  0
  140.3184   76.2729  217.8019 H   0  0  0  0  0  0  0  0  0  0  0  0
  141.2998   76.8641  216.4414 H   0  0  0  0  0  0  0  0  0  0  0  0
  142.0005   74.6347  217.7270 H   0  0  0  0  0  0  0  0  0  0  0  0
  143.2652   75.8204  217.2353 H   0  0  0  0  0  0  0  0  0  0  0  0
  143.5556   76.6114  219.3183 H   0  0  0  0  0  0  0  0  0  0  0  0
  142.1860   73.1414  219.3888 H   0  0  0  0  0  0  0  0  0  0  0  0
  143.5597   71.3285  220.3132 H   0  0  0  0  0  0  0  0  0  0  0  0
  145.7753   71.8320  221.3543 H   0  0  0  0  0  0  0  0  0  0  0  0
  145.2120   75.9488  220.5346 H   0  0  0  0  0  0  0  0  0  0  0  0
  139.2582   69.8045  222.5657 H   0  0  0  0  0  0  0  0  0  0  0  0
  138.7329   68.5114  224.6206 H   0  0  0  0  0  0  0  0  0  0  0  0
  138.8890   68.3258  227.0234 H   0  0  0  0  0  0  0  0  0  0  0  0
  139.6533   69.2300  229.2116 H   0  0  0  0  0  0  0  0  0  0  0  0
  140.9038   71.3549  229.2898 H   0  0  0  0  0  0  0  0  0  0  0  0
  141.4170   72.6305  227.2100 H   0  0  0  0  0  0  0  0  0  0  0  0
  1  2  2  0
  2  3  1  0
  3  4  1  0
  4  5  1  0
  5  6  2  0
  5  7  1  0
  7  8  1  0
  8  9  1  0
  9 10  1  0
 10 11  1  0
 11 12  1  0
 12 13  1  0
 13 14  2  0
 14 15  1  0
 15 16  2  0
 16 17  1  0
 17 18  2  0
  2 19  1  0
 19 20  2  0
 20 21  1  0
 21 22  2  0
 22 23  1  0
 23 24  2  0
 24 25  1  0
 25 26  2  0
 26 27  1  0
 27 28  2  0
 12  7  1  0
 18 13  1  0
 28 19  1  0
 27 22  1  0
  3 29  1  0
  4 30  1  0
  4 31  1  0
  8 32  1  0
  8 33  1  0
  9 34  1  0
  9 35  1  0
 10 36  1  0
 10 37  1  0
 11 38  1  0
 11 39  1  0
 12 40  1  6
 14 41  1  0
 15 42  1  0
 16 43  1  0
 18 44  1  0
 20 45  1  0
 21 46  1  0
 23 47  1  0
 24 48  1  0
 25 49  1  0
 26 50  1  0
M  END
>  <smiles>  (12) 
O=C(NCC(=O)N1CCCCC1c1cccnc1)c1ccc2ccccc2n1

>  <score_type>  (12) 
oracle

>  <origin>  (12) 
autodockgpu

>  <m_score__min__energy>  (12) 
-8.9499999999999993

>  <m_primary>  (12) 
energy

>  <rmsd>  (12) 
2.2143694571904025

>  <m_score__min__rmsd>  (12) 
2.2143694571904025

>  <meeko>  (12) 
{"free_energy": -8.04, "intermolecular_energy": -9.53, "internal_energy": -1.6, "cluster_size": 7, "cluster_id": 1, "rank_in_cluster": 5}

>  <energy>  (12) 
-7.41

>  <cluster_rmsd>  (12) 
0.09

>  <cluster>  (12) 
2

$$$$

     RDKit          3D

 50 53  0  0  0  0  0  0  0  0999 V2000
  139.0400   74.9360  221.9060 O   0  0  0  0  0  0  0  0  0  0  0  0
  140.1730   75.5270  221.9480 C   0  0  0  0  0  0  0  0  0  0  0  0
  141.3570   74.7910  221.5940 N   0  0  0  0  0  0  0  0  0  0  0  0
  141.3540   73.4350  221.2020 C   0  0  0  0  0  0  0  0  0  0  0  0
  142.0960   72.9990  220.0230 C   0  0  0  0  0  0  0  0  0  0  0  0
  141.3260   72.5700  219.0590 O   0  0  0  0  0  0  0  0  0  0  0  0
  143.4610   72.9640  219.7490 N   0  0  0  0  0  0  0  0  0  0  0  0
  144.3070   71.7760  219.7230 C   0  0  0  0  0  0  0  0  0  0  0  0
  145.7440   72.1590  220.0700 C   0  0  0  0  0  0  0  0  0  0  0  0
  145.6910   73.1920  221.1640 C   0  0  0  0  0  0  0  0  0  0  0  0
  145.1970   74.4880  220.5310 C   0  0  0  0  0  0  0  0  0  0  0  0
  144.2080   74.1920  219.4530 C   0  0  2  0  0  0  0  0  0  0  0  0
  143.4140   75.3230  218.9860 C   0  0  0  0  0  0  0  0  0  0  0  0
  142.7110   75.3180  217.7750 C   0  0  0  0  0  0  0  0  0  0  0  0
  141.9420   76.3860  217.3720 C   0  0  0  0  0  0  0  0  0  0  0  0
  141.8420   77.5130  218.1630 C   0  0  0  0  0  0  0  0  0  0  0  0
  142.5140   77.5150  219.3170 N   0  0  0  0  0  0  0  0  0  0  0  0
  143.2720   76.4840  219.7350 C   0  0  0  0  0  0  0  0  0  0  0  0
  140.2620   76.9450  222.3550 C   0  0  0  0  0  0  0  0  0  0  0  0
  139.0890   77.6270  222.5800 C   0  0  0  0  0  0  0  0  0  0  0  0
  139.1010   78.9480  222.9600 C   0  0  0  0  0  0  0  0  0  0  0  0
  140.3380   79.5740  223.1100 C   0  0  0  0  0  0  0  0  0  0  0  0
  140.3950   80.8950  223.4900 C   0  0  0  0  0  0  0  0  0  0  0  0
  141.6210   81.5150  223.6380 C   0  0  0  0  0  0  0  0  0  0  0  0
  142.7770   80.8000  223.4040 C   0  0  0  0  0  0  0  0  0  0  0  0
  142.7510   79.4660  223.0200 C   0  0  0  0  0  0  0  0  0  0  0  0
  141.5220   78.8720  222.8790 C   0  0  0  0  0  0  0  0  0  0  0  0
  141.4530   77.5630  222.5030 N   0  0  0  0  0  0  0  0  0  0  0  0
  142.2490   75.3740  221.6560 H   0  0  0  0  0  0  0  0  0  0  0  0
  141.7501   72.8610  222.0527 H   0  0  0  0  0  0  0  0  0  0  0  0
  140.3071   73.2664  220.9094 H   0  0  0  0  0  0  0  0  0  0  0  0
  143.9355   71.0466  220.4578 H   0  0  0  0  0  0  0  0  0  0  0  0
  144.2813   71.3328  218.7166 H   0  0  0  0  0  0  0  0  0  0  0  0
  146.2943   71.2725  220.4182 H   0  0  0  0  0  0  0  0  0  0  0  0
  146.2599   72.5608  219.1855 H   0  0  0  0  0  0  0  0  0  0  0  0
  144.9974   72.8695  221.9545 H   0  0  0  0  0  0  0  0  0  0  0  0
  146.6822   73.3313  221.6202 H   0  0  0  0  0  0  0  0  0  0  0  0
  144.7185   75.1095  221.3022 H   0  0  0  0  0  0  0  0  0  0  0  0
  146.0534   75.0231  220.0948 H   0  0  0  0  0  0  0  0  0  0  0  0
  144.7951   73.9863  218.5458 H   0  0  0  0  0  0  0  0  0  0  0  0
  142.7754   74.4327  217.1253 H   0  0  0  0  0  0  0  0  0  0  0  0
  141.4038   76.3413  216.4137 H   0  0  0  0  0  0  0  0  0  0  0  0
  141.2327   78.3754  217.8548 H   0  0  0  0  0  0  0  0  0  0  0  0
  143.7950   76.5635  220.6994 H   0  0  0  0  0  0  0  0  0  0  0  0
  138.1274   77.1079  222.4541 H   0  0  0  0  0  0  0  0  0  0  0  0
  138.1635   79.4945  223.1402 H   0  0  0  0  0  0  0  0  0  0  0  0
  139.4672   81.4561  223.6755 H   0  0  0  0  0  0  0  0  0  0  0  0
  141.6746   82.5713  223.9403 H   0  0  0  0  0  0  0  0  0  0  0  0
  143.7484   81.3016  223.5252 H   0  0  0  0  0  0  0  0  0  0  0  0
  143.6801   78.9066  222.8358 H   0  0  0  0  0  0  0  0  0  0  0  0
  1  2  2  0
  2  3  1  0
  3  4  1  0
  4  5  1  0
  5  6  2  0
  5  7  1  0
  7  8  1  0
  8  9  1  0
  9 10  1  0
 10 11  1  0
 11 12  1  0
 12 13  1  0
 13 14  2  0
 14 15  1  0
 15 16  2  0
 16 17  1  0
 17 18  2  0
  2 19  1  0
 19 20  2  0
 20 21  1  0
 21 22  2  0
 22 23  1  0
 23 24  2  0
 24 25  1  0
 25 26  2  0
 26 27  1  0
 27 28  2  0
 12  7  1  0
 18 13  1  0
 28 19  1  0
 27 22  1  0
  3 29  1  0
  4 30  1  0
  4 31  1  0
  8 32  1  0
  8 33  1  0
  9 34  1  0
  9 35  1  0
 10 36  1  0
 10 37  1  0
 11 38  1  0
 11 39  1  0
 12 40  1  6
 14 41  1  0
 15 42  1  0
 16 43  1  0
 18 44  1  0
 20 45  1  0
 21 46  1  0
 23 47  1  0
 24 48  1  0
 25 49  1  0
 26 50  1  0
M  END
>  <smiles>  (13) 
O=C(NCC(=O)N1CCCCC1c1cccnc1)c1ccc2ccccc2n1

>  <score_type>  (13) 
oracle

>  <origin>  (13) 
autodockgpu

>  <m_score__min__energy>  (13) 
-8.9499999999999993

>  <m_primary>  (13) 
energy

>  <rmsd>  (13) 
7.738398227310297

>  <m_score__min__rmsd>  (13) 
7.738398227310297

>  <meeko>  (13) 
{"free_energy": -7.33, "intermolecular_energy": -8.82, "internal_energy": -2.31, "cluster_size": 18, "cluster_id": 2, "rank_in_cluster": 11}

>  <energy>  (13) 
-7.4

>  <cluster_rmsd>  (13) 
0.14

>  <cluster>  (13) 
2

$$$$

     RDKit          3D

 50 53  0  0  0  0  0  0  0  0999 V2000
  140.6440   77.0000  218.4260 O   0  0  0  0  0  0  0  0  0  0  0  0
  141.7750   77.0210  219.0230 C   0  0  0  0  0  0  0  0  0  0  0  0
  142.2520   78.2620  219.5700 N   0  0  0  0  0  0  0  0  0  0  0  0
  141.5470   79.4830  219.4850 C   0  0  0  0  0  0  0  0  0  0  0  0
  140.6120   79.8780  220.5330 C   0  0  0  0  0  0  0  0  0  0  0  0
  139.3720   79.9350  220.1250 O   0  0  0  0  0  0  0  0  0  0  0  0
  140.8060   80.1960  221.8760 N   0  0  0  0  0  0  0  0  0  0  0  0
  140.9590   81.5360  222.4320 C   0  0  0  0  0  0  0  0  0  0  0  0
  141.7970   81.4710  223.7070 C   0  0  0  0  0  0  0  0  0  0  0  0
  142.8970   80.4670  223.4820 C   0  0  0  0  0  0  0  0  0  0  0  0
  142.2520   79.0860  223.4960 C   0  0  0  0  0  0  0  0  0  0  0  0
  140.8840   79.1500  222.9010 C   0  0  2  0  0  0  0  0  0  0  0  0
  140.2800   77.8690  222.5510 C   0  0  0  0  0  0  0  0  0  0  0  0
  141.0300   76.7310  222.2270 C   0  0  0  0  0  0  0  0  0  0  0  0
  140.4360   75.5250  221.9320 C   0  0  0  0  0  0  0  0  0  0  0  0
  139.0620   75.4000  221.9450 C   0  0  0  0  0  0  0  0  0  0  0  0
  138.3500   76.4870  222.2530 N   0  0  0  0  0  0  0  0  0  0  0  0
  138.9040   77.6780  222.5460 C   0  0  0  0  0  0  0  0  0  0  0  0
  142.5780   75.7860  219.1490 C   0  0  0  0  0  0  0  0  0  0  0  0
  142.1730   74.6780  218.4410 C   0  0  0  0  0  0  0  0  0  0  0  0
  142.8740   73.4980  218.5130 C   0  0  0  0  0  0  0  0  0  0  0  0
  144.0070   73.4600  219.3250 C   0  0  0  0  0  0  0  0  0  0  0  0
  144.7380   72.2980  219.4260 C   0  0  0  0  0  0  0  0  0  0  0  0
  145.8610   72.2610  220.2310 C   0  0  0  0  0  0  0  0  0  0  0  0
  146.2370   73.3910  220.9250 C   0  0  0  0  0  0  0  0  0  0  0  0
  145.5190   74.5770  220.8440 C   0  0  0  0  0  0  0  0  0  0  0  0
  144.4080   74.5910  220.0390 C   0  0  0  0  0  0  0  0  0  0  0  0
  143.6760   75.7360  219.9310 N   0  0  0  0  0  0  0  0  0  0  0  0
  143.2000   78.1740  220.0510 H   0  0  0  0  0  0  0  0  0  0  0  0
  142.3037   80.2790  219.4228 H   0  0  0  0  0  0  0  0  0  0  0  0
  140.8901   79.3267  218.6166 H   0  0  0  0  0  0  0  0  0  0  0  0
  141.4612   82.1819  221.6968 H   0  0  0  0  0  0  0  0  0  0  0  0
  139.9669   81.9480  222.6685 H   0  0  0  0  0  0  0  0  0  0  0  0
  142.2300   82.4592  223.9214 H   0  0  0  0  0  0  0  0  0  0  0  0
  141.1733   81.1735  224.5629 H   0  0  0  0  0  0  0  0  0  0  0  0
  143.3804   80.6480  222.5106 H   0  0  0  0  0  0  0  0  0  0  0  0
  143.6671   80.5478  224.2633 H   0  0  0  0  0  0  0  0  0  0  0  0
  142.8707   78.3900  222.9105 H   0  0  0  0  0  0  0  0  0  0  0  0
  142.1751   78.7362  224.5361 H   0  0  0  0  0  0  0  0  0  0  0  0
  140.2099   79.4619  223.7123 H   0  0  0  0  0  0  0  0  0  0  0  0
  142.1274   76.8035  222.2078 H   0  0  0  0  0  0  0  0  0  0  0  0
  141.0612   74.6545  221.6841 H   0  0  0  0  0  0  0  0  0  0  0  0
  138.5725   74.4431  221.7110 H   0  0  0  0  0  0  0  0  0  0  0  0
  138.2471   78.5262  222.7890 H   0  0  0  0  0  0  0  0  0  0  0  0
  141.2752   74.7374  217.8082 H   0  0  0  0  0  0  0  0  0  0  0  0
  142.5513   72.6112  217.9477 H   0  0  0  0  0  0  0  0  0  0  0  0
  144.4295   71.4017  218.8679 H   0  0  0  0  0  0  0  0  0  0  0  0
  146.4505   71.3363  220.3172 H   0  0  0  0  0  0  0  0  0  0  0  0
  147.1328   73.3522  221.5622 H   0  0  0  0  0  0  0  0  0  0  0  0
  145.8293   75.4714  221.4041 H   0  0  0  0  0  0  0  0  0  0  0  0
  1  2  2  0
  2  3  1  0
  3  4  1  0
  4  5  1  0
  5  6  2  0
  5  7  1  0
  7  8  1  0
  8  9  1  0
  9 10  1  0
 10 11  1  0
 11 12  1  0
 12 13  1  0
 13 14  2  0
 14 15  1  0
 15 16  2  0
 16 17  1  0
 17 18  2  0
  2 19  1  0
 19 20  2  0
 20 21  1  0
 21 22  2  0
 22 23  1  0
 23 24  2  0
 24 25  1  0
 25 26  2  0
 26 27  1  0
 27 28  2  0
 12  7  1  0
 18 13  1  0
 28 19  1  0
 27 22  1  0
  3 29  1  0
  4 30  1  0
  4 31  1  0
  8 32  1  0
  8 33  1  0
  9 34  1  0
  9 35  1  0
 10 36  1  0
 10 37  1  0
 11 38  1  0
 11 39  1  0
 12 40  1  1
 14 41  1  0
 15 42  1  0
 16 43  1  0
 18 44  1  0
 20 45  1  0
 21 46  1  0
 23 47  1  0
 24 48  1  0
 25 49  1  0
 26 50  1  0
M  END
>  <smiles>  (14) 
O=C(NCC(=O)N1CCCCC1c1cccnc1)c1ccc2ccccc2n1

>  <score_type>  (14) 
oracle

>  <origin>  (14) 
autodockgpu

>  <m_score__min__energy>  (14) 
-8.9499999999999993

>  <m_primary>  (14) 
energy

>  <rmsd>  (14) 
7.644208679668993

>  <m_score__min__rmsd>  (14) 
7.644208679668993

>  <meeko>  (14) 
{"free_energy": -7.11, "intermolecular_energy": -8.61, "internal_energy": -2.4, "cluster_size": 24, "cluster_id": 3, "rank_in_cluster": 23}

>  <energy>  (14) 
-7.38

>  <cluster_rmsd>  (14) 
0.19

>  <cluster>  (14) 
2

$$$$

     RDKit          3D

 50 53  0  0  0  0  0  0  0  0999 V2000
  141.0810   71.5910  221.4010 O   0  0  0  0  0  0  0  0  0  0  0  0
  140.4990   72.1540  222.3910 C   0  0  0  0  0  0  0  0  0  0  0  0
  140.0630   73.5180  222.2600 N   0  0  0  0  0  0  0  0  0  0  0  0
  140.2440   74.2950  221.0950 C   0  0  0  0  0  0  0  0  0  0  0  0
  141.0630   75.5020  221.1240 C   0  0  0  0  0  0  0  0  0  0  0  0
  141.3140   75.9270  222.3340 O   0  0  0  0  0  0  0  0  0  0  0  0
  141.6190   76.2690  220.1030 N   0  0  0  0  0  0  0  0  0  0  0  0
  141.2070   77.6120  219.7090 C   0  0  0  0  0  0  0  0  0  0  0  0
  141.5190   77.8330  218.2300 C   0  0  0  0  0  0  0  0  0  0  0  0
  141.2070   76.5540  217.5000 C   0  0  0  0  0  0  0  0  0  0  0  0
  142.2930   75.5500  217.8720 C   0  0  0  0  0  0  0  0  0  0  0  0
  142.7250   75.7590  219.2850 C   0  0  2  0  0  0  0  0  0  0  0  0
  143.5100   74.6810  219.8780 C   0  0  0  0  0  0  0  0  0  0  0  0
  143.1030   73.3410  219.8670 C   0  0  0  0  0  0  0  0  0  0  0  0
  143.8770   72.3380  220.4050 C   0  0  0  0  0  0  0  0  0  0  0  0
  145.0970   72.6290  220.9810 C   0  0  0  0  0  0  0  0  0  0  0  0
  145.4810   73.9080  220.9910 N   0  0  0  0  0  0  0  0  0  0  0  0
  144.7450   74.9070  220.4720 C   0  0  0  0  0  0  0  0  0  0  0  0
  140.2770   71.4100  223.6490 C   0  0  0  0  0  0  0  0  0  0  0  0
  139.5900   70.2200  223.5830 C   0  0  0  0  0  0  0  0  0  0  0  0
  139.3500   69.4790  224.7160 C   0  0  0  0  0  0  0  0  0  0  0  0
  139.8240   69.9710  225.9310 C   0  0  0  0  0  0  0  0  0  0  0  0
  139.6050   69.2610  227.0890 C   0  0  0  0  0  0  0  0  0  0  0  0
  140.0750   69.7490  228.2940 C   0  0  0  0  0  0  0  0  0  0  0  0
  140.7600   70.9460  228.3210 C   0  0  0  0  0  0  0  0  0  0  0  0
  140.9950   71.6850  227.1700 C   0  0  0  0  0  0  0  0  0  0  0  0
  140.5200   71.1800  225.9850 C   0  0  0  0  0  0  0  0  0  0  0  0
  140.7300   71.8760  224.8320 N   0  0  0  0  0  0  0  0  0  0  0  0
  139.5850   73.8930  223.1370 H   0  0  0  0  0  0  0  0  0  0  0  0
  140.6904   73.6306  220.3405 H   0  0  0  0  0  0  0  0  0  0  0  0
  139.2347   74.6884  220.9037 H   0  0  0  0  0  0  0  0  0  0  0  0
  140.1257   77.7265  219.8757 H   0  0  0  0  0  0  0  0  0  0  0  0
  141.7540   78.3523  220.3113 H   0  0  0  0  0  0  0  0  0  0  0  0
  140.8988   78.6509  217.8345 H   0  0  0  0  0  0  0  0  0  0  0  0
  142.5764   78.1049  218.0959 H   0  0  0  0  0  0  0  0  0  0  0  0
  140.2212   76.1749  217.8072 H   0  0  0  0  0  0  0  0  0  0  0  0
  141.1820   76.7194  216.4128 H   0  0  0  0  0  0  0  0  0  0  0  0
  141.8983   74.5294  217.7598 H   0  0  0  0  0  0  0  0  0  0  0  0
  143.1576   75.6932  217.2071 H   0  0  0  0  0  0  0  0  0  0  0  0
  143.4832   76.5556  219.2595 H   0  0  0  0  0  0  0  0  0  0  0  0
  142.1345   73.0820  219.4143 H   0  0  0  0  0  0  0  0  0  0  0  0
  143.5209   71.2977  220.3757 H   0  0  0  0  0  0  0  0  0  0  0  0
  145.7278   71.8390  221.4145 H   0  0  0  0  0  0  0  0  0  0  0  0
  145.1333   75.9351  220.5195 H   0  0  0  0  0  0  0  0  0  0  0  0
  139.2276   69.8562  222.6102 H   0  0  0  0  0  0  0  0  0  0  0  0
  138.8009   68.5272  224.6652 H   0  0  0  0  0  0  0  0  0  0  0  0
  139.0574   68.3076  227.0561 H   0  0  0  0  0  0  0  0  0  0  0  0
  139.9041   69.1871  229.2241 H   0  0  0  0  0  0  0  0  0  0  0  0
  141.1313   71.3264  229.2841 H   0  0  0  0  0  0  0  0  0  0  0  0
  141.5411   72.6392  227.2058 H   0  0  0  0  0  0  0  0  0  0  0  0
  1  2  2  0
  2  3  1  0
  3  4  1  0
  4  5  1  0
  5  6  2  0
  5  7  1  0
  7  8  1  0
  8  9  1  0
  9 10  1  0
 10 11  1  0
 11 12  1  0
 12 13  1  0
 13 14  2  0
 14 15  1  0
 15 16  2  0
 16 17  1  0
 17 18  2  0
  2 19  1  0
 19 20  2  0
 20 21  1  0
 21 22  2  0
 22 23  1  0
 23 24  2  0
 24 25  1  0
 25 26  2  0
 26 27  1  0
 27 28  2  0
 12  7  1  0
 18 13  1  0
 28 19  1  0
 27 22  1  0
  3 29  1  0
  4 30  1  0
  4 31  1  0
  8 32  1  0
  8 33  1  0
  9 34  1  0
  9 35  1  0
 10 36  1  0
 10 37  1  0
 11 38  1  0
 11 39  1  0
 12 40  1  6
 14 41  1  0
 15 42  1  0
 16 43  1  0
 18 44  1  0
 20 45  1  0
 21 46  1  0
 23 47  1  0
 24 48  1  0
 25 49  1  0
 26 50  1  0
M  END
>  <smiles>  (15) 
O=C(NCC(=O)N1CCCCC1c1cccnc1)c1ccc2ccccc2n1

>  <score_type>  (15) 
oracle

>  <origin>  (15) 
autodockgpu

>  <m_score__min__energy>  (15) 
-8.9499999999999993

>  <m_primary>  (15) 
energy

>  <rmsd>  (15) 
2.169019346378491

>  <m_score__min__rmsd>  (15) 
2.169019346378491

>  <meeko>  (15) 
{"free_energy": -8.01, "intermolecular_energy": -9.5, "internal_energy": -1.63, "cluster_size": 7, "cluster_id": 1, "rank_in_cluster": 6}

>  <energy>  (15) 
-7.36

>  <cluster_rmsd>  (15) 
0.22

>  <cluster>  (15) 
2

$$$$

     RDKit          3D

 50 53  0  0  0  0  0  0  0  0999 V2000
  140.5680   76.7330  219.2390 O   0  0  0  0  0  0  0  0  0  0  0  0
  141.8450   76.8030  219.2830 C   0  0  0  0  0  0  0  0  0  0  0  0
  142.4700   78.0970  219.3380 N   0  0  0  0  0  0  0  0  0  0  0  0
  141.7590   79.3170  219.3410 C   0  0  0  0  0  0  0  0  0  0  0  0
  140.7670   79.5980  220.3740 C   0  0  0  0  0  0  0  0  0  0  0  0
  139.5370   79.4230  219.9690 O   0  0  0  0  0  0  0  0  0  0  0  0
  140.8990   80.0110  221.6980 N   0  0  0  0  0  0  0  0  0  0  0  0
  141.0500   81.3850  222.1630 C   0  0  0  0  0  0  0  0  0  0  0  0
  141.8220   81.4020  223.4800 C   0  0  0  0  0  0  0  0  0  0  0  0
  142.9130   80.3680  223.3840 C   0  0  0  0  0  0  0  0  0  0  0  0
  142.2430   79.0020  223.4650 C   0  0  0  0  0  0  0  0  0  0  0  0
  140.9080   79.0420  222.7990 C   0  0  2  0  0  0  0  0  0  0  0  0
  140.2980   77.7480  222.5120 C   0  0  0  0  0  0  0  0  0  0  0  0
  138.9180   77.5670  222.3610 C   0  0  0  0  0  0  0  0  0  0  0  0
  138.3710   76.3410  222.0580 C   0  0  0  0  0  0  0  0  0  0  0  0
  139.1800   75.2350  221.8920 C   0  0  0  0  0  0  0  0  0  0  0  0
  140.4950   75.4110  222.0380 N   0  0  0  0  0  0  0  0  0  0  0  0
  141.0570   76.5980  222.3330 C   0  0  0  0  0  0  0  0  0  0  0  0
  142.6620   75.5720  219.2770 C   0  0  0  0  0  0  0  0  0  0  0  0
  142.2920   74.5550  218.4290 C   0  0  0  0  0  0  0  0  0  0  0  0
  143.0080   73.3830  218.3740 C   0  0  0  0  0  0  0  0  0  0  0  0
  144.1220   73.2590  219.2040 C   0  0  0  0  0  0  0  0  0  0  0  0
  144.8670   72.1030  219.1810 C   0  0  0  0  0  0  0  0  0  0  0  0
  145.9710   71.9800  220.0040 C   0  0  0  0  0  0  0  0  0  0  0  0
  146.3130   73.0210  220.8420 C   0  0  0  0  0  0  0  0  0  0  0  0
  145.5790   74.1990  220.8870 C   0  0  0  0  0  0  0  0  0  0  0  0
  144.4880   74.2980  220.0610 C   0  0  0  0  0  0  0  0  0  0  0  0
  143.7420   75.4390  220.0760 N   0  0  0  0  0  0  0  0  0  0  0  0
  143.5350   78.0480  219.3770 H   0  0  0  0  0  0  0  0  0  0  0  0
  142.5101   80.1184  219.4002 H   0  0  0  0  0  0  0  0  0  0  0  0
  141.1497   79.2483  218.4277 H   0  0  0  0  0  0  0  0  0  0  0  0
  141.6003   81.9674  221.4093 H   0  0  0  0  0  0  0  0  0  0  0  0
  140.0551   81.8277  222.3188 H   0  0  0  0  0  0  0  0  0  0  0  0
  142.2619   82.3968  223.6437 H   0  0  0  0  0  0  0  0  0  0  0  0
  141.1516   81.1779  224.3228 H   0  0  0  0  0  0  0  0  0  0  0  0
  143.4470   80.4704  222.4278 H   0  0  0  0  0  0  0  0  0  0  0  0
  143.6449   80.4941  224.1954 H   0  0  0  0  0  0  0  0  0  0  0  0
  142.8770   78.2561  222.9634 H   0  0  0  0  0  0  0  0  0  0  0  0
  142.1084   78.7306  224.5224 H   0  0  0  0  0  0  0  0  0  0  0  0
  140.2016   79.4220  223.5517 H   0  0  0  0  0  0  0  0  0  0  0  0
  138.2501   78.4317  222.4885 H   0  0  0  0  0  0  0  0  0  0  0  0
  137.2811   76.2418  221.9473 H   0  0  0  0  0  0  0  0  0  0  0  0
  138.7581   74.2486  221.6492 H   0  0  0  0  0  0  0  0  0  0  0  0
  142.1505   76.6595  222.4355 H   0  0  0  0  0  0  0  0  0  0  0  0
  141.4094   74.6812  217.7847 H   0  0  0  0  0  0  0  0  0  0  0  0
  142.7117   72.5685  217.6967 H   0  0  0  0  0  0  0  0  0  0  0  0
  144.5851   71.2786  218.5095 H   0  0  0  0  0  0  0  0  0  0  0  0
  146.5722   71.0589  219.9907 H   0  0  0  0  0  0  0  0  0  0  0  0
  147.1928   72.9149  221.4936 H   0  0  0  0  0  0  0  0  0  0  0  0
  145.8617   75.0220  221.5598 H   0  0  0  0  0  0  0  0  0  0  0  0
  1  2  2  0
  2  3  1  0
  3  4  1  0
  4  5  1  0
  5  6  2  0
  5  7  1  0
  7  8  1  0
  8  9  1  0
  9 10  1  0
 10 11  1  0
 11 12  1  0
 12 13  1  0
 13 14  2  0
 14 15  1  0
 15 16  2  0
 16 17  1  0
 17 18  2  0
  2 19  1  0
 19 20  2  0
 20 21  1  0
 21 22  2  0
 22 23  1  0
 23 24  2  0
 24 25  1  0
 25 26  2  0
 26 27  1  0
 27 28  2  0
 12  7  1  0
 18 13  1  0
 28 19  1  0
 27 22  1  0
  3 29  1  0
  4 30  1  0
  4 31  1  0
  8 32  1  0
  8 33  1  0
  9 34  1  0
  9 35  1  0
 10 36  1  0
 10 37  1  0
 11 38  1  0
 11 39  1  0
 12 40  1  1
 14 41  1  0
 15 42  1  0
 16 43  1  0
 18 44  1  0
 20 45  1  0
 21 46  1  0
 23 47  1  0
 24 48  1  0
 25 49  1  0
 26 50  1  0
M  END
>  <smiles>  (16) 
O=C(NCC(=O)N1CCCCC1c1cccnc1)c1ccc2ccccc2n1

>  <score_type>  (16) 
oracle

>  <origin>  (16) 
autodockgpu

>  <m_score__min__energy>  (16) 
-8.9499999999999993

>  <m_primary>  (16) 
energy

>  <rmsd>  (16) 
7.58832471674255

>  <m_score__min__rmsd>  (16) 
7.58832471674255

>  <meeko>  (16) 
{"free_energy": -7.44, "intermolecular_energy": -8.93, "internal_energy": -2.22, "cluster_size": 24, "cluster_id": 3, "rank_in_cluster": 2}

>  <energy>  (16) 
-7.36

>  <cluster_rmsd>  (16) 
0.15

>  <cluster>  (16) 
2

$$$$

     RDKit          3D

 50 53  0  0  0  0  0  0  0  0999 V2000
  140.4900   76.8100  218.6630 O   0  0  0  0  0  0  0  0  0  0  0  0
  141.6780   76.8720  219.1320 C   0  0  0  0  0  0  0  0  0  0  0  0
  142.1900   78.1410  219.5710 N   0  0  0  0  0  0  0  0  0  0  0  0
  141.4590   79.3490  219.5130 C   0  0  0  0  0  0  0  0  0  0  0  0
  140.5190   79.7020  220.5710 C   0  0  0  0  0  0  0  0  0  0  0  0
  139.2750   79.7210  220.1720 O   0  0  0  0  0  0  0  0  0  0  0  0
  140.7120   80.0160  221.9150 N   0  0  0  0  0  0  0  0  0  0  0  0
  140.8360   81.3560  222.4790 C   0  0  0  0  0  0  0  0  0  0  0  0
  141.6820   81.3030  223.7500 C   0  0  0  0  0  0  0  0  0  0  0  0
  142.8050   80.3280  223.5120 C   0  0  0  0  0  0  0  0  0  0  0  0
  142.1930   78.9320  223.5200 C   0  0  0  0  0  0  0  0  0  0  0  0
  140.8220   78.9650  222.9320 C   0  0  2  0  0  0  0  0  0  0  0  0
  140.2470   77.6720  222.5760 C   0  0  0  0  0  0  0  0  0  0  0  0
  138.8720   77.4600  222.4270 C   0  0  0  0  0  0  0  0  0  0  0  0
  138.3570   76.2380  222.0580 C   0  0  0  0  0  0  0  0  0  0  0  0
  139.1960   75.1680  221.8220 C   0  0  0  0  0  0  0  0  0  0  0  0
  140.5080   75.3740  221.9660 N   0  0  0  0  0  0  0  0  0  0  0  0
  141.0370   76.5580  222.3240 C   0  0  0  0  0  0  0  0  0  0  0  0
  142.5100   75.6530  219.2220 C   0  0  0  0  0  0  0  0  0  0  0  0
  142.0950   74.5350  218.5370 C   0  0  0  0  0  0  0  0  0  0  0  0
  142.8220   73.3700  218.5770 C   0  0  0  0  0  0  0  0  0  0  0  0
  143.9930   73.3570  219.3340 C   0  0  0  0  0  0  0  0  0  0  0  0
  144.7510   72.2110  219.4020 C   0  0  0  0  0  0  0  0  0  0  0  0
  145.9120   72.1980  220.1520 C   0  0  0  0  0  0  0  0  0  0  0  0
  146.2980   73.3380  220.8250 C   0  0  0  0  0  0  0  0  0  0  0  0
  145.5540   74.5090  220.7760 C   0  0  0  0  0  0  0  0  0  0  0  0
  144.4050   74.4980  220.0250 C   0  0  0  0  0  0  0  0  0  0  0  0
  143.6460   75.6280  219.9510 N   0  0  0  0  0  0  0  0  0  0  0  0
  143.1860   78.0860  219.9500 H   0  0  0  0  0  0  0  0  0  0  0  0
  142.1986   80.1619  219.4657 H   0  0  0  0  0  0  0  0  0  0  0  0
  140.8033   79.1973  218.6429 H   0  0  0  0  0  0  0  0  0  0  0  0
  141.3191   82.0183  221.7455 H   0  0  0  0  0  0  0  0  0  0  0  0
  139.8355   81.7427  222.7230 H   0  0  0  0  0  0  0  0  0  0  0  0
  142.0916   82.3001  223.9693 H   0  0  0  0  0  0  0  0  0  0  0  0
  141.0704   80.9846  224.6070 H   0  0  0  0  0  0  0  0  0  0  0  0
  143.2784   80.5273  222.5393 H   0  0  0  0  0  0  0  0  0  0  0  0
  143.5777   80.4221  224.2892 H   0  0  0  0  0  0  0  0  0  0  0  0
  142.8258   78.2548  222.9276 H   0  0  0  0  0  0  0  0  0  0  0  0
  142.1288   78.5751  224.5585 H   0  0  0  0  0  0  0  0  0  0  0  0
  140.1451   79.2534  223.7497 H   0  0  0  0  0  0  0  0  0  0  0  0
  138.1810   78.2960  222.6105 H   0  0  0  0  0  0  0  0  0  0  0  0
  137.2694   76.1135  221.9505 H   0  0  0  0  0  0  0  0  0  0  0  0
  138.8003   74.1849  221.5272 H   0  0  0  0  0  0  0  0  0  0  0  0
  142.1292   76.6465  222.4201 H   0  0  0  0  0  0  0  0  0  0  0  0
  141.1668   74.5742  217.9481 H   0  0  0  0  0  0  0  0  0  0  0  0
  142.4908   72.4755  218.0291 H   0  0  0  0  0  0  0  0  0  0  0  0
  144.4340   71.3073  218.8609 H   0  0  0  0  0  0  0  0  0  0  0  0
  146.5232   71.2854  220.2115 H   0  0  0  0  0  0  0  0  0  0  0  0
  147.2237   73.3189  221.4188 H   0  0  0  0  0  0  0  0  0  0  0  0
  145.8730   75.4113  221.3183 H   0  0  0  0  0  0  0  0  0  0  0  0
  1  2  2  0
  2  3  1  0
  3  4  1  0
  4  5  1  0
  5  6  2  0
  5  7  1  0
  7  8  1  0
  8  9  1  0
  9 10  1  0
 10 11  1  0
 11 12  1  0
 12 13  1  0
 13 14  2  0
 14 15  1  0
 15 16  2  0
 16 17  1  0
 17 18  2  0
  2 19  1  0
 19 20  2  0
 20 21  1  0
 21 22  2  0
 22 23  1  0
 23 24  2  0
 24 25  1  0
 25 26  2  0
 26 27  1  0
 27 28  2  0
 12  7  1  0
 18 13  1  0
 28 19  1  0
 27 22  1  0
  3 29  1  0
  4 30  1  0
  4 31  1  0
  8 32  1  0
  8 33  1  0
  9 34  1  0
  9 35  1  0
 10 36  1  0
 10 37  1  0
 11 38  1  0
 11 39  1  0
 12 40  1  1
 14 41  1  0
 15 42  1  0
 16 43  1  0
 18 44  1  0
 20 45  1  0
 21 46  1  0
 23 47  1  0
 24 48  1  0
 25 49  1  0
 26 50  1  0
M  END
>  <smiles>  (17) 
O=C(NCC(=O)N1CCCCC1c1cccnc1)c1ccc2ccccc2n1

>  <score_type>  (17) 
oracle

>  <origin>  (17) 
autodockgpu

>  <m_score__min__energy>  (17) 
-8.9499999999999993

>  <m_primary>  (17) 
energy

>  <rmsd>  (17) 
7.559953861230858

>  <m_score__min__rmsd>  (17) 
7.559953861230858

>  <meeko>  (17) 
{"free_energy": -7.4, "intermolecular_energy": -8.89, "internal_energy": -2.47, "cluster_size": 24, "cluster_id": 3, "rank_in_cluster": 8}

>  <energy>  (17) 
-7.35

>  <cluster_rmsd>  (17) 
0.51

>  <cluster>  (17) 
2

$$$$

     RDKit          3D

 50 53  0  0  0  0  0  0  0  0999 V2000
  139.0050   75.1450  221.7040 O   0  0  0  0  0  0  0  0  0  0  0  0
  140.1540   75.6710  221.9020 C   0  0  0  0  0  0  0  0  0  0  0  0
  141.3320   74.8840  221.6550 N   0  0  0  0  0  0  0  0  0  0  0  0
  141.3070   73.5450  221.2070 C   0  0  0  0  0  0  0  0  0  0  0  0
  142.0210   73.1520  219.9970 C   0  0  0  0  0  0  0  0  0  0  0  0
  141.2280   72.8190  219.0140 O   0  0  0  0  0  0  0  0  0  0  0  0
  143.3820   73.0730  219.7090 N   0  0  0  0  0  0  0  0  0  0  0  0
  144.1850   71.8570  219.6590 C   0  0  0  0  0  0  0  0  0  0  0  0
  145.6380   72.1850  219.9970 C   0  0  0  0  0  0  0  0  0  0  0  0
  145.6310   73.2040  221.1050 C   0  0  0  0  0  0  0  0  0  0  0  0
  145.1770   74.5250  220.4950 C   0  0  0  0  0  0  0  0  0  0  0  0
  144.1690   74.2780  219.4220 C   0  0  2  0  0  0  0  0  0  0  0  0
  143.4100   75.4430  218.9780 C   0  0  0  0  0  0  0  0  0  0  0  0
  142.8780   75.5640  217.6890 C   0  0  0  0  0  0  0  0  0  0  0  0
  142.1380   76.6600  217.3040 C   0  0  0  0  0  0  0  0  0  0  0  0
  141.8960   77.6870  218.1930 C   0  0  0  0  0  0  0  0  0  0  0  0
  142.4060   77.5680  219.4220 N   0  0  0  0  0  0  0  0  0  0  0  0
  143.1320   76.5090  219.8240 C   0  0  0  0  0  0  0  0  0  0  0  0
  140.2670   77.0660  222.3770 C   0  0  0  0  0  0  0  0  0  0  0  0
  139.1070   77.7400  222.6810 C   0  0  0  0  0  0  0  0  0  0  0  0
  139.1400   79.0390  223.1280 C   0  0  0  0  0  0  0  0  0  0  0  0
  140.3860   79.6520  223.2640 C   0  0  0  0  0  0  0  0  0  0  0  0
  140.4640   80.9510  223.7080 C   0  0  0  0  0  0  0  0  0  0  0  0
  141.6990   81.5580  223.8430 C   0  0  0  0  0  0  0  0  0  0  0  0
  142.8410   80.8510  223.5290 C   0  0  0  0  0  0  0  0  0  0  0  0
  142.7930   79.5390  223.0780 C   0  0  0  0  0  0  0  0  0  0  0  0
  141.5560   78.9570  222.9530 C   0  0  0  0  0  0  0  0  0  0  0  0
  141.4660   77.6700  222.5130 N   0  0  0  0  0  0  0  0  0  0  0  0
  142.2390   75.4140  221.8450 H   0  0  0  0  0  0  0  0  0  0  0  0
  141.7136   72.9322  222.0250 H   0  0  0  0  0  0  0  0  0  0  0  0
  140.2529   73.3987  220.9287 H   0  0  0  0  0  0  0  0  0  0  0  0
  143.7950   71.1311  220.3877 H   0  0  0  0  0  0  0  0  0  0  0  0
  144.1343   71.4285  218.6472 H   0  0  0  0  0  0  0  0  0  0  0  0
  146.1603   71.2752  220.3279 H   0  0  0  0  0  0  0  0  0  0  0  0
  146.1595   72.5805  219.1129 H   0  0  0  0  0  0  0  0  0  0  0  0
  144.9338   72.8949  221.8977 H   0  0  0  0  0  0  0  0  0  0  0  0
  146.6307   73.3024  221.5532 H   0  0  0  0  0  0  0  0  0  0  0  0
  144.7269   75.1516  221.2791 H   0  0  0  0  0  0  0  0  0  0  0  0
  146.0475   75.0368  220.0587 H   0  0  0  0  0  0  0  0  0  0  0  0
  144.7405   74.0642  218.5068 H   0  0  0  0  0  0  0  0  0  0  0  0
  143.0564   74.7589  216.9610 H   0  0  0  0  0  0  0  0  0  0  0  0
  141.7373   76.7169  216.2811 H   0  0  0  0  0  0  0  0  0  0  0  0
  141.3065   78.5688  217.9014 H   0  0  0  0  0  0  0  0  0  0  0  0
  143.5172   76.4867  220.8541 H   0  0  0  0  0  0  0  0  0  0  0  0
  138.1385   77.2315  222.5645 H   0  0  0  0  0  0  0  0  0  0  0  0
  138.2129   79.5788  223.3711 H   0  0  0  0  0  0  0  0  0  0  0  0
  139.5467   81.5056  223.9550 H   0  0  0  0  0  0  0  0  0  0  0  0
  141.7702   82.5967  224.1981 H   0  0  0  0  0  0  0  0  0  0  0  0
  143.8193   81.3416  223.6393 H   0  0  0  0  0  0  0  0  0  0  0  0
  143.7114   78.9866  222.8302 H   0  0  0  0  0  0  0  0  0  0  0  0
  1  2  2  0
  2  3  1  0
  3  4  1  0
  4  5  1  0
  5  6  2  0
  5  7  1  0
  7  8  1  0
  8  9  1  0
  9 10  1  0
 10 11  1  0
 11 12  1  0
 12 13  1  0
 13 14  2  0
 14 15  1  0
 15 16  2  0
 16 17  1  0
 17 18  2  0
  2 19  1  0
 19 20  2  0
 20 21  1  0
 21 22  2  0
 22 23  1  0
 23 24  2  0
 24 25  1  0
 25 26  2  0
 26 27  1  0
 27 28  2  0
 12  7  1  0
 18 13  1  0
 28 19  1  0
 27 22  1  0
  3 29  1  0
  4 30  1  0
  4 31  1  0
  8 32  1  0
  8 33  1  0
  9 34  1  0
  9 35  1  0
 10 36  1  0
 10 37  1  0
 11 38  1  0
 11 39  1  0
 12 40  1  6
 14 41  1  0
 15 42  1  0
 16 43  1  0
 18 44  1  0
 20 45  1  0
 21 46  1  0
 23 47  1  0
 24 48  1  0
 25 49  1  0
 26 50  1  0
M  END
>  <smiles>  (18) 
O=C(NCC(=O)N1CCCCC1c1cccnc1)c1ccc2ccccc2n1

>  <score_type>  (18) 
oracle

>  <origin>  (18) 
autodockgpu

>  <m_score__min__energy>  (18) 
-8.9499999999999993

>  <m_primary>  (18) 
energy

>  <rmsd>  (18) 
7.734558345408882

>  <m_score__min__rmsd>  (18) 
7.734558345408882

>  <meeko>  (18) 
{"free_energy": -7.31, "intermolecular_energy": -8.8, "internal_energy": -2.3, "cluster_size": 18, "cluster_id": 2, "rank_in_cluster": 15}

>  <energy>  (18) 
-7.33

>  <cluster_rmsd>  (18) 
0.53

>  <cluster>  (18) 
2

$$$$

     RDKit          3D

 50 53  0  0  0  0  0  0  0  0999 V2000
  140.5880   76.8240  218.5520 O   0  0  0  0  0  0  0  0  0  0  0  0
  141.7400   76.8690  219.1060 C   0  0  0  0  0  0  0  0  0  0  0  0
  142.2150   78.1220  219.6280 N   0  0  0  0  0  0  0  0  0  0  0  0
  141.4860   79.3290  219.5630 C   0  0  0  0  0  0  0  0  0  0  0  0
  140.5480   79.6910  220.6210 C   0  0  0  0  0  0  0  0  0  0  0  0
  139.3030   79.7030  220.2260 O   0  0  0  0  0  0  0  0  0  0  0  0
  140.7450   80.0170  221.9610 N   0  0  0  0  0  0  0  0  0  0  0  0
  140.8820   81.3610  222.5120 C   0  0  0  0  0  0  0  0  0  0  0  0
  141.7280   81.3140  223.7820 C   0  0  0  0  0  0  0  0  0  0  0  0
  142.8420   80.3260  223.5540 C   0  0  0  0  0  0  0  0  0  0  0  0
  142.2170   78.9360  223.5770 C   0  0  0  0  0  0  0  0  0  0  0  0
  140.8450   78.9760  222.9900 C   0  0  2  0  0  0  0  0  0  0  0  0
  140.2590   77.6850  222.6480 C   0  0  0  0  0  0  0  0  0  0  0  0
  138.8780   77.4710  222.5560 C   0  0  0  0  0  0  0  0  0  0  0  0
  138.3510   76.2500  222.1990 C   0  0  0  0  0  0  0  0  0  0  0  0
  139.1810   75.1850  221.9180 C   0  0  0  0  0  0  0  0  0  0  0  0
  140.4970   75.3920  222.0080 N   0  0  0  0  0  0  0  0  0  0  0  0
  141.0400   76.5740  222.3530 C   0  0  0  0  0  0  0  0  0  0  0  0
  142.5680   75.6490  219.2080 C   0  0  0  0  0  0  0  0  0  0  0  0
  142.1650   74.5340  218.5100 C   0  0  0  0  0  0  0  0  0  0  0  0
  142.8900   73.3670  218.5610 C   0  0  0  0  0  0  0  0  0  0  0  0
  144.0450   73.3490  219.3420 C   0  0  0  0  0  0  0  0  0  0  0  0
  144.8000   72.2020  219.4210 C   0  0  0  0  0  0  0  0  0  0  0  0
  145.9440   72.1840  220.1950 C   0  0  0  0  0  0  0  0  0  0  0  0
  146.3180   73.3210  220.8810 C   0  0  0  0  0  0  0  0  0  0  0  0
  145.5770   74.4930  220.8210 C   0  0  0  0  0  0  0  0  0  0  0  0
  144.4440   74.4870  220.0460 C   0  0  0  0  0  0  0  0  0  0  0  0
  143.6880   75.6180  219.9610 N   0  0  0  0  0  0  0  0  0  0  0  0
  143.1820   78.0530  220.0740 H   0  0  0  0  0  0  0  0  0  0  0  0
  142.2264   80.1407  219.5083 H   0  0  0  0  0  0  0  0  0  0  0  0
  140.8282   79.1717  218.6955 H   0  0  0  0  0  0  0  0  0  0  0  0
  141.3703   82.0115  221.7715 H   0  0  0  0  0  0  0  0  0  0  0  0
  139.8852   81.7585  222.7534 H   0  0  0  0  0  0  0  0  0  0  0  0
  142.1470   82.3096  223.9901 H   0  0  0  0  0  0  0  0  0  0  0  0
  141.1141   81.0105  224.6428 H   0  0  0  0  0  0  0  0  0  0  0  0
  143.3169   80.5105  222.5791 H   0  0  0  0  0  0  0  0  0  0  0  0
  143.6158   80.4212  224.3300 H   0  0  0  0  0  0  0  0  0  0  0  0
  142.8427   78.2469  222.9908 H   0  0  0  0  0  0  0  0  0  0  0  0
  142.1508   78.5902  224.6191 H   0  0  0  0  0  0  0  0  0  0  0  0
  140.1710   79.2798  223.8045 H   0  0  0  0  0  0  0  0  0  0  0  0
  138.1935   78.3036  222.7756 H   0  0  0  0  0  0  0  0  0  0  0  0
  137.2601   76.1231  222.1375 H   0  0  0  0  0  0  0  0  0  0  0  0
  138.7749   74.2038  221.6311 H   0  0  0  0  0  0  0  0  0  0  0  0
  142.1352   76.6635  222.4030 H   0  0  0  0  0  0  0  0  0  0  0  0
  141.2492   74.5769  217.9021 H   0  0  0  0  0  0  0  0  0  0  0  0
  142.5689   72.4751  218.0030 H   0  0  0  0  0  0  0  0  0  0  0  0
  144.4935   71.3012  218.8691 H   0  0  0  0  0  0  0  0  0  0  0  0
  146.5522   71.2700  220.2639 H   0  0  0  0  0  0  0  0  0  0  0  0
  147.2310   73.2980  221.4940 H   0  0  0  0  0  0  0  0  0  0  0  0
  145.8859   75.3926  221.3735 H   0  0  0  0  0  0  0  0  0  0  0  0
  1  2  2  0
  2  3  1  0
  3  4  1  0
  4  5  1  0
  5  6  2  0
  5  7  1  0
  7  8  1  0
  8  9  1  0
  9 10  1  0
 10 11  1  0
 11 12  1  0
 12 13  1  0
 13 14  2  0
 14 15  1  0
 15 16  2  0
 16 17  1  0
 17 18  2  0
  2 19  1  0
 19 20  2  0
 20 21  1  0
 21 22  2  0
 22 23  1  0
 23 24  2  0
 24 25  1  0
 25 26  2  0
 26 27  1  0
 27 28  2  0
 12  7  1  0
 18 13  1  0
 28 19  1  0
 27 22  1  0
  3 29  1  0
  4 30  1  0
  4 31  1  0
  8 32  1  0
  8 33  1  0
  9 34  1  0
  9 35  1  0
 10 36  1  0
 10 37  1  0
 11 38  1  0
 11 39  1  0
 12 40  1  1
 14 41  1  0
 15 42  1  0
 16 43  1  0
 18 44  1  0
 20 45  1  0
 21 46  1  0
 23 47  1  0
 24 48  1  0
 25 49  1  0
 26 50  1  0
M  END
>  <smiles>  (19) 
O=C(NCC(=O)N1CCCCC1c1cccnc1)c1ccc2ccccc2n1

>  <score_type>  (19) 
oracle

>  <origin>  (19) 
autodockgpu

>  <m_score__min__energy>  (19) 
-8.9499999999999993

>  <m_primary>  (19) 
energy

>  <rmsd>  (19) 
7.5726079998503275

>  <m_score__min__rmsd>  (19) 
7.5726079998503275

>  <meeko>  (19) 
{"free_energy": -7.41, "intermolecular_energy": -8.9, "internal_energy": -2.43, "cluster_size": 24, "cluster_id": 3, "rank_in_cluster": 4}

>  <energy>  (19) 
-7.33

>  <cluster_rmsd>  (19) 
0.52

>  <cluster>  (19) 
2

$$$$

     RDKit          3D

 50 53  0  0  0  0  0  0  0  0999 V2000
  140.5540   76.9140  218.6730 O   0  0  0  0  0  0  0  0  0  0  0  0
  141.7550   76.9690  219.1090 C   0  0  0  0  0  0  0  0  0  0  0  0
  142.2920   78.2400  219.5140 N   0  0  0  0  0  0  0  0  0  0  0  0
  141.5740   79.4540  219.4560 C   0  0  0  0  0  0  0  0  0  0  0  0
  140.6270   79.8100  220.5070 C   0  0  0  0  0  0  0  0  0  0  0  0
  139.3840   79.8070  220.1060 O   0  0  0  0  0  0  0  0  0  0  0  0
  140.8130   80.1440  221.8470 N   0  0  0  0  0  0  0  0  0  0  0  0
  140.9800   81.4890  222.3870 C   0  0  0  0  0  0  0  0  0  0  0  0
  141.8060   81.4300  223.6700 C   0  0  0  0  0  0  0  0  0  0  0  0
  142.8930   80.4090  223.4690 C   0  0  0  0  0  0  0  0  0  0  0  0
  142.2290   79.0370  223.4960 C   0  0  0  0  0  0  0  0  0  0  0  0
  140.8670   79.1110  222.8880 C   0  0  2  0  0  0  0  0  0  0  0  0
  140.2490   77.8340  222.5490 C   0  0  0  0  0  0  0  0  0  0  0  0
  140.9850   76.6820  222.2480 C   0  0  0  0  0  0  0  0  0  0  0  0
  140.3780   75.4800  221.9630 C   0  0  0  0  0  0  0  0  0  0  0  0
  139.0020   75.3740  221.9650 C   0  0  0  0  0  0  0  0  0  0  0  0
  138.3030   76.4750  222.2520 N   0  0  0  0  0  0  0  0  0  0  0  0
  138.8710   77.6620  222.5350 C   0  0  0  0  0  0  0  0  0  0  0  0
  142.5770   75.7430  219.1950 C   0  0  0  0  0  0  0  0  0  0  0  0
  142.1830   74.6490  218.4600 C   0  0  0  0  0  0  0  0  0  0  0  0
  142.9020   73.4780  218.4940 C   0  0  0  0  0  0  0  0  0  0  0  0
  144.0410   73.4340  219.2970 C   0  0  0  0  0  0  0  0  0  0  0  0
  144.7890   72.2820  219.3610 C   0  0  0  0  0  0  0  0  0  0  0  0
  145.9180   72.2380  220.1570 C   0  0  0  0  0  0  0  0  0  0  0  0
  146.2830   73.3550  220.8800 C   0  0  0  0  0  0  0  0  0  0  0  0
  145.5470   74.5320  220.8360 C   0  0  0  0  0  0  0  0  0  0  0  0
  144.4310   74.5510  220.0390 C   0  0  0  0  0  0  0  0  0  0  0  0
  143.6810   75.6880  219.9690 N   0  0  0  0  0  0  0  0  0  0  0  0
  143.2980   78.1790  219.8660 H   0  0  0  0  0  0  0  0  0  0  0  0
  142.3218   80.2599  219.4207 H   0  0  0  0  0  0  0  0  0  0  0  0
  140.9254   79.3136  218.5787 H   0  0  0  0  0  0  0  0  0  0  0  0
  141.4974   82.1181  221.6477 H   0  0  0  0  0  0  0  0  0  0  0  0
  139.9916   81.9173  222.6096 H   0  0  0  0  0  0  0  0  0  0  0  0
  142.2507   82.4151  223.8747 H   0  0  0  0  0  0  0  0  0  0  0  0
  141.1708   81.1528  224.5242 H   0  0  0  0  0  0  0  0  0  0  0  0
  143.3875   80.5700  222.4997 H   0  0  0  0  0  0  0  0  0  0  0  0
  143.6570   80.4900  224.2562 H   0  0  0  0  0  0  0  0  0  0  0  0
  142.8433   78.3248  222.9256 H   0  0  0  0  0  0  0  0  0  0  0  0
  142.1383   78.7027  224.5400 H   0  0  0  0  0  0  0  0  0  0  0  0
  140.1902   79.4424  223.6893 H   0  0  0  0  0  0  0  0  0  0  0  0
  142.0835   76.7392  222.2390 H   0  0  0  0  0  0  0  0  0  0  0  0
  140.9937   74.5981  221.7321 H   0  0  0  0  0  0  0  0  0  0  0  0
  138.5012   74.4210  221.7393 H   0  0  0  0  0  0  0  0  0  0  0  0
  138.2240   78.5221  222.7621 H   0  0  0  0  0  0  0  0  0  0  0  0
  141.2794   74.7122  217.8360 H   0  0  0  0  0  0  0  0  0  0  0  0
  142.5885   72.6028  217.9060 H   0  0  0  0  0  0  0  0  0  0  0  0
  144.4895   71.3973  218.7799 H   0  0  0  0  0  0  0  0  0  0  0  0
  146.5208   71.3196  220.2137 H   0  0  0  0  0  0  0  0  0  0  0  0
  147.1837   73.3121  221.5100 H   0  0  0  0  0  0  0  0  0  0  0  0
  145.8477   75.4154  221.4183 H   0  0  0  0  0  0  0  0  0  0  0  0
  1  2  2  0
  2  3  1  0
  3  4  1  0
  4  5  1  0
  5  6  2  0
  5  7  1  0
  7  8  1  0
  8  9  1  0
  9 10  1  0
 10 11  1  0
 11 12  1  0
 12 13  1  0
 13 14  2  0
 14 15  1  0
 15 16  2  0
 16 17  1  0
 17 18  2  0
  2 19  1  0
 19 20  2  0
 20 21  1  0
 21 22  2  0
 22 23  1  0
 23 24  2  0
 24 25  1  0
 25 26  2  0
 26 27  1  0
 27 28  2  0
 12  7  1  0
 18 13  1  0
 28 19  1  0
 27 22  1  0
  3 29  1  0
  4 30  1  0
  4 31  1  0
  8 32  1  0
  8 33  1  0
  9 34  1  0
  9 35  1  0
 10 36  1  0
 10 37  1  0
 11 38  1  0
 11 39  1  0
 12 40  1  1
 14 41  1  0
 15 42  1  0
 16 43  1  0
 18 44  1  0
 20 45  1  0
 21 46  1  0
 23 47  1  0
 24 48  1  0
 25 49  1  0
 26 50  1  0
M  END
>  <smiles>  (20) 
O=C(NCC(=O)N1CCCCC1c1cccnc1)c1ccc2ccccc2n1

>  <score_type>  (20) 
oracle

>  <origin>  (20) 
autodockgpu

>  <m_score__min__energy>  (20) 
-8.9499999999999993

>  <m_primary>  (20) 
energy

>  <rmsd>  (20) 
7.635587928696204

>  <m_score__min__rmsd>  (20) 
7.635587928696204

>  <meeko>  (20) 
{"free_energy": -7.17, "intermolecular_energy": -8.66, "internal_energy": -2.38, "cluster_size": 24, "cluster_id": 3, "rank_in_cluster": 21}

>  <energy>  (20) 
-7.33

>  <cluster_rmsd>  (20) 
0.52

>  <cluster>  (20) 
2

$$$$

     RDKit          3D

 50 53  0  0  0  0  0  0  0  0999 V2000
  139.0050   75.0540  221.6740 O   0  0  0  0  0  0  0  0  0  0  0  0
  140.1510   75.5770  221.8920 C   0  0  0  0  0  0  0  0  0  0  0  0
  141.3320   74.7880  221.6670 N   0  0  0  0  0  0  0  0  0  0  0  0
  141.3120   73.4490  221.2190 C   0  0  0  0  0  0  0  0  0  0  0  0
  142.0370   73.0550  220.0160 C   0  0  0  0  0  0  0  0  0  0  0  0
  141.2540   72.6930  219.0360 O   0  0  0  0  0  0  0  0  0  0  0  0
  143.4010   73.0020  219.7330 N   0  0  0  0  0  0  0  0  0  0  0  0
  144.2300   71.8020  219.7040 C   0  0  0  0  0  0  0  0  0  0  0  0
  145.6740   72.1670  220.0410 C   0  0  0  0  0  0  0  0  0  0  0  0
  145.6420   73.2030  221.1330 C   0  0  0  0  0  0  0  0  0  0  0  0
  145.1610   74.5040  220.5000 C   0  0  0  0  0  0  0  0  0  0  0  0
  144.1620   74.2180  219.4290 C   0  0  2  0  0  0  0  0  0  0  0  0
  143.3800   75.3590  218.9650 C   0  0  0  0  0  0  0  0  0  0  0  0
  143.1320   76.4900  219.7520 C   0  0  0  0  0  0  0  0  0  0  0  0
  142.4180   77.5680  219.2790 C   0  0  0  0  0  0  0  0  0  0  0  0
  141.9160   77.5640  217.9930 C   0  0  0  0  0  0  0  0  0  0  0  0
  142.1530   76.4830  217.2460 N   0  0  0  0  0  0  0  0  0  0  0  0
  142.8480   75.4170  217.6820 C   0  0  0  0  0  0  0  0  0  0  0  0
  140.2590   76.9720  222.3680 C   0  0  0  0  0  0  0  0  0  0  0  0
  139.0950   77.6450  222.6630 C   0  0  0  0  0  0  0  0  0  0  0  0
  139.1240   78.9450  223.1100 C   0  0  0  0  0  0  0  0  0  0  0  0
  140.3680   79.5590  223.2560 C   0  0  0  0  0  0  0  0  0  0  0  0
  140.4420   80.8580  223.7010 C   0  0  0  0  0  0  0  0  0  0  0  0
  141.6750   81.4660  223.8450 C   0  0  0  0  0  0  0  0  0  0  0  0
  142.8200   80.7600  223.5410 C   0  0  0  0  0  0  0  0  0  0  0  0
  142.7760   79.4480  223.0890 C   0  0  0  0  0  0  0  0  0  0  0  0
  141.5420   78.8650  222.9540 C   0  0  0  0  0  0  0  0  0  0  0  0
  141.4560   77.5780  222.5140 N   0  0  0  0  0  0  0  0  0  0  0  0
  142.2370   75.3160  221.8720 H   0  0  0  0  0  0  0  0  0  0  0  0
  141.7112   72.8367  222.0410 H   0  0  0  0  0  0  0  0  0  0  0  0
  140.2606   73.3028  220.9304 H   0  0  0  0  0  0  0  0  0  0  0  0
  143.8534   71.0792  220.4428 H   0  0  0  0  0  0  0  0  0  0  0  0
  144.1915   71.3563  218.6991 H   0  0  0  0  0  0  0  0  0  0  0  0
  146.2149   71.2741  220.3876 H   0  0  0  0  0  0  0  0  0  0  0  0
  146.1892   72.5602  219.1522 H   0  0  0  0  0  0  0  0  0  0  0  0
  144.9495   72.8916  221.9289 H   0  0  0  0  0  0  0  0  0  0  0  0
  146.6379   73.3301  221.5825 H   0  0  0  0  0  0  0  0  0  0  0  0
  144.6952   75.1334  221.2726 H   0  0  0  0  0  0  0  0  0  0  0  0
  146.0215   75.0272  220.0575 H   0  0  0  0  0  0  0  0  0  0  0  0
  144.7402   74.0014  218.5186 H   0  0  0  0  0  0  0  0  0  0  0  0
  143.5199   76.5183  220.7809 H   0  0  0  0  0  0  0  0  0  0  0  0
  142.2465   78.4380  219.9299 H   0  0  0  0  0  0  0  0  0  0  0  0
  141.3438   78.4171  217.5995 H   0  0  0  0  0  0  0  0  0  0  0  0
  143.0000   74.5653  217.0027 H   0  0  0  0  0  0  0  0  0  0  0  0
  138.1279   77.1356  222.5394 H   0  0  0  0  0  0  0  0  0  0  0  0
  138.1946   79.4843  223.3453 H   0  0  0  0  0  0  0  0  0  0  0  0
  139.5225   81.4118  223.9417 H   0  0  0  0  0  0  0  0  0  0  0  0
  141.7424   82.5052  224.1994 H   0  0  0  0  0  0  0  0  0  0  0  0
  143.7971   81.2509  223.6602 H   0  0  0  0  0  0  0  0  0  0  0  0
  143.6968   78.8965  222.8481 H   0  0  0  0  0  0  0  0  0  0  0  0
  1  2  2  0
  2  3  1  0
  3  4  1  0
  4  5  1  0
  5  6  2  0
  5  7  1  0
  7  8  1  0
  8  9  1  0
  9 10  1  0
 10 11  1  0
 11 12  1  0
 12 13  1  0
 13 14  2  0
 14 15  1  0
 15 16  2  0
 16 17  1  0
 17 18  2  0
  2 19  1  0
 19 20  2  0
 20 21  1  0
 21 22  2  0
 22 23  1  0
 23 24  2  0
 24 25  1  0
 25 26  2  0
 26 27  1  0
 27 28  2  0
 12  7  1  0
 18 13  1  0
 28 19  1  0
 27 22  1  0
  3 29  1  0
  4 30  1  0
  4 31  1  0
  8 32  1  0
  8 33  1  0
  9 34  1  0
  9 35  1  0
 10 36  1  0
 10 37  1  0
 11 38  1  0
 11 39  1  0
 12 40  1  6
 14 41  1  0
 15 42  1  0
 16 43  1  0
 18 44  1  0
 20 45  1  0
 21 46  1  0
 23 47  1  0
 24 48  1  0
 25 49  1  0
 26 50  1  0
M  END
>  <smiles>  (21) 
O=C(NCC(=O)N1CCCCC1c1cccnc1)c1ccc2ccccc2n1

>  <score_type>  (21) 
oracle

>  <origin>  (21) 
autodockgpu

>  <m_score__min__energy>  (21) 
-8.9499999999999993

>  <m_primary>  (21) 
energy

>  <rmsd>  (21) 
7.694020104762489

>  <m_score__min__rmsd>  (21) 
7.694020104762489

>  <meeko>  (21) 
{"free_energy": -7.41, "intermolecular_energy": -8.9, "internal_energy": -2.29, "cluster_size": 18, "cluster_id": 2, "rank_in_cluster": 5}

>  <energy>  (21) 
-7.31

>  <cluster_rmsd>  (21) 
0.31

>  <cluster>  (21) 
2

$$$$

     RDKit          3D

 50 53  0  0  0  0  0  0  0  0999 V2000
  140.5670   76.9600  218.5610 O   0  0  0  0  0  0  0  0  0  0  0  0
  141.7160   76.9950  219.1220 C   0  0  0  0  0  0  0  0  0  0  0  0
  142.2140   78.2520  219.6130 N   0  0  0  0  0  0  0  0  0  0  0  0
  141.5120   79.4720  219.5100 C   0  0  0  0  0  0  0  0  0  0  0  0
  140.6060   79.9020  220.5710 C   0  0  0  0  0  0  0  0  0  0  0  0
  139.3700   80.0340  220.1710 O   0  0  0  0  0  0  0  0  0  0  0  0
  140.8260   80.1880  221.9170 N   0  0  0  0  0  0  0  0  0  0  0  0
  141.0000   81.5130  222.5000 C   0  0  0  0  0  0  0  0  0  0  0  0
  141.8590   81.4130  223.7590 C   0  0  0  0  0  0  0  0  0  0  0  0
  142.9460   80.4060  223.4920 C   0  0  0  0  0  0  0  0  0  0  0  0
  142.2900   79.0300  223.4860 C   0  0  0  0  0  0  0  0  0  0  0  0
  140.9130   79.1180  222.9160 C   0  0  2  0  0  0  0  0  0  0  0  0
  140.2920   77.8500  222.5470 C   0  0  0  0  0  0  0  0  0  0  0  0
  141.0240   76.6850  222.2910 C   0  0  0  0  0  0  0  0  0  0  0  0
  140.4130   75.4920  221.9760 C   0  0  0  0  0  0  0  0  0  0  0  0
  139.0370   75.4100  221.9020 C   0  0  0  0  0  0  0  0  0  0  0  0
  138.3420   76.5230  222.1470 N   0  0  0  0  0  0  0  0  0  0  0  0
  138.9140   77.7020  222.4570 C   0  0  0  0  0  0  0  0  0  0  0  0
  142.5180   75.7610  219.2640 C   0  0  0  0  0  0  0  0  0  0  0  0
  142.0670   74.6230  218.6350 C   0  0  0  0  0  0  0  0  0  0  0  0
  142.7650   73.4420  218.7260 C   0  0  0  0  0  0  0  0  0  0  0  0
  143.9420   73.4340  219.4740 C   0  0  0  0  0  0  0  0  0  0  0  0
  144.6710   72.2730  219.5900 C   0  0  0  0  0  0  0  0  0  0  0  0
  145.8370   72.2660  220.3310 C   0  0  0  0  0  0  0  0  0  0  0  0
  146.2590   73.4260  220.9460 C   0  0  0  0  0  0  0  0  0  0  0  0
  145.5440   74.6120  220.8470 C   0  0  0  0  0  0  0  0  0  0  0  0
  144.3890   74.5960  220.1060 C   0  0  0  0  0  0  0  0  0  0  0  0
  143.6590   75.7400  219.9840 N   0  0  0  0  0  0  0  0  0  0  0  0
  143.1770   78.1750  220.0670 H   0  0  0  0  0  0  0  0  0  0  0  0
  142.2695   80.2625  219.4040 H   0  0  0  0  0  0  0  0  0  0  0  0
  140.8319   79.2931  218.6641 H   0  0  0  0  0  0  0  0  0  0  0  0
  141.4952   82.1711  221.7708 H   0  0  0  0  0  0  0  0  0  0  0  0
  140.0155   81.9274  222.7628 H   0  0  0  0  0  0  0  0  0  0  0  0
  142.3037   82.3927  223.9880 H   0  0  0  0  0  0  0  0  0  0  0  0
  141.2478   81.1017  224.6190 H   0  0  0  0  0  0  0  0  0  0  0  0
  143.4138   80.6053  222.5166 H   0  0  0  0  0  0  0  0  0  0  0  0
  143.7301   80.4628  224.2614 H   0  0  0  0  0  0  0  0  0  0  0  0
  142.8931   78.3426  222.8747 H   0  0  0  0  0  0  0  0  0  0  0  0
  142.2278   78.6574  224.5191 H   0  0  0  0  0  0  0  0  0  0  0  0
  140.2555   79.4158  223.7460 H   0  0  0  0  0  0  0  0  0  0  0  0
  142.1221   76.7236  222.3431 H   0  0  0  0  0  0  0  0  0  0  0  0
  141.0251   74.5988  221.7821 H   0  0  0  0  0  0  0  0  0  0  0  0
  138.5332   74.4649  221.6511 H   0  0  0  0  0  0  0  0  0  0  0  0
  138.2705   78.5742  222.6446 H   0  0  0  0  0  0  0  0  0  0  0  0
  141.1353   74.6588  218.0514 H   0  0  0  0  0  0  0  0  0  0  0  0
  142.4061   72.5313  218.2242 H   0  0  0  0  0  0  0  0  0  0  0  0
  144.3266   71.3533  219.0944 H   0  0  0  0  0  0  0  0  0  0  0  0
  146.4248   71.3415  220.4298 H   0  0  0  0  0  0  0  0  0  0  0  0
  147.1896   73.4112  221.5323 H   0  0  0  0  0  0  0  0  0  0  0  0
  145.8904   75.5302  221.3439 H   0  0  0  0  0  0  0  0  0  0  0  0
  1  2  2  0
  2  3  1  0
  3  4  1  0
  4  5  1  0
  5  6  2  0
  5  7  1  0
  7  8  1  0
  8  9  1  0
  9 10  1  0
 10 11  1  0
 11 12  1  0
 12 13  1  0
 13 14  2  0
 14 15  1  0
 15 16  2  0
 16 17  1  0
 17 18  2  0
  2 19  1  0
 19 20  2  0
 20 21  1  0
 21 22  2  0
 22 23  1  0
 23 24  2  0
 24 25  1  0
 25 26  2  0
 26 27  1  0
 27 28  2  0
 12  7  1  0
 18 13  1  0
 28 19  1  0
 27 22  1  0
  3 29  1  0
  4 30  1  0
  4 31  1  0
  8 32  1  0
  8 33  1  0
  9 34  1  0
  9 35  1  0
 10 36  1  0
 10 37  1  0
 11 38  1  0
 11 39  1  0
 12 40  1  1
 14 41  1  0
 15 42  1  0
 16 43  1  0
 18 44  1  0
 20 45  1  0
 21 46  1  0
 23 47  1  0
 24 48  1  0
 25 49  1  0
 26 50  1  0
M  END
>  <smiles>  (22) 
O=C(NCC(=O)N1CCCCC1c1cccnc1)c1ccc2ccccc2n1

>  <score_type>  (22) 
oracle

>  <origin>  (22) 
autodockgpu

>  <m_score__min__energy>  (22) 
-8.9499999999999993

>  <m_primary>  (22) 
energy

>  <rmsd>  (22) 
7.588417953280276

>  <m_score__min__rmsd>  (22) 
7.588417953280276

>  <meeko>  (22) 
{"free_energy": -7.08, "intermolecular_energy": -8.58, "internal_energy": -2.45, "cluster_size": 24, "cluster_id": 3, "rank_in_cluster": 24}

>  <energy>  (22) 
-7.31

>  <cluster_rmsd>  (22) 
0.51

>  <cluster>  (22) 
2

$$$$

     RDKit          3D

 50 53  0  0  0  0  0  0  0  0999 V2000
  140.5650   76.8650  218.6130 O   0  0  0  0  0  0  0  0  0  0  0  0
  141.7280   76.9150  219.1440 C   0  0  0  0  0  0  0  0  0  0  0  0
  142.2160   78.1760  219.6330 N   0  0  0  0  0  0  0  0  0  0  0  0
  141.4900   79.3850  219.5620 C   0  0  0  0  0  0  0  0  0  0  0  0
  140.5500   79.7520  220.6160 C   0  0  0  0  0  0  0  0  0  0  0  0
  139.3090   79.7970  220.2080 O   0  0  0  0  0  0  0  0  0  0  0  0
  140.7400   80.0550  221.9620 N   0  0  0  0  0  0  0  0  0  0  0  0
  140.8590   81.3900  222.5390 C   0  0  0  0  0  0  0  0  0  0  0  0
  141.7030   81.3280  223.8100 C   0  0  0  0  0  0  0  0  0  0  0  0
  142.8290   80.3590  223.5650 C   0  0  0  0  0  0  0  0  0  0  0  0
  142.2220   78.9610  223.5600 C   0  0  0  0  0  0  0  0  0  0  0  0
  140.8510   78.9960  222.9710 C   0  0  2  0  0  0  0  0  0  0  0  0
  140.2810   77.7040  222.6030 C   0  0  0  0  0  0  0  0  0  0  0  0
  138.9080   77.4950  222.4250 C   0  0  0  0  0  0  0  0  0  0  0  0
  138.3990   76.2740  222.0460 C   0  0  0  0  0  0  0  0  0  0  0  0
  139.2400   75.2020  221.8270 C   0  0  0  0  0  0  0  0  0  0  0  0
  140.5490   75.4050  221.9980 N   0  0  0  0  0  0  0  0  0  0  0  0
  141.0740   76.5880  222.3670 C   0  0  0  0  0  0  0  0  0  0  0  0
  142.5550   75.6950  219.2510 C   0  0  0  0  0  0  0  0  0  0  0  0
  142.1350   74.5690  218.5810 C   0  0  0  0  0  0  0  0  0  0  0  0
  142.8570   73.4010  218.6390 C   0  0  0  0  0  0  0  0  0  0  0  0
  144.0280   73.3930  219.3960 C   0  0  0  0  0  0  0  0  0  0  0  0
  144.7810   72.2450  219.4810 C   0  0  0  0  0  0  0  0  0  0  0  0
  145.9410   72.2380  220.2320 C   0  0  0  0  0  0  0  0  0  0  0  0
  146.3320   73.3860  220.8890 C   0  0  0  0  0  0  0  0  0  0  0  0
  145.5920   74.5590  220.8230 C   0  0  0  0  0  0  0  0  0  0  0  0
  144.4440   74.5420  220.0720 C   0  0  0  0  0  0  0  0  0  0  0  0
  143.6900   75.6750  219.9810 N   0  0  0  0  0  0  0  0  0  0  0  0
  143.1920   78.1120  220.0620 H   0  0  0  0  0  0  0  0  0  0  0  0
  142.2325   80.1947  219.5072 H   0  0  0  0  0  0  0  0  0  0  0  0
  140.8346   79.2270  218.6928 H   0  0  0  0  0  0  0  0  0  0  0  0
  141.3409   82.0607  221.8124 H   0  0  0  0  0  0  0  0  0  0  0  0
  139.8569   81.7710  222.7854 H   0  0  0  0  0  0  0  0  0  0  0  0
  142.1092   82.3243  224.0389 H   0  0  0  0  0  0  0  0  0  0  0  0
  141.0911   80.9998  224.6632 H   0  0  0  0  0  0  0  0  0  0  0  0
  143.3029   80.5684  222.5947 H   0  0  0  0  0  0  0  0  0  0  0  0
  143.6002   80.4489  224.3442 H   0  0  0  0  0  0  0  0  0  0  0  0
  142.8574   78.2912  222.9619 H   0  0  0  0  0  0  0  0  0  0  0  0
  142.1586   78.5937  224.5949 H   0  0  0  0  0  0  0  0  0  0  0  0
  140.1720   79.2765  223.7897 H   0  0  0  0  0  0  0  0  0  0  0  0
  138.2150   78.3325  222.5933 H   0  0  0  0  0  0  0  0  0  0  0  0
  137.3135   76.1515  221.9166 H   0  0  0  0  0  0  0  0  0  0  0  0
  138.8481   74.2199  221.5238 H   0  0  0  0  0  0  0  0  0  0  0  0
  142.1642   76.6739  222.4854 H   0  0  0  0  0  0  0  0  0  0  0  0
  141.2078   74.6042  217.9902 H   0  0  0  0  0  0  0  0  0  0  0  0
  142.5214   72.5000  218.1046 H   0  0  0  0  0  0  0  0  0  0  0  0
  144.4607   71.3350  218.9526 H   0  0  0  0  0  0  0  0  0  0  0  0
  146.5481   71.3236  220.3053 H   0  0  0  0  0  0  0  0  0  0  0  0
  147.2577   73.3718  221.4830 H   0  0  0  0  0  0  0  0  0  0  0  0
  145.9140   75.4676  221.3528 H   0  0  0  0  0  0  0  0  0  0  0  0
  1  2  2  0
  2  3  1  0
  3  4  1  0
  4  5  1  0
  5  6  2  0
  5  7  1  0
  7  8  1  0
  8  9  1  0
  9 10  1  0
 10 11  1  0
 11 12  1  0
 12 13  1  0
 13 14  2  0
 14 15  1  0
 15 16  2  0
 16 17  1  0
 17 18  2  0
  2 19  1  0
 19 20  2  0
 20 21  1  0
 21 22  2  0
 22 23  1  0
 23 24  2  0
 24 25  1  0
 25 26  2  0
 26 27  1  0
 27 28  2  0
 12  7  1  0
 18 13  1  0
 28 19  1  0
 27 22  1  0
  3 29  1  0
  4 30  1  0
  4 31  1  0
  8 32  1  0
  8 33  1  0
  9 34  1  0
  9 35  1  0
 10 36  1  0
 10 37  1  0
 11 38  1  0
 11 39  1  0
 12 40  1  1
 14 41  1  0
 15 42  1  0
 16 43  1  0
 18 44  1  0
 20 45  1  0
 21 46  1  0
 23 47  1  0
 24 48  1  0
 25 49  1  0
 26 50  1  0
M  END
>  <smiles>  (23) 
O=C(NCC(=O)N1CCCCC1c1cccnc1)c1ccc2ccccc2n1

>  <score_type>  (23) 
oracle

>  <origin>  (23) 
autodockgpu

>  <m_score__min__energy>  (23) 
-8.9499999999999993

>  <m_primary>  (23) 
energy

>  <rmsd>  (23) 
7.58234058986065

>  <m_score__min__rmsd>  (23) 
7.58234058986065

>  <meeko>  (23) 
{"free_energy": -7.37, "intermolecular_energy": -8.86, "internal_energy": -2.49, "cluster_size": 24, "cluster_id": 3, "rank_in_cluster": 10}

>  <energy>  (23) 
-7.28

>  <cluster_rmsd>  (23) 
0.52

>  <cluster>  (23) 
2

$$$$

     RDKit          3D

 50 53  0  0  0  0  0  0  0  0999 V2000
  140.3630   76.7590  218.8660 O   0  0  0  0  0  0  0  0  0  0  0  0
  141.5780   76.8620  219.2510 C   0  0  0  0  0  0  0  0  0  0  0  0
  142.0950   78.1600  219.5890 N   0  0  0  0  0  0  0  0  0  0  0  0
  141.3420   79.3520  219.5170 C   0  0  0  0  0  0  0  0  0  0  0  0
  140.4570   79.7410  220.6100 C   0  0  0  0  0  0  0  0  0  0  0  0
  139.2020   79.8220  220.2550 O   0  0  0  0  0  0  0  0  0  0  0  0
  140.7120   80.0340  221.9480 N   0  0  0  0  0  0  0  0  0  0  0  0
  140.9020   81.3620  222.5200 C   0  0  0  0  0  0  0  0  0  0  0  0
  141.7940   81.2680  223.7560 C   0  0  0  0  0  0  0  0  0  0  0  0
  142.8730   80.2590  223.4660 C   0  0  0  0  0  0  0  0  0  0  0  0
  142.2160   78.8830  223.4850 C   0  0  0  0  0  0  0  0  0  0  0  0
  140.8240   78.9690  222.9510 C   0  0  2  0  0  0  0  0  0  0  0  0
  140.1940   77.7000  222.6050 C   0  0  0  0  0  0  0  0  0  0  0  0
  138.8110   77.5510  222.4410 C   0  0  0  0  0  0  0  0  0  0  0  0
  138.2430   76.3500  222.0830 C   0  0  0  0  0  0  0  0  0  0  0  0
  139.0340   75.2380  221.8720 C   0  0  0  0  0  0  0  0  0  0  0  0
  140.3510   75.3830  222.0300 N   0  0  0  0  0  0  0  0  0  0  0  0
  140.9330   76.5460  222.3790 C   0  0  0  0  0  0  0  0  0  0  0  0
  142.4360   75.6620  219.3480 C   0  0  0  0  0  0  0  0  0  0  0  0
  142.0190   74.5170  218.7080 C   0  0  0  0  0  0  0  0  0  0  0  0
  142.7690   73.3660  218.7580 C   0  0  0  0  0  0  0  0  0  0  0  0
  143.9640   73.3960  219.4760 C   0  0  0  0  0  0  0  0  0  0  0  0
  144.7460   72.2660  219.5510 C   0  0  0  0  0  0  0  0  0  0  0  0
  145.9300   72.2960  220.2630 C   0  0  0  0  0  0  0  0  0  0  0  0
  146.3160   73.4610  220.8910 C   0  0  0  0  0  0  0  0  0  0  0  0
  145.5480   74.6170  220.8330 C   0  0  0  0  0  0  0  0  0  0  0  0
  144.3770   74.5640  220.1210 C   0  0  0  0  0  0  0  0  0  0  0  0
  143.5940   75.6770  220.0400 N   0  0  0  0  0  0  0  0  0  0  0  0
  143.1150   78.1380  219.9030 H   0  0  0  0  0  0  0  0  0  0  0  0
  142.0637   80.1724  219.3899 H   0  0  0  0  0  0  0  0  0  0  0  0
  140.6409   79.1499  218.6938 H   0  0  0  0  0  0  0  0  0  0  0  0
  141.3778   82.0163  221.7747 H   0  0  0  0  0  0  0  0  0  0  0  0
  139.9249   81.7779  222.8070 H   0  0  0  0  0  0  0  0  0  0  0  0
  142.2452   82.2486  223.9679 H   0  0  0  0  0  0  0  0  0  0  0  0
  141.2056   80.9615  224.6334 H   0  0  0  0  0  0  0  0  0  0  0  0
  143.3150   80.4526  222.4775 H   0  0  0  0  0  0  0  0  0  0  0  0
  143.6773   80.3195  224.2140 H   0  0  0  0  0  0  0  0  0  0  0  0
  142.8023   78.1918  222.8617 H   0  0  0  0  0  0  0  0  0  0  0  0
  142.1809   78.5162  224.5214 H   0  0  0  0  0  0  0  0  0  0  0  0
  140.1882   79.2718  223.7960 H   0  0  0  0  0  0  0  0  0  0  0  0
  138.1584   78.4215  222.6035 H   0  0  0  0  0  0  0  0  0  0  0  0
  137.1520   76.2752  221.9641 H   0  0  0  0  0  0  0  0  0  0  0  0
  138.5957   74.2708  221.5850 H   0  0  0  0  0  0  0  0  0  0  0  0
  142.0269   76.5832  222.4884 H   0  0  0  0  0  0  0  0  0  0  0  0
  141.0720   74.5230  218.1484 H   0  0  0  0  0  0  0  0  0  0  0  0
  142.4368   72.4500  218.2476 H   0  0  0  0  0  0  0  0  0  0  0  0
  144.4295   71.3416  219.0457 H   0  0  0  0  0  0  0  0  0  0  0  0
  146.5600   71.3967  220.3282 H   0  0  0  0  0  0  0  0  0  0  0  0
  147.2604   73.4755  221.4549 H   0  0  0  0  0  0  0  0  0  0  0  0
  145.8670   75.5401  221.3390 H   0  0  0  0  0  0  0  0  0  0  0  0
  1  2  2  0
  2  3  1  0
  3  4  1  0
  4  5  1  0
  5  6  2  0
  5  7  1  0
  7  8  1  0
  8  9  1  0
  9 10  1  0
 10 11  1  0
 11 12  1  0
 12 13  1  0
 13 14  2  0
 14 15  1  0
 15 16  2  0
 16 17  1  0
 17 18  2  0
  2 19  1  0
 19 20  2  0
 20 21  1  0
 21 22  2  0
 22 23  1  0
 23 24  2  0
 24 25  1  0
 25 26  2  0
 26 27  1  0
 27 28  2  0
 12  7  1  0
 18 13  1  0
 28 19  1  0
 27 22  1  0
  3 29  1  0
  4 30  1  0
  4 31  1  0
  8 32  1  0
  8 33  1  0
  9 34  1  0
  9 35  1  0
 10 36  1  0
 10 37  1  0
 11 38  1  0
 11 39  1  0
 12 40  1  1
 14 41  1  0
 15 42  1  0
 16 43  1  0
 18 44  1  0
 20 45  1  0
 21 46  1  0
 23 47  1  0
 24 48  1  0
 25 49  1  0
 26 50  1  0
M  END
>  <smiles>  (24) 
O=C(NCC(=O)N1CCCCC1c1cccnc1)c1ccc2ccccc2n1

>  <score_type>  (24) 
oracle

>  <origin>  (24) 
autodockgpu

>  <m_score__min__energy>  (24) 
-8.9499999999999993

>  <m_primary>  (24) 
energy

>  <rmsd>  (24) 
7.5156695865722565

>  <m_score__min__rmsd>  (24) 
7.5156695865722565

>  <meeko>  (24) 
{"free_energy": -7.35, "intermolecular_energy": -8.85, "internal_energy": -2.47, "cluster_size": 24, "cluster_id": 3, "rank_in_cluster": 11}

>  <energy>  (24) 
-7.27

>  <cluster_rmsd>  (24) 
0.56

>  <cluster>  (24) 
2

$$$$

     RDKit          3D

 50 53  0  0  0  0  0  0  0  0999 V2000
  139.4920   73.5580  222.3700 O   0  0  0  0  0  0  0  0  0  0  0  0
  140.3610   72.6330  222.5250 C   0  0  0  0  0  0  0  0  0  0  0  0
  141.4850   72.5750  221.6300 N   0  0  0  0  0  0  0  0  0  0  0  0
  141.6940   73.4810  220.5680 C   0  0  0  0  0  0  0  0  0  0  0  0
  141.8570   74.9080  220.8270 C   0  0  0  0  0  0  0  0  0  0  0  0
  141.3500   75.2860  221.9700 O   0  0  0  0  0  0  0  0  0  0  0  0
  142.4540   75.9230  220.0820 N   0  0  0  0  0  0  0  0  0  0  0  0
  141.9950   77.3040  219.9800 C   0  0  0  0  0  0  0  0  0  0  0  0
  142.4250   77.8920  218.6380 C   0  0  0  0  0  0  0  0  0  0  0  0
  142.2620   76.8180  217.5950 C   0  0  0  0  0  0  0  0  0  0  0  0
  143.3710   75.7980  217.8260 C   0  0  0  0  0  0  0  0  0  0  0  0
  143.6590   75.6720  219.2850 C   0  0  2  0  0  0  0  0  0  0  0  0
  144.4540   74.5140  219.6800 C   0  0  0  0  0  0  0  0  0  0  0  0
  144.5120   73.3320  218.9320 C   0  0  0  0  0  0  0  0  0  0  0  0
  145.2950   72.2650  219.3100 C   0  0  0  0  0  0  0  0  0  0  0  0
  146.0590   72.3310  220.4580 C   0  0  0  0  0  0  0  0  0  0  0  0
  146.0010   73.4590  221.1690 N   0  0  0  0  0  0  0  0  0  0  0  0
  145.2450   74.5170  220.8220 C   0  0  0  0  0  0  0  0  0  0  0  0
  140.2110   71.6410  223.6100 C   0  0  0  0  0  0  0  0  0  0  0  0
  139.5720   70.4580  223.3200 C   0  0  0  0  0  0  0  0  0  0  0  0
  139.3990   69.4920  224.2830 C   0  0  0  0  0  0  0  0  0  0  0  0
  139.8920   69.7490  225.5610 C   0  0  0  0  0  0  0  0  0  0  0  0
  139.7410   68.8090  226.5550 C   0  0  0  0  0  0  0  0  0  0  0  0
  140.2290   69.0640  227.8220 C   0  0  0  0  0  0  0  0  0  0  0  0
  140.8660   70.2610  228.0770 C   0  0  0  0  0  0  0  0  0  0  0  0
  141.0330   71.2290  227.0950 C   0  0  0  0  0  0  0  0  0  0  0  0
  140.5400   70.9530  225.8450 C   0  0  0  0  0  0  0  0  0  0  0  0
  140.6840   71.8770  224.8520 N   0  0  0  0  0  0  0  0  0  0  0  0
  142.1540   71.7720  221.8460 H   0  0  0  0  0  0  0  0  0  0  0  0
  142.6048   73.1502  220.0474 H   0  0  0  0  0  0  0  0  0  0  0  0
  140.7419   73.4387  220.0188 H   0  0  0  0  0  0  0  0  0  0  0  0
  140.8980   77.3312  220.0563 H   0  0  0  0  0  0  0  0  0  0  0  0
  142.4370   77.8957  220.7951 H   0  0  0  0  0  0  0  0  0  0  0  0
  141.7926   78.7565  218.3877 H   0  0  0  0  0  0  0  0  0  0  0  0
  143.4707   78.2305  218.6827 H   0  0  0  0  0  0  0  0  0  0  0  0
  141.2785   76.3365  217.6995 H   0  0  0  0  0  0  0  0  0  0  0  0
  142.3249   77.2426  216.5822 H   0  0  0  0  0  0  0  0  0  0  0  0
  143.0539   74.8210  217.4324 H   0  0  0  0  0  0  0  0  0  0  0  0
  144.2814   76.1338  217.3079 H   0  0  0  0  0  0  0  0  0  0  0  0
  144.3643   76.4797  219.5302 H   0  0  0  0  0  0  0  0  0  0  0  0
  143.9127   73.2535  218.0129 H   0  0  0  0  0  0  0  0  0  0  0  0
  145.3121   71.3541  218.6936 H   0  0  0  0  0  0  0  0  0  0  0  0
  146.6904   71.4875  220.7741 H   0  0  0  0  0  0  0  0  0  0  0  0
  145.2537   75.4114  221.4622 H   0  0  0  0  0  0  0  0  0  0  0  0
  139.1937   70.2821  222.3022 H   0  0  0  0  0  0  0  0  0  0  0  0
  138.8875   68.5459  224.0520 H   0  0  0  0  0  0  0  0  0  0  0  0
  139.2330   67.8571  226.3411 H   0  0  0  0  0  0  0  0  0  0  0  0
  140.1106   68.3181  228.6218 H   0  0  0  0  0  0  0  0  0  0  0  0
  141.2532   70.4545  229.0883 H   0  0  0  0  0  0  0  0  0  0  0  0
  141.5411   72.1803  227.3113 H   0  0  0  0  0  0  0  0  0  0  0  0
  1  2  2  0
  2  3  1  0
  3  4  1  0
  4  5  1  0
  5  6  2  0
  5  7  1  0
  7  8  1  0
  8  9  1  0
  9 10  1  0
 10 11  1  0
 11 12  1  0
 12 13  1  0
 13 14  2  0
 14 15  1  0
 15 16  2  0
 16 17  1  0
 17 18  2  0
  2 19  1  0
 19 20  2  0
 20 21  1  0
 21 22  2  0
 22 23  1  0
 23 24  2  0
 24 25  1  0
 25 26  2  0
 26 27  1  0
 27 28  2  0
 12  7  1  0
 18 13  1  0
 28 19  1  0
 27 22  1  0
  3 29  1  0
  4 30  1  0
  4 31  1  0
  8 32  1  0
  8 33  1  0
  9 34  1  0
  9 35  1  0
 10 36  1  0
 10 37  1  0
 11 38  1  0
 11 39  1  0
 12 40  1  1
 14 41  1  0
 15 42  1  0
 16 43  1  0
 18 44  1  0
 20 45  1  0
 21 46  1  0
 23 47  1  0
 24 48  1  0
 25 49  1  0
 26 50  1  0
M  END
>  <smiles>  (25) 
O=C(NCC(=O)N1CCCCC1c1cccnc1)c1ccc2ccccc2n1

>  <score_type>  (25) 
oracle

>  <origin>  (25) 
autodockgpu

>  <m_score__min__energy>  (25) 
-8.9499999999999993

>  <m_primary>  (25) 
energy

>  <rmsd>  (25) 
2.7227332104159325

>  <m_score__min__rmsd>  (25) 
2.7227332104159325

>  <meeko>  (25) 
{"free_energy": -8.38, "intermolecular_energy": -9.87, "internal_energy": -1.11, "cluster_size": 7, "cluster_id": 1, "rank_in_cluster": 4}

>  <energy>  (25) 
-7.01

>  <cluster_rmsd>  (25) 
1.05

>  <cluster>  (25) 
2

$$$$

     RDKit          3D

 50 53  0  0  0  0  0  0  0  0999 V2000
  140.4260   76.7820  218.7710 O   0  0  0  0  0  0  0  0  0  0  0  0
  141.6260   76.8810  219.2010 C   0  0  0  0  0  0  0  0  0  0  0  0
  142.1250   78.1740  219.5840 N   0  0  0  0  0  0  0  0  0  0  0  0
  141.3680   79.3640  219.5100 C   0  0  0  0  0  0  0  0  0  0  0  0
  140.4790   79.7500  220.6010 C   0  0  0  0  0  0  0  0  0  0  0  0
  139.2260   79.8340  220.2420 O   0  0  0  0  0  0  0  0  0  0  0  0
  140.7290   80.0370  221.9420 N   0  0  0  0  0  0  0  0  0  0  0  0
  140.9090   81.3630  222.5220 C   0  0  0  0  0  0  0  0  0  0  0  0
  141.7980   81.2670  223.7600 C   0  0  0  0  0  0  0  0  0  0  0  0
  142.8850   80.2670  223.4670 C   0  0  0  0  0  0  0  0  0  0  0  0
  142.2360   78.8870  223.4760 C   0  0  0  0  0  0  0  0  0  0  0  0
  140.8460   78.9670  222.9390 C   0  0  2  0  0  0  0  0  0  0  0  0
  140.2240   77.6960  222.5840 C   0  0  0  0  0  0  0  0  0  0  0  0
  138.8430   77.5390  222.4150 C   0  0  0  0  0  0  0  0  0  0  0  0
  138.2840   76.3360  222.0490 C   0  0  0  0  0  0  0  0  0  0  0  0
  139.0820   75.2310  221.8340 C   0  0  0  0  0  0  0  0  0  0  0  0
  140.3980   75.3840  221.9960 N   0  0  0  0  0  0  0  0  0  0  0  0
  140.9710   76.5480  222.3540 C   0  0  0  0  0  0  0  0  0  0  0  0
  142.4860   75.6830  219.3020 C   0  0  0  0  0  0  0  0  0  0  0  0
  142.0840   74.5430  218.6460 C   0  0  0  0  0  0  0  0  0  0  0  0
  142.8370   73.3940  218.6990 C   0  0  0  0  0  0  0  0  0  0  0  0
  144.0200   73.4210  219.4380 C   0  0  0  0  0  0  0  0  0  0  0  0
  144.8030   72.2930  219.5170 C   0  0  0  0  0  0  0  0  0  0  0  0
  145.9750   72.3200  220.2490 C   0  0  0  0  0  0  0  0  0  0  0  0
  146.3470   73.4820  220.8930 C   0  0  0  0  0  0  0  0  0  0  0  0
  145.5760   74.6350  220.8320 C   0  0  0  0  0  0  0  0  0  0  0  0
  144.4170   74.5850  220.0990 C   0  0  0  0  0  0  0  0  0  0  0  0
  143.6330   75.6960  220.0140 N   0  0  0  0  0  0  0  0  0  0  0  0
  143.1330   78.1500  219.9330 H   0  0  0  0  0  0  0  0  0  0  0  0
  142.0873   80.1868  219.3846 H   0  0  0  0  0  0  0  0  0  0  0  0
  140.6697   79.1597  218.6850 H   0  0  0  0  0  0  0  0  0  0  0  0
  141.3829   82.0245  221.7819 H   0  0  0  0  0  0  0  0  0  0  0  0
  139.9286   81.7715  222.8084 H   0  0  0  0  0  0  0  0  0  0  0  0
  142.2419   82.2492  223.9795 H   0  0  0  0  0  0  0  0  0  0  0  0
  141.2090   80.9507  224.6335 H   0  0  0  0  0  0  0  0  0  0  0  0
  143.3286   80.4693  222.4810 H   0  0  0  0  0  0  0  0  0  0  0  0
  143.6872   80.3283  224.2172 H   0  0  0  0  0  0  0  0  0  0  0  0
  142.8283   78.2030  222.8504 H   0  0  0  0  0  0  0  0  0  0  0  0
  142.2000   78.5143  224.5103 H   0  0  0  0  0  0  0  0  0  0  0  0
  140.2070   79.2607  223.7848 H   0  0  0  0  0  0  0  0  0  0  0  0
  138.1843   78.4044  222.5799 H   0  0  0  0  0  0  0  0  0  0  0  0
  137.1938   76.2547  221.9270 H   0  0  0  0  0  0  0  0  0  0  0  0
  138.6507   74.2625  221.5407 H   0  0  0  0  0  0  0  0  0  0  0  0
  142.0642   76.5914  222.4679 H   0  0  0  0  0  0  0  0  0  0  0  0
  141.1465   74.5507  218.0706 H   0  0  0  0  0  0  0  0  0  0  0  0
  142.5166   72.4815  218.1749 H   0  0  0  0  0  0  0  0  0  0  0  0
  144.4973   71.3720  218.9991 H   0  0  0  0  0  0  0  0  0  0  0  0
  146.6064   71.4219  220.3176 H   0  0  0  0  0  0  0  0  0  0  0  0
  147.2822   73.4954  221.4720 H   0  0  0  0  0  0  0  0  0  0  0  0
  145.8828   75.5545  221.3520 H   0  0  0  0  0  0  0  0  0  0  0  0
  1  2  2  0
  2  3  1  0
  3  4  1  0
  4  5  1  0
  5  6  2  0
  5  7  1  0
  7  8  1  0
  8  9  1  0
  9 10  1  0
 10 11  1  0
 11 12  1  0
 12 13  1  0
 13 14  2  0
 14 15  1  0
 15 16  2  0
 16 17  1  0
 17 18  2  0
  2 19  1  0
 19 20  2  0
 20 21  1  0
 21 22  2  0
 22 23  1  0
 23 24  2  0
 24 25  1  0
 25 26  2  0
 26 27  1  0
 27 28  2  0
 12  7  1  0
 18 13  1  0
 28 19  1  0
 27 22  1  0
  3 29  1  0
  4 30  1  0
  4 31  1  0
  8 32  1  0
  8 33  1  0
  9 34  1  0
  9 35  1  0
 10 36  1  0
 10 37  1  0
 11 38  1  0
 11 39  1  0
 12 40  1  1
 14 41  1  0
 15 42  1  0
 16 43  1  0
 18 44  1  0
 20 45  1  0
 21 46  1  0
 23 47  1  0
 24 48  1  0
 25 49  1  0
 26 50  1  0
M  END
>  <smiles>  (26) 
O=C(NCC(=O)N1CCCCC1c1cccnc1)c1ccc2ccccc2n1

>  <score_type>  (26) 
oracle

>  <origin>  (26) 
autodockgpu

>  <m_score__min__energy>  (26) 
-8.9499999999999993

>  <m_primary>  (26) 
energy

>  <rmsd>  (26) 
7.547074343605532

>  <m_score__min__rmsd>  (26) 
7.547074343605532

>  <meeko>  (26) 
{"free_energy": -7.34, "intermolecular_energy": -8.83, "internal_energy": -2.47, "cluster_size": 24, "cluster_id": 3, "rank_in_cluster": 12}

>  <energy>  (26) 
-7.45

>  <cluster_rmsd>  (26) 
0.0

>  <cluster>  (26) 
3

$$$$

     RDKit          3D

 50 53  0  0  0  0  0  0  0  0999 V2000
  139.0130   75.0700  221.7490 O   0  0  0  0  0  0  0  0  0  0  0  0
  140.1560   75.6230  221.9010 C   0  0  0  0  0  0  0  0  0  0  0  0
  141.3420   74.8620  221.6150 N   0  0  0  0  0  0  0  0  0  0  0  0
  141.3310   73.5200  221.1770 C   0  0  0  0  0  0  0  0  0  0  0  0
  142.0560   73.1230  219.9740 C   0  0  0  0  0  0  0  0  0  0  0  0
  141.2720   72.7810  218.9870 O   0  0  0  0  0  0  0  0  0  0  0  0
  143.4190   73.0500  219.6970 N   0  0  0  0  0  0  0  0  0  0  0  0
  144.2330   71.8400  219.6770 C   0  0  0  0  0  0  0  0  0  0  0  0
  145.6810   72.1870  220.0190 C   0  0  0  0  0  0  0  0  0  0  0  0
  145.6570   73.2280  221.1060 C   0  0  0  0  0  0  0  0  0  0  0  0
  145.1970   74.5330  220.4660 C   0  0  0  0  0  0  0  0  0  0  0  0
  144.1980   74.2560  219.3910 C   0  0  2  0  0  0  0  0  0  0  0  0
  143.4340   75.4050  218.9190 C   0  0  0  0  0  0  0  0  0  0  0  0
  143.1360   76.5110  219.7240 C   0  0  0  0  0  0  0  0  0  0  0  0
  142.4400   77.5970  219.2450 C   0  0  0  0  0  0  0  0  0  0  0  0
  142.0080   77.6280  217.9350 C   0  0  0  0  0  0  0  0  0  0  0  0
  142.2930   76.5720  217.1700 N   0  0  0  0  0  0  0  0  0  0  0  0
  142.9720   75.4970  217.6120 C   0  0  0  0  0  0  0  0  0  0  0  0
  140.2540   77.0240  222.3630 C   0  0  0  0  0  0  0  0  0  0  0  0
  139.0860   77.6940  222.6460 C   0  0  0  0  0  0  0  0  0  0  0  0
  139.1060   78.9980  223.0800 C   0  0  0  0  0  0  0  0  0  0  0  0
  140.3460   79.6200  223.2230 C   0  0  0  0  0  0  0  0  0  0  0  0
  140.4110   80.9240  223.6550 C   0  0  0  0  0  0  0  0  0  0  0  0
  141.6400   81.5410  223.7970 C   0  0  0  0  0  0  0  0  0  0  0  0
  142.7900   80.8380  223.5040 C   0  0  0  0  0  0  0  0  0  0  0  0
  142.7560   79.5210  223.0660 C   0  0  0  0  0  0  0  0  0  0  0  0
  141.5240   78.9300  222.9320 C   0  0  0  0  0  0  0  0  0  0  0  0
  141.4470   77.6370  222.5050 N   0  0  0  0  0  0  0  0  0  0  0  0
  142.2430   75.4130  221.7680 H   0  0  0  0  0  0  0  0  0  0  0  0
  141.7374   72.9168  222.0022 H   0  0  0  0  0  0  0  0  0  0  0  0
  140.2799   73.3633  220.8929 H   0  0  0  0  0  0  0  0  0  0  0  0
  143.8438   71.1253  220.4171 H   0  0  0  0  0  0  0  0  0  0  0  0
  144.1935   71.3913  218.6735 H   0  0  0  0  0  0  0  0  0  0  0  0
  146.2083   71.2885  220.3721 H   0  0  0  0  0  0  0  0  0  0  0  0
  146.2060   72.5689  219.1310 H   0  0  0  0  0  0  0  0  0  0  0  0
  144.9561   72.9291  221.8994 H   0  0  0  0  0  0  0  0  0  0  0  0
  146.6524   73.3437  221.5597 H   0  0  0  0  0  0  0  0  0  0  0  0
  144.7366   75.1719  221.2340 H   0  0  0  0  0  0  0  0  0  0  0  0
  146.0665   75.0428  220.0254 H   0  0  0  0  0  0  0  0  0  0  0  0
  144.7767   74.0282  218.4837 H   0  0  0  0  0  0  0  0  0  0  0  0
  143.4688   76.5118  220.7725 H   0  0  0  0  0  0  0  0  0  0  0  0
  142.2266   78.4461  219.9109 H   0  0  0  0  0  0  0  0  0  0  0  0
  141.4508   78.4888  217.5368 H   0  0  0  0  0  0  0  0  0  0  0  0
  143.1669   74.6665  216.9175 H   0  0  0  0  0  0  0  0  0  0  0  0
  138.1221   77.1785  222.5231 H   0  0  0  0  0  0  0  0  0  0  0  0
  138.1729   79.5343  223.3075 H   0  0  0  0  0  0  0  0  0  0  0  0
  139.4875   81.4747  223.8870 H   0  0  0  0  0  0  0  0  0  0  0  0
  141.7003   82.5841  224.1409 H   0  0  0  0  0  0  0  0  0  0  0  0
  143.7638   81.3360  223.6209 H   0  0  0  0  0  0  0  0  0  0  0  0
  143.6808   78.9720  222.8351 H   0  0  0  0  0  0  0  0  0  0  0  0
  1  2  2  0
  2  3  1  0
  3  4  1  0
  4  5  1  0
  5  6  2  0
  5  7  1  0
  7  8  1  0
  8  9  1  0
  9 10  1  0
 10 11  1  0
 11 12  1  0
 12 13  1  0
 13 14  2  0
 14 15  1  0
 15 16  2  0
 16 17  1  0
 17 18  2  0
  2 19  1  0
 19 20  2  0
 20 21  1  0
 21 22  2  0
 22 23  1  0
 23 24  2  0
 24 25  1  0
 25 26  2  0
 26 27  1  0
 27 28  2  0
 12  7  1  0
 18 13  1  0
 28 19  1  0
 27 22  1  0
  3 29  1  0
  4 30  1  0
  4 31  1  0
  8 32  1  0
  8 33  1  0
  9 34  1  0
  9 35  1  0
 10 36  1  0
 10 37  1  0
 11 38  1  0
 11 39  1  0
 12 40  1  6
 14 41  1  0
 15 42  1  0
 16 43  1  0
 18 44  1  0
 20 45  1  0
 21 46  1  0
 23 47  1  0
 24 48  1  0
 25 49  1  0
 26 50  1  0
M  END
>  <smiles>  (27) 
O=C(NCC(=O)N1CCCCC1c1cccnc1)c1ccc2ccccc2n1

>  <score_type>  (27) 
oracle

>  <origin>  (27) 
autodockgpu

>  <m_score__min__energy>  (27) 
-8.9499999999999993

>  <m_primary>  (27) 
energy

>  <rmsd>  (27) 
7.730952912382172

>  <m_score__min__rmsd>  (27) 
7.730952912382172

>  <meeko>  (27) 
{"free_energy": -7.45, "intermolecular_energy": -8.94, "internal_energy": -2.26, "cluster_size": 18, "cluster_id": 2, "rank_in_cluster": 1}

>  <energy>  (27) 
-7.44

>  <cluster_rmsd>  (27) 
0.26

>  <cluster>  (27) 
3

$$$$

     RDKit          3D

 50 53  0  0  0  0  0  0  0  0999 V2000
  140.4900   76.7210  218.5730 O   0  0  0  0  0  0  0  0  0  0  0  0
  141.6220   76.8020  219.1640 C   0  0  0  0  0  0  0  0  0  0  0  0
  142.0590   78.0790  219.6590 N   0  0  0  0  0  0  0  0  0  0  0  0
  141.3140   79.2720  219.5300 C   0  0  0  0  0  0  0  0  0  0  0  0
  140.4630   79.7400  220.6200 C   0  0  0  0  0  0  0  0  0  0  0  0
  139.2210   79.9270  220.2610 O   0  0  0  0  0  0  0  0  0  0  0  0
  140.7390   80.0150  221.9570 N   0  0  0  0  0  0  0  0  0  0  0  0
  140.9190   81.3370  222.5480 C   0  0  0  0  0  0  0  0  0  0  0  0
  141.8360   81.2360  223.7650 C   0  0  0  0  0  0  0  0  0  0  0  0
  142.9240   80.2490  223.4380 C   0  0  0  0  0  0  0  0  0  0  0  0
  142.2890   78.8630  223.4470 C   0  0  0  0  0  0  0  0  0  0  0  0
  140.8860   78.9360  222.9400 C   0  0  2  0  0  0  0  0  0  0  0  0
  140.2690   77.6630  222.5850 C   0  0  0  0  0  0  0  0  0  0  0  0
  138.8880   77.5010  222.4190 C   0  0  0  0  0  0  0  0  0  0  0  0
  138.3330   76.2970  222.0520 C   0  0  0  0  0  0  0  0  0  0  0  0
  139.1340   75.1940  221.8340 C   0  0  0  0  0  0  0  0  0  0  0  0
  140.4500   75.3520  221.9950 N   0  0  0  0  0  0  0  0  0  0  0  0
  141.0190   76.5180  222.3520 C   0  0  0  0  0  0  0  0  0  0  0  0
  142.4650   75.6000  219.3340 C   0  0  0  0  0  0  0  0  0  0  0  0
  142.0200   74.4170  218.7920 C   0  0  0  0  0  0  0  0  0  0  0  0
  142.7550   73.2620  218.9140 C   0  0  0  0  0  0  0  0  0  0  0  0
  143.9660   73.3280  219.6030 C   0  0  0  0  0  0  0  0  0  0  0  0
  144.7330   72.1960  219.7490 C   0  0  0  0  0  0  0  0  0  0  0  0
  145.9330   72.2610  220.4320 C   0  0  0  0  0  0  0  0  0  0  0  0
  146.3470   73.4650  220.9620 C   0  0  0  0  0  0  0  0  0  0  0  0
  145.5940   74.6240  220.8320 C   0  0  0  0  0  0  0  0  0  0  0  0
  144.4070   74.5350  220.1490 C   0  0  0  0  0  0  0  0  0  0  0  0
  143.6380   75.6510  219.9990 N   0  0  0  0  0  0  0  0  0  0  0  0
  143.0110   78.0410  220.1400 H   0  0  0  0  0  0  0  0  0  0  0  0
  142.0386   80.0750  219.3299 H   0  0  0  0  0  0  0  0  0  0  0  0
  140.5885   79.0244  218.7411 H   0  0  0  0  0  0  0  0  0  0  0  0
  141.3701   82.0113  221.8052 H   0  0  0  0  0  0  0  0  0  0  0  0
  139.9413   81.7327  222.8603 H   0  0  0  0  0  0  0  0  0  0  0  0
  142.2764   82.2197  223.9848 H   0  0  0  0  0  0  0  0  0  0  0  0
  141.2691   80.9057  224.6479 H   0  0  0  0  0  0  0  0  0  0  0  0
  143.3437   80.4654  222.4445 H   0  0  0  0  0  0  0  0  0  0  0  0
  143.7415   80.3100  224.1715 H   0  0  0  0  0  0  0  0  0  0  0  0
  142.8741   78.1909  222.8020 H   0  0  0  0  0  0  0  0  0  0  0  0
  142.2790   78.4791  224.4778 H   0  0  0  0  0  0  0  0  0  0  0  0
  140.2616   79.2154  223.8014 H   0  0  0  0  0  0  0  0  0  0  0  0
  138.2263   78.3635  222.5873 H   0  0  0  0  0  0  0  0  0  0  0  0
  137.2429   76.2125  221.9314 H   0  0  0  0  0  0  0  0  0  0  0  0
  138.7056   74.2246  221.5397 H   0  0  0  0  0  0  0  0  0  0  0  0
  142.1124   76.5655  222.4627 H   0  0  0  0  0  0  0  0  0  0  0  0
  141.0615   74.3948  218.2528 H   0  0  0  0  0  0  0  0  0  0  0  0
  142.3993   72.3151  218.4817 H   0  0  0  0  0  0  0  0  0  0  0  0
  144.3923   71.2407  219.3231 H   0  0  0  0  0  0  0  0  0  0  0  0
  146.5525   71.3600  220.5518 H   0  0  0  0  0  0  0  0  0  0  0  0
  147.3031   73.5083  221.5043 H   0  0  0  0  0  0  0  0  0  0  0  0
  145.9359   75.5778  221.2603 H   0  0  0  0  0  0  0  0  0  0  0  0
  1  2  2  0
  2  3  1  0
  3  4  1  0
  4  5  1  0
  5  6  2  0
  5  7  1  0
  7  8  1  0
  8  9  1  0
  9 10  1  0
 10 11  1  0
 11 12  1  0
 12 13  1  0
 13 14  2  0
 14 15  1  0
 15 16  2  0
 16 17  1  0
 17 18  2  0
  2 19  1  0
 19 20  2  0
 20 21  1  0
 21 22  2  0
 22 23  1  0
 23 24  2  0
 24 25  1  0
 25 26  2  0
 26 27  1  0
 27 28  2  0
 12  7  1  0
 18 13  1  0
 28 19  1  0
 27 22  1  0
  3 29  1  0
  4 30  1  0
  4 31  1  0
  8 32  1  0
  8 33  1  0
  9 34  1  0
  9 35  1  0
 10 36  1  0
 10 37  1  0
 11 38  1  0
 11 39  1  0
 12 40  1  1
 14 41  1  0
 15 42  1  0
 16 43  1  0
 18 44  1  0
 20 45  1  0
 21 46  1  0
 23 47  1  0
 24 48  1  0
 25 49  1  0
 26 50  1  0
M  END
>  <smiles>  (28) 
O=C(NCC(=O)N1CCCCC1c1cccnc1)c1ccc2ccccc2n1

>  <score_type>  (28) 
oracle

>  <origin>  (28) 
autodockgpu

>  <m_score__min__energy>  (28) 
-8.9499999999999993

>  <m_primary>  (28) 
energy

>  <rmsd>  (28) 
7.456499400997158

>  <m_score__min__rmsd>  (28) 
7.456499400997158

>  <meeko>  (28) 
{"free_energy": -7.27, "intermolecular_energy": -8.76, "internal_energy": -2.51, "cluster_size": 24, "cluster_id": 3, "rank_in_cluster": 17}

>  <energy>  (28) 
-7.42

>  <cluster_rmsd>  (28) 
0.07

>  <cluster>  (28) 
3

$$$$

     RDKit          3D

 50 53  0  0  0  0  0  0  0  0999 V2000
  141.2880   71.7580  221.5190 O   0  0  0  0  0  0  0  0  0  0  0  0
  140.5380   72.2460  222.4330 C   0  0  0  0  0  0  0  0  0  0  0  0
  139.9570   73.5470  222.2370 N   0  0  0  0  0  0  0  0  0  0  0  0
  140.1660   74.3390  221.0880 C   0  0  0  0  0  0  0  0  0  0  0  0
  141.0450   75.5040  221.1360 C   0  0  0  0  0  0  0  0  0  0  0  0
  141.3820   75.8470  222.3500 O   0  0  0  0  0  0  0  0  0  0  0  0
  141.5820   76.3010  220.1270 N   0  0  0  0  0  0  0  0  0  0  0  0
  141.2100   77.6780  219.8250 C   0  0  0  0  0  0  0  0  0  0  0  0
  141.4570   77.9650  218.3450 C   0  0  0  0  0  0  0  0  0  0  0  0
  141.0520   76.7410  217.5680 C   0  0  0  0  0  0  0  0  0  0  0  0
  142.1090   75.6750  217.8290 C   0  0  0  0  0  0  0  0  0  0  0  0
  142.6220   75.7890  219.2270 C   0  0  2  0  0  0  0  0  0  0  0  0
  143.3870   74.6500  219.7210 C   0  0  0  0  0  0  0  0  0  0  0  0
  144.5650   74.7830  220.4660 C   0  0  0  0  0  0  0  0  0  0  0  0
  145.2510   73.6920  220.9490 C   0  0  0  0  0  0  0  0  0  0  0  0
  144.7910   72.4130  220.7080 C   0  0  0  0  0  0  0  0  0  0  0  0
  143.6680   72.2900  219.9970 N   0  0  0  0  0  0  0  0  0  0  0  0
  142.9770   73.3390  219.5140 C   0  0  0  0  0  0  0  0  0  0  0  0
  140.2730   71.4820  223.6700 C   0  0  0  0  0  0  0  0  0  0  0  0
  139.5720   70.3030  223.5640 C   0  0  0  0  0  0  0  0  0  0  0  0
  139.2920   69.5440  224.6760 C   0  0  0  0  0  0  0  0  0  0  0  0
  139.7410   70.0070  225.9120 C   0  0  0  0  0  0  0  0  0  0  0  0
  139.4830   69.2780  227.0500 C   0  0  0  0  0  0  0  0  0  0  0  0
  139.9280   69.7360  228.2760 C   0  0  0  0  0  0  0  0  0  0  0  0
  140.6280   70.9220  228.3440 C   0  0  0  0  0  0  0  0  0  0  0  0
  140.9040   71.6800  227.2130 C   0  0  0  0  0  0  0  0  0  0  0  0
  140.4520   71.2050  226.0080 C   0  0  0  0  0  0  0  0  0  0  0  0
  140.7020   71.9190  224.8730 N   0  0  0  0  0  0  0  0  0  0  0  0
  139.3450   73.8620  223.0530 H   0  0  0  0  0  0  0  0  0  0  0  0
  140.5725   73.6702  220.3150 H   0  0  0  0  0  0  0  0  0  0  0  0
  139.1759   74.7856  220.9143 H   0  0  0  0  0  0  0  0  0  0  0  0
  140.1445   77.8275  220.0536 H   0  0  0  0  0  0  0  0  0  0  0  0
  141.8181   78.3620  220.4353 H   0  0  0  0  0  0  0  0  0  0  0  0
  140.8548   78.8281  218.0251 H   0  0  0  0  0  0  0  0  0  0  0  0
  142.5173   78.1995  218.1696 H   0  0  0  0  0  0  0  0  0  0  0  0
  140.0673   76.3872  217.9075 H   0  0  0  0  0  0  0  0  0  0  0  0
  140.9791   76.9655  216.4936 H   0  0  0  0  0  0  0  0  0  0  0  0
  141.6641   74.6793  217.6852 H   0  0  0  0  0  0  0  0  0  0  0  0
  142.9440   75.8180  217.1274 H   0  0  0  0  0  0  0  0  0  0  0  0
  143.4138   76.5522  219.2031 H   0  0  0  0  0  0  0  0  0  0  0  0
  144.9544   75.7910  220.6717 H   0  0  0  0  0  0  0  0  0  0  0  0
  146.1724   73.8403  221.5312 H   0  0  0  0  0  0  0  0  0  0  0  0
  145.3281   71.5309  221.0865 H   0  0  0  0  0  0  0  0  0  0  0  0
  142.0590   73.1525  218.9374 H   0  0  0  0  0  0  0  0  0  0  0  0
  139.2305   69.9625  222.5753 H   0  0  0  0  0  0  0  0  0  0  0  0
  138.7314   68.6012  224.5929 H   0  0  0  0  0  0  0  0  0  0  0  0
  138.9239   68.3329  226.9844 H   0  0  0  0  0  0  0  0  0  0  0  0
  139.7252   69.1588  229.1902 H   0  0  0  0  0  0  0  0  0  0  0  0
  140.9786   71.2788  229.3237 H   0  0  0  0  0  0  0  0  0  0  0  0
  141.4634   72.6247  227.2810 H   0  0  0  0  0  0  0  0  0  0  0  0
  1  2  2  0
  2  3  1  0
  3  4  1  0
  4  5  1  0
  5  6  2  0
  5  7  1  0
  7  8  1  0
  8  9  1  0
  9 10  1  0
 10 11  1  0
 11 12  1  0
 12 13  1  0
 13 14  2  0
 14 15  1  0
 15 16  2  0
 16 17  1  0
 17 18  2  0
  2 19  1  0
 19 20  2  0
 20 21  1  0
 21 22  2  0
 22 23  1  0
 23 24  2  0
 24 25  1  0
 25 26  2  0
 26 27  1  0
 27 28  2  0
 12  7  1  0
 18 13  1  0
 28 19  1  0
 27 22  1  0
  3 29  1  0
  4 30  1  0
  4 31  1  0
  8 32  1  0
  8 33  1  0
  9 34  1  0
  9 35  1  0
 10 36  1  0
 10 37  1  0
 11 38  1  0
 11 39  1  0
 12 40  1  6
 14 41  1  0
 15 42  1  0
 16 43  1  0
 18 44  1  0
 20 45  1  0
 21 46  1  0
 23 47  1  0
 24 48  1  0
 25 49  1  0
 26 50  1  0
M  END
>  <smiles>  (29) 
O=C(NCC(=O)N1CCCCC1c1cccnc1)c1ccc2ccccc2n1

>  <score_type>  (29) 
oracle

>  <origin>  (29) 
autodockgpu

>  <m_score__min__energy>  (29) 
-8.9499999999999993

>  <m_primary>  (29) 
energy

>  <rmsd>  (29) 
2.186218358397416

>  <m_score__min__rmsd>  (29) 
2.186218358397416

>  <meeko>  (29) 
{"free_energy": -7.94, "intermolecular_energy": -9.44, "internal_energy": -1.61, "cluster_size": 7, "cluster_id": 1, "rank_in_cluster": 7}

>  <energy>  (29) 
-7.41

>  <cluster_rmsd>  (29) 
0.11

>  <cluster>  (29) 
3

$$$$

     RDKit          3D

 50 53  0  0  0  0  0  0  0  0999 V2000
  140.7070   76.9160  218.2660 O   0  0  0  0  0  0  0  0  0  0  0  0
  141.7710   76.9230  218.9770 C   0  0  0  0  0  0  0  0  0  0  0  0
  142.1530   78.1360  219.6470 N   0  0  0  0  0  0  0  0  0  0  0  0
  141.4250   79.3430  219.5690 C   0  0  0  0  0  0  0  0  0  0  0  0
  140.4950   79.7220  220.6270 C   0  0  0  0  0  0  0  0  0  0  0  0
  139.2500   79.7560  220.2330 O   0  0  0  0  0  0  0  0  0  0  0  0
  140.6980   80.0460  221.9670 N   0  0  0  0  0  0  0  0  0  0  0  0
  140.8330   81.3880  222.5200 C   0  0  0  0  0  0  0  0  0  0  0  0
  141.6870   81.3400  223.7860 C   0  0  0  0  0  0  0  0  0  0  0  0
  142.8020   80.3560  223.5490 C   0  0  0  0  0  0  0  0  0  0  0  0
  142.1820   78.9640  223.5720 C   0  0  0  0  0  0  0  0  0  0  0  0
  140.8070   79.0020  222.9930 C   0  0  2  0  0  0  0  0  0  0  0  0
  140.2220   77.7100  222.6510 C   0  0  0  0  0  0  0  0  0  0  0  0
  138.8410   77.4840  222.5950 C   0  0  0  0  0  0  0  0  0  0  0  0
  138.3140   76.2640  222.2380 C   0  0  0  0  0  0  0  0  0  0  0  0
  139.1460   75.2100  221.9190 C   0  0  0  0  0  0  0  0  0  0  0  0
  140.4620   75.4280  221.9730 N   0  0  0  0  0  0  0  0  0  0  0  0
  141.0030   76.6110  222.3190 C   0  0  0  0  0  0  0  0  0  0  0  0
  142.5920   75.7010  219.1050 C   0  0  0  0  0  0  0  0  0  0  0  0
  142.2190   74.5930  218.3800 C   0  0  0  0  0  0  0  0  0  0  0  0
  142.9390   73.4240  218.4540 C   0  0  0  0  0  0  0  0  0  0  0  0
  144.0580   73.3980  219.2850 C   0  0  0  0  0  0  0  0  0  0  0  0
  144.8070   72.2480  219.3880 C   0  0  0  0  0  0  0  0  0  0  0  0
  145.9160   72.2220  220.2120 C   0  0  0  0  0  0  0  0  0  0  0  0
  146.2610   73.3520  220.9240 C   0  0  0  0  0  0  0  0  0  0  0  0
  145.5240   74.5260  220.8410 C   0  0  0  0  0  0  0  0  0  0  0  0
  144.4270   74.5280  220.0160 C   0  0  0  0  0  0  0  0  0  0  0  0
  143.6770   75.6620  219.9070 N   0  0  0  0  0  0  0  0  0  0  0  0
  143.0500   78.0370  220.2170 H   0  0  0  0  0  0  0  0  0  0  0  0
  142.1661   80.1527  219.4973 H   0  0  0  0  0  0  0  0  0  0  0  0
  140.7611   79.1735  218.7084 H   0  0  0  0  0  0  0  0  0  0  0  0
  141.3149   82.0422  221.7785 H   0  0  0  0  0  0  0  0  0  0  0  0
  139.8362   81.7818  222.7678 H   0  0  0  0  0  0  0  0  0  0  0  0
  142.1044   82.3362  223.9943 H   0  0  0  0  0  0  0  0  0  0  0  0
  141.0789   81.0326  224.6495 H   0  0  0  0  0  0  0  0  0  0  0  0
  143.2705   80.5445  222.5718 H   0  0  0  0  0  0  0  0  0  0  0  0
  143.5798   80.4515  224.3209 H   0  0  0  0  0  0  0  0  0  0  0  0
  142.8065   78.2784  222.9804 H   0  0  0  0  0  0  0  0  0  0  0  0
  142.1231   78.6147  224.6134 H   0  0  0  0  0  0  0  0  0  0  0  0
  140.1370   79.3021  223.8122 H   0  0  0  0  0  0  0  0  0  0  0  0
  138.1559   78.3078  222.8443 H   0  0  0  0  0  0  0  0  0  0  0  0
  137.2229   76.1280  222.2067 H   0  0  0  0  0  0  0  0  0  0  0  0
  138.7406   74.2287  221.6315 H   0  0  0  0  0  0  0  0  0  0  0  0
  142.0983   76.7102  222.3394 H   0  0  0  0  0  0  0  0  0  0  0  0
  141.3318   74.6430  217.7316 H   0  0  0  0  0  0  0  0  0  0  0  0
  142.6414   72.5370  217.8755 H   0  0  0  0  0  0  0  0  0  0  0  0
  144.5237   71.3521  218.8160 H   0  0  0  0  0  0  0  0  0  0  0  0
  146.5195   71.3065  220.2996 H   0  0  0  0  0  0  0  0  0  0  0  0
  147.1459   73.3222  221.5767 H   0  0  0  0  0  0  0  0  0  0  0  0
  145.8085   75.4204  221.4146 H   0  0  0  0  0  0  0  0  0  0  0  0
  1  2  2  0
  2  3  1  0
  3  4  1  0
  4  5  1  0
  5  6  2  0
  5  7  1  0
  7  8  1  0
  8  9  1  0
  9 10  1  0
 10 11  1  0
 11 12  1  0
 12 13  1  0
 13 14  2  0
 14 15  1  0
 15 16  2  0
 16 17  1  0
 17 18  2  0
  2 19  1  0
 19 20  2  0
 20 21  1  0
 21 22  2  0
 22 23  1  0
 23 24  2  0
 24 25  1  0
 25 26  2  0
 26 27  1  0
 27 28  2  0
 12  7  1  0
 18 13  1  0
 28 19  1  0
 27 22  1  0
  3 29  1  0
  4 30  1  0
  4 31  1  0
  8 32  1  0
  8 33  1  0
  9 34  1  0
  9 35  1  0
 10 36  1  0
 10 37  1  0
 11 38  1  0
 11 39  1  0
 12 40  1  1
 14 41  1  0
 15 42  1  0
 16 43  1  0
 18 44  1  0
 20 45  1  0
 21 46  1  0
 23 47  1  0
 24 48  1  0
 25 49  1  0
 26 50  1  0
M  END
>  <smiles>  (30) 
O=C(NCC(=O)N1CCCCC1c1cccnc1)c1ccc2ccccc2n1

>  <score_type>  (30) 
oracle

>  <origin>  (30) 
autodockgpu

>  <m_score__min__energy>  (30) 
-8.9499999999999993

>  <m_primary>  (30) 
energy

>  <rmsd>  (30) 
7.599191478325141

>  <m_score__min__rmsd>  (30) 
7.599191478325141

>  <meeko>  (30) 
{"free_energy": -7.41, "intermolecular_energy": -8.9, "internal_energy": -2.38, "cluster_size": 24, "cluster_id": 3, "rank_in_cluster": 6}

>  <energy>  (30) 
-7.41

>  <cluster_rmsd>  (30) 
0.18

>  <cluster>  (30) 
3

$$$$

     RDKit          3D

 50 53  0  0  0  0  0  0  0  0999 V2000
  140.5510   76.8290  218.6430 O   0  0  0  0  0  0  0  0  0  0  0  0
  141.7240   76.8860  219.1510 C   0  0  0  0  0  0  0  0  0  0  0  0
  142.2200   78.1520  219.6180 N   0  0  0  0  0  0  0  0  0  0  0  0
  141.4920   79.3600  219.5470 C   0  0  0  0  0  0  0  0  0  0  0  0
  140.5490   79.7230  220.5990 C   0  0  0  0  0  0  0  0  0  0  0  0
  139.3080   79.7610  220.1900 O   0  0  0  0  0  0  0  0  0  0  0  0
  140.7360   80.0290  221.9460 N   0  0  0  0  0  0  0  0  0  0  0  0
  140.8590   81.3640  222.5190 C   0  0  0  0  0  0  0  0  0  0  0  0
  141.6990   81.3020  223.7930 C   0  0  0  0  0  0  0  0  0  0  0  0
  142.8210   80.3260  223.5550 C   0  0  0  0  0  0  0  0  0  0  0  0
  142.2060   78.9310  223.5520 C   0  0  0  0  0  0  0  0  0  0  0  0
  140.8370   78.9720  222.9580 C   0  0  2  0  0  0  0  0  0  0  0  0
  140.2620   77.6820  222.5910 C   0  0  0  0  0  0  0  0  0  0  0  0
  138.8880   77.4780  222.4160 C   0  0  0  0  0  0  0  0  0  0  0  0
  138.3730   76.2590  222.0380 C   0  0  0  0  0  0  0  0  0  0  0  0
  139.2100   75.1840  221.8180 C   0  0  0  0  0  0  0  0  0  0  0  0
  140.5190   75.3820  221.9870 N   0  0  0  0  0  0  0  0  0  0  0  0
  141.0500   76.5630  222.3550 C   0  0  0  0  0  0  0  0  0  0  0  0
  142.5530   75.6670  219.2560 C   0  0  0  0  0  0  0  0  0  0  0  0
  142.1390   74.5440  218.5790 C   0  0  0  0  0  0  0  0  0  0  0  0
  142.8640   73.3770  218.6340 C   0  0  0  0  0  0  0  0  0  0  0  0
  144.0310   73.3690  219.3960 C   0  0  0  0  0  0  0  0  0  0  0  0
  144.7870   72.2220  219.4790 C   0  0  0  0  0  0  0  0  0  0  0  0
  145.9440   72.2140  220.2350 C   0  0  0  0  0  0  0  0  0  0  0  0
  146.3290   73.3590  220.9000 C   0  0  0  0  0  0  0  0  0  0  0  0
  145.5860   74.5310  220.8360 C   0  0  0  0  0  0  0  0  0  0  0  0
  144.4420   74.5150  220.0790 C   0  0  0  0  0  0  0  0  0  0  0  0
  143.6850   75.6460  219.9910 N   0  0  0  0  0  0  0  0  0  0  0  0
  143.2040   78.0930  220.0280 H   0  0  0  0  0  0  0  0  0  0  0  0
  142.2332   80.1712  219.4956 H   0  0  0  0  0  0  0  0  0  0  0  0
  140.8393   79.2026  218.6756 H   0  0  0  0  0  0  0  0  0  0  0  0
  141.3460   82.0305  221.7920 H   0  0  0  0  0  0  0  0  0  0  0  0
  139.8579   81.7501  222.7612 H   0  0  0  0  0  0  0  0  0  0  0  0
  142.1098   82.2969  224.0196 H   0  0  0  0  0  0  0  0  0  0  0  0
  141.0827   80.9800  224.6454 H   0  0  0  0  0  0  0  0  0  0  0  0
  143.2996   80.5298  222.5858 H   0  0  0  0  0  0  0  0  0  0  0  0
  143.5900   80.4140  224.3366 H   0  0  0  0  0  0  0  0  0  0  0  0
  142.8396   78.2559  222.9581 H   0  0  0  0  0  0  0  0  0  0  0  0
  142.1369   78.5671  224.5878 H   0  0  0  0  0  0  0  0  0  0  0  0
  140.1560   79.2582  223.7731 H   0  0  0  0  0  0  0  0  0  0  0  0
  138.1986   78.3182  222.5859 H   0  0  0  0  0  0  0  0  0  0  0  0
  137.2869   76.1407  221.9103 H   0  0  0  0  0  0  0  0  0  0  0  0
  138.8142   74.2033  221.5155 H   0  0  0  0  0  0  0  0  0  0  0  0
  142.1407   76.6442  222.4723 H   0  0  0  0  0  0  0  0  0  0  0  0
  141.2141   74.5798  217.9846 H   0  0  0  0  0  0  0  0  0  0  0  0
  142.5333   72.4778  218.0935 H   0  0  0  0  0  0  0  0  0  0  0  0
  144.4712   71.3137  218.9449 H   0  0  0  0  0  0  0  0  0  0  0  0
  146.5533   71.3009  220.3057 H   0  0  0  0  0  0  0  0  0  0  0  0
  147.2516   73.3439  221.4988 H   0  0  0  0  0  0  0  0  0  0  0  0
  145.9030   75.4377  221.3721 H   0  0  0  0  0  0  0  0  0  0  0  0
  1  2  2  0
  2  3  1  0
  3  4  1  0
  4  5  1  0
  5  6  2  0
  5  7  1  0
  7  8  1  0
  8  9  1  0
  9 10  1  0
 10 11  1  0
 11 12  1  0
 12 13  1  0
 13 14  2  0
 14 15  1  0
 15 16  2  0
 16 17  1  0
 17 18  2  0
  2 19  1  0
 19 20  2  0
 20 21  1  0
 21 22  2  0
 22 23  1  0
 23 24  2  0
 24 25  1  0
 25 26  2  0
 26 27  1  0
 27 28  2  0
 12  7  1  0
 18 13  1  0
 28 19  1  0
 27 22  1  0
  3 29  1  0
  4 30  1  0
  4 31  1  0
  8 32  1  0
  8 33  1  0
  9 34  1  0
  9 35  1  0
 10 36  1  0
 10 37  1  0
 11 38  1  0
 11 39  1  0
 12 40  1  1
 14 41  1  0
 15 42  1  0
 16 43  1  0
 18 44  1  0
 20 45  1  0
 21 46  1  0
 23 47  1  0
 24 48  1  0
 25 49  1  0
 26 50  1  0
M  END
>  <smiles>  (31) 
O=C(NCC(=O)N1CCCCC1c1cccnc1)c1ccc2ccccc2n1

>  <score_type>  (31) 
oracle

>  <origin>  (31) 
autodockgpu

>  <m_score__min__energy>  (31) 
-8.9499999999999993

>  <m_primary>  (31) 
energy

>  <rmsd>  (31) 
7.563840639423741

>  <m_score__min__rmsd>  (31) 
7.563840639423741

>  <meeko>  (31) 
{"free_energy": -7.41, "intermolecular_energy": -8.9, "internal_energy": -2.48, "cluster_size": 24, "cluster_id": 3, "rank_in_cluster": 7}

>  <energy>  (31) 
-7.41

>  <cluster_rmsd>  (31) 
0.2

>  <cluster>  (31) 
3

$$$$

     RDKit          3D

 50 53  0  0  0  0  0  0  0  0999 V2000
  138.9740   75.1030  221.6460 O   0  0  0  0  0  0  0  0  0  0  0  0
  140.1240   75.6180  221.8640 C   0  0  0  0  0  0  0  0  0  0  0  0
  141.2990   74.8200  221.6410 N   0  0  0  0  0  0  0  0  0  0  0  0
  141.2690   73.4800  221.1960 C   0  0  0  0  0  0  0  0  0  0  0  0
  141.9890   73.0790  219.9910 C   0  0  0  0  0  0  0  0  0  0  0  0
  141.2010   72.7050  219.0190 O   0  0  0  0  0  0  0  0  0  0  0  0
  143.3500   73.0290  219.7000 N   0  0  0  0  0  0  0  0  0  0  0  0
  144.1750   71.8270  219.6300 C   0  0  0  0  0  0  0  0  0  0  0  0
  145.6220   72.1760  219.9710 C   0  0  0  0  0  0  0  0  0  0  0  0
  145.5990   73.1790  221.0940 C   0  0  0  0  0  0  0  0  0  0  0  0
  145.1210   74.5000  220.5040 C   0  0  0  0  0  0  0  0  0  0  0  0
  144.1150   74.2510  219.4300 C   0  0  2  0  0  0  0  0  0  0  0  0
  143.3350   75.4090  219.0040 C   0  0  0  0  0  0  0  0  0  0  0  0
  142.7170   75.4970  217.7510 C   0  0  0  0  0  0  0  0  0  0  0  0
  141.9590   76.5870  217.3860 C   0  0  0  0  0  0  0  0  0  0  0  0
  141.7850   77.6410  218.2590 C   0  0  0  0  0  0  0  0  0  0  0  0
  142.3770   77.5540  219.4520 N   0  0  0  0  0  0  0  0  0  0  0  0
  143.1220   76.5010  219.8350 C   0  0  0  0  0  0  0  0  0  0  0  0
  140.2420   77.0130  222.3370 C   0  0  0  0  0  0  0  0  0  0  0  0
  139.0840   77.6910  222.6430 C   0  0  0  0  0  0  0  0  0  0  0  0
  139.1220   78.9910  223.0890 C   0  0  0  0  0  0  0  0  0  0  0  0
  140.3700   79.6000  223.2200 C   0  0  0  0  0  0  0  0  0  0  0  0
  140.4530   80.9000  223.6630 C   0  0  0  0  0  0  0  0  0  0  0  0
  141.6900   81.5040  223.7930 C   0  0  0  0  0  0  0  0  0  0  0  0
  142.8290   80.7930  223.4770 C   0  0  0  0  0  0  0  0  0  0  0  0
  142.7760   79.4810  223.0280 C   0  0  0  0  0  0  0  0  0  0  0  0
  141.5380   78.9020  222.9060 C   0  0  0  0  0  0  0  0  0  0  0  0
  141.4430   77.6150  222.4680 N   0  0  0  0  0  0  0  0  0  0  0  0
  142.2080   75.3410  221.8450 H   0  0  0  0  0  0  0  0  0  0  0  0
  141.6664   72.8668  222.0182 H   0  0  0  0  0  0  0  0  0  0  0  0
  140.2159   73.3397  220.9108 H   0  0  0  0  0  0  0  0  0  0  0  0
  143.7992   71.0832  220.3480 H   0  0  0  0  0  0  0  0  0  0  0  0
  144.1301   71.4129  218.6119 H   0  0  0  0  0  0  0  0  0  0  0  0
  146.1609   71.2710  220.2881 H   0  0  0  0  0  0  0  0  0  0  0  0
  146.1348   72.5937  219.0920 H   0  0  0  0  0  0  0  0  0  0  0  0
  144.9087   72.8463  221.8832 H   0  0  0  0  0  0  0  0  0  0  0  0
  146.5976   73.2885  221.5421 H   0  0  0  0  0  0  0  0  0  0  0  0
  144.6621   75.1076  221.2979 H   0  0  0  0  0  0  0  0  0  0  0  0
  145.9815   75.0328  220.0731 H   0  0  0  0  0  0  0  0  0  0  0  0
  144.6886   74.0602  218.5110 H   0  0  0  0  0  0  0  0  0  0  0  0
  142.8407   74.6701  217.0362 H   0  0  0  0  0  0  0  0  0  0  0  0
  141.4891   76.6176  216.3919 H   0  0  0  0  0  0  0  0  0  0  0  0
  141.1821   78.5186  217.9827 H   0  0  0  0  0  0  0  0  0  0  0  0
  143.5761   76.5053  220.8369 H   0  0  0  0  0  0  0  0  0  0  0  0
  138.1138   77.1853  222.5291 H   0  0  0  0  0  0  0  0  0  0  0  0
  138.1973   79.5337  223.3348 H   0  0  0  0  0  0  0  0  0  0  0  0
  139.5381   81.4571  223.9130 H   0  0  0  0  0  0  0  0  0  0  0  0
  141.7652   82.5432  224.1456 H   0  0  0  0  0  0  0  0  0  0  0  0
  143.8091   81.2808  223.5842 H   0  0  0  0  0  0  0  0  0  0  0  0
  143.6924   78.9258  222.7791 H   0  0  0  0  0  0  0  0  0  0  0  0
  1  2  2  0
  2  3  1  0
  3  4  1  0
  4  5  1  0
  5  6  2  0
  5  7  1  0
  7  8  1  0
  8  9  1  0
  9 10  1  0
 10 11  1  0
 11 12  1  0
 12 13  1  0
 13 14  2  0
 14 15  1  0
 15 16  2  0
 16 17  1  0
 17 18  2  0
  2 19  1  0
 19 20  2  0
 20 21  1  0
 21 22  2  0
 22 23  1  0
 23 24  2  0
 24 25  1  0
 25 26  2  0
 26 27  1  0
 27 28  2  0
 12  7  1  0
 18 13  1  0
 28 19  1  0
 27 22  1  0
  3 29  1  0
  4 30  1  0
  4 31  1  0
  8 32  1  0
  8 33  1  0
  9 34  1  0
  9 35  1  0
 10 36  1  0
 10 37  1  0
 11 38  1  0
 11 39  1  0
 12 40  1  6
 14 41  1  0
 15 42  1  0
 16 43  1  0
 18 44  1  0
 20 45  1  0
 21 46  1  0
 23 47  1  0
 24 48  1  0
 25 49  1  0
 26 50  1  0
M  END
>  <smiles>  (32) 
O=C(NCC(=O)N1CCCCC1c1cccnc1)c1ccc2ccccc2n1

>  <score_type>  (32) 
oracle

>  <origin>  (32) 
autodockgpu

>  <m_score__min__energy>  (32) 
-8.9499999999999993

>  <m_primary>  (32) 
energy

>  <rmsd>  (32) 
7.704975014590348

>  <m_score__min__rmsd>  (32) 
7.704975014590348

>  <meeko>  (32) 
{"free_energy": -7.28, "intermolecular_energy": -8.77, "internal_energy": -2.35, "cluster_size": 18, "cluster_id": 2, "rank_in_cluster": 16}

>  <energy>  (32) 
-7.41

>  <cluster_rmsd>  (32) 
0.09

>  <cluster>  (32) 
3

$$$$

     RDKit          3D

 50 53  0  0  0  0  0  0  0  0999 V2000
  138.9600   75.0230  221.7870 O   0  0  0  0  0  0  0  0  0  0  0  0
  140.1150   75.5530  221.9350 C   0  0  0  0  0  0  0  0  0  0  0  0
  141.2840   74.7550  221.6870 N   0  0  0  0  0  0  0  0  0  0  0  0
  141.2460   73.4000  221.2900 C   0  0  0  0  0  0  0  0  0  0  0  0
  141.9550   72.9540  220.0950 C   0  0  0  0  0  0  0  0  0  0  0  0
  141.1680   72.4330  219.1920 O   0  0  0  0  0  0  0  0  0  0  0  0
  143.3050   72.9890  219.7520 N   0  0  0  0  0  0  0  0  0  0  0  0
  144.1980   71.8410  219.6450 C   0  0  0  0  0  0  0  0  0  0  0  0
  145.6330   72.2780  219.9330 C   0  0  0  0  0  0  0  0  0  0  0  0
  145.5910   73.2730  221.0620 C   0  0  0  0  0  0  0  0  0  0  0  0
  145.0100   74.5640  220.4970 C   0  0  0  0  0  0  0  0  0  0  0  0
  143.9820   74.2570  219.4600 C   0  0  2  0  0  0  0  0  0  0  0  0
  143.1160   75.3650  219.0710 C   0  0  0  0  0  0  0  0  0  0  0  0
  143.0950   76.5940  219.7430 C   0  0  0  0  0  0  0  0  0  0  0  0
  142.2930   77.6350  219.3360 C   0  0  0  0  0  0  0  0  0  0  0  0
  141.4720   77.4970  218.2350 C   0  0  0  0  0  0  0  0  0  0  0  0
  141.4940   76.3240  217.5970 N   0  0  0  0  0  0  0  0  0  0  0  0
  142.2690   75.2900  217.9730 C   0  0  0  0  0  0  0  0  0  0  0  0
  140.2420   76.9640  222.3550 C   0  0  0  0  0  0  0  0  0  0  0  0
  139.0870   77.6850  222.5530 C   0  0  0  0  0  0  0  0  0  0  0  0
  139.1340   79.0030  222.9440 C   0  0  0  0  0  0  0  0  0  0  0  0
  140.3880   79.5830  223.1330 C   0  0  0  0  0  0  0  0  0  0  0  0
  140.4800   80.8990  223.5240 C   0  0  0  0  0  0  0  0  0  0  0  0
  141.7230   81.4750  223.7110 C   0  0  0  0  0  0  0  0  0  0  0  0
  142.8590   80.7210  223.5030 C   0  0  0  0  0  0  0  0  0  0  0  0
  142.7970   79.3910  223.1080 C   0  0  0  0  0  0  0  0  0  0  0  0
  141.5530   78.8410  222.9290 C   0  0  0  0  0  0  0  0  0  0  0  0
  141.4490   77.5380  222.5410 N   0  0  0  0  0  0  0  0  0  0  0  0
  142.1970   75.2880  221.8340 H   0  0  0  0  0  0  0  0  0  0  0  0
  141.6476   72.8149  222.1304 H   0  0  0  0  0  0  0  0  0  0  0  0
  140.1903   73.2536  221.0179 H   0  0  0  0  0  0  0  0  0  0  0  0
  143.8962   71.0736  220.3730 H   0  0  0  0  0  0  0  0  0  0  0  0
  144.1399   71.4272  218.6275 H   0  0  0  0  0  0  0  0  0  0  0  0
  146.2386   71.4070  220.2237 H   0  0  0  0  0  0  0  0  0  0  0  0
  146.0849   72.7301  219.0378 H   0  0  0  0  0  0  0  0  0  0  0  0
  144.9530   72.8955  221.8747 H   0  0  0  0  0  0  0  0  0  0  0  0
  146.5970   73.4424  221.4735 H   0  0  0  0  0  0  0  0  0  0  0  0
  144.5444   75.1394  221.3107 H   0  0  0  0  0  0  0  0  0  0  0  0
  145.8192   75.1502  220.0371 H   0  0  0  0  0  0  0  0  0  0  0  0
  144.5311   74.1061  218.5189 H   0  0  0  0  0  0  0  0  0  0  0  0
  143.7399   76.7309  220.6235 H   0  0  0  0  0  0  0  0  0  0  0  0
  142.3061   78.5841  219.8919 H   0  0  0  0  0  0  0  0  0  0  0  0
  140.8255   78.3202  217.8967 H   0  0  0  0  0  0  0  0  0  0  0  0
  142.2304   74.3564  217.3926 H   0  0  0  0  0  0  0  0  0  0  0  0
  138.1120   77.2005  222.3964 H   0  0  0  0  0  0  0  0  0  0  0  0
  138.2117   79.5811  223.1026 H   0  0  0  0  0  0  0  0  0  0  0  0
  139.5674   81.4911  223.6873 H   0  0  0  0  0  0  0  0  0  0  0  0
  141.8052   82.5265  224.0233 H   0  0  0  0  0  0  0  0  0  0  0  0
  143.8438   81.1871  223.6545 H   0  0  0  0  0  0  0  0  0  0  0  0
  143.7108   78.8009  222.9448 H   0  0  0  0  0  0  0  0  0  0  0  0
  1  2  2  0
  2  3  1  0
  3  4  1  0
  4  5  1  0
  5  6  2  0
  5  7  1  0
  7  8  1  0
  8  9  1  0
  9 10  1  0
 10 11  1  0
 11 12  1  0
 12 13  1  0
 13 14  2  0
 14 15  1  0
 15 16  2  0
 16 17  1  0
 17 18  2  0
  2 19  1  0
 19 20  2  0
 20 21  1  0
 21 22  2  0
 22 23  1  0
 23 24  2  0
 24 25  1  0
 25 26  2  0
 26 27  1  0
 27 28  2  0
 12  7  1  0
 18 13  1  0
 28 19  1  0
 27 22  1  0
  3 29  1  0
  4 30  1  0
  4 31  1  0
  8 32  1  0
  8 33  1  0
  9 34  1  0
  9 35  1  0
 10 36  1  0
 10 37  1  0
 11 38  1  0
 11 39  1  0
 12 40  1  6
 14 41  1  0
 15 42  1  0
 16 43  1  0
 18 44  1  0
 20 45  1  0
 21 46  1  0
 23 47  1  0
 24 48  1  0
 25 49  1  0
 26 50  1  0
M  END
>  <smiles>  (33) 
O=C(NCC(=O)N1CCCCC1c1cccnc1)c1ccc2ccccc2n1

>  <score_type>  (33) 
oracle

>  <origin>  (33) 
autodockgpu

>  <m_score__min__energy>  (33) 
-8.9499999999999993

>  <m_primary>  (33) 
energy

>  <rmsd>  (33) 
7.676859817630804

>  <m_score__min__rmsd>  (33) 
7.676859817630804

>  <meeko>  (33) 
{"free_energy": -7.31, "intermolecular_energy": -8.8, "internal_energy": -2.39, "cluster_size": 18, "cluster_id": 2, "rank_in_cluster": 14}

>  <energy>  (33) 
-7.4

>  <cluster_rmsd>  (33) 
0.08

>  <cluster>  (33) 
3

$$$$

     RDKit          3D

 50 53  0  0  0  0  0  0  0  0999 V2000
  138.9800   75.0250  221.7650 O   0  0  0  0  0  0  0  0  0  0  0  0
  140.1280   75.5720  221.9010 C   0  0  0  0  0  0  0  0  0  0  0  0
  141.3060   74.8000  221.6130 N   0  0  0  0  0  0  0  0  0  0  0  0
  141.2830   73.4540  221.1870 C   0  0  0  0  0  0  0  0  0  0  0  0
  142.0110   73.0370  219.9930 C   0  0  0  0  0  0  0  0  0  0  0  0
  141.2320   72.6050  219.0370 O   0  0  0  0  0  0  0  0  0  0  0  0
  143.3720   73.0240  219.6960 N   0  0  0  0  0  0  0  0  0  0  0  0
  144.2320   71.8470  219.6390 C   0  0  0  0  0  0  0  0  0  0  0  0
  145.6690   72.2430  219.9690 C   0  0  0  0  0  0  0  0  0  0  0  0
  145.6210   73.2590  221.0780 C   0  0  0  0  0  0  0  0  0  0  0  0
  145.1010   74.5580  220.4720 C   0  0  0  0  0  0  0  0  0  0  0  0
  144.0990   74.2650  219.4060 C   0  0  2  0  0  0  0  0  0  0  0  0
  143.2830   75.3920  218.9680 C   0  0  0  0  0  0  0  0  0  0  0  0
  143.1220   76.5600  219.7240 C   0  0  0  0  0  0  0  0  0  0  0  0
  142.3730   77.6230  219.2740 C   0  0  0  0  0  0  0  0  0  0  0  0
  141.7480   77.5680  218.0440 C   0  0  0  0  0  0  0  0  0  0  0  0
  141.9040   76.4530  217.3270 N   0  0  0  0  0  0  0  0  0  0  0  0
  142.6310   75.4000  217.7420 C   0  0  0  0  0  0  0  0  0  0  0  0
  140.2400   76.9760  222.3490 C   0  0  0  0  0  0  0  0  0  0  0  0
  139.0780   77.6640  222.6120 C   0  0  0  0  0  0  0  0  0  0  0  0
  139.1100   78.9730  223.0320 C   0  0  0  0  0  0  0  0  0  0  0  0
  140.3570   79.5790  223.1830 C   0  0  0  0  0  0  0  0  0  0  0  0
  140.4350   80.8880  223.6010 C   0  0  0  0  0  0  0  0  0  0  0  0
  141.6700   81.4890  223.7500 C   0  0  0  0  0  0  0  0  0  0  0  0
  142.8140   80.7680  223.4780 C   0  0  0  0  0  0  0  0  0  0  0  0
  142.7670   79.4470  223.0540 C   0  0  0  0  0  0  0  0  0  0  0  0
  141.5290   78.8710  222.9130 C   0  0  0  0  0  0  0  0  0  0  0  0
  141.4400   77.5750  222.4990 N   0  0  0  0  0  0  0  0  0  0  0  0
  142.2130   75.3460  221.7520 H   0  0  0  0  0  0  0  0  0  0  0  0
  141.6771   72.8541  222.0205 H   0  0  0  0  0  0  0  0  0  0  0  0
  140.2322   73.3071  220.8967 H   0  0  0  0  0  0  0  0  0  0  0  0
  143.8813   71.1022  220.3686 H   0  0  0  0  0  0  0  0  0  0  0  0
  144.1957   71.4181  218.6267 H   0  0  0  0  0  0  0  0  0  0  0  0
  146.2356   71.3585  220.2956 H   0  0  0  0  0  0  0  0  0  0  0  0
  146.1657   72.6640  219.0824 H   0  0  0  0  0  0  0  0  0  0  0  0
  144.9442   72.9166  221.8747 H   0  0  0  0  0  0  0  0  0  0  0  0
  146.6177   73.4041  221.5202 H   0  0  0  0  0  0  0  0  0  0  0  0
  144.6272   75.1622  221.2597 H   0  0  0  0  0  0  0  0  0  0  0  0
  145.9435   75.1103  220.0303 H   0  0  0  0  0  0  0  0  0  0  0  0
  144.6747   74.0800  218.4871 H   0  0  0  0  0  0  0  0  0  0  0  0
  143.6093   76.6297  220.7077 H   0  0  0  0  0  0  0  0  0  0  0  0
  142.2715   78.5228  219.8985 H   0  0  0  0  0  0  0  0  0  0  0  0
  141.1458   78.4092  217.6701 H   0  0  0  0  0  0  0  0  0  0  0  0
  142.7115   74.5178  217.0899 H   0  0  0  0  0  0  0  0  0  0  0  0
  138.1089   77.1595  222.4844 H   0  0  0  0  0  0  0  0  0  0  0  0
  138.1817   79.5245  223.2422 H   0  0  0  0  0  0  0  0  0  0  0  0
  139.5166   81.4541  223.8158 H   0  0  0  0  0  0  0  0  0  0  0  0
  141.7405   82.5350  224.0832 H   0  0  0  0  0  0  0  0  0  0  0  0
  143.7930   81.2544  223.6007 H   0  0  0  0  0  0  0  0  0  0  0  0
  143.6868   78.8833  222.8392 H   0  0  0  0  0  0  0  0  0  0  0  0
  1  2  2  0
  2  3  1  0
  3  4  1  0
  4  5  1  0
  5  6  2  0
  5  7  1  0
  7  8  1  0
  8  9  1  0
  9 10  1  0
 10 11  1  0
 11 12  1  0
 12 13  1  0
 13 14  2  0
 14 15  1  0
 15 16  2  0
 16 17  1  0
 17 18  2  0
  2 19  1  0
 19 20  2  0
 20 21  1  0
 21 22  2  0
 22 23  1  0
 23 24  2  0
 24 25  1  0
 25 26  2  0
 26 27  1  0
 27 28  2  0
 12  7  1  0
 18 13  1  0
 28 19  1  0
 27 22  1  0
  3 29  1  0
  4 30  1  0
  4 31  1  0
  8 32  1  0
  8 33  1  0
  9 34  1  0
  9 35  1  0
 10 36  1  0
 10 37  1  0
 11 38  1  0
 11 39  1  0
 12 40  1  6
 14 41  1  0
 15 42  1  0
 16 43  1  0
 18 44  1  0
 20 45  1  0
 21 46  1  0
 23 47  1  0
 24 48  1  0
 25 49  1  0
 26 50  1  0
M  END
>  <smiles>  (34) 
O=C(NCC(=O)N1CCCCC1c1cccnc1)c1ccc2ccccc2n1

>  <score_type>  (34) 
oracle

>  <origin>  (34) 
autodockgpu

>  <m_score__min__energy>  (34) 
-8.9499999999999993

>  <m_primary>  (34) 
energy

>  <rmsd>  (34) 
7.694434091449854

>  <m_score__min__rmsd>  (34) 
7.694434091449854

>  <meeko>  (34) 
{"free_energy": -7.4, "intermolecular_energy": -8.89, "internal_energy": -2.32, "cluster_size": 18, "cluster_id": 2, "rank_in_cluster": 6}

>  <energy>  (34) 
-7.4

>  <cluster_rmsd>  (34) 
0.11

>  <cluster>  (34) 
3

$$$$

     RDKit          3D

 50 53  0  0  0  0  0  0  0  0999 V2000
  140.7270   76.9210  218.2780 O   0  0  0  0  0  0  0  0  0  0  0  0
  141.7560   76.9280  219.0370 C   0  0  0  0  0  0  0  0  0  0  0  0
  142.1200   78.1470  219.7060 N   0  0  0  0  0  0  0  0  0  0  0  0
  141.4090   79.3600  219.5760 C   0  0  0  0  0  0  0  0  0  0  0  0
  140.5010   79.8080  220.6270 C   0  0  0  0  0  0  0  0  0  0  0  0
  139.2730   79.9720  220.2130 O   0  0  0  0  0  0  0  0  0  0  0  0
  140.7100   80.0830  221.9770 N   0  0  0  0  0  0  0  0  0  0  0  0
  140.8390   81.4050  222.5790 C   0  0  0  0  0  0  0  0  0  0  0  0
  141.7010   81.3160  223.8370 C   0  0  0  0  0  0  0  0  0  0  0  0
  142.8210   80.3510  223.5570 C   0  0  0  0  0  0  0  0  0  0  0  0
  142.2120   78.9540  223.5310 C   0  0  0  0  0  0  0  0  0  0  0  0
  140.8330   79.0030  222.9620 C   0  0  2  0  0  0  0  0  0  0  0  0
  140.2560   77.7200  222.5750 C   0  0  0  0  0  0  0  0  0  0  0  0
  138.8840   77.5270  222.3710 C   0  0  0  0  0  0  0  0  0  0  0  0
  138.3680   76.3140  221.9740 C   0  0  0  0  0  0  0  0  0  0  0  0
  139.2020   75.2340  221.7640 C   0  0  0  0  0  0  0  0  0  0  0  0
  140.5090   75.4220  221.9600 N   0  0  0  0  0  0  0  0  0  0  0  0
  141.0400   76.5960  222.3470 C   0  0  0  0  0  0  0  0  0  0  0  0
  142.5580   75.7000  219.2210 C   0  0  0  0  0  0  0  0  0  0  0  0
  142.1100   74.5410  218.6300 C   0  0  0  0  0  0  0  0  0  0  0  0
  142.8080   73.3640  218.7620 C   0  0  0  0  0  0  0  0  0  0  0  0
  143.9830   73.3820  219.5130 C   0  0  0  0  0  0  0  0  0  0  0  0
  144.7120   72.2270  219.6700 C   0  0  0  0  0  0  0  0  0  0  0  0
  145.8770   72.2450  220.4150 C   0  0  0  0  0  0  0  0  0  0  0  0
  146.2950   73.4250  220.9930 C   0  0  0  0  0  0  0  0  0  0  0  0
  145.5800   74.6070  220.8520 C   0  0  0  0  0  0  0  0  0  0  0  0
  144.4280   74.5650  220.1080 C   0  0  0  0  0  0  0  0  0  0  0  0
  143.6970   75.7040  219.9460 N   0  0  0  0  0  0  0  0  0  0  0  0
  142.9880   78.0480  220.3180 H   0  0  0  0  0  0  0  0  0  0  0  0
  142.1610   80.1531  219.4514 H   0  0  0  0  0  0  0  0  0  0  0  0
  140.7294   79.1568  218.7352 H   0  0  0  0  0  0  0  0  0  0  0  0
  141.3117   82.0898  221.8596 H   0  0  0  0  0  0  0  0  0  0  0  0
  139.8411   81.7821  222.8471 H   0  0  0  0  0  0  0  0  0  0  0  0
  142.1122   82.3068  224.0802 H   0  0  0  0  0  0  0  0  0  0  0  0
  141.1005   80.9716  224.6919 H   0  0  0  0  0  0  0  0  0  0  0  0
  143.2822   80.5798  222.5849 H   0  0  0  0  0  0  0  0  0  0  0  0
  143.6025   80.4234  224.3278 H   0  0  0  0  0  0  0  0  0  0  0  0
  142.8380   78.2963  222.9101 H   0  0  0  0  0  0  0  0  0  0  0  0
  142.1625   78.5650  224.5587 H   0  0  0  0  0  0  0  0  0  0  0  0
  140.1658   79.2670  223.7957 H   0  0  0  0  0  0  0  0  0  0  0  0
  138.1973   78.3709  222.5330 H   0  0  0  0  0  0  0  0  0  0  0  0
  137.2839   76.2045  221.8231 H   0  0  0  0  0  0  0  0  0  0  0  0
  138.8055   74.2579  221.4479 H   0  0  0  0  0  0  0  0  0  0  0  0
  142.1286   76.6682  222.4872 H   0  0  0  0  0  0  0  0  0  0  0  0
  141.1797   74.5564  218.0433 H   0  0  0  0  0  0  0  0  0  0  0  0
  142.4508   72.4369  218.2899 H   0  0  0  0  0  0  0  0  0  0  0  0
  144.3696   71.2911  219.2043 H   0  0  0  0  0  0  0  0  0  0  0  0
  146.4657   71.3250  220.5455 H   0  0  0  0  0  0  0  0  0  0  0  0
  147.2229   73.4302  221.5837 H   0  0  0  0  0  0  0  0  0  0  0  0
  145.9242   75.5416  221.3191 H   0  0  0  0  0  0  0  0  0  0  0  0
  1  2  2  0
  2  3  1  0
  3  4  1  0
  4  5  1  0
  5  6  2  0
  5  7  1  0
  7  8  1  0
  8  9  1  0
  9 10  1  0
 10 11  1  0
 11 12  1  0
 12 13  1  0
 13 14  2  0
 14 15  1  0
 15 16  2  0
 16 17  1  0
 17 18  2  0
  2 19  1  0
 19 20  2  0
 20 21  1  0
 21 22  2  0
 22 23  1  0
 23 24  2  0
 24 25  1  0
 25 26  2  0
 26 27  1  0
 27 28  2  0
 12  7  1  0
 18 13  1  0
 28 19  1  0
 27 22  1  0
  3 29  1  0
  4 30  1  0
  4 31  1  0
  8 32  1  0
  8 33  1  0
  9 34  1  0
  9 35  1  0
 10 36  1  0
 10 37  1  0
 11 38  1  0
 11 39  1  0
 12 40  1  1
 14 41  1  0
 15 42  1  0
 16 43  1  0
 18 44  1  0
 20 45  1  0
 21 46  1  0
 23 47  1  0
 24 48  1  0
 25 49  1  0
 26 50  1  0
M  END
>  <smiles>  (35) 
O=C(NCC(=O)N1CCCCC1c1cccnc1)c1ccc2ccccc2n1

>  <score_type>  (35) 
oracle

>  <origin>  (35) 
autodockgpu

>  <m_score__min__energy>  (35) 
-8.9499999999999993

>  <m_primary>  (35) 
energy

>  <rmsd>  (35) 
7.537344185890018

>  <m_score__min__rmsd>  (35) 
7.537344185890018

>  <meeko>  (35) 
{"free_energy": -7.31, "intermolecular_energy": -8.8, "internal_energy": -2.47, "cluster_size": 24, "cluster_id": 3, "rank_in_cluster": 14}

>  <energy>  (35) 
-7.37

>  <cluster_rmsd>  (35) 
0.1

>  <cluster>  (35) 
3

$$$$

     RDKit          3D

 50 53  0  0  0  0  0  0  0  0999 V2000
  140.5540   76.8680  218.6060 O   0  0  0  0  0  0  0  0  0  0  0  0
  141.7300   76.9110  219.1070 C   0  0  0  0  0  0  0  0  0  0  0  0
  142.2380   78.1670  219.5870 N   0  0  0  0  0  0  0  0  0  0  0  0
  141.5170   79.3800  219.5370 C   0  0  0  0  0  0  0  0  0  0  0  0
  140.5410   79.7100  220.5700 C   0  0  0  0  0  0  0  0  0  0  0  0
  139.3080   79.6990  220.1390 O   0  0  0  0  0  0  0  0  0  0  0  0
  140.6910   80.0270  221.9190 N   0  0  0  0  0  0  0  0  0  0  0  0
  140.7800   81.3670  222.4860 C   0  0  0  0  0  0  0  0  0  0  0  0
  141.5900   81.3260  223.7800 C   0  0  0  0  0  0  0  0  0  0  0  0
  142.7320   80.3670  223.5750 C   0  0  0  0  0  0  0  0  0  0  0  0
  142.1400   78.9620  223.5660 C   0  0  0  0  0  0  0  0  0  0  0  0
  140.7850   78.9770  222.9400 C   0  0  2  0  0  0  0  0  0  0  0  0
  140.2400   77.6770  222.5680 C   0  0  0  0  0  0  0  0  0  0  0  0
  138.8700   77.4400  222.3980 C   0  0  0  0  0  0  0  0  0  0  0  0
  138.3820   76.2110  222.0150 C   0  0  0  0  0  0  0  0  0  0  0  0
  139.2440   75.1590  221.7840 C   0  0  0  0  0  0  0  0  0  0  0  0
  140.5490   75.3870  221.9470 N   0  0  0  0  0  0  0  0  0  0  0  0
  141.0530   76.5780  222.3200 C   0  0  0  0  0  0  0  0  0  0  0  0
  142.5520   75.6850  219.1910 C   0  0  0  0  0  0  0  0  0  0  0  0
  142.1190   74.5700  218.5130 C   0  0  0  0  0  0  0  0  0  0  0  0
  142.8360   73.3970  218.5480 C   0  0  0  0  0  0  0  0  0  0  0  0
  144.0150   73.3750  219.2920 C   0  0  0  0  0  0  0  0  0  0  0  0
  144.7630   72.2230  219.3550 C   0  0  0  0  0  0  0  0  0  0  0  0
  145.9320   72.2010  220.0920 C   0  0  0  0  0  0  0  0  0  0  0  0
  146.3360   73.3390  220.7580 C   0  0  0  0  0  0  0  0  0  0  0  0
  145.6010   74.5170  220.7140 C   0  0  0  0  0  0  0  0  0  0  0  0
  144.4450   74.5140  219.9760 C   0  0  0  0  0  0  0  0  0  0  0  0
  143.6950   75.6510  219.9070 N   0  0  0  0  0  0  0  0  0  0  0  0
  143.2230   78.0970  219.9900 H   0  0  0  0  0  0  0  0  0  0  0  0
  142.2625   80.1888  219.5394 H   0  0  0  0  0  0  0  0  0  0  0  0
  140.8922   79.2568  218.6401 H   0  0  0  0  0  0  0  0  0  0  0  0
  141.2742   82.0363  221.7664 H   0  0  0  0  0  0  0  0  0  0  0  0
  139.7676   81.7391  222.7018 H   0  0  0  0  0  0  0  0  0  0  0  0
  141.9795   82.3287  224.0101 H   0  0  0  0  0  0  0  0  0  0  0  0
  140.9587   80.9994  224.6195 H   0  0  0  0  0  0  0  0  0  0  0  0
  143.2303   80.5728  222.6162 H   0  0  0  0  0  0  0  0  0  0  0  0
  143.4803   80.4719  224.3744 H   0  0  0  0  0  0  0  0  0  0  0  0
  142.7984   78.2941  222.9911 H   0  0  0  0  0  0  0  0  0  0  0  0
  142.0525   78.6030  224.6021 H   0  0  0  0  0  0  0  0  0  0  0  0
  140.0803   79.2564  223.7371 H   0  0  0  0  0  0  0  0  0  0  0  0
  138.1613   78.2622  222.5762 H   0  0  0  0  0  0  0  0  0  0  0  0
  137.2984   76.0670  221.8925 H   0  0  0  0  0  0  0  0  0  0  0  0
  138.8704   74.1708  221.4774 H   0  0  0  0  0  0  0  0  0  0  0  0
  142.1421   76.6845  222.4319 H   0  0  0  0  0  0  0  0  0  0  0  0
  141.1850   74.6169  217.9338 H   0  0  0  0  0  0  0  0  0  0  0  0
  142.4903   72.5043  218.0062 H   0  0  0  0  0  0  0  0  0  0  0  0
  144.4317   71.3208  218.8199 H   0  0  0  0  0  0  0  0  0  0  0  0
  146.5354   71.2829  220.1469 H   0  0  0  0  0  0  0  0  0  0  0  0
  147.2681   73.3132  221.3415 H   0  0  0  0  0  0  0  0  0  0  0  0
  145.9335   75.4178  221.2506 H   0  0  0  0  0  0  0  0  0  0  0  0
  1  2  2  0
  2  3  1  0
  3  4  1  0
  4  5  1  0
  5  6  2  0
  5  7  1  0
  7  8  1  0
  8  9  1  0
  9 10  1  0
 10 11  1  0
 11 12  1  0
 12 13  1  0
 13 14  2  0
 14 15  1  0
 15 16  2  0
 16 17  1  0
 17 18  2  0
  2 19  1  0
 19 20  2  0
 20 21  1  0
 21 22  2  0
 22 23  1  0
 23 24  2  0
 24 25  1  0
 25 26  2  0
 26 27  1  0
 27 28  2  0
 12  7  1  0
 18 13  1  0
 28 19  1  0
 27 22  1  0
  3 29  1  0
  4 30  1  0
  4 31  1  0
  8 32  1  0
  8 33  1  0
  9 34  1  0
  9 35  1  0
 10 36  1  0
 10 37  1  0
 11 38  1  0
 11 39  1  0
 12 40  1  1
 14 41  1  0
 15 42  1  0
 16 43  1  0
 18 44  1  0
 20 45  1  0
 21 46  1  0
 23 47  1  0
 24 48  1  0
 25 49  1  0
 26 50  1  0
M  END
>  <smiles>  (36) 
O=C(NCC(=O)N1CCCCC1c1cccnc1)c1ccc2ccccc2n1

>  <score_type>  (36) 
oracle

>  <origin>  (36) 
autodockgpu

>  <m_score__min__energy>  (36) 
-8.9499999999999993

>  <m_primary>  (36) 
energy

>  <rmsd>  (36) 
7.602074159674829

>  <m_score__min__rmsd>  (36) 
7.602074159674829

>  <meeko>  (36) 
{"free_energy": -7.3, "intermolecular_energy": -8.79, "internal_energy": -2.47, "cluster_size": 24, "cluster_id": 3, "rank_in_cluster": 15}

>  <energy>  (36) 
-7.35

>  <cluster_rmsd>  (36) 
0.13

>  <cluster>  (36) 
3

$$$$

     RDKit          3D

 50 53  0  0  0  0  0  0  0  0999 V2000
  139.0310   75.0250  221.7770 O   0  0  0  0  0  0  0  0  0  0  0  0
  140.1670   75.5980  221.9050 C   0  0  0  0  0  0  0  0  0  0  0  0
  141.3600   74.8600  221.5910 N   0  0  0  0  0  0  0  0  0  0  0  0
  141.3650   73.5190  221.1480 C   0  0  0  0  0  0  0  0  0  0  0  0
  142.0860   73.1360  219.9390 C   0  0  0  0  0  0  0  0  0  0  0  0
  141.2990   72.8510  218.9360 O   0  0  0  0  0  0  0  0  0  0  0  0
  143.4490   73.0270  219.6690 N   0  0  0  0  0  0  0  0  0  0  0  0
  144.2260   71.7930  219.6330 C   0  0  0  0  0  0  0  0  0  0  0  0
  145.6810   72.0900  219.9900 C   0  0  0  0  0  0  0  0  0  0  0  0
  145.6810   73.1120  221.0960 C   0  0  0  0  0  0  0  0  0  0  0  0
  145.2650   74.4410  220.4760 C   0  0  0  0  0  0  0  0  0  0  0  0
  144.2660   74.2130  219.3910 C   0  0  2  0  0  0  0  0  0  0  0  0
  143.5400   75.3930  218.9340 C   0  0  0  0  0  0  0  0  0  0  0  0
  143.0780   75.5480  217.6210 C   0  0  0  0  0  0  0  0  0  0  0  0
  142.3670   76.6580  217.2230 C   0  0  0  0  0  0  0  0  0  0  0  0
  142.0830   77.6660  218.1220 C   0  0  0  0  0  0  0  0  0  0  0  0
  142.5260   77.5150  219.3720 N   0  0  0  0  0  0  0  0  0  0  0  0
  143.2220   76.4420  219.7880 C   0  0  0  0  0  0  0  0  0  0  0  0
  140.2490   76.9990  222.3690 C   0  0  0  0  0  0  0  0  0  0  0  0
  139.0740   77.6530  222.6600 C   0  0  0  0  0  0  0  0  0  0  0  0
  139.0790   78.9570  223.0960 C   0  0  0  0  0  0  0  0  0  0  0  0
  140.3120   79.5940  223.2350 C   0  0  0  0  0  0  0  0  0  0  0  0
  140.3620   80.8990  223.6690 C   0  0  0  0  0  0  0  0  0  0  0  0
  141.5840   81.5310  223.8060 C   0  0  0  0  0  0  0  0  0  0  0  0
  142.7420   80.8430  223.5060 C   0  0  0  0  0  0  0  0  0  0  0  0
  142.7220   79.5270  223.0660 C   0  0  0  0  0  0  0  0  0  0  0  0
  141.4980   78.9200  222.9370 C   0  0  0  0  0  0  0  0  0  0  0  0
  141.4360   77.6280  222.5080 N   0  0  0  0  0  0  0  0  0  0  0  0
  142.2540   75.4280  221.7250 H   0  0  0  0  0  0  0  0  0  0  0  0
  141.7861   72.9189  221.9681 H   0  0  0  0  0  0  0  0  0  0  0  0
  140.3142   73.3488  220.8707 H   0  0  0  0  0  0  0  0  0  0  0  0
  143.8103   71.0779  220.3581 H   0  0  0  0  0  0  0  0  0  0  0  0
  144.1797   71.3628  218.6217 H   0  0  0  0  0  0  0  0  0  0  0  0
  146.1788   71.1699  220.3300 H   0  0  0  0  0  0  0  0  0  0  0  0
  146.2231   72.4718  219.1123 H   0  0  0  0  0  0  0  0  0  0  0  0
  144.9660   72.8206  221.8794 H   0  0  0  0  0  0  0  0  0  0  0  0
  146.6761   73.1894  221.5585 H   0  0  0  0  0  0  0  0  0  0  0  0
  144.8190   75.0803  221.2521 H   0  0  0  0  0  0  0  0  0  0  0  0
  146.1524   74.9317  220.0497 H   0  0  0  0  0  0  0  0  0  0  0  0
  144.8450   73.9830  218.4844 H   0  0  0  0  0  0  0  0  0  0  0  0
  143.2897   74.7585  216.8849 H   0  0  0  0  0  0  0  0  0  0  0  0
  142.0230   76.7419  216.1815 H   0  0  0  0  0  0  0  0  0  0  0  0
  141.5144   78.5580  217.8204 H   0  0  0  0  0  0  0  0  0  0  0  0
  143.5497   76.3933  220.8369 H   0  0  0  0  0  0  0  0  0  0  0  0
  138.1164   77.1248  222.5421 H   0  0  0  0  0  0  0  0  0  0  0  0
  138.1402   79.4813  223.3278 H   0  0  0  0  0  0  0  0  0  0  0  0
  139.4326   81.4376  223.9062 H   0  0  0  0  0  0  0  0  0  0  0  0
  141.6328   82.5742  224.1515 H   0  0  0  0  0  0  0  0  0  0  0  0
  143.7100   81.3530  223.6190 H   0  0  0  0  0  0  0  0  0  0  0  0
  143.6526   78.9904  222.8294 H   0  0  0  0  0  0  0  0  0  0  0  0
  1  2  2  0
  2  3  1  0
  3  4  1  0
  4  5  1  0
  5  6  2  0
  5  7  1  0
  7  8  1  0
  8  9  1  0
  9 10  1  0
 10 11  1  0
 11 12  1  0
 12 13  1  0
 13 14  2  0
 14 15  1  0
 15 16  2  0
 16 17  1  0
 17 18  2  0
  2 19  1  0
 19 20  2  0
 20 21  1  0
 21 22  2  0
 22 23  1  0
 23 24  2  0
 24 25  1  0
 25 26  2  0
 26 27  1  0
 27 28  2  0
 12  7  1  0
 18 13  1  0
 28 19  1  0
 27 22  1  0
  3 29  1  0
  4 30  1  0
  4 31  1  0
  8 32  1  0
  8 33  1  0
  9 34  1  0
  9 35  1  0
 10 36  1  0
 10 37  1  0
 11 38  1  0
 11 39  1  0
 12 40  1  6
 14 41  1  0
 15 42  1  0
 16 43  1  0
 18 44  1  0
 20 45  1  0
 21 46  1  0
 23 47  1  0
 24 48  1  0
 25 49  1  0
 26 50  1  0
M  END
>  <smiles>  (37) 
O=C(NCC(=O)N1CCCCC1c1cccnc1)c1ccc2ccccc2n1

>  <score_type>  (37) 
oracle

>  <origin>  (37) 
autodockgpu

>  <m_score__min__energy>  (37) 
-8.9499999999999993

>  <m_primary>  (37) 
energy

>  <rmsd>  (37) 
7.73275862638981

>  <m_score__min__rmsd>  (37) 
7.73275862638981

>  <meeko>  (37) 
{"free_energy": -7.35, "intermolecular_energy": -8.84, "internal_energy": -2.25, "cluster_size": 18, "cluster_id": 2, "rank_in_cluster": 10}

>  <energy>  (37) 
-7.34

>  <cluster_rmsd>  (37) 
0.11

>  <cluster>  (37) 
3

$$$$

     RDKit          3D

 50 53  0  0  0  0  0  0  0  0999 V2000
  140.7130   76.8870  218.3390 O   0  0  0  0  0  0  0  0  0  0  0  0
  141.7930   76.8980  219.0250 C   0  0  0  0  0  0  0  0  0  0  0  0
  142.1940   78.1170  219.6730 N   0  0  0  0  0  0  0  0  0  0  0  0
  141.4700   79.3260  219.5960 C   0  0  0  0  0  0  0  0  0  0  0  0
  140.5320   79.7010  220.6500 C   0  0  0  0  0  0  0  0  0  0  0  0
  139.2900   79.7360  220.2480 O   0  0  0  0  0  0  0  0  0  0  0  0
  140.7270   80.0200  221.9930 N   0  0  0  0  0  0  0  0  0  0  0  0
  140.8540   81.3610  222.5520 C   0  0  0  0  0  0  0  0  0  0  0  0
  141.7010   81.3110  223.8220 C   0  0  0  0  0  0  0  0  0  0  0  0
  142.8210   80.3330  223.5870 C   0  0  0  0  0  0  0  0  0  0  0  0
  142.2070   78.9380  223.6010 C   0  0  0  0  0  0  0  0  0  0  0  0
  140.8350   78.9730  223.0140 C   0  0  2  0  0  0  0  0  0  0  0  0
  140.2570   77.6790  222.6640 C   0  0  0  0  0  0  0  0  0  0  0  0
  138.8780   77.4550  222.5760 C   0  0  0  0  0  0  0  0  0  0  0  0
  138.3590   76.2330  222.2120 C   0  0  0  0  0  0  0  0  0  0  0  0
  139.1970   75.1770  221.9170 C   0  0  0  0  0  0  0  0  0  0  0  0
  140.5110   75.3940  222.0030 N   0  0  0  0  0  0  0  0  0  0  0  0
  141.0460   76.5780  222.3560 C   0  0  0  0  0  0  0  0  0  0  0  0
  142.6120   75.6740  219.1500 C   0  0  0  0  0  0  0  0  0  0  0  0
  142.2170   74.5580  218.4490 C   0  0  0  0  0  0  0  0  0  0  0  0
  142.9340   73.3870  218.5200 C   0  0  0  0  0  0  0  0  0  0  0  0
  144.0730   73.3670  219.3250 C   0  0  0  0  0  0  0  0  0  0  0  0
  144.8200   72.2160  219.4240 C   0  0  0  0  0  0  0  0  0  0  0  0
  145.9490   72.1960  220.2220 C   0  0  0  0  0  0  0  0  0  0  0  0
  146.3150   73.3340  220.9100 C   0  0  0  0  0  0  0  0  0  0  0  0
  145.5810   74.5100  220.8290 C   0  0  0  0  0  0  0  0  0  0  0  0
  144.4640   74.5060  220.0310 C   0  0  0  0  0  0  0  0  0  0  0  0
  143.7160   75.6410  219.9250 N   0  0  0  0  0  0  0  0  0  0  0  0
  143.1040   78.0210  220.2240 H   0  0  0  0  0  0  0  0  0  0  0  0
  142.2136   80.1343  219.5349 H   0  0  0  0  0  0  0  0  0  0  0  0
  140.8128   79.1636  218.7290 H   0  0  0  0  0  0  0  0  0  0  0  0
  141.3375   82.0198  221.8157 H   0  0  0  0  0  0  0  0  0  0  0  0
  139.8545   81.7503  222.7957 H   0  0  0  0  0  0  0  0  0  0  0  0
  142.1131   82.3080  224.0369 H   0  0  0  0  0  0  0  0  0  0  0  0
  141.0895   80.9973  224.6808 H   0  0  0  0  0  0  0  0  0  0  0  0
  143.2939   80.5275  222.6131 H   0  0  0  0  0  0  0  0  0  0  0  0
  143.5942   80.4287  224.3636 H   0  0  0  0  0  0  0  0  0  0  0  0
  142.8377   78.2574  223.0103 H   0  0  0  0  0  0  0  0  0  0  0  0
  142.1438   78.5840  224.6405 H   0  0  0  0  0  0  0  0  0  0  0  0
  140.1590   79.2676  223.8302 H   0  0  0  0  0  0  0  0  0  0  0  0
  138.1880   78.2806  222.8047 H   0  0  0  0  0  0  0  0  0  0  0  0
  137.2688   76.0974  222.1559 H   0  0  0  0  0  0  0  0  0  0  0  0
  138.7977   74.1952  221.6226 H   0  0  0  0  0  0  0  0  0  0  0  0
  142.1406   76.6764  222.4019 H   0  0  0  0  0  0  0  0  0  0  0  0
  141.3141   74.6033  217.8224 H   0  0  0  0  0  0  0  0  0  0  0  0
  142.6194   72.4942  217.9597 H   0  0  0  0  0  0  0  0  0  0  0  0
  144.5200   71.3143  218.8700 H   0  0  0  0  0  0  0  0  0  0  0  0
  146.5509   71.2792  220.3075 H   0  0  0  0  0  0  0  0  0  0  0  0
  147.2152   73.3093  221.5417 H   0  0  0  0  0  0  0  0  0  0  0  0
  145.8832   75.4108  221.3833 H   0  0  0  0  0  0  0  0  0  0  0  0
  1  2  2  0
  2  3  1  0
  3  4  1  0
  4  5  1  0
  5  6  2  0
  5  7  1  0
  7  8  1  0
  8  9  1  0
  9 10  1  0
 10 11  1  0
 11 12  1  0
 12 13  1  0
 13 14  2  0
 14 15  1  0
 15 16  2  0
 16 17  1  0
 17 18  2  0
  2 19  1  0
 19 20  2  0
 20 21  1  0
 21 22  2  0
 22 23  1  0
 23 24  2  0
 24 25  1  0
 25 26  2  0
 26 27  1  0
 27 28  2  0
 12  7  1  0
 18 13  1  0
 28 19  1  0
 27 22  1  0
  3 29  1  0
  4 30  1  0
  4 31  1  0
  8 32  1  0
  8 33  1  0
  9 34  1  0
  9 35  1  0
 10 36  1  0
 10 37  1  0
 11 38  1  0
 11 39  1  0
 12 40  1  1
 14 41  1  0
 15 42  1  0
 16 43  1  0
 18 44  1  0
 20 45  1  0
 21 46  1  0
 23 47  1  0
 24 48  1  0
 25 49  1  0
 26 50  1  0
M  END
>  <smiles>  (38) 
O=C(NCC(=O)N1CCCCC1c1cccnc1)c1ccc2ccccc2n1

>  <score_type>  (38) 
oracle

>  <origin>  (38) 
autodockgpu

>  <m_score__min__energy>  (38) 
-8.9499999999999993

>  <m_primary>  (38) 
energy

>  <rmsd>  (38) 
7.591031350756996

>  <m_score__min__rmsd>  (38) 
7.591031350756996

>  <meeko>  (38) 
{"free_energy": -7.41, "intermolecular_energy": -8.9, "internal_energy": -2.4, "cluster_size": 24, "cluster_id": 3, "rank_in_cluster": 5}

>  <energy>  (38) 
-7.32

>  <cluster_rmsd>  (38) 
0.14

>  <cluster>  (38) 
3

$$$$

     RDKit          3D

 50 53  0  0  0  0  0  0  0  0999 V2000
  140.6350   76.6560  218.7720 O   0  0  0  0  0  0  0  0  0  0  0  0
  141.8610   76.6950  219.1350 C   0  0  0  0  0  0  0  0  0  0  0  0
  142.4400   77.9600  219.4990 N   0  0  0  0  0  0  0  0  0  0  0  0
  141.7370   79.1850  219.4760 C   0  0  0  0  0  0  0  0  0  0  0  0
  140.6260   79.4230  220.3910 C   0  0  0  0  0  0  0  0  0  0  0  0
  139.4560   79.2140  219.8490 O   0  0  0  0  0  0  0  0  0  0  0  0
  140.5950   79.8260  221.7250 N   0  0  0  0  0  0  0  0  0  0  0  0
  140.5620   81.2010  222.2100 C   0  0  0  0  0  0  0  0  0  0  0  0
  141.2050   81.2740  223.5940 C   0  0  0  0  0  0  0  0  0  0  0  0
  142.4000   80.3570  223.5920 C   0  0  0  0  0  0  0  0  0  0  0  0
  141.8670   78.9290  223.6020 C   0  0  0  0  0  0  0  0  0  0  0  0
  140.6010   78.8450  222.8150 C   0  0  2  0  0  0  0  0  0  0  0  0
  140.1550   77.5010  222.4640 C   0  0  0  0  0  0  0  0  0  0  0  0
  138.8130   77.1750  222.2310 C   0  0  0  0  0  0  0  0  0  0  0  0
  138.4220   75.9060  221.8690 C   0  0  0  0  0  0  0  0  0  0  0  0
  139.3560   74.9010  221.7250 C   0  0  0  0  0  0  0  0  0  0  0  0
  140.6350   75.2150  221.9490 N   0  0  0  0  0  0  0  0  0  0  0  0
  141.0450   76.4470  222.3030 C   0  0  0  0  0  0  0  0  0  0  0  0
  142.6670   75.4580  219.1800 C   0  0  0  0  0  0  0  0  0  0  0  0
  142.2590   74.3920  218.4110 C   0  0  0  0  0  0  0  0  0  0  0  0
  142.9640   73.2120  218.4070 C   0  0  0  0  0  0  0  0  0  0  0  0
  144.1040   73.1290  219.2050 C   0  0  0  0  0  0  0  0  0  0  0  0
  144.8390   71.9660  219.2300 C   0  0  0  0  0  0  0  0  0  0  0  0
  145.9690   71.8840  220.0210 C   0  0  0  0  0  0  0  0  0  0  0  0
  146.3480   72.9720  220.7790 C   0  0  0  0  0  0  0  0  0  0  0  0
  145.6270   74.1590  220.7740 C   0  0  0  0  0  0  0  0  0  0  0  0
  144.5090   74.2170  219.9810 C   0  0  0  0  0  0  0  0  0  0  0  0
  143.7730   75.3640  219.9490 N   0  0  0  0  0  0  0  0  0  0  0  0
  143.4640   77.8860  219.7910 H   0  0  0  0  0  0  0  0  0  0  0  0
  142.4772   79.9758  219.6680 H   0  0  0  0  0  0  0  0  0  0  0  0
  141.2452   79.1672  218.4922 H   0  0  0  0  0  0  0  0  0  0  0  0
  141.1169   81.8476  221.5143 H   0  0  0  0  0  0  0  0  0  0  0  0
  139.5174   81.5395  222.2751 H   0  0  0  0  0  0  0  0  0  0  0  0
  141.5243   82.3053  223.8049 H   0  0  0  0  0  0  0  0  0  0  0  0
  140.4867   80.9695  224.3694 H   0  0  0  0  0  0  0  0  0  0  0  0
  143.0055   80.5277  222.6897 H   0  0  0  0  0  0  0  0  0  0  0  0
  143.0388   80.5433  224.4679 H   0  0  0  0  0  0  0  0  0  0  0  0
  142.6167   78.2584  223.1568 H   0  0  0  0  0  0  0  0  0  0  0  0
  141.6642   78.6291  224.6407 H   0  0  0  0  0  0  0  0  0  0  0  0
  139.7929   79.1393  223.5009 H   0  0  0  0  0  0  0  0  0  0  0  0
  138.0477   77.9575  222.3407 H   0  0  0  0  0  0  0  0  0  0  0  0
  137.3575   75.6917  221.6933 H   0  0  0  0  0  0  0  0  0  0  0  0
  139.0594   73.8816  221.4372 H   0  0  0  0  0  0  0  0  0  0  0  0
  142.1177   76.6246  222.4699 H   0  0  0  0  0  0  0  0  0  0  0  0
  141.3555   74.4857  217.7905 H   0  0  0  0  0  0  0  0  0  0  0  0
  142.6386   72.3593  217.7929 H   0  0  0  0  0  0  0  0  0  0  0  0
  144.5278   71.1038  218.6219 H   0  0  0  0  0  0  0  0  0  0  0  0
  146.5619   70.9578  220.0459 H   0  0  0  0  0  0  0  0  0  0  0  0
  147.2484   72.8974  221.4064 H   0  0  0  0  0  0  0  0  0  0  0  0
  145.9404   75.0199  221.3827 H   0  0  0  0  0  0  0  0  0  0  0  0
  1  2  2  0
  2  3  1  0
  3  4  1  0
  4  5  1  0
  5  6  2  0
  5  7  1  0
  7  8  1  0
  8  9  1  0
  9 10  1  0
 10 11  1  0
 11 12  1  0
 12 13  1  0
 13 14  2  0
 14 15  1  0
 15 16  2  0
 16 17  1  0
 17 18  2  0
  2 19  1  0
 19 20  2  0
 20 21  1  0
 21 22  2  0
 22 23  1  0
 23 24  2  0
 24 25  1  0
 25 26  2  0
 26 27  1  0
 27 28  2  0
 12  7  1  0
 18 13  1  0
 28 19  1  0
 27 22  1  0
  3 29  1  0
  4 30  1  0
  4 31  1  0
  8 32  1  0
  8 33  1  0
  9 34  1  0
  9 35  1  0
 10 36  1  0
 10 37  1  0
 11 38  1  0
 11 39  1  0
 12 40  1  1
 14 41  1  0
 15 42  1  0
 16 43  1  0
 18 44  1  0
 20 45  1  0
 21 46  1  0
 23 47  1  0
 24 48  1  0
 25 49  1  0
 26 50  1  0
M  END
>  <smiles>  (39) 
O=C(NCC(=O)N1CCCCC1c1cccnc1)c1ccc2ccccc2n1

>  <score_type>  (39) 
oracle

>  <origin>  (39) 
autodockgpu

>  <m_score__min__energy>  (39) 
-8.9499999999999993

>  <m_primary>  (39) 
energy

>  <rmsd>  (39) 
7.512962066989783

>  <m_score__min__rmsd>  (39) 
7.512962066989783

>  <meeko>  (39) 
{"free_energy": -7.18, "intermolecular_energy": -8.67, "internal_energy": -2.38, "cluster_size": 24, "cluster_id": 3, "rank_in_cluster": 20}

>  <energy>  (39) 
-7.31

>  <cluster_rmsd>  (39) 
0.22

>  <cluster>  (39) 
3

$$$$

     RDKit          3D

 50 53  0  0  0  0  0  0  0  0999 V2000
  140.2610   76.9820  219.2880 O   0  0  0  0  0  0  0  0  0  0  0  0
  141.5280   76.9480  219.4640 C   0  0  0  0  0  0  0  0  0  0  0  0
  142.2430   78.1860  219.6200 N   0  0  0  0  0  0  0  0  0  0  0  0
  141.6330   79.4590  219.5860 C   0  0  0  0  0  0  0  0  0  0  0  0
  140.6780   79.8550  220.6160 C   0  0  0  0  0  0  0  0  0  0  0  0
  139.4370   79.8300  220.2070 O   0  0  0  0  0  0  0  0  0  0  0  0
  140.8550   80.2460  221.9410 N   0  0  0  0  0  0  0  0  0  0  0  0
  141.0510   81.6100  222.4200 C   0  0  0  0  0  0  0  0  0  0  0  0
  141.8570   81.5890  223.7170 C   0  0  0  0  0  0  0  0  0  0  0  0
  142.9190   80.5310  223.5790 C   0  0  0  0  0  0  0  0  0  0  0  0
  142.2170   79.1800  223.6600 C   0  0  0  0  0  0  0  0  0  0  0  0
  140.8670   79.2620  223.0290 C   0  0  2  0  0  0  0  0  0  0  0  0
  140.2190   77.9870  222.7410 C   0  0  0  0  0  0  0  0  0  0  0  0
  138.8350   77.8510  222.5750 C   0  0  0  0  0  0  0  0  0  0  0  0
  138.2510   76.6420  222.2710 C   0  0  0  0  0  0  0  0  0  0  0  0
  139.0260   75.5100  222.1200 C   0  0  0  0  0  0  0  0  0  0  0  0
  140.3450   75.6430  222.2800 N   0  0  0  0  0  0  0  0  0  0  0  0
  140.9410   76.8120  222.5760 C   0  0  0  0  0  0  0  0  0  0  0  0
  142.2430   75.6560  219.5060 C   0  0  0  0  0  0  0  0  0  0  0  0
  141.5940   74.5420  219.0230 C   0  0  0  0  0  0  0  0  0  0  0  0
  142.2030   73.3100  219.0330 C   0  0  0  0  0  0  0  0  0  0  0  0
  143.4960   73.2230  219.5460 C   0  0  0  0  0  0  0  0  0  0  0  0
  144.1410   72.0090  219.5750 C   0  0  0  0  0  0  0  0  0  0  0  0
  145.4240   71.9230  220.0840 C   0  0  0  0  0  0  0  0  0  0  0  0
  146.0430   73.0610  220.5590 C   0  0  0  0  0  0  0  0  0  0  0  0
  145.4170   74.3000  220.5430 C   0  0  0  0  0  0  0  0  0  0  0  0
  144.1450   74.3600  220.0330 C   0  0  0  0  0  0  0  0  0  0  0  0
  143.4950   75.5580  220.0000 N   0  0  0  0  0  0  0  0  0  0  0  0
  143.2910   78.0510  219.7660 H   0  0  0  0  0  0  0  0  0  0  0  0
  142.4471   80.1983  219.6113 H   0  0  0  0  0  0  0  0  0  0  0  0
  141.0104   79.4086  218.6806 H   0  0  0  0  0  0  0  0  0  0  0  0
  141.5958   82.1897  221.6603 H   0  0  0  0  0  0  0  0  0  0  0  0
  140.0717   82.0748  222.6070 H   0  0  0  0  0  0  0  0  0  0  0  0
  142.3253   82.5704  223.8830 H   0  0  0  0  0  0  0  0  0  0  0  0
  141.2029   81.3688  224.5735 H   0  0  0  0  0  0  0  0  0  0  0  0
  143.4303   80.6333  222.6105 H   0  0  0  0  0  0  0  0  0  0  0  0
  143.6749   80.6283  224.3722 H   0  0  0  0  0  0  0  0  0  0  0  0
  142.8192   78.4254  223.1329 H   0  0  0  0  0  0  0  0  0  0  0  0
  142.1026   78.8978  224.7170 H   0  0  0  0  0  0  0  0  0  0  0  0
  140.1886   79.6492  223.8035 H   0  0  0  0  0  0  0  0  0  0  0  0
  138.1947   78.7378  222.6911 H   0  0  0  0  0  0  0  0  0  0  0  0
  137.1598   76.5778  222.1477 H   0  0  0  0  0  0  0  0  0  0  0  0
  138.5749   74.5365  221.8774 H   0  0  0  0  0  0  0  0  0  0  0  0
  142.0347   76.8382  222.6910 H   0  0  0  0  0  0  0  0  0  0  0  0
  140.5737   74.6394  218.6235 H   0  0  0  0  0  0  0  0  0  0  0  0
  141.6854   72.4192  218.6476 H   0  0  0  0  0  0  0  0  0  0  0  0
  143.6376   71.1082  219.1941 H   0  0  0  0  0  0  0  0  0  0  0  0
  145.9466   70.9554  220.1100 H   0  0  0  0  0  0  0  0  0  0  0  0
  147.0634   72.9842  220.9626 H   0  0  0  0  0  0  0  0  0  0  0  0
  145.9219   75.1996  220.9248 H   0  0  0  0  0  0  0  0  0  0  0  0
  1  2  2  0
  2  3  1  0
  3  4  1  0
  4  5  1  0
  5  6  2  0
  5  7  1  0
  7  8  1  0
  8  9  1  0
  9 10  1  0
 10 11  1  0
 11 12  1  0
 12 13  1  0
 13 14  2  0
 14 15  1  0
 15 16  2  0
 16 17  1  0
 17 18  2  0
  2 19  1  0
 19 20  2  0
 20 21  1  0
 21 22  2  0
 22 23  1  0
 23 24  2  0
 24 25  1  0
 25 26  2  0
 26 27  1  0
 27 28  2  0
 12  7  1  0
 18 13  1  0
 28 19  1  0
 27 22  1  0
  3 29  1  0
  4 30  1  0
  4 31  1  0
  8 32  1  0
  8 33  1  0
  9 34  1  0
  9 35  1  0
 10 36  1  0
 10 37  1  0
 11 38  1  0
 11 39  1  0
 12 40  1  1
 14 41  1  0
 15 42  1  0
 16 43  1  0
 18 44  1  0
 20 45  1  0
 21 46  1  0
 23 47  1  0
 24 48  1  0
 25 49  1  0
 26 50  1  0
M  END
>  <smiles>  (40) 
O=C(NCC(=O)N1CCCCC1c1cccnc1)c1ccc2ccccc2n1

>  <score_type>  (40) 
oracle

>  <origin>  (40) 
autodockgpu

>  <m_score__min__energy>  (40) 
-8.9499999999999993

>  <m_primary>  (40) 
energy

>  <rmsd>  (40) 
7.505992609796716

>  <m_score__min__rmsd>  (40) 
7.505992609796716

>  <meeko>  (40) 
{"free_energy": -7.19, "intermolecular_energy": -8.68, "internal_energy": -2.43, "cluster_size": 24, "cluster_id": 3, "rank_in_cluster": 19}

>  <energy>  (40) 
-7.3

>  <cluster_rmsd>  (40) 
0.11

>  <cluster>  (40) 
3

$$$$

     RDKit          3D

 50 53  0  0  0  0  0  0  0  0999 V2000
  139.0220   74.9720  221.7420 O   0  0  0  0  0  0  0  0  0  0  0  0
  140.1600   75.5380  221.8890 C   0  0  0  0  0  0  0  0  0  0  0  0
  141.3540   74.7800  221.6320 N   0  0  0  0  0  0  0  0  0  0  0  0
  141.3570   73.4270  221.2260 C   0  0  0  0  0  0  0  0  0  0  0  0
  142.0700   73.0130  220.0220 C   0  0  0  0  0  0  0  0  0  0  0  0
  141.2790   72.5930  219.0710 O   0  0  0  0  0  0  0  0  0  0  0  0
  143.4290   72.9900  219.7130 N   0  0  0  0  0  0  0  0  0  0  0  0
  144.2790   71.8060  219.6440 C   0  0  0  0  0  0  0  0  0  0  0  0
  145.7220   72.1890  219.9620 C   0  0  0  0  0  0  0  0  0  0  0  0
  145.6920   73.2020  221.0760 C   0  0  0  0  0  0  0  0  0  0  0  0
  145.1770   74.5070  220.4800 C   0  0  0  0  0  0  0  0  0  0  0  0
  144.1630   74.2260  219.4220 C   0  0  2  0  0  0  0  0  0  0  0  0
  143.3530   75.3620  218.9960 C   0  0  0  0  0  0  0  0  0  0  0  0
  143.2290   76.5380  219.7450 C   0  0  0  0  0  0  0  0  0  0  0  0
  142.4840   77.6090  219.3060 C   0  0  0  0  0  0  0  0  0  0  0  0
  141.8250   77.5530  218.0950 C   0  0  0  0  0  0  0  0  0  0  0  0
  141.9450   76.4290  217.3830 N   0  0  0  0  0  0  0  0  0  0  0  0
  142.6670   75.3680  217.7880 C   0  0  0  0  0  0  0  0  0  0  0  0
  140.2430   76.9500  222.3180 C   0  0  0  0  0  0  0  0  0  0  0  0
  139.0670   77.6200  222.5660 C   0  0  0  0  0  0  0  0  0  0  0  0
  139.0730   78.9350  222.9680 C   0  0  0  0  0  0  0  0  0  0  0  0
  140.3070   79.5670  223.1160 C   0  0  0  0  0  0  0  0  0  0  0  0
  140.3590   80.8820  223.5160 C   0  0  0  0  0  0  0  0  0  0  0  0
  141.5830   81.5090  223.6620 C   0  0  0  0  0  0  0  0  0  0  0  0
  142.7410   80.8050  223.4040 C   0  0  0  0  0  0  0  0  0  0  0  0
  142.7200   79.4780  222.9990 C   0  0  0  0  0  0  0  0  0  0  0  0
  141.4940   78.8770  222.8610 C   0  0  0  0  0  0  0  0  0  0  0  0
  141.4310   77.5740  222.4640 N   0  0  0  0  0  0  0  0  0  0  0  0
  142.2490   75.3420  221.7780 H   0  0  0  0  0  0  0  0  0  0  0  0
  141.7849   72.8498  222.0589 H   0  0  0  0  0  0  0  0  0  0  0  0
  140.3043   73.2474  220.9621 H   0  0  0  0  0  0  0  0  0  0  0  0
  143.9289   71.0616  220.3742 H   0  0  0  0  0  0  0  0  0  0  0  0
  144.2299   71.3810  218.6306 H   0  0  0  0  0  0  0  0  0  0  0  0
  146.2845   71.2988  220.2802 H   0  0  0  0  0  0  0  0  0  0  0  0
  146.2141   72.6091  219.0724 H   0  0  0  0  0  0  0  0  0  0  0  0
  145.0198   72.8619  221.8775 H   0  0  0  0  0  0  0  0  0  0  0  0
  146.6938   73.3376  221.5095 H   0  0  0  0  0  0  0  0  0  0  0  0
  144.7152   75.1119  221.2743 H   0  0  0  0  0  0  0  0  0  0  0  0
  146.0198   75.0544  220.0328 H   0  0  0  0  0  0  0  0  0  0  0  0
  144.7283   74.0391  218.4971 H   0  0  0  0  0  0  0  0  0  0  0  0
  143.7431   76.6085  220.7149 H   0  0  0  0  0  0  0  0  0  0  0  0
  142.4135   78.5157  219.9248 H   0  0  0  0  0  0  0  0  0  0  0  0
  141.2250   78.3998  217.7305 H   0  0  0  0  0  0  0  0  0  0  0  0
  142.7155   74.4784  217.1428 H   0  0  0  0  0  0  0  0  0  0  0  0
  138.1080   77.0960  222.4408 H   0  0  0  0  0  0  0  0  0  0  0  0
  138.1335   79.4716  223.1666 H   0  0  0  0  0  0  0  0  0  0  0  0
  139.4293   81.4336  223.7193 H   0  0  0  0  0  0  0  0  0  0  0  0
  141.6328   82.5605  223.9812 H   0  0  0  0  0  0  0  0  0  0  0  0
  143.7104   81.3110  223.5230 H   0  0  0  0  0  0  0  0  0  0  0  0
  143.6510   78.9284  222.7962 H   0  0  0  0  0  0  0  0  0  0  0  0
  1  2  2  0
  2  3  1  0
  3  4  1  0
  4  5  1  0
  5  6  2  0
  5  7  1  0
  7  8  1  0
  8  9  1  0
  9 10  1  0
 10 11  1  0
 11 12  1  0
 12 13  1  0
 13 14  2  0
 14 15  1  0
 15 16  2  0
 16 17  1  0
 17 18  2  0
  2 19  1  0
 19 20  2  0
 20 21  1  0
 21 22  2  0
 22 23  1  0
 23 24  2  0
 24 25  1  0
 25 26  2  0
 26 27  1  0
 27 28  2  0
 12  7  1  0
 18 13  1  0
 28 19  1  0
 27 22  1  0
  3 29  1  0
  4 30  1  0
  4 31  1  0
  8 32  1  0
  8 33  1  0
  9 34  1  0
  9 35  1  0
 10 36  1  0
 10 37  1  0
 11 38  1  0
 11 39  1  0
 12 40  1  6
 14 41  1  0
 15 42  1  0
 16 43  1  0
 18 44  1  0
 20 45  1  0
 21 46  1  0
 23 47  1  0
 24 48  1  0
 25 49  1  0
 26 50  1  0
M  END
>  <smiles>  (41) 
O=C(NCC(=O)N1CCCCC1c1cccnc1)c1ccc2ccccc2n1

>  <score_type>  (41) 
oracle

>  <origin>  (41) 
autodockgpu

>  <m_score__min__energy>  (41) 
-8.9499999999999993

>  <m_primary>  (41) 
energy

>  <rmsd>  (41) 
7.718639887264523

>  <m_score__min__rmsd>  (41) 
7.718639887264523

>  <meeko>  (41) 
{"free_energy": -7.36, "intermolecular_energy": -8.85, "internal_energy": -2.33, "cluster_size": 18, "cluster_id": 2, "rank_in_cluster": 9}

>  <energy>  (41) 
-7.29

>  <cluster_rmsd>  (41) 
0.3

>  <cluster>  (41) 
3

$$$$

     RDKit          3D

 50 53  0  0  0  0  0  0  0  0999 V2000
  139.0550   74.8950  222.0420 O   0  0  0  0  0  0  0  0  0  0  0  0
  140.1740   75.5120  221.9930 C   0  0  0  0  0  0  0  0  0  0  0  0
  141.3420   74.8030  221.5470 N   0  0  0  0  0  0  0  0  0  0  0  0
  141.3410   73.4450  221.1600 C   0  0  0  0  0  0  0  0  0  0  0  0
  142.0990   73.0020  219.9940 C   0  0  0  0  0  0  0  0  0  0  0  0
  141.3460   72.5440  219.0310 O   0  0  0  0  0  0  0  0  0  0  0  0
  143.4680   72.9870  219.7310 N   0  0  0  0  0  0  0  0  0  0  0  0
  144.3260   71.8080  219.6950 C   0  0  0  0  0  0  0  0  0  0  0  0
  145.7560   72.2010  220.0610 C   0  0  0  0  0  0  0  0  0  0  0  0
  145.6820   73.2170  221.1700 C   0  0  0  0  0  0  0  0  0  0  0  0
  145.1800   74.5170  220.5530 C   0  0  0  0  0  0  0  0  0  0  0  0
  144.2040   74.2260  219.4610 C   0  0  2  0  0  0  0  0  0  0  0  0
  143.4020   75.3560  219.0050 C   0  0  0  0  0  0  0  0  0  0  0  0
  143.2390   76.5310  219.7490 C   0  0  0  0  0  0  0  0  0  0  0  0
  142.5030   77.5960  219.2810 C   0  0  0  0  0  0  0  0  0  0  0  0
  141.8930   77.5350  218.0450 C   0  0  0  0  0  0  0  0  0  0  0  0
  142.0500   76.4130  217.3380 N   0  0  0  0  0  0  0  0  0  0  0  0
  142.7640   75.3580  217.7710 C   0  0  0  0  0  0  0  0  0  0  0  0
  140.2620   76.9340  222.3870 C   0  0  0  0  0  0  0  0  0  0  0  0
  139.0880   77.6170  222.6060 C   0  0  0  0  0  0  0  0  0  0  0  0
  139.0980   78.9410  222.9750 C   0  0  0  0  0  0  0  0  0  0  0  0
  140.3350   79.5690  223.1220 C   0  0  0  0  0  0  0  0  0  0  0  0
  140.3900   80.8930  223.4900 C   0  0  0  0  0  0  0  0  0  0  0  0
  141.6160   81.5150  223.6350 C   0  0  0  0  0  0  0  0  0  0  0  0
  142.7730   80.7990  223.4080 C   0  0  0  0  0  0  0  0  0  0  0  0
  142.7480   79.4610  223.0350 C   0  0  0  0  0  0  0  0  0  0  0  0
  141.5200   78.8650  222.8970 C   0  0  0  0  0  0  0  0  0  0  0  0
  141.4520   77.5530  222.5320 N   0  0  0  0  0  0  0  0  0  0  0  0
  142.2230   75.4060  221.5370 H   0  0  0  0  0  0  0  0  0  0  0  0
  141.7228   72.8733  222.0187 H   0  0  0  0  0  0  0  0  0  0  0  0
  140.2981   73.2785  220.8523 H   0  0  0  0  0  0  0  0  0  0  0  0
  143.9555   71.0639  220.4154 H   0  0  0  0  0  0  0  0  0  0  0  0
  144.3138   71.3792  218.6821 H   0  0  0  0  0  0  0  0  0  0  0  0
  146.3126   71.3152  220.4010 H   0  0  0  0  0  0  0  0  0  0  0  0
  146.2756   72.6214  219.1874 H   0  0  0  0  0  0  0  0  0  0  0  0
  144.9849   72.8751  221.9492 H   0  0  0  0  0  0  0  0  0  0  0  0
  146.6677   73.3599  221.6369 H   0  0  0  0  0  0  0  0  0  0  0  0
  144.6875   75.1212  221.3291 H   0  0  0  0  0  0  0  0  0  0  0  0
  146.0342   75.0687  220.1335 H   0  0  0  0  0  0  0  0  0  0  0  0
  144.8014   74.0393  218.5564 H   0  0  0  0  0  0  0  0  0  0  0  0
  143.7139   76.6053  220.7384 H   0  0  0  0  0  0  0  0  0  0  0  0
  142.4005   78.5018  219.8967 H   0  0  0  0  0  0  0  0  0  0  0  0
  141.3009   78.3771  217.6573 H   0  0  0  0  0  0  0  0  0  0  0  0
  142.8451   74.4693  217.1278 H   0  0  0  0  0  0  0  0  0  0  0  0
  138.1270   77.0958  222.4840 H   0  0  0  0  0  0  0  0  0  0  0  0
  138.1599   79.4884  223.1490 H   0  0  0  0  0  0  0  0  0  0  0  0
  139.4615   81.4552  223.6684 H   0  0  0  0  0  0  0  0  0  0  0  0
  141.6686   82.5736  223.9293 H   0  0  0  0  0  0  0  0  0  0  0  0
  143.7440   81.3023  223.5258 H   0  0  0  0  0  0  0  0  0  0  0  0
  143.6777   78.9006  222.8570 H   0  0  0  0  0  0  0  0  0  0  0  0
  1  2  2  0
  2  3  1  0
  3  4  1  0
  4  5  1  0
  5  6  2  0
  5  7  1  0
  7  8  1  0
  8  9  1  0
  9 10  1  0
 10 11  1  0
 11 12  1  0
 12 13  1  0
 13 14  2  0
 14 15  1  0
 15 16  2  0
 16 17  1  0
 17 18  2  0
  2 19  1  0
 19 20  2  0
 20 21  1  0
 21 22  2  0
 22 23  1  0
 23 24  2  0
 24 25  1  0
 25 26  2  0
 26 27  1  0
 27 28  2  0
 12  7  1  0
 18 13  1  0
 28 19  1  0
 27 22  1  0
  3 29  1  0
  4 30  1  0
  4 31  1  0
  8 32  1  0
  8 33  1  0
  9 34  1  0
  9 35  1  0
 10 36  1  0
 10 37  1  0
 11 38  1  0
 11 39  1  0
 12 40  1  6
 14 41  1  0
 15 42  1  0
 16 43  1  0
 18 44  1  0
 20 45  1  0
 21 46  1  0
 23 47  1  0
 24 48  1  0
 25 49  1  0
 26 50  1  0
M  END
>  <smiles>  (42) 
O=C(NCC(=O)N1CCCCC1c1cccnc1)c1ccc2ccccc2n1

>  <score_type>  (42) 
oracle

>  <origin>  (42) 
autodockgpu

>  <m_score__min__energy>  (42) 
-8.9499999999999993

>  <m_primary>  (42) 
energy

>  <rmsd>  (42) 
7.731151929520873

>  <m_score__min__rmsd>  (42) 
7.731151929520873

>  <meeko>  (42) 
{"free_energy": -7.43, "intermolecular_energy": -8.92, "internal_energy": -2.25, "cluster_size": 18, "cluster_id": 2, "rank_in_cluster": 2}

>  <energy>  (42) 
-7.27

>  <cluster_rmsd>  (42) 
0.2

>  <cluster>  (42) 
3

$$$$

     RDKit          3D

 50 53  0  0  0  0  0  0  0  0999 V2000
  140.5430   76.8190  218.6030 O   0  0  0  0  0  0  0  0  0  0  0  0
  141.7040   76.8710  219.1370 C   0  0  0  0  0  0  0  0  0  0  0  0
  142.1890   78.1320  219.6290 N   0  0  0  0  0  0  0  0  0  0  0  0
  141.4610   79.3400  219.5560 C   0  0  0  0  0  0  0  0  0  0  0  0
  140.5130   79.7020  220.6050 C   0  0  0  0  0  0  0  0  0  0  0  0
  139.2760   79.7480  220.1890 O   0  0  0  0  0  0  0  0  0  0  0  0
  140.6940   80.0010  221.9540 N   0  0  0  0  0  0  0  0  0  0  0  0
  140.8070   81.3340  222.5350 C   0  0  0  0  0  0  0  0  0  0  0  0
  141.6430   81.2690  223.8120 C   0  0  0  0  0  0  0  0  0  0  0  0
  142.7720   80.3020  223.5720 C   0  0  0  0  0  0  0  0  0  0  0  0
  142.1660   78.9030  223.5580 C   0  0  0  0  0  0  0  0  0  0  0  0
  140.7990   78.9380  222.9600 C   0  0  2  0  0  0  0  0  0  0  0  0
  140.2340   77.6470  222.5830 C   0  0  0  0  0  0  0  0  0  0  0  0
  138.8630   77.4380  222.3910 C   0  0  0  0  0  0  0  0  0  0  0  0
  138.3570   76.2170  222.0040 C   0  0  0  0  0  0  0  0  0  0  0  0
  139.2020   75.1470  221.7910 C   0  0  0  0  0  0  0  0  0  0  0  0
  140.5080   75.3500  221.9750 N   0  0  0  0  0  0  0  0  0  0  0  0
  141.0290   76.5320  222.3530 C   0  0  0  0  0  0  0  0  0  0  0  0
  142.5320   75.6520  219.2460 C   0  0  0  0  0  0  0  0  0  0  0  0
  142.1180   74.5270  218.5700 C   0  0  0  0  0  0  0  0  0  0  0  0
  142.8420   73.3600  218.6290 C   0  0  0  0  0  0  0  0  0  0  0  0
  144.0080   73.3520  219.3940 C   0  0  0  0  0  0  0  0  0  0  0  0
  144.7620   72.2050  219.4800 C   0  0  0  0  0  0  0  0  0  0  0  0
  145.9170   72.1970  220.2390 C   0  0  0  0  0  0  0  0  0  0  0  0
  146.3020   73.3430  220.9020 C   0  0  0  0  0  0  0  0  0  0  0  0
  145.5610   74.5160  220.8350 C   0  0  0  0  0  0  0  0  0  0  0  0
  144.4180   74.5000  220.0760 C   0  0  0  0  0  0  0  0  0  0  0  0
  143.6620   75.6310  219.9830 N   0  0  0  0  0  0  0  0  0  0  0  0
  143.1640   78.0690  220.0600 H   0  0  0  0  0  0  0  0  0  0  0  0
  142.2022   80.1514  219.5084 H   0  0  0  0  0  0  0  0  0  0  0  0
  140.8120   79.1833  218.6818 H   0  0  0  0  0  0  0  0  0  0  0  0
  141.2928   82.0075  221.8136 H   0  0  0  0  0  0  0  0  0  0  0  0
  139.8029   81.7133  222.7755 H   0  0  0  0  0  0  0  0  0  0  0  0
  142.0465   82.2651  224.0466 H   0  0  0  0  0  0  0  0  0  0  0  0
  141.0257   80.9374  224.6599 H   0  0  0  0  0  0  0  0  0  0  0  0
  143.2528   80.5150  222.6058 H   0  0  0  0  0  0  0  0  0  0  0  0
  143.5376   80.3901  224.3569 H   0  0  0  0  0  0  0  0  0  0  0  0
  142.8061   78.2360  222.9619 H   0  0  0  0  0  0  0  0  0  0  0  0
  142.0957   78.5325  224.5913 H   0  0  0  0  0  0  0  0  0  0  0  0
  140.1136   79.2139  223.7749 H   0  0  0  0  0  0  0  0  0  0  0  0
  138.1684   78.2751  222.5544 H   0  0  0  0  0  0  0  0  0  0  0  0
  137.2729   76.0940  221.8638 H   0  0  0  0  0  0  0  0  0  0  0  0
  138.8142   74.1652  221.4817 H   0  0  0  0  0  0  0  0  0  0  0  0
  142.1179   76.6174  222.4837 H   0  0  0  0  0  0  0  0  0  0  0  0
  141.1943   74.5622  217.9738 H   0  0  0  0  0  0  0  0  0  0  0  0
  142.5118   72.4601  218.0894 H   0  0  0  0  0  0  0  0  0  0  0  0
  144.4466   71.2964  218.9461 H   0  0  0  0  0  0  0  0  0  0  0  0
  146.5246   71.2831  220.3136 H   0  0  0  0  0  0  0  0  0  0  0  0
  147.2238   73.3279  221.5021 H   0  0  0  0  0  0  0  0  0  0  0  0
  145.8784   75.4232  221.3700 H   0  0  0  0  0  0  0  0  0  0  0  0
  1  2  2  0
  2  3  1  0
  3  4  1  0
  4  5  1  0
  5  6  2  0
  5  7  1  0
  7  8  1  0
  8  9  1  0
  9 10  1  0
 10 11  1  0
 11 12  1  0
 12 13  1  0
 13 14  2  0
 14 15  1  0
 15 16  2  0
 16 17  1  0
 17 18  2  0
  2 19  1  0
 19 20  2  0
 20 21  1  0
 21 22  2  0
 22 23  1  0
 23 24  2  0
 24 25  1  0
 25 26  2  0
 26 27  1  0
 27 28  2  0
 12  7  1  0
 18 13  1  0
 28 19  1  0
 27 22  1  0
  3 29  1  0
  4 30  1  0
  4 31  1  0
  8 32  1  0
  8 33  1  0
  9 34  1  0
  9 35  1  0
 10 36  1  0
 10 37  1  0
 11 38  1  0
 11 39  1  0
 12 40  1  1
 14 41  1  0
 15 42  1  0
 16 43  1  0
 18 44  1  0
 20 45  1  0
 21 46  1  0
 23 47  1  0
 24 48  1  0
 25 49  1  0
 26 50  1  0
M  END
>  <smiles>  (43) 
O=C(NCC(=O)N1CCCCC1c1cccnc1)c1ccc2ccccc2n1

>  <score_type>  (43) 
oracle

>  <origin>  (43) 
autodockgpu

>  <m_score__min__energy>  (43) 
-8.9499999999999993

>  <m_primary>  (43) 
energy

>  <rmsd>  (43) 
7.5440968014502445

>  <m_score__min__rmsd>  (43) 
7.5440968014502445

>  <meeko>  (43) 
{"free_energy": -7.4, "intermolecular_energy": -8.89, "internal_energy": -2.48, "cluster_size": 24, "cluster_id": 3, "rank_in_cluster": 9}

>  <energy>  (43) 
-7.25

>  <cluster_rmsd>  (43) 
0.22

>  <cluster>  (43) 
3

$$$$

     RDKit          3D

 50 53  0  0  0  0  0  0  0  0999 V2000
  139.3780   74.1720  221.7270 O   0  0  0  0  0  0  0  0  0  0  0  0
  140.5520   74.6720  221.6410 C   0  0  0  0  0  0  0  0  0  0  0  0
  140.7540   76.0450  222.0170 N   0  0  0  0  0  0  0  0  0  0  0  0
  139.7250   76.8960  222.4760 C   0  0  0  0  0  0  0  0  0  0  0  0
  139.9620   78.3260  222.6450 C   0  0  0  0  0  0  0  0  0  0  0  0
  138.8630   79.0200  222.7800 O   0  0  0  0  0  0  0  0  0  0  0  0
  141.1390   79.0710  222.6900 N   0  0  0  0  0  0  0  0  0  0  0  0
  141.7830   79.5950  223.8890 C   0  0  0  0  0  0  0  0  0  0  0  0
  142.5760   80.8530  223.5390 C   0  0  0  0  0  0  0  0  0  0  0  0
  141.7680   81.6420  222.5430 C   0  0  0  0  0  0  0  0  0  0  0  0
  141.8310   80.8890  221.2190 C   0  0  0  0  0  0  0  0  0  0  0  0
  141.8670   79.4170  221.4640 C   0  0  2  0  0  0  0  0  0  0  0  0
  141.6010   78.5710  220.3060 C   0  0  0  0  0  0  0  0  0  0  0  0
  142.4330   77.5120  219.9230 C   0  0  0  0  0  0  0  0  0  0  0  0
  142.1430   76.7070  218.8450 C   0  0  0  0  0  0  0  0  0  0  0  0
  141.0040   76.9250  218.0960 C   0  0  0  0  0  0  0  0  0  0  0  0
  140.2130   77.9360  218.4630 N   0  0  0  0  0  0  0  0  0  0  0  0
  140.4720   78.7370  219.5130 C   0  0  0  0  0  0  0  0  0  0  0  0
  141.6820   73.8480  221.1640 C   0  0  0  0  0  0  0  0  0  0  0  0
  141.4300   72.5380  220.8260 C   0  0  0  0  0  0  0  0  0  0  0  0
  142.4360   71.7180  220.3760 C   0  0  0  0  0  0  0  0  0  0  0  0
  143.7190   72.2540  220.2700 C   0  0  0  0  0  0  0  0  0  0  0  0
  144.7550   71.4680  219.8230 C   0  0  0  0  0  0  0  0  0  0  0  0
  146.0270   71.9990  219.7200 C   0  0  0  0  0  0  0  0  0  0  0  0
  146.2420   73.3170  220.0660 C   0  0  0  0  0  0  0  0  0  0  0  0
  145.2170   74.1350  220.5210 C   0  0  0  0  0  0  0  0  0  0  0  0
  143.9630   73.5850  220.6160 C   0  0  0  0  0  0  0  0  0  0  0  0
  142.9290   74.3550  221.0580 N   0  0  0  0  0  0  0  0  0  0  0  0
  141.7670   76.3650  221.9150 H   0  0  0  0  0  0  0  0  0  0  0  0
  138.8937   76.7973  221.7625 H   0  0  0  0  0  0  0  0  0  0  0  0
  139.5622   76.5504  223.5075 H   0  0  0  0  0  0  0  0  0  0  0  0
  141.0160   79.8426  224.6376 H   0  0  0  0  0  0  0  0  0  0  0  0
  142.4659   78.8355  224.2975 H   0  0  0  0  0  0  0  0  0  0  0  0
  142.7441   81.4539  224.4449 H   0  0  0  0  0  0  0  0  0  0  0  0
  143.5550   80.5854  223.1148 H   0  0  0  0  0  0  0  0  0  0  0  0
  140.7247   81.7223  222.8823 H   0  0  0  0  0  0  0  0  0  0  0  0
  142.1676   82.6610  222.4337 H   0  0  0  0  0  0  0  0  0  0  0  0
  140.9432   81.1357  220.6182 H   0  0  0  0  0  0  0  0  0  0  0  0
  142.7433   81.1855  220.6806 H   0  0  0  0  0  0  0  0  0  0  0  0
  142.9210   79.1615  221.6477 H   0  0  0  0  0  0  0  0  0  0  0  0
  143.3476   77.3172  220.5022 H   0  0  0  0  0  0  0  0  0  0  0  0
  142.8232   75.8846  218.5785 H   0  0  0  0  0  0  0  0  0  0  0  0
  140.7580   76.2911  217.2314 H   0  0  0  0  0  0  0  0  0  0  0  0
  139.7682   79.5482  219.7509 H   0  0  0  0  0  0  0  0  0  0  0  0
  140.4079   72.1417  220.9175 H   0  0  0  0  0  0  0  0  0  0  0  0
  142.2356   70.6703  220.1074 H   0  0  0  0  0  0  0  0  0  0  0  0
  144.5718   70.4188  219.5479 H   0  0  0  0  0  0  0  0  0  0  0  0
  146.8610   71.3757  219.3651 H   0  0  0  0  0  0  0  0  0  0  0  0
  147.2568   73.7324  219.9786 H   0  0  0  0  0  0  0  0  0  0  0  0
  145.4026   75.1840  220.7950 H   0  0  0  0  0  0  0  0  0  0  0  0
  1  2  2  0
  2  3  1  0
  3  4  1  0
  4  5  1  0
  5  6  2  0
  5  7  1  0
  7  8  1  0
  8  9  1  0
  9 10  1  0
 10 11  1  0
 11 12  1  0
 12 13  1  0
 13 14  2  0
 14 15  1  0
 15 16  2  0
 16 17  1  0
 17 18  2  0
  2 19  1  0
 19 20  2  0
 20 21  1  0
 21 22  2  0
 22 23  1  0
 23 24  2  0
 24 25  1  0
 25 26  2  0
 26 27  1  0
 27 28  2  0
 12  7  1  0
 18 13  1  0
 28 19  1  0
 27 22  1  0
  3 29  1  0
  4 30  1  0
  4 31  1  0
  8 32  1  0
  8 33  1  0
  9 34  1  0
  9 35  1  0
 10 36  1  0
 10 37  1  0
 11 38  1  0
 11 39  1  0
 12 40  1  1
 14 41  1  0
 15 42  1  0
 16 43  1  0
 18 44  1  0
 20 45  1  0
 21 46  1  0
 23 47  1  0
 24 48  1  0
 25 49  1  0
 26 50  1  0
M  END
>  <smiles>  (44) 
O=C(NCC(=O)N1CCCCC1c1cccnc1)c1ccc2ccccc2n1

>  <score_type>  (44) 
oracle

>  <origin>  (44) 
autodockgpu

>  <m_score__min__energy>  (44) 
-8.9499999999999993

>  <m_primary>  (44) 
energy

>  <rmsd>  (44) 
6.498053044838485

>  <m_score__min__rmsd>  (44) 
6.498053044838485

>  <meeko>  (44) 
{"free_energy": -6.91, "intermolecular_energy": -8.4, "internal_energy": -2.24, "cluster_size": 1, "cluster_id": 4, "rank_in_cluster": 1}

>  <energy>  (44) 
-7.19

>  <cluster_rmsd>  (44) 
0.41

>  <cluster>  (44) 
3

$$$$

     RDKit          3D

 50 53  0  0  0  0  0  0  0  0999 V2000
  139.5670   73.5770  222.3970 O   0  0  0  0  0  0  0  0  0  0  0  0
  140.4130   72.6260  222.5290 C   0  0  0  0  0  0  0  0  0  0  0  0
  141.5100   72.5370  221.6040 N   0  0  0  0  0  0  0  0  0  0  0  0
  141.7190   73.4380  220.5380 C   0  0  0  0  0  0  0  0  0  0  0  0
  141.8900   74.8650  220.7920 C   0  0  0  0  0  0  0  0  0  0  0  0
  141.4710   75.2340  221.9730 O   0  0  0  0  0  0  0  0  0  0  0  0
  142.4190   75.8880  220.0080 N   0  0  0  0  0  0  0  0  0  0  0  0
  141.9080   77.2510  219.9070 C   0  0  0  0  0  0  0  0  0  0  0  0
  142.2610   77.8330  218.5390 C   0  0  0  0  0  0  0  0  0  0  0  0
  142.0910   76.7390  217.5190 C   0  0  0  0  0  0  0  0  0  0  0  0
  143.2440   75.7610  217.7170 C   0  0  0  0  0  0  0  0  0  0  0  0
  143.5980   75.6670  219.1640 C   0  0  2  0  0  0  0  0  0  0  0  0
  144.4490   74.5430  219.5410 C   0  0  0  0  0  0  0  0  0  0  0  0
  144.9420   74.3570  220.8380 C   0  0  0  0  0  0  0  0  0  0  0  0
  145.7170   73.2710  221.1760 C   0  0  0  0  0  0  0  0  0  0  0  0
  146.0360   72.3180  220.2300 C   0  0  0  0  0  0  0  0  0  0  0  0
  145.5640   72.4980  218.9940 N   0  0  0  0  0  0  0  0  0  0  0  0
  144.8050   73.5500  218.6370 C   0  0  0  0  0  0  0  0  0  0  0  0
  140.2620   71.6370  223.6160 C   0  0  0  0  0  0  0  0  0  0  0  0
  139.6430   70.4440  223.3220 C   0  0  0  0  0  0  0  0  0  0  0  0
  139.4700   69.4800  224.2870 C   0  0  0  0  0  0  0  0  0  0  0  0
  139.9420   69.7490  225.5710 C   0  0  0  0  0  0  0  0  0  0  0  0
  139.7900   68.8120  226.5670 C   0  0  0  0  0  0  0  0  0  0  0  0
  140.2580   69.0790  227.8400 C   0  0  0  0  0  0  0  0  0  0  0  0
  140.8740   70.2860  228.0970 C   0  0  0  0  0  0  0  0  0  0  0  0
  141.0410   71.2510  227.1130 C   0  0  0  0  0  0  0  0  0  0  0  0
  140.5690   70.9640  225.8580 C   0  0  0  0  0  0  0  0  0  0  0  0
  140.7140   71.8850  224.8630 N   0  0  0  0  0  0  0  0  0  0  0  0
  142.1610   71.7140  221.8010 H   0  0  0  0  0  0  0  0  0  0  0  0
  142.6260   73.1010  220.0148 H   0  0  0  0  0  0  0  0  0  0  0  0
  140.7647   73.3984  219.9924 H   0  0  0  0  0  0  0  0  0  0  0  0
  140.8149   77.2417  220.0295 H   0  0  0  0  0  0  0  0  0  0  0  0
  142.3626   77.8699  220.6946 H   0  0  0  0  0  0  0  0  0  0  0  0
  141.5895   78.6720  218.3041 H   0  0  0  0  0  0  0  0  0  0  0  0
  143.2955   78.2069  218.5345 H   0  0  0  0  0  0  0  0  0  0  0  0
  141.1301   76.2259  217.6720 H   0  0  0  0  0  0  0  0  0  0  0  0
  142.0958   77.1498  216.4986 H   0  0  0  0  0  0  0  0  0  0  0  0
  142.9448   74.7678  217.3509 H   0  0  0  0  0  0  0  0  0  0  0  0
  144.1194   76.1202  217.1561 H   0  0  0  0  0  0  0  0  0  0  0  0
  144.2848   76.5018  219.3675 H   0  0  0  0  0  0  0  0  0  0  0  0
  144.7025   75.1020  221.6110 H   0  0  0  0  0  0  0  0  0  0  0  0
  146.0846   73.1618  222.2070 H   0  0  0  0  0  0  0  0  0  0  0  0
  146.6546   71.4447  220.4842 H   0  0  0  0  0  0  0  0  0  0  0  0
  144.4554   73.6262  217.5968 H   0  0  0  0  0  0  0  0  0  0  0  0
  139.2812   70.2587  222.2999 H   0  0  0  0  0  0  0  0  0  0  0  0
  138.9746   68.5261  224.0532 H   0  0  0  0  0  0  0  0  0  0  0  0
  139.2972   67.8526  226.3508 H   0  0  0  0  0  0  0  0  0  0  0  0
  140.1401   68.3349  228.6415 H   0  0  0  0  0  0  0  0  0  0  0  0
  141.2442   70.4902  229.1125 H   0  0  0  0  0  0  0  0  0  0  0  0
  141.5335   72.2099  227.3319 H   0  0  0  0  0  0  0  0  0  0  0  0
  1  2  2  0
  2  3  1  0
  3  4  1  0
  4  5  1  0
  5  6  2  0
  5  7  1  0
  7  8  1  0
  8  9  1  0
  9 10  1  0
 10 11  1  0
 11 12  1  0
 12 13  1  0
 13 14  2  0
 14 15  1  0
 15 16  2  0
 16 17  1  0
 17 18  2  0
  2 19  1  0
 19 20  2  0
 20 21  1  0
 21 22  2  0
 22 23  1  0
 23 24  2  0
 24 25  1  0
 25 26  2  0
 26 27  1  0
 27 28  2  0
 12  7  1  0
 18 13  1  0
 28 19  1  0
 27 22  1  0
  3 29  1  0
  4 30  1  0
  4 31  1  0
  8 32  1  0
  8 33  1  0
  9 34  1  0
  9 35  1  0
 10 36  1  0
 10 37  1  0
 11 38  1  0
 11 39  1  0
 12 40  1  1
 14 41  1  0
 15 42  1  0
 16 43  1  0
 18 44  1  0
 20 45  1  0
 21 46  1  0
 23 47  1  0
 24 48  1  0
 25 49  1  0
 26 50  1  0
M  END
>  <smiles>  (45) 
O=C(NCC(=O)N1CCCCC1c1cccnc1)c1ccc2ccccc2n1

>  <score_type>  (45) 
oracle

>  <origin>  (45) 
autodockgpu

>  <m_score__min__energy>  (45) 
-8.9499999999999993

>  <m_primary>  (45) 
energy

>  <rmsd>  (45) 
2.695150567623523

>  <m_score__min__rmsd>  (45) 
2.695150567623523

>  <meeko>  (45) 
{"free_energy": -8.92, "intermolecular_energy": -10.41, "internal_energy": -1.08, "cluster_size": 7, "cluster_id": 1, "rank_in_cluster": 2}

>  <energy>  (45) 
-7.18

>  <cluster_rmsd>  (45) 
0.35

>  <cluster>  (45) 
3

$$$$

     RDKit          3D

 50 53  0  0  0  0  0  0  0  0999 V2000
  139.0360   74.9490  221.8520 O   0  0  0  0  0  0  0  0  0  0  0  0
  140.1720   75.5300  221.9500 C   0  0  0  0  0  0  0  0  0  0  0  0
  141.3640   74.7850  221.6460 N   0  0  0  0  0  0  0  0  0  0  0  0
  141.3670   73.4310  221.2450 C   0  0  0  0  0  0  0  0  0  0  0  0
  142.1000   73.0090  220.0560 C   0  0  0  0  0  0  0  0  0  0  0  0
  141.3240   72.5840  219.0940 O   0  0  0  0  0  0  0  0  0  0  0  0
  143.4630   72.9830  219.7690 N   0  0  0  0  0  0  0  0  0  0  0  0
  144.3150   71.8000  219.7310 C   0  0  0  0  0  0  0  0  0  0  0  0
  145.7530   72.1900  220.0670 C   0  0  0  0  0  0  0  0  0  0  0  0
  145.7040   73.2190  221.1640 C   0  0  0  0  0  0  0  0  0  0  0  0
  145.1970   74.5140  220.5400 C   0  0  0  0  0  0  0  0  0  0  0  0
  144.2010   74.2150  219.4700 C   0  0  2  0  0  0  0  0  0  0  0  0
  143.3960   75.3440  219.0140 C   0  0  0  0  0  0  0  0  0  0  0  0
  143.2210   76.5130  219.7640 C   0  0  0  0  0  0  0  0  0  0  0  0
  142.4830   77.5770  219.2970 C   0  0  0  0  0  0  0  0  0  0  0  0
  141.8830   77.5210  218.0550 C   0  0  0  0  0  0  0  0  0  0  0  0
  142.0520   76.4040  217.3430 N   0  0  0  0  0  0  0  0  0  0  0  0
  142.7680   75.3500  217.7740 C   0  0  0  0  0  0  0  0  0  0  0  0
  140.2540   76.9440  222.3700 C   0  0  0  0  0  0  0  0  0  0  0  0
  139.0780   77.6210  222.5940 C   0  0  0  0  0  0  0  0  0  0  0  0
  139.0840   78.9390  222.9860 C   0  0  0  0  0  0  0  0  0  0  0  0
  140.3180   79.5660  223.1500 C   0  0  0  0  0  0  0  0  0  0  0  0
  140.3690   80.8840  223.5420 C   0  0  0  0  0  0  0  0  0  0  0  0
  141.5930   81.5060  223.7040 C   0  0  0  0  0  0  0  0  0  0  0  0
  142.7520   80.7950  223.4700 C   0  0  0  0  0  0  0  0  0  0  0  0
  142.7320   79.4650  223.0740 C   0  0  0  0  0  0  0  0  0  0  0  0
  141.5060   78.8690  222.9200 C   0  0  0  0  0  0  0  0  0  0  0  0
  141.4430   77.5630  222.5320 N   0  0  0  0  0  0  0  0  0  0  0  0
  142.2570   75.3590  221.7530 H   0  0  0  0  0  0  0  0  0  0  0  0
  141.7761   72.8544  222.0877 H   0  0  0  0  0  0  0  0  0  0  0  0
  140.3185   73.2561  220.9622 H   0  0  0  0  0  0  0  0  0  0  0  0
  143.9540   71.0657  220.4662 H   0  0  0  0  0  0  0  0  0  0  0  0
  144.2829   71.3603  218.7232 H   0  0  0  0  0  0  0  0  0  0  0  0
  146.3111   71.3055  220.4078 H   0  0  0  0  0  0  0  0  0  0  0  0
  146.2590   72.5973  219.1793 H   0  0  0  0  0  0  0  0  0  0  0  0
  145.0195   72.8901  221.9598 H   0  0  0  0  0  0  0  0  0  0  0  0
  146.6986   73.3626  221.6114 H   0  0  0  0  0  0  0  0  0  0  0  0
  144.7213   75.1300  221.3173 H   0  0  0  0  0  0  0  0  0  0  0  0
  146.0462   75.0562  220.0985 H   0  0  0  0  0  0  0  0  0  0  0  0
  144.7814   74.0140  218.5575 H   0  0  0  0  0  0  0  0  0  0  0  0
  143.6878   76.5835  220.7576 H   0  0  0  0  0  0  0  0  0  0  0  0
  142.3706   78.4781  219.9178 H   0  0  0  0  0  0  0  0  0  0  0  0
  141.2897   78.3624  217.6675 H   0  0  0  0  0  0  0  0  0  0  0  0
  142.8593   74.4661  217.1256 H   0  0  0  0  0  0  0  0  0  0  0  0
  138.1186   77.1005  222.4576 H   0  0  0  0  0  0  0  0  0  0  0  0
  138.1440   79.4817  223.1646 H   0  0  0  0  0  0  0  0  0  0  0  0
  139.4385   81.4411  223.7260 H   0  0  0  0  0  0  0  0  0  0  0  0
  141.6425   82.5594  224.0170 H   0  0  0  0  0  0  0  0  0  0  0  0
  143.7216   81.2977  223.6013 H   0  0  0  0  0  0  0  0  0  0  0  0
  143.6637   78.9098  222.8906 H   0  0  0  0  0  0  0  0  0  0  0  0
  1  2  2  0
  2  3  1  0
  3  4  1  0
  4  5  1  0
  5  6  2  0
  5  7  1  0
  7  8  1  0
  8  9  1  0
  9 10  1  0
 10 11  1  0
 11 12  1  0
 12 13  1  0
 13 14  2  0
 14 15  1  0
 15 16  2  0
 16 17  1  0
 17 18  2  0
  2 19  1  0
 19 20  2  0
 20 21  1  0
 21 22  2  0
 22 23  1  0
 23 24  2  0
 24 25  1  0
 25 26  2  0
 26 27  1  0
 27 28  2  0
 12  7  1  0
 18 13  1  0
 28 19  1  0
 27 22  1  0
  3 29  1  0
  4 30  1  0
  4 31  1  0
  8 32  1  0
  8 33  1  0
  9 34  1  0
  9 35  1  0
 10 36  1  0
 10 37  1  0
 11 38  1  0
 11 39  1  0
 12 40  1  6
 14 41  1  0
 15 42  1  0
 16 43  1  0
 18 44  1  0
 20 45  1  0
 21 46  1  0
 23 47  1  0
 24 48  1  0
 25 49  1  0
 26 50  1  0
M  END
>  <smiles>  (46) 
O=C(NCC(=O)N1CCCCC1c1cccnc1)c1ccc2ccccc2n1

>  <score_type>  (46) 
oracle

>  <origin>  (46) 
autodockgpu

>  <m_score__min__energy>  (46) 
-8.9499999999999993

>  <m_primary>  (46) 
energy

>  <rmsd>  (46) 
7.723965124101707

>  <m_score__min__rmsd>  (46) 
7.723965124101707

>  <meeko>  (46) 
{"free_energy": -7.42, "intermolecular_energy": -8.91, "internal_energy": -2.29, "cluster_size": 18, "cluster_id": 2, "rank_in_cluster": 4}

>  <energy>  (46) 
-7.17

>  <cluster_rmsd>  (46) 
0.53

>  <cluster>  (46) 
3

$$$$

     RDKit          3D

 50 53  0  0  0  0  0  0  0  0999 V2000
  140.4600   76.7990  218.9340 O   0  0  0  0  0  0  0  0  0  0  0  0
  141.6950   76.8830  219.2540 C   0  0  0  0  0  0  0  0  0  0  0  0
  142.2500   78.1740  219.5580 N   0  0  0  0  0  0  0  0  0  0  0  0
  141.5140   79.3780  219.5190 C   0  0  0  0  0  0  0  0  0  0  0  0
  140.5630   79.7030  220.5770 C   0  0  0  0  0  0  0  0  0  0  0  0
  139.3190   79.6800  220.1780 O   0  0  0  0  0  0  0  0  0  0  0  0
  140.7460   80.0270  221.9200 N   0  0  0  0  0  0  0  0  0  0  0  0
  140.8810   81.3700  222.4740 C   0  0  0  0  0  0  0  0  0  0  0  0
  141.7130   81.3180  223.7530 C   0  0  0  0  0  0  0  0  0  0  0  0
  142.8260   80.3270  223.5360 C   0  0  0  0  0  0  0  0  0  0  0  0
  142.1970   78.9380  223.5500 C   0  0  0  0  0  0  0  0  0  0  0  0
  140.8320   78.9840  222.9480 C   0  0  2  0  0  0  0  0  0  0  0  0
  140.2450   77.6950  222.5970 C   0  0  0  0  0  0  0  0  0  0  0  0
  138.8680   77.4980  222.4380 C   0  0  0  0  0  0  0  0  0  0  0  0
  138.3420   76.2790  222.0750 C   0  0  0  0  0  0  0  0  0  0  0  0
  139.1700   75.1980  221.8540 C   0  0  0  0  0  0  0  0  0  0  0  0
  140.4820   75.3890  222.0080 N   0  0  0  0  0  0  0  0  0  0  0  0
  141.0230   76.5690  222.3610 C   0  0  0  0  0  0  0  0  0  0  0  0
  142.5360   75.6690  219.3120 C   0  0  0  0  0  0  0  0  0  0  0  0
  142.1290   74.5660  218.5970 C   0  0  0  0  0  0  0  0  0  0  0  0
  142.8650   73.4050  218.6070 C   0  0  0  0  0  0  0  0  0  0  0  0
  144.0370   73.3810  219.3640 C   0  0  0  0  0  0  0  0  0  0  0  0
  144.8030   72.2400  219.4010 C   0  0  0  0  0  0  0  0  0  0  0  0
  145.9640   72.2160  220.1510 C   0  0  0  0  0  0  0  0  0  0  0  0
  146.3410   73.3400  220.8550 C   0  0  0  0  0  0  0  0  0  0  0  0
  145.5880   74.5060  220.8360 C   0  0  0  0  0  0  0  0  0  0  0  0
  144.4400   74.5070  220.0850 C   0  0  0  0  0  0  0  0  0  0  0  0
  143.6720   75.6320  220.0400 N   0  0  0  0  0  0  0  0  0  0  0  0
  143.2850   78.1360  219.8180 H   0  0  0  0  0  0  0  0  0  0  0  0
  142.2496   80.1956  219.4953 H   0  0  0  0  0  0  0  0  0  0  0  0
  140.8668   79.2421  218.6400 H   0  0  0  0  0  0  0  0  0  0  0  0
  141.3794   82.0200  221.7398 H   0  0  0  0  0  0  0  0  0  0  0  0
  139.8829   81.7708  222.7048 H   0  0  0  0  0  0  0  0  0  0  0  0
  142.1329   82.3119  223.9673 H   0  0  0  0  0  0  0  0  0  0  0  0
  141.0886   81.0149  224.6064 H   0  0  0  0  0  0  0  0  0  0  0  0
  143.3121   80.5115  222.5667 H   0  0  0  0  0  0  0  0  0  0  0  0
  143.5912   80.4188  224.3209 H   0  0  0  0  0  0  0  0  0  0  0  0
  142.8270   78.2480  222.9695 H   0  0  0  0  0  0  0  0  0  0  0  0
  142.1187   78.5900  224.5906 H   0  0  0  0  0  0  0  0  0  0  0  0
  140.1507   79.2892  223.7559 H   0  0  0  0  0  0  0  0  0  0  0  0
  138.1854   78.3436  222.6085 H   0  0  0  0  0  0  0  0  0  0  0  0
  137.2538   76.1660  221.9603 H   0  0  0  0  0  0  0  0  0  0  0  0
  138.7651   74.2176  221.5625 H   0  0  0  0  0  0  0  0  0  0  0  0
  142.1154   76.6444  222.4660 H   0  0  0  0  0  0  0  0  0  0  0  0
  141.2008   74.6140  218.0086 H   0  0  0  0  0  0  0  0  0  0  0  0
  142.5403   72.5226  218.0362 H   0  0  0  0  0  0  0  0  0  0  0  0
  144.4930   71.3488  218.8355 H   0  0  0  0  0  0  0  0  0  0  0  0
  146.5825   71.3070  220.1859 H   0  0  0  0  0  0  0  0  0  0  0  0
  147.2661   73.3119  221.4495 H   0  0  0  0  0  0  0  0  0  0  0  0
  145.9002   75.3960  221.4020 H   0  0  0  0  0  0  0  0  0  0  0  0
  1  2  2  0
  2  3  1  0
  3  4  1  0
  4  5  1  0
  5  6  2  0
  5  7  1  0
  7  8  1  0
  8  9  1  0
  9 10  1  0
 10 11  1  0
 11 12  1  0
 12 13  1  0
 13 14  2  0
 14 15  1  0
 15 16  2  0
 16 17  1  0
 17 18  2  0
  2 19  1  0
 19 20  2  0
 20 21  1  0
 21 22  2  0
 22 23  1  0
 23 24  2  0
 24 25  1  0
 25 26  2  0
 26 27  1  0
 27 28  2  0
 12  7  1  0
 18 13  1  0
 28 19  1  0
 27 22  1  0
  3 29  1  0
  4 30  1  0
  4 31  1  0
  8 32  1  0
  8 33  1  0
  9 34  1  0
  9 35  1  0
 10 36  1  0
 10 37  1  0
 11 38  1  0
 11 39  1  0
 12 40  1  1
 14 41  1  0
 15 42  1  0
 16 43  1  0
 18 44  1  0
 20 45  1  0
 21 46  1  0
 23 47  1  0
 24 48  1  0
 25 49  1  0
 26 50  1  0
M  END
>  <smiles>  (47) 
O=C(NCC(=O)N1CCCCC1c1cccnc1)c1ccc2ccccc2n1

>  <score_type>  (47) 
oracle

>  <origin>  (47) 
autodockgpu

>  <m_score__min__energy>  (47) 
-8.9499999999999993

>  <m_primary>  (47) 
energy

>  <rmsd>  (47) 
7.575882789449167

>  <m_score__min__rmsd>  (47) 
7.575882789449167

>  <meeko>  (47) 
{"free_energy": -7.45, "intermolecular_energy": -8.94, "internal_energy": -2.42, "cluster_size": 24, "cluster_id": 3, "rank_in_cluster": 1}

>  <energy>  (47) 
-7.12

>  <cluster_rmsd>  (47) 
0.64

>  <cluster>  (47) 
3

$$$$

     RDKit          3D

 50 53  0  0  0  0  0  0  0  0999 V2000
  139.0380   74.9500  221.9020 O   0  0  0  0  0  0  0  0  0  0  0  0
  140.1710   75.5400  221.9580 C   0  0  0  0  0  0  0  0  0  0  0  0
  141.3570   74.8050  221.6130 N   0  0  0  0  0  0  0  0  0  0  0  0
  141.3580   73.4510  221.2140 C   0  0  0  0  0  0  0  0  0  0  0  0
  142.0810   73.0260  220.0200 C   0  0  0  0  0  0  0  0  0  0  0  0
  141.2960   72.6200  219.0580 O   0  0  0  0  0  0  0  0  0  0  0  0
  143.4430   72.9820  219.7290 N   0  0  0  0  0  0  0  0  0  0  0  0
  144.2780   71.7870  219.6850 C   0  0  0  0  0  0  0  0  0  0  0  0
  145.7220   72.1550  220.0170 C   0  0  0  0  0  0  0  0  0  0  0  0
  145.6910   73.1820  221.1180 C   0  0  0  0  0  0  0  0  0  0  0  0
  145.2000   74.4860  220.5000 C   0  0  0  0  0  0  0  0  0  0  0  0
  144.1960   74.2050  219.4320 C   0  0  2  0  0  0  0  0  0  0  0  0
  143.4060   75.3460  218.9820 C   0  0  0  0  0  0  0  0  0  0  0  0
  142.7170   75.3680  217.7630 C   0  0  0  0  0  0  0  0  0  0  0  0
  141.9520   76.4450  217.3760 C   0  0  0  0  0  0  0  0  0  0  0  0
  141.8400   77.5520  218.1920 C   0  0  0  0  0  0  0  0  0  0  0  0
  142.4990   77.5280  219.3530 N   0  0  0  0  0  0  0  0  0  0  0  0
  143.2530   76.4890  219.7560 C   0  0  0  0  0  0  0  0  0  0  0  0
  140.2570   76.9570  222.3730 C   0  0  0  0  0  0  0  0  0  0  0  0
  139.0820   77.6370  222.5960 C   0  0  0  0  0  0  0  0  0  0  0  0
  139.0910   78.9560  222.9830 C   0  0  0  0  0  0  0  0  0  0  0  0
  140.3270   79.5810  223.1420 C   0  0  0  0  0  0  0  0  0  0  0  0
  140.3810   80.9000  223.5290 C   0  0  0  0  0  0  0  0  0  0  0  0
  141.6070   81.5210  223.6860 C   0  0  0  0  0  0  0  0  0  0  0  0
  142.7640   80.8070  223.4540 C   0  0  0  0  0  0  0  0  0  0  0  0
  142.7400   79.4750  223.0630 C   0  0  0  0  0  0  0  0  0  0  0  0
  141.5130   78.8810  222.9130 C   0  0  0  0  0  0  0  0  0  0  0  0
  141.4470   77.5740  222.5300 N   0  0  0  0  0  0  0  0  0  0  0  0
  142.2490   75.3870  221.6870 H   0  0  0  0  0  0  0  0  0  0  0  0
  141.7744   72.8763  222.0544 H   0  0  0  0  0  0  0  0  0  0  0  0
  140.3073   73.2760  220.9393 H   0  0  0  0  0  0  0  0  0  0  0  0
  143.9090   71.0560  220.4194 H   0  0  0  0  0  0  0  0  0  0  0  0
  144.2363   71.3507  218.6761 H   0  0  0  0  0  0  0  0  0  0  0  0
  146.2685   71.2616  220.3533 H   0  0  0  0  0  0  0  0  0  0  0  0
  146.2311   72.5575  219.1288 H   0  0  0  0  0  0  0  0  0  0  0  0
  145.0047   72.8602  221.9151 H   0  0  0  0  0  0  0  0  0  0  0  0
  146.6891   73.3104  221.5622 H   0  0  0  0  0  0  0  0  0  0  0  0
  144.7356   75.1059  221.2811 H   0  0  0  0  0  0  0  0  0  0  0  0
  146.0553   75.0175  220.0573 H   0  0  0  0  0  0  0  0  0  0  0  0
  144.7701   74.0000  218.5164 H   0  0  0  0  0  0  0  0  0  0  0  0
  142.7893   74.4978  217.0941 H   0  0  0  0  0  0  0  0  0  0  0  0
  141.4265   76.4230  216.4099 H   0  0  0  0  0  0  0  0  0  0  0  0
  141.2318   78.4200  217.8977 H   0  0  0  0  0  0  0  0  0  0  0  0
  143.7640   76.5466  220.7284 H   0  0  0  0  0  0  0  0  0  0  0  0
  138.1215   77.1177  222.4627 H   0  0  0  0  0  0  0  0  0  0  0  0
  138.1525   79.5012  223.1616 H   0  0  0  0  0  0  0  0  0  0  0  0
  139.4518   81.4593  223.7131 H   0  0  0  0  0  0  0  0  0  0  0  0
  141.6588   82.5759  223.9934 H   0  0  0  0  0  0  0  0  0  0  0  0
  143.7349   81.3079  223.5826 H   0  0  0  0  0  0  0  0  0  0  0  0
  143.6702   78.9170  222.8804 H   0  0  0  0  0  0  0  0  0  0  0  0
  1  2  2  0
  2  3  1  0
  3  4  1  0
  4  5  1  0
  5  6  2  0
  5  7  1  0
  7  8  1  0
  8  9  1  0
  9 10  1  0
 10 11  1  0
 11 12  1  0
 12 13  1  0
 13 14  2  0
 14 15  1  0
 15 16  2  0
 16 17  1  0
 17 18  2  0
  2 19  1  0
 19 20  2  0
 20 21  1  0
 21 22  2  0
 22 23  1  0
 23 24  2  0
 24 25  1  0
 25 26  2  0
 26 27  1  0
 27 28  2  0
 12  7  1  0
 18 13  1  0
 28 19  1  0
 27 22  1  0
  3 29  1  0
  4 30  1  0
  4 31  1  0
  8 32  1  0
  8 33  1  0
  9 34  1  0
  9 35  1  0
 10 36  1  0
 10 37  1  0
 11 38  1  0
 11 39  1  0
 12 40  1  6
 14 41  1  0
 15 42  1  0
 16 43  1  0
 18 44  1  0
 20 45  1  0
 21 46  1  0
 23 47  1  0
 24 48  1  0
 25 49  1  0
 26 50  1  0
M  END
>  <smiles>  (48) 
O=C(NCC(=O)N1CCCCC1c1cccnc1)c1ccc2ccccc2n1

>  <score_type>  (48) 
oracle

>  <origin>  (48) 
autodockgpu

>  <m_score__min__energy>  (48) 
-8.9499999999999993

>  <m_primary>  (48) 
energy

>  <rmsd>  (48) 
7.729503938943413

>  <m_score__min__rmsd>  (48) 
7.729503938943413

>  <meeko>  (48) 
{"free_energy": -7.33, "intermolecular_energy": -8.82, "internal_energy": -2.31, "cluster_size": 18, "cluster_id": 2, "rank_in_cluster": 13}

>  <energy>  (48) 
-7.11

>  <cluster_rmsd>  (48) 
0.54

>  <cluster>  (48) 
3

$$$$

     RDKit          3D

 50 53  0  0  0  0  0  0  0  0999 V2000
  139.0220   74.9500  221.8270 O   0  0  0  0  0  0  0  0  0  0  0  0
  140.1610   75.5250  221.9200 C   0  0  0  0  0  0  0  0  0  0  0  0
  141.3480   74.7750  221.6130 N   0  0  0  0  0  0  0  0  0  0  0  0
  141.3440   73.4200  221.2140 C   0  0  0  0  0  0  0  0  0  0  0  0
  142.0820   72.9900  220.0300 C   0  0  0  0  0  0  0  0  0  0  0  0
  141.3100   72.5510  219.0720 O   0  0  0  0  0  0  0  0  0  0  0  0
  143.4460   72.9700  219.7460 N   0  0  0  0  0  0  0  0  0  0  0  0
  144.3030   71.7900  219.7130 C   0  0  0  0  0  0  0  0  0  0  0  0
  145.7380   72.1870  220.0500 C   0  0  0  0  0  0  0  0  0  0  0  0
  145.6830   73.2180  221.1460 C   0  0  0  0  0  0  0  0  0  0  0  0
  145.1720   74.5090  220.5190 C   0  0  0  0  0  0  0  0  0  0  0  0
  144.1780   74.2050  219.4470 C   0  0  2  0  0  0  0  0  0  0  0  0
  143.3700   75.3290  218.9870 C   0  0  0  0  0  0  0  0  0  0  0  0
  143.2120   76.5100  219.7220 C   0  0  0  0  0  0  0  0  0  0  0  0
  142.4690   77.5690  219.2510 C   0  0  0  0  0  0  0  0  0  0  0  0
  141.8480   77.4960  218.0210 C   0  0  0  0  0  0  0  0  0  0  0  0
  142.0010   76.3680  217.3240 N   0  0  0  0  0  0  0  0  0  0  0  0
  142.7210   75.3180  217.7590 C   0  0  0  0  0  0  0  0  0  0  0  0
  140.2520   76.9400  222.3370 C   0  0  0  0  0  0  0  0  0  0  0  0
  139.0790   77.6260  222.5540 C   0  0  0  0  0  0  0  0  0  0  0  0
  139.0920   78.9440  222.9430 C   0  0  0  0  0  0  0  0  0  0  0  0
  140.3310   79.5630  223.1120 C   0  0  0  0  0  0  0  0  0  0  0  0
  140.3890   80.8810  223.5020 C   0  0  0  0  0  0  0  0  0  0  0  0
  141.6170   81.4940  223.6690 C   0  0  0  0  0  0  0  0  0  0  0  0
  142.7720   80.7750  223.4440 C   0  0  0  0  0  0  0  0  0  0  0  0
  142.7440   79.4440  223.0500 C   0  0  0  0  0  0  0  0  0  0  0  0
  141.5140   78.8560  222.8900 C   0  0  0  0  0  0  0  0  0  0  0  0
  141.4440   77.5510  222.5050 N   0  0  0  0  0  0  0  0  0  0  0  0
  142.2450   75.3450  221.7160 H   0  0  0  0  0  0  0  0  0  0  0  0
  141.7433   72.8419  222.0604 H   0  0  0  0  0  0  0  0  0  0  0  0
  140.2961   73.2526  220.9243 H   0  0  0  0  0  0  0  0  0  0  0  0
  143.9438   71.0565  220.4499 H   0  0  0  0  0  0  0  0  0  0  0  0
  144.2743   71.3469  218.7066 H   0  0  0  0  0  0  0  0  0  0  0  0
  146.2998   71.3056  220.3928 H   0  0  0  0  0  0  0  0  0  0  0  0
  146.2431   72.5954  219.1622 H   0  0  0  0  0  0  0  0  0  0  0  0
  144.9985   72.8877  221.9412 H   0  0  0  0  0  0  0  0  0  0  0  0
  146.6761   73.3664  221.5951 H   0  0  0  0  0  0  0  0  0  0  0  0
  144.6928   75.1245  221.2946 H   0  0  0  0  0  0  0  0  0  0  0  0
  146.0200   75.0531  220.0776 H   0  0  0  0  0  0  0  0  0  0  0  0
  144.7604   74.0066  218.5352 H   0  0  0  0  0  0  0  0  0  0  0  0
  143.6964   76.5944  220.7060 H   0  0  0  0  0  0  0  0  0  0  0  0
  142.3697   78.4799  219.8596 H   0  0  0  0  0  0  0  0  0  0  0  0
  141.2511   78.3334  217.6307 H   0  0  0  0  0  0  0  0  0  0  0  0
  142.7980   74.4238  217.1230 H   0  0  0  0  0  0  0  0  0  0  0  0
  138.1167   77.1118  222.4140 H   0  0  0  0  0  0  0  0  0  0  0  0
  138.1550   79.4937  223.1157 H   0  0  0  0  0  0  0  0  0  0  0  0
  139.4617   81.4452  223.6803 H   0  0  0  0  0  0  0  0  0  0  0  0
  141.6723   82.5479  223.9792 H   0  0  0  0  0  0  0  0  0  0  0  0
  143.7444   81.2707  223.5807 H   0  0  0  0  0  0  0  0  0  0  0  0
  143.6727   78.8817  222.8727 H   0  0  0  0  0  0  0  0  0  0  0  0
  1  2  2  0
  2  3  1  0
  3  4  1  0
  4  5  1  0
  5  6  2  0
  5  7  1  0
  7  8  1  0
  8  9  1  0
  9 10  1  0
 10 11  1  0
 11 12  1  0
 12 13  1  0
 13 14  2  0
 14 15  1  0
 15 16  2  0
 16 17  1  0
 17 18  2  0
  2 19  1  0
 19 20  2  0
 20 21  1  0
 21 22  2  0
 22 23  1  0
 23 24  2  0
 24 25  1  0
 25 26  2  0
 26 27  1  0
 27 28  2  0
 12  7  1  0
 18 13  1  0
 28 19  1  0
 27 22  1  0
  3 29  1  0
  4 30  1  0
  4 31  1  0
  8 32  1  0
  8 33  1  0
  9 34  1  0
  9 35  1  0
 10 36  1  0
 10 37  1  0
 11 38  1  0
 11 39  1  0
 12 40  1  6
 14 41  1  0
 15 42  1  0
 16 43  1  0
 18 44  1  0
 20 45  1  0
 21 46  1  0
 23 47  1  0
 24 48  1  0
 25 49  1  0
 26 50  1  0
M  END
>  <smiles>  (49) 
O=C(NCC(=O)N1CCCCC1c1cccnc1)c1ccc2ccccc2n1

>  <score_type>  (49) 
oracle

>  <origin>  (49) 
autodockgpu

>  <m_score__min__energy>  (49) 
-8.9499999999999993

>  <m_primary>  (49) 
energy

>  <rmsd>  (49) 
7.7209369127709255

>  <m_score__min__rmsd>  (49) 
7.7209369127709255

>  <meeko>  (49) 
{"free_energy": -7.43, "intermolecular_energy": -8.92, "internal_energy": -2.29, "cluster_size": 18, "cluster_id": 2, "rank_in_cluster": 3}

>  <energy>  (49) 
-7.08

>  <cluster_rmsd>  (49) 
0.54

>  <cluster>  (49) 
3

$$$$

     RDKit          3D

 50 53  0  0  0  0  0  0  0  0999 V2000
  138.9710   74.9910  221.7960 O   0  0  0  0  0  0  0  0  0  0  0  0
  140.1220   75.5320  221.9320 C   0  0  0  0  0  0  0  0  0  0  0  0
  141.2970   74.7530  221.6480 N   0  0  0  0  0  0  0  0  0  0  0  0
  141.2660   73.4050  221.2270 C   0  0  0  0  0  0  0  0  0  0  0  0
  142.0100   72.9760  220.0470 C   0  0  0  0  0  0  0  0  0  0  0  0
  141.2460   72.5150  219.0940 O   0  0  0  0  0  0  0  0  0  0  0  0
  143.3740   72.9760  219.7620 N   0  0  0  0  0  0  0  0  0  0  0  0
  144.2460   71.8080  219.7150 C   0  0  0  0  0  0  0  0  0  0  0  0
  145.6770   72.2190  220.0560 C   0  0  0  0  0  0  0  0  0  0  0  0
  145.6090   73.2370  221.1640 C   0  0  0  0  0  0  0  0  0  0  0  0
  145.0810   74.5290  220.5510 C   0  0  0  0  0  0  0  0  0  0  0  0
  144.0910   74.2240  219.4760 C   0  0  2  0  0  0  0  0  0  0  0  0
  143.2680   75.3430  219.0300 C   0  0  0  0  0  0  0  0  0  0  0  0
  143.1420   76.5370  219.7500 C   0  0  0  0  0  0  0  0  0  0  0  0
  142.3840   77.5900  219.2910 C   0  0  0  0  0  0  0  0  0  0  0  0
  141.7150   77.4980  218.0880 C   0  0  0  0  0  0  0  0  0  0  0  0
  141.8360   76.3580  217.4040 N   0  0  0  0  0  0  0  0  0  0  0  0
  142.5710   75.3130  217.8290 C   0  0  0  0  0  0  0  0  0  0  0  0
  140.2400   76.9370  222.3750 C   0  0  0  0  0  0  0  0  0  0  0  0
  139.0830   77.6260  222.6530 C   0  0  0  0  0  0  0  0  0  0  0  0
  139.1210   78.9360  223.0690 C   0  0  0  0  0  0  0  0  0  0  0  0
  140.3700   79.5430  223.2000 C   0  0  0  0  0  0  0  0  0  0  0  0
  140.4540   80.8520  223.6140 C   0  0  0  0  0  0  0  0  0  0  0  0
  141.6920   81.4540  223.7430 C   0  0  0  0  0  0  0  0  0  0  0  0
  142.8310   80.7320  223.4560 C   0  0  0  0  0  0  0  0  0  0  0  0
  142.7780   79.4090  223.0360 C   0  0  0  0  0  0  0  0  0  0  0  0
  141.5380   78.8330  222.9150 C   0  0  0  0  0  0  0  0  0  0  0  0
  141.4430   77.5360  222.5050 N   0  0  0  0  0  0  0  0  0  0  0  0
  142.2050   75.2950  221.7860 H   0  0  0  0  0  0  0  0  0  0  0  0
  141.6391   72.8040  222.0694 H   0  0  0  0  0  0  0  0  0  0  0  0
  140.2187   73.2679  220.9200 H   0  0  0  0  0  0  0  0  0  0  0  0
  143.8967   71.0615  220.4435 H   0  0  0  0  0  0  0  0  0  0  0  0
  144.2224   71.3766  218.7034 H   0  0  0  0  0  0  0  0  0  0  0  0
  146.2499   71.3409  220.3886 H   0  0  0  0  0  0  0  0  0  0  0  0
  146.1769   72.6434  219.1728 H   0  0  0  0  0  0  0  0  0  0  0  0
  144.9289   72.8890  221.9554 H   0  0  0  0  0  0  0  0  0  0  0  0
  146.6001   73.3930  221.6149 H   0  0  0  0  0  0  0  0  0  0  0  0
  144.5940   75.1297  221.3333 H   0  0  0  0  0  0  0  0  0  0  0  0
  145.9218   75.0889  220.1156 H   0  0  0  0  0  0  0  0  0  0  0  0
  144.6755   74.0427  218.5619 H   0  0  0  0  0  0  0  0  0  0  0  0
  143.6651   76.6366  220.7125 H   0  0  0  0  0  0  0  0  0  0  0  0
  142.3111   78.5114  219.8875 H   0  0  0  0  0  0  0  0  0  0  0  0
  141.1059   78.3312  217.7074 H   0  0  0  0  0  0  0  0  0  0  0  0
  142.6210   74.4078  217.2060 H   0  0  0  0  0  0  0  0  0  0  0  0
  138.1120   77.1214  222.5409 H   0  0  0  0  0  0  0  0  0  0  0  0
  138.1958   79.4878  223.2914 H   0  0  0  0  0  0  0  0  0  0  0  0
  139.5389   81.4183  223.8418 H   0  0  0  0  0  0  0  0  0  0  0  0
  141.7676   82.5009  224.0721 H   0  0  0  0  0  0  0  0  0  0  0  0
  143.8117   81.2186  223.5629 H   0  0  0  0  0  0  0  0  0  0  0  0
  143.6945   78.8446  222.8091 H   0  0  0  0  0  0  0  0  0  0  0  0
  1  2  2  0
  2  3  1  0
  3  4  1  0
  4  5  1  0
  5  6  2  0
  5  7  1  0
  7  8  1  0
  8  9  1  0
  9 10  1  0
 10 11  1  0
 11 12  1  0
 12 13  1  0
 13 14  2  0
 14 15  1  0
 15 16  2  0
 16 17  1  0
 17 18  2  0
  2 19  1  0
 19 20  2  0
 20 21  1  0
 21 22  2  0
 22 23  1  0
 23 24  2  0
 24 25  1  0
 25 26  2  0
 26 27  1  0
 27 28  2  0
 12  7  1  0
 18 13  1  0
 28 19  1  0
 27 22  1  0
  3 29  1  0
  4 30  1  0
  4 31  1  0
  8 32  1  0
  8 33  1  0
  9 34  1  0
  9 35  1  0
 10 36  1  0
 10 37  1  0
 11 38  1  0
 11 39  1  0
 12 40  1  6
 14 41  1  0
 15 42  1  0
 16 43  1  0
 18 44  1  0
 20 45  1  0
 21 46  1  0
 23 47  1  0
 24 48  1  0
 25 49  1  0
 26 50  1  0
M  END
>  <smiles>  (50) 
O=C(NCC(=O)N1CCCCC1c1cccnc1)c1ccc2ccccc2n1

>  <score_type>  (50) 
oracle

>  <origin>  (50) 
autodockgpu

>  <m_score__min__energy>  (50) 
-8.9499999999999993

>  <m_primary>  (50) 
energy

>  <rmsd>  (50) 
7.684060749592521

>  <m_score__min__rmsd>  (50) 
7.684060749592521

>  <meeko>  (50) 
{"free_energy": -7.38, "intermolecular_energy": -8.87, "internal_energy": -2.34, "cluster_size": 18, "cluster_id": 2, "rank_in_cluster": 7}

>  <energy>  (50) 
-6.91

>  <cluster_rmsd>  (50) 
0.0

>  <cluster>  (50) 
4

$$$$

     RDKit          3D

 50 53  0  0  0  0  0  0  0  0999 V2000
  140.5320   71.4490  221.3200 O   0  0  0  0  0  0  0  0  0  0  0  0
  140.1960   72.0620  222.3680 C   0  0  0  0  0  0  0  0  0  0  0  0
  139.8430   73.4360  222.3840 N   0  0  0  0  0  0  0  0  0  0  0  0
  139.8460   74.2460  221.1810 C   0  0  0  0  0  0  0  0  0  0  0  0
  139.7400   75.6450  221.5960 C   0  0  0  0  0  0  0  0  0  0  0  0
  139.2120   75.9070  222.7220 O   0  0  0  0  0  0  0  0  0  0  0  0
  140.2050   76.7490  220.7880 N   0  0  0  0  0  0  0  0  0  0  0  0
  139.3100   77.1740  219.7260 C   0  0  0  0  0  0  0  0  0  0  0  0
  139.9670   77.9410  218.6430 C   0  0  0  0  0  0  0  0  0  0  0  0
  141.4480   77.7950  218.5430 C   0  0  0  0  0  0  0  0  0  0  0  0
  142.1940   77.6790  219.8010 C   0  0  0  0  0  0  0  0  0  0  0  0
  141.4830   77.3630  221.0520 C   0  0  1  0  0  0  0  0  0  0  0  0
  141.3890   78.4910  222.0150 C   0  0  0  0  0  0  0  0  0  0  0  0
  142.4730   79.3100  222.3160 C   0  0  0  0  0  0  0  0  0  0  0  0
  142.3840   80.3560  223.2110 C   0  0  0  0  0  0  0  0  0  0  0  0
  141.1850   80.5970  223.8230 C   0  0  0  0  0  0  0  0  0  0  0  0
  140.1270   79.8310  223.5550 N   0  0  0  0  0  0  0  0  0  0  0  0
  140.2090   78.8060  222.6810 C   0  0  0  0  0  0  0  0  0  0  0  0
  140.1660   71.3160  223.6380 C   0  0  0  0  0  0  0  0  0  0  0  0
  139.6520   70.0420  223.7020 C   0  0  0  0  0  0  0  0  0  0  0  0
  139.5960   69.2940  224.8540 C   0  0  0  0  0  0  0  0  0  0  0  0
  140.0880   69.8620  226.0160 C   0  0  0  0  0  0  0  0  0  0  0  0
  140.0300   69.1160  227.1580 C   0  0  0  0  0  0  0  0  0  0  0  0
  140.5200   69.6720  228.3350 C   0  0  0  0  0  0  0  0  0  0  0  0
  141.0380   70.9420  228.2990 C   0  0  0  0  0  0  0  0  0  0  0  0
  141.0880   71.6840  227.1310 C   0  0  0  0  0  0  0  0  0  0  0  0
  140.6000   71.1370  225.9440 C   0  0  0  0  0  0  0  0  0  0  0  0
  140.6390   71.8450  224.7860 N   0  0  0  0  0  0  0  0  0  0  0  0
  139.5740   73.8650  223.3110 H   0  0  0  0  0  0  0  0  0  0  0  0
  140.7815   74.0888  220.6240 H   0  0  0  0  0  0  0  0  0  0  0  0
  139.0071   73.9706  220.5249 H   0  0  0  0  0  0  0  0  0  0  0  0
  138.8512   76.2776  219.2833 H   0  0  0  0  0  0  0  0  0  0  0  0
  138.5739   77.8491  220.1870 H   0  0  0  0  0  0  0  0  0  0  0  0
  139.5314   77.6141  217.6873 H   0  0  0  0  0  0  0  0  0  0  0  0
  139.7891   79.0003  218.8803 H   0  0  0  0  0  0  0  0  0  0  0  0
  141.6527   76.8904  217.9516 H   0  0  0  0  0  0  0  0  0  0  0  0
  141.7970   78.7349  218.0905 H   0  0  0  0  0  0  0  0  0  0  0  0
  142.9443   76.8882  219.6536 H   0  0  0  0  0  0  0  0  0  0  0  0
  142.5636   78.7010  219.9712 H   0  0  0  0  0  0  0  0  0  0  0  0
  142.1124   76.6244  221.5701 H   0  0  0  0  0  0  0  0  0  0  0  0
  143.4365   79.1162  221.8220 H   0  0  0  0  0  0  0  0  0  0  0  0
  143.2605   80.9841  223.4282 H   0  0  0  0  0  0  0  0  0  0  0  0
  141.0930   81.4265  224.5396 H   0  0  0  0  0  0  0  0  0  0  0  0
  139.3121   78.1989  222.4887 H   0  0  0  0  0  0  0  0  0  0  0  0
  139.2623   69.5947  222.7757 H   0  0  0  0  0  0  0  0  0  0  0  0
  139.1742   68.2781  224.8522 H   0  0  0  0  0  0  0  0  0  0  0  0
  139.6064   68.1009  227.1475 H   0  0  0  0  0  0  0  0  0  0  0  0
  140.4928   69.1043  229.2768 H   0  0  0  0  0  0  0  0  0  0  0  0
  141.4261   71.3850  229.2280 H   0  0  0  0  0  0  0  0  0  0  0  0
  141.5104   72.6996  227.1390 H   0  0  0  0  0  0  0  0  0  0  0  0
  1  2  2  0
  2  3  1  0
  3  4  1  0
  4  5  1  0
  5  6  2  0
  5  7  1  0
  7  8  1  0
  8  9  1  0
  9 10  1  0
 10 11  1  0
 11 12  1  0
 12 13  1  0
 13 14  2  0
 14 15  1  0
 15 16  2  0
 16 17  1  0
 17 18  2  0
  2 19  1  0
 19 20  2  0
 20 21  1  0
 21 22  2  0
 22 23  1  0
 23 24  2  0
 24 25  1  0
 25 26  2  0
 26 27  1  0
 27 28  2  0
 12  7  1  0
 18 13  1  0
 28 19  1  0
 27 22  1  0
  3 29  1  0
  4 30  1  0
  4 31  1  0
  8 32  1  0
  8 33  1  0
  9 34  1  0
  9 35  1  0
 10 36  1  0
 10 37  1  0
 11 38  1  0
 11 39  1  0
 12 40  1  1
 14 41  1  0
 15 42  1  0
 16 43  1  0
 18 44  1  0
 20 45  1  0
 21 46  1  0
 23 47  1  0
 24 48  1  0
 25 49  1  0
 26 50  1  0
M  END
>  <smiles>  (51) 
O=C(NCC(=O)N1CCCCC1c1cccnc1)c1ccc2ccccc2n1

>  <score_type>  (51) 
oracle

>  <origin>  (51) 
autodockgpu

>  <m_score__min__energy>  (51) 
-9.1799999999999997

>  <m_primary>  (51) 
energy

>  <rmsd>  (51) 
1.7465928563610162

>  <m_score__min__rmsd>  (51) 
1.7465928563610162

>  <meeko>  (51) 
{"free_energy": -8.57, "intermolecular_energy": -10.07, "internal_energy": -1.9, "cluster_size": 32, "cluster_id": 2, "rank_in_cluster": 26}

>  <energy>  (51) 
-9.18

>  <cluster_rmsd>  (51) 
0.0

>  <cluster>  (51) 
1

$$$$

     RDKit          3D

 50 53  0  0  0  0  0  0  0  0999 V2000
  138.5520   72.4050  222.6870 O   0  0  0  0  0  0  0  0  0  0  0  0
  139.7310   72.0100  222.8880 C   0  0  0  0  0  0  0  0  0  0  0  0
  140.7900   72.2310  221.9690 N   0  0  0  0  0  0  0  0  0  0  0  0
  140.5900   72.9340  220.7170 C   0  0  0  0  0  0  0  0  0  0  0  0
  140.8780   74.3470  220.9600 C   0  0  0  0  0  0  0  0  0  0  0  0
  140.3310   74.9180  221.9550 O   0  0  0  0  0  0  0  0  0  0  0  0
  141.7550   75.1330  220.1210 N   0  0  0  0  0  0  0  0  0  0  0  0
  141.8280   76.5480  220.4360 C   0  0  0  0  0  0  0  0  0  0  0  0
  142.3200   77.3970  219.3280 C   0  0  0  0  0  0  0  0  0  0  0  0
  142.2420   76.8010  217.9620 C   0  0  0  0  0  0  0  0  0  0  0  0
  142.5090   75.3630  217.8460 C   0  0  0  0  0  0  0  0  0  0  0  0
  142.4930   74.5120  219.0480 C   0  0  1  0  0  0  0  0  0  0  0  0
  143.8280   74.0210  219.4790 C   0  0  0  0  0  0  0  0  0  0  0  0
  144.2810   74.1390  220.7890 C   0  0  0  0  0  0  0  0  0  0  0  0
  145.5220   73.6840  221.1870 C   0  0  0  0  0  0  0  0  0  0  0  0
  146.3340   73.0940  220.2580 C   0  0  0  0  0  0  0  0  0  0  0  0
  145.9280   72.9650  218.9940 N   0  0  0  0  0  0  0  0  0  0  0  0
  144.7160   73.4090  218.6000 C   0  0  0  0  0  0  0  0  0  0  0  0
  140.0250   71.2850  224.1360 C   0  0  0  0  0  0  0  0  0  0  0  0
  140.7040   71.8920  225.1670 C   0  0  0  0  0  0  0  0  0  0  0  0
  141.0090   71.2710  226.3550 C   0  0  0  0  0  0  0  0  0  0  0  0
  140.6060   69.9580  226.5190 C   0  0  0  0  0  0  0  0  0  0  0  0
  140.9110   69.3450  227.7000 C   0  0  0  0  0  0  0  0  0  0  0  0
  140.5130   68.0250  227.8800 C   0  0  0  0  0  0  0  0  0  0  0  0
  139.8340   67.3960  226.8670 C   0  0  0  0  0  0  0  0  0  0  0  0
  139.5340   68.0340  225.6750 C   0  0  0  0  0  0  0  0  0  0  0  0
  139.9280   69.3580  225.4820 C   0  0  0  0  0  0  0  0  0  0  0  0
  139.6440   70.0040  224.3220 N   0  0  0  0  0  0  0  0  0  0  0  0
  141.7470   71.8630  222.2240 H   0  0  0  0  0  0  0  0  0  0  0  0
  141.2714   72.5376  219.9498 H   0  0  0  0  0  0  0  0  0  0  0  0
  139.5586   72.8033  220.3578 H   0  0  0  0  0  0  0  0  0  0  0  0
  140.8199   76.8916  220.7110 H   0  0  0  0  0  0  0  0  0  0  0  0
  142.5545   76.6498  221.2556 H   0  0  0  0  0  0  0  0  0  0  0  0
  141.7270   78.3235  219.3252 H   0  0  0  0  0  0  0  0  0  0  0  0
  143.3917   77.5487  219.5243 H   0  0  0  0  0  0  0  0  0  0  0  0
  141.2270   76.9820  217.5786 H   0  0  0  0  0  0  0  0  0  0  0  0
  143.0470   77.2877  217.3918 H   0  0  0  0  0  0  0  0  0  0  0  0
  141.7546   74.9544  217.1575 H   0  0  0  0  0  0  0  0  0  0  0  0
  143.5601   75.3260  217.5238 H   0  0  0  0  0  0  0  0  0  0  0  0
  141.9567   73.5976  218.7545 H   0  0  0  0  0  0  0  0  0  0  0  0
  143.6261   74.6124  221.5353 H   0  0  0  0  0  0  0  0  0  0  0  0
  145.8513   73.7938  222.2308 H   0  0  0  0  0  0  0  0  0  0  0  0
  147.3266   72.7241  220.5546 H   0  0  0  0  0  0  0  0  0  0  0  0
  144.4201   73.2827  217.5481 H   0  0  0  0  0  0  0  0  0  0  0  0
  141.0218   72.9365  225.0329 H   0  0  0  0  0  0  0  0  0  0  0  0
  141.5556   71.8009  227.1490 H   0  0  0  0  0  0  0  0  0  0  0  0
  141.4578   69.8818  228.4892 H   0  0  0  0  0  0  0  0  0  0  0  0
  140.7383   67.4948  228.8171 H   0  0  0  0  0  0  0  0  0  0  0  0
  139.5179   66.3516  227.0062 H   0  0  0  0  0  0  0  0  0  0  0  0
  138.9876   67.4991  224.8842 H   0  0  0  0  0  0  0  0  0  0  0  0
  1  2  2  0
  2  3  1  0
  3  4  1  0
  4  5  1  0
  5  6  2  0
  5  7  1  0
  7  8  1  0
  8  9  1  0
  9 10  1  0
 10 11  1  0
 11 12  1  0
 12 13  1  0
 13 14  2  0
 14 15  1  0
 15 16  2  0
 16 17  1  0
 17 18  2  0
  2 19  1  0
 19 20  2  0
 20 21  1  0
 21 22  2  0
 22 23  1  0
 23 24  2  0
 24 25  1  0
 25 26  2  0
 26 27  1  0
 27 28  2  0
 12  7  1  0
 18 13  1  0
 28 19  1  0
 27 22  1  0
  3 29  1  0
  4 30  1  0
  4 31  1  0
  8 32  1  0
  8 33  1  0
  9 34  1  0
  9 35  1  0
 10 36  1  0
 10 37  1  0
 11 38  1  0
 11 39  1  0
 12 40  1  6
 14 41  1  0
 15 42  1  0
 16 43  1  0
 18 44  1  0
 20 45  1  0
 21 46  1  0
 23 47  1  0
 24 48  1  0
 25 49  1  0
 26 50  1  0
M  END
>  <smiles>  (52) 
O=C(NCC(=O)N1CCCCC1c1cccnc1)c1ccc2ccccc2n1

>  <score_type>  (52) 
oracle

>  <origin>  (52) 
autodockgpu

>  <m_score__min__energy>  (52) 
-9.1799999999999997

>  <m_primary>  (52) 
energy

>  <rmsd>  (52) 
3.286515056036688

>  <m_score__min__rmsd>  (52) 
3.286515056036688

>  <meeko>  (52) 
{"free_energy": -8.83, "intermolecular_energy": -10.32, "internal_energy": -1.32, "cluster_size": 15, "cluster_id": 1, "rank_in_cluster": 9}

>  <energy>  (52) 
-9.17

>  <cluster_rmsd>  (52) 
0.04

>  <cluster>  (52) 
1

$$$$

     RDKit          3D

 50 53  0  0  0  0  0  0  0  0999 V2000
  140.5530   71.1660  221.6180 O   0  0  0  0  0  0  0  0  0  0  0  0
  140.2280   71.8410  222.6310 C   0  0  0  0  0  0  0  0  0  0  0  0
  139.7960   73.1900  222.5580 N   0  0  0  0  0  0  0  0  0  0  0  0
  139.6990   73.9010  221.2980 C   0  0  0  0  0  0  0  0  0  0  0  0
  139.7310   75.3320  221.6000 C   0  0  0  0  0  0  0  0  0  0  0  0
  139.2910   75.7260  222.7240 O   0  0  0  0  0  0  0  0  0  0  0  0
  140.2390   76.3250  220.6800 N   0  0  0  0  0  0  0  0  0  0  0  0
  139.3550   76.6810  219.5860 C   0  0  0  0  0  0  0  0  0  0  0  0
  140.0360   77.3020  218.4270 C   0  0  0  0  0  0  0  0  0  0  0  0
  141.5080   77.0760  218.3350 C   0  0  0  0  0  0  0  0  0  0  0  0
  142.2600   77.0540  219.5940 C   0  0  0  0  0  0  0  0  0  0  0  0
  141.5470   76.9010  220.8740 C   0  0  1  0  0  0  0  0  0  0  0  0
  141.5160   78.1250  221.7170 C   0  0  0  0  0  0  0  0  0  0  0  0
  141.7450   79.3960  221.2000 C   0  0  0  0  0  0  0  0  0  0  0  0
  141.7160   80.5300  221.9860 C   0  0  0  0  0  0  0  0  0  0  0  0
  141.4520   80.3980  223.3210 C   0  0  0  0  0  0  0  0  0  0  0  0
  141.2270   79.1930  223.8470 N   0  0  0  0  0  0  0  0  0  0  0  0
  141.2550   78.0810  223.0840 C   0  0  0  0  0  0  0  0  0  0  0  0
  140.2970   71.1970  223.9540 C   0  0  0  0  0  0  0  0  0  0  0  0
  140.7340   71.8910  225.0590 C   0  0  0  0  0  0  0  0  0  0  0  0
  140.8210   71.3490  226.3200 C   0  0  0  0  0  0  0  0  0  0  0  0
  140.4470   70.0270  226.4810 C   0  0  0  0  0  0  0  0  0  0  0  0
  140.5360   69.4920  227.7340 C   0  0  0  0  0  0  0  0  0  0  0  0
  140.1630   68.1640  227.9130 C   0  0  0  0  0  0  0  0  0  0  0  0
  139.7250   67.4500  226.8270 C   0  0  0  0  0  0  0  0  0  0  0  0
  139.6420   68.0090  225.5620 C   0  0  0  0  0  0  0  0  0  0  0  0
  140.0130   69.3400  225.3700 C   0  0  0  0  0  0  0  0  0  0  0  0
  139.9390   69.9100  224.1400 N   0  0  0  0  0  0  0  0  0  0  0  0
  139.5430   73.6760  223.4610 H   0  0  0  0  0  0  0  0  0  0  0  0
  140.5467   73.6345  220.6496 H   0  0  0  0  0  0  0  0  0  0  0  0
  138.7698   73.6355  220.7726 H   0  0  0  0  0  0  0  0  0  0  0  0
  138.8508   75.7668  219.2395 H   0  0  0  0  0  0  0  0  0  0  0  0
  138.6556   77.4334  219.9794 H   0  0  0  0  0  0  0  0  0  0  0  0
  139.5761   76.9008  217.5118 H   0  0  0  0  0  0  0  0  0  0  0  0
  139.9101   78.3872  218.5557 H   0  0  0  0  0  0  0  0  0  0  0  0
  141.6642   76.1069  217.8386 H   0  0  0  0  0  0  0  0  0  0  0  0
  141.8961   77.9470  217.7866 H   0  0  0  0  0  0  0  0  0  0  0  0
  142.9714   76.2179  219.5246 H   0  0  0  0  0  0  0  0  0  0  0  0
  142.6785   78.0693  219.6569 H   0  0  0  0  0  0  0  0  0  0  0  0
  142.1451   76.1894  221.4621 H   0  0  0  0  0  0  0  0  0  0  0  0
  141.9569   79.5010  220.1257 H   0  0  0  0  0  0  0  0  0  0  0  0
  141.9018   81.5212  221.5468 H   0  0  0  0  0  0  0  0  0  0  0  0
  141.4250   81.2898  223.9644 H   0  0  0  0  0  0  0  0  0  0  0  0
  141.0652   77.1065  223.5577 H   0  0  0  0  0  0  0  0  0  0  0  0
  141.0314   72.9416  224.9258 H   0  0  0  0  0  0  0  0  0  0  0  0
  141.1762   71.9469  227.1723 H   0  0  0  0  0  0  0  0  0  0  0  0
  140.8937   70.0961  228.5808 H   0  0  0  0  0  0  0  0  0  0  0  0
  140.2182   67.6954  228.9066 H   0  0  0  0  0  0  0  0  0  0  0  0
  139.4300   66.3993  226.9648 H   0  0  0  0  0  0  0  0  0  0  0  0
  139.2854   67.4065  224.7136 H   0  0  0  0  0  0  0  0  0  0  0  0
  1  2  2  0
  2  3  1  0
  3  4  1  0
  4  5  1  0
  5  6  2  0
  5  7  1  0
  7  8  1  0
  8  9  1  0
  9 10  1  0
 10 11  1  0
 11 12  1  0
 12 13  1  0
 13 14  2  0
 14 15  1  0
 15 16  2  0
 16 17  1  0
 17 18  2  0
  2 19  1  0
 19 20  2  0
 20 21  1  0
 21 22  2  0
 22 23  1  0
 23 24  2  0
 24 25  1  0
 25 26  2  0
 26 27  1  0
 27 28  2  0
 12  7  1  0
 18 13  1  0
 28 19  1  0
 27 22  1  0
  3 29  1  0
  4 30  1  0
  4 31  1  0
  8 32  1  0
  8 33  1  0
  9 34  1  0
  9 35  1  0
 10 36  1  0
 10 37  1  0
 11 38  1  0
 11 39  1  0
 12 40  1  1
 14 41  1  0
 15 42  1  0
 16 43  1  0
 18 44  1  0
 20 45  1  0
 21 46  1  0
 23 47  1  0
 24 48  1  0
 25 49  1  0
 26 50  1  0
M  END
>  <smiles>  (53) 
O=C(NCC(=O)N1CCCCC1c1cccnc1)c1ccc2ccccc2n1

>  <score_type>  (53) 
oracle

>  <origin>  (53) 
autodockgpu

>  <m_score__min__energy>  (53) 
-9.1799999999999997

>  <m_primary>  (53) 
energy

>  <rmsd>  (53) 
2.687735233119386

>  <m_score__min__rmsd>  (53) 
2.687735233119386

>  <meeko>  (53) 
{"free_energy": -8.32, "intermolecular_energy": -9.81, "internal_energy": -1.78, "cluster_size": 32, "cluster_id": 2, "rank_in_cluster": 30}

>  <energy>  (53) 
-9.15

>  <cluster_rmsd>  (53) 
0.2

>  <cluster>  (53) 
1

$$$$

     RDKit          3D

 50 53  0  0  0  0  0  0  0  0999 V2000
  141.3510   71.8420  221.5670 O   0  0  0  0  0  0  0  0  0  0  0  0
  140.5760   72.3060  222.4450 C   0  0  0  0  0  0  0  0  0  0  0  0
  139.9480   73.5740  222.3350 N   0  0  0  0  0  0  0  0  0  0  0  0
  140.1570   74.4390  221.1910 C   0  0  0  0  0  0  0  0  0  0  0  0
  139.8020   75.7980  221.6000 C   0  0  0  0  0  0  0  0  0  0  0  0
  139.1960   75.9610  222.7050 O   0  0  0  0  0  0  0  0  0  0  0  0
  140.1040   76.9690  220.8090 N   0  0  0  0  0  0  0  0  0  0  0  0
  138.9910   77.5330  220.0670 C   0  0  0  0  0  0  0  0  0  0  0  0
  139.3880   78.3940  218.9290 C   0  0  0  0  0  0  0  0  0  0  0  0
  140.7820   78.2150  218.4290 C   0  0  0  0  0  0  0  0  0  0  0  0
  141.8200   77.9410  219.4290 C   0  0  0  0  0  0  0  0  0  0  0  0
  141.4400   77.5130  220.7860 C   0  0  1  0  0  0  0  0  0  0  0  0
  141.6640   78.5320  221.8440 C   0  0  0  0  0  0  0  0  0  0  0  0
  142.1160   79.8160  221.5620 C   0  0  0  0  0  0  0  0  0  0  0  0
  142.3230   80.7610  222.5470 C   0  0  0  0  0  0  0  0  0  0  0  0
  142.0740   80.4190  223.8470 C   0  0  0  0  0  0  0  0  0  0  0  0
  141.6380   79.1960  224.1500 N   0  0  0  0  0  0  0  0  0  0  0  0
  141.4350   78.2690  223.1920 C   0  0  0  0  0  0  0  0  0  0  0  0
  140.3070   71.4930  223.6440 C   0  0  0  0  0  0  0  0  0  0  0  0
  139.6420   70.2920  223.5530 C   0  0  0  0  0  0  0  0  0  0  0  0
  139.3610   69.4880  224.6320 C   0  0  0  0  0  0  0  0  0  0  0  0
  139.7740   69.9160  225.8810 C   0  0  0  0  0  0  0  0  0  0  0  0
  139.4930   69.1140  226.9500 C   0  0  0  0  0  0  0  0  0  0  0  0
  139.9010   69.5300  228.2130 C   0  0  0  0  0  0  0  0  0  0  0  0
  140.5660   70.7240  228.3300 C   0  0  0  0  0  0  0  0  0  0  0  0
  140.8430   71.5250  227.2350 C   0  0  0  0  0  0  0  0  0  0  0  0
  140.4380   71.1190  225.9630 C   0  0  0  0  0  0  0  0  0  0  0  0
  140.6980   71.8860  224.8740 N   0  0  0  0  0  0  0  0  0  0  0  0
  139.3130   73.8790  223.1220 H   0  0  0  0  0  0  0  0  0  0  0  0
  141.2116   74.4032  220.8801 H   0  0  0  0  0  0  0  0  0  0  0  0
  139.5387   74.1151  220.3408 H   0  0  0  0  0  0  0  0  0  0  0  0
  138.3831   76.7040  219.6755 H   0  0  0  0  0  0  0  0  0  0  0  0
  138.4389   78.1752  220.7690 H   0  0  0  0  0  0  0  0  0  0  0  0
  138.7019   78.1866  218.0946 H   0  0  0  0  0  0  0  0  0  0  0  0
  139.3385   79.4260  219.3064 H   0  0  0  0  0  0  0  0  0  0  0  0
  140.7745   77.3740  217.7200 H   0  0  0  0  0  0  0  0  0  0  0  0
  141.0555   79.1874  217.9936 H   0  0  0  0  0  0  0  0  0  0  0  0
  142.4600   77.1486  219.0136 H   0  0  0  0  0  0  0  0  0  0  0  0
  142.2790   78.9270  219.5939 H   0  0  0  0  0  0  0  0  0  0  0  0
  142.1382   76.7041  221.0471 H   0  0  0  0  0  0  0  0  0  0  0  0
  142.3161   80.0892  220.5154 H   0  0  0  0  0  0  0  0  0  0  0  0
  142.6811   81.7690  222.2909 H   0  0  0  0  0  0  0  0  0  0  0  0
  142.2342   81.1566  224.6471 H   0  0  0  0  0  0  0  0  0  0  0  0
  141.0764   77.2713  223.4854 H   0  0  0  0  0  0  0  0  0  0  0  0
  139.3159   69.9552  222.5579 H   0  0  0  0  0  0  0  0  0  0  0  0
  138.8253   68.5355  224.5064 H   0  0  0  0  0  0  0  0  0  0  0  0
  138.9573   68.1627  226.8156 H   0  0  0  0  0  0  0  0  0  0  0  0
  139.6945   68.9137  229.1004 H   0  0  0  0  0  0  0  0  0  0  0  0
  140.8901   71.0564  229.3272 H   0  0  0  0  0  0  0  0  0  0  0  0
  141.3794   72.4762  227.3672 H   0  0  0  0  0  0  0  0  0  0  0  0
  1  2  2  0
  2  3  1  0
  3  4  1  0
  4  5  1  0
  5  6  2  0
  5  7  1  0
  7  8  1  0
  8  9  1  0
  9 10  1  0
 10 11  1  0
 11 12  1  0
 12 13  1  0
 13 14  2  0
 14 15  1  0
 15 16  2  0
 16 17  1  0
 17 18  2  0
  2 19  1  0
 19 20  2  0
 20 21  1  0
 21 22  2  0
 22 23  1  0
 23 24  2  0
 24 25  1  0
 25 26  2  0
 26 27  1  0
 27 28  2  0
 12  7  1  0
 18 13  1  0
 28 19  1  0
 27 22  1  0
  3 29  1  0
  4 30  1  0
  4 31  1  0
  8 32  1  0
  8 33  1  0
  9 34  1  0
  9 35  1  0
 10 36  1  0
 10 37  1  0
 11 38  1  0
 11 39  1  0
 12 40  1  1
 14 41  1  0
 15 42  1  0
 16 43  1  0
 18 44  1  0
 20 45  1  0
 21 46  1  0
 23 47  1  0
 24 48  1  0
 25 49  1  0
 26 50  1  0
M  END
>  <smiles>  (54) 
O=C(NCC(=O)N1CCCCC1c1cccnc1)c1ccc2ccccc2n1

>  <score_type>  (54) 
oracle

>  <origin>  (54) 
autodockgpu

>  <m_score__min__energy>  (54) 
-9.1799999999999997

>  <m_primary>  (54) 
energy

>  <rmsd>  (54) 
1.9552806593883525

>  <m_score__min__rmsd>  (54) 
1.9552806593883525

>  <meeko>  (54) 
{"free_energy": -8.69, "intermolecular_energy": -10.18, "internal_energy": -1.84, "cluster_size": 32, "cluster_id": 2, "rank_in_cluster": 12}

>  <energy>  (54) 
-9.14

>  <cluster_rmsd>  (54) 
0.2

>  <cluster>  (54) 
1

$$$$

     RDKit          3D

 50 53  0  0  0  0  0  0  0  0999 V2000
  137.3120   76.1670  222.3250 O   0  0  0  0  0  0  0  0  0  0  0  0
  138.5690   76.2140  222.3920 C   0  0  0  0  0  0  0  0  0  0  0  0
  139.4010   75.0890  222.1570 N   0  0  0  0  0  0  0  0  0  0  0  0
  138.8590   73.7870  221.8200 C   0  0  0  0  0  0  0  0  0  0  0  0
  139.8280   72.7840  222.2610 C   0  0  0  0  0  0  0  0  0  0  0  0
  141.0450   73.1260  222.3830 O   0  0  0  0  0  0  0  0  0  0  0  0
  139.4700   71.4160  222.5650 N   0  0  0  0  0  0  0  0  0  0  0  0
  139.9450   70.4170  221.6260 C   0  0  0  0  0  0  0  0  0  0  0  0
  139.2020   69.1370  221.6670 C   0  0  0  0  0  0  0  0  0  0  0  0
  137.8490   69.1860  222.2950 C   0  0  0  0  0  0  0  0  0  0  0  0
  137.6830   70.0700  223.4530 C   0  0  0  0  0  0  0  0  0  0  0  0
  138.6900   71.1070  223.7380 C   0  0  1  0  0  0  0  0  0  0  0  0
  139.5310   70.8430  224.9340 C   0  0  0  0  0  0  0  0  0  0  0  0
  140.5990   71.6590  225.2930 C   0  0  0  0  0  0  0  0  0  0  0  0
  141.3790   71.4110  226.4040 C   0  0  0  0  0  0  0  0  0  0  0  0
  141.0900   70.3240  227.1800 C   0  0  0  0  0  0  0  0  0  0  0  0
  140.0720   69.5230  226.8640 N   0  0  0  0  0  0  0  0  0  0  0  0
  139.3060   69.7600  225.7790 C   0  0  0  0  0  0  0  0  0  0  0  0
  139.2060   77.4990  222.7300 C   0  0  0  0  0  0  0  0  0  0  0  0
  138.4530   78.5950  223.0800 C   0  0  0  0  0  0  0  0  0  0  0  0
  138.9860   79.8200  223.4060 C   0  0  0  0  0  0  0  0  0  0  0  0
  140.3630   79.9520  223.3780 C   0  0  0  0  0  0  0  0  0  0  0  0
  140.8880   81.1700  223.7020 C   0  0  0  0  0  0  0  0  0  0  0  0
  142.2710   81.3200  223.6780 C   0  0  0  0  0  0  0  0  0  0  0  0
  143.0450   80.2420  223.3310 C   0  0  0  0  0  0  0  0  0  0  0  0
  142.4940   79.0140  223.0060 C   0  0  0  0  0  0  0  0  0  0  0  0
  141.1090   78.8510  223.0250 C   0  0  0  0  0  0  0  0  0  0  0  0
  140.5460   77.6560  222.7100 N   0  0  0  0  0  0  0  0  0  0  0  0
  140.4460   75.2240  222.2350 H   0  0  0  0  0  0  0  0  0  0  0  0
  137.8989   73.6344  222.3347 H   0  0  0  0  0  0  0  0  0  0  0  0
  138.6823   73.7076  220.7372 H   0  0  0  0  0  0  0  0  0  0  0  0
  139.8605   70.8315  220.6106 H   0  0  0  0  0  0  0  0  0  0  0  0
  140.9825   70.1871  221.9103 H   0  0  0  0  0  0  0  0  0  0  0  0
  139.0801   68.7853  220.6319 H   0  0  0  0  0  0  0  0  0  0  0  0
  139.7999   68.4671  222.3024 H   0  0  0  0  0  0  0  0  0  0  0  0
  137.1368   69.5133  221.5232 H   0  0  0  0  0  0  0  0  0  0  0  0
  137.6783   68.1714  222.6841 H   0  0  0  0  0  0  0  0  0  0  0  0
  136.7217   70.5883  223.3217 H   0  0  0  0  0  0  0  0  0  0  0  0
  137.7754   69.3855  224.3091 H   0  0  0  0  0  0  0  0  0  0  0  0
  138.1190   72.0069  224.0102 H   0  0  0  0  0  0  0  0  0  0  0  0
  140.8303   72.5342  224.6681 H   0  0  0  0  0  0  0  0  0  0  0  0
  142.2173   72.0756  226.6601 H   0  0  0  0  0  0  0  0  0  0  0  0
  141.7001   70.1088  228.0696 H   0  0  0  0  0  0  0  0  0  0  0  0
  138.4757   69.0743  225.5546 H   0  0  0  0  0  0  0  0  0  0  0  0
  137.3587   78.4853  223.1004 H   0  0  0  0  0  0  0  0  0  0  0  0
  138.3393   80.6666  223.6799 H   0  0  0  0  0  0  0  0  0  0  0  0
  140.2341   82.0114  223.9751 H   0  0  0  0  0  0  0  0  0  0  0  0
  142.7348   82.2845  223.9324 H   0  0  0  0  0  0  0  0  0  0  0  0
  144.1388   80.3568  223.3102 H   0  0  0  0  0  0  0  0  0  0  0  0
  143.1458   78.1707  222.7340 H   0  0  0  0  0  0  0  0  0  0  0  0
  1  2  2  0
  2  3  1  0
  3  4  1  0
  4  5  1  0
  5  6  2  0
  5  7  1  0
  7  8  1  0
  8  9  1  0
  9 10  1  0
 10 11  1  0
 11 12  1  0
 12 13  1  0
 13 14  2  0
 14 15  1  0
 15 16  2  0
 16 17  1  0
 17 18  2  0
  2 19  1  0
 19 20  2  0
 20 21  1  0
 21 22  2  0
 22 23  1  0
 23 24  2  0
 24 25  1  0
 25 26  2  0
 26 27  1  0
 27 28  2  0
 12  7  1  0
 18 13  1  0
 28 19  1  0
 27 22  1  0
  3 29  1  0
  4 30  1  0
  4 31  1  0
  8 32  1  0
  8 33  1  0
  9 34  1  0
  9 35  1  0
 10 36  1  0
 10 37  1  0
 11 38  1  0
 11 39  1  0
 12 40  1  1
 14 41  1  0
 15 42  1  0
 16 43  1  0
 18 44  1  0
 20 45  1  0
 21 46  1  0
 23 47  1  0
 24 48  1  0
 25 49  1  0
 26 50  1  0
M  END
>  <smiles>  (55) 
O=C(NCC(=O)N1CCCCC1c1cccnc1)c1ccc2ccccc2n1

>  <score_type>  (55) 
oracle

>  <origin>  (55) 
autodockgpu

>  <m_score__min__energy>  (55) 
-9.1799999999999997

>  <m_primary>  (55) 
energy

>  <rmsd>  (55) 
8.326490740043667

>  <m_score__min__rmsd>  (55) 
8.326490740043667

>  <meeko>  (55) 
{"free_energy": -7.85, "intermolecular_energy": -9.34, "internal_energy": -2.14, "cluster_size": 3, "cluster_id": 3, "rank_in_cluster": 1}

>  <energy>  (55) 
-9.06

>  <cluster_rmsd>  (55) 
0.27

>  <cluster>  (55) 
1

$$$$

     RDKit          3D

 50 53  0  0  0  0  0  0  0  0999 V2000
  141.2450   71.7630  221.4970 O   0  0  0  0  0  0  0  0  0  0  0  0
  140.5450   72.2660  222.4150 C   0  0  0  0  0  0  0  0  0  0  0  0
  139.9840   73.5680  222.3380 N   0  0  0  0  0  0  0  0  0  0  0  0
  140.1790   74.4230  221.1840 C   0  0  0  0  0  0  0  0  0  0  0  0
  139.8650   75.7910  221.5970 C   0  0  0  0  0  0  0  0  0  0  0  0
  139.2850   75.9720  222.7130 O   0  0  0  0  0  0  0  0  0  0  0  0
  140.1820   76.9530  220.7970 N   0  0  0  0  0  0  0  0  0  0  0  0
  139.0850   77.5010  220.0200 C   0  0  0  0  0  0  0  0  0  0  0  0
  139.5060   78.3470  218.8800 C   0  0  0  0  0  0  0  0  0  0  0  0
  140.9130   78.1690  218.4170 C   0  0  0  0  0  0  0  0  0  0  0  0
  141.9270   77.9140  219.4460 C   0  0  0  0  0  0  0  0  0  0  0  0
  141.5150   77.5030  220.8000 C   0  0  1  0  0  0  0  0  0  0  0  0
  141.7080   78.5370  221.8490 C   0  0  0  0  0  0  0  0  0  0  0  0
  142.1270   79.8310  221.5560 C   0  0  0  0  0  0  0  0  0  0  0  0
  142.3050   80.7900  222.5320 C   0  0  0  0  0  0  0  0  0  0  0  0
  142.0600   80.4550  223.8350 C   0  0  0  0  0  0  0  0  0  0  0  0
  141.6550   79.2230  224.1480 N   0  0  0  0  0  0  0  0  0  0  0  0
  141.4800   78.2820  223.1980 C   0  0  0  0  0  0  0  0  0  0  0  0
  140.2960   71.4660  223.6270 C   0  0  0  0  0  0  0  0  0  0  0  0
  139.6460   70.2560  223.5580 C   0  0  0  0  0  0  0  0  0  0  0  0
  139.3850   69.4630  224.6500 C   0  0  0  0  0  0  0  0  0  0  0  0
  139.8020   69.9140  225.8900 C   0  0  0  0  0  0  0  0  0  0  0  0
  139.5390   69.1230  226.9710 C   0  0  0  0  0  0  0  0  0  0  0  0
  139.9520   69.5620  228.2250 C   0  0  0  0  0  0  0  0  0  0  0  0
  140.6020   70.7660  228.3210 C   0  0  0  0  0  0  0  0  0  0  0  0
  140.8590   71.5550  227.2130 C   0  0  0  0  0  0  0  0  0  0  0  0
  140.4500   71.1260  225.9500 C   0  0  0  0  0  0  0  0  0  0  0  0
  140.6920   71.8820  224.8480 N   0  0  0  0  0  0  0  0  0  0  0  0
  139.4100   73.9050  223.1580 H   0  0  0  0  0  0  0  0  0  0  0  0
  141.2232   74.3631  220.8435 H   0  0  0  0  0  0  0  0  0  0  0  0
  139.5304   74.1089  220.3530 H   0  0  0  0  0  0  0  0  0  0  0  0
  138.4905   76.6636  219.6259 H   0  0  0  0  0  0  0  0  0  0  0  0
  138.5131   78.1507  220.6989 H   0  0  0  0  0  0  0  0  0  0  0  0
  138.8420   78.1235  218.0320 H   0  0  0  0  0  0  0  0  0  0  0  0
  139.4420   79.3840  219.2413 H   0  0  0  0  0  0  0  0  0  0  0  0
  140.9274   77.3186  217.7194 H   0  0  0  0  0  0  0  0  0  0  0  0
  141.1923   79.1370  217.9754 H   0  0  0  0  0  0  0  0  0  0  0  0
  142.5806   77.1189  219.0578 H   0  0  0  0  0  0  0  0  0  0  0  0
  142.3775   78.9043  219.6082 H   0  0  0  0  0  0  0  0  0  0  0  0
  142.2104   76.7015  221.0899 H   0  0  0  0  0  0  0  0  0  0  0  0
  142.3236   80.0994  220.5075 H   0  0  0  0  0  0  0  0  0  0  0  0
  142.6376   81.8045  222.2670 H   0  0  0  0  0  0  0  0  0  0  0  0
  142.1974   81.2045  224.6284 H   0  0  0  0  0  0  0  0  0  0  0  0
  141.1456   77.2784  223.4997 H   0  0  0  0  0  0  0  0  0  0  0  0
  139.3154   69.9018  222.5705 H   0  0  0  0  0  0  0  0  0  0  0  0
  138.8618   68.5015  224.5417 H   0  0  0  0  0  0  0  0  0  0  0  0
  139.0142   68.1634  226.8537 H   0  0  0  0  0  0  0  0  0  0  0  0
  139.7609   68.9551  229.1223 H   0  0  0  0  0  0  0  0  0  0  0  0
  140.9298   71.1161  229.3109 H   0  0  0  0  0  0  0  0  0  0  0  0
  141.3830   72.5153  227.3278 H   0  0  0  0  0  0  0  0  0  0  0  0
  1  2  2  0
  2  3  1  0
  3  4  1  0
  4  5  1  0
  5  6  2  0
  5  7  1  0
  7  8  1  0
  8  9  1  0
  9 10  1  0
 10 11  1  0
 11 12  1  0
 12 13  1  0
 13 14  2  0
 14 15  1  0
 15 16  2  0
 16 17  1  0
 17 18  2  0
  2 19  1  0
 19 20  2  0
 20 21  1  0
 21 22  2  0
 22 23  1  0
 23 24  2  0
 24 25  1  0
 25 26  2  0
 26 27  1  0
 27 28  2  0
 12  7  1  0
 18 13  1  0
 28 19  1  0
 27 22  1  0
  3 29  1  0
  4 30  1  0
  4 31  1  0
  8 32  1  0
  8 33  1  0
  9 34  1  0
  9 35  1  0
 10 36  1  0
 10 37  1  0
 11 38  1  0
 11 39  1  0
 12 40  1  1
 14 41  1  0
 15 42  1  0
 16 43  1  0
 18 44  1  0
 20 45  1  0
 21 46  1  0
 23 47  1  0
 24 48  1  0
 25 49  1  0
 26 50  1  0
M  END
>  <smiles>  (56) 
O=C(NCC(=O)N1CCCCC1c1cccnc1)c1ccc2ccccc2n1

>  <score_type>  (56) 
oracle

>  <origin>  (56) 
autodockgpu

>  <m_score__min__energy>  (56) 
-9.1799999999999997

>  <m_primary>  (56) 
energy

>  <rmsd>  (56) 
1.9326401241075708

>  <m_score__min__rmsd>  (56) 
1.9326401241075708

>  <meeko>  (56) 
{"free_energy": -8.69, "intermolecular_energy": -10.18, "internal_energy": -1.85, "cluster_size": 32, "cluster_id": 2, "rank_in_cluster": 11}

>  <energy>  (56) 
-9.02

>  <cluster_rmsd>  (56) 
0.3

>  <cluster>  (56) 
1

$$$$

     RDKit          3D

 50 53  0  0  0  0  0  0  0  0999 V2000
  140.4330   71.1260  221.2250 O   0  0  0  0  0  0  0  0  0  0  0  0
  140.2330   71.8480  222.2380 C   0  0  0  0  0  0  0  0  0  0  0  0
  140.0900   73.2580  222.1690 N   0  0  0  0  0  0  0  0  0  0  0  0
  140.1660   73.9800  220.9140 C   0  0  0  0  0  0  0  0  0  0  0  0
  141.1110   75.0810  221.1000 C   0  0  0  0  0  0  0  0  0  0  0  0
  141.1720   75.6440  222.2370 O   0  0  0  0  0  0  0  0  0  0  0  0
  141.9810   75.5640  220.0520 N   0  0  0  0  0  0  0  0  0  0  0  0
  142.2330   76.9930  220.0510 C   0  0  0  0  0  0  0  0  0  0  0  0
  142.7030   77.5300  218.7530 C   0  0  0  0  0  0  0  0  0  0  0  0
  142.4320   76.6810  217.5570 C   0  0  0  0  0  0  0  0  0  0  0  0
  142.5340   75.2280  217.7330 C   0  0  0  0  0  0  0  0  0  0  0  0
  142.5440   74.6500  219.0880 C   0  0  1  0  0  0  0  0  0  0  0  0
  143.8550   74.0980  219.5180 C   0  0  0  0  0  0  0  0  0  0  0  0
  144.2850   74.1350  220.8400 C   0  0  0  0  0  0  0  0  0  0  0  0
  145.5040   73.6220  221.2360 C   0  0  0  0  0  0  0  0  0  0  0  0
  146.3160   73.0560  220.2930 C   0  0  0  0  0  0  0  0  0  0  0  0
  145.9320   73.0040  219.0180 N   0  0  0  0  0  0  0  0  0  0  0  0
  144.7420   73.5040  218.6250 C   0  0  0  0  0  0  0  0  0  0  0  0
  140.1430   71.1970  223.5560 C   0  0  0  0  0  0  0  0  0  0  0  0
  139.5680   69.9550  223.6980 C   0  0  0  0  0  0  0  0  0  0  0  0
  139.4540   69.2950  224.8980 C   0  0  0  0  0  0  0  0  0  0  0  0
  139.9480   69.9220  226.0290 C   0  0  0  0  0  0  0  0  0  0  0  0
  139.8330   69.2640  227.2190 C   0  0  0  0  0  0  0  0  0  0  0  0
  140.3250   69.8800  228.3650 C   0  0  0  0  0  0  0  0  0  0  0  0
  140.9020   71.1190  228.2510 C   0  0  0  0  0  0  0  0  0  0  0  0
  141.0110   71.7720  227.0350 C   0  0  0  0  0  0  0  0  0  0  0  0
  140.5210   71.1650  225.8790 C   0  0  0  0  0  0  0  0  0  0  0  0
  140.6170   71.7850  224.6740 N   0  0  0  0  0  0  0  0  0  0  0  0
  139.9250   73.7800  223.0730 H   0  0  0  0  0  0  0  0  0  0  0  0
  140.5204   73.3109  220.1161 H   0  0  0  0  0  0  0  0  0  0  0  0
  139.1759   74.3623  220.6250 H   0  0  0  0  0  0  0  0  0  0  0  0
  141.2981   77.5075  220.3181 H   0  0  0  0  0  0  0  0  0  0  0  0
  143.0416   77.1699  220.7755 H   0  0  0  0  0  0  0  0  0  0  0  0
  142.2130   78.5019  218.5937 H   0  0  0  0  0  0  0  0  0  0  0  0
  143.7985   77.5859  218.8346 H   0  0  0  0  0  0  0  0  0  0  0  0
  141.4095   76.9029  217.2177 H   0  0  0  0  0  0  0  0  0  0  0  0
  143.2254   76.9376  216.8396 H   0  0  0  0  0  0  0  0  0  0  0  0
  141.6783   74.7830  217.2041 H   0  0  0  0  0  0  0  0  0  0  0  0
  143.5394   74.9966  217.3515 H   0  0  0  0  0  0  0  0  0  0  0  0
  141.8896   73.7673  219.0371 H   0  0  0  0  0  0  0  0  0  0  0  0
  143.6300   74.5896  221.5978 H   0  0  0  0  0  0  0  0  0  0  0  0
  145.8159   73.6678  222.2899 H   0  0  0  0  0  0  0  0  0  0  0  0
  147.2912   72.6414  220.5882 H   0  0  0  0  0  0  0  0  0  0  0  0
  144.4635   73.4400  217.5628 H   0  0  0  0  0  0  0  0  0  0  0  0
  139.1760   69.4607  222.7969 H   0  0  0  0  0  0  0  0  0  0  0  0
  138.9857   68.3014  224.9578 H   0  0  0  0  0  0  0  0  0  0  0  0
  139.3628   68.2709  227.2707 H   0  0  0  0  0  0  0  0  0  0  0  0
  140.2527   69.3831  229.3437 H   0  0  0  0  0  0  0  0  0  0  0  0
  141.2909   71.6100  229.1553 H   0  0  0  0  0  0  0  0  0  0  0  0
  141.4818   72.7647  226.9810 H   0  0  0  0  0  0  0  0  0  0  0  0
  1  2  2  0
  2  3  1  0
  3  4  1  0
  4  5  1  0
  5  6  2  0
  5  7  1  0
  7  8  1  0
  8  9  1  0
  9 10  1  0
 10 11  1  0
 11 12  1  0
 12 13  1  0
 13 14  2  0
 14 15  1  0
 15 16  2  0
 16 17  1  0
 17 18  2  0
  2 19  1  0
 19 20  2  0
 20 21  1  0
 21 22  2  0
 22 23  1  0
 23 24  2  0
 24 25  1  0
 25 26  2  0
 26 27  1  0
 27 28  2  0
 12  7  1  0
 18 13  1  0
 28 19  1  0
 27 22  1  0
  3 29  1  0
  4 30  1  0
  4 31  1  0
  8 32  1  0
  8 33  1  0
  9 34  1  0
  9 35  1  0
 10 36  1  0
 10 37  1  0
 11 38  1  0
 11 39  1  0
 12 40  1  6
 14 41  1  0
 15 42  1  0
 16 43  1  0
 18 44  1  0
 20 45  1  0
 21 46  1  0
 23 47  1  0
 24 48  1  0
 25 49  1  0
 26 50  1  0
M  END
>  <smiles>  (57) 
O=C(NCC(=O)N1CCCCC1c1cccnc1)c1ccc2ccccc2n1

>  <score_type>  (57) 
oracle

>  <origin>  (57) 
autodockgpu

>  <m_score__min__energy>  (57) 
-9.1799999999999997

>  <m_primary>  (57) 
energy

>  <rmsd>  (57) 
2.3578587443527184

>  <m_score__min__rmsd>  (57) 
2.3578587443527184

>  <meeko>  (57) 
{"free_energy": -9.02, "intermolecular_energy": -10.51, "internal_energy": -1.91, "cluster_size": 15, "cluster_id": 1, "rank_in_cluster": 6}

>  <energy>  (57) 
-9.02

>  <cluster_rmsd>  (57) 
0.3

>  <cluster>  (57) 
1

$$$$

     RDKit          3D

 50 53  0  0  0  0  0  0  0  0999 V2000
  140.5240   71.4640  221.2980 O   0  0  0  0  0  0  0  0  0  0  0  0
  140.1830   72.0900  222.3370 C   0  0  0  0  0  0  0  0  0  0  0  0
  139.8290   73.4650  222.3340 N   0  0  0  0  0  0  0  0  0  0  0  0
  139.8370   74.2590  221.1210 C   0  0  0  0  0  0  0  0  0  0  0  0
  139.8980   75.6650  221.5210 C   0  0  0  0  0  0  0  0  0  0  0  0
  139.5630   75.9750  222.7060 O   0  0  0  0  0  0  0  0  0  0  0  0
  140.3190   76.7250  220.6320 N   0  0  0  0  0  0  0  0  0  0  0  0
  139.3480   77.1340  219.6340 C   0  0  0  0  0  0  0  0  0  0  0  0
  139.9290   77.8400  218.4690 C   0  0  0  0  0  0  0  0  0  0  0  0
  141.3920   77.6480  218.2500 C   0  0  0  0  0  0  0  0  0  0  0  0
  142.2390   77.5600  219.4440 C   0  0  0  0  0  0  0  0  0  0  0  0
  141.6300   77.3120  220.7630 C   0  0  1  0  0  0  0  0  0  0  0  0
  141.6480   78.4780  221.6840 C   0  0  0  0  0  0  0  0  0  0  0  0
  141.4660   78.3490  223.0570 C   0  0  0  0  0  0  0  0  0  0  0  0
  141.4830   79.4340  223.9100 C   0  0  0  0  0  0  0  0  0  0  0  0
  141.6850   80.6800  223.3850 C   0  0  0  0  0  0  0  0  0  0  0  0
  141.8630   80.8360  222.0730 N   0  0  0  0  0  0  0  0  0  0  0  0
  141.8470   79.7800  221.2340 C   0  0  0  0  0  0  0  0  0  0  0  0
  140.1480   71.3600  223.6160 C   0  0  0  0  0  0  0  0  0  0  0  0
  139.6230   70.0910  223.6950 C   0  0  0  0  0  0  0  0  0  0  0  0
  139.5620   69.3580  224.8570 C   0  0  0  0  0  0  0  0  0  0  0  0
  140.0580   69.9360  226.0120 C   0  0  0  0  0  0  0  0  0  0  0  0
  139.9950   69.2050  227.1630 C   0  0  0  0  0  0  0  0  0  0  0  0
  140.4890   69.7710  228.3330 C   0  0  0  0  0  0  0  0  0  0  0  0
  141.0170   71.0360  228.2810 C   0  0  0  0  0  0  0  0  0  0  0  0
  141.0730   71.7640  227.1040 C   0  0  0  0  0  0  0  0  0  0  0  0
  140.5800   71.2060  225.9240 C   0  0  0  0  0  0  0  0  0  0  0  0
  140.6240   71.9000  224.7570 N   0  0  0  0  0  0  0  0  0  0  0  0
  139.5560   73.9040  223.2540 H   0  0  0  0  0  0  0  0  0  0  0  0
  140.7150   74.0033  220.5096 H   0  0  0  0  0  0  0  0  0  0  0  0
  138.9353   74.0636  220.5220 H   0  0  0  0  0  0  0  0  0  0  0  0
  138.8306   76.2347  219.2685 H   0  0  0  0  0  0  0  0  0  0  0  0
  138.6713   77.8469  220.1278 H   0  0  0  0  0  0  0  0  0  0  0  0
  139.4051   77.4893  217.5676 H   0  0  0  0  0  0  0  0  0  0  0  0
  139.7989   78.9122  218.6774 H   0  0  0  0  0  0  0  0  0  0  0  0
  141.5226   76.7156  217.6813 H   0  0  0  0  0  0  0  0  0  0  0  0
  141.7246   78.5590  217.7309 H   0  0  0  0  0  0  0  0  0  0  0  0
  142.9547   76.7438  219.2662 H   0  0  0  0  0  0  0  0  0  0  0  0
  142.6460   78.5773  219.5408 H   0  0  0  0  0  0  0  0  0  0  0  0
  142.2819   76.5760  221.2563 H   0  0  0  0  0  0  0  0  0  0  0  0
  141.3026   77.3460  223.4782 H   0  0  0  0  0  0  0  0  0  0  0  0
  141.3368   79.2987  224.9918 H   0  0  0  0  0  0  0  0  0  0  0  0
  141.7007   81.5576  224.0479 H   0  0  0  0  0  0  0  0  0  0  0  0
  141.9962   79.9536  220.1581 H   0  0  0  0  0  0  0  0  0  0  0  0
  139.2288   69.6357  222.7745 H   0  0  0  0  0  0  0  0  0  0  0  0
  139.1329   68.3452  224.8678 H   0  0  0  0  0  0  0  0  0  0  0  0
  139.5640   68.1930  227.1649 H   0  0  0  0  0  0  0  0  0  0  0  0
  140.4570   69.2153  229.2817 H   0  0  0  0  0  0  0  0  0  0  0  0
  141.4089   71.4871  229.2045 H   0  0  0  0  0  0  0  0  0  0  0  0
  141.5036   72.7762  227.0996 H   0  0  0  0  0  0  0  0  0  0  0  0
  1  2  2  0
  2  3  1  0
  3  4  1  0
  4  5  1  0
  5  6  2  0
  5  7  1  0
  7  8  1  0
  8  9  1  0
  9 10  1  0
 10 11  1  0
 11 12  1  0
 12 13  1  0
 13 14  2  0
 14 15  1  0
 15 16  2  0
 16 17  1  0
 17 18  2  0
  2 19  1  0
 19 20  2  0
 20 21  1  0
 21 22  2  0
 22 23  1  0
 23 24  2  0
 24 25  1  0
 25 26  2  0
 26 27  1  0
 27 28  2  0
 12  7  1  0
 18 13  1  0
 28 19  1  0
 27 22  1  0
  3 29  1  0
  4 30  1  0
  4 31  1  0
  8 32  1  0
  8 33  1  0
  9 34  1  0
  9 35  1  0
 10 36  1  0
 10 37  1  0
 11 38  1  0
 11 39  1  0
 12 40  1  1
 14 41  1  0
 15 42  1  0
 16 43  1  0
 18 44  1  0
 20 45  1  0
 21 46  1  0
 23 47  1  0
 24 48  1  0
 25 49  1  0
 26 50  1  0
M  END
>  <smiles>  (58) 
O=C(NCC(=O)N1CCCCC1c1cccnc1)c1ccc2ccccc2n1

>  <score_type>  (58) 
oracle

>  <origin>  (58) 
autodockgpu

>  <m_score__min__energy>  (58) 
-9.1799999999999997

>  <m_primary>  (58) 
energy

>  <rmsd>  (58) 
1.6792691202455594

>  <m_score__min__rmsd>  (58) 
1.6792691202455594

>  <meeko>  (58) 
{"free_energy": -8.67, "intermolecular_energy": -10.16, "internal_energy": -1.95, "cluster_size": 32, "cluster_id": 2, "rank_in_cluster": 17}

>  <energy>  (58) 
-8.93

>  <cluster_rmsd>  (58) 
0.34

>  <cluster>  (58) 
1

$$$$

     RDKit          3D

 50 53  0  0  0  0  0  0  0  0999 V2000
  141.4070   71.6380  221.4960 O   0  0  0  0  0  0  0  0  0  0  0  0
  140.5820   72.1250  222.3140 C   0  0  0  0  0  0  0  0  0  0  0  0
  139.8640   73.3250  222.0690 N   0  0  0  0  0  0  0  0  0  0  0  0
  140.0300   74.0870  220.8470 C   0  0  0  0  0  0  0  0  0  0  0  0
  141.0990   75.0580  221.0800 C   0  0  0  0  0  0  0  0  0  0  0  0
  141.2740   75.4980  222.2590 O   0  0  0  0  0  0  0  0  0  0  0  0
  141.9680   75.5450  220.0330 N   0  0  0  0  0  0  0  0  0  0  0  0
  142.2150   76.9760  220.0340 C   0  0  0  0  0  0  0  0  0  0  0  0
  142.6840   77.5160  218.7380 C   0  0  0  0  0  0  0  0  0  0  0  0
  142.4180   76.6670  217.5400 C   0  0  0  0  0  0  0  0  0  0  0  0
  142.5250   75.2150  217.7150 C   0  0  0  0  0  0  0  0  0  0  0  0
  142.5360   74.6350  219.0690 C   0  0  1  0  0  0  0  0  0  0  0  0
  143.8480   74.0870  219.5000 C   0  0  0  0  0  0  0  0  0  0  0  0
  144.2680   74.1060  220.8260 C   0  0  0  0  0  0  0  0  0  0  0  0
  145.4880   73.5970  221.2230 C   0  0  0  0  0  0  0  0  0  0  0  0
  146.3130   73.0550  220.2770 C   0  0  0  0  0  0  0  0  0  0  0  0
  145.9390   73.0210  218.9970 N   0  0  0  0  0  0  0  0  0  0  0  0
  144.7480   73.5170  218.6040 C   0  0  0  0  0  0  0  0  0  0  0  0
  140.3510   71.4160  223.5840 C   0  0  0  0  0  0  0  0  0  0  0  0
  139.6430   70.2370  223.6210 C   0  0  0  0  0  0  0  0  0  0  0  0
  139.3940   69.5280  224.7720 C   0  0  0  0  0  0  0  0  0  0  0  0
  139.8870   70.0350  225.9610 C   0  0  0  0  0  0  0  0  0  0  0  0
  139.6370   69.3270  227.1020 C   0  0  0  0  0  0  0  0  0  0  0  0
  140.1250   69.8230  228.3060 C   0  0  0  0  0  0  0  0  0  0  0  0
  140.8340   70.9980  228.2970 C   0  0  0  0  0  0  0  0  0  0  0  0
  141.0780   71.7020  227.1300 C   0  0  0  0  0  0  0  0  0  0  0  0
  140.5930   71.2150  225.9160 C   0  0  0  0  0  0  0  0  0  0  0  0
  140.8200   71.8870  224.7580 N   0  0  0  0  0  0  0  0  0  0  0  0
  139.1920   73.6560  222.8140 H   0  0  0  0  0  0  0  0  0  0  0  0
  140.3049   73.4161  220.0198 H   0  0  0  0  0  0  0  0  0  0  0  0
  139.0936   74.5970  220.5765 H   0  0  0  0  0  0  0  0  0  0  0  0
  141.2780   77.4868  220.3008 H   0  0  0  0  0  0  0  0  0  0  0  0
  143.0222   77.1550  220.7595 H   0  0  0  0  0  0  0  0  0  0  0  0
  142.1902   78.4860  218.5792 H   0  0  0  0  0  0  0  0  0  0  0  0
  143.7792   77.5762  218.8211 H   0  0  0  0  0  0  0  0  0  0  0  0
  141.3952   76.8855  217.1991 H   0  0  0  0  0  0  0  0  0  0  0  0
  143.2115   76.9273  216.8240 H   0  0  0  0  0  0  0  0  0  0  0  0
  141.6713   74.7675  217.1848 H   0  0  0  0  0  0  0  0  0  0  0  0
  143.5319   74.9881  217.3346 H   0  0  0  0  0  0  0  0  0  0  0  0
  141.8856   73.7495  219.0159 H   0  0  0  0  0  0  0  0  0  0  0  0
  143.6035   74.5427  221.5860 H   0  0  0  0  0  0  0  0  0  0  0  0
  145.7907   73.6268  222.2801 H   0  0  0  0  0  0  0  0  0  0  0  0
  147.2899   72.6450  220.5728 H   0  0  0  0  0  0  0  0  0  0  0  0
  144.4785   73.4695  217.5386 H   0  0  0  0  0  0  0  0  0  0  0  0
  139.2530   69.8379  222.6731 H   0  0  0  0  0  0  0  0  0  0  0  0
  138.8218   68.5888  224.7484 H   0  0  0  0  0  0  0  0  0  0  0  0
  139.0643   68.3884  227.0693 H   0  0  0  0  0  0  0  0  0  0  0  0
  139.9461   69.2837  229.2479 H   0  0  0  0  0  0  0  0  0  0  0  0
  141.2210   71.3933  229.2478 H   0  0  0  0  0  0  0  0  0  0  0  0
  141.6512   72.6404  227.1599 H   0  0  0  0  0  0  0  0  0  0  0  0
  1  2  2  0
  2  3  1  0
  3  4  1  0
  4  5  1  0
  5  6  2  0
  5  7  1  0
  7  8  1  0
  8  9  1  0
  9 10  1  0
 10 11  1  0
 11 12  1  0
 12 13  1  0
 13 14  2  0
 14 15  1  0
 15 16  2  0
 16 17  1  0
 17 18  2  0
  2 19  1  0
 19 20  2  0
 20 21  1  0
 21 22  2  0
 22 23  1  0
 23 24  2  0
 24 25  1  0
 25 26  2  0
 26 27  1  0
 27 28  2  0
 12  7  1  0
 18 13  1  0
 28 19  1  0
 27 22  1  0
  3 29  1  0
  4 30  1  0
  4 31  1  0
  8 32  1  0
  8 33  1  0
  9 34  1  0
  9 35  1  0
 10 36  1  0
 10 37  1  0
 11 38  1  0
 11 39  1  0
 12 40  1  6
 14 41  1  0
 15 42  1  0
 16 43  1  0
 18 44  1  0
 20 45  1  0
 21 46  1  0
 23 47  1  0
 24 48  1  0
 25 49  1  0
 26 50  1  0
M  END
>  <smiles>  (59) 
O=C(NCC(=O)N1CCCCC1c1cccnc1)c1ccc2ccccc2n1

>  <score_type>  (59) 
oracle

>  <origin>  (59) 
autodockgpu

>  <m_score__min__energy>  (59) 
-9.1799999999999997

>  <m_primary>  (59) 
energy

>  <rmsd>  (59) 
2.388908402484432

>  <m_score__min__rmsd>  (59) 
2.388908402484432

>  <meeko>  (59) 
{"free_energy": -9.17, "intermolecular_energy": -10.66, "internal_energy": -1.62, "cluster_size": 15, "cluster_id": 1, "rank_in_cluster": 2}

>  <energy>  (59) 
-8.83

>  <cluster_rmsd>  (59) 
1.29

>  <cluster>  (59) 
1

$$$$

     RDKit          3D

 50 53  0  0  0  0  0  0  0  0999 V2000
  140.4610   71.1210  221.2280 O   0  0  0  0  0  0  0  0  0  0  0  0
  140.2600   71.8630  222.2260 C   0  0  0  0  0  0  0  0  0  0  0  0
  140.1110   73.2710  222.1290 N   0  0  0  0  0  0  0  0  0  0  0  0
  140.1820   73.9670  220.8590 C   0  0  0  0  0  0  0  0  0  0  0  0
  141.0920   75.1000  221.0320 C   0  0  0  0  0  0  0  0  0  0  0  0
  141.0680   75.7370  222.1310 O   0  0  0  0  0  0  0  0  0  0  0  0
  142.0200   75.5340  220.0120 N   0  0  0  0  0  0  0  0  0  0  0  0
  142.3650   76.9440  220.0340 C   0  0  0  0  0  0  0  0  0  0  0  0
  142.9040   77.4610  218.7550 C   0  0  0  0  0  0  0  0  0  0  0  0
  142.6100   76.6430  217.5430 C   0  0  0  0  0  0  0  0  0  0  0  0
  142.6110   75.1850  217.7050 C   0  0  0  0  0  0  0  0  0  0  0  0
  142.5460   74.5940  219.0530 C   0  0  1  0  0  0  0  0  0  0  0  0
  143.8060   73.9530  219.5110 C   0  0  0  0  0  0  0  0  0  0  0  0
  144.0350   73.6180  220.8410 C   0  0  0  0  0  0  0  0  0  0  0  0
  145.2070   73.0220  221.2630 C   0  0  0  0  0  0  0  0  0  0  0  0
  146.1760   72.7520  220.3380 C   0  0  0  0  0  0  0  0  0  0  0  0
  145.9870   73.0590  219.0550 N   0  0  0  0  0  0  0  0  0  0  0  0
  144.8440   73.6420  218.6370 C   0  0  0  0  0  0  0  0  0  0  0  0
  140.1750   71.2400  223.5580 C   0  0  0  0  0  0  0  0  0  0  0  0
  139.6140   69.9950  223.7250 C   0  0  0  0  0  0  0  0  0  0  0  0
  139.5050   69.3590  224.9390 C   0  0  0  0  0  0  0  0  0  0  0  0
  139.9900   70.0150  226.0570 C   0  0  0  0  0  0  0  0  0  0  0  0
  139.8790   69.3810  227.2600 C   0  0  0  0  0  0  0  0  0  0  0  0
  140.3620   70.0270  228.3940 C   0  0  0  0  0  0  0  0  0  0  0  0
  140.9260   71.2700  228.2540 C   0  0  0  0  0  0  0  0  0  0  0  0
  141.0290   71.8980  227.0250 C   0  0  0  0  0  0  0  0  0  0  0  0
  140.5490   71.2610  225.8810 C   0  0  0  0  0  0  0  0  0  0  0  0
  140.6390   71.8570  224.6640 N   0  0  0  0  0  0  0  0  0  0  0  0
  139.9450   73.8110  223.0210 H   0  0  0  0  0  0  0  0  0  0  0  0
  140.5664   73.2913  220.0808 H   0  0  0  0  0  0  0  0  0  0  0  0
  139.1849   74.3131  220.5491 H   0  0  0  0  0  0  0  0  0  0  0  0
  141.4589   77.5163  220.2821 H   0  0  0  0  0  0  0  0  0  0  0  0
  143.1634   77.0607  220.7817 H   0  0  0  0  0  0  0  0  0  0  0  0
  142.4835   78.4646  218.5938 H   0  0  0  0  0  0  0  0  0  0  0  0
  143.9983   77.4438  218.8659 H   0  0  0  0  0  0  0  0  0  0  0  0
  141.6139   76.9354  217.1794 H   0  0  0  0  0  0  0  0  0  0  0  0
  143.4379   76.8531  216.8499 H   0  0  0  0  0  0  0  0  0  0  0  0
  141.7425   74.8030  217.1485 H   0  0  0  0  0  0  0  0  0  0  0  0
  143.6091   74.8914  217.3478 H   0  0  0  0  0  0  0  0  0  0  0  0
  141.8362   73.7573  218.9746 H   0  0  0  0  0  0  0  0  0  0  0  0
  143.2539   73.8357  221.5843 H   0  0  0  0  0  0  0  0  0  0  0  0
  145.3577   72.7695  222.3230 H   0  0  0  0  0  0  0  0  0  0  0  0
  147.1172   72.2786  220.6542 H   0  0  0  0  0  0  0  0  0  0  0  0
  144.7285   73.8796  217.5692 H   0  0  0  0  0  0  0  0  0  0  0  0
  139.2296   69.4774  222.8338 H   0  0  0  0  0  0  0  0  0  0  0  0
  139.0475   68.3619  225.0191 H   0  0  0  0  0  0  0  0  0  0  0  0
  139.4193   68.3843  227.3317 H   0  0  0  0  0  0  0  0  0  0  0  0
  140.2930   69.5506  229.3831 H   0  0  0  0  0  0  0  0  0  0  0  0
  141.3088   71.7842  229.1479 H   0  0  0  0  0  0  0  0  0  0  0  0
  141.4875   72.8952  226.9508 H   0  0  0  0  0  0  0  0  0  0  0  0
  1  2  2  0
  2  3  1  0
  3  4  1  0
  4  5  1  0
  5  6  2  0
  5  7  1  0
  7  8  1  0
  8  9  1  0
  9 10  1  0
 10 11  1  0
 11 12  1  0
 12 13  1  0
 13 14  2  0
 14 15  1  0
 15 16  2  0
 16 17  1  0
 17 18  2  0
  2 19  1  0
 19 20  2  0
 20 21  1  0
 21 22  2  0
 22 23  1  0
 23 24  2  0
 24 25  1  0
 25 26  2  0
 26 27  1  0
 27 28  2  0
 12  7  1  0
 18 13  1  0
 28 19  1  0
 27 22  1  0
  3 29  1  0
  4 30  1  0
  4 31  1  0
  8 32  1  0
  8 33  1  0
  9 34  1  0
  9 35  1  0
 10 36  1  0
 10 37  1  0
 11 38  1  0
 11 39  1  0
 12 40  1  6
 14 41  1  0
 15 42  1  0
 16 43  1  0
 18 44  1  0
 20 45  1  0
 21 46  1  0
 23 47  1  0
 24 48  1  0
 25 49  1  0
 26 50  1  0
M  END
>  <smiles>  (60) 
O=C(NCC(=O)N1CCCCC1c1cccnc1)c1ccc2ccccc2n1

>  <score_type>  (60) 
oracle

>  <origin>  (60) 
autodockgpu

>  <m_score__min__energy>  (60) 
-9.1799999999999997

>  <m_primary>  (60) 
energy

>  <rmsd>  (60) 
2.4154635024273845

>  <m_score__min__rmsd>  (60) 
2.4154635024273845

>  <meeko>  (60) 
{"free_energy": -8.81, "intermolecular_energy": -10.3, "internal_energy": -1.95, "cluster_size": 15, "cluster_id": 1, "rank_in_cluster": 10}

>  <energy>  (60) 
-8.81

>  <cluster_rmsd>  (60) 
0.36

>  <cluster>  (60) 
1

$$$$

     RDKit          3D

 50 53  0  0  0  0  0  0  0  0999 V2000
  137.1320   76.0200  222.2210 O   0  0  0  0  0  0  0  0  0  0  0  0
  138.3880   76.0880  222.3020 C   0  0  0  0  0  0  0  0  0  0  0  0
  139.2390   74.9700  222.1020 N   0  0  0  0  0  0  0  0  0  0  0  0
  138.7210   73.6530  221.7880 C   0  0  0  0  0  0  0  0  0  0  0  0
  139.6160   72.6730  222.4030 C   0  0  0  0  0  0  0  0  0  0  0  0
  140.7960   73.0340  222.7060 O   0  0  0  0  0  0  0  0  0  0  0  0
  139.2270   71.3100  222.6830 N   0  0  0  0  0  0  0  0  0  0  0  0
  139.6150   70.3260  221.6880 C   0  0  0  0  0  0  0  0  0  0  0  0
  138.8290   69.0720  221.7300 C   0  0  0  0  0  0  0  0  0  0  0  0
  137.5150   69.1460  222.4330 C   0  0  0  0  0  0  0  0  0  0  0  0
  137.4430   69.9960  223.6250 C   0  0  0  0  0  0  0  0  0  0  0  0
  138.5000   70.9880  223.8870 C   0  0  1  0  0  0  0  0  0  0  0  0
  139.3950   70.6560  225.0260 C   0  0  0  0  0  0  0  0  0  0  0  0
  140.3840   71.5230  225.4780 C   0  0  0  0  0  0  0  0  0  0  0  0
  141.2140   71.2120  226.5360 C   0  0  0  0  0  0  0  0  0  0  0  0
  141.0570   70.0060  227.1620 C   0  0  0  0  0  0  0  0  0  0  0  0
  140.1170   69.1530  226.7530 N   0  0  0  0  0  0  0  0  0  0  0  0
  139.3040   69.4520  225.7190 C   0  0  0  0  0  0  0  0  0  0  0  0
  139.0010   77.3890  222.6190 C   0  0  0  0  0  0  0  0  0  0  0  0
  138.2280   78.5070  222.8310 C   0  0  0  0  0  0  0  0  0  0  0  0
  138.7380   79.7470  223.1300 C   0  0  0  0  0  0  0  0  0  0  0  0
  140.1130   79.8740  223.2220 C   0  0  0  0  0  0  0  0  0  0  0  0
  140.6160   81.1080  223.5180 C   0  0  0  0  0  0  0  0  0  0  0  0
  141.9960   81.2530  223.6140 C   0  0  0  0  0  0  0  0  0  0  0  0
  142.7900   80.1540  223.4070 C   0  0  0  0  0  0  0  0  0  0  0  0
  142.2620   78.9090  223.1060 C   0  0  0  0  0  0  0  0  0  0  0  0
  140.8800   78.7520  223.0070 C   0  0  0  0  0  0  0  0  0  0  0  0
  140.3380   77.5410  222.7140 N   0  0  0  0  0  0  0  0  0  0  0  0
  140.2810   75.1230  222.1900 H   0  0  0  0  0  0  0  0  0  0  0  0
  137.7051   73.5417  222.1948 H   0  0  0  0  0  0  0  0  0  0  0  0
  138.6717   73.5044  220.6992 H   0  0  0  0  0  0  0  0  0  0  0  0
  139.4915   70.7764  220.6921 H   0  0  0  0  0  0  0  0  0  0  0  0
  140.6572   70.0511  221.9076 H   0  0  0  0  0  0  0  0  0  0  0  0
  138.6384   68.7596  220.6927 H   0  0  0  0  0  0  0  0  0  0  0  0
  139.4358   68.3614  222.3103 H   0  0  0  0  0  0  0  0  0  0  0  0
  136.7742   69.5224  221.7122 H   0  0  0  0  0  0  0  0  0  0  0  0
  137.3301   68.1254  222.7994 H   0  0  0  0  0  0  0  0  0  0  0  0
  136.4952   70.5508  223.5627 H   0  0  0  0  0  0  0  0  0  0  0  0
  137.5566   69.2807  224.4529 H   0  0  0  0  0  0  0  0  0  0  0  0
  137.9760   71.8965  224.2186 H   0  0  0  0  0  0  0  0  0  0  0  0
  140.5094   72.4925  224.9736 H   0  0  0  0  0  0  0  0  0  0  0  0
  141.9868   71.9203  226.8693 H   0  0  0  0  0  0  0  0  0  0  0  0
  141.7090   69.7385  228.0066 H   0  0  0  0  0  0  0  0  0  0  0  0
  138.5429   68.7193  225.4128 H   0  0  0  0  0  0  0  0  0  0  0  0
  137.1356   78.4017  222.7566 H   0  0  0  0  0  0  0  0  0  0  0  0
  138.0755   80.6103  223.2910 H   0  0  0  0  0  0  0  0  0  0  0  0
  139.9466   81.9663  223.6767 H   0  0  0  0  0  0  0  0  0  0  0  0
  142.4419   82.2302  223.8513 H   0  0  0  0  0  0  0  0  0  0  0  0
  143.8818   80.2647  223.4824 H   0  0  0  0  0  0  0  0  0  0  0  0
  142.9292   78.0492  222.9460 H   0  0  0  0  0  0  0  0  0  0  0  0
  1  2  2  0
  2  3  1  0
  3  4  1  0
  4  5  1  0
  5  6  2  0
  5  7  1  0
  7  8  1  0
  8  9  1  0
  9 10  1  0
 10 11  1  0
 11 12  1  0
 12 13  1  0
 13 14  2  0
 14 15  1  0
 15 16  2  0
 16 17  1  0
 17 18  2  0
  2 19  1  0
 19 20  2  0
 20 21  1  0
 21 22  2  0
 22 23  1  0
 23 24  2  0
 24 25  1  0
 25 26  2  0
 26 27  1  0
 27 28  2  0
 12  7  1  0
 18 13  1  0
 28 19  1  0
 27 22  1  0
  3 29  1  0
  4 30  1  0
  4 31  1  0
  8 32  1  0
  8 33  1  0
  9 34  1  0
  9 35  1  0
 10 36  1  0
 10 37  1  0
 11 38  1  0
 11 39  1  0
 12 40  1  1
 14 41  1  0
 15 42  1  0
 16 43  1  0
 18 44  1  0
 20 45  1  0
 21 46  1  0
 23 47  1  0
 24 48  1  0
 25 49  1  0
 26 50  1  0
M  END
>  <smiles>  (61) 
O=C(NCC(=O)N1CCCCC1c1cccnc1)c1ccc2ccccc2n1

>  <score_type>  (61) 
oracle

>  <origin>  (61) 
autodockgpu

>  <m_score__min__energy>  (61) 
-9.1799999999999997

>  <m_primary>  (61) 
energy

>  <rmsd>  (61) 
8.334368960978303

>  <m_score__min__rmsd>  (61) 
8.334368960978303

>  <meeko>  (61) 
{"free_energy": -7.74, "intermolecular_energy": -9.23, "internal_energy": -2.13, "cluster_size": 3, "cluster_id": 3, "rank_in_cluster": 2}

>  <energy>  (61) 
-8.73

>  <cluster_rmsd>  (61) 
0.75

>  <cluster>  (61) 
1

$$$$

     RDKit          3D

 50 53  0  0  0  0  0  0  0  0999 V2000
  140.5310   71.0930  221.2400 O   0  0  0  0  0  0  0  0  0  0  0  0
  140.2970   71.8210  222.2410 C   0  0  0  0  0  0  0  0  0  0  0  0
  140.1250   73.2270  222.1540 N   0  0  0  0  0  0  0  0  0  0  0  0
  140.2080   73.9360  220.8920 C   0  0  0  0  0  0  0  0  0  0  0  0
  141.1230   75.0620  221.0830 C   0  0  0  0  0  0  0  0  0  0  0  0
  141.1490   75.6390  222.2150 O   0  0  0  0  0  0  0  0  0  0  0  0
  142.0020   75.5540  220.0470 N   0  0  0  0  0  0  0  0  0  0  0  0
  142.2560   76.9830  220.0620 C   0  0  0  0  0  0  0  0  0  0  0  0
  142.7360   77.5320  218.7730 C   0  0  0  0  0  0  0  0  0  0  0  0
  142.4740   76.6950  217.5670 C   0  0  0  0  0  0  0  0  0  0  0  0
  142.5720   75.2410  217.7290 C   0  0  0  0  0  0  0  0  0  0  0  0
  142.5710   74.6490  219.0780 C   0  0  1  0  0  0  0  0  0  0  0  0
  143.8780   74.0910  219.5120 C   0  0  0  0  0  0  0  0  0  0  0  0
  144.3030   74.1240  220.8360 C   0  0  0  0  0  0  0  0  0  0  0  0
  145.5180   73.6050  221.2360 C   0  0  0  0  0  0  0  0  0  0  0  0
  146.3320   73.0370  220.2960 C   0  0  0  0  0  0  0  0  0  0  0  0
  145.9520   72.9880  219.0190 N   0  0  0  0  0  0  0  0  0  0  0  0
  144.7660   73.4950  218.6220 C   0  0  0  0  0  0  0  0  0  0  0  0
  140.1960   71.1840  223.5650 C   0  0  0  0  0  0  0  0  0  0  0  0
  139.6110   69.9470  223.7160 C   0  0  0  0  0  0  0  0  0  0  0  0
  139.4870   69.3000  224.9220 C   0  0  0  0  0  0  0  0  0  0  0  0
  139.9810   69.9330  226.0480 C   0  0  0  0  0  0  0  0  0  0  0  0
  139.8550   69.2870  227.2440 C   0  0  0  0  0  0  0  0  0  0  0  0
  140.3460   69.9100  228.3860 C   0  0  0  0  0  0  0  0  0  0  0  0
  140.9330   71.1440  228.2630 C   0  0  0  0  0  0  0  0  0  0  0  0
  141.0520   71.7850  227.0420 C   0  0  0  0  0  0  0  0  0  0  0  0
  140.5630   71.1700  225.8890 C   0  0  0  0  0  0  0  0  0  0  0  0
  140.6690   71.7790  224.6800 N   0  0  0  0  0  0  0  0  0  0  0  0
  139.9310   73.7560  223.0470 H   0  0  0  0  0  0  0  0  0  0  0  0
  140.5937   73.2665  220.1091 H   0  0  0  0  0  0  0  0  0  0  0  0
  139.2148   74.2908  220.5794 H   0  0  0  0  0  0  0  0  0  0  0  0
  141.3199   77.4962  220.3274 H   0  0  0  0  0  0  0  0  0  0  0  0
  143.0595   77.1516  220.7940 H   0  0  0  0  0  0  0  0  0  0  0  0
  142.2476   78.5056  218.6193 H   0  0  0  0  0  0  0  0  0  0  0  0
  143.8309   77.5864  218.8636 H   0  0  0  0  0  0  0  0  0  0  0  0
  141.4547   76.9219  217.2212 H   0  0  0  0  0  0  0  0  0  0  0  0
  143.2743   76.9571  216.8593 H   0  0  0  0  0  0  0  0  0  0  0  0
  141.7194   74.8030  217.1893 H   0  0  0  0  0  0  0  0  0  0  0  0
  143.5799   75.0118  217.3527 H   0  0  0  0  0  0  0  0  0  0  0  0
  141.9158   73.7678  219.0133 H   0  0  0  0  0  0  0  0  0  0  0  0
  143.6470   74.5803  221.5919 H   0  0  0  0  0  0  0  0  0  0  0  0
  145.8254   73.6477  222.2913 H   0  0  0  0  0  0  0  0  0  0  0  0
  147.3046   72.6186  220.5945 H   0  0  0  0  0  0  0  0  0  0  0  0
  144.4920   73.4350  217.5584 H   0  0  0  0  0  0  0  0  0  0  0  0
  139.2195   69.4468  222.8179 H   0  0  0  0  0  0  0  0  0  0  0  0
  139.0104   68.3109  224.9895 H   0  0  0  0  0  0  0  0  0  0  0  0
  139.3769   68.2981  227.3028 H   0  0  0  0  0  0  0  0  0  0  0  0
  140.2654   69.4230  229.3690 H   0  0  0  0  0  0  0  0  0  0  0  0
  141.3219   71.6403  229.1644 H   0  0  0  0  0  0  0  0  0  0  0  0
  141.5296   72.7740  226.9810 H   0  0  0  0  0  0  0  0  0  0  0  0
  1  2  2  0
  2  3  1  0
  3  4  1  0
  4  5  1  0
  5  6  2  0
  5  7  1  0
  7  8  1  0
  8  9  1  0
  9 10  1  0
 10 11  1  0
 11 12  1  0
 12 13  1  0
 13 14  2  0
 14 15  1  0
 15 16  2  0
 16 17  1  0
 17 18  2  0
  2 19  1  0
 19 20  2  0
 20 21  1  0
 21 22  2  0
 22 23  1  0
 23 24  2  0
 24 25  1  0
 25 26  2  0
 26 27  1  0
 27 28  2  0
 12  7  1  0
 18 13  1  0
 28 19  1  0
 27 22  1  0
  3 29  1  0
  4 30  1  0
  4 31  1  0
  8 32  1  0
  8 33  1  0
  9 34  1  0
  9 35  1  0
 10 36  1  0
 10 37  1  0
 11 38  1  0
 11 39  1  0
 12 40  1  6
 14 41  1  0
 15 42  1  0
 16 43  1  0
 18 44  1  0
 20 45  1  0
 21 46  1  0
 23 47  1  0
 24 48  1  0
 25 49  1  0
 26 50  1  0
M  END
>  <smiles>  (62) 
O=C(NCC(=O)N1CCCCC1c1cccnc1)c1ccc2ccccc2n1

>  <score_type>  (62) 
oracle

>  <origin>  (62) 
autodockgpu

>  <m_score__min__energy>  (62) 
-9.1799999999999997

>  <m_primary>  (62) 
energy

>  <rmsd>  (62) 
2.3785748312038884

>  <m_score__min__rmsd>  (62) 
2.3785748312038884

>  <meeko>  (62) 
{"free_energy": -9.02, "intermolecular_energy": -10.51, "internal_energy": -1.9, "cluster_size": 15, "cluster_id": 1, "rank_in_cluster": 7}

>  <energy>  (62) 
-8.7

>  <cluster_rmsd>  (62) 
0.59

>  <cluster>  (62) 
1

$$$$

     RDKit          3D

 50 53  0  0  0  0  0  0  0  0999 V2000
  140.5340   71.4690  221.2910 O   0  0  0  0  0  0  0  0  0  0  0  0
  140.1900   72.0890  222.3320 C   0  0  0  0  0  0  0  0  0  0  0  0
  139.8330   73.4630  222.3330 N   0  0  0  0  0  0  0  0  0  0  0  0
  139.8420   74.2630  221.1240 C   0  0  0  0  0  0  0  0  0  0  0  0
  139.8910   75.6670  221.5300 C   0  0  0  0  0  0  0  0  0  0  0  0
  139.5380   75.9720  222.7110 O   0  0  0  0  0  0  0  0  0  0  0  0
  140.3200   76.7320  220.6510 N   0  0  0  0  0  0  0  0  0  0  0  0
  139.3540   77.1540  219.6530 C   0  0  0  0  0  0  0  0  0  0  0  0
  139.9420   77.8670  218.4960 C   0  0  0  0  0  0  0  0  0  0  0  0
  141.4050   77.6700  218.2800 C   0  0  0  0  0  0  0  0  0  0  0  0
  142.2480   77.5680  219.4760 C   0  0  0  0  0  0  0  0  0  0  0  0
  141.6330   77.3120  220.7900 C   0  0  1  0  0  0  0  0  0  0  0  0
  141.6530   78.4700  221.7210 C   0  0  0  0  0  0  0  0  0  0  0  0
  141.4550   78.3330  223.0910 C   0  0  0  0  0  0  0  0  0  0  0  0
  141.4740   79.4110  223.9530 C   0  0  0  0  0  0  0  0  0  0  0  0
  141.6960   80.6580  223.4400 C   0  0  0  0  0  0  0  0  0  0  0  0
  141.8900   80.8230  222.1310 N   0  0  0  0  0  0  0  0  0  0  0  0
  141.8730   79.7730  221.2840 C   0  0  0  0  0  0  0  0  0  0  0  0
  140.1530   71.3540  223.6070 C   0  0  0  0  0  0  0  0  0  0  0  0
  139.6360   70.0820  223.6800 C   0  0  0  0  0  0  0  0  0  0  0  0
  139.5740   69.3440  224.8380 C   0  0  0  0  0  0  0  0  0  0  0  0
  140.0620   69.9200  225.9970 C   0  0  0  0  0  0  0  0  0  0  0  0
  139.9980   69.1830  227.1450 C   0  0  0  0  0  0  0  0  0  0  0  0
  140.4850   69.7480  228.3190 C   0  0  0  0  0  0  0  0  0  0  0  0
  141.0060   71.0160  228.2740 C   0  0  0  0  0  0  0  0  0  0  0  0
  141.0620   71.7490  227.1000 C   0  0  0  0  0  0  0  0  0  0  0  0
  140.5770   71.1930  225.9160 C   0  0  0  0  0  0  0  0  0  0  0  0
  140.6220   71.8920  224.7530 N   0  0  0  0  0  0  0  0  0  0  0  0
  139.5570   73.8990  223.2550 H   0  0  0  0  0  0  0  0  0  0  0  0
  140.7250   74.0162  220.5162 H   0  0  0  0  0  0  0  0  0  0  0  0
  138.9447   74.0642  220.5196 H   0  0  0  0  0  0  0  0  0  0  0  0
  138.8337   76.2602  219.2782 H   0  0  0  0  0  0  0  0  0  0  0  0
  138.6790   77.8659  220.1506 H   0  0  0  0  0  0  0  0  0  0  0  0
  139.4193   77.5264  217.5900 H   0  0  0  0  0  0  0  0  0  0  0  0
  139.8162   78.9380  218.7131 H   0  0  0  0  0  0  0  0  0  0  0  0
  141.5331   76.7418  217.7038 H   0  0  0  0  0  0  0  0  0  0  0  0
  141.7435   78.5838  217.7696 H   0  0  0  0  0  0  0  0  0  0  0  0
  142.9604   76.7499  219.2938 H   0  0  0  0  0  0  0  0  0  0  0  0
  142.6602   78.5823  219.5826 H   0  0  0  0  0  0  0  0  0  0  0  0
  142.2802   76.5685  221.2783 H   0  0  0  0  0  0  0  0  0  0  0  0
  141.2767   77.3286  223.5027 H   0  0  0  0  0  0  0  0  0  0  0  0
  141.3135   79.2690  225.0319 H   0  0  0  0  0  0  0  0  0  0  0  0
  141.7148   81.5301  224.1102 H   0  0  0  0  0  0  0  0  0  0  0  0
  142.0387   79.9528  220.2115 H   0  0  0  0  0  0  0  0  0  0  0  0
  139.2487   69.6276  222.7561 H   0  0  0  0  0  0  0  0  0  0  0  0
  139.1503   68.3289  224.8428 H   0  0  0  0  0  0  0  0  0  0  0  0
  139.5723   68.1687  227.1413 H   0  0  0  0  0  0  0  0  0  0  0  0
  140.4529   69.1885  229.2656 H   0  0  0  0  0  0  0  0  0  0  0  0
  141.3921   71.4656  229.2007 H   0  0  0  0  0  0  0  0  0  0  0  0
  141.4865   72.7638  227.1013 H   0  0  0  0  0  0  0  0  0  0  0  0
  1  2  2  0
  2  3  1  0
  3  4  1  0
  4  5  1  0
  5  6  2  0
  5  7  1  0
  7  8  1  0
  8  9  1  0
  9 10  1  0
 10 11  1  0
 11 12  1  0
 12 13  1  0
 13 14  2  0
 14 15  1  0
 15 16  2  0
 16 17  1  0
 17 18  2  0
  2 19  1  0
 19 20  2  0
 20 21  1  0
 21 22  2  0
 22 23  1  0
 23 24  2  0
 24 25  1  0
 25 26  2  0
 26 27  1  0
 27 28  2  0
 12  7  1  0
 18 13  1  0
 28 19  1  0
 27 22  1  0
  3 29  1  0
  4 30  1  0
  4 31  1  0
  8 32  1  0
  8 33  1  0
  9 34  1  0
  9 35  1  0
 10 36  1  0
 10 37  1  0
 11 38  1  0
 11 39  1  0
 12 40  1  1
 14 41  1  0
 15 42  1  0
 16 43  1  0
 18 44  1  0
 20 45  1  0
 21 46  1  0
 23 47  1  0
 24 48  1  0
 25 49  1  0
 26 50  1  0
M  END
>  <smiles>  (63) 
O=C(NCC(=O)N1CCCCC1c1cccnc1)c1ccc2ccccc2n1

>  <score_type>  (63) 
oracle

>  <origin>  (63) 
autodockgpu

>  <m_score__min__energy>  (63) 
-9.1799999999999997

>  <m_primary>  (63) 
energy

>  <rmsd>  (63) 
1.6890138228757117

>  <m_score__min__rmsd>  (63) 
1.6890138228757117

>  <meeko>  (63) 
{"free_energy": -8.67, "intermolecular_energy": -10.16, "internal_energy": -1.95, "cluster_size": 32, "cluster_id": 2, "rank_in_cluster": 16}

>  <energy>  (63) 
-8.69

>  <cluster_rmsd>  (63) 
0.59

>  <cluster>  (63) 
1

$$$$

     RDKit          3D

 50 53  0  0  0  0  0  0  0  0999 V2000
  141.4720   71.8970  221.6320 O   0  0  0  0  0  0  0  0  0  0  0  0
  140.6410   72.3260  222.4760 C   0  0  0  0  0  0  0  0  0  0  0  0
  139.9580   73.5620  222.3320 N   0  0  0  0  0  0  0  0  0  0  0  0
  140.1720   74.4320  221.1930 C   0  0  0  0  0  0  0  0  0  0  0  0
  139.8610   75.7960  221.6210 C   0  0  0  0  0  0  0  0  0  0  0  0
  139.2840   75.9650  222.7400 O   0  0  0  0  0  0  0  0  0  0  0  0
  140.1750   76.9660  220.8320 N   0  0  0  0  0  0  0  0  0  0  0  0
  139.0720   77.5340  220.0790 C   0  0  0  0  0  0  0  0  0  0  0  0
  139.4830   78.3920  218.9450 C   0  0  0  0  0  0  0  0  0  0  0  0
  140.8810   78.2070  218.4580 C   0  0  0  0  0  0  0  0  0  0  0  0
  141.9080   77.9300  219.4680 C   0  0  0  0  0  0  0  0  0  0  0  0
  141.5140   77.5040  220.8210 C   0  0  1  0  0  0  0  0  0  0  0  0
  141.7310   78.5230  221.8810 C   0  0  0  0  0  0  0  0  0  0  0  0
  141.4890   78.2660  223.2270 C   0  0  0  0  0  0  0  0  0  0  0  0
  141.6910   79.2140  224.2090 C   0  0  0  0  0  0  0  0  0  0  0  0
  142.1470   80.4510  223.8440 C   0  0  0  0  0  0  0  0  0  0  0  0
  142.3900   80.7280  222.5630 N   0  0  0  0  0  0  0  0  0  0  0  0
  142.1930   79.8050  221.5980 C   0  0  0  0  0  0  0  0  0  0  0  0
  140.3620   71.5050  223.6670 C   0  0  0  0  0  0  0  0  0  0  0  0
  139.6740   70.3170  223.5660 C   0  0  0  0  0  0  0  0  0  0  0  0
  139.3830   69.5070  224.6370 C   0  0  0  0  0  0  0  0  0  0  0  0
  139.8090   69.9140  225.8890 C   0  0  0  0  0  0  0  0  0  0  0  0
  139.5180   69.1070  226.9510 C   0  0  0  0  0  0  0  0  0  0  0  0
  139.9380   69.5020  228.2160 C   0  0  0  0  0  0  0  0  0  0  0  0
  140.6250   70.6820  228.3440 C   0  0  0  0  0  0  0  0  0  0  0  0
  140.9120   71.4900  227.2550 C   0  0  0  0  0  0  0  0  0  0  0  0
  140.4950   71.1040  225.9810 C   0  0  0  0  0  0  0  0  0  0  0  0
  140.7650   71.8780  224.8990 N   0  0  0  0  0  0  0  0  0  0  0  0
  139.2770   73.8390  223.0910 H   0  0  0  0  0  0  0  0  0  0  0  0
  141.2200   74.3706  220.8644 H   0  0  0  0  0  0  0  0  0  0  0  0
  139.5315   74.1335  220.3500 H   0  0  0  0  0  0  0  0  0  0  0  0
  138.4645   76.7072  219.6822 H   0  0  0  0  0  0  0  0  0  0  0  0
  138.5161   78.1792  220.7752 H   0  0  0  0  0  0  0  0  0  0  0  0
  138.8039   78.1869  218.1044 H   0  0  0  0  0  0  0  0  0  0  0  0
  139.4343   79.4244  219.3214 H   0  0  0  0  0  0  0  0  0  0  0  0
  140.8768   77.3653  217.7498 H   0  0  0  0  0  0  0  0  0  0  0  0
  141.1625   79.1777  218.0239 H   0  0  0  0  0  0  0  0  0  0  0  0
  142.5493   77.1353  219.0591 H   0  0  0  0  0  0  0  0  0  0  0  0
  142.3684   78.9146  219.6370 H   0  0  0  0  0  0  0  0  0  0  0  0
  142.2070   76.6926  221.0881 H   0  0  0  0  0  0  0  0  0  0  0  0
  141.1232   77.2705  223.5189 H   0  0  0  0  0  0  0  0  0  0  0  0
  141.4893   78.9797  225.2647 H   0  0  0  0  0  0  0  0  0  0  0  0
  142.3140   81.2210  224.6116 H   0  0  0  0  0  0  0  0  0  0  0  0
  142.4047   80.0751  220.5529 H   0  0  0  0  0  0  0  0  0  0  0  0
  139.3373   69.9972  222.5688 H   0  0  0  0  0  0  0  0  0  0  0  0
  138.8295   68.5658  224.5035 H   0  0  0  0  0  0  0  0  0  0  0  0
  138.9646   68.1670  226.8092 H   0  0  0  0  0  0  0  0  0  0  0  0
  139.7234   68.8799  229.0975 H   0  0  0  0  0  0  0  0  0  0  0  0
  140.9591   70.9975  229.3434 H   0  0  0  0  0  0  0  0  0  0  0  0
  141.4655   72.4303  227.3946 H   0  0  0  0  0  0  0  0  0  0  0  0
  1  2  2  0
  2  3  1  0
  3  4  1  0
  4  5  1  0
  5  6  2  0
  5  7  1  0
  7  8  1  0
  8  9  1  0
  9 10  1  0
 10 11  1  0
 11 12  1  0
 12 13  1  0
 13 14  2  0
 14 15  1  0
 15 16  2  0
 16 17  1  0
 17 18  2  0
  2 19  1  0
 19 20  2  0
 20 21  1  0
 21 22  2  0
 22 23  1  0
 23 24  2  0
 24 25  1  0
 25 26  2  0
 26 27  1  0
 27 28  2  0
 12  7  1  0
 18 13  1  0
 28 19  1  0
 27 22  1  0
  3 29  1  0
  4 30  1  0
  4 31  1  0
  8 32  1  0
  8 33  1  0
  9 34  1  0
  9 35  1  0
 10 36  1  0
 10 37  1  0
 11 38  1  0
 11 39  1  0
 12 40  1  1
 14 41  1  0
 15 42  1  0
 16 43  1  0
 18 44  1  0
 20 45  1  0
 21 46  1  0
 23 47  1  0
 24 48  1  0
 25 49  1  0
 26 50  1  0
M  END
>  <smiles>  (64) 
O=C(NCC(=O)N1CCCCC1c1cccnc1)c1ccc2ccccc2n1

>  <score_type>  (64) 
oracle

>  <origin>  (64) 
autodockgpu

>  <m_score__min__energy>  (64) 
-9.1799999999999997

>  <m_primary>  (64) 
energy

>  <rmsd>  (64) 
1.9729224104932859

>  <m_score__min__rmsd>  (64) 
1.9729224104932859

>  <meeko>  (64) 
{"free_energy": -8.7, "intermolecular_energy": -10.19, "internal_energy": -1.86, "cluster_size": 32, "cluster_id": 2, "rank_in_cluster": 9}

>  <energy>  (64) 
-8.65

>  <cluster_rmsd>  (64) 
0.64

>  <cluster>  (64) 
1

$$$$

     RDKit          3D

 50 53  0  0  0  0  0  0  0  0999 V2000
  140.1950   71.3980  221.2860 O   0  0  0  0  0  0  0  0  0  0  0  0
  139.9920   72.0460  222.3480 C   0  0  0  0  0  0  0  0  0  0  0  0
  139.7320   73.4410  222.3670 N   0  0  0  0  0  0  0  0  0  0  0  0
  139.6820   74.2320  221.1540 C   0  0  0  0  0  0  0  0  0  0  0  0
  139.8440   75.6340  221.5390 C   0  0  0  0  0  0  0  0  0  0  0  0
  139.5400   75.9780  222.7240 O   0  0  0  0  0  0  0  0  0  0  0  0
  140.3340   76.6530  220.6380 N   0  0  0  0  0  0  0  0  0  0  0  0
  139.4210   77.0520  219.5820 C   0  0  0  0  0  0  0  0  0  0  0  0
  140.0740   77.7050  218.4250 C   0  0  0  0  0  0  0  0  0  0  0  0
  141.5400   77.4710  218.2820 C   0  0  0  0  0  0  0  0  0  0  0  0
  142.3280   77.4020  219.5170 C   0  0  0  0  0  0  0  0  0  0  0  0
  141.6520   77.2120  220.8120 C   0  0  1  0  0  0  0  0  0  0  0  0
  141.6570   78.4080  221.6950 C   0  0  0  0  0  0  0  0  0  0  0  0
  141.4800   78.3210  223.0720 C   0  0  0  0  0  0  0  0  0  0  0  0
  141.4840   79.4330  223.8900 C   0  0  0  0  0  0  0  0  0  0  0  0
  141.6690   80.6640  223.3240 C   0  0  0  0  0  0  0  0  0  0  0  0
  141.8420   80.7800  222.0070 N   0  0  0  0  0  0  0  0  0  0  0  0
  141.8380   79.6970  221.2030 C   0  0  0  0  0  0  0  0  0  0  0  0
  140.0250   71.3210  223.6300 C   0  0  0  0  0  0  0  0  0  0  0  0
  139.5700   70.0260  223.7250 C   0  0  0  0  0  0  0  0  0  0  0  0
  139.5740   69.2960  224.8900 C   0  0  0  0  0  0  0  0  0  0  0  0
  140.0660   69.9050  226.0310 C   0  0  0  0  0  0  0  0  0  0  0  0
  140.0680   69.1770  227.1860 C   0  0  0  0  0  0  0  0  0  0  0  0
  140.5590   69.7740  228.3420 C   0  0  0  0  0  0  0  0  0  0  0  0
  141.0170   71.0650  228.2740 C   0  0  0  0  0  0  0  0  0  0  0  0
  141.0080   71.7890  227.0930 C   0  0  0  0  0  0  0  0  0  0  0  0
  140.5180   71.2010  225.9270 C   0  0  0  0  0  0  0  0  0  0  0  0
  140.4980   71.8900  224.7570 N   0  0  0  0  0  0  0  0  0  0  0  0
  139.5730   73.8990  223.3060 H   0  0  0  0  0  0  0  0  0  0  0  0
  140.4945   73.9321  220.4758 H   0  0  0  0  0  0  0  0  0  0  0  0
  138.7263   74.0808  220.6309 H   0  0  0  0  0  0  0  0  0  0  0  0
  138.8988   76.1538  219.2208 H   0  0  0  0  0  0  0  0  0  0  0  0
  138.7397   77.7963  220.0199 H   0  0  0  0  0  0  0  0  0  0  0  0
  139.5842   77.3379  217.5111 H   0  0  0  0  0  0  0  0  0  0  0  0
  139.9620   78.7862  218.5934 H   0  0  0  0  0  0  0  0  0  0  0  0
  141.6732   76.5175  217.7499 H   0  0  0  0  0  0  0  0  0  0  0  0
  141.9195   78.3563  217.7507 H   0  0  0  0  0  0  0  0  0  0  0  0
  143.0303   76.5636  219.3993 H   0  0  0  0  0  0  0  0  0  0  0  0
  142.7560   78.4118  219.6008 H   0  0  0  0  0  0  0  0  0  0  0  0
  142.2605   76.4766  221.3587 H   0  0  0  0  0  0  0  0  0  0  0  0
  141.3314   77.3300  223.5256 H   0  0  0  0  0  0  0  0  0  0  0  0
  141.3411   79.3308  224.9759 H   0  0  0  0  0  0  0  0  0  0  0  0
  141.6751   81.5628  223.9582 H   0  0  0  0  0  0  0  0  0  0  0  0
  141.9827   79.8375  220.1217 H   0  0  0  0  0  0  0  0  0  0  0  0
  139.1800   69.5464  222.8151 H   0  0  0  0  0  0  0  0  0  0  0  0
  139.1986   68.2623  224.9143 H   0  0  0  0  0  0  0  0  0  0  0  0
  139.6906   68.1439  227.2018 H   0  0  0  0  0  0  0  0  0  0  0  0
  140.5797   69.2213  229.2928 H   0  0  0  0  0  0  0  0  0  0  0  0
  141.4041   71.5410  229.1870 H   0  0  0  0  0  0  0  0  0  0  0  0
  141.3853   72.8221  227.0749 H   0  0  0  0  0  0  0  0  0  0  0  0
  1  2  2  0
  2  3  1  0
  3  4  1  0
  4  5  1  0
  5  6  2  0
  5  7  1  0
  7  8  1  0
  8  9  1  0
  9 10  1  0
 10 11  1  0
 11 12  1  0
 12 13  1  0
 13 14  2  0
 14 15  1  0
 15 16  2  0
 16 17  1  0
 17 18  2  0
  2 19  1  0
 19 20  2  0
 20 21  1  0
 21 22  2  0
 22 23  1  0
 23 24  2  0
 24 25  1  0
 25 26  2  0
 26 27  1  0
 27 28  2  0
 12  7  1  0
 18 13  1  0
 28 19  1  0
 27 22  1  0
  3 29  1  0
  4 30  1  0
  4 31  1  0
  8 32  1  0
  8 33  1  0
  9 34  1  0
  9 35  1  0
 10 36  1  0
 10 37  1  0
 11 38  1  0
 11 39  1  0
 12 40  1  1
 14 41  1  0
 15 42  1  0
 16 43  1  0
 18 44  1  0
 20 45  1  0
 21 46  1  0
 23 47  1  0
 24 48  1  0
 25 49  1  0
 26 50  1  0
M  END
>  <smiles>  (65) 
O=C(NCC(=O)N1CCCCC1c1cccnc1)c1ccc2ccccc2n1

>  <score_type>  (65) 
oracle

>  <origin>  (65) 
autodockgpu

>  <m_score__min__energy>  (65) 
-9.1799999999999997

>  <m_primary>  (65) 
energy

>  <rmsd>  (65) 
1.619646616700416

>  <m_score__min__rmsd>  (65) 
1.619646616700416

>  <meeko>  (65) 
{"free_energy": -8.6, "intermolecular_energy": -10.1, "internal_energy": -1.99, "cluster_size": 32, "cluster_id": 2, "rank_in_cluster": 22}

>  <energy>  (65) 
-8.58

>  <cluster_rmsd>  (65) 
0.81

>  <cluster>  (65) 
1

$$$$

     RDKit          3D

 50 53  0  0  0  0  0  0  0  0999 V2000
  139.6930   70.7220  221.1530 O   0  0  0  0  0  0  0  0  0  0  0  0
  139.9700   71.4650  222.1320 C   0  0  0  0  0  0  0  0  0  0  0  0
  140.3200   72.8340  221.9920 N   0  0  0  0  0  0  0  0  0  0  0  0
  140.3860   73.4830  220.6980 C   0  0  0  0  0  0  0  0  0  0  0  0
  140.9740   74.8070  220.9040 C   0  0  0  0  0  0  0  0  0  0  0  0
  140.6740   75.4480  221.9580 O   0  0  0  0  0  0  0  0  0  0  0  0
  141.8810   75.4270  219.9640 N   0  0  0  0  0  0  0  0  0  0  0  0
  142.0650   76.8590  220.1160 C   0  0  0  0  0  0  0  0  0  0  0  0
  142.5840   77.5400  218.9090 C   0  0  0  0  0  0  0  0  0  0  0  0
  142.4250   76.8030  217.6220 C   0  0  0  0  0  0  0  0  0  0  0  0
  142.5850   75.3460  217.6630 C   0  0  0  0  0  0  0  0  0  0  0  0
  142.5420   74.6370  218.9540 C   0  0  1  0  0  0  0  0  0  0  0  0
  143.8500   74.0990  219.4110 C   0  0  0  0  0  0  0  0  0  0  0  0
  144.2640   74.1670  220.7370 C   0  0  0  0  0  0  0  0  0  0  0  0
  145.4800   73.6670  221.1580 C   0  0  0  0  0  0  0  0  0  0  0  0
  146.3060   73.0840  220.2380 C   0  0  0  0  0  0  0  0  0  0  0  0
  145.9360   73.0030  218.9590 N   0  0  0  0  0  0  0  0  0  0  0  0
  144.7500   73.4910  218.5410 C   0  0  0  0  0  0  0  0  0  0  0  0
  139.9280   70.8870  223.4860 C   0  0  0  0  0  0  0  0  0  0  0  0
  139.3530   69.6590  223.7160 C   0  0  0  0  0  0  0  0  0  0  0  0
  139.2820   69.0650  224.9540 C   0  0  0  0  0  0  0  0  0  0  0  0
  139.8230   69.7480  226.0290 C   0  0  0  0  0  0  0  0  0  0  0  0
  139.7500   69.1560  227.2570 C   0  0  0  0  0  0  0  0  0  0  0  0
  140.2900   69.8290  228.3480 C   0  0  0  0  0  0  0  0  0  0  0  0
  140.8690   71.0560  228.1450 C   0  0  0  0  0  0  0  0  0  0  0  0
  140.9330   71.6420  226.8920 C   0  0  0  0  0  0  0  0  0  0  0  0
  140.3960   70.9770  225.7900 C   0  0  0  0  0  0  0  0  0  0  0  0
  140.4480   71.5310  224.5510 N   0  0  0  0  0  0  0  0  0  0  0  0
  140.5350   73.3780  222.8710 H   0  0  0  0  0  0  0  0  0  0  0  0
  141.0145   72.8945  220.0135 H   0  0  0  0  0  0  0  0  0  0  0  0
  139.3834   73.5673  220.2534 H   0  0  0  0  0  0  0  0  0  0  0  0
  141.0928   77.3056  220.3718 H   0  0  0  0  0  0  0  0  0  0  0  0
  142.8205   76.9967  220.9035 H   0  0  0  0  0  0  0  0  0  0  0  0
  142.0584   78.5016  218.8131 H   0  0  0  0  0  0  0  0  0  0  0  0
  143.6689   77.6330  219.0649 H   0  0  0  0  0  0  0  0  0  0  0  0
  141.4150   77.0150  217.2412 H   0  0  0  0  0  0  0  0  0  0  0  0
  143.2467   77.1619  216.9849 H   0  0  0  0  0  0  0  0  0  0  0  0
  141.7842   74.9208  217.0401 H   0  0  0  0  0  0  0  0  0  0  0  0
  143.6211   75.1954  217.3257 H   0  0  0  0  0  0  0  0  0  0  0  0
  141.9338   73.7378  218.7767 H   0  0  0  0  0  0  0  0  0  0  0  0
  143.5987   74.6360  221.4768 H   0  0  0  0  0  0  0  0  0  0  0  0
  145.7787   73.7365  222.2144 H   0  0  0  0  0  0  0  0  0  0  0  0
  147.2793   72.6802  220.5535 H   0  0  0  0  0  0  0  0  0  0  0  0
  144.4854   73.4055  217.4767 H   0  0  0  0  0  0  0  0  0  0  0  0
  138.9243   69.1199  222.8584 H   0  0  0  0  0  0  0  0  0  0  0  0
  138.8109   68.0797  225.0855 H   0  0  0  0  0  0  0  0  0  0  0  0
  139.2759   68.1711  227.3806 H   0  0  0  0  0  0  0  0  0  0  0  0
  140.2535   69.3859  229.3542 H   0  0  0  0  0  0  0  0  0  0  0  0
  141.2963   71.5917  229.0055 H   0  0  0  0  0  0  0  0  0  0  0  0
  141.4052   72.6275  226.7664 H   0  0  0  0  0  0  0  0  0  0  0  0
  1  2  2  0
  2  3  1  0
  3  4  1  0
  4  5  1  0
  5  6  2  0
  5  7  1  0
  7  8  1  0
  8  9  1  0
  9 10  1  0
 10 11  1  0
 11 12  1  0
 12 13  1  0
 13 14  2  0
 14 15  1  0
 15 16  2  0
 16 17  1  0
 17 18  2  0
  2 19  1  0
 19 20  2  0
 20 21  1  0
 21 22  2  0
 22 23  1  0
 23 24  2  0
 24 25  1  0
 25 26  2  0
 26 27  1  0
 27 28  2  0
 12  7  1  0
 18 13  1  0
 28 19  1  0
 27 22  1  0
  3 29  1  0
  4 30  1  0
  4 31  1  0
  8 32  1  0
  8 33  1  0
  9 34  1  0
  9 35  1  0
 10 36  1  0
 10 37  1  0
 11 38  1  0
 11 39  1  0
 12 40  1  6
 14 41  1  0
 15 42  1  0
 16 43  1  0
 18 44  1  0
 20 45  1  0
 21 46  1  0
 23 47  1  0
 24 48  1  0
 25 49  1  0
 26 50  1  0
M  END
>  <smiles>  (66) 
O=C(NCC(=O)N1CCCCC1c1cccnc1)c1ccc2ccccc2n1

>  <score_type>  (66) 
oracle

>  <origin>  (66) 
autodockgpu

>  <m_score__min__energy>  (66) 
-9.1799999999999997

>  <m_primary>  (66) 
energy

>  <rmsd>  (66) 
2.3227110621795126

>  <m_score__min__rmsd>  (66) 
2.3227110621795126

>  <meeko>  (66) 
{"free_energy": -8.7, "intermolecular_energy": -10.19, "internal_energy": -2.09, "cluster_size": 15, "cluster_id": 1, "rank_in_cluster": 12}

>  <energy>  (66) 
-8.75

>  <cluster_rmsd>  (66) 
0.0

>  <cluster>  (66) 
2

$$$$

     RDKit          3D

 50 53  0  0  0  0  0  0  0  0999 V2000
  141.1620   71.7290  221.4100 O   0  0  0  0  0  0  0  0  0  0  0  0
  140.4910   72.2360  222.3480 C   0  0  0  0  0  0  0  0  0  0  0  0
  139.9180   73.5330  222.2790 N   0  0  0  0  0  0  0  0  0  0  0  0
  140.0670   74.3790  221.1120 C   0  0  0  0  0  0  0  0  0  0  0  0
  139.9720   75.7670  221.5640 C   0  0  0  0  0  0  0  0  0  0  0  0
  139.5380   75.9970  222.7350 O   0  0  0  0  0  0  0  0  0  0  0  0
  140.3460   76.8960  220.7420 N   0  0  0  0  0  0  0  0  0  0  0  0
  139.3160   77.3940  219.8480 C   0  0  0  0  0  0  0  0  0  0  0  0
  139.8270   78.1940  218.7120 C   0  0  0  0  0  0  0  0  0  0  0  0
  141.2710   78.0140  218.3810 C   0  0  0  0  0  0  0  0  0  0  0  0
  142.1930   77.8190  219.5050 C   0  0  0  0  0  0  0  0  0  0  0  0
  141.6690   77.4630  220.8350 C   0  0  1  0  0  0  0  0  0  0  0  0
  141.7590   78.5460  221.8480 C   0  0  0  0  0  0  0  0  0  0  0  0
  142.1360   79.8450  221.5230 C   0  0  0  0  0  0  0  0  0  0  0  0
  142.2190   80.8490  222.4670 C   0  0  0  0  0  0  0  0  0  0  0  0
  141.9190   80.5550  223.7680 C   0  0  0  0  0  0  0  0  0  0  0  0
  141.5530   79.3190  224.1110 N   0  0  0  0  0  0  0  0  0  0  0  0
  141.4710   78.3340  223.1930 C   0  0  0  0  0  0  0  0  0  0  0  0
  140.2900   71.4450  223.5750 C   0  0  0  0  0  0  0  0  0  0  0  0
  139.6580   70.2240  223.5370 C   0  0  0  0  0  0  0  0  0  0  0  0
  139.4400   69.4390  224.6440 C   0  0  0  0  0  0  0  0  0  0  0  0
  139.8850   69.9090  225.8670 C   0  0  0  0  0  0  0  0  0  0  0  0
  139.6660   69.1260  226.9630 C   0  0  0  0  0  0  0  0  0  0  0  0
  140.1080   69.5850  228.2000 C   0  0  0  0  0  0  0  0  0  0  0  0
  140.7400   70.8010  228.2650 C   0  0  0  0  0  0  0  0  0  0  0  0
  140.9530   71.5820  227.1420 C   0  0  0  0  0  0  0  0  0  0  0  0
  140.5150   71.1320  225.8960 C   0  0  0  0  0  0  0  0  0  0  0  0
  140.7130   71.8800  224.7800 N   0  0  0  0  0  0  0  0  0  0  0  0
  139.3710   73.8740  223.1150 H   0  0  0  0  0  0  0  0  0  0  0  0
  141.0458   74.2026  220.6420 H   0  0  0  0  0  0  0  0  0  0  0  0
  139.2864   74.1577  220.3692 H   0  0  0  0  0  0  0  0  0  0  0  0
  138.7665   76.5319  219.4421 H   0  0  0  0  0  0  0  0  0  0  0  0
  138.6805   78.0654  220.4442 H   0  0  0  0  0  0  0  0  0  0  0  0
  139.2415   77.9246  217.8206 H   0  0  0  0  0  0  0  0  0  0  0  0
  139.7224   79.2450  219.0193 H   0  0  0  0  0  0  0  0  0  0  0  0
  141.3542   77.1334  217.7271 H   0  0  0  0  0  0  0  0  0  0  0  0
  141.5790   78.9644  217.9208 H   0  0  0  0  0  0  0  0  0  0  0  0
  142.8859   77.0166  219.2116 H   0  0  0  0  0  0  0  0  0  0  0  0
  142.6170   78.8220  219.6608 H   0  0  0  0  0  0  0  0  0  0  0  0
  142.3443   76.6845  221.2198 H   0  0  0  0  0  0  0  0  0  0  0  0
  142.3767   80.0808  220.4759 H   0  0  0  0  0  0  0  0  0  0  0  0
  142.5208   81.8665  222.1778 H   0  0  0  0  0  0  0  0  0  0  0  0
  141.9797   81.3410  224.5352 H   0  0  0  0  0  0  0  0  0  0  0  0
  141.1660   77.3286  223.5187 H   0  0  0  0  0  0  0  0  0  0  0  0
  139.3061   69.8537  222.5628 H   0  0  0  0  0  0  0  0  0  0  0  0
  138.9285   68.4688  224.5604 H   0  0  0  0  0  0  0  0  0  0  0  0
  139.1534   68.1571  226.8710 H   0  0  0  0  0  0  0  0  0  0  0  0
  139.9536   68.9843  229.1085 H   0  0  0  0  0  0  0  0  0  0  0  0
  141.0890   71.1675  229.2417 H   0  0  0  0  0  0  0  0  0  0  0  0
  141.4646   72.5517  227.2315 H   0  0  0  0  0  0  0  0  0  0  0  0
  1  2  2  0
  2  3  1  0
  3  4  1  0
  4  5  1  0
  5  6  2  0
  5  7  1  0
  7  8  1  0
  8  9  1  0
  9 10  1  0
 10 11  1  0
 11 12  1  0
 12 13  1  0
 13 14  2  0
 14 15  1  0
 15 16  2  0
 16 17  1  0
 17 18  2  0
  2 19  1  0
 19 20  2  0
 20 21  1  0
 21 22  2  0
 22 23  1  0
 23 24  2  0
 24 25  1  0
 25 26  2  0
 26 27  1  0
 27 28  2  0
 12  7  1  0
 18 13  1  0
 28 19  1  0
 27 22  1  0
  3 29  1  0
  4 30  1  0
  4 31  1  0
  8 32  1  0
  8 33  1  0
  9 34  1  0
  9 35  1  0
 10 36  1  0
 10 37  1  0
 11 38  1  0
 11 39  1  0
 12 40  1  1
 14 41  1  0
 15 42  1  0
 16 43  1  0
 18 44  1  0
 20 45  1  0
 21 46  1  0
 23 47  1  0
 24 48  1  0
 25 49  1  0
 26 50  1  0
M  END
>  <smiles>  (67) 
O=C(NCC(=O)N1CCCCC1c1cccnc1)c1ccc2ccccc2n1

>  <score_type>  (67) 
oracle

>  <origin>  (67) 
autodockgpu

>  <m_score__min__energy>  (67) 
-9.1799999999999997

>  <m_primary>  (67) 
energy

>  <rmsd>  (67) 
1.8542058433952875

>  <m_score__min__rmsd>  (67) 
1.8542058433952875

>  <meeko>  (67) 
{"free_energy": -8.74, "intermolecular_energy": -10.23, "internal_energy": -1.85, "cluster_size": 32, "cluster_id": 2, "rank_in_cluster": 4}

>  <energy>  (67) 
-8.75

>  <cluster_rmsd>  (67) 
0.51

>  <cluster>  (67) 
2

$$$$

     RDKit          3D

 50 53  0  0  0  0  0  0  0  0999 V2000
  141.3800   71.6070  221.5090 O   0  0  0  0  0  0  0  0  0  0  0  0
  140.5620   72.1090  222.3260 C   0  0  0  0  0  0  0  0  0  0  0  0
  139.8570   73.3140  222.0750 N   0  0  0  0  0  0  0  0  0  0  0  0
  140.0290   74.0670  220.8480 C   0  0  0  0  0  0  0  0  0  0  0  0
  141.0940   75.0420  221.0790 C   0  0  0  0  0  0  0  0  0  0  0  0
  141.2600   75.4940  222.2550 O   0  0  0  0  0  0  0  0  0  0  0  0
  141.9710   75.5210  220.0340 N   0  0  0  0  0  0  0  0  0  0  0  0
  142.2250   76.9500  220.0300 C   0  0  0  0  0  0  0  0  0  0  0  0
  142.7020   77.4830  218.7340 C   0  0  0  0  0  0  0  0  0  0  0  0
  142.4370   76.6310  217.5390 C   0  0  0  0  0  0  0  0  0  0  0  0
  142.5360   75.1790  217.7190 C   0  0  0  0  0  0  0  0  0  0  0  0
  142.5380   74.6040  219.0760 C   0  0  1  0  0  0  0  0  0  0  0  0
  143.8460   74.0510  219.5140 C   0  0  0  0  0  0  0  0  0  0  0  0
  144.2680   74.0900  220.8390 C   0  0  0  0  0  0  0  0  0  0  0  0
  145.4830   73.5760  221.2430 C   0  0  0  0  0  0  0  0  0  0  0  0
  146.3010   73.0080  220.3060 C   0  0  0  0  0  0  0  0  0  0  0  0
  145.9240   72.9550  219.0270 N   0  0  0  0  0  0  0  0  0  0  0  0
  144.7380   73.4560  218.6270 C   0  0  0  0  0  0  0  0  0  0  0  0
  140.3260   71.4110  223.6010 C   0  0  0  0  0  0  0  0  0  0  0  0
  139.6060   70.2390  223.6470 C   0  0  0  0  0  0  0  0  0  0  0  0
  139.3520   69.5400  224.8030 C   0  0  0  0  0  0  0  0  0  0  0  0
  139.8520   70.0500  225.9880 C   0  0  0  0  0  0  0  0  0  0  0  0
  139.5960   69.3530  227.1340 C   0  0  0  0  0  0  0  0  0  0  0  0
  140.0920   69.8510  228.3340 C   0  0  0  0  0  0  0  0  0  0  0  0
  140.8120   71.0180  228.3160 C   0  0  0  0  0  0  0  0  0  0  0  0
  141.0610   71.7120  227.1440 C   0  0  0  0  0  0  0  0  0  0  0  0
  140.5700   71.2220  225.9340 C   0  0  0  0  0  0  0  0  0  0  0  0
  140.8010   71.8850  224.7710 N   0  0  0  0  0  0  0  0  0  0  0  0
  139.1910   73.6590  222.8190 H   0  0  0  0  0  0  0  0  0  0  0  0
  140.3103   73.3902  220.0278 H   0  0  0  0  0  0  0  0  0  0  0  0
  139.0932   74.5730  220.5684 H   0  0  0  0  0  0  0  0  0  0  0  0
  141.2895   77.4664  220.2909 H   0  0  0  0  0  0  0  0  0  0  0  0
  143.0304   77.1276  220.7578 H   0  0  0  0  0  0  0  0  0  0  0  0
  142.2134   78.4547  218.5695 H   0  0  0  0  0  0  0  0  0  0  0  0
  143.7971   77.5387  218.8214 H   0  0  0  0  0  0  0  0  0  0  0  0
  141.4167   76.8533  217.1931 H   0  0  0  0  0  0  0  0  0  0  0  0
  143.2352   76.8846  216.8259 H   0  0  0  0  0  0  0  0  0  0  0  0
  141.6825   74.7339  217.1866 H   0  0  0  0  0  0  0  0  0  0  0  0
  143.5431   74.9453  217.3434 H   0  0  0  0  0  0  0  0  0  0  0  0
  141.8828   73.7219  219.0245 H   0  0  0  0  0  0  0  0  0  0  0  0
  143.6091   74.5472  221.5919 H   0  0  0  0  0  0  0  0  0  0  0  0
  145.7879   73.6223  222.2989 H   0  0  0  0  0  0  0  0  0  0  0  0
  147.2740   72.5930  220.6078 H   0  0  0  0  0  0  0  0  0  0  0  0
  144.4661   73.3923  217.5630 H   0  0  0  0  0  0  0  0  0  0  0  0
  139.2102   69.8377  222.7024 H   0  0  0  0  0  0  0  0  0  0  0  0
  138.7706   68.6063  224.7865 H   0  0  0  0  0  0  0  0  0  0  0  0
  139.0121   68.4211  227.1086 H   0  0  0  0  0  0  0  0  0  0  0  0
  139.9103   69.3190  229.2795 H   0  0  0  0  0  0  0  0  0  0  0  0
  141.2045   71.4157  229.2635 H   0  0  0  0  0  0  0  0  0  0  0  0
  141.6431   72.6451  227.1671 H   0  0  0  0  0  0  0  0  0  0  0  0
  1  2  2  0
  2  3  1  0
  3  4  1  0
  4  5  1  0
  5  6  2  0
  5  7  1  0
  7  8  1  0
  8  9  1  0
  9 10  1  0
 10 11  1  0
 11 12  1  0
 12 13  1  0
 13 14  2  0
 14 15  1  0
 15 16  2  0
 16 17  1  0
 17 18  2  0
  2 19  1  0
 19 20  2  0
 20 21  1  0
 21 22  2  0
 22 23  1  0
 23 24  2  0
 24 25  1  0
 25 26  2  0
 26 27  1  0
 27 28  2  0
 12  7  1  0
 18 13  1  0
 28 19  1  0
 27 22  1  0
  3 29  1  0
  4 30  1  0
  4 31  1  0
  8 32  1  0
  8 33  1  0
  9 34  1  0
  9 35  1  0
 10 36  1  0
 10 37  1  0
 11 38  1  0
 11 39  1  0
 12 40  1  6
 14 41  1  0
 15 42  1  0
 16 43  1  0
 18 44  1  0
 20 45  1  0
 21 46  1  0
 23 47  1  0
 24 48  1  0
 25 49  1  0
 26 50  1  0
M  END
>  <smiles>  (68) 
O=C(NCC(=O)N1CCCCC1c1cccnc1)c1ccc2ccccc2n1

>  <score_type>  (68) 
oracle

>  <origin>  (68) 
autodockgpu

>  <m_score__min__energy>  (68) 
-9.1799999999999997

>  <m_primary>  (68) 
energy

>  <rmsd>  (68) 
2.3932872953064797

>  <m_score__min__rmsd>  (68) 
2.3932872953064797

>  <meeko>  (68) 
{"free_energy": -9.18, "intermolecular_energy": -10.67, "internal_energy": -1.62, "cluster_size": 15, "cluster_id": 1, "rank_in_cluster": 1}

>  <energy>  (68) 
-8.74

>  <cluster_rmsd>  (68) 
0.5

>  <cluster>  (68) 
2

$$$$

     RDKit          3D

 50 53  0  0  0  0  0  0  0  0999 V2000
  140.3190   71.0350  221.1930 O   0  0  0  0  0  0  0  0  0  0  0  0
  140.1810   71.7800  222.1990 C   0  0  0  0  0  0  0  0  0  0  0  0
  140.1170   73.1950  222.1130 N   0  0  0  0  0  0  0  0  0  0  0  0
  140.2090   73.8950  220.8460 C   0  0  0  0  0  0  0  0  0  0  0  0
  141.1050   75.0350  221.0410 C   0  0  0  0  0  0  0  0  0  0  0  0
  141.1030   75.6240  222.1670 O   0  0  0  0  0  0  0  0  0  0  0  0
  141.9950   75.5290  220.0140 N   0  0  0  0  0  0  0  0  0  0  0  0
  142.2500   76.9580  220.0360 C   0  0  0  0  0  0  0  0  0  0  0  0
  142.7440   77.5100  218.7540 C   0  0  0  0  0  0  0  0  0  0  0  0
  142.4920   76.6770  217.5420 C   0  0  0  0  0  0  0  0  0  0  0  0
  142.5860   75.2220  217.7010 C   0  0  0  0  0  0  0  0  0  0  0  0
  142.5710   74.6260  219.0490 C   0  0  1  0  0  0  0  0  0  0  0  0
  143.8730   74.0640  219.4940 C   0  0  0  0  0  0  0  0  0  0  0  0
  144.2900   74.1020  220.8200 C   0  0  0  0  0  0  0  0  0  0  0  0
  145.5000   73.5800  221.2310 C   0  0  0  0  0  0  0  0  0  0  0  0
  146.3170   73.0040  220.2980 C   0  0  0  0  0  0  0  0  0  0  0  0
  145.9460   72.9510  219.0190 N   0  0  0  0  0  0  0  0  0  0  0  0
  144.7640   73.4610  218.6120 C   0  0  0  0  0  0  0  0  0  0  0  0
  140.0790   71.1540  223.5280 C   0  0  0  0  0  0  0  0  0  0  0  0
  139.5330   69.9010  223.6830 C   0  0  0  0  0  0  0  0  0  0  0  0
  139.4100   69.2620  224.8940 C   0  0  0  0  0  0  0  0  0  0  0  0
  139.8640   69.9240  226.0210 C   0  0  0  0  0  0  0  0  0  0  0  0
  139.7400   69.2860  227.2220 C   0  0  0  0  0  0  0  0  0  0  0  0
  140.1920   69.9370  228.3650 C   0  0  0  0  0  0  0  0  0  0  0  0
  140.7400   71.1880  228.2380 C   0  0  0  0  0  0  0  0  0  0  0  0
  140.8580   71.8200  227.0110 C   0  0  0  0  0  0  0  0  0  0  0  0
  140.4080   71.1770  225.8580 C   0  0  0  0  0  0  0  0  0  0  0  0
  140.5140   71.7760  224.6440 N   0  0  0  0  0  0  0  0  0  0  0  0
  139.9990   73.7380  223.0110 H   0  0  0  0  0  0  0  0  0  0  0  0
  140.6157   73.2246  220.0745 H   0  0  0  0  0  0  0  0  0  0  0  0
  139.2158   74.2332  220.5157 H   0  0  0  0  0  0  0  0  0  0  0  0
  141.3116   77.4712  220.2929 H   0  0  0  0  0  0  0  0  0  0  0  0
  143.0457   77.1240  220.7771 H   0  0  0  0  0  0  0  0  0  0  0  0
  142.2594   78.4852  218.5986 H   0  0  0  0  0  0  0  0  0  0  0  0
  143.8381   77.5617  218.8557 H   0  0  0  0  0  0  0  0  0  0  0  0
  141.4765   76.9068  217.1870 H   0  0  0  0  0  0  0  0  0  0  0  0
  143.2993   76.9400  216.8426 H   0  0  0  0  0  0  0  0  0  0  0  0
  141.7379   74.7870  217.1519 H   0  0  0  0  0  0  0  0  0  0  0  0
  143.5971   74.9921  217.3338 H   0  0  0  0  0  0  0  0  0  0  0  0
  141.9149   73.7461  218.9759 H   0  0  0  0  0  0  0  0  0  0  0  0
  143.6312   74.5652  221.5693 H   0  0  0  0  0  0  0  0  0  0  0  0
  145.8010   73.6265  222.2880 H   0  0  0  0  0  0  0  0  0  0  0  0
  147.2855   72.5822  220.6047 H   0  0  0  0  0  0  0  0  0  0  0  0
  144.4964   73.3976  217.5469 H   0  0  0  0  0  0  0  0  0  0  0  0
  139.1732   69.3790  222.7841 H   0  0  0  0  0  0  0  0  0  0  0  0
  138.9656   68.2582  224.9646 H   0  0  0  0  0  0  0  0  0  0  0  0
  139.2939   68.2824  227.2839 H   0  0  0  0  0  0  0  0  0  0  0  0
  140.1115   69.4578  229.3519 H   0  0  0  0  0  0  0  0  0  0  0  0
  141.0975   71.7063  229.1400 H   0  0  0  0  0  0  0  0  0  0  0  0
  141.3041   72.8234  226.9463 H   0  0  0  0  0  0  0  0  0  0  0  0
  1  2  2  0
  2  3  1  0
  3  4  1  0
  4  5  1  0
  5  6  2  0
  5  7  1  0
  7  8  1  0
  8  9  1  0
  9 10  1  0
 10 11  1  0
 11 12  1  0
 12 13  1  0
 13 14  2  0
 14 15  1  0
 15 16  2  0
 16 17  1  0
 17 18  2  0
  2 19  1  0
 19 20  2  0
 20 21  1  0
 21 22  2  0
 22 23  1  0
 23 24  2  0
 24 25  1  0
 25 26  2  0
 26 27  1  0
 27 28  2  0
 12  7  1  0
 18 13  1  0
 28 19  1  0
 27 22  1  0
  3 29  1  0
  4 30  1  0
  4 31  1  0
  8 32  1  0
  8 33  1  0
  9 34  1  0
  9 35  1  0
 10 36  1  0
 10 37  1  0
 11 38  1  0
 11 39  1  0
 12 40  1  6
 14 41  1  0
 15 42  1  0
 16 43  1  0
 18 44  1  0
 20 45  1  0
 21 46  1  0
 23 47  1  0
 24 48  1  0
 25 49  1  0
 26 50  1  0
M  END
>  <smiles>  (69) 
O=C(NCC(=O)N1CCCCC1c1cccnc1)c1ccc2ccccc2n1

>  <score_type>  (69) 
oracle

>  <origin>  (69) 
autodockgpu

>  <m_score__min__energy>  (69) 
-9.1799999999999997

>  <m_primary>  (69) 
energy

>  <rmsd>  (69) 
2.364914949476585

>  <m_score__min__rmsd>  (69) 
2.364914949476585

>  <meeko>  (69) 
{"free_energy": -8.93, "intermolecular_energy": -10.43, "internal_energy": -1.98, "cluster_size": 15, "cluster_id": 1, "rank_in_cluster": 8}

>  <energy>  (69) 
-8.74

>  <cluster_rmsd>  (69) 
0.51

>  <cluster>  (69) 
2

$$$$

     RDKit          3D

 50 53  0  0  0  0  0  0  0  0999 V2000
  141.1540   71.6830  221.4750 O   0  0  0  0  0  0  0  0  0  0  0  0
  140.5060   72.2160  222.4160 C   0  0  0  0  0  0  0  0  0  0  0  0
  139.9750   73.5300  222.3440 N   0  0  0  0  0  0  0  0  0  0  0  0
  140.1430   74.3660  221.1720 C   0  0  0  0  0  0  0  0  0  0  0  0
  139.9390   75.7530  221.5910 C   0  0  0  0  0  0  0  0  0  0  0  0
  139.4200   75.9730  222.7300 O   0  0  0  0  0  0  0  0  0  0  0  0
  140.2970   76.8900  220.7740 N   0  0  0  0  0  0  0  0  0  0  0  0
  139.2510   77.3940  219.9020 C   0  0  0  0  0  0  0  0  0  0  0  0
  139.7420   78.2050  218.7640 C   0  0  0  0  0  0  0  0  0  0  0  0
  141.1800   78.0300  218.4080 C   0  0  0  0  0  0  0  0  0  0  0  0
  142.1210   77.8270  219.5140 C   0  0  0  0  0  0  0  0  0  0  0  0
  141.6200   77.4580  220.8490 C   0  0  1  0  0  0  0  0  0  0  0  0
  141.7260   78.5330  221.8710 C   0  0  0  0  0  0  0  0  0  0  0  0
  141.4470   78.3160  223.2160 C   0  0  0  0  0  0  0  0  0  0  0  0
  141.5450   79.3160  224.1620 C   0  0  0  0  0  0  0  0  0  0  0  0
  141.9320   80.5640  223.7610 C   0  0  0  0  0  0  0  0  0  0  0  0
  142.2080   80.8040  222.4790 N   0  0  0  0  0  0  0  0  0  0  0  0
  142.1130   79.8300  221.5490 C   0  0  0  0  0  0  0  0  0  0  0  0
  140.2880   71.4380  223.6470 C   0  0  0  0  0  0  0  0  0  0  0  0
  139.6440   70.2220  223.6140 C   0  0  0  0  0  0  0  0  0  0  0  0
  139.4100   69.4480  224.7260 C   0  0  0  0  0  0  0  0  0  0  0  0
  139.8500   69.9250  225.9480 C   0  0  0  0  0  0  0  0  0  0  0  0
  139.6160   69.1530  227.0500 C   0  0  0  0  0  0  0  0  0  0  0  0
  140.0520   69.6180  228.2860 C   0  0  0  0  0  0  0  0  0  0  0  0
  140.6960   70.8280  228.3460 C   0  0  0  0  0  0  0  0  0  0  0  0
  140.9250   71.5970  227.2170 C   0  0  0  0  0  0  0  0  0  0  0  0
  140.4920   71.1420  225.9720 C   0  0  0  0  0  0  0  0  0  0  0  0
  140.7060   71.8780  224.8510 N   0  0  0  0  0  0  0  0  0  0  0  0
  139.4440   73.8930  223.1830 H   0  0  0  0  0  0  0  0  0  0  0  0
  141.1569   74.2418  220.7638 H   0  0  0  0  0  0  0  0  0  0  0  0
  139.4224   74.0868  220.3892 H   0  0  0  0  0  0  0  0  0  0  0  0
  138.6959   76.5345  219.4980 H   0  0  0  0  0  0  0  0  0  0  0  0
  138.6245   78.0590  220.5146 H   0  0  0  0  0  0  0  0  0  0  0  0
  139.1422   77.9424  217.8801 H   0  0  0  0  0  0  0  0  0  0  0  0
  139.6408   79.2533  219.0817 H   0  0  0  0  0  0  0  0  0  0  0  0
  141.2534   77.1550  217.7454 H   0  0  0  0  0  0  0  0  0  0  0  0
  141.4788   78.9850  217.9512 H   0  0  0  0  0  0  0  0  0  0  0  0
  142.8105   77.0288  219.2018 H   0  0  0  0  0  0  0  0  0  0  0  0
  142.5459   78.8293  219.6716 H   0  0  0  0  0  0  0  0  0  0  0  0
  142.3025   76.6767  221.2146 H   0  0  0  0  0  0  0  0  0  0  0  0
  141.1370   77.3108  223.5375 H   0  0  0  0  0  0  0  0  0  0  0  0
  141.3160   79.1126  225.2185 H   0  0  0  0  0  0  0  0  0  0  0  0
  142.0162   81.3746  224.4999 H   0  0  0  0  0  0  0  0  0  0  0  0
  142.3495   80.0698  220.5018 H   0  0  0  0  0  0  0  0  0  0  0  0
  139.2959   69.8472  222.6402 H   0  0  0  0  0  0  0  0  0  0  0  0
  138.8903   68.4817  224.6468 H   0  0  0  0  0  0  0  0  0  0  0  0
  139.0958   68.1878  226.9622 H   0  0  0  0  0  0  0  0  0  0  0  0
  139.8837   69.0269  229.1983 H   0  0  0  0  0  0  0  0  0  0  0  0
  141.0415   71.1993  229.3221 H   0  0  0  0  0  0  0  0  0  0  0  0
  141.4460   72.5621  227.3021 H   0  0  0  0  0  0  0  0  0  0  0  0
  1  2  2  0
  2  3  1  0
  3  4  1  0
  4  5  1  0
  5  6  2  0
  5  7  1  0
  7  8  1  0
  8  9  1  0
  9 10  1  0
 10 11  1  0
 11 12  1  0
 12 13  1  0
 13 14  2  0
 14 15  1  0
 15 16  2  0
 16 17  1  0
 17 18  2  0
  2 19  1  0
 19 20  2  0
 20 21  1  0
 21 22  2  0
 22 23  1  0
 23 24  2  0
 24 25  1  0
 25 26  2  0
 26 27  1  0
 27 28  2  0
 12  7  1  0
 18 13  1  0
 28 19  1  0
 27 22  1  0
  3 29  1  0
  4 30  1  0
  4 31  1  0
  8 32  1  0
  8 33  1  0
  9 34  1  0
  9 35  1  0
 10 36  1  0
 10 37  1  0
 11 38  1  0
 11 39  1  0
 12 40  1  1
 14 41  1  0
 15 42  1  0
 16 43  1  0
 18 44  1  0
 20 45  1  0
 21 46  1  0
 23 47  1  0
 24 48  1  0
 25 49  1  0
 26 50  1  0
M  END
>  <smiles>  (70) 
O=C(NCC(=O)N1CCCCC1c1cccnc1)c1ccc2ccccc2n1

>  <score_type>  (70) 
oracle

>  <origin>  (70) 
autodockgpu

>  <m_score__min__energy>  (70) 
-9.1799999999999997

>  <m_primary>  (70) 
energy

>  <rmsd>  (70) 
1.8819383950157749

>  <m_score__min__rmsd>  (70) 
1.8819383950157749

>  <meeko>  (70) 
{"free_energy": -8.71, "intermolecular_energy": -10.2, "internal_energy": -1.89, "cluster_size": 32, "cluster_id": 2, "rank_in_cluster": 5}

>  <energy>  (70) 
-8.71

>  <cluster_rmsd>  (70) 
0.09

>  <cluster>  (70) 
2

$$$$

     RDKit          3D

 50 53  0  0  0  0  0  0  0  0999 V2000
  140.9760   71.6200  221.3680 O   0  0  0  0  0  0  0  0  0  0  0  0
  140.4360   72.1790  222.3590 C   0  0  0  0  0  0  0  0  0  0  0  0
  140.0080   73.5320  222.3480 N   0  0  0  0  0  0  0  0  0  0  0  0
  140.1650   74.3800  221.1830 C   0  0  0  0  0  0  0  0  0  0  0  0
  139.8200   75.7440  221.5860 C   0  0  0  0  0  0  0  0  0  0  0  0
  139.1990   75.9150  222.6810 O   0  0  0  0  0  0  0  0  0  0  0  0
  140.1500   76.9110  220.8000 N   0  0  0  0  0  0  0  0  0  0  0  0
  139.0560   77.4890  220.0400 C   0  0  0  0  0  0  0  0  0  0  0  0
  139.4820   78.3430  218.9090 C   0  0  0  0  0  0  0  0  0  0  0  0
  140.8810   78.1460  218.4300 C   0  0  0  0  0  0  0  0  0  0  0  0
  141.9000   77.8590  219.4460 C   0  0  0  0  0  0  0  0  0  0  0  0
  141.4940   77.4360  220.7970 C   0  0  1  0  0  0  0  0  0  0  0  0
  141.7140   78.4520  221.8580 C   0  0  0  0  0  0  0  0  0  0  0  0
  141.4650   78.1970  223.2030 C   0  0  0  0  0  0  0  0  0  0  0  0
  141.6700   79.1430  224.1860 C   0  0  0  0  0  0  0  0  0  0  0  0
  142.1370   80.3760  223.8240 C   0  0  0  0  0  0  0  0  0  0  0  0
  142.3870   80.6520  222.5440 N   0  0  0  0  0  0  0  0  0  0  0  0
  142.1870   79.7310  221.5780 C   0  0  0  0  0  0  0  0  0  0  0  0
  140.2370   71.3900  223.5870 C   0  0  0  0  0  0  0  0  0  0  0  0
  139.6480   70.1470  223.5460 C   0  0  0  0  0  0  0  0  0  0  0  0
  139.4350   69.3630  224.6550 C   0  0  0  0  0  0  0  0  0  0  0  0
  139.8390   69.8570  225.8820 C   0  0  0  0  0  0  0  0  0  0  0  0
  139.6250   69.0750  226.9810 C   0  0  0  0  0  0  0  0  0  0  0  0
  140.0250   69.5580  228.2220 C   0  0  0  0  0  0  0  0  0  0  0  0
  140.6140   70.7940  228.2900 C   0  0  0  0  0  0  0  0  0  0  0  0
  140.8230   71.5740  227.1650 C   0  0  0  0  0  0  0  0  0  0  0  0
  140.4260   71.1020  225.9150 C   0  0  0  0  0  0  0  0  0  0  0  0
  140.6210   71.8480  224.7970 N   0  0  0  0  0  0  0  0  0  0  0  0
  139.5640   73.9140  223.2270 H   0  0  0  0  0  0  0  0  0  0  0  0
  141.2059   74.3442  220.8292 H   0  0  0  0  0  0  0  0  0  0  0  0
  139.5139   74.0401  220.3641 H   0  0  0  0  0  0  0  0  0  0  0  0
  138.4436   76.6677  219.6394 H   0  0  0  0  0  0  0  0  0  0  0  0
  138.5012   78.1389  220.7327 H   0  0  0  0  0  0  0  0  0  0  0  0
  138.8061   78.1441  218.0642 H   0  0  0  0  0  0  0  0  0  0  0  0
  139.4408   79.3756  219.2859 H   0  0  0  0  0  0  0  0  0  0  0  0
  140.8734   77.3049  217.7211 H   0  0  0  0  0  0  0  0  0  0  0  0
  141.1736   79.1145  217.9984 H   0  0  0  0  0  0  0  0  0  0  0  0
  142.5362   77.0586  219.0404 H   0  0  0  0  0  0  0  0  0  0  0  0
  142.3687   78.8392  219.6181 H   0  0  0  0  0  0  0  0  0  0  0  0
  142.1778   76.6180  221.0677 H   0  0  0  0  0  0  0  0  0  0  0  0
  141.0908   77.2042  223.4933 H   0  0  0  0  0  0  0  0  0  0  0  0
  141.4618   78.9098  225.2406 H   0  0  0  0  0  0  0  0  0  0  0  0
  142.3073   81.1441  224.5928 H   0  0  0  0  0  0  0  0  0  0  0  0
  142.4051   80.0001  220.5340 H   0  0  0  0  0  0  0  0  0  0  0  0
  139.3287   69.7577  222.5680 H   0  0  0  0  0  0  0  0  0  0  0  0
  138.9588   68.3751  224.5693 H   0  0  0  0  0  0  0  0  0  0  0  0
  139.1483   68.0881  226.8868 H   0  0  0  0  0  0  0  0  0  0  0  0
  139.8717   68.9595  229.1321 H   0  0  0  0  0  0  0  0  0  0  0  0
  140.9311   71.1789  229.2705 H   0  0  0  0  0  0  0  0  0  0  0  0
  141.2998   72.5610  227.2573 H   0  0  0  0  0  0  0  0  0  0  0  0
  1  2  2  0
  2  3  1  0
  3  4  1  0
  4  5  1  0
  5  6  2  0
  5  7  1  0
  7  8  1  0
  8  9  1  0
  9 10  1  0
 10 11  1  0
 11 12  1  0
 12 13  1  0
 13 14  2  0
 14 15  1  0
 15 16  2  0
 16 17  1  0
 17 18  2  0
  2 19  1  0
 19 20  2  0
 20 21  1  0
 21 22  2  0
 22 23  1  0
 23 24  2  0
 24 25  1  0
 25 26  2  0
 26 27  1  0
 27 28  2  0
 12  7  1  0
 18 13  1  0
 28 19  1  0
 27 22  1  0
  3 29  1  0
  4 30  1  0
  4 31  1  0
  8 32  1  0
  8 33  1  0
  9 34  1  0
  9 35  1  0
 10 36  1  0
 10 37  1  0
 11 38  1  0
 11 39  1  0
 12 40  1  1
 14 41  1  0
 15 42  1  0
 16 43  1  0
 18 44  1  0
 20 45  1  0
 21 46  1  0
 23 47  1  0
 24 48  1  0
 25 49  1  0
 26 50  1  0
M  END
>  <smiles>  (71) 
O=C(NCC(=O)N1CCCCC1c1cccnc1)c1ccc2ccccc2n1

>  <score_type>  (71) 
oracle

>  <origin>  (71) 
autodockgpu

>  <m_score__min__energy>  (71) 
-9.1799999999999997

>  <m_primary>  (71) 
energy

>  <rmsd>  (71) 
1.8973303192889714

>  <m_score__min__rmsd>  (71) 
1.8973303192889714

>  <meeko>  (71) 
{"free_energy": -8.59, "intermolecular_energy": -10.08, "internal_energy": -1.92, "cluster_size": 32, "cluster_id": 2, "rank_in_cluster": 24}

>  <energy>  (71) 
-8.71

>  <cluster_rmsd>  (71) 
0.31

>  <cluster>  (71) 
2

$$$$

     RDKit          3D

 50 53  0  0  0  0  0  0  0  0999 V2000
  140.3540   71.3450  221.2670 O   0  0  0  0  0  0  0  0  0  0  0  0
  140.0910   72.0080  222.3060 C   0  0  0  0  0  0  0  0  0  0  0  0
  139.7890   73.3940  222.2860 N   0  0  0  0  0  0  0  0  0  0  0  0
  139.7620   74.1590  221.0550 C   0  0  0  0  0  0  0  0  0  0  0  0
  139.5870   75.5650  221.4180 C   0  0  0  0  0  0  0  0  0  0  0  0
  138.9160   75.8460  222.4590 O   0  0  0  0  0  0  0  0  0  0  0  0
  140.1400   76.6580  220.6490 N   0  0  0  0  0  0  0  0  0  0  0  0
  139.3200   77.1330  219.5490 C   0  0  0  0  0  0  0  0  0  0  0  0
  140.0640   77.8820  218.5110 C   0  0  0  0  0  0  0  0  0  0  0  0
  141.5410   77.6720  218.4840 C   0  0  0  0  0  0  0  0  0  0  0  0
  142.2150   77.5110  219.7770 C   0  0  0  0  0  0  0  0  0  0  0  0
  141.4280   77.2120  220.9860 C   0  0  1  0  0  0  0  0  0  0  0  0
  141.3340   78.3320  221.9580 C   0  0  0  0  0  0  0  0  0  0  0  0
  142.3600   79.2540  222.1380 C   0  0  0  0  0  0  0  0  0  0  0  0
  142.2700   80.2930  223.0420 C   0  0  0  0  0  0  0  0  0  0  0  0
  141.1310   80.4200  223.7860 C   0  0  0  0  0  0  0  0  0  0  0  0
  140.1290   79.5530  223.6360 N   0  0  0  0  0  0  0  0  0  0  0  0
  140.2110   78.5350  222.7540 C   0  0  0  0  0  0  0  0  0  0  0  0
  140.0970   71.3110  223.6040 C   0  0  0  0  0  0  0  0  0  0  0  0
  139.6100   70.0300  223.7240 C   0  0  0  0  0  0  0  0  0  0  0  0
  139.5880   69.3250  224.9040 C   0  0  0  0  0  0  0  0  0  0  0  0
  140.0860   69.9460  226.0360 C   0  0  0  0  0  0  0  0  0  0  0  0
  140.0620   69.2440  227.2060 C   0  0  0  0  0  0  0  0  0  0  0  0
  140.5590   69.8540  228.3530 C   0  0  0  0  0  0  0  0  0  0  0  0
  141.0500   71.1310  228.2600 C   0  0  0  0  0  0  0  0  0  0  0  0
  141.0660   71.8290  227.0640 C   0  0  0  0  0  0  0  0  0  0  0  0
  140.5700   71.2280  225.9070 C   0  0  0  0  0  0  0  0  0  0  0  0
  140.5760   71.8920  224.7230 N   0  0  0  0  0  0  0  0  0  0  0  0
  139.5810   73.8660  223.2080 H   0  0  0  0  0  0  0  0  0  0  0  0
  140.7077   74.0265  220.5091 H   0  0  0  0  0  0  0  0  0  0  0  0
  138.9416   73.8205  220.4051 H   0  0  0  0  0  0  0  0  0  0  0  0
  138.8463   76.2623  219.0720 H   0  0  0  0  0  0  0  0  0  0  0  0
  138.5911   77.8346  219.9808 H   0  0  0  0  0  0  0  0  0  0  0  0
  139.6640   77.5851  217.5303 H   0  0  0  0  0  0  0  0  0  0  0  0
  139.9204   78.9454  218.7530 H   0  0  0  0  0  0  0  0  0  0  0  0
  141.7364   76.7651  217.8929 H   0  0  0  0  0  0  0  0  0  0  0  0
  141.9535   78.5997  218.0606 H   0  0  0  0  0  0  0  0  0  0  0  0
  142.9383   76.6908  219.6581 H   0  0  0  0  0  0  0  0  0  0  0  0
  142.6172   78.5147  219.9791 H   0  0  0  0  0  0  0  0  0  0  0  0
  141.9971   76.4404  221.5253 H   0  0  0  0  0  0  0  0  0  0  0  0
  143.2763   79.1512  221.5381 H   0  0  0  0  0  0  0  0  0  0  0  0
  143.0996   81.0054  223.1613 H   0  0  0  0  0  0  0  0  0  0  0  0
  141.0402   81.2413  224.5121 H   0  0  0  0  0  0  0  0  0  0  0  0
  139.3615   77.8424  222.6612 H   0  0  0  0  0  0  0  0  0  0  0  0
  139.2145   69.5405  222.8218 H   0  0  0  0  0  0  0  0  0  0  0  0
  139.1878   68.3013  224.9470 H   0  0  0  0  0  0  0  0  0  0  0  0
  139.6595   68.2209  227.2411 H   0  0  0  0  0  0  0  0  0  0  0  0
  140.5582   69.3224  229.3160 H   0  0  0  0  0  0  0  0  0  0  0  0
  141.4440   71.6168  229.1649 H   0  0  0  0  0  0  0  0  0  0  0  0
  141.4678   72.8523  227.0266 H   0  0  0  0  0  0  0  0  0  0  0  0
  1  2  2  0
  2  3  1  0
  3  4  1  0
  4  5  1  0
  5  6  2  0
  5  7  1  0
  7  8  1  0
  8  9  1  0
  9 10  1  0
 10 11  1  0
 11 12  1  0
 12 13  1  0
 13 14  2  0
 14 15  1  0
 15 16  2  0
 16 17  1  0
 17 18  2  0
  2 19  1  0
 19 20  2  0
 20 21  1  0
 21 22  2  0
 22 23  1  0
 23 24  2  0
 24 25  1  0
 25 26  2  0
 26 27  1  0
 27 28  2  0
 12  7  1  0
 18 13  1  0
 28 19  1  0
 27 22  1  0
  3 29  1  0
  4 30  1  0
  4 31  1  0
  8 32  1  0
  8 33  1  0
  9 34  1  0
  9 35  1  0
 10 36  1  0
 10 37  1  0
 11 38  1  0
 11 39  1  0
 12 40  1  1
 14 41  1  0
 15 42  1  0
 16 43  1  0
 18 44  1  0
 20 45  1  0
 21 46  1  0
 23 47  1  0
 24 48  1  0
 25 49  1  0
 26 50  1  0
M  END
>  <smiles>  (72) 
O=C(NCC(=O)N1CCCCC1c1cccnc1)c1ccc2ccccc2n1

>  <score_type>  (72) 
oracle

>  <origin>  (72) 
autodockgpu

>  <m_score__min__energy>  (72) 
-9.1799999999999997

>  <m_primary>  (72) 
energy

>  <rmsd>  (72) 
1.696413504420271

>  <m_score__min__rmsd>  (72) 
1.696413504420271

>  <meeko>  (72) 
{"free_energy": -8.47, "intermolecular_energy": -9.96, "internal_energy": -1.88, "cluster_size": 32, "cluster_id": 2, "rank_in_cluster": 29}

>  <energy>  (72) 
-8.7

>  <cluster_rmsd>  (72) 
0.1

>  <cluster>  (72) 
2

$$$$

     RDKit          3D

 50 53  0  0  0  0  0  0  0  0999 V2000
  140.7870   71.3010  221.2810 O   0  0  0  0  0  0  0  0  0  0  0  0
  140.3640   71.9750  222.2580 C   0  0  0  0  0  0  0  0  0  0  0  0
  140.0110   73.3460  222.1590 N   0  0  0  0  0  0  0  0  0  0  0  0
  140.1140   74.0800  220.9140 C   0  0  0  0  0  0  0  0  0  0  0  0
  141.1240   75.1210  221.1030 C   0  0  0  0  0  0  0  0  0  0  0  0
  141.2470   75.6480  222.2520 O   0  0  0  0  0  0  0  0  0  0  0  0
  141.9920   75.5850  220.0440 N   0  0  0  0  0  0  0  0  0  0  0  0
  142.2540   77.0130  220.0230 C   0  0  0  0  0  0  0  0  0  0  0  0
  142.7200   77.5300  218.7170 C   0  0  0  0  0  0  0  0  0  0  0  0
  142.4380   76.6670  217.5330 C   0  0  0  0  0  0  0  0  0  0  0  0
  142.5310   75.2160  217.7270 C   0  0  0  0  0  0  0  0  0  0  0  0
  142.5430   74.6550  219.0890 C   0  0  1  0  0  0  0  0  0  0  0  0
  143.8530   74.0990  219.5190 C   0  0  0  0  0  0  0  0  0  0  0  0
  144.2810   74.1310  220.8420 C   0  0  0  0  0  0  0  0  0  0  0  0
  145.4970   73.6140  221.2390 C   0  0  0  0  0  0  0  0  0  0  0  0
  146.3110   73.0510  220.2950 C   0  0  0  0  0  0  0  0  0  0  0  0
  145.9290   73.0040  219.0190 N   0  0  0  0  0  0  0  0  0  0  0  0
  144.7410   73.5080  218.6250 C   0  0  0  0  0  0  0  0  0  0  0  0
  140.2280   71.3080  223.5650 C   0  0  0  0  0  0  0  0  0  0  0  0
  139.6130   70.0830  223.6770 C   0  0  0  0  0  0  0  0  0  0  0  0
  139.4560   69.4090  224.8650 C   0  0  0  0  0  0  0  0  0  0  0  0
  139.9470   70.0040  226.0130 C   0  0  0  0  0  0  0  0  0  0  0  0
  139.7880   69.3330  227.1910 C   0  0  0  0  0  0  0  0  0  0  0  0
  140.2760   69.9170  228.3550 C   0  0  0  0  0  0  0  0  0  0  0  0
  140.8930   71.1390  228.2710 C   0  0  0  0  0  0  0  0  0  0  0  0
  141.0450   71.8070  227.0670 C   0  0  0  0  0  0  0  0  0  0  0  0
  140.5590   71.2310  225.8930 C   0  0  0  0  0  0  0  0  0  0  0  0
  140.6970   71.8660  224.7000 N   0  0  0  0  0  0  0  0  0  0  0  0
  139.6650   73.8290  223.0330 H   0  0  0  0  0  0  0  0  0  0  0  0
  140.4190   73.4030  220.1024 H   0  0  0  0  0  0  0  0  0  0  0  0
  139.1446   74.5236  220.6430 H   0  0  0  0  0  0  0  0  0  0  0  0
  141.3242   77.5373  220.2886 H   0  0  0  0  0  0  0  0  0  0  0  0
  143.0680   77.1934  220.7405 H   0  0  0  0  0  0  0  0  0  0  0  0
  142.2348   78.5026  218.5476 H   0  0  0  0  0  0  0  0  0  0  0  0
  143.8162   77.5806  218.7924 H   0  0  0  0  0  0  0  0  0  0  0  0
  141.4155   76.8914  217.1953 H   0  0  0  0  0  0  0  0  0  0  0  0
  143.2302   76.9089  216.8091 H   0  0  0  0  0  0  0  0  0  0  0  0
  141.6701   74.7702  217.2073 H   0  0  0  0  0  0  0  0  0  0  0  0
  143.5333   74.9731  217.3443 H   0  0  0  0  0  0  0  0  0  0  0  0
  141.8813   73.7770  219.0530 H   0  0  0  0  0  0  0  0  0  0  0  0
  143.6258   74.5853  221.5998 H   0  0  0  0  0  0  0  0  0  0  0  0
  145.8058   73.6538  222.2940 H   0  0  0  0  0  0  0  0  0  0  0  0
  147.2856   72.6350  220.5903 H   0  0  0  0  0  0  0  0  0  0  0  0
  144.4651   73.4499  217.5617 H   0  0  0  0  0  0  0  0  0  0  0  0
  139.2234   69.6144  222.7612 H   0  0  0  0  0  0  0  0  0  0  0  0
  138.9567   68.4295  224.9013 H   0  0  0  0  0  0  0  0  0  0  0  0
  139.2862   68.3545  227.2189 H   0  0  0  0  0  0  0  0  0  0  0  0
  140.1692   69.4085  229.3246 H   0  0  0  0  0  0  0  0  0  0  0  0
  141.2799   71.6039  229.1898 H   0  0  0  0  0  0  0  0  0  0  0  0
  141.5459   72.7858  227.0368 H   0  0  0  0  0  0  0  0  0  0  0  0
  1  2  2  0
  2  3  1  0
  3  4  1  0
  4  5  1  0
  5  6  2  0
  5  7  1  0
  7  8  1  0
  8  9  1  0
  9 10  1  0
 10 11  1  0
 11 12  1  0
 12 13  1  0
 13 14  2  0
 14 15  1  0
 15 16  2  0
 16 17  1  0
 17 18  2  0
  2 19  1  0
 19 20  2  0
 20 21  1  0
 21 22  2  0
 22 23  1  0
 23 24  2  0
 24 25  1  0
 25 26  2  0
 26 27  1  0
 27 28  2  0
 12  7  1  0
 18 13  1  0
 28 19  1  0
 27 22  1  0
  3 29  1  0
  4 30  1  0
  4 31  1  0
  8 32  1  0
  8 33  1  0
  9 34  1  0
  9 35  1  0
 10 36  1  0
 10 37  1  0
 11 38  1  0
 11 39  1  0
 12 40  1  6
 14 41  1  0
 15 42  1  0
 16 43  1  0
 18 44  1  0
 20 45  1  0
 21 46  1  0
 23 47  1  0
 24 48  1  0
 25 49  1  0
 26 50  1  0
M  END
>  <smiles>  (73) 
O=C(NCC(=O)N1CCCCC1c1cccnc1)c1ccc2ccccc2n1

>  <score_type>  (73) 
oracle

>  <origin>  (73) 
autodockgpu

>  <m_score__min__energy>  (73) 
-9.1799999999999997

>  <m_primary>  (73) 
energy

>  <rmsd>  (73) 
2.378046277368488

>  <m_score__min__rmsd>  (73) 
2.378046277368488

>  <meeko>  (73) 
{"free_energy": -9.15, "intermolecular_energy": -10.64, "internal_energy": -1.76, "cluster_size": 15, "cluster_id": 1, "rank_in_cluster": 3}

>  <energy>  (73) 
-8.7

>  <cluster_rmsd>  (73) 
0.3

>  <cluster>  (73) 
2

$$$$

     RDKit          3D

 50 53  0  0  0  0  0  0  0  0999 V2000
  141.4470   71.9380  221.6390 O   0  0  0  0  0  0  0  0  0  0  0  0
  140.6120   72.3730  222.4770 C   0  0  0  0  0  0  0  0  0  0  0  0
  139.9540   73.6220  222.3400 N   0  0  0  0  0  0  0  0  0  0  0  0
  140.1970   74.5010  221.2130 C   0  0  0  0  0  0  0  0  0  0  0  0
  139.8140   75.8530  221.6230 C   0  0  0  0  0  0  0  0  0  0  0  0
  139.1890   76.0010  222.7190 O   0  0  0  0  0  0  0  0  0  0  0  0
  140.1100   77.0320  220.8420 N   0  0  0  0  0  0  0  0  0  0  0  0
  138.9890   77.6110  220.1240 C   0  0  0  0  0  0  0  0  0  0  0  0
  139.3730   78.4830  218.9910 C   0  0  0  0  0  0  0  0  0  0  0  0
  140.7580   78.3030  218.4670 C   0  0  0  0  0  0  0  0  0  0  0  0
  141.8100   78.0120  219.4470 C   0  0  0  0  0  0  0  0  0  0  0  0
  141.4490   77.5680  220.8050 C   0  0  1  0  0  0  0  0  0  0  0  0
  141.6950   78.5730  221.8720 C   0  0  0  0  0  0  0  0  0  0  0  0
  141.4870   78.2990  223.2200 C   0  0  0  0  0  0  0  0  0  0  0  0
  141.7160   79.2340  224.2080 C   0  0  0  0  0  0  0  0  0  0  0  0
  142.1630   80.4750  223.8490 C   0  0  0  0  0  0  0  0  0  0  0  0
  142.3730   80.7680  222.5650 N   0  0  0  0  0  0  0  0  0  0  0  0
  142.1500   79.8580  221.5940 C   0  0  0  0  0  0  0  0  0  0  0  0
  140.3050   71.5440  223.6560 C   0  0  0  0  0  0  0  0  0  0  0  0
  139.5930   70.3730  223.5350 C   0  0  0  0  0  0  0  0  0  0  0  0
  139.2750   69.5560  224.5930 C   0  0  0  0  0  0  0  0  0  0  0  0
  139.6980   69.9390  225.8540 C   0  0  0  0  0  0  0  0  0  0  0  0
  139.3790   69.1250  226.9020 C   0  0  0  0  0  0  0  0  0  0  0  0
  139.7980   69.4950  228.1760 C   0  0  0  0  0  0  0  0  0  0  0  0
  140.5090   70.6590  228.3240 C   0  0  0  0  0  0  0  0  0  0  0  0
  140.8230   71.4730  227.2490 C   0  0  0  0  0  0  0  0  0  0  0  0
  140.4090   71.1120  225.9660 C   0  0  0  0  0  0  0  0  0  0  0  0
  140.7050   71.8930  224.8960 N   0  0  0  0  0  0  0  0  0  0  0  0
  139.2690   73.9030  223.0940 H   0  0  0  0  0  0  0  0  0  0  0  0
  141.2626   74.4781  220.9410 H   0  0  0  0  0  0  0  0  0  0  0  0
  139.6138   74.1805  220.3371 H   0  0  0  0  0  0  0  0  0  0  0  0
  138.3705   76.7901  219.7321 H   0  0  0  0  0  0  0  0  0  0  0  0
  138.4515   78.2478  220.8420 H   0  0  0  0  0  0  0  0  0  0  0  0
  138.6729   78.2893  218.1650 H   0  0  0  0  0  0  0  0  0  0  0  0
  139.3352   79.5106  219.3818 H   0  0  0  0  0  0  0  0  0  0  0  0
  140.7349   77.4705  217.7484 H   0  0  0  0  0  0  0  0  0  0  0  0
  141.0297   79.2791  218.0388 H   0  0  0  0  0  0  0  0  0  0  0  0
  142.4400   77.2224  219.0116 H   0  0  0  0  0  0  0  0  0  0  0  0
  142.2758   78.9939  219.6173 H   0  0  0  0  0  0  0  0  0  0  0  0
  142.1463   76.7517  221.0447 H   0  0  0  0  0  0  0  0  0  0  0  0
  141.1268   77.3005  223.5085 H   0  0  0  0  0  0  0  0  0  0  0  0
  141.5421   78.9856  225.2654 H   0  0  0  0  0  0  0  0  0  0  0  0
  142.3502   81.2348  224.6221 H   0  0  0  0  0  0  0  0  0  0  0  0
  142.3341   80.1417  220.5473 H   0  0  0  0  0  0  0  0  0  0  0  0
  139.2583   70.0728  222.5311 H   0  0  0  0  0  0  0  0  0  0  0  0
  138.7032   68.6284  224.4428 H   0  0  0  0  0  0  0  0  0  0  0  0
  138.8052   68.2000  226.7434 H   0  0  0  0  0  0  0  0  0  0  0  0
  139.5638   68.8664  229.0478 H   0  0  0  0  0  0  0  0  0  0  0  0
  140.8406   70.9553  229.3301 H   0  0  0  0  0  0  0  0  0  0  0  0
  141.3956   72.3991  227.4052 H   0  0  0  0  0  0  0  0  0  0  0  0
  1  2  2  0
  2  3  1  0
  3  4  1  0
  4  5  1  0
  5  6  2  0
  5  7  1  0
  7  8  1  0
  8  9  1  0
  9 10  1  0
 10 11  1  0
 11 12  1  0
 12 13  1  0
 13 14  2  0
 14 15  1  0
 15 16  2  0
 16 17  1  0
 17 18  2  0
  2 19  1  0
 19 20  2  0
 20 21  1  0
 21 22  2  0
 22 23  1  0
 23 24  2  0
 24 25  1  0
 25 26  2  0
 26 27  1  0
 27 28  2  0
 12  7  1  0
 18 13  1  0
 28 19  1  0
 27 22  1  0
  3 29  1  0
  4 30  1  0
  4 31  1  0
  8 32  1  0
  8 33  1  0
  9 34  1  0
  9 35  1  0
 10 36  1  0
 10 37  1  0
 11 38  1  0
 11 39  1  0
 12 40  1  1
 14 41  1  0
 15 42  1  0
 16 43  1  0
 18 44  1  0
 20 45  1  0
 21 46  1  0
 23 47  1  0
 24 48  1  0
 25 49  1  0
 26 50  1  0
M  END
>  <smiles>  (74) 
O=C(NCC(=O)N1CCCCC1c1cccnc1)c1ccc2ccccc2n1

>  <score_type>  (74) 
oracle

>  <origin>  (74) 
autodockgpu

>  <m_score__min__energy>  (74) 
-9.1799999999999997

>  <m_primary>  (74) 
energy

>  <rmsd>  (74) 
2.0155892528907784

>  <m_score__min__rmsd>  (74) 
2.0155892528907784

>  <meeko>  (74) 
{"free_energy": -8.66, "intermolecular_energy": -10.15, "internal_energy": -1.86, "cluster_size": 32, "cluster_id": 2, "rank_in_cluster": 18}

>  <energy>  (74) 
-8.7

>  <cluster_rmsd>  (74) 
0.19

>  <cluster>  (74) 
2

$$$$

     RDKit          3D

 50 53  0  0  0  0  0  0  0  0999 V2000
  141.1950   71.7640  221.5280 O   0  0  0  0  0  0  0  0  0  0  0  0
  140.4680   72.2450  222.4370 C   0  0  0  0  0  0  0  0  0  0  0  0
  139.8320   73.5100  222.3340 N   0  0  0  0  0  0  0  0  0  0  0  0
  139.9770   74.3510  221.1630 C   0  0  0  0  0  0  0  0  0  0  0  0
  139.8530   75.7400  221.6050 C   0  0  0  0  0  0  0  0  0  0  0  0
  139.3580   75.9710  222.7520 O   0  0  0  0  0  0  0  0  0  0  0  0
  140.2630   76.8690  220.8000 N   0  0  0  0  0  0  0  0  0  0  0  0
  139.3190   77.2950  219.7830 C   0  0  0  0  0  0  0  0  0  0  0  0
  139.9170   78.0950  218.6900 C   0  0  0  0  0  0  0  0  0  0  0  0
  141.3960   77.9800  218.5290 C   0  0  0  0  0  0  0  0  0  0  0  0
  142.1930   77.8560  219.7530 C   0  0  0  0  0  0  0  0  0  0  0  0
  141.5390   77.5030  221.0250 C   0  0  1  0  0  0  0  0  0  0  0  0
  141.4630   78.6110  222.0130 C   0  0  0  0  0  0  0  0  0  0  0  0
  140.2860   78.9420  222.6760 C   0  0  0  0  0  0  0  0  0  0  0  0
  140.2180   79.9720  223.5920 C   0  0  0  0  0  0  0  0  0  0  0  0
  141.3500   80.6920  223.8570 C   0  0  0  0  0  0  0  0  0  0  0  0
  142.4940   80.3980  223.2390 N   0  0  0  0  0  0  0  0  0  0  0  0
  142.5660   79.3930  222.3420 C   0  0  0  0  0  0  0  0  0  0  0  0
  140.2660   71.4570  223.6650 C   0  0  0  0  0  0  0  0  0  0  0  0
  139.6080   70.2490  223.6330 C   0  0  0  0  0  0  0  0  0  0  0  0
  139.3880   69.4660  224.7420 C   0  0  0  0  0  0  0  0  0  0  0  0
  139.8580   69.9260  225.9600 C   0  0  0  0  0  0  0  0  0  0  0  0
  139.6370   69.1460  227.0580 C   0  0  0  0  0  0  0  0  0  0  0  0
  140.1020   69.5940  228.2900 C   0  0  0  0  0  0  0  0  0  0  0  0
  140.7610   70.7960  228.3480 C   0  0  0  0  0  0  0  0  0  0  0  0
  140.9760   71.5740  227.2230 C   0  0  0  0  0  0  0  0  0  0  0  0
  140.5130   71.1360  225.9820 C   0  0  0  0  0  0  0  0  0  0  0  0
  140.7130   71.8810  224.8650 N   0  0  0  0  0  0  0  0  0  0  0  0
  139.2400   73.8300  223.1470 H   0  0  0  0  0  0  0  0  0  0  0  0
  140.9632   74.1891  220.7034 H   0  0  0  0  0  0  0  0  0  0  0  0
  139.2076   74.1111  220.4144 H   0  0  0  0  0  0  0  0  0  0  0  0
  138.8607   76.3977  219.3416 H   0  0  0  0  0  0  0  0  0  0  0  0
  138.5889   77.9464  220.2856 H   0  0  0  0  0  0  0  0  0  0  0  0
  139.4500   77.7773  217.7461 H   0  0  0  0  0  0  0  0  0  0  0  0
  139.7283   79.1460  218.9542 H   0  0  0  0  0  0  0  0  0  0  0  0
  141.5941   77.0905  217.9130 H   0  0  0  0  0  0  0  0  0  0  0  0
  141.7087   78.9348  218.0811 H   0  0  0  0  0  0  0  0  0  0  0  0
  142.9519   77.0832  219.5609 H   0  0  0  0  0  0  0  0  0  0  0  0
  142.5492   78.8819  219.9279 H   0  0  0  0  0  0  0  0  0  0  0  0
  142.2022   76.7673  221.5034 H   0  0  0  0  0  0  0  0  0  0  0  0
  139.3762   78.3617  222.4625 H   0  0  0  0  0  0  0  0  0  0  0  0
  139.2713   80.2093  224.0993 H   0  0  0  0  0  0  0  0  0  0  0  0
  141.3164   81.5174  224.5833 H   0  0  0  0  0  0  0  0  0  0  0  0
  143.5295   79.1846  221.8540 H   0  0  0  0  0  0  0  0  0  0  0  0
  139.2358   69.8881  222.6628 H   0  0  0  0  0  0  0  0  0  0  0  0
  138.8563   68.5062  224.6637 H   0  0  0  0  0  0  0  0  0  0  0  0
  139.1046   68.1874  226.9708 H   0  0  0  0  0  0  0  0  0  0  0  0
  139.9445   68.9963  229.1999 H   0  0  0  0  0  0  0  0  0  0  0  0
  141.1308   71.1534  229.3204 H   0  0  0  0  0  0  0  0  0  0  0  0
  141.5091   72.5325  227.3073 H   0  0  0  0  0  0  0  0  0  0  0  0
  1  2  2  0
  2  3  1  0
  3  4  1  0
  4  5  1  0
  5  6  2  0
  5  7  1  0
  7  8  1  0
  8  9  1  0
  9 10  1  0
 10 11  1  0
 11 12  1  0
 12 13  1  0
 13 14  2  0
 14 15  1  0
 15 16  2  0
 16 17  1  0
 17 18  2  0
  2 19  1  0
 19 20  2  0
 20 21  1  0
 21 22  2  0
 22 23  1  0
 23 24  2  0
 24 25  1  0
 25 26  2  0
 26 27  1  0
 27 28  2  0
 12  7  1  0
 18 13  1  0
 28 19  1  0
 27 22  1  0
  3 29  1  0
  4 30  1  0
  4 31  1  0
  8 32  1  0
  8 33  1  0
  9 34  1  0
  9 35  1  0
 10 36  1  0
 10 37  1  0
 11 38  1  0
 11 39  1  0
 12 40  1  1
 14 41  1  0
 15 42  1  0
 16 43  1  0
 18 44  1  0
 20 45  1  0
 21 46  1  0
 23 47  1  0
 24 48  1  0
 25 49  1  0
 26 50  1  0
M  END
>  <smiles>  (75) 
O=C(NCC(=O)N1CCCCC1c1cccnc1)c1ccc2ccccc2n1

>  <score_type>  (75) 
oracle

>  <origin>  (75) 
autodockgpu

>  <m_score__min__energy>  (75) 
-9.1799999999999997

>  <m_primary>  (75) 
energy

>  <rmsd>  (75) 
1.8510721826043781

>  <m_score__min__rmsd>  (75) 
1.8510721826043781

>  <meeko>  (75) 
{"free_energy": -8.6, "intermolecular_energy": -10.09, "internal_energy": -1.85, "cluster_size": 32, "cluster_id": 2, "rank_in_cluster": 23}

>  <energy>  (75) 
-8.69

>  <cluster_rmsd>  (75) 
0.16

>  <cluster>  (75) 
2

$$$$

     RDKit          3D

 50 53  0  0  0  0  0  0  0  0999 V2000
  141.2380   71.7390  221.4380 O   0  0  0  0  0  0  0  0  0  0  0  0
  140.5880   72.2680  222.3790 C   0  0  0  0  0  0  0  0  0  0  0  0
  140.0950   73.5980  222.3300 N   0  0  0  0  0  0  0  0  0  0  0  0
  140.3080   74.4570  221.1810 C   0  0  0  0  0  0  0  0  0  0  0  0
  139.8080   75.7860  221.5310 C   0  0  0  0  0  0  0  0  0  0  0  0
  139.0440   75.9020  222.5390 O   0  0  0  0  0  0  0  0  0  0  0  0
  140.1370   76.9790  220.7840 N   0  0  0  0  0  0  0  0  0  0  0  0
  139.0400   77.5880  220.0530 C   0  0  0  0  0  0  0  0  0  0  0  0
  139.4620   78.4810  218.9500 C   0  0  0  0  0  0  0  0  0  0  0  0
  140.8560   78.2950  218.4540 C   0  0  0  0  0  0  0  0  0  0  0  0
  141.8810   77.9680  219.4520 C   0  0  0  0  0  0  0  0  0  0  0  0
  141.4820   77.4990  220.7900 C   0  0  1  0  0  0  0  0  0  0  0  0
  141.7150   78.4760  221.8850 C   0  0  0  0  0  0  0  0  0  0  0  0
  142.1970   79.7600  221.6530 C   0  0  0  0  0  0  0  0  0  0  0  0
  142.4130   80.6650  222.6720 C   0  0  0  0  0  0  0  0  0  0  0  0
  142.1410   80.2850  223.9570 C   0  0  0  0  0  0  0  0  0  0  0  0
  141.6760   79.0610  224.2120 N   0  0  0  0  0  0  0  0  0  0  0  0
  141.4650   78.1720  223.2200 C   0  0  0  0  0  0  0  0  0  0  0  0
  140.3250   71.4670  223.5870 C   0  0  0  0  0  0  0  0  0  0  0  0
  139.6530   70.2690  223.5130 C   0  0  0  0  0  0  0  0  0  0  0  0
  139.3770   69.4760  224.6010 C   0  0  0  0  0  0  0  0  0  0  0  0
  139.8030   69.9140  225.8430 C   0  0  0  0  0  0  0  0  0  0  0  0
  139.5270   69.1230  226.9210 C   0  0  0  0  0  0  0  0  0  0  0  0
  139.9470   69.5490  228.1770 C   0  0  0  0  0  0  0  0  0  0  0  0
  140.6190   70.7410  228.2780 C   0  0  0  0  0  0  0  0  0  0  0  0
  140.8900   71.5300  227.1730 C   0  0  0  0  0  0  0  0  0  0  0  0
  140.4730   71.1140  225.9090 C   0  0  0  0  0  0  0  0  0  0  0  0
  140.7280   71.8700  224.8100 N   0  0  0  0  0  0  0  0  0  0  0  0
  139.5600   73.9560  223.1670 H   0  0  0  0  0  0  0  0  0  0  0  0
  141.3809   74.5091  220.9441 H   0  0  0  0  0  0  0  0  0  0  0  0
  139.7819   74.0636  220.2987 H   0  0  0  0  0  0  0  0  0  0  0  0
  138.4216   76.7839  219.6274 H   0  0  0  0  0  0  0  0  0  0  0  0
  138.4924   78.2145  220.7725 H   0  0  0  0  0  0  0  0  0  0  0  0
  138.7790   78.3161  218.1036 H   0  0  0  0  0  0  0  0  0  0  0  0
  139.4285   79.4995  219.3643 H   0  0  0  0  0  0  0  0  0  0  0  0
  140.8394   77.4794  217.7161 H   0  0  0  0  0  0  0  0  0  0  0  0
  141.1500   79.2767  218.0543 H   0  0  0  0  0  0  0  0  0  0  0  0
  142.5110   77.1799  219.0139 H   0  0  0  0  0  0  0  0  0  0  0  0
  142.3554   78.9394  219.6553 H   0  0  0  0  0  0  0  0  0  0  0  0
  142.1634   76.6687  221.0270 H   0  0  0  0  0  0  0  0  0  0  0  0
  142.4141   80.0653  220.6188 H   0  0  0  0  0  0  0  0  0  0  0  0
  142.7966   81.6728  222.4547 H   0  0  0  0  0  0  0  0  0  0  0  0
  142.3063   80.9915  224.7838 H   0  0  0  0  0  0  0  0  0  0  0  0
  141.0823   77.1727  223.4747 H   0  0  0  0  0  0  0  0  0  0  0  0
  139.3164   69.9252  222.5238 H   0  0  0  0  0  0  0  0  0  0  0  0
  138.8357   68.5250  224.4886 H   0  0  0  0  0  0  0  0  0  0  0  0
  138.9862   68.1729  226.7995 H   0  0  0  0  0  0  0  0  0  0  0  0
  139.7443   68.9420  229.0717 H   0  0  0  0  0  0  0  0  0  0  0  0
  140.9534   71.0809  229.2693 H   0  0  0  0  0  0  0  0  0  0  0  0
  141.4315   72.4801  227.2916 H   0  0  0  0  0  0  0  0  0  0  0  0
  1  2  2  0
  2  3  1  0
  3  4  1  0
  4  5  1  0
  5  6  2  0
  5  7  1  0
  7  8  1  0
  8  9  1  0
  9 10  1  0
 10 11  1  0
 11 12  1  0
 12 13  1  0
 13 14  2  0
 14 15  1  0
 15 16  2  0
 16 17  1  0
 17 18  2  0
  2 19  1  0
 19 20  2  0
 20 21  1  0
 21 22  2  0
 22 23  1  0
 23 24  2  0
 24 25  1  0
 25 26  2  0
 26 27  1  0
 27 28  2  0
 12  7  1  0
 18 13  1  0
 28 19  1  0
 27 22  1  0
  3 29  1  0
  4 30  1  0
  4 31  1  0
  8 32  1  0
  8 33  1  0
  9 34  1  0
  9 35  1  0
 10 36  1  0
 10 37  1  0
 11 38  1  0
 11 39  1  0
 12 40  1  1
 14 41  1  0
 15 42  1  0
 16 43  1  0
 18 44  1  0
 20 45  1  0
 21 46  1  0
 23 47  1  0
 24 48  1  0
 25 49  1  0
 26 50  1  0
M  END
>  <smiles>  (76) 
O=C(NCC(=O)N1CCCCC1c1cccnc1)c1ccc2ccccc2n1

>  <score_type>  (76) 
oracle

>  <origin>  (76) 
autodockgpu

>  <m_score__min__energy>  (76) 
-9.1799999999999997

>  <m_primary>  (76) 
energy

>  <rmsd>  (76) 
1.9904670801314004

>  <m_score__min__rmsd>  (76) 
1.9904670801314004

>  <meeko>  (76) 
{"free_energy": -8.52, "intermolecular_energy": -10.01, "internal_energy": -1.86, "cluster_size": 32, "cluster_id": 2, "rank_in_cluster": 28}

>  <energy>  (76) 
-8.69

>  <cluster_rmsd>  (76) 
0.53

>  <cluster>  (76) 
2

$$$$

     RDKit          3D

 50 53  0  0  0  0  0  0  0  0999 V2000
  140.7830   71.4080  221.2790 O   0  0  0  0  0  0  0  0  0  0  0  0
  140.3400   72.0540  222.2650 C   0  0  0  0  0  0  0  0  0  0  0  0
  139.9560   73.4190  222.1880 N   0  0  0  0  0  0  0  0  0  0  0  0
  140.0500   74.1770  220.9570 C   0  0  0  0  0  0  0  0  0  0  0  0
  141.1270   75.1530  221.1250 C   0  0  0  0  0  0  0  0  0  0  0  0
  141.3340   75.6360  222.2810 O   0  0  0  0  0  0  0  0  0  0  0  0
  141.9710   75.5970  220.0390 N   0  0  0  0  0  0  0  0  0  0  0  0
  142.2320   77.0240  219.9870 C   0  0  0  0  0  0  0  0  0  0  0  0
  142.6690   77.5180  218.6620 C   0  0  0  0  0  0  0  0  0  0  0  0
  142.3590   76.6350  217.5000 C   0  0  0  0  0  0  0  0  0  0  0  0
  142.4560   75.1880  217.7170 C   0  0  0  0  0  0  0  0  0  0  0  0
  142.5000   74.6500  219.0870 C   0  0  1  0  0  0  0  0  0  0  0  0
  143.8190   74.1010  219.4970 C   0  0  0  0  0  0  0  0  0  0  0  0
  144.2700   74.1420  220.8120 C   0  0  0  0  0  0  0  0  0  0  0  0
  145.4960   73.6320  221.1890 C   0  0  0  0  0  0  0  0  0  0  0  0
  146.2940   73.0650  220.2350 C   0  0  0  0  0  0  0  0  0  0  0  0
  145.8890   73.0100  218.9650 N   0  0  0  0  0  0  0  0  0  0  0  0
  144.6920   73.5080  218.5910 C   0  0  0  0  0  0  0  0  0  0  0  0
  140.2120   71.3620  223.5580 C   0  0  0  0  0  0  0  0  0  0  0  0
  139.5960   70.1350  223.6500 C   0  0  0  0  0  0  0  0  0  0  0  0
  139.4450   69.4380  224.8250 C   0  0  0  0  0  0  0  0  0  0  0  0
  139.9450   70.0090  225.9820 C   0  0  0  0  0  0  0  0  0  0  0  0
  139.7920   69.3130  227.1470 C   0  0  0  0  0  0  0  0  0  0  0  0
  140.2890   69.8730  228.3190 C   0  0  0  0  0  0  0  0  0  0  0  0
  140.9070   71.0960  228.2560 C   0  0  0  0  0  0  0  0  0  0  0  0
  141.0520   71.7870  227.0650 C   0  0  0  0  0  0  0  0  0  0  0  0
  140.5580   71.2360  225.8820 C   0  0  0  0  0  0  0  0  0  0  0  0
  140.6890   71.8950  224.7020 N   0  0  0  0  0  0  0  0  0  0  0  0
  139.5940   73.8780  223.0680 H   0  0  0  0  0  0  0  0  0  0  0  0
  140.2800   73.5041  220.1178 H   0  0  0  0  0  0  0  0  0  0  0  0
  139.0980   74.6830  220.7389 H   0  0  0  0  0  0  0  0  0  0  0  0
  141.3081   77.5530  220.2637 H   0  0  0  0  0  0  0  0  0  0  0  0
  143.0616   77.2168  220.6831 H   0  0  0  0  0  0  0  0  0  0  0  0
  142.1813   78.4883  218.4869 H   0  0  0  0  0  0  0  0  0  0  0  0
  143.7667   77.5685  218.7116 H   0  0  0  0  0  0  0  0  0  0  0  0
  141.3289   76.8543  217.1825 H   0  0  0  0  0  0  0  0  0  0  0  0
  143.1339   76.8638  216.7536 H   0  0  0  0  0  0  0  0  0  0  0  0
  141.5829   74.7340  217.2255 H   0  0  0  0  0  0  0  0  0  0  0  0
  143.4492   74.9383  217.3154 H   0  0  0  0  0  0  0  0  0  0  0  0
  141.8384   73.7712  219.0802 H   0  0  0  0  0  0  0  0  0  0  0  0
  143.6265   74.5972  221.5792 H   0  0  0  0  0  0  0  0  0  0  0  0
  145.8247   73.6810  222.2376 H   0  0  0  0  0  0  0  0  0  0  0  0
  147.2743   72.6523  220.5156 H   0  0  0  0  0  0  0  0  0  0  0  0
  144.3965   73.4428  217.5334 H   0  0  0  0  0  0  0  0  0  0  0  0
  139.2005   69.6848  222.7275 H   0  0  0  0  0  0  0  0  0  0  0  0
  138.9435   68.4592  224.8449 H   0  0  0  0  0  0  0  0  0  0  0  0
  139.2888   68.3349  227.1581 H   0  0  0  0  0  0  0  0  0  0  0  0
  140.1884   69.3450  229.2787 H   0  0  0  0  0  0  0  0  0  0  0  0
  141.3000   71.5421  229.1815 H   0  0  0  0  0  0  0  0  0  0  0  0
  141.5542   72.7656  227.0514 H   0  0  0  0  0  0  0  0  0  0  0  0
  1  2  2  0
  2  3  1  0
  3  4  1  0
  4  5  1  0
  5  6  2  0
  5  7  1  0
  7  8  1  0
  8  9  1  0
  9 10  1  0
 10 11  1  0
 11 12  1  0
 12 13  1  0
 13 14  2  0
 14 15  1  0
 15 16  2  0
 16 17  1  0
 17 18  2  0
  2 19  1  0
 19 20  2  0
 20 21  1  0
 21 22  2  0
 22 23  1  0
 23 24  2  0
 24 25  1  0
 25 26  2  0
 26 27  1  0
 27 28  2  0
 12  7  1  0
 18 13  1  0
 28 19  1  0
 27 22  1  0
  3 29  1  0
  4 30  1  0
  4 31  1  0
  8 32  1  0
  8 33  1  0
  9 34  1  0
  9 35  1  0
 10 36  1  0
 10 37  1  0
 11 38  1  0
 11 39  1  0
 12 40  1  6
 14 41  1  0
 15 42  1  0
 16 43  1  0
 18 44  1  0
 20 45  1  0
 21 46  1  0
 23 47  1  0
 24 48  1  0
 25 49  1  0
 26 50  1  0
M  END
>  <smiles>  (77) 
O=C(NCC(=O)N1CCCCC1c1cccnc1)c1ccc2ccccc2n1

>  <score_type>  (77) 
oracle

>  <origin>  (77) 
autodockgpu

>  <m_score__min__energy>  (77) 
-9.1799999999999997

>  <m_primary>  (77) 
energy

>  <rmsd>  (77) 
2.3595731211735402

>  <m_score__min__rmsd>  (77) 
2.3595731211735402

>  <meeko>  (77) 
{"free_energy": -9.14, "intermolecular_energy": -10.63, "internal_energy": -1.72, "cluster_size": 15, "cluster_id": 1, "rank_in_cluster": 4}

>  <energy>  (77) 
-8.69

>  <cluster_rmsd>  (77) 
0.55

>  <cluster>  (77) 
2

$$$$

     RDKit          3D

 50 53  0  0  0  0  0  0  0  0999 V2000
  139.8400   70.5330  221.1960 O   0  0  0  0  0  0  0  0  0  0  0  0
  140.0520   71.2900  222.1800 C   0  0  0  0  0  0  0  0  0  0  0  0
  140.3750   72.6650  222.0450 N   0  0  0  0  0  0  0  0  0  0  0  0
  140.4890   73.3060  220.7500 C   0  0  0  0  0  0  0  0  0  0  0  0
  140.9850   74.6640  220.9770 C   0  0  0  0  0  0  0  0  0  0  0  0
  140.5980   75.2870  222.0140 O   0  0  0  0  0  0  0  0  0  0  0  0
  141.8940   75.3370  220.0760 N   0  0  0  0  0  0  0  0  0  0  0  0
  142.0650   76.7600  220.3010 C   0  0  0  0  0  0  0  0  0  0  0  0
  142.5890   77.5050  219.1330 C   0  0  0  0  0  0  0  0  0  0  0  0
  142.4460   76.8310  217.8100 C   0  0  0  0  0  0  0  0  0  0  0  0
  142.6170   75.3750  217.7810 C   0  0  0  0  0  0  0  0  0  0  0  0
  142.5690   74.6020  219.0340 C   0  0  1  0  0  0  0  0  0  0  0  0
  143.8780   74.0530  219.4750 C   0  0  0  0  0  0  0  0  0  0  0  0
  144.3100   74.1180  220.7960 C   0  0  0  0  0  0  0  0  0  0  0  0
  145.5260   73.6070  221.2020 C   0  0  0  0  0  0  0  0  0  0  0  0
  146.3340   73.0150  220.2710 C   0  0  0  0  0  0  0  0  0  0  0  0
  145.9480   72.9360  218.9970 N   0  0  0  0  0  0  0  0  0  0  0  0
  144.7610   73.4350  218.5940 C   0  0  0  0  0  0  0  0  0  0  0  0
  139.9590   70.7210  223.5360 C   0  0  0  0  0  0  0  0  0  0  0  0
  139.3860   69.4890  223.7520 C   0  0  0  0  0  0  0  0  0  0  0  0
  139.2690   68.9050  224.9900 C   0  0  0  0  0  0  0  0  0  0  0  0
  139.7580   69.6010  226.0810 C   0  0  0  0  0  0  0  0  0  0  0  0
  139.6400   69.0160  227.3090 C   0  0  0  0  0  0  0  0  0  0  0  0
  140.1270   69.7030  228.4170 C   0  0  0  0  0  0  0  0  0  0  0  0
  140.7020   70.9340  228.2280 C   0  0  0  0  0  0  0  0  0  0  0  0
  140.8140   71.5110  226.9750 C   0  0  0  0  0  0  0  0  0  0  0  0
  140.3290   70.8330  225.8570 C   0  0  0  0  0  0  0  0  0  0  0  0
  140.4270   71.3780  224.6170 N   0  0  0  0  0  0  0  0  0  0  0  0
  140.5360   73.2220  222.9280 H   0  0  0  0  0  0  0  0  0  0  0  0
  141.1942   72.7492  220.1154 H   0  0  0  0  0  0  0  0  0  0  0  0
  139.5146   73.3282  220.2401 H   0  0  0  0  0  0  0  0  0  0  0  0
  141.0872   77.1858  220.5703 H   0  0  0  0  0  0  0  0  0  0  0  0
  142.8127   76.8639  221.1011 H   0  0  0  0  0  0  0  0  0  0  0  0
  142.0566   78.4661  219.0804 H   0  0  0  0  0  0  0  0  0  0  0  0
  143.6718   77.5990  219.3025 H   0  0  0  0  0  0  0  0  0  0  0  0
  141.4375   77.0539  217.4317 H   0  0  0  0  0  0  0  0  0  0  0  0
  143.2699   77.2269  217.1980 H   0  0  0  0  0  0  0  0  0  0  0  0
  141.8248   74.9753  217.1309 H   0  0  0  0  0  0  0  0  0  0  0  0
  143.6574   75.2496  217.4466 H   0  0  0  0  0  0  0  0  0  0  0  0
  141.9699   73.7077  218.8076 H   0  0  0  0  0  0  0  0  0  0  0  0
  143.6587   74.5939  221.5439 H   0  0  0  0  0  0  0  0  0  0  0  0
  145.8393   73.6746  222.2543 H   0  0  0  0  0  0  0  0  0  0  0  0
  147.3072   72.6019  220.5745 H   0  0  0  0  0  0  0  0  0  0  0  0
  144.4816   73.3506  217.5334 H   0  0  0  0  0  0  0  0  0  0  0  0
  138.9985   68.9389  222.8818 H   0  0  0  0  0  0  0  0  0  0  0  0
  138.8018   67.9164  225.1098 H   0  0  0  0  0  0  0  0  0  0  0  0
  139.1719   68.0268  227.4198 H   0  0  0  0  0  0  0  0  0  0  0  0
  140.0523   69.2675  229.4244 H   0  0  0  0  0  0  0  0  0  0  0  0
  141.0869   71.4808  229.1014 H   0  0  0  0  0  0  0  0  0  0  0  0
  141.2832   72.4994  226.8616 H   0  0  0  0  0  0  0  0  0  0  0  0
  1  2  2  0
  2  3  1  0
  3  4  1  0
  4  5  1  0
  5  6  2  0
  5  7  1  0
  7  8  1  0
  8  9  1  0
  9 10  1  0
 10 11  1  0
 11 12  1  0
 12 13  1  0
 13 14  2  0
 14 15  1  0
 15 16  2  0
 16 17  1  0
 17 18  2  0
  2 19  1  0
 19 20  2  0
 20 21  1  0
 21 22  2  0
 22 23  1  0
 23 24  2  0
 24 25  1  0
 25 26  2  0
 26 27  1  0
 27 28  2  0
 12  7  1  0
 18 13  1  0
 28 19  1  0
 27 22  1  0
  3 29  1  0
  4 30  1  0
  4 31  1  0
  8 32  1  0
  8 33  1  0
  9 34  1  0
  9 35  1  0
 10 36  1  0
 10 37  1  0
 11 38  1  0
 11 39  1  0
 12 40  1  6
 14 41  1  0
 15 42  1  0
 16 43  1  0
 18 44  1  0
 20 45  1  0
 21 46  1  0
 23 47  1  0
 24 48  1  0
 25 49  1  0
 26 50  1  0
M  END
>  <smiles>  (78) 
O=C(NCC(=O)N1CCCCC1c1cccnc1)c1ccc2ccccc2n1

>  <score_type>  (78) 
oracle

>  <origin>  (78) 
autodockgpu

>  <m_score__min__energy>  (78) 
-9.1799999999999997

>  <m_primary>  (78) 
energy

>  <rmsd>  (78) 
2.348447824186751

>  <m_score__min__rmsd>  (78) 
2.348447824186751

>  <meeko>  (78) 
{"free_energy": -8.65, "intermolecular_energy": -10.15, "internal_energy": -2.09, "cluster_size": 15, "cluster_id": 1, "rank_in_cluster": 14}

>  <energy>  (78) 
-8.68

>  <cluster_rmsd>  (78) 
0.13

>  <cluster>  (78) 
2

$$$$

     RDKit          3D

 50 53  0  0  0  0  0  0  0  0999 V2000
  139.5270   71.1170  221.2690 O   0  0  0  0  0  0  0  0  0  0  0  0
  139.6580   71.8470  222.2880 C   0  0  0  0  0  0  0  0  0  0  0  0
  139.6520   73.2650  222.2320 N   0  0  0  0  0  0  0  0  0  0  0  0
  139.4960   73.9860  220.9840 C   0  0  0  0  0  0  0  0  0  0  0  0
  140.7320   73.8120  220.2210 C   0  0  0  0  0  0  0  0  0  0  0  0
  140.9940   72.6650  219.7410 O   0  0  0  0  0  0  0  0  0  0  0  0
  141.6760   74.8810  219.9860 N   0  0  0  0  0  0  0  0  0  0  0  0
  141.5410   76.0420  220.8470 C   0  0  0  0  0  0  0  0  0  0  0  0
  142.1570   77.2760  220.3100 C   0  0  0  0  0  0  0  0  0  0  0  0
  142.4150   77.2930  218.8410 C   0  0  0  0  0  0  0  0  0  0  0  0
  142.8440   76.0330  218.2240 C   0  0  0  0  0  0  0  0  0  0  0  0
  142.6730   74.7630  218.9500 C   0  0  1  0  0  0  0  0  0  0  0  0
  143.9360   74.1510  219.4370 C   0  0  0  0  0  0  0  0  0  0  0  0
  144.3140   74.1810  220.7760 C   0  0  0  0  0  0  0  0  0  0  0  0
  145.4890   73.6120  221.2250 C   0  0  0  0  0  0  0  0  0  0  0  0
  146.3100   72.9980  220.3210 C   0  0  0  0  0  0  0  0  0  0  0  0
  145.9750   72.9520  219.0310 N   0  0  0  0  0  0  0  0  0  0  0  0
  144.8290   73.5070  218.5860 C   0  0  0  0  0  0  0  0  0  0  0  0
  139.8230   71.1980  223.6000 C   0  0  0  0  0  0  0  0  0  0  0  0
  139.4630   69.8840  223.7930 C   0  0  0  0  0  0  0  0  0  0  0  0
  139.5920   69.2220  224.9900 C   0  0  0  0  0  0  0  0  0  0  0  0
  140.1160   69.9230  226.0620 C   0  0  0  0  0  0  0  0  0  0  0  0
  140.2420   69.2610  227.2500 C   0  0  0  0  0  0  0  0  0  0  0  0
  140.7660   69.9520  228.3380 C   0  0  0  0  0  0  0  0  0  0  0  0
  141.1330   71.2630  228.1720 C   0  0  0  0  0  0  0  0  0  0  0  0
  140.9970   71.9180  226.9590 C   0  0  0  0  0  0  0  0  0  0  0  0
  140.4720   71.2370  225.8610 C   0  0  0  0  0  0  0  0  0  0  0  0
  140.3300   71.8580  224.6620 N   0  0  0  0  0  0  0  0  0  0  0  0
  139.7670   73.7940  223.1390 H   0  0  0  0  0  0  0  0  0  0  0  0
  138.6446   73.5792  220.4186 H   0  0  0  0  0  0  0  0  0  0  0  0
  139.3030   75.0523  221.1729 H   0  0  0  0  0  0  0  0  0  0  0  0
  140.4688   76.2322  221.0026 H   0  0  0  0  0  0  0  0  0  0  0  0
  142.0740   75.8051  221.7796 H   0  0  0  0  0  0  0  0  0  0  0  0
  141.4862   78.1160  220.5435 H   0  0  0  0  0  0  0  0  0  0  0  0
  143.1466   77.3442  220.7854 H   0  0  0  0  0  0  0  0  0  0  0  0
  141.4844   77.6053  218.3446 H   0  0  0  0  0  0  0  0  0  0  0  0
  143.2648   77.9788  218.7089 H   0  0  0  0  0  0  0  0  0  0  0  0
  142.2885   75.9364  217.2795 H   0  0  0  0  0  0  0  0  0  0  0  0
  143.9366   76.1422  218.1584 H   0  0  0  0  0  0  0  0  0  0  0  0
  142.3017   74.0451  218.2039 H   0  0  0  0  0  0  0  0  0  0  0  0
  143.6529   74.6758  221.5027 H   0  0  0  0  0  0  0  0  0  0  0  0
  145.7595   73.6520  222.2905 H   0  0  0  0  0  0  0  0  0  0  0  0
  147.2512   72.5398  220.6590 H   0  0  0  0  0  0  0  0  0  0  0  0
  144.5921   73.4485  217.5134 H   0  0  0  0  0  0  0  0  0  0  0  0
  139.0472   69.3307  222.9381 H   0  0  0  0  0  0  0  0  0  0  0  0
  139.2888   68.1696  225.0929 H   0  0  0  0  0  0  0  0  0  0  0  0
  139.9370   68.2083  227.3442 H   0  0  0  0  0  0  0  0  0  0  0  0
  140.8837   69.4562  229.3129 H   0  0  0  0  0  0  0  0  0  0  0  0
  141.5487   71.8121  229.0297 H   0  0  0  0  0  0  0  0  0  0  0  0
  141.3017   72.9705  226.8622 H   0  0  0  0  0  0  0  0  0  0  0  0
  1  2  2  0
  2  3  1  0
  3  4  1  0
  4  5  1  0
  5  6  2  0
  5  7  1  0
  7  8  1  0
  8  9  1  0
  9 10  1  0
 10 11  1  0
 11 12  1  0
 12 13  1  0
 13 14  2  0
 14 15  1  0
 15 16  2  0
 16 17  1  0
 17 18  2  0
  2 19  1  0
 19 20  2  0
 20 21  1  0
 21 22  2  0
 22 23  1  0
 23 24  2  0
 24 25  1  0
 25 26  2  0
 26 27  1  0
 27 28  2  0
 12  7  1  0
 18 13  1  0
 28 19  1  0
 27 22  1  0
  3 29  1  0
  4 30  1  0
  4 31  1  0
  8 32  1  0
  8 33  1  0
  9 34  1  0
  9 35  1  0
 10 36  1  0
 10 37  1  0
 11 38  1  0
 11 39  1  0
 12 40  1  6
 14 41  1  0
 15 42  1  0
 16 43  1  0
 18 44  1  0
 20 45  1  0
 21 46  1  0
 23 47  1  0
 24 48  1  0
 25 49  1  0
 26 50  1  0
M  END
>  <smiles>  (79) 
O=C(NCC(=O)N1CCCCC1c1cccnc1)c1ccc2ccccc2n1

>  <score_type>  (79) 
oracle

>  <origin>  (79) 
autodockgpu

>  <m_score__min__energy>  (79) 
-9.1799999999999997

>  <m_primary>  (79) 
energy

>  <rmsd>  (79) 
2.3096581953407327

>  <m_score__min__rmsd>  (79) 
2.3096581953407327

>  <meeko>  (79) 
{"free_energy": -8.73, "intermolecular_energy": -10.22, "internal_energy": -1.53, "cluster_size": 15, "cluster_id": 1, "rank_in_cluster": 11}

>  <energy>  (79) 
-8.67

>  <cluster_rmsd>  (79) 
0.17

>  <cluster>  (79) 
2

$$$$

     RDKit          3D

 50 53  0  0  0  0  0  0  0  0999 V2000
  140.6920   71.5060  221.3150 O   0  0  0  0  0  0  0  0  0  0  0  0
  140.2870   72.1110  222.3430 C   0  0  0  0  0  0  0  0  0  0  0  0
  139.8920   73.4740  222.3350 N   0  0  0  0  0  0  0  0  0  0  0  0
  139.9290   74.2800  221.1300 C   0  0  0  0  0  0  0  0  0  0  0  0
  139.9190   75.6830  221.5430 C   0  0  0  0  0  0  0  0  0  0  0  0
  139.5380   75.9680  222.7210 O   0  0  0  0  0  0  0  0  0  0  0  0
  140.3190   76.7680  220.6750 N   0  0  0  0  0  0  0  0  0  0  0  0
  139.3330   77.1900  219.6970 C   0  0  0  0  0  0  0  0  0  0  0  0
  139.8940   77.9300  218.5440 C   0  0  0  0  0  0  0  0  0  0  0  0
  141.3560   77.7590  218.3050 C   0  0  0  0  0  0  0  0  0  0  0  0
  142.2180   77.6520  219.4880 C   0  0  0  0  0  0  0  0  0  0  0  0
  141.6250   77.3660  220.8060 C   0  0  1  0  0  0  0  0  0  0  0  0
  141.6400   78.5100  221.7550 C   0  0  0  0  0  0  0  0  0  0  0  0
  141.8480   79.8220  221.3410 C   0  0  0  0  0  0  0  0  0  0  0  0
  141.8620   80.8820  222.2240 C   0  0  0  0  0  0  0  0  0  0  0  0
  141.6630   80.6330  223.5540 C   0  0  0  0  0  0  0  0  0  0  0  0
  141.4600   79.3860  223.9820 N   0  0  0  0  0  0  0  0  0  0  0  0
  141.4470   78.3460  223.1230 C   0  0  0  0  0  0  0  0  0  0  0  0
  140.2180   71.3690  223.6130 C   0  0  0  0  0  0  0  0  0  0  0  0
  139.6750   70.1060  223.6700 C   0  0  0  0  0  0  0  0  0  0  0  0
  139.5820   69.3620  224.8220 C   0  0  0  0  0  0  0  0  0  0  0  0
  140.0650   69.9210  225.9920 C   0  0  0  0  0  0  0  0  0  0  0  0
  139.9710   69.1790  227.1340 C   0  0  0  0  0  0  0  0  0  0  0  0
  140.4520   69.7260  228.3180 C   0  0  0  0  0  0  0  0  0  0  0  0
  140.9980   70.9850  228.2890 C   0  0  0  0  0  0  0  0  0  0  0  0
  141.0850   71.7230  227.1210 C   0  0  0  0  0  0  0  0  0  0  0  0
  140.6060   71.1850  225.9270 C   0  0  0  0  0  0  0  0  0  0  0  0
  140.6810   71.8900  224.7680 N   0  0  0  0  0  0  0  0  0  0  0  0
  139.5660   73.8970  223.2460 H   0  0  0  0  0  0  0  0  0  0  0  0
  140.8441   74.0622  220.5598 H   0  0  0  0  0  0  0  0  0  0  0  0
  139.0647   74.0578  220.4869 H   0  0  0  0  0  0  0  0  0  0  0  0
  138.8217   76.2940  219.3151 H   0  0  0  0  0  0  0  0  0  0  0  0
  138.6536   77.8831  220.2147 H   0  0  0  0  0  0  0  0  0  0  0  0
  139.3640   77.5959  217.6398 H   0  0  0  0  0  0  0  0  0  0  0  0
  139.7552   78.9954  218.7800 H   0  0  0  0  0  0  0  0  0  0  0  0
  141.4901   76.8416  217.7130 H   0  0  0  0  0  0  0  0  0  0  0  0
  141.6732   78.6856  217.8042 H   0  0  0  0  0  0  0  0  0  0  0  0
  142.9405   76.8482  219.2833 H   0  0  0  0  0  0  0  0  0  0  0  0
  142.6162   78.6707  219.6047 H   0  0  0  0  0  0  0  0  0  0  0  0
  142.2899   76.6252  221.2741 H   0  0  0  0  0  0  0  0  0  0  0  0
  142.0071   80.0213  220.2710 H   0  0  0  0  0  0  0  0  0  0  0  0
  142.0301   81.9081  221.8650 H   0  0  0  0  0  0  0  0  0  0  0  0
  141.6704   81.4647  224.2739 H   0  0  0  0  0  0  0  0  0  0  0  0
  141.2780   77.3333  223.5178 H   0  0  0  0  0  0  0  0  0  0  0  0
  139.2924   69.6652  222.7376 H   0  0  0  0  0  0  0  0  0  0  0  0
  139.1383   68.3555  224.8141 H   0  0  0  0  0  0  0  0  0  0  0  0
  139.5257   68.1733  227.1177 H   0  0  0  0  0  0  0  0  0  0  0  0
  140.3961   69.1608  229.2600 H   0  0  0  0  0  0  0  0  0  0  0  0
  141.3787   71.4217  229.2241 H   0  0  0  0  0  0  0  0  0  0  0  0
  141.5298   72.7289  227.1347 H   0  0  0  0  0  0  0  0  0  0  0  0
  1  2  2  0
  2  3  1  0
  3  4  1  0
  4  5  1  0
  5  6  2  0
  5  7  1  0
  7  8  1  0
  8  9  1  0
  9 10  1  0
 10 11  1  0
 11 12  1  0
 12 13  1  0
 13 14  2  0
 14 15  1  0
 15 16  2  0
 16 17  1  0
 17 18  2  0
  2 19  1  0
 19 20  2  0
 20 21  1  0
 21 22  2  0
 22 23  1  0
 23 24  2  0
 24 25  1  0
 25 26  2  0
 26 27  1  0
 27 28  2  0
 12  7  1  0
 18 13  1  0
 28 19  1  0
 27 22  1  0
  3 29  1  0
  4 30  1  0
  4 31  1  0
  8 32  1  0
  8 33  1  0
  9 34  1  0
  9 35  1  0
 10 36  1  0
 10 37  1  0
 11 38  1  0
 11 39  1  0
 12 40  1  1
 14 41  1  0
 15 42  1  0
 16 43  1  0
 18 44  1  0
 20 45  1  0
 21 46  1  0
 23 47  1  0
 24 48  1  0
 25 49  1  0
 26 50  1  0
M  END
>  <smiles>  (80) 
O=C(NCC(=O)N1CCCCC1c1cccnc1)c1ccc2ccccc2n1

>  <score_type>  (80) 
oracle

>  <origin>  (80) 
autodockgpu

>  <m_score__min__energy>  (80) 
-9.1799999999999997

>  <m_primary>  (80) 
energy

>  <rmsd>  (80) 
1.7312869462310623

>  <m_score__min__rmsd>  (80) 
1.7312869462310623

>  <meeko>  (80) 
{"free_energy": -8.67, "intermolecular_energy": -10.16, "internal_energy": -1.91, "cluster_size": 32, "cluster_id": 2, "rank_in_cluster": 15}

>  <energy>  (80) 
-8.67

>  <cluster_rmsd>  (80) 
0.56

>  <cluster>  (80) 
2

$$$$

     RDKit          3D

 50 53  0  0  0  0  0  0  0  0999 V2000
  140.7010   71.5000  221.3310 O   0  0  0  0  0  0  0  0  0  0  0  0
  140.2850   72.1070  222.3550 C   0  0  0  0  0  0  0  0  0  0  0  0
  139.8810   73.4670  222.3400 N   0  0  0  0  0  0  0  0  0  0  0  0
  139.9210   74.2690  221.1330 C   0  0  0  0  0  0  0  0  0  0  0  0
  139.9280   75.6740  221.5420 C   0  0  0  0  0  0  0  0  0  0  0  0
  139.5730   75.9640  222.7270 O   0  0  0  0  0  0  0  0  0  0  0  0
  140.3170   76.7540  220.6630 N   0  0  0  0  0  0  0  0  0  0  0  0
  139.3200   77.1670  219.6930 C   0  0  0  0  0  0  0  0  0  0  0  0
  139.8680   77.9010  218.5290 C   0  0  0  0  0  0  0  0  0  0  0  0
  141.3280   77.7320  218.2770 C   0  0  0  0  0  0  0  0  0  0  0  0
  142.2020   77.6340  219.4510 C   0  0  0  0  0  0  0  0  0  0  0  0
  141.6240   77.3550  220.7770 C   0  0  1  0  0  0  0  0  0  0  0  0
  141.6460   78.5050  221.7180 C   0  0  0  0  0  0  0  0  0  0  0  0
  141.4730   78.3530  223.0900 C   0  0  0  0  0  0  0  0  0  0  0  0
  141.4940   79.4230  223.9610 C   0  0  0  0  0  0  0  0  0  0  0  0
  141.6920   80.6780  223.4560 C   0  0  0  0  0  0  0  0  0  0  0  0
  141.8620   80.8570  222.1460 N   0  0  0  0  0  0  0  0  0  0  0  0
  141.8420   79.8150  221.2890 C   0  0  0  0  0  0  0  0  0  0  0  0
  140.2120   71.3680  223.6270 C   0  0  0  0  0  0  0  0  0  0  0  0
  139.6620   70.1080  223.6860 C   0  0  0  0  0  0  0  0  0  0  0  0
  139.5660   69.3670  224.8400 C   0  0  0  0  0  0  0  0  0  0  0  0
  140.0520   69.9270  226.0090 C   0  0  0  0  0  0  0  0  0  0  0  0
  139.9530   69.1880  227.1530 C   0  0  0  0  0  0  0  0  0  0  0  0
  140.4370   69.7360  228.3360 C   0  0  0  0  0  0  0  0  0  0  0  0
  140.9900   70.9910  228.3040 C   0  0  0  0  0  0  0  0  0  0  0  0
  141.0810   71.7260  227.1340 C   0  0  0  0  0  0  0  0  0  0  0  0
  140.5990   71.1880  225.9410 C   0  0  0  0  0  0  0  0  0  0  0  0
  140.6780   71.8890  224.7810 N   0  0  0  0  0  0  0  0  0  0  0  0
  139.5460   73.8910  223.2470 H   0  0  0  0  0  0  0  0  0  0  0  0
  140.8310   74.0398  220.5591 H   0  0  0  0  0  0  0  0  0  0  0  0
  139.0512   74.0543  220.4947 H   0  0  0  0  0  0  0  0  0  0  0  0
  138.8069   76.2674  219.3223 H   0  0  0  0  0  0  0  0  0  0  0  0
  138.6440   77.8617  220.2130 H   0  0  0  0  0  0  0  0  0  0  0  0
  139.3301   77.5595  217.6323 H   0  0  0  0  0  0  0  0  0  0  0  0
  139.7286   78.9676  218.7591 H   0  0  0  0  0  0  0  0  0  0  0  0
  141.4584   76.8115  217.6891 H   0  0  0  0  0  0  0  0  0  0  0  0
  141.6378   78.6567  217.7681 H   0  0  0  0  0  0  0  0  0  0  0  0
  142.9239   76.8304  219.2436 H   0  0  0  0  0  0  0  0  0  0  0  0
  142.5989   78.6544  219.5572 H   0  0  0  0  0  0  0  0  0  0  0  0
  142.2954   76.6187  221.2428 H   0  0  0  0  0  0  0  0  0  0  0  0
  141.3137   77.3429  223.4953 H   0  0  0  0  0  0  0  0  0  0  0  0
  141.3541   79.2692  225.0412 H   0  0  0  0  0  0  0  0  0  0  0  0
  141.7111   81.5441  224.1339 H   0  0  0  0  0  0  0  0  0  0  0  0
  141.9853   80.0069  220.2154 H   0  0  0  0  0  0  0  0  0  0  0  0
  139.2763   69.6676  222.7547 H   0  0  0  0  0  0  0  0  0  0  0  0
  139.1179   68.3624  224.8346 H   0  0  0  0  0  0  0  0  0  0  0  0
  139.5019   68.1848  227.1392 H   0  0  0  0  0  0  0  0  0  0  0  0
  140.3775   69.1737  229.2796 H   0  0  0  0  0  0  0  0  0  0  0  0
  141.3736   71.4276  229.2380 H   0  0  0  0  0  0  0  0  0  0  0  0
  141.5313   72.7295  227.1455 H   0  0  0  0  0  0  0  0  0  0  0  0
  1  2  2  0
  2  3  1  0
  3  4  1  0
  4  5  1  0
  5  6  2  0
  5  7  1  0
  7  8  1  0
  8  9  1  0
  9 10  1  0
 10 11  1  0
 11 12  1  0
 12 13  1  0
 13 14  2  0
 14 15  1  0
 15 16  2  0
 16 17  1  0
 17 18  2  0
  2 19  1  0
 19 20  2  0
 20 21  1  0
 21 22  2  0
 22 23  1  0
 23 24  2  0
 24 25  1  0
 25 26  2  0
 26 27  1  0
 27 28  2  0
 12  7  1  0
 18 13  1  0
 28 19  1  0
 27 22  1  0
  3 29  1  0
  4 30  1  0
  4 31  1  0
  8 32  1  0
  8 33  1  0
  9 34  1  0
  9 35  1  0
 10 36  1  0
 10 37  1  0
 11 38  1  0
 11 39  1  0
 12 40  1  1
 14 41  1  0
 15 42  1  0
 16 43  1  0
 18 44  1  0
 20 45  1  0
 21 46  1  0
 23 47  1  0
 24 48  1  0
 25 49  1  0
 26 50  1  0
M  END
>  <smiles>  (81) 
O=C(NCC(=O)N1CCCCC1c1cccnc1)c1ccc2ccccc2n1

>  <score_type>  (81) 
oracle

>  <origin>  (81) 
autodockgpu

>  <m_score__min__energy>  (81) 
-9.1799999999999997

>  <m_primary>  (81) 
energy

>  <rmsd>  (81) 
1.7188234530665805

>  <m_score__min__rmsd>  (81) 
1.7188234530665805

>  <meeko>  (81) 
{"free_energy": -8.7, "intermolecular_energy": -10.19, "internal_energy": -1.93, "cluster_size": 32, "cluster_id": 2, "rank_in_cluster": 8}

>  <energy>  (81) 
-8.67

>  <cluster_rmsd>  (81) 
0.34

>  <cluster>  (81) 
2

$$$$

     RDKit          3D

 50 53  0  0  0  0  0  0  0  0999 V2000
  140.2190   71.3890  221.2750 O   0  0  0  0  0  0  0  0  0  0  0  0
  140.0070   72.0340  222.3370 C   0  0  0  0  0  0  0  0  0  0  0  0
  139.7400   73.4270  222.3580 N   0  0  0  0  0  0  0  0  0  0  0  0
  139.6930   74.2210  221.1460 C   0  0  0  0  0  0  0  0  0  0  0  0
  139.8200   75.6250  221.5380 C   0  0  0  0  0  0  0  0  0  0  0  0
  139.4980   75.9570  222.7210 O   0  0  0  0  0  0  0  0  0  0  0  0
  140.2930   76.6580  220.6450 N   0  0  0  0  0  0  0  0  0  0  0  0
  139.3600   77.0770  219.6150 C   0  0  0  0  0  0  0  0  0  0  0  0
  139.9910   77.7480  218.4560 C   0  0  0  0  0  0  0  0  0  0  0  0
  141.4540   77.5140  218.2790 C   0  0  0  0  0  0  0  0  0  0  0  0
  142.2660   77.4230  219.4970 C   0  0  0  0  0  0  0  0  0  0  0  0
  141.6160   77.2120  220.8020 C   0  0  1  0  0  0  0  0  0  0  0  0
  141.6400   78.3920  221.7050 C   0  0  0  0  0  0  0  0  0  0  0  0
  141.4640   78.2850  223.0810 C   0  0  0  0  0  0  0  0  0  0  0  0
  141.4860   79.3830  223.9170 C   0  0  0  0  0  0  0  0  0  0  0  0
  141.6900   80.6200  223.3720 C   0  0  0  0  0  0  0  0  0  0  0  0
  141.8630   80.7560  222.0570 N   0  0  0  0  0  0  0  0  0  0  0  0
  141.8410   79.6860  221.2340 C   0  0  0  0  0  0  0  0  0  0  0  0
  140.0370   71.3060  223.6170 C   0  0  0  0  0  0  0  0  0  0  0  0
  139.5770   70.0130  223.7100 C   0  0  0  0  0  0  0  0  0  0  0  0
  139.5780   69.2800  224.8730 C   0  0  0  0  0  0  0  0  0  0  0  0
  140.0710   69.8850  226.0160 C   0  0  0  0  0  0  0  0  0  0  0  0
  140.0700   69.1540  227.1690 C   0  0  0  0  0  0  0  0  0  0  0  0
  140.5620   69.7470  228.3270 C   0  0  0  0  0  0  0  0  0  0  0  0
  141.0260   71.0360  228.2610 C   0  0  0  0  0  0  0  0  0  0  0  0
  141.0200   71.7620  227.0830 C   0  0  0  0  0  0  0  0  0  0  0  0
  140.5280   71.1790  225.9150 C   0  0  0  0  0  0  0  0  0  0  0  0
  140.5120   71.8710  224.7470 N   0  0  0  0  0  0  0  0  0  0  0  0
  139.5730   73.8820  223.2970 H   0  0  0  0  0  0  0  0  0  0  0  0
  140.5221   73.9400  220.4800 H   0  0  0  0  0  0  0  0  0  0  0  0
  138.7491   74.0519  220.6070 H   0  0  0  0  0  0  0  0  0  0  0  0
  138.8280   76.1863  219.2494 H   0  0  0  0  0  0  0  0  0  0  0  0
  138.6899   77.8155  220.0793 H   0  0  0  0  0  0  0  0  0  0  0  0
  139.4819   77.3970  217.5462 H   0  0  0  0  0  0  0  0  0  0  0  0
  139.8848   78.8264  218.6449 H   0  0  0  0  0  0  0  0  0  0  0  0
  141.5747   76.5694  217.7284 H   0  0  0  0  0  0  0  0  0  0  0  0
  141.8247   78.4071  217.7547 H   0  0  0  0  0  0  0  0  0  0  0  0
  142.9644   76.5857  219.3511 H   0  0  0  0  0  0  0  0  0  0  0  0
  142.6968   78.4309  219.5893 H   0  0  0  0  0  0  0  0  0  0  0  0
  142.2349   76.4668  221.3233 H   0  0  0  0  0  0  0  0  0  0  0  0
  141.3014   77.2890  223.5186 H   0  0  0  0  0  0  0  0  0  0  0  0
  141.3421   79.2650  225.0012 H   0  0  0  0  0  0  0  0  0  0  0  0
  141.7115   81.5075  224.0215 H   0  0  0  0  0  0  0  0  0  0  0  0
  141.9868   79.8423  220.1550 H   0  0  0  0  0  0  0  0  0  0  0  0
  139.1848   69.5370  222.7992 H   0  0  0  0  0  0  0  0  0  0  0  0
  139.1997   68.2473  224.8944 H   0  0  0  0  0  0  0  0  0  0  0  0
  139.6897   68.1219  227.1819 H   0  0  0  0  0  0  0  0  0  0  0  0
  140.5786   69.1930  229.2772 H   0  0  0  0  0  0  0  0  0  0  0  0
  141.4158   71.5083  229.1748 H   0  0  0  0  0  0  0  0  0  0  0  0
  141.4013   72.7937  227.0676 H   0  0  0  0  0  0  0  0  0  0  0  0
  1  2  2  0
  2  3  1  0
  3  4  1  0
  4  5  1  0
  5  6  2  0
  5  7  1  0
  7  8  1  0
  8  9  1  0
  9 10  1  0
 10 11  1  0
 11 12  1  0
 12 13  1  0
 13 14  2  0
 14 15  1  0
 15 16  2  0
 16 17  1  0
 17 18  2  0
  2 19  1  0
 19 20  2  0
 20 21  1  0
 21 22  2  0
 22 23  1  0
 23 24  2  0
 24 25  1  0
 25 26  2  0
 26 27  1  0
 27 28  2  0
 12  7  1  0
 18 13  1  0
 28 19  1  0
 27 22  1  0
  3 29  1  0
  4 30  1  0
  4 31  1  0
  8 32  1  0
  8 33  1  0
  9 34  1  0
  9 35  1  0
 10 36  1  0
 10 37  1  0
 11 38  1  0
 11 39  1  0
 12 40  1  1
 14 41  1  0
 15 42  1  0
 16 43  1  0
 18 44  1  0
 20 45  1  0
 21 46  1  0
 23 47  1  0
 24 48  1  0
 25 49  1  0
 26 50  1  0
M  END
>  <smiles>  (82) 
O=C(NCC(=O)N1CCCCC1c1cccnc1)c1ccc2ccccc2n1

>  <score_type>  (82) 
oracle

>  <origin>  (82) 
autodockgpu

>  <m_score__min__energy>  (82) 
-9.1799999999999997

>  <m_primary>  (82) 
energy

>  <rmsd>  (82) 
1.6194879509649895

>  <m_score__min__rmsd>  (82) 
1.6194879509649895

>  <meeko>  (82) 
{"free_energy": -8.62, "intermolecular_energy": -10.11, "internal_energy": -1.99, "cluster_size": 32, "cluster_id": 2, "rank_in_cluster": 21}

>  <energy>  (82) 
-8.67

>  <cluster_rmsd>  (82) 
0.35

>  <cluster>  (82) 
2

$$$$

     RDKit          3D

 50 53  0  0  0  0  0  0  0  0999 V2000
  141.1300   71.6840  221.4530 O   0  0  0  0  0  0  0  0  0  0  0  0
  140.5010   72.2230  222.4030 C   0  0  0  0  0  0  0  0  0  0  0  0
  139.9920   73.5460  222.3450 N   0  0  0  0  0  0  0  0  0  0  0  0
  140.1600   74.3850  221.1750 C   0  0  0  0  0  0  0  0  0  0  0  0
  139.9500   75.7700  221.5970 C   0  0  0  0  0  0  0  0  0  0  0  0
  139.4140   75.9870  222.7280 O   0  0  0  0  0  0  0  0  0  0  0  0
  140.3220   76.9100  220.7890 N   0  0  0  0  0  0  0  0  0  0  0  0
  139.2880   77.4240  219.9090 C   0  0  0  0  0  0  0  0  0  0  0  0
  139.7940   78.2390  218.7820 C   0  0  0  0  0  0  0  0  0  0  0  0
  141.2350   78.0600  218.4400 C   0  0  0  0  0  0  0  0  0  0  0  0
  142.1640   77.8470  219.5550 C   0  0  0  0  0  0  0  0  0  0  0  0
  141.6470   77.4730  220.8820 C   0  0  1  0  0  0  0  0  0  0  0  0
  141.7460   78.5410  221.9110 C   0  0  0  0  0  0  0  0  0  0  0  0
  141.4470   78.3190  223.2510 C   0  0  0  0  0  0  0  0  0  0  0  0
  141.5400   79.3130  224.2040 C   0  0  0  0  0  0  0  0  0  0  0  0
  141.9410   80.5610  223.8150 C   0  0  0  0  0  0  0  0  0  0  0  0
  142.2360   80.8050  222.5380 N   0  0  0  0  0  0  0  0  0  0  0  0
  142.1470   79.8370  221.6020 C   0  0  0  0  0  0  0  0  0  0  0  0
  140.2840   71.4420  223.6330 C   0  0  0  0  0  0  0  0  0  0  0  0
  139.6490   70.2220  223.5970 C   0  0  0  0  0  0  0  0  0  0  0  0
  139.4160   69.4460  224.7070 C   0  0  0  0  0  0  0  0  0  0  0  0
  139.8490   69.9240  225.9310 C   0  0  0  0  0  0  0  0  0  0  0  0
  139.6160   69.1500  227.0320 C   0  0  0  0  0  0  0  0  0  0  0  0
  140.0450   69.6160  228.2700 C   0  0  0  0  0  0  0  0  0  0  0  0
  140.6800   70.8300  228.3330 C   0  0  0  0  0  0  0  0  0  0  0  0
  140.9080   71.6020  227.2060 C   0  0  0  0  0  0  0  0  0  0  0  0
  140.4830   71.1460  225.9590 C   0  0  0  0  0  0  0  0  0  0  0  0
  140.6950   71.8840  224.8390 N   0  0  0  0  0  0  0  0  0  0  0  0
  139.4770   73.9130  223.1910 H   0  0  0  0  0  0  0  0  0  0  0  0
  141.1753   74.2653  220.7690 H   0  0  0  0  0  0  0  0  0  0  0  0
  139.4426   74.1049  220.3896 H   0  0  0  0  0  0  0  0  0  0  0  0
  138.7334   76.5695  219.4939 H   0  0  0  0  0  0  0  0  0  0  0  0
  138.6582   78.0883  220.5190 H   0  0  0  0  0  0  0  0  0  0  0  0
  139.2024   77.9842  217.8903 H   0  0  0  0  0  0  0  0  0  0  0  0
  139.6940   79.2858  219.1050 H   0  0  0  0  0  0  0  0  0  0  0  0
  141.3118   77.1884  217.7734 H   0  0  0  0  0  0  0  0  0  0  0  0
  141.5424   79.0163  217.9916 H   0  0  0  0  0  0  0  0  0  0  0  0
  142.8534   77.0476  219.2458 H   0  0  0  0  0  0  0  0  0  0  0  0
  142.5919   78.8464  219.7225 H   0  0  0  0  0  0  0  0  0  0  0  0
  142.3227   76.6873  221.2509 H   0  0  0  0  0  0  0  0  0  0  0  0
  141.1247   77.3145  223.5627 H   0  0  0  0  0  0  0  0  0  0  0  0
  141.2962   79.1052  225.2563 H   0  0  0  0  0  0  0  0  0  0  0  0
  142.0205   81.3673  224.5591 H   0  0  0  0  0  0  0  0  0  0  0  0
  142.4000   80.0808  220.5596 H   0  0  0  0  0  0  0  0  0  0  0  0
  139.3075   69.8453  222.6216 H   0  0  0  0  0  0  0  0  0  0  0  0
  138.9022   68.4768  224.6250 H   0  0  0  0  0  0  0  0  0  0  0  0
  139.1017   68.1819  226.9416 H   0  0  0  0  0  0  0  0  0  0  0  0
  139.8783   69.0225  229.1810 H   0  0  0  0  0  0  0  0  0  0  0  0
  141.0193   71.2028  229.3107 H   0  0  0  0  0  0  0  0  0  0  0  0
  141.4221   72.5705  227.2944 H   0  0  0  0  0  0  0  0  0  0  0  0
  1  2  2  0
  2  3  1  0
  3  4  1  0
  4  5  1  0
  5  6  2  0
  5  7  1  0
  7  8  1  0
  8  9  1  0
  9 10  1  0
 10 11  1  0
 11 12  1  0
 12 13  1  0
 13 14  2  0
 14 15  1  0
 15 16  2  0
 16 17  1  0
 17 18  2  0
  2 19  1  0
 19 20  2  0
 20 21  1  0
 21 22  2  0
 22 23  1  0
 23 24  2  0
 24 25  1  0
 25 26  2  0
 26 27  1  0
 27 28  2  0
 12  7  1  0
 18 13  1  0
 28 19  1  0
 27 22  1  0
  3 29  1  0
  4 30  1  0
  4 31  1  0
  8 32  1  0
  8 33  1  0
  9 34  1  0
  9 35  1  0
 10 36  1  0
 10 37  1  0
 11 38  1  0
 11 39  1  0
 12 40  1  1
 14 41  1  0
 15 42  1  0
 16 43  1  0
 18 44  1  0
 20 45  1  0
 21 46  1  0
 23 47  1  0
 24 48  1  0
 25 49  1  0
 26 50  1  0
M  END
>  <smiles>  (83) 
O=C(NCC(=O)N1CCCCC1c1cccnc1)c1ccc2ccccc2n1

>  <score_type>  (83) 
oracle

>  <origin>  (83) 
autodockgpu

>  <m_score__min__energy>  (83) 
-9.1799999999999997

>  <m_primary>  (83) 
energy

>  <rmsd>  (83) 
1.8999682574902714

>  <m_score__min__rmsd>  (83) 
1.8999682574902714

>  <meeko>  (83) 
{"free_energy": -8.7, "intermolecular_energy": -10.2, "internal_energy": -1.89, "cluster_size": 32, "cluster_id": 2, "rank_in_cluster": 7}

>  <energy>  (83) 
-8.66

>  <cluster_rmsd>  (83) 
0.25

>  <cluster>  (83) 
2

$$$$

     RDKit          3D

 50 53  0  0  0  0  0  0  0  0999 V2000
  141.3070   71.7930  221.5600 O   0  0  0  0  0  0  0  0  0  0  0  0
  140.5340   72.2710  222.4320 C   0  0  0  0  0  0  0  0  0  0  0  0
  139.8930   73.5300  222.2940 N   0  0  0  0  0  0  0  0  0  0  0  0
  140.0840   74.3680  221.1270 C   0  0  0  0  0  0  0  0  0  0  0  0
  139.9490   75.7580  221.5610 C   0  0  0  0  0  0  0  0  0  0  0  0
  139.4860   75.9910  222.7200 O   0  0  0  0  0  0  0  0  0  0  0  0
  140.3170   76.8860  220.7340 N   0  0  0  0  0  0  0  0  0  0  0  0
  139.2810   77.3810  219.8460 C   0  0  0  0  0  0  0  0  0  0  0  0
  139.7830   78.1790  218.7050 C   0  0  0  0  0  0  0  0  0  0  0  0
  141.2250   78.0000  218.3660 C   0  0  0  0  0  0  0  0  0  0  0  0
  142.1550   77.8090  219.4840 C   0  0  0  0  0  0  0  0  0  0  0  0
  141.6400   77.4550  220.8180 C   0  0  1  0  0  0  0  0  0  0  0  0
  141.7350   78.5400  221.8280 C   0  0  0  0  0  0  0  0  0  0  0  0
  141.4590   78.3340  223.1760 C   0  0  0  0  0  0  0  0  0  0  0  0
  141.5480   79.3440  224.1120 C   0  0  0  0  0  0  0  0  0  0  0  0
  141.9230   80.5920  223.6990 C   0  0  0  0  0  0  0  0  0  0  0  0
  142.1950   80.8220  222.4140 N   0  0  0  0  0  0  0  0  0  0  0  0
  142.1090   79.8380  221.4940 C   0  0  0  0  0  0  0  0  0  0  0  0
  140.2820   71.4860  223.6530 C   0  0  0  0  0  0  0  0  0  0  0  0
  139.5910   70.2970  223.6030 C   0  0  0  0  0  0  0  0  0  0  0  0
  139.3240   69.5190  224.7040 C   0  0  0  0  0  0  0  0  0  0  0  0
  139.7790   69.9620  225.9330 C   0  0  0  0  0  0  0  0  0  0  0  0
  139.5110   69.1870  227.0240 C   0  0  0  0  0  0  0  0  0  0  0  0
  139.9620   69.6180  228.2680 C   0  0  0  0  0  0  0  0  0  0  0  0
  140.6520   70.8010  228.3440 C   0  0  0  0  0  0  0  0  0  0  0  0
  140.9140   71.5750  227.2270 C   0  0  0  0  0  0  0  0  0  0  0  0
  140.4680   71.1530  225.9750 C   0  0  0  0  0  0  0  0  0  0  0  0
  140.7130   71.8950  224.8640 N   0  0  0  0  0  0  0  0  0  0  0  0
  139.2600   73.8480  223.0780 H   0  0  0  0  0  0  0  0  0  0  0  0
  141.0858   74.2015  220.7043 H   0  0  0  0  0  0  0  0  0  0  0  0
  139.3417   74.1291  220.3512 H   0  0  0  0  0  0  0  0  0  0  0  0
  138.7297   76.5174  219.4456 H   0  0  0  0  0  0  0  0  0  0  0  0
  138.6491   78.0532  220.4451 H   0  0  0  0  0  0  0  0  0  0  0  0
  139.1924   77.9065  217.8179 H   0  0  0  0  0  0  0  0  0  0  0  0
  139.6783   79.2308  219.0097 H   0  0  0  0  0  0  0  0  0  0  0  0
  141.3051   77.1179  217.7138 H   0  0  0  0  0  0  0  0  0  0  0  0
  141.5286   78.9501  217.9022 H   0  0  0  0  0  0  0  0  0  0  0  0
  142.8473   77.0071  219.1878 H   0  0  0  0  0  0  0  0  0  0  0  0
  142.5789   78.8128  219.6347 H   0  0  0  0  0  0  0  0  0  0  0  0
  142.3186   76.6783  221.2005 H   0  0  0  0  0  0  0  0  0  0  0  0
  141.1588   77.3291  223.5078 H   0  0  0  0  0  0  0  0  0  0  0  0
  141.3215   79.1486  225.1705 H   0  0  0  0  0  0  0  0  0  0  0  0
  142.0007   81.4103  224.4300 H   0  0  0  0  0  0  0  0  0  0  0  0
  142.3425   80.0701  220.4444 H   0  0  0  0  0  0  0  0  0  0  0  0
  139.2310   69.9486  222.6237 H   0  0  0  0  0  0  0  0  0  0  0  0
  138.7668   68.5751  224.6110 H   0  0  0  0  0  0  0  0  0  0  0  0
  138.9523   68.2449  226.9225 H   0  0  0  0  0  0  0  0  0  0  0  0
  139.7690   69.0219  229.1721 H   0  0  0  0  0  0  0  0  0  0  0  0
  141.0090   71.1461  229.3255 H   0  0  0  0  0  0  0  0  0  0  0  0
  141.4712   72.5182  227.3263 H   0  0  0  0  0  0  0  0  0  0  0  0
  1  2  2  0
  2  3  1  0
  3  4  1  0
  4  5  1  0
  5  6  2  0
  5  7  1  0
  7  8  1  0
  8  9  1  0
  9 10  1  0
 10 11  1  0
 11 12  1  0
 12 13  1  0
 13 14  2  0
 14 15  1  0
 15 16  2  0
 16 17  1  0
 17 18  2  0
  2 19  1  0
 19 20  2  0
 20 21  1  0
 21 22  2  0
 22 23  1  0
 23 24  2  0
 24 25  1  0
 25 26  2  0
 26 27  1  0
 27 28  2  0
 12  7  1  0
 18 13  1  0
 28 19  1  0
 27 22  1  0
  3 29  1  0
  4 30  1  0
  4 31  1  0
  8 32  1  0
  8 33  1  0
  9 34  1  0
  9 35  1  0
 10 36  1  0
 10 37  1  0
 11 38  1  0
 11 39  1  0
 12 40  1  1
 14 41  1  0
 15 42  1  0
 16 43  1  0
 18 44  1  0
 20 45  1  0
 21 46  1  0
 23 47  1  0
 24 48  1  0
 25 49  1  0
 26 50  1  0
M  END
>  <smiles>  (84) 
O=C(NCC(=O)N1CCCCC1c1cccnc1)c1ccc2ccccc2n1

>  <score_type>  (84) 
oracle

>  <origin>  (84) 
autodockgpu

>  <m_score__min__energy>  (84) 
-9.1799999999999997

>  <m_primary>  (84) 
energy

>  <rmsd>  (84) 
1.8733248318104292

>  <m_score__min__rmsd>  (84) 
1.8733248318104292

>  <meeko>  (84) 
{"free_energy": -8.75, "intermolecular_energy": -10.24, "internal_energy": -1.85, "cluster_size": 32, "cluster_id": 2, "rank_in_cluster": 1}

>  <energy>  (84) 
-8.66

>  <cluster_rmsd>  (84) 
0.35

>  <cluster>  (84) 
2

$$$$

     RDKit          3D

 50 53  0  0  0  0  0  0  0  0999 V2000
  141.1670   71.7350  221.4480 O   0  0  0  0  0  0  0  0  0  0  0  0
  140.4850   72.2480  222.3750 C   0  0  0  0  0  0  0  0  0  0  0  0
  139.9100   73.5420  222.2900 N   0  0  0  0  0  0  0  0  0  0  0  0
  140.0680   74.3810  221.1190 C   0  0  0  0  0  0  0  0  0  0  0  0
  139.9520   75.7710  221.5580 C   0  0  0  0  0  0  0  0  0  0  0  0
  139.4920   76.0060  222.7190 O   0  0  0  0  0  0  0  0  0  0  0  0
  140.3320   76.8970  220.7350 N   0  0  0  0  0  0  0  0  0  0  0  0
  139.3100   77.3910  219.8310 C   0  0  0  0  0  0  0  0  0  0  0  0
  139.8300   78.1870  218.6960 C   0  0  0  0  0  0  0  0  0  0  0  0
  141.2760   78.0060  218.3780 C   0  0  0  0  0  0  0  0  0  0  0  0
  142.1890   77.8170  219.5100 C   0  0  0  0  0  0  0  0  0  0  0  0
  141.6540   77.4650  220.8370 C   0  0  1  0  0  0  0  0  0  0  0  0
  141.7360   78.5520  221.8470 C   0  0  0  0  0  0  0  0  0  0  0  0
  142.0760   79.8590  221.5140 C   0  0  0  0  0  0  0  0  0  0  0  0
  142.1510   80.8670  222.4540 C   0  0  0  0  0  0  0  0  0  0  0  0
  141.8800   80.5680  223.7610 C   0  0  0  0  0  0  0  0  0  0  0  0
  141.5500   79.3240  224.1120 N   0  0  0  0  0  0  0  0  0  0  0  0
  141.4760   78.3360  223.1970 C   0  0  0  0  0  0  0  0  0  0  0  0
  140.2730   71.4650  223.6040 C   0  0  0  0  0  0  0  0  0  0  0  0
  139.6300   70.2490  223.5710 C   0  0  0  0  0  0  0  0  0  0  0  0
  139.4020   69.4710  224.6810 C   0  0  0  0  0  0  0  0  0  0  0  0
  139.8470   69.9440  225.9030 C   0  0  0  0  0  0  0  0  0  0  0  0
  139.6180   69.1690  227.0030 C   0  0  0  0  0  0  0  0  0  0  0  0
  140.0590   69.6300  228.2390 C   0  0  0  0  0  0  0  0  0  0  0  0
  140.7030   70.8400  228.3000 C   0  0  0  0  0  0  0  0  0  0  0  0
  140.9260   71.6130  227.1730 C   0  0  0  0  0  0  0  0  0  0  0  0
  140.4880   71.1620  225.9280 C   0  0  0  0  0  0  0  0  0  0  0  0
  140.6960   71.9020  224.8090 N   0  0  0  0  0  0  0  0  0  0  0  0
  139.3520   73.8880  223.1190 H   0  0  0  0  0  0  0  0  0  0  0  0
  141.0556   74.2112  220.6653 H   0  0  0  0  0  0  0  0  0  0  0  0
  139.3008   74.1461  220.3666 H   0  0  0  0  0  0  0  0  0  0  0  0
  138.7642   76.5271  219.4238 H   0  0  0  0  0  0  0  0  0  0  0  0
  138.6695   78.0645  220.4193 H   0  0  0  0  0  0  0  0  0  0  0  0
  139.2519   77.9141  217.8008 H   0  0  0  0  0  0  0  0  0  0  0  0
  139.7225   79.2392  218.9981 H   0  0  0  0  0  0  0  0  0  0  0  0
  141.3648   77.1222  217.7292 H   0  0  0  0  0  0  0  0  0  0  0  0
  141.5873   78.9544  217.9158 H   0  0  0  0  0  0  0  0  0  0  0  0
  142.8858   77.0148  219.2255 H   0  0  0  0  0  0  0  0  0  0  0  0
  142.6104   78.8211  219.6654 H   0  0  0  0  0  0  0  0  0  0  0  0
  142.3257   76.6877  221.2302 H   0  0  0  0  0  0  0  0  0  0  0  0
  142.2932   80.0982  220.4625 H   0  0  0  0  0  0  0  0  0  0  0  0
  142.4234   81.8908  222.1578 H   0  0  0  0  0  0  0  0  0  0  0  0
  141.9344   81.3567  224.5259 H   0  0  0  0  0  0  0  0  0  0  0  0
  141.2006   77.3242  223.5293 H   0  0  0  0  0  0  0  0  0  0  0  0
  139.2772   69.8771  222.5978 H   0  0  0  0  0  0  0  0  0  0  0  0
  138.8830   68.5045  224.6006 H   0  0  0  0  0  0  0  0  0  0  0  0
  139.0977   68.2039  226.9142 H   0  0  0  0  0  0  0  0  0  0  0  0
  139.8946   69.0359  229.1501 H   0  0  0  0  0  0  0  0  0  0  0  0
  141.0535   71.2079  229.2756 H   0  0  0  0  0  0  0  0  0  0  0  0
  141.4462   72.5784  227.2592 H   0  0  0  0  0  0  0  0  0  0  0  0
  1  2  2  0
  2  3  1  0
  3  4  1  0
  4  5  1  0
  5  6  2  0
  5  7  1  0
  7  8  1  0
  8  9  1  0
  9 10  1  0
 10 11  1  0
 11 12  1  0
 12 13  1  0
 13 14  2  0
 14 15  1  0
 15 16  2  0
 16 17  1  0
 17 18  2  0
  2 19  1  0
 19 20  2  0
 20 21  1  0
 21 22  2  0
 22 23  1  0
 23 24  2  0
 24 25  1  0
 25 26  2  0
 26 27  1  0
 27 28  2  0
 12  7  1  0
 18 13  1  0
 28 19  1  0
 27 22  1  0
  3 29  1  0
  4 30  1  0
  4 31  1  0
  8 32  1  0
  8 33  1  0
  9 34  1  0
  9 35  1  0
 10 36  1  0
 10 37  1  0
 11 38  1  0
 11 39  1  0
 12 40  1  1
 14 41  1  0
 15 42  1  0
 16 43  1  0
 18 44  1  0
 20 45  1  0
 21 46  1  0
 23 47  1  0
 24 48  1  0
 25 49  1  0
 26 50  1  0
M  END
>  <smiles>  (85) 
O=C(NCC(=O)N1CCCCC1c1cccnc1)c1ccc2ccccc2n1

>  <score_type>  (85) 
oracle

>  <origin>  (85) 
autodockgpu

>  <m_score__min__energy>  (85) 
-9.1799999999999997

>  <m_primary>  (85) 
energy

>  <rmsd>  (85) 
1.8599327755138348

>  <m_score__min__rmsd>  (85) 
1.8599327755138348

>  <meeko>  (85) 
{"free_energy": -8.74, "intermolecular_energy": -10.23, "internal_energy": -1.85, "cluster_size": 32, "cluster_id": 2, "rank_in_cluster": 3}

>  <energy>  (85) 
-8.62

>  <cluster_rmsd>  (85) 
0.42

>  <cluster>  (85) 
2

$$$$

     RDKit          3D

 50 53  0  0  0  0  0  0  0  0999 V2000
  140.2240   71.3900  221.2850 O   0  0  0  0  0  0  0  0  0  0  0  0
  140.0120   72.0310  222.3480 C   0  0  0  0  0  0  0  0  0  0  0  0
  139.7380   73.4240  222.3730 N   0  0  0  0  0  0  0  0  0  0  0  0
  139.6850   74.2200  221.1630 C   0  0  0  0  0  0  0  0  0  0  0  0
  139.8550   75.6190  221.5530 C   0  0  0  0  0  0  0  0  0  0  0  0
  139.5540   75.9610  222.7390 O   0  0  0  0  0  0  0  0  0  0  0  0
  140.3470   76.6390  220.6540 N   0  0  0  0  0  0  0  0  0  0  0  0
  139.4430   77.0310  219.5890 C   0  0  0  0  0  0  0  0  0  0  0  0
  140.1030   77.6850  218.4360 C   0  0  0  0  0  0  0  0  0  0  0  0
  141.5720   77.4590  218.3080 C   0  0  0  0  0  0  0  0  0  0  0  0
  142.3480   77.3960  219.5510 C   0  0  0  0  0  0  0  0  0  0  0  0
  141.6610   77.2060  220.8400 C   0  0  1  0  0  0  0  0  0  0  0  0
  141.6500   78.4030  221.7200 C   0  0  0  0  0  0  0  0  0  0  0  0
  141.8260   79.6930  221.2310 C   0  0  0  0  0  0  0  0  0  0  0  0
  141.8160   80.8030  222.0520 C   0  0  0  0  0  0  0  0  0  0  0  0
  141.6250   80.6260  223.3940 C   0  0  0  0  0  0  0  0  0  0  0  0
  141.4530   79.4020  223.8940 N   0  0  0  0  0  0  0  0  0  0  0  0
  141.4620   78.3140  223.0970 C   0  0  0  0  0  0  0  0  0  0  0  0
  140.0470   71.3010  223.6270 C   0  0  0  0  0  0  0  0  0  0  0  0
  139.5950   70.0040  223.7170 C   0  0  0  0  0  0  0  0  0  0  0  0
  139.6020   69.2690  224.8790 C   0  0  0  0  0  0  0  0  0  0  0  0
  140.0920   69.8740  226.0230 C   0  0  0  0  0  0  0  0  0  0  0  0
  140.0970   69.1410  227.1740 C   0  0  0  0  0  0  0  0  0  0  0  0
  140.5860   69.7350  228.3330 C   0  0  0  0  0  0  0  0  0  0  0  0
  141.0420   71.0270  228.2690 C   0  0  0  0  0  0  0  0  0  0  0  0
  141.0300   71.7560  227.0920 C   0  0  0  0  0  0  0  0  0  0  0  0
  140.5410   71.1720  225.9240 C   0  0  0  0  0  0  0  0  0  0  0  0
  140.5190   71.8660  224.7570 N   0  0  0  0  0  0  0  0  0  0  0  0
  139.5710   73.8760  223.3130 H   0  0  0  0  0  0  0  0  0  0  0  0
  140.4926   73.9193  220.4793 H   0  0  0  0  0  0  0  0  0  0  0  0
  138.7260   74.0749  220.6440 H   0  0  0  0  0  0  0  0  0  0  0  0
  138.9287   76.1293  219.2250 H   0  0  0  0  0  0  0  0  0  0  0  0
  138.7545   77.7733  220.0190 H   0  0  0  0  0  0  0  0  0  0  0  0
  139.6241   77.3124  217.5185 H   0  0  0  0  0  0  0  0  0  0  0  0
  139.9828   78.7661  218.5999 H   0  0  0  0  0  0  0  0  0  0  0  0
  141.7159   76.5056  217.7786 H   0  0  0  0  0  0  0  0  0  0  0  0
  141.9519   78.3457  217.7794 H   0  0  0  0  0  0  0  0  0  0  0  0
  143.0549   76.5603  219.4419 H   0  0  0  0  0  0  0  0  0  0  0  0
  142.7703   78.4081  219.6367 H   0  0  0  0  0  0  0  0  0  0  0  0
  142.2692   76.4762  221.3945 H   0  0  0  0  0  0  0  0  0  0  0  0
  141.9787   79.8341  220.1508 H   0  0  0  0  0  0  0  0  0  0  0  0
  141.9590   81.8105  221.6342 H   0  0  0  0  0  0  0  0  0  0  0  0
  141.6132   81.4978  224.0647 H   0  0  0  0  0  0  0  0  0  0  0  0
  141.3159   77.3224  223.5502 H   0  0  0  0  0  0  0  0  0  0  0  0
  139.2052   69.5274  222.8055 H   0  0  0  0  0  0  0  0  0  0  0  0
  139.2303   68.2339  224.8986 H   0  0  0  0  0  0  0  0  0  0  0  0
  139.7237   68.1063  227.1851 H   0  0  0  0  0  0  0  0  0  0  0  0
  140.6065   69.1794  229.2822 H   0  0  0  0  0  0  0  0  0  0  0  0
  141.4302   71.4997  229.1832 H   0  0  0  0  0  0  0  0  0  0  0  0
  141.4042   72.7903  227.0783 H   0  0  0  0  0  0  0  0  0  0  0  0
  1  2  2  0
  2  3  1  0
  3  4  1  0
  4  5  1  0
  5  6  2  0
  5  7  1  0
  7  8  1  0
  8  9  1  0
  9 10  1  0
 10 11  1  0
 11 12  1  0
 12 13  1  0
 13 14  2  0
 14 15  1  0
 15 16  2  0
 16 17  1  0
 17 18  2  0
  2 19  1  0
 19 20  2  0
 20 21  1  0
 21 22  2  0
 22 23  1  0
 23 24  2  0
 24 25  1  0
 25 26  2  0
 26 27  1  0
 27 28  2  0
 12  7  1  0
 18 13  1  0
 28 19  1  0
 27 22  1  0
  3 29  1  0
  4 30  1  0
  4 31  1  0
  8 32  1  0
  8 33  1  0
  9 34  1  0
  9 35  1  0
 10 36  1  0
 10 37  1  0
 11 38  1  0
 11 39  1  0
 12 40  1  1
 14 41  1  0
 15 42  1  0
 16 43  1  0
 18 44  1  0
 20 45  1  0
 21 46  1  0
 23 47  1  0
 24 48  1  0
 25 49  1  0
 26 50  1  0
M  END
>  <smiles>  (86) 
O=C(NCC(=O)N1CCCCC1c1cccnc1)c1ccc2ccccc2n1

>  <score_type>  (86) 
oracle

>  <origin>  (86) 
autodockgpu

>  <m_score__min__energy>  (86) 
-9.1799999999999997

>  <m_primary>  (86) 
energy

>  <rmsd>  (86) 
1.6178186619869255

>  <m_score__min__rmsd>  (86) 
1.6178186619869255

>  <meeko>  (86) 
{"free_energy": -8.56, "intermolecular_energy": -10.05, "internal_energy": -1.97, "cluster_size": 32, "cluster_id": 2, "rank_in_cluster": 27}

>  <energy>  (86) 
-8.62

>  <cluster_rmsd>  (86) 
0.43

>  <cluster>  (86) 
2

$$$$

     RDKit          3D

 50 53  0  0  0  0  0  0  0  0999 V2000
  141.2470   71.7730  221.4640 O   0  0  0  0  0  0  0  0  0  0  0  0
  140.5330   72.2740  222.3730 C   0  0  0  0  0  0  0  0  0  0  0  0
  139.9580   73.5680  222.2840 N   0  0  0  0  0  0  0  0  0  0  0  0
  140.1550   74.4210  221.1280 C   0  0  0  0  0  0  0  0  0  0  0  0
  139.9620   75.8030  221.5670 C   0  0  0  0  0  0  0  0  0  0  0  0
  139.4490   76.0120  222.7090 O   0  0  0  0  0  0  0  0  0  0  0  0
  140.3270   76.9480  220.7630 N   0  0  0  0  0  0  0  0  0  0  0  0
  139.2890   77.4580  219.8850 C   0  0  0  0  0  0  0  0  0  0  0  0
  139.7890   78.2800  218.7600 C   0  0  0  0  0  0  0  0  0  0  0  0
  141.2300   78.1110  218.4160 C   0  0  0  0  0  0  0  0  0  0  0  0
  142.1620   77.8990  219.5290 C   0  0  0  0  0  0  0  0  0  0  0  0
  141.6490   77.5170  220.8560 C   0  0  1  0  0  0  0  0  0  0  0  0
  141.7430   78.5830  221.8880 C   0  0  0  0  0  0  0  0  0  0  0  0
  142.1240   79.8860  221.5860 C   0  0  0  0  0  0  0  0  0  0  0  0
  142.2110   80.8730  222.5470 C   0  0  0  0  0  0  0  0  0  0  0  0
  141.9100   80.5570  223.8430 C   0  0  0  0  0  0  0  0  0  0  0  0
  141.5410   79.3170  224.1640 N   0  0  0  0  0  0  0  0  0  0  0  0
  141.4550   78.3480  223.2300 C   0  0  0  0  0  0  0  0  0  0  0  0
  140.2810   71.4770  223.5860 C   0  0  0  0  0  0  0  0  0  0  0  0
  139.6160   70.2750  223.5210 C   0  0  0  0  0  0  0  0  0  0  0  0
  139.3510   69.4850  224.6150 C   0  0  0  0  0  0  0  0  0  0  0  0
  139.7810   69.9310  225.8520 C   0  0  0  0  0  0  0  0  0  0  0  0
  139.5150   69.1430  226.9350 C   0  0  0  0  0  0  0  0  0  0  0  0
  139.9400   69.5770  228.1870 C   0  0  0  0  0  0  0  0  0  0  0  0
  140.6050   70.7730  228.2790 C   0  0  0  0  0  0  0  0  0  0  0  0
  140.8660   71.5590  227.1690 C   0  0  0  0  0  0  0  0  0  0  0  0
  140.4440   71.1350  225.9090 C   0  0  0  0  0  0  0  0  0  0  0  0
  140.6890   71.8870  224.8050 N   0  0  0  0  0  0  0  0  0  0  0  0
  139.3730   73.9040  223.0970 H   0  0  0  0  0  0  0  0  0  0  0  0
  141.1735   74.2904  220.7335 H   0  0  0  0  0  0  0  0  0  0  0  0
  139.4435   74.1639  220.3295 H   0  0  0  0  0  0  0  0  0  0  0  0
  138.7399   76.6012  219.4675 H   0  0  0  0  0  0  0  0  0  0  0  0
  138.6553   78.1163  220.4974 H   0  0  0  0  0  0  0  0  0  0  0  0
  139.1980   78.0246  217.8681 H   0  0  0  0  0  0  0  0  0  0  0  0
  139.6830   79.3250  219.0866 H   0  0  0  0  0  0  0  0  0  0  0  0
  141.3111   77.2425  217.7458 H   0  0  0  0  0  0  0  0  0  0  0  0
  141.5311   79.0710  217.9714 H   0  0  0  0  0  0  0  0  0  0  0  0
  142.8554   77.1046  219.2158 H   0  0  0  0  0  0  0  0  0  0  0  0
  142.5844   78.9002  219.6996 H   0  0  0  0  0  0  0  0  0  0  0  0
  142.3293   76.7335  221.2211 H   0  0  0  0  0  0  0  0  0  0  0  0
  142.3648   80.1393  220.5430 H   0  0  0  0  0  0  0  0  0  0  0  0
  142.5166   81.8942  222.2755 H   0  0  0  0  0  0  0  0  0  0  0  0
  141.9727   81.3293  224.6238 H   0  0  0  0  0  0  0  0  0  0  0  0
  141.1470   77.3381  223.5386 H   0  0  0  0  0  0  0  0  0  0  0  0
  139.2758   69.9246  222.5353 H   0  0  0  0  0  0  0  0  0  0  0  0
  138.8149   68.5302  224.5100 H   0  0  0  0  0  0  0  0  0  0  0  0
  138.9785   68.1895  226.8207 H   0  0  0  0  0  0  0  0  0  0  0  0
  139.7464   68.9726  229.0854 H   0  0  0  0  0  0  0  0  0  0  0  0
  140.9422   71.1194  229.2671 H   0  0  0  0  0  0  0  0  0  0  0  0
  141.4032   72.5124  227.2805 H   0  0  0  0  0  0  0  0  0  0  0  0
  1  2  2  0
  2  3  1  0
  3  4  1  0
  4  5  1  0
  5  6  2  0
  5  7  1  0
  7  8  1  0
  8  9  1  0
  9 10  1  0
 10 11  1  0
 11 12  1  0
 12 13  1  0
 13 14  2  0
 14 15  1  0
 15 16  2  0
 16 17  1  0
 17 18  2  0
  2 19  1  0
 19 20  2  0
 20 21  1  0
 21 22  2  0
 22 23  1  0
 23 24  2  0
 24 25  1  0
 25 26  2  0
 26 27  1  0
 27 28  2  0
 12  7  1  0
 18 13  1  0
 28 19  1  0
 27 22  1  0
  3 29  1  0
  4 30  1  0
  4 31  1  0
  8 32  1  0
  8 33  1  0
  9 34  1  0
  9 35  1  0
 10 36  1  0
 10 37  1  0
 11 38  1  0
 11 39  1  0
 12 40  1  1
 14 41  1  0
 15 42  1  0
 16 43  1  0
 18 44  1  0
 20 45  1  0
 21 46  1  0
 23 47  1  0
 24 48  1  0
 25 49  1  0
 26 50  1  0
M  END
>  <smiles>  (87) 
O=C(NCC(=O)N1CCCCC1c1cccnc1)c1ccc2ccccc2n1

>  <score_type>  (87) 
oracle

>  <origin>  (87) 
autodockgpu

>  <m_score__min__energy>  (87) 
-9.1799999999999997

>  <m_primary>  (87) 
energy

>  <rmsd>  (87) 
1.9100021888931953

>  <m_score__min__rmsd>  (87) 
1.9100021888931953

>  <meeko>  (87) 
{"free_energy": -8.75, "intermolecular_energy": -10.24, "internal_energy": -1.84, "cluster_size": 32, "cluster_id": 2, "rank_in_cluster": 2}

>  <energy>  (87) 
-8.6

>  <cluster_rmsd>  (87) 
0.45

>  <cluster>  (87) 
2

$$$$

     RDKit          3D

 50 53  0  0  0  0  0  0  0  0999 V2000
  140.5850   71.6630  221.0800 O   0  0  0  0  0  0  0  0  0  0  0  0
  140.1550   72.2080  222.1310 C   0  0  0  0  0  0  0  0  0  0  0  0
  139.7230   73.5590  222.1830 N   0  0  0  0  0  0  0  0  0  0  0  0
  139.7470   74.4210  221.0180 C   0  0  0  0  0  0  0  0  0  0  0  0
  140.0680   75.7720  221.4810 C   0  0  0  0  0  0  0  0  0  0  0  0
  140.0540   76.0060  222.7300 O   0  0  0  0  0  0  0  0  0  0  0  0
  140.4000   76.8580  220.5870 N   0  0  0  0  0  0  0  0  0  0  0  0
  139.4210   77.1470  219.5560 C   0  0  0  0  0  0  0  0  0  0  0  0
  139.9570   77.8960  218.3970 C   0  0  0  0  0  0  0  0  0  0  0  0
  141.4380   77.8600  218.2220 C   0  0  0  0  0  0  0  0  0  0  0  0
  142.2540   77.8800  219.4410 C   0  0  0  0  0  0  0  0  0  0  0  0
  141.6360   77.5850  220.7450 C   0  0  1  0  0  0  0  0  0  0  0  0
  141.5010   78.7580  221.6470 C   0  0  0  0  0  0  0  0  0  0  0  0
  142.5670   79.2610  222.3860 C   0  0  0  0  0  0  0  0  0  0  0  0
  142.4380   80.3510  223.2230 C   0  0  0  0  0  0  0  0  0  0  0  0
  141.2170   80.9570  223.3290 C   0  0  0  0  0  0  0  0  0  0  0  0
  140.1760   80.5000  222.6330 N   0  0  0  0  0  0  0  0  0  0  0  0
  140.2960   79.4350  221.8140 C   0  0  0  0  0  0  0  0  0  0  0  0
  140.0960   71.4050  223.3640 C   0  0  0  0  0  0  0  0  0  0  0  0
  139.5220   70.1540  223.3710 C   0  0  0  0  0  0  0  0  0  0  0  0
  139.4360   69.3560  224.4860 C   0  0  0  0  0  0  0  0  0  0  0  0
  139.9590   69.8440  225.6710 C   0  0  0  0  0  0  0  0  0  0  0  0
  139.8710   69.0480  226.7770 C   0  0  0  0  0  0  0  0  0  0  0  0
  140.3920   69.5240  227.9760 C   0  0  0  0  0  0  0  0  0  0  0  0
  140.9680   70.7690  227.9960 C   0  0  0  0  0  0  0  0  0  0  0  0
  141.0480   71.5630  226.8640 C   0  0  0  0  0  0  0  0  0  0  0  0
  140.5300   71.0960  225.6560 C   0  0  0  0  0  0  0  0  0  0  0  0
  140.5970   71.8560  224.5330 N   0  0  0  0  0  0  0  0  0  0  0  0
  139.3770   73.9290  223.1100 H   0  0  0  0  0  0  0  0  0  0  0  0
  140.5134   74.0742  220.3092 H   0  0  0  0  0  0  0  0  0  0  0  0
  138.7747   74.4069  220.5038 H   0  0  0  0  0  0  0  0  0  0  0  0
  139.0141   76.1926  219.1906 H   0  0  0  0  0  0  0  0  0  0  0  0
  138.6574   77.7892  220.0191 H   0  0  0  0  0  0  0  0  0  0  0  0
  139.5006   77.4793  217.4870 H   0  0  0  0  0  0  0  0  0  0  0  0
  139.7066   78.9506  218.5846 H   0  0  0  0  0  0  0  0  0  0  0  0
  141.6848   76.9395  217.6727 H   0  0  0  0  0  0  0  0  0  0  0  0
  141.6861   78.7943  217.6972 H   0  0  0  0  0  0  0  0  0  0  0  0
  143.0585   77.1438  219.2969 H   0  0  0  0  0  0  0  0  0  0  0  0
  142.5464   78.9365  219.5326 H   0  0  0  0  0  0  0  0  0  0  0  0
  142.3482   76.9298  221.2680 H   0  0  0  0  0  0  0  0  0  0  0  0
  143.5487   78.7722  222.3001 H   0  0  0  0  0  0  0  0  0  0  0  0
  143.3009   80.7248  223.7937 H   0  0  0  0  0  0  0  0  0  0  0  0
  141.0930   81.8260  223.9919 H   0  0  0  0  0  0  0  0  0  0  0  0
  139.4114   79.0895  221.2590 H   0  0  0  0  0  0  0  0  0  0  0  0
  139.1073   69.7702  222.4273 H   0  0  0  0  0  0  0  0  0  0  0  0
  138.9670   68.3621  224.4386 H   0  0  0  0  0  0  0  0  0  0  0  0
  139.4001   68.0555  226.7214 H   0  0  0  0  0  0  0  0  0  0  0  0
  140.3430   68.9140  228.8901 H   0  0  0  0  0  0  0  0  0  0  0  0
  141.3799   71.1492  228.9424 H   0  0  0  0  0  0  0  0  0  0  0  0
  141.5174   72.5564  226.9173 H   0  0  0  0  0  0  0  0  0  0  0  0
  1  2  2  0
  2  3  1  0
  3  4  1  0
  4  5  1  0
  5  6  2  0
  5  7  1  0
  7  8  1  0
  8  9  1  0
  9 10  1  0
 10 11  1  0
 11 12  1  0
 12 13  1  0
 13 14  2  0
 14 15  1  0
 15 16  2  0
 16 17  1  0
 17 18  2  0
  2 19  1  0
 19 20  2  0
 20 21  1  0
 21 22  2  0
 22 23  1  0
 23 24  2  0
 24 25  1  0
 25 26  2  0
 26 27  1  0
 27 28  2  0
 12  7  1  0
 18 13  1  0
 28 19  1  0
 27 22  1  0
  3 29  1  0
  4 30  1  0
  4 31  1  0
  8 32  1  0
  8 33  1  0
  9 34  1  0
  9 35  1  0
 10 36  1  0
 10 37  1  0
 11 38  1  0
 11 39  1  0
 12 40  1  1
 14 41  1  0
 15 42  1  0
 16 43  1  0
 18 44  1  0
 20 45  1  0
 21 46  1  0
 23 47  1  0
 24 48  1  0
 25 49  1  0
 26 50  1  0
M  END
>  <smiles>  (88) 
O=C(NCC(=O)N1CCCCC1c1cccnc1)c1ccc2ccccc2n1

>  <score_type>  (88) 
oracle

>  <origin>  (88) 
autodockgpu

>  <m_score__min__energy>  (88) 
-9.1799999999999997

>  <m_primary>  (88) 
energy

>  <rmsd>  (88) 
1.6461975379117901

>  <m_score__min__rmsd>  (88) 
1.6461975379117901

>  <meeko>  (88) 
{"free_energy": -8.27, "intermolecular_energy": -9.76, "internal_energy": -1.85, "cluster_size": 32, "cluster_id": 2, "rank_in_cluster": 32}

>  <energy>  (88) 
-8.6

>  <cluster_rmsd>  (88) 
0.5

>  <cluster>  (88) 
2

$$$$

     RDKit          3D

 50 53  0  0  0  0  0  0  0  0999 V2000
  139.6820   74.4180  219.7820 O   0  0  0  0  0  0  0  0  0  0  0  0
  139.8600   74.8180  220.9630 C   0  0  0  0  0  0  0  0  0  0  0  0
  139.5050   74.0520  222.1040 N   0  0  0  0  0  0  0  0  0  0  0  0
  138.9030   72.7370  221.9920 C   0  0  0  0  0  0  0  0  0  0  0  0
  139.4720   71.9050  223.0520 C   0  0  0  0  0  0  0  0  0  0  0  0
  140.4010   72.3880  223.7710 O   0  0  0  0  0  0  0  0  0  0  0  0
  139.0290   70.5560  223.3250 N   0  0  0  0  0  0  0  0  0  0  0  0
  139.2960   69.5820  222.2830 C   0  0  0  0  0  0  0  0  0  0  0  0
  138.4490   68.3700  222.3470 C   0  0  0  0  0  0  0  0  0  0  0  0
  137.1900   68.4920  223.1390 C   0  0  0  0  0  0  0  0  0  0  0  0
  137.2440   69.3120  224.3540 C   0  0  0  0  0  0  0  0  0  0  0  0
  138.3680   70.2400  224.5680 C   0  0  1  0  0  0  0  0  0  0  0  0
  139.3170   69.8300  225.6350 C   0  0  0  0  0  0  0  0  0  0  0  0
  140.1230   70.7410  226.3090 C   0  0  0  0  0  0  0  0  0  0  0  0
  141.0050   70.3570  227.3000 C   0  0  0  0  0  0  0  0  0  0  0  0
  141.0870   69.0320  227.6290 C   0  0  0  0  0  0  0  0  0  0  0  0
  140.3270   68.1350  227.0010 N   0  0  0  0  0  0  0  0  0  0  0  0
  139.4640   68.5040  226.0320 C   0  0  0  0  0  0  0  0  0  0  0  0
  140.4660   76.1440  221.1700 C   0  0  0  0  0  0  0  0  0  0  0  0
  140.8500   76.9250  220.1040 C   0  0  0  0  0  0  0  0  0  0  0  0
  141.4200   78.1690  220.2310 C   0  0  0  0  0  0  0  0  0  0  0  0
  141.6170   78.6620  221.5090 C   0  0  0  0  0  0  0  0  0  0  0  0
  142.1830   79.8980  221.6300 C   0  0  0  0  0  0  0  0  0  0  0  0
  142.3880   80.4080  222.9080 C   0  0  0  0  0  0  0  0  0  0  0  0
  142.0140   79.6490  223.9880 C   0  0  0  0  0  0  0  0  0  0  0  0
  141.4410   78.3960  223.8460 C   0  0  0  0  0  0  0  0  0  0  0  0
  141.2310   77.8740  222.5700 C   0  0  0  0  0  0  0  0  0  0  0  0
  140.6690   76.6490  222.4050 N   0  0  0  0  0  0  0  0  0  0  0  0
  139.6930   74.4700  223.0550 H   0  0  0  0  0  0  0  0  0  0  0  0
  137.8125   72.8107  222.1161 H   0  0  0  0  0  0  0  0  0  0  0  0
  139.1055   72.2995  221.0033 H   0  0  0  0  0  0  0  0  0  0  0  0
  139.1308   70.0661  221.3092 H   0  0  0  0  0  0  0  0  0  0  0  0
  140.3341   69.2472  222.4250 H   0  0  0  0  0  0  0  0  0  0  0  0
  138.1737   68.0972  221.3175 H   0  0  0  0  0  0  0  0  0  0  0  0
  139.0541   67.6129  222.8672 H   0  0  0  0  0  0  0  0  0  0  0  0
  136.4240   68.9260  222.4796 H   0  0  0  0  0  0  0  0  0  0  0  0
  136.9748   67.4726  223.4919 H   0  0  0  0  0  0  0  0  0  0  0  0
  136.3255   69.9171  224.3696 H   0  0  0  0  0  0  0  0  0  0  0  0
  137.3743   68.5689  225.1545 H   0  0  0  0  0  0  0  0  0  0  0  0
  137.9181   71.1654  224.9567 H   0  0  0  0  0  0  0  0  0  0  0  0
  140.0556   71.8063  226.0432 H   0  0  0  0  0  0  0  0  0  0  0  0
  141.6293   71.1022  227.8146 H   0  0  0  0  0  0  0  0  0  0  0  0
  141.7833   68.7051  228.4154 H   0  0  0  0  0  0  0  0  0  0  0  0
  138.8561   67.7310  225.5391 H   0  0  0  0  0  0  0  0  0  0  0  0
  140.6912   76.5300  219.0897 H   0  0  0  0  0  0  0  0  0  0  0  0
  141.7102   78.7538  219.3457 H   0  0  0  0  0  0  0  0  0  0  0  0
  142.4699   80.4764  220.7394 H   0  0  0  0  0  0  0  0  0  0  0  0
  142.8410   81.4003  223.0498 H   0  0  0  0  0  0  0  0  0  0  0  0
  142.1745   80.0488  225.0001 H   0  0  0  0  0  0  0  0  0  0  0  0
  141.1531   77.8157  224.7350 H   0  0  0  0  0  0  0  0  0  0  0  0
  1  2  2  0
  2  3  1  0
  3  4  1  0
  4  5  1  0
  5  6  2  0
  5  7  1  0
  7  8  1  0
  8  9  1  0
  9 10  1  0
 10 11  1  0
 11 12  1  0
 12 13  1  0
 13 14  2  0
 14 15  1  0
 15 16  2  0
 16 17  1  0
 17 18  2  0
  2 19  1  0
 19 20  2  0
 20 21  1  0
 21 22  2  0
 22 23  1  0
 23 24  2  0
 24 25  1  0
 25 26  2  0
 26 27  1  0
 27 28  2  0
 12  7  1  0
 18 13  1  0
 28 19  1  0
 27 22  1  0
  3 29  1  0
  4 30  1  0
  4 31  1  0
  8 32  1  0
  8 33  1  0
  9 34  1  0
  9 35  1  0
 10 36  1  0
 10 37  1  0
 11 38  1  0
 11 39  1  0
 12 40  1  1
 14 41  1  0
 15 42  1  0
 16 43  1  0
 18 44  1  0
 20 45  1  0
 21 46  1  0
 23 47  1  0
 24 48  1  0
 25 49  1  0
 26 50  1  0
M  END
>  <smiles>  (89) 
O=C(NCC(=O)N1CCCCC1c1cccnc1)c1ccc2ccccc2n1

>  <score_type>  (89) 
oracle

>  <origin>  (89) 
autodockgpu

>  <m_score__min__energy>  (89) 
-9.1799999999999997

>  <m_primary>  (89) 
energy

>  <rmsd>  (89) 
8.317085143913893

>  <m_score__min__rmsd>  (89) 
8.317085143913893

>  <meeko>  (89) 
{"free_energy": -7.71, "intermolecular_energy": -9.21, "internal_energy": -1.98, "cluster_size": 3, "cluster_id": 3, "rank_in_cluster": 3}

>  <energy>  (89) 
-8.59

>  <cluster_rmsd>  (89) 
0.22

>  <cluster>  (89) 
2

$$$$

     RDKit          3D

 50 53  0  0  0  0  0  0  0  0999 V2000
  140.6780   71.1640  221.6520 O   0  0  0  0  0  0  0  0  0  0  0  0
  140.2960   71.8350  222.6480 C   0  0  0  0  0  0  0  0  0  0  0  0
  139.8350   73.1740  222.5510 N   0  0  0  0  0  0  0  0  0  0  0  0
  139.7730   73.8770  221.2850 C   0  0  0  0  0  0  0  0  0  0  0  0
  139.8980   75.3060  221.5720 C   0  0  0  0  0  0  0  0  0  0  0  0
  139.5510   75.7280  222.7190 O   0  0  0  0  0  0  0  0  0  0  0  0
  140.3980   76.2670  220.6140 N   0  0  0  0  0  0  0  0  0  0  0  0
  139.5450   76.5130  219.4660 C   0  0  0  0  0  0  0  0  0  0  0  0
  140.2450   77.0970  218.2990 C   0  0  0  0  0  0  0  0  0  0  0  0
  141.7290   76.9390  218.2790 C   0  0  0  0  0  0  0  0  0  0  0  0
  142.4260   77.0290  219.5660 C   0  0  0  0  0  0  0  0  0  0  0  0
  141.6680   76.9170  220.8240 C   0  0  1  0  0  0  0  0  0  0  0  0
  141.5440   78.1850  221.5890 C   0  0  0  0  0  0  0  0  0  0  0  0
  141.7780   79.4310  221.0150 C   0  0  0  0  0  0  0  0  0  0  0  0
  141.6620   80.6070  221.7280 C   0  0  0  0  0  0  0  0  0  0  0  0
  141.3040   80.5440  223.0460 C   0  0  0  0  0  0  0  0  0  0  0  0
  141.0710   79.3660  223.6250 N   0  0  0  0  0  0  0  0  0  0  0  0
  141.1840   78.2130  222.9330 C   0  0  0  0  0  0  0  0  0  0  0  0
  140.3260   71.1990  223.9760 C   0  0  0  0  0  0  0  0  0  0  0  0
  140.7470   71.8930  225.0870 C   0  0  0  0  0  0  0  0  0  0  0  0
  140.7980   71.3570  226.3520 C   0  0  0  0  0  0  0  0  0  0  0  0
  140.4020   70.0410  226.5120 C   0  0  0  0  0  0  0  0  0  0  0  0
  140.4550   69.5120  227.7700 C   0  0  0  0  0  0  0  0  0  0  0  0
  140.0610   68.1900  227.9470 C   0  0  0  0  0  0  0  0  0  0  0  0
  139.6380   67.4760  226.8550 C   0  0  0  0  0  0  0  0  0  0  0  0
  139.5910   68.0280  225.5860 C   0  0  0  0  0  0  0  0  0  0  0  0
  139.9840   69.3530  225.3950 C   0  0  0  0  0  0  0  0  0  0  0  0
  139.9470   69.9170  224.1610 N   0  0  0  0  0  0  0  0  0  0  0  0
  139.5340   73.6560  223.4410 H   0  0  0  0  0  0  0  0  0  0  0  0
  140.5968   73.5509  220.6330 H   0  0  0  0  0  0  0  0  0  0  0  0
  138.8246   73.6658  220.7693 H   0  0  0  0  0  0  0  0  0  0  0  0
  139.0996   75.5559  219.1567 H   0  0  0  0  0  0  0  0  0  0  0  0
  138.7946   77.2516  219.7844 H   0  0  0  0  0  0  0  0  0  0  0  0
  139.8437   76.6200  217.3927 H   0  0  0  0  0  0  0  0  0  0  0  0
  140.0632   78.1804  218.3561 H   0  0  0  0  0  0  0  0  0  0  0  0
  141.9517   75.9511  217.8495 H   0  0  0  0  0  0  0  0  0  0  0  0
  142.0991   77.7936  217.6936 H   0  0  0  0  0  0  0  0  0  0  0  0
  143.1785   76.2267  219.5763 H   0  0  0  0  0  0  0  0  0  0  0  0
  142.7920   78.0662  219.5831 H   0  0  0  0  0  0  0  0  0  0  0  0
  142.2738   76.2721  221.4775 H   0  0  0  0  0  0  0  0  0  0  0  0
  142.0659   79.4804  219.9545 H   0  0  0  0  0  0  0  0  0  0  0  0
  141.8539   81.5765  221.2451 H   0  0  0  0  0  0  0  0  0  0  0  0
  141.2077   81.4701  223.6317 H   0  0  0  0  0  0  0  0  0  0  0  0
  140.9847   77.2623  223.4492 H   0  0  0  0  0  0  0  0  0  0  0  0
  141.0614   72.9388  224.9552 H   0  0  0  0  0  0  0  0  0  0  0  0
  141.1423   71.9548  227.2088 H   0  0  0  0  0  0  0  0  0  0  0  0
  140.8006   70.1163  228.6217 H   0  0  0  0  0  0  0  0  0  0  0  0
  140.0881   67.7258  228.9439 H   0  0  0  0  0  0  0  0  0  0  0  0
  139.3257   66.4302  226.9919 H   0  0  0  0  0  0  0  0  0  0  0  0
  139.2457   67.4252  224.7331 H   0  0  0  0  0  0  0  0  0  0  0  0
  1  2  2  0
  2  3  1  0
  3  4  1  0
  4  5  1  0
  5  6  2  0
  5  7  1  0
  7  8  1  0
  8  9  1  0
  9 10  1  0
 10 11  1  0
 11 12  1  0
 12 13  1  0
 13 14  2  0
 14 15  1  0
 15 16  2  0
 16 17  1  0
 17 18  2  0
  2 19  1  0
 19 20  2  0
 20 21  1  0
 21 22  2  0
 22 23  1  0
 23 24  2  0
 24 25  1  0
 25 26  2  0
 26 27  1  0
 27 28  2  0
 12  7  1  0
 18 13  1  0
 28 19  1  0
 27 22  1  0
  3 29  1  0
  4 30  1  0
  4 31  1  0
  8 32  1  0
  8 33  1  0
  9 34  1  0
  9 35  1  0
 10 36  1  0
 10 37  1  0
 11 38  1  0
 11 39  1  0
 12 40  1  1
 14 41  1  0
 15 42  1  0
 16 43  1  0
 18 44  1  0
 20 45  1  0
 21 46  1  0
 23 47  1  0
 24 48  1  0
 25 49  1  0
 26 50  1  0
M  END
>  <smiles>  (90) 
O=C(NCC(=O)N1CCCCC1c1cccnc1)c1ccc2ccccc2n1

>  <score_type>  (90) 
oracle

>  <origin>  (90) 
autodockgpu

>  <m_score__min__energy>  (90) 
-9.1799999999999997

>  <m_primary>  (90) 
energy

>  <rmsd>  (90) 
2.678422339887931

>  <m_score__min__rmsd>  (90) 
2.678422339887931

>  <meeko>  (90) 
{"free_energy": -8.3, "intermolecular_energy": -9.79, "internal_energy": -1.76, "cluster_size": 32, "cluster_id": 2, "rank_in_cluster": 31}

>  <energy>  (90) 
-8.58

>  <cluster_rmsd>  (90) 
0.47

>  <cluster>  (90) 
2

$$$$

     RDKit          3D

 50 53  0  0  0  0  0  0  0  0999 V2000
  139.5160   70.8640  221.2050 O   0  0  0  0  0  0  0  0  0  0  0  0
  139.9180   71.5650  222.1710 C   0  0  0  0  0  0  0  0  0  0  0  0
  140.3500   72.9090  222.0270 N   0  0  0  0  0  0  0  0  0  0  0  0
  140.3630   73.5810  220.7430 C   0  0  0  0  0  0  0  0  0  0  0  0
  141.0060   74.8810  220.9360 C   0  0  0  0  0  0  0  0  0  0  0  0
  140.7640   75.5270  222.0030 O   0  0  0  0  0  0  0  0  0  0  0  0
  141.9060   75.4710  219.9710 N   0  0  0  0  0  0  0  0  0  0  0  0
  142.1040   76.9040  220.0890 C   0  0  0  0  0  0  0  0  0  0  0  0
  142.6140   77.5540  218.8590 C   0  0  0  0  0  0  0  0  0  0  0  0
  142.4320   76.7890  217.5920 C   0  0  0  0  0  0  0  0  0  0  0  0
  142.5800   75.3310  217.6650 C   0  0  0  0  0  0  0  0  0  0  0  0
  142.5480   74.6530  218.9720 C   0  0  1  0  0  0  0  0  0  0  0  0
  143.8570   74.1140  219.4240 C   0  0  0  0  0  0  0  0  0  0  0  0
  144.2800   74.1900  220.7470 C   0  0  0  0  0  0  0  0  0  0  0  0
  145.4960   73.6890  221.1640 C   0  0  0  0  0  0  0  0  0  0  0  0
  146.3140   73.0970  220.2430 C   0  0  0  0  0  0  0  0  0  0  0  0
  145.9370   73.0090  218.9670 N   0  0  0  0  0  0  0  0  0  0  0  0
  144.7490   73.4970  218.5530 C   0  0  0  0  0  0  0  0  0  0  0  0
  139.9390   70.9620  223.5150 C   0  0  0  0  0  0  0  0  0  0  0  0
  139.4380   69.6990  223.7350 C   0  0  0  0  0  0  0  0  0  0  0  0
  139.4300   69.0810  224.9620 C   0  0  0  0  0  0  0  0  0  0  0  0
  139.9570   69.7740  226.0380 C   0  0  0  0  0  0  0  0  0  0  0  0
  139.9460   69.1570  227.2550 C   0  0  0  0  0  0  0  0  0  0  0  0
  140.4720   69.8400  228.3460 C   0  0  0  0  0  0  0  0  0  0  0  0
  140.9770   71.1000  228.1540 C   0  0  0  0  0  0  0  0  0  0  0  0
  140.9800   71.7120  226.9110 C   0  0  0  0  0  0  0  0  0  0  0  0
  140.4550   71.0370  225.8090 C   0  0  0  0  0  0  0  0  0  0  0  0
  140.4470   71.6150  224.5810 N   0  0  0  0  0  0  0  0  0  0  0  0
  140.6700   73.4190  222.8960 H   0  0  0  0  0  0  0  0  0  0  0  0
  140.9306   72.9855  220.0127 H   0  0  0  0  0  0  0  0  0  0  0  0
  139.3395   73.7070  220.3602 H   0  0  0  0  0  0  0  0  0  0  0  0
  141.1390   77.3647  220.3470 H   0  0  0  0  0  0  0  0  0  0  0  0
  142.8704   77.0526  220.8639 H   0  0  0  0  0  0  0  0  0  0  0  0
  142.0954   78.5177  218.7478 H   0  0  0  0  0  0  0  0  0  0  0  0
  143.7015   77.6417  218.9989 H   0  0  0  0  0  0  0  0  0  0  0  0
  141.4190   77.0011  217.2193 H   0  0  0  0  0  0  0  0  0  0  0  0
  143.2485   77.1257  216.9362 H   0  0  0  0  0  0  0  0  0  0  0  0
  141.7674   74.8986  217.0628 H   0  0  0  0  0  0  0  0  0  0  0  0
  143.6102   75.1633  217.3178 H   0  0  0  0  0  0  0  0  0  0  0  0
  141.9303   73.7549  218.8241 H   0  0  0  0  0  0  0  0  0  0  0  0
  143.6211   74.6668  221.4876 H   0  0  0  0  0  0  0  0  0  0  0  0
  145.8014   73.7646  222.2180 H   0  0  0  0  0  0  0  0  0  0  0  0
  147.2875   72.6914  220.5557 H   0  0  0  0  0  0  0  0  0  0  0  0
  144.4768   73.4038  217.4913 H   0  0  0  0  0  0  0  0  0  0  0  0
  139.0192   69.1520  222.8775 H   0  0  0  0  0  0  0  0  0  0  0  0
  139.0182   68.0685  225.0853 H   0  0  0  0  0  0  0  0  0  0  0  0
  139.5314   68.1446  227.3701 H   0  0  0  0  0  0  0  0  0  0  0  0
  140.4827   69.3781  229.3442 H   0  0  0  0  0  0  0  0  0  0  0  0
  141.3936   71.6430  229.0152 H   0  0  0  0  0  0  0  0  0  0  0  0
  141.3940   72.7244  226.7938 H   0  0  0  0  0  0  0  0  0  0  0  0
  1  2  2  0
  2  3  1  0
  3  4  1  0
  4  5  1  0
  5  6  2  0
  5  7  1  0
  7  8  1  0
  8  9  1  0
  9 10  1  0
 10 11  1  0
 11 12  1  0
 12 13  1  0
 13 14  2  0
 14 15  1  0
 15 16  2  0
 16 17  1  0
 17 18  2  0
  2 19  1  0
 19 20  2  0
 20 21  1  0
 21 22  2  0
 22 23  1  0
 23 24  2  0
 24 25  1  0
 25 26  2  0
 26 27  1  0
 27 28  2  0
 12  7  1  0
 18 13  1  0
 28 19  1  0
 27 22  1  0
  3 29  1  0
  4 30  1  0
  4 31  1  0
  8 32  1  0
  8 33  1  0
  9 34  1  0
  9 35  1  0
 10 36  1  0
 10 37  1  0
 11 38  1  0
 11 39  1  0
 12 40  1  6
 14 41  1  0
 15 42  1  0
 16 43  1  0
 18 44  1  0
 20 45  1  0
 21 46  1  0
 23 47  1  0
 24 48  1  0
 25 49  1  0
 26 50  1  0
M  END
>  <smiles>  (91) 
O=C(NCC(=O)N1CCCCC1c1cccnc1)c1ccc2ccccc2n1

>  <score_type>  (91) 
oracle

>  <origin>  (91) 
autodockgpu

>  <m_score__min__energy>  (91) 
-9.1799999999999997

>  <m_primary>  (91) 
energy

>  <rmsd>  (91) 
2.3309489847994316

>  <m_score__min__rmsd>  (91) 
2.3309489847994316

>  <meeko>  (91) 
{"free_energy": -8.69, "intermolecular_energy": -10.18, "internal_energy": -2.08, "cluster_size": 15, "cluster_id": 1, "rank_in_cluster": 13}

>  <energy>  (91) 
-8.57

>  <cluster_rmsd>  (91) 
0.69

>  <cluster>  (91) 
2

$$$$

     RDKit          3D

 50 53  0  0  0  0  0  0  0  0999 V2000
  139.2180   70.9060  221.4070 O   0  0  0  0  0  0  0  0  0  0  0  0
  139.4950   71.5850  222.4310 C   0  0  0  0  0  0  0  0  0  0  0  0
  139.6440   72.9960  222.4080 N   0  0  0  0  0  0  0  0  0  0  0  0
  139.4890   73.7680  221.1900 C   0  0  0  0  0  0  0  0  0  0  0  0
  140.7250   73.6230  220.4210 C   0  0  0  0  0  0  0  0  0  0  0  0
  141.0420   72.4710  219.9910 O   0  0  0  0  0  0  0  0  0  0  0  0
  141.6090   74.7290  220.1260 N   0  0  0  0  0  0  0  0  0  0  0  0
  141.4650   75.8960  220.9760 C   0  0  0  0  0  0  0  0  0  0  0  0
  142.0000   77.1470  220.3930 C   0  0  0  0  0  0  0  0  0  0  0  0
  142.1870   77.1510  218.9130 C   0  0  0  0  0  0  0  0  0  0  0  0
  142.6410   75.9010  218.2940 C   0  0  0  0  0  0  0  0  0  0  0  0
  142.5600   74.6370  219.0450 C   0  0  1  0  0  0  0  0  0  0  0  0
  143.8710   74.0880  219.4800 C   0  0  0  0  0  0  0  0  0  0  0  0
  144.3080   74.1510  220.7990 C   0  0  0  0  0  0  0  0  0  0  0  0
  145.5270   73.6420  221.2000 C   0  0  0  0  0  0  0  0  0  0  0  0
  146.3320   73.0520  220.2650 C   0  0  0  0  0  0  0  0  0  0  0  0
  145.9410   72.9750  218.9930 N   0  0  0  0  0  0  0  0  0  0  0  0
  144.7510   73.4720  218.5950 C   0  0  0  0  0  0  0  0  0  0  0  0
  139.6710   70.8820  223.7130 C   0  0  0  0  0  0  0  0  0  0  0  0
  139.3130   69.5620  223.8540 C   0  0  0  0  0  0  0  0  0  0  0  0
  139.4520   68.8500  225.0220 C   0  0  0  0  0  0  0  0  0  0  0  0
  139.9840   69.5060  226.1180 C   0  0  0  0  0  0  0  0  0  0  0  0
  140.1200   68.7960  227.2760 C   0  0  0  0  0  0  0  0  0  0  0  0
  140.6530   69.4410  228.3870 C   0  0  0  0  0  0  0  0  0  0  0  0
  141.0170   70.7590  228.2730 C   0  0  0  0  0  0  0  0  0  0  0  0
  140.8720   71.4640  227.0900 C   0  0  0  0  0  0  0  0  0  0  0  0
  140.3380   70.8280  225.9690 C   0  0  0  0  0  0  0  0  0  0  0  0
  140.1860   71.4980  224.7970 N   0  0  0  0  0  0  0  0  0  0  0  0
  139.8760   73.4810  223.3170 H   0  0  0  0  0  0  0  0  0  0  0  0
  138.6371   73.3860  220.6084 H   0  0  0  0  0  0  0  0  0  0  0  0
  139.2973   74.8260  221.4220 H   0  0  0  0  0  0  0  0  0  0  0  0
  140.3942   76.0424  221.1809 H   0  0  0  0  0  0  0  0  0  0  0  0
  142.0522   75.6969  221.8846 H   0  0  0  0  0  0  0  0  0  0  0  0
  141.3047   77.9608  220.6466 H   0  0  0  0  0  0  0  0  0  0  0  0
  143.0069   77.2661  220.8195 H   0  0  0  0  0  0  0  0  0  0  0  0
  141.2211   77.4147  218.4575 H   0  0  0  0  0  0  0  0  0  0  0  0
  142.9988   77.8705  218.7304 H   0  0  0  0  0  0  0  0  0  0  0  0
  142.0464   75.7654  217.3786 H   0  0  0  0  0  0  0  0  0  0  0  0
  143.7235   76.0559  218.1747 H   0  0  0  0  0  0  0  0  0  0  0  0
  142.1854   73.8917  218.3279 H   0  0  0  0  0  0  0  0  0  0  0  0
  143.6584   74.6238  221.5503 H   0  0  0  0  0  0  0  0  0  0  0  0
  145.8446   73.7096  222.2510 H   0  0  0  0  0  0  0  0  0  0  0  0
  147.3067   72.6391  220.5640 H   0  0  0  0  0  0  0  0  0  0  0  0
  144.4671   73.3874  217.5356 H   0  0  0  0  0  0  0  0  0  0  0  0
  138.8901   69.0447  222.9802 H   0  0  0  0  0  0  0  0  0  0  0  0
  139.1503   67.7940  225.0831 H   0  0  0  0  0  0  0  0  0  0  0  0
  139.8157   67.7403  227.3291 H   0  0  0  0  0  0  0  0  0  0  0  0
  140.7803   68.9047  229.3389 H   0  0  0  0  0  0  0  0  0  0  0  0
  141.4378   71.2725  229.1501 H   0  0  0  0  0  0  0  0  0  0  0  0
  141.1762   72.5196  227.0345 H   0  0  0  0  0  0  0  0  0  0  0  0
  1  2  2  0
  2  3  1  0
  3  4  1  0
  4  5  1  0
  5  6  2  0
  5  7  1  0
  7  8  1  0
  8  9  1  0
  9 10  1  0
 10 11  1  0
 11 12  1  0
 12 13  1  0
 13 14  2  0
 14 15  1  0
 15 16  2  0
 16 17  1  0
 17 18  2  0
  2 19  1  0
 19 20  2  0
 20 21  1  0
 21 22  2  0
 22 23  1  0
 23 24  2  0
 24 25  1  0
 25 26  2  0
 26 27  1  0
 27 28  2  0
 12  7  1  0
 18 13  1  0
 28 19  1  0
 27 22  1  0
  3 29  1  0
  4 30  1  0
  4 31  1  0
  8 32  1  0
  8 33  1  0
  9 34  1  0
  9 35  1  0
 10 36  1  0
 10 37  1  0
 11 38  1  0
 11 39  1  0
 12 40  1  6
 14 41  1  0
 15 42  1  0
 16 43  1  0
 18 44  1  0
 20 45  1  0
 21 46  1  0
 23 47  1  0
 24 48  1  0
 25 49  1  0
 26 50  1  0
M  END
>  <smiles>  (92) 
O=C(NCC(=O)N1CCCCC1c1cccnc1)c1ccc2ccccc2n1

>  <score_type>  (92) 
oracle

>  <origin>  (92) 
autodockgpu

>  <m_score__min__energy>  (92) 
-9.1799999999999997

>  <m_primary>  (92) 
energy

>  <rmsd>  (92) 
2.2465324728530702

>  <m_score__min__rmsd>  (92) 
2.2465324728530702

>  <meeko>  (92) 
{"free_energy": -8.58, "intermolecular_energy": -10.07, "internal_energy": -1.57, "cluster_size": 15, "cluster_id": 1, "rank_in_cluster": 15}

>  <energy>  (92) 
-8.56

>  <cluster_rmsd>  (92) 
0.63

>  <cluster>  (92) 
2

$$$$

     RDKit          3D

 50 53  0  0  0  0  0  0  0  0999 V2000
  140.4390   71.4360  221.2810 O   0  0  0  0  0  0  0  0  0  0  0  0
  140.1380   72.0670  222.3290 C   0  0  0  0  0  0  0  0  0  0  0  0
  139.8160   73.4490  222.3380 N   0  0  0  0  0  0  0  0  0  0  0  0
  139.8110   74.2460  221.1270 C   0  0  0  0  0  0  0  0  0  0  0  0
  139.8530   75.6520  221.5300 C   0  0  0  0  0  0  0  0  0  0  0  0
  139.4860   75.9580  222.7070 O   0  0  0  0  0  0  0  0  0  0  0  0
  140.2910   76.7150  220.6540 N   0  0  0  0  0  0  0  0  0  0  0  0
  139.3260   77.1520  219.6620 C   0  0  0  0  0  0  0  0  0  0  0  0
  139.9180   77.8630  218.5060 C   0  0  0  0  0  0  0  0  0  0  0  0
  141.3780   77.6510  218.2840 C   0  0  0  0  0  0  0  0  0  0  0  0
  142.2240   77.5340  219.4760 C   0  0  0  0  0  0  0  0  0  0  0  0
  141.6120   77.2800  220.7910 C   0  0  1  0  0  0  0  0  0  0  0  0
  141.6480   78.4340  221.7270 C   0  0  0  0  0  0  0  0  0  0  0  0
  141.4530   78.2930  223.0970 C   0  0  0  0  0  0  0  0  0  0  0  0
  141.4870   79.3670  223.9630 C   0  0  0  0  0  0  0  0  0  0  0  0
  141.7220   80.6150  223.4540 C   0  0  0  0  0  0  0  0  0  0  0  0
  141.9140   80.7820  222.1450 N   0  0  0  0  0  0  0  0  0  0  0  0
  141.8810   79.7360  221.2940 C   0  0  0  0  0  0  0  0  0  0  0  0
  140.1190   71.3340  223.6070 C   0  0  0  0  0  0  0  0  0  0  0  0
  139.6130   70.0570  223.6860 C   0  0  0  0  0  0  0  0  0  0  0  0
  139.5670   69.3210  224.8460 C   0  0  0  0  0  0  0  0  0  0  0  0
  140.0600   69.9050  226.0000 C   0  0  0  0  0  0  0  0  0  0  0  0
  140.0110   69.1700  227.1500 C   0  0  0  0  0  0  0  0  0  0  0  0
  140.5030   69.7420  228.3190 C   0  0  0  0  0  0  0  0  0  0  0  0
  141.0120   71.0150  228.2670 C   0  0  0  0  0  0  0  0  0  0  0  0
  141.0520   71.7450  227.0910 C   0  0  0  0  0  0  0  0  0  0  0  0
  140.5630   71.1830  225.9130 C   0  0  0  0  0  0  0  0  0  0  0  0
  140.5920   71.8780  224.7470 N   0  0  0  0  0  0  0  0  0  0  0  0
  139.5760   73.8920  223.2660 H   0  0  0  0  0  0  0  0  0  0  0  0
  140.6915   74.0040  220.5137 H   0  0  0  0  0  0  0  0  0  0  0  0
  138.9111   74.0394  220.5291 H   0  0  0  0  0  0  0  0  0  0  0  0
  138.7941   76.2659  219.2855 H   0  0  0  0  0  0  0  0  0  0  0  0
  138.6608   77.8692  220.1651 H   0  0  0  0  0  0  0  0  0  0  0  0
  139.3886   77.5318  217.6004 H   0  0  0  0  0  0  0  0  0  0  0  0
  139.8049   78.9344  218.7280 H   0  0  0  0  0  0  0  0  0  0  0  0
  141.4939   76.7242  217.7029 H   0  0  0  0  0  0  0  0  0  0  0  0
  141.7246   78.5636  217.7770 H   0  0  0  0  0  0  0  0  0  0  0  0
  142.9258   76.7082  219.2875 H   0  0  0  0  0  0  0  0  0  0  0  0
  142.6482   78.5430  219.5851 H   0  0  0  0  0  0  0  0  0  0  0  0
  142.2533   76.5281  221.2741 H   0  0  0  0  0  0  0  0  0  0  0  0
  141.2649   77.2889  223.5050 H   0  0  0  0  0  0  0  0  0  0  0  0
  141.3282   79.2224  225.0418 H   0  0  0  0  0  0  0  0  0  0  0  0
  141.7527   81.4843  224.1274 H   0  0  0  0  0  0  0  0  0  0  0  0
  142.0437   79.9182  220.2215 H   0  0  0  0  0  0  0  0  0  0  0  0
  139.2220   69.5977  222.7661 H   0  0  0  0  0  0  0  0  0  0  0  0
  139.1524   68.3022  224.8568 H   0  0  0  0  0  0  0  0  0  0  0  0
  139.5935   68.1523  227.1520 H   0  0  0  0  0  0  0  0  0  0  0  0
  140.4843   69.1842  229.2669 H   0  0  0  0  0  0  0  0  0  0  0  0
  141.4010   71.4706  229.1896 H   0  0  0  0  0  0  0  0  0  0  0  0
  141.4677   72.7634  227.0865 H   0  0  0  0  0  0  0  0  0  0  0  0
  1  2  2  0
  2  3  1  0
  3  4  1  0
  4  5  1  0
  5  6  2  0
  5  7  1  0
  7  8  1  0
  8  9  1  0
  9 10  1  0
 10 11  1  0
 11 12  1  0
 12 13  1  0
 13 14  2  0
 14 15  1  0
 15 16  2  0
 16 17  1  0
 17 18  2  0
  2 19  1  0
 19 20  2  0
 20 21  1  0
 21 22  2  0
 22 23  1  0
 23 24  2  0
 24 25  1  0
 25 26  2  0
 26 27  1  0
 27 28  2  0
 12  7  1  0
 18 13  1  0
 28 19  1  0
 27 22  1  0
  3 29  1  0
  4 30  1  0
  4 31  1  0
  8 32  1  0
  8 33  1  0
  9 34  1  0
  9 35  1  0
 10 36  1  0
 10 37  1  0
 11 38  1  0
 11 39  1  0
 12 40  1  1
 14 41  1  0
 15 42  1  0
 16 43  1  0
 18 44  1  0
 20 45  1  0
 21 46  1  0
 23 47  1  0
 24 48  1  0
 25 49  1  0
 26 50  1  0
M  END
>  <smiles>  (93) 
O=C(NCC(=O)N1CCCCC1c1cccnc1)c1ccc2ccccc2n1

>  <score_type>  (93) 
oracle

>  <origin>  (93) 
autodockgpu

>  <m_score__min__energy>  (93) 
-9.1799999999999997

>  <m_primary>  (93) 
energy

>  <rmsd>  (93) 
1.6737399764588345

>  <m_score__min__rmsd>  (93) 
1.6737399764588345

>  <meeko>  (93) 
{"free_energy": -8.66, "intermolecular_energy": -10.15, "internal_energy": -1.96, "cluster_size": 32, "cluster_id": 2, "rank_in_cluster": 19}

>  <energy>  (93) 
-8.52

>  <cluster_rmsd>  (93) 
0.57

>  <cluster>  (93) 
2

$$$$

     RDKit          3D

 50 53  0  0  0  0  0  0  0  0999 V2000
  141.0710   71.6560  221.4060 O   0  0  0  0  0  0  0  0  0  0  0  0
  140.4960   72.2140  222.3790 C   0  0  0  0  0  0  0  0  0  0  0  0
  140.0350   73.5560  222.3420 N   0  0  0  0  0  0  0  0  0  0  0  0
  140.1970   74.3930  221.1690 C   0  0  0  0  0  0  0  0  0  0  0  0
  139.9440   75.7740  221.5810 C   0  0  0  0  0  0  0  0  0  0  0  0
  139.3730   75.9810  222.6970 O   0  0  0  0  0  0  0  0  0  0  0  0
  140.3110   76.9200  220.7800 N   0  0  0  0  0  0  0  0  0  0  0  0
  139.2680   77.4470  219.9180 C   0  0  0  0  0  0  0  0  0  0  0  0
  139.7630   78.2700  218.7920 C   0  0  0  0  0  0  0  0  0  0  0  0
  141.1990   78.0880  218.4300 C   0  0  0  0  0  0  0  0  0  0  0  0
  142.1410   77.8600  219.5300 C   0  0  0  0  0  0  0  0  0  0  0  0
  141.6400   77.4750  220.8610 C   0  0  1  0  0  0  0  0  0  0  0  0
  141.7570   78.5330  221.8990 C   0  0  0  0  0  0  0  0  0  0  0  0
  141.4680   78.3010  223.2390 C   0  0  0  0  0  0  0  0  0  0  0  0
  141.5770   79.2860  224.2000 C   0  0  0  0  0  0  0  0  0  0  0  0
  141.9860   80.5330  223.8190 C   0  0  0  0  0  0  0  0  0  0  0  0
  142.2730   80.7870  222.5420 N   0  0  0  0  0  0  0  0  0  0  0  0
  142.1660   79.8290  221.5980 C   0  0  0  0  0  0  0  0  0  0  0  0
  140.2900   71.4360  223.6130 C   0  0  0  0  0  0  0  0  0  0  0  0
  139.6640   70.2110  223.5840 C   0  0  0  0  0  0  0  0  0  0  0  0
  139.4420   69.4370  224.6990 C   0  0  0  0  0  0  0  0  0  0  0  0
  139.8760   69.9240  225.9190 C   0  0  0  0  0  0  0  0  0  0  0  0
  139.6540   69.1520  227.0230 C   0  0  0  0  0  0  0  0  0  0  0  0
  140.0840   69.6270  228.2580 C   0  0  0  0  0  0  0  0  0  0  0  0
  140.7110   70.8460  228.3130 C   0  0  0  0  0  0  0  0  0  0  0  0
  140.9280   71.6160  227.1820 C   0  0  0  0  0  0  0  0  0  0  0  0
  140.5000   71.1500  225.9390 C   0  0  0  0  0  0  0  0  0  0  0  0
  140.7030   71.8860  224.8150 N   0  0  0  0  0  0  0  0  0  0  0  0
  139.5640   73.9380  223.2060 H   0  0  0  0  0  0  0  0  0  0  0  0
  141.2207   74.2985  220.7778 H   0  0  0  0  0  0  0  0  0  0  0  0
  139.4989   74.0896  220.3749 H   0  0  0  0  0  0  0  0  0  0  0  0
  138.7041   76.5989  219.5024 H   0  0  0  0  0  0  0  0  0  0  0  0
  138.6495   78.1087  220.5422 H   0  0  0  0  0  0  0  0  0  0  0  0
  139.1590   78.0257  217.9057 H   0  0  0  0  0  0  0  0  0  0  0  0
  139.6715   79.3142  219.1255 H   0  0  0  0  0  0  0  0  0  0  0  0
  141.2633   77.2227  217.7539 H   0  0  0  0  0  0  0  0  0  0  0  0
  141.5049   79.0475  217.9874 H   0  0  0  0  0  0  0  0  0  0  0  0
  142.8226   77.0606  219.2038 H   0  0  0  0  0  0  0  0  0  0  0  0
  142.5752   78.8560  219.7016 H   0  0  0  0  0  0  0  0  0  0  0  0
  142.3170   76.6827  221.2131 H   0  0  0  0  0  0  0  0  0  0  0  0
  141.1407   77.2962  223.5445 H   0  0  0  0  0  0  0  0  0  0  0  0
  141.3392   79.0712  225.2523 H   0  0  0  0  0  0  0  0  0  0  0  0
  142.0789   81.3315  224.5699 H   0  0  0  0  0  0  0  0  0  0  0  0
  142.4102   80.0806  220.5554 H   0  0  0  0  0  0  0  0  0  0  0  0
  139.3208   69.8281  222.6116 H   0  0  0  0  0  0  0  0  0  0  0  0
  138.9362   68.4631  224.6233 H   0  0  0  0  0  0  0  0  0  0  0  0
  139.1479   68.1790  226.9382 H   0  0  0  0  0  0  0  0  0  0  0  0
  139.9244   69.0367  229.1724 H   0  0  0  0  0  0  0  0  0  0  0  0
  141.0528   71.2246  229.2876 H   0  0  0  0  0  0  0  0  0  0  0  0
  141.4347   72.5889  227.2638 H   0  0  0  0  0  0  0  0  0  0  0  0
  1  2  2  0
  2  3  1  0
  3  4  1  0
  4  5  1  0
  5  6  2  0
  5  7  1  0
  7  8  1  0
  8  9  1  0
  9 10  1  0
 10 11  1  0
 11 12  1  0
 12 13  1  0
 13 14  2  0
 14 15  1  0
 15 16  2  0
 16 17  1  0
 17 18  2  0
  2 19  1  0
 19 20  2  0
 20 21  1  0
 21 22  2  0
 22 23  1  0
 23 24  2  0
 24 25  1  0
 25 26  2  0
 26 27  1  0
 27 28  2  0
 12  7  1  0
 18 13  1  0
 28 19  1  0
 27 22  1  0
  3 29  1  0
  4 30  1  0
  4 31  1  0
  8 32  1  0
  8 33  1  0
  9 34  1  0
  9 35  1  0
 10 36  1  0
 10 37  1  0
 11 38  1  0
 11 39  1  0
 12 40  1  1
 14 41  1  0
 15 42  1  0
 16 43  1  0
 18 44  1  0
 20 45  1  0
 21 46  1  0
 23 47  1  0
 24 48  1  0
 25 49  1  0
 26 50  1  0
M  END
>  <smiles>  (94) 
O=C(NCC(=O)N1CCCCC1c1cccnc1)c1ccc2ccccc2n1

>  <score_type>  (94) 
oracle

>  <origin>  (94) 
autodockgpu

>  <m_score__min__energy>  (94) 
-9.1799999999999997

>  <m_primary>  (94) 
energy

>  <rmsd>  (94) 
1.9068825123927424

>  <m_score__min__rmsd>  (94) 
1.9068825123927424

>  <meeko>  (94) 
{"free_energy": -8.68, "intermolecular_energy": -10.17, "internal_energy": -1.9, "cluster_size": 32, "cluster_id": 2, "rank_in_cluster": 13}

>  <energy>  (94) 
-8.47

>  <cluster_rmsd>  (94) 
0.75

>  <cluster>  (94) 
2

$$$$

     RDKit          3D

 50 53  0  0  0  0  0  0  0  0999 V2000
  140.8730   71.6030  221.3590 O   0  0  0  0  0  0  0  0  0  0  0  0
  140.3760   72.1800  222.3630 C   0  0  0  0  0  0  0  0  0  0  0  0
  139.9500   73.5340  222.3460 N   0  0  0  0  0  0  0  0  0  0  0  0
  140.0580   74.3610  221.1610 C   0  0  0  0  0  0  0  0  0  0  0  0
  139.8780   75.7510  221.5800 C   0  0  0  0  0  0  0  0  0  0  0  0
  139.3500   75.9810  222.7130 O   0  0  0  0  0  0  0  0  0  0  0  0
  140.2690   76.8820  220.7690 N   0  0  0  0  0  0  0  0  0  0  0  0
  139.2440   77.4090  219.8860 C   0  0  0  0  0  0  0  0  0  0  0  0
  139.7640   78.2110  218.7560 C   0  0  0  0  0  0  0  0  0  0  0  0
  141.2020   78.0070  218.4150 C   0  0  0  0  0  0  0  0  0  0  0  0
  142.1270   77.7820  219.5320 C   0  0  0  0  0  0  0  0  0  0  0  0
  141.6030   77.4220  220.8600 C   0  0  1  0  0  0  0  0  0  0  0  0
  141.7200   78.4920  221.8850 C   0  0  0  0  0  0  0  0  0  0  0  0
  141.4660   78.2670  223.2340 C   0  0  0  0  0  0  0  0  0  0  0  0
  141.5750   79.2630  224.1830 C   0  0  0  0  0  0  0  0  0  0  0  0
  141.9470   80.5160  223.7810 C   0  0  0  0  0  0  0  0  0  0  0  0
  142.1990   80.7630  222.4950 N   0  0  0  0  0  0  0  0  0  0  0  0
  142.0930   79.7930  221.5630 C   0  0  0  0  0  0  0  0  0  0  0  0
  140.2290   71.4140  223.6120 C   0  0  0  0  0  0  0  0  0  0  0  0
  139.6410   70.1710  223.6180 C   0  0  0  0  0  0  0  0  0  0  0  0
  139.4750   69.4060  224.7480 C   0  0  0  0  0  0  0  0  0  0  0  0
  139.9280   69.9230  225.9490 C   0  0  0  0  0  0  0  0  0  0  0  0
  139.7610   69.1610  227.0690 C   0  0  0  0  0  0  0  0  0  0  0  0
  140.2110   69.6660  228.2840 C   0  0  0  0  0  0  0  0  0  0  0  0
  140.8010   70.9040  228.3060 C   0  0  0  0  0  0  0  0  0  0  0  0
  140.9620   71.6630  227.1590 C   0  0  0  0  0  0  0  0  0  0  0  0
  140.5140   71.1680  225.9350 C   0  0  0  0  0  0  0  0  0  0  0  0
  140.6620   71.8940  224.7960 N   0  0  0  0  0  0  0  0  0  0  0  0
  139.5440   73.9330  223.2360 H   0  0  0  0  0  0  0  0  0  0  0  0
  141.0491   74.2321  220.7015 H   0  0  0  0  0  0  0  0  0  0  0  0
  139.2974   74.0774  220.4187 H   0  0  0  0  0  0  0  0  0  0  0  0
  138.6760   76.5619  219.4740 H   0  0  0  0  0  0  0  0  0  0  0  0
  138.6246   78.0860  220.4927 H   0  0  0  0  0  0  0  0  0  0  0  0
  139.1686   77.9625  217.8651 H   0  0  0  0  0  0  0  0  0  0  0  0
  139.6814   79.2605  219.0750 H   0  0  0  0  0  0  0  0  0  0  0  0
  141.2646   77.1321  217.7512 H   0  0  0  0  0  0  0  0  0  0  0  0
  141.5256   78.9564  217.9634 H   0  0  0  0  0  0  0  0  0  0  0  0
  142.8027   76.9696  219.2262 H   0  0  0  0  0  0  0  0  0  0  0  0
  142.5719   78.7745  219.6960 H   0  0  0  0  0  0  0  0  0  0  0  0
  142.2649   76.6259  221.2317 H   0  0  0  0  0  0  0  0  0  0  0  0
  141.1674   77.2585  223.5561 H   0  0  0  0  0  0  0  0  0  0  0  0
  141.3666   79.0530  225.2425 H   0  0  0  0  0  0  0  0  0  0  0  0
  142.0388   81.3239  224.5219 H   0  0  0  0  0  0  0  0  0  0  0  0
  142.3089   80.0393  220.5129 H   0  0  0  0  0  0  0  0  0  0  0  0
  139.2819   69.7644  222.6611 H   0  0  0  0  0  0  0  0  0  0  0  0
  138.9980   68.4160  224.6992 H   0  0  0  0  0  0  0  0  0  0  0  0
  139.2824   68.1722  227.0120 H   0  0  0  0  0  0  0  0  0  0  0  0
  140.0960   69.0836  229.2100 H   0  0  0  0  0  0  0  0  0  0  0  0
  141.1577   71.3068  229.2654 H   0  0  0  0  0  0  0  0  0  0  0  0
  141.4411   72.6517  227.2133 H   0  0  0  0  0  0  0  0  0  0  0  0
  1  2  2  0
  2  3  1  0
  3  4  1  0
  4  5  1  0
  5  6  2  0
  5  7  1  0
  7  8  1  0
  8  9  1  0
  9 10  1  0
 10 11  1  0
 11 12  1  0
 12 13  1  0
 13 14  2  0
 14 15  1  0
 15 16  2  0
 16 17  1  0
 17 18  2  0
  2 19  1  0
 19 20  2  0
 20 21  1  0
 21 22  2  0
 22 23  1  0
 23 24  2  0
 24 25  1  0
 25 26  2  0
 26 27  1  0
 27 28  2  0
 12  7  1  0
 18 13  1  0
 28 19  1  0
 27 22  1  0
  3 29  1  0
  4 30  1  0
  4 31  1  0
  8 32  1  0
  8 33  1  0
  9 34  1  0
  9 35  1  0
 10 36  1  0
 10 37  1  0
 11 38  1  0
 11 39  1  0
 12 40  1  1
 14 41  1  0
 15 42  1  0
 16 43  1  0
 18 44  1  0
 20 45  1  0
 21 46  1  0
 23 47  1  0
 24 48  1  0
 25 49  1  0
 26 50  1  0
M  END
>  <smiles>  (95) 
O=C(NCC(=O)N1CCCCC1c1cccnc1)c1ccc2ccccc2n1

>  <score_type>  (95) 
oracle

>  <origin>  (95) 
autodockgpu

>  <m_score__min__energy>  (95) 
-9.1799999999999997

>  <m_primary>  (95) 
energy

>  <rmsd>  (95) 
1.850801913474325

>  <m_score__min__rmsd>  (95) 
1.850801913474325

>  <meeko>  (95) 
{"free_energy": -8.67, "intermolecular_energy": -10.17, "internal_energy": -1.92, "cluster_size": 32, "cluster_id": 2, "rank_in_cluster": 14}

>  <energy>  (95) 
-8.32

>  <cluster_rmsd>  (95) 
1.04

>  <cluster>  (95) 
2

$$$$

     RDKit          3D

 50 53  0  0  0  0  0  0  0  0999 V2000
  140.3930   71.4330  221.2770 O   0  0  0  0  0  0  0  0  0  0  0  0
  140.0910   72.0630  222.3260 C   0  0  0  0  0  0  0  0  0  0  0  0
  139.7650   73.4440  222.3360 N   0  0  0  0  0  0  0  0  0  0  0  0
  139.7570   74.2420  221.1250 C   0  0  0  0  0  0  0  0  0  0  0  0
  139.9390   75.6380  221.5210 C   0  0  0  0  0  0  0  0  0  0  0  0
  139.6630   75.9730  222.7150 O   0  0  0  0  0  0  0  0  0  0  0  0
  140.4190   76.6620  220.6200 N   0  0  0  0  0  0  0  0  0  0  0  0
  139.5150   77.0300  219.5460 C   0  0  0  0  0  0  0  0  0  0  0  0
  140.1710   77.6900  218.3940 C   0  0  0  0  0  0  0  0  0  0  0  0
  141.6450   77.4910  218.2780 C   0  0  0  0  0  0  0  0  0  0  0  0
  142.4130   77.4510  219.5270 C   0  0  0  0  0  0  0  0  0  0  0  0
  141.7200   77.2550  220.8120 C   0  0  1  0  0  0  0  0  0  0  0  0
  141.6800   78.4560  221.6850 C   0  0  0  0  0  0  0  0  0  0  0  0
  141.4880   78.3760  223.0600 C   0  0  0  0  0  0  0  0  0  0  0  0
  141.4510   79.4930  223.8690 C   0  0  0  0  0  0  0  0  0  0  0  0
  141.6100   80.7250  223.2960 C   0  0  0  0  0  0  0  0  0  0  0  0
  141.7970   80.8350  221.9800 N   0  0  0  0  0  0  0  0  0  0  0  0
  141.8330   79.7460  221.1850 C   0  0  0  0  0  0  0  0  0  0  0  0
  140.0740   71.3300  223.6040 C   0  0  0  0  0  0  0  0  0  0  0  0
  139.5630   70.0550  223.6850 C   0  0  0  0  0  0  0  0  0  0  0  0
  139.5190   69.3190  224.8450 C   0  0  0  0  0  0  0  0  0  0  0  0
  140.0200   69.9000  225.9970 C   0  0  0  0  0  0  0  0  0  0  0  0
  139.9740   69.1660  227.1470 C   0  0  0  0  0  0  0  0  0  0  0  0
  140.4740   69.7350  228.3140 C   0  0  0  0  0  0  0  0  0  0  0  0
  140.9890   71.0050  228.2600 C   0  0  0  0  0  0  0  0  0  0  0  0
  141.0270   71.7350  227.0840 C   0  0  0  0  0  0  0  0  0  0  0  0
  140.5290   71.1750  225.9080 C   0  0  0  0  0  0  0  0  0  0  0  0
  140.5560   71.8720  224.7420 N   0  0  0  0  0  0  0  0  0  0  0  0
  139.5240   73.8860  223.2640 H   0  0  0  0  0  0  0  0  0  0  0  0
  140.5776   73.9288  220.4628 H   0  0  0  0  0  0  0  0  0  0  0  0
  138.8101   74.1127  220.5804 H   0  0  0  0  0  0  0  0  0  0  0  0
  139.0211   76.1163  219.1837 H   0  0  0  0  0  0  0  0  0  0  0  0
  138.8087   77.7610  219.9665 H   0  0  0  0  0  0  0  0  0  0  0  0
  139.7060   77.3034  217.4752 H   0  0  0  0  0  0  0  0  0  0  0  0
  140.0292   78.7695  218.5508 H   0  0  0  0  0  0  0  0  0  0  0  0
  141.8108   76.5370  217.7561 H   0  0  0  0  0  0  0  0  0  0  0  0
  142.0119   78.3812  217.7461 H   0  0  0  0  0  0  0  0  0  0  0  0
  143.1372   76.6290  219.4282 H   0  0  0  0  0  0  0  0  0  0  0  0
  142.8146   78.4717  219.6095 H   0  0  0  0  0  0  0  0  0  0  0  0
  142.3378   76.5398  221.3750 H   0  0  0  0  0  0  0  0  0  0  0  0
  141.3609   77.3849  223.5199 H   0  0  0  0  0  0  0  0  0  0  0  0
  141.2967   79.3948  224.9537 H   0  0  0  0  0  0  0  0  0  0  0  0
  141.5835   81.6284  223.9230 H   0  0  0  0  0  0  0  0  0  0  0  0
  141.9886   79.8820  220.1046 H   0  0  0  0  0  0  0  0  0  0  0  0
  139.1661   69.5975  222.7668 H   0  0  0  0  0  0  0  0  0  0  0  0
  139.0996   68.3022  224.8574 H   0  0  0  0  0  0  0  0  0  0  0  0
  139.5522   68.1501  227.1509 H   0  0  0  0  0  0  0  0  0  0  0  0
  140.4566   69.1770  229.2618 H   0  0  0  0  0  0  0  0  0  0  0  0
  141.3847   71.4584  229.1808 H   0  0  0  0  0  0  0  0  0  0  0  0
  141.4478   72.7513  227.0775 H   0  0  0  0  0  0  0  0  0  0  0  0
  1  2  2  0
  2  3  1  0
  3  4  1  0
  4  5  1  0
  5  6  2  0
  5  7  1  0
  7  8  1  0
  8  9  1  0
  9 10  1  0
 10 11  1  0
 11 12  1  0
 12 13  1  0
 13 14  2  0
 14 15  1  0
 15 16  2  0
 16 17  1  0
 17 18  2  0
  2 19  1  0
 19 20  2  0
 20 21  1  0
 21 22  2  0
 22 23  1  0
 23 24  2  0
 24 25  1  0
 25 26  2  0
 26 27  1  0
 27 28  2  0
 12  7  1  0
 18 13  1  0
 28 19  1  0
 27 22  1  0
  3 29  1  0
  4 30  1  0
  4 31  1  0
  8 32  1  0
  8 33  1  0
  9 34  1  0
  9 35  1  0
 10 36  1  0
 10 37  1  0
 11 38  1  0
 11 39  1  0
 12 40  1  1
 14 41  1  0
 15 42  1  0
 16 43  1  0
 18 44  1  0
 20 45  1  0
 21 46  1  0
 23 47  1  0
 24 48  1  0
 25 49  1  0
 26 50  1  0
M  END
>  <smiles>  (96) 
O=C(NCC(=O)N1CCCCC1c1cccnc1)c1ccc2ccccc2n1

>  <score_type>  (96) 
oracle

>  <origin>  (96) 
autodockgpu

>  <m_score__min__energy>  (96) 
-9.1799999999999997

>  <m_primary>  (96) 
energy

>  <rmsd>  (96) 
1.6328074925185723

>  <m_score__min__rmsd>  (96) 
1.6328074925185723

>  <meeko>  (96) 
{"free_energy": -8.62, "intermolecular_energy": -10.11, "internal_energy": -1.96, "cluster_size": 32, "cluster_id": 2, "rank_in_cluster": 20}

>  <energy>  (96) 
-8.3

>  <cluster_rmsd>  (96) 
1.05

>  <cluster>  (96) 
2

$$$$

     RDKit          3D

 50 53  0  0  0  0  0  0  0  0999 V2000
  140.8420   71.5480  221.3860 O   0  0  0  0  0  0  0  0  0  0  0  0
  140.2980   72.1130  222.3730 C   0  0  0  0  0  0  0  0  0  0  0  0
  139.7720   73.4290  222.3200 N   0  0  0  0  0  0  0  0  0  0  0  0
  139.8230   74.2320  221.1140 C   0  0  0  0  0  0  0  0  0  0  0  0
  139.9370   75.6310  221.5250 C   0  0  0  0  0  0  0  0  0  0  0  0
  139.6480   75.9390  222.7230 O   0  0  0  0  0  0  0  0  0  0  0  0
  140.3640   76.6870  220.6340 N   0  0  0  0  0  0  0  0  0  0  0  0
  139.4050   77.0790  219.6170 C   0  0  0  0  0  0  0  0  0  0  0  0
  139.9980   77.7810  218.4560 C   0  0  0  0  0  0  0  0  0  0  0  0
  141.4660   77.6000  218.2620 C   0  0  0  0  0  0  0  0  0  0  0  0
  142.2950   77.5290  219.4700 C   0  0  0  0  0  0  0  0  0  0  0  0
  141.6670   77.2870  220.7810 C   0  0  1  0  0  0  0  0  0  0  0  0
  141.6590   78.4610  221.6920 C   0  0  0  0  0  0  0  0  0  0  0  0
  141.4790   78.3400  223.0660 C   0  0  0  0  0  0  0  0  0  0  0  0
  141.4710   79.4320  223.9100 C   0  0  0  0  0  0  0  0  0  0  0  0
  141.6490   80.6770  223.3740 C   0  0  0  0  0  0  0  0  0  0  0  0
  141.8260   80.8260  222.0610 N   0  0  0  0  0  0  0  0  0  0  0  0
  141.8330   79.7630  221.2320 C   0  0  0  0  0  0  0  0  0  0  0  0
  140.2040   71.3700  223.6410 C   0  0  0  0  0  0  0  0  0  0  0  0
  139.6160   70.1270  223.6950 C   0  0  0  0  0  0  0  0  0  0  0  0
  139.4970   69.3840  224.8450 C   0  0  0  0  0  0  0  0  0  0  0  0
  140.0010   69.9220  226.0160 C   0  0  0  0  0  0  0  0  0  0  0  0
  139.8800   69.1810  227.1560 C   0  0  0  0  0  0  0  0  0  0  0  0
  140.3810   69.7080  228.3420 C   0  0  0  0  0  0  0  0  0  0  0  0
  140.9710   70.9460  228.3160 C   0  0  0  0  0  0  0  0  0  0  0  0
  141.0850   71.6840  227.1490 C   0  0  0  0  0  0  0  0  0  0  0  0
  140.5860   71.1660  225.9540 C   0  0  0  0  0  0  0  0  0  0  0  0
  140.6860   71.8710  224.7970 N   0  0  0  0  0  0  0  0  0  0  0  0
  139.3330   73.8190  223.1990 H   0  0  0  0  0  0  0  0  0  0  0  0
  140.6954   73.9457  220.5082 H   0  0  0  0  0  0  0  0  0  0  0  0
  138.9192   74.0780  220.5062 H   0  0  0  0  0  0  0  0  0  0  0  0
  138.9019   76.1720  219.2505 H   0  0  0  0  0  0  0  0  0  0  0  0
  138.7138   77.7893  220.0941 H   0  0  0  0  0  0  0  0  0  0  0  0
  139.4916   77.4188  217.5492 H   0  0  0  0  0  0  0  0  0  0  0  0
  139.8551   78.8536  218.6536 H   0  0  0  0  0  0  0  0  0  0  0  0
  141.6137   76.6642  217.7031 H   0  0  0  0  0  0  0  0  0  0  0  0
  141.7989   78.5098  217.7409 H   0  0  0  0  0  0  0  0  0  0  0  0
  143.0200   76.7173  219.3104 H   0  0  0  0  0  0  0  0  0  0  0  0
  142.6924   78.5503  219.5645 H   0  0  0  0  0  0  0  0  0  0  0  0
  142.3178   76.5616  221.2912 H   0  0  0  0  0  0  0  0  0  0  0  0
  141.3379   77.3372  223.4956 H   0  0  0  0  0  0  0  0  0  0  0  0
  141.3243   79.3031  224.9925 H   0  0  0  0  0  0  0  0  0  0  0  0
  141.6462   81.5604  224.0294 H   0  0  0  0  0  0  0  0  0  0  0  0
  141.9813   79.9304  220.1550 H   0  0  0  0  0  0  0  0  0  0  0  0
  139.2173   69.7027  222.7617 H   0  0  0  0  0  0  0  0  0  0  0  0
  139.0169   68.3943  224.8349 H   0  0  0  0  0  0  0  0  0  0  0  0
  139.3985   68.1921  227.1374 H   0  0  0  0  0  0  0  0  0  0  0  0
  140.3054   69.1427  229.2826 H   0  0  0  0  0  0  0  0  0  0  0  0
  141.3665   71.3666  229.2523 H   0  0  0  0  0  0  0  0  0  0  0  0
  141.5664   72.6729  227.1648 H   0  0  0  0  0  0  0  0  0  0  0  0
  1  2  2  0
  2  3  1  0
  3  4  1  0
  4  5  1  0
  5  6  2  0
  5  7  1  0
  7  8  1  0
  8  9  1  0
  9 10  1  0
 10 11  1  0
 11 12  1  0
 12 13  1  0
 13 14  2  0
 14 15  1  0
 15 16  2  0
 16 17  1  0
 17 18  2  0
  2 19  1  0
 19 20  2  0
 20 21  1  0
 21 22  2  0
 22 23  1  0
 23 24  2  0
 24 25  1  0
 25 26  2  0
 26 27  1  0
 27 28  2  0
 12  7  1  0
 18 13  1  0
 28 19  1  0
 27 22  1  0
  3 29  1  0
  4 30  1  0
  4 31  1  0
  8 32  1  0
  8 33  1  0
  9 34  1  0
  9 35  1  0
 10 36  1  0
 10 37  1  0
 11 38  1  0
 11 39  1  0
 12 40  1  1
 14 41  1  0
 15 42  1  0
 16 43  1  0
 18 44  1  0
 20 45  1  0
 21 46  1  0
 23 47  1  0
 24 48  1  0
 25 49  1  0
 26 50  1  0
M  END
>  <smiles>  (97) 
O=C(NCC(=O)N1CCCCC1c1cccnc1)c1ccc2ccccc2n1

>  <score_type>  (97) 
oracle

>  <origin>  (97) 
autodockgpu

>  <m_score__min__energy>  (97) 
-9.1799999999999997

>  <m_primary>  (97) 
energy

>  <rmsd>  (97) 
1.6764101566617113

>  <m_score__min__rmsd>  (97) 
1.6764101566617113

>  <meeko>  (97) 
{"free_energy": -8.71, "intermolecular_energy": -10.2, "internal_energy": -1.88, "cluster_size": 32, "cluster_id": 2, "rank_in_cluster": 6}

>  <energy>  (97) 
-8.27

>  <cluster_rmsd>  (97) 
0.68

>  <cluster>  (97) 
2

$$$$

     RDKit          3D

 50 53  0  0  0  0  0  0  0  0999 V2000
  140.4210   71.4570  221.2640 O   0  0  0  0  0  0  0  0  0  0  0  0
  140.1260   72.0830  222.3160 C   0  0  0  0  0  0  0  0  0  0  0  0
  139.7980   73.4630  222.3310 N   0  0  0  0  0  0  0  0  0  0  0  0
  139.7800   74.2640  221.1230 C   0  0  0  0  0  0  0  0  0  0  0  0
  140.0400   75.6500  221.5140 C   0  0  0  0  0  0  0  0  0  0  0  0
  139.8510   75.9860  222.7250 O   0  0  0  0  0  0  0  0  0  0  0  0
  140.5010   76.6610  220.5900 N   0  0  0  0  0  0  0  0  0  0  0  0
  139.5970   76.9780  219.5000 C   0  0  0  0  0  0  0  0  0  0  0  0
  140.2450   77.6240  218.3360 C   0  0  0  0  0  0  0  0  0  0  0  0
  141.7250   77.4600  218.2360 C   0  0  0  0  0  0  0  0  0  0  0  0
  142.4840   77.4720  219.4910 C   0  0  0  0  0  0  0  0  0  0  0  0
  141.7850   77.2920  220.7760 C   0  0  1  0  0  0  0  0  0  0  0  0
  141.7080   78.5150  221.6170 C   0  0  0  0  0  0  0  0  0  0  0  0
  141.5300   78.4650  222.9950 C   0  0  0  0  0  0  0  0  0  0  0  0
  141.4580   79.6020  223.7740 C   0  0  0  0  0  0  0  0  0  0  0  0
  141.5660   80.8220  223.1660 C   0  0  0  0  0  0  0  0  0  0  0  0
  141.7380   80.9040  221.8470 N   0  0  0  0  0  0  0  0  0  0  0  0
  141.8080   79.7950  221.0810 C   0  0  0  0  0  0  0  0  0  0  0  0
  140.1190   71.3460  223.5920 C   0  0  0  0  0  0  0  0  0  0  0  0
  139.6230   70.0650  223.6710 C   0  0  0  0  0  0  0  0  0  0  0  0
  139.5890   69.3260  224.8290 C   0  0  0  0  0  0  0  0  0  0  0  0
  140.0840   69.9100  225.9820 C   0  0  0  0  0  0  0  0  0  0  0  0
  140.0480   69.1720  227.1300 C   0  0  0  0  0  0  0  0  0  0  0  0
  140.5420   69.7440  228.2980 C   0  0  0  0  0  0  0  0  0  0  0  0
  141.0410   71.0200  228.2460 C   0  0  0  0  0  0  0  0  0  0  0  0
  141.0700   71.7540  227.0720 C   0  0  0  0  0  0  0  0  0  0  0  0
  140.5770   71.1910  225.8950 C   0  0  0  0  0  0  0  0  0  0  0  0
  140.5950   71.8910  224.7310 N   0  0  0  0  0  0  0  0  0  0  0  0
  139.5630   73.9030  223.2630 H   0  0  0  0  0  0  0  0  0  0  0  0
  140.5598   73.9163  220.4295 H   0  0  0  0  0  0  0  0  0  0  0  0
  138.8081   74.1792  220.6148 H   0  0  0  0  0  0  0  0  0  0  0  0
  139.1291   76.0430  219.1582 H   0  0  0  0  0  0  0  0  0  0  0  0
  138.8695   77.7019  219.8960 H   0  0  0  0  0  0  0  0  0  0  0  0
  139.7973   77.2015  217.4244 H   0  0  0  0  0  0  0  0  0  0  0  0
  140.0744   78.7032  218.4631 H   0  0  0  0  0  0  0  0  0  0  0  0
  141.9192   76.4974  217.7403 H   0  0  0  0  0  0  0  0  0  0  0  0
  142.0732   78.3454  217.6839 H   0  0  0  0  0  0  0  0  0  0  0  0
  143.2293   76.6662  219.4192 H   0  0  0  0  0  0  0  0  0  0  0  0
  142.8598   78.5042  219.5497 H   0  0  0  0  0  0  0  0  0  0  0  0
  142.4155   76.6075  221.3625 H   0  0  0  0  0  0  0  0  0  0  0  0
  141.4433   77.4827  223.4825 H   0  0  0  0  0  0  0  0  0  0  0  0
  141.3165   79.5282  224.8624 H   0  0  0  0  0  0  0  0  0  0  0  0
  141.5106   81.7405  223.7687 H   0  0  0  0  0  0  0  0  0  0  0  0
  141.9489   79.9070  219.9958 H   0  0  0  0  0  0  0  0  0  0  0  0
  139.2302   69.6050  222.7523 H   0  0  0  0  0  0  0  0  0  0  0  0
  139.1819   68.3042  224.8392 H   0  0  0  0  0  0  0  0  0  0  0  0
  139.6388   68.1510  227.1314 H   0  0  0  0  0  0  0  0  0  0  0  0
  140.5325   69.1836  229.2445 H   0  0  0  0  0  0  0  0  0  0  0  0
  141.4314   71.4760  229.1678 H   0  0  0  0  0  0  0  0  0  0  0  0
  141.4794   72.7750  227.0678 H   0  0  0  0  0  0  0  0  0  0  0  0
  1  2  2  0
  2  3  1  0
  3  4  1  0
  4  5  1  0
  5  6  2  0
  5  7  1  0
  7  8  1  0
  8  9  1  0
  9 10  1  0
 10 11  1  0
 11 12  1  0
 12 13  1  0
 13 14  2  0
 14 15  1  0
 15 16  2  0
 16 17  1  0
 17 18  2  0
  2 19  1  0
 19 20  2  0
 20 21  1  0
 21 22  2  0
 22 23  1  0
 23 24  2  0
 24 25  1  0
 25 26  2  0
 26 27  1  0
 27 28  2  0
 12  7  1  0
 18 13  1  0
 28 19  1  0
 27 22  1  0
  3 29  1  0
  4 30  1  0
  4 31  1  0
  8 32  1  0
  8 33  1  0
  9 34  1  0
  9 35  1  0
 10 36  1  0
 10 37  1  0
 11 38  1  0
 11 39  1  0
 12 40  1  1
 14 41  1  0
 15 42  1  0
 16 43  1  0
 18 44  1  0
 20 45  1  0
 21 46  1  0
 23 47  1  0
 24 48  1  0
 25 49  1  0
 26 50  1  0
M  END
>  <smiles>  (98) 
O=C(NCC(=O)N1CCCCC1c1cccnc1)c1ccc2ccccc2n1

>  <score_type>  (98) 
oracle

>  <origin>  (98) 
autodockgpu

>  <m_score__min__energy>  (98) 
-9.1799999999999997

>  <m_primary>  (98) 
energy

>  <rmsd>  (98) 
1.6310847786031804

>  <m_score__min__rmsd>  (98) 
1.6310847786031804

>  <meeko>  (98) 
{"free_energy": -8.58, "intermolecular_energy": -10.07, "internal_energy": -1.95, "cluster_size": 32, "cluster_id": 2, "rank_in_cluster": 25}

>  <energy>  (98) 
-7.85

>  <cluster_rmsd>  (98) 
0.0

>  <cluster>  (98) 
3

$$$$

     RDKit          3D

 50 53  0  0  0  0  0  0  0  0999 V2000
  140.6260   71.0990  221.2670 O   0  0  0  0  0  0  0  0  0  0  0  0
  140.3300   71.8280  222.2520 C   0  0  0  0  0  0  0  0  0  0  0  0
  140.1070   73.2250  222.1430 N   0  0  0  0  0  0  0  0  0  0  0  0
  140.2050   73.9250  220.8770 C   0  0  0  0  0  0  0  0  0  0  0  0
  141.1080   75.0580  221.0740 C   0  0  0  0  0  0  0  0  0  0  0  0
  141.1190   75.6380  222.2040 O   0  0  0  0  0  0  0  0  0  0  0  0
  141.9930   75.5560  220.0440 N   0  0  0  0  0  0  0  0  0  0  0  0
  142.2470   76.9850  220.0690 C   0  0  0  0  0  0  0  0  0  0  0  0
  142.7330   77.5410  218.7860 C   0  0  0  0  0  0  0  0  0  0  0  0
  142.4760   76.7110  217.5730 C   0  0  0  0  0  0  0  0  0  0  0  0
  142.5740   75.2560  217.7280 C   0  0  0  0  0  0  0  0  0  0  0  0
  142.5650   74.6560  219.0730 C   0  0  1  0  0  0  0  0  0  0  0  0
  143.8700   74.0950  219.5110 C   0  0  0  0  0  0  0  0  0  0  0  0
  144.2920   74.1260  220.8360 C   0  0  0  0  0  0  0  0  0  0  0  0
  145.5040   73.6050  221.2390 C   0  0  0  0  0  0  0  0  0  0  0  0
  146.3200   73.0360  220.3000 C   0  0  0  0  0  0  0  0  0  0  0  0
  145.9440   72.9900  219.0220 N   0  0  0  0  0  0  0  0  0  0  0  0
  144.7600   73.4990  218.6220 C   0  0  0  0  0  0  0  0  0  0  0  0
  140.2090   71.1990  223.5780 C   0  0  0  0  0  0  0  0  0  0  0  0
  139.5940   69.9780  223.7330 C   0  0  0  0  0  0  0  0  0  0  0  0
  139.4500   69.3400  224.9420 C   0  0  0  0  0  0  0  0  0  0  0  0
  139.9560   69.9670  226.0670 C   0  0  0  0  0  0  0  0  0  0  0  0
  139.8100   69.3300  227.2650 C   0  0  0  0  0  0  0  0  0  0  0  0
  140.3130   69.9470  228.4060 C   0  0  0  0  0  0  0  0  0  0  0  0
  140.9300   71.1650  228.2790 C   0  0  0  0  0  0  0  0  0  0  0  0
  141.0680   71.7970  227.0550 C   0  0  0  0  0  0  0  0  0  0  0  0
  140.5680   71.1890  225.9040 C   0  0  0  0  0  0  0  0  0  0  0  0
  140.6930   71.7880  224.6920 N   0  0  0  0  0  0  0  0  0  0  0  0
  139.8630   73.7540  223.0240 H   0  0  0  0  0  0  0  0  0  0  0  0
  140.6080   73.2525  220.1055 H   0  0  0  0  0  0  0  0  0  0  0  0
  139.2145   74.2701  220.5457 H   0  0  0  0  0  0  0  0  0  0  0  0
  141.3097   77.4967  220.3329 H   0  0  0  0  0  0  0  0  0  0  0  0
  143.0468   77.1494  220.8061 H   0  0  0  0  0  0  0  0  0  0  0  0
  142.2459   78.5158  218.6359 H   0  0  0  0  0  0  0  0  0  0  0  0
  143.8275   77.5940  218.8820 H   0  0  0  0  0  0  0  0  0  0  0  0
  141.4581   76.9396  217.2242 H   0  0  0  0  0  0  0  0  0  0  0  0
  143.2785   76.9777  216.8695 H   0  0  0  0  0  0  0  0  0  0  0  0
  141.7251   74.8205  217.1804 H   0  0  0  0  0  0  0  0  0  0  0  0
  143.5847   75.0300  217.3573 H   0  0  0  0  0  0  0  0  0  0  0  0
  141.9091   73.7760  218.9994 H   0  0  0  0  0  0  0  0  0  0  0  0
  143.6348   74.5830  221.5905 H   0  0  0  0  0  0  0  0  0  0  0  0
  145.8085   73.6463  222.2952 H   0  0  0  0  0  0  0  0  0  0  0  0
  147.2905   72.6147  220.6009 H   0  0  0  0  0  0  0  0  0  0  0  0
  144.4890   73.4410  217.5575 H   0  0  0  0  0  0  0  0  0  0  0  0
  139.1937   69.4829  222.8360 H   0  0  0  0  0  0  0  0  0  0  0  0
  138.9491   68.3632  225.0129 H   0  0  0  0  0  0  0  0  0  0  0  0
  139.3074   68.3535  227.3270 H   0  0  0  0  0  0  0  0  0  0  0  0
  140.2176   69.4670  229.3911 H   0  0  0  0  0  0  0  0  0  0  0  0
  141.3283   71.6560  229.1791 H   0  0  0  0  0  0  0  0  0  0  0  0
  141.5696   72.7739  226.9907 H   0  0  0  0  0  0  0  0  0  0  0  0
  1  2  2  0
  2  3  1  0
  3  4  1  0
  4  5  1  0
  5  6  2  0
  5  7  1  0
  7  8  1  0
  8  9  1  0
  9 10  1  0
 10 11  1  0
 11 12  1  0
 12 13  1  0
 13 14  2  0
 14 15  1  0
 15 16  2  0
 16 17  1  0
 17 18  2  0
  2 19  1  0
 19 20  2  0
 20 21  1  0
 21 22  2  0
 22 23  1  0
 23 24  2  0
 24 25  1  0
 25 26  2  0
 26 27  1  0
 27 28  2  0
 12  7  1  0
 18 13  1  0
 28 19  1  0
 27 22  1  0
  3 29  1  0
  4 30  1  0
  4 31  1  0
  8 32  1  0
  8 33  1  0
  9 34  1  0
  9 35  1  0
 10 36  1  0
 10 37  1  0
 11 38  1  0
 11 39  1  0
 12 40  1  6
 14 41  1  0
 15 42  1  0
 16 43  1  0
 18 44  1  0
 20 45  1  0
 21 46  1  0
 23 47  1  0
 24 48  1  0
 25 49  1  0
 26 50  1  0
M  END
>  <smiles>  (99) 
O=C(NCC(=O)N1CCCCC1c1cccnc1)c1ccc2ccccc2n1

>  <score_type>  (99) 
oracle

>  <origin>  (99) 
autodockgpu

>  <m_score__min__energy>  (99) 
-9.1799999999999997

>  <m_primary>  (99) 
energy

>  <rmsd>  (99) 
2.3838657240457612

>  <m_score__min__rmsd>  (99) 
2.3838657240457612

>  <meeko>  (99) 
{"free_energy": -9.06, "intermolecular_energy": -10.55, "internal_energy": -1.87, "cluster_size": 15, "cluster_id": 1, "rank_in_cluster": 5}

>  <energy>  (99) 
-7.74

>  <cluster_rmsd>  (99) 
0.3

>  <cluster>  (99) 
3

$$$$

     RDKit          3D

 50 53  0  0  0  0  0  0  0  0999 V2000
  141.4790   71.9090  221.6440 O   0  0  0  0  0  0  0  0  0  0  0  0
  140.6320   72.3440  222.4700 C   0  0  0  0  0  0  0  0  0  0  0  0
  139.9640   73.5860  222.3130 N   0  0  0  0  0  0  0  0  0  0  0  0
  140.2100   74.4560  221.1790 C   0  0  0  0  0  0  0  0  0  0  0  0
  139.9370   75.8260  221.6130 C   0  0  0  0  0  0  0  0  0  0  0  0
  139.3840   76.0080  222.7420 O   0  0  0  0  0  0  0  0  0  0  0  0
  140.2640   76.9890  220.8190 N   0  0  0  0  0  0  0  0  0  0  0  0
  139.1800   77.5330  220.0220 C   0  0  0  0  0  0  0  0  0  0  0  0
  139.6190   78.3810  218.8910 C   0  0  0  0  0  0  0  0  0  0  0  0
  141.0350   78.2080  218.4540 C   0  0  0  0  0  0  0  0  0  0  0  0
  142.0310   77.9570  219.5010 C   0  0  0  0  0  0  0  0  0  0  0  0
  141.5960   77.5430  220.8460 C   0  0  1  0  0  0  0  0  0  0  0  0
  141.7650   78.5790  221.8990 C   0  0  0  0  0  0  0  0  0  0  0  0
  141.5040   78.3300  223.2420 C   0  0  0  0  0  0  0  0  0  0  0  0
  141.6620   79.2930  224.2180 C   0  0  0  0  0  0  0  0  0  0  0  0
  142.0910   80.5370  223.8490 C   0  0  0  0  0  0  0  0  0  0  0  0
  142.3510   80.8070  222.5690 N   0  0  0  0  0  0  0  0  0  0  0  0
  142.1980   79.8700  221.6110 C   0  0  0  0  0  0  0  0  0  0  0  0
  140.3210   71.5250  223.6530 C   0  0  0  0  0  0  0  0  0  0  0  0
  139.6050   70.3550  223.5390 C   0  0  0  0  0  0  0  0  0  0  0  0
  139.2830   69.5470  224.6030 C   0  0  0  0  0  0  0  0  0  0  0  0
  139.7060   69.9370  225.8620 C   0  0  0  0  0  0  0  0  0  0  0  0
  139.3840   69.1320  226.9160 C   0  0  0  0  0  0  0  0  0  0  0  0
  139.8020   69.5100  228.1870 C   0  0  0  0  0  0  0  0  0  0  0  0
  140.5160   70.6720  228.3280 C   0  0  0  0  0  0  0  0  0  0  0  0
  140.8340   71.4770  227.2470 C   0  0  0  0  0  0  0  0  0  0  0  0
  140.4210   71.1090  225.9670 C   0  0  0  0  0  0  0  0  0  0  0  0
  140.7210   71.8820  224.8910 N   0  0  0  0  0  0  0  0  0  0  0  0
  139.2690   73.8680  223.0570 H   0  0  0  0  0  0  0  0  0  0  0  0
  141.2575   74.3655  220.8556 H   0  0  0  0  0  0  0  0  0  0  0  0
  139.5658   74.1810  220.3309 H   0  0  0  0  0  0  0  0  0  0  0  0
  138.5963   76.6935  219.6164 H   0  0  0  0  0  0  0  0  0  0  0  0
  138.5928   78.1800  220.6903 H   0  0  0  0  0  0  0  0  0  0  0  0
  138.9715   78.1559  218.0307 H   0  0  0  0  0  0  0  0  0  0  0  0
  139.5449   79.4175  219.2517 H   0  0  0  0  0  0  0  0  0  0  0  0
  141.0652   77.3575  217.7570 H   0  0  0  0  0  0  0  0  0  0  0  0
  141.3187   79.1770  218.0175 H   0  0  0  0  0  0  0  0  0  0  0  0
  142.6955   77.1654  219.1243 H   0  0  0  0  0  0  0  0  0  0  0  0
  142.4740   78.9492  219.6723 H   0  0  0  0  0  0  0  0  0  0  0  0
  142.2885   76.7431  221.1471 H   0  0  0  0  0  0  0  0  0  0  0  0
  141.1588   77.3283  223.5375 H   0  0  0  0  0  0  0  0  0  0  0  0
  141.4469   79.0637  225.2721 H   0  0  0  0  0  0  0  0  0  0  0  0
  142.2225   81.3192  224.6112 H   0  0  0  0  0  0  0  0  0  0  0  0
  142.4229   80.1350  220.5673 H   0  0  0  0  0  0  0  0  0  0  0  0
  139.2707   70.0486  222.5368 H   0  0  0  0  0  0  0  0  0  0  0  0
  138.7079   68.6205  224.4588 H   0  0  0  0  0  0  0  0  0  0  0  0
  138.8082   68.2072  226.7637 H   0  0  0  0  0  0  0  0  0  0  0  0
  139.5644   68.8885  229.0630 H   0  0  0  0  0  0  0  0  0  0  0  0
  140.8470   70.9746  229.3324 H   0  0  0  0  0  0  0  0  0  0  0  0
  141.4096   72.4022  227.3973 H   0  0  0  0  0  0  0  0  0  0  0  0
  1  2  2  0
  2  3  1  0
  3  4  1  0
  4  5  1  0
  5  6  2  0
  5  7  1  0
  7  8  1  0
  8  9  1  0
  9 10  1  0
 10 11  1  0
 11 12  1  0
 12 13  1  0
 13 14  2  0
 14 15  1  0
 15 16  2  0
 16 17  1  0
 17 18  2  0
  2 19  1  0
 19 20  2  0
 20 21  1  0
 21 22  2  0
 22 23  1  0
 23 24  2  0
 24 25  1  0
 25 26  2  0
 26 27  1  0
 27 28  2  0
 12  7  1  0
 18 13  1  0
 28 19  1  0
 27 22  1  0
  3 29  1  0
  4 30  1  0
  4 31  1  0
  8 32  1  0
  8 33  1  0
  9 34  1  0
  9 35  1  0
 10 36  1  0
 10 37  1  0
 11 38  1  0
 11 39  1  0
 12 40  1  1
 14 41  1  0
 15 42  1  0
 16 43  1  0
 18 44  1  0
 20 45  1  0
 21 46  1  0
 23 47  1  0
 24 48  1  0
 25 49  1  0
 26 50  1  0
M  END
>  <smiles>  (100) 
O=C(NCC(=O)N1CCCCC1c1cccnc1)c1ccc2ccccc2n1

>  <score_type>  (100) 
oracle

>  <origin>  (100) 
autodockgpu

>  <m_score__min__energy>  (100) 
-9.1799999999999997

>  <m_primary>  (100) 
energy

>  <rmsd>  (100) 
1.9827713227079975

>  <m_score__min__rmsd>  (100) 
1.9827713227079975

>  <meeko>  (100) 
{"free_energy": -8.69, "intermolecular_energy": -10.18, "internal_energy": -1.85, "cluster_size": 32, "cluster_id": 2, "rank_in_cluster": 10}

>  <energy>  (100) 
-7.71

>  <cluster_rmsd>  (100) 
1.57

>  <cluster>  (100) 
3

$$$$
