
     RDKit          3D

 43 45  0  0  0  0  0  0  0  0999 V2000
  137.2430   70.3060  221.7560 O   0  0  0  0  0  0  0  0  0  0  0  0
  137.8200   71.0760  222.5860 C   0  0  0  0  0  0  0  0  0  0  0  0
  137.8490   72.5020  222.3820 N   0  0  0  0  0  0  0  0  0  0  0  0
  137.2220   73.1040  221.2270 C   0  0  0  0  0  0  0  0  0  0  0  0
  138.3020   73.4450  220.2610 C   0  0  0  0  0  0  0  0  0  0  0  0
  138.2140   73.0600  219.0660 O   0  0  0  0  0  0  0  0  0  0  0  0
  139.4170   74.2070  220.7290 N   0  0  0  0  0  0  0  0  0  0  0  0
  139.3880   75.5230  221.3390 C   0  0  0  0  0  0  0  0  0  0  0  0
  140.7320   75.6950  221.9660 C   0  0  2  0  0  0  0  0  0  0  0  0
  141.0730   77.0460  221.9240 O   0  0  0  0  0  0  0  0  0  0  0  0
  141.6430   74.9030  221.0460 C   0  0  0  0  0  0  0  0  0  0  0  0
  140.8070   73.7340  220.6470 C   0  0  1  0  0  0  0  0  0  0  0  0
  140.9190   72.5780  221.6190 C   0  0  0  0  0  0  0  0  0  0  0  0
  140.5000   72.9410  222.8960 O   0  0  0  0  0  0  0  0  0  0  0  0
  138.4770   70.5300  223.7830 C   0  0  0  0  0  0  0  0  0  0  0  0
  138.3940   69.1730  224.0170 C   0  0  0  0  0  0  0  0  0  0  0  0
  138.9700   68.5530  225.1030 C   0  0  0  0  0  0  0  0  0  0  0  0
  139.6620   69.3560  225.9930 C   0  0  0  0  0  0  0  0  0  0  0  0
  140.2620   68.8210  227.0950 C   0  0  0  0  0  0  0  0  0  0  0  0
  140.9600   69.5810  228.0060 C   0  0  0  0  0  0  0  0  0  0  0  0
  141.0300   70.9530  227.7470 C   0  0  0  0  0  0  0  0  0  0  0  0
  140.4260   71.5070  226.6320 C   0  0  0  0  0  0  0  0  0  0  0  0
  139.7260   70.7100  225.7290 C   0  0  0  0  0  0  0  0  0  0  0  0
  139.1500   71.2800  224.6550 N   0  0  0  0  0  0  0  0  0  0  0  0
  138.3500   73.0790  223.1220 H   0  0  0  0  0  0  0  0  0  0  0  0
  136.5180   72.3939  220.7686 H   0  0  0  0  0  0  0  0  0  0  0  0
  136.6604   74.0048  221.5154 H   0  0  0  0  0  0  0  0  0  0  0  0
  139.2162   76.2974  220.5770 H   0  0  0  0  0  0  0  0  0  0  0  0
  138.5763   75.6163  222.0755 H   0  0  0  0  0  0  0  0  0  0  0  0
  140.7869   75.3655  223.0140 H   0  0  0  0  0  0  0  0  0  0  0  0
  142.0670   77.1020  222.0010 H   0  0  0  0  0  0  0  0  0  0  0  0
  141.9289   75.4997  220.1673 H   0  0  0  0  0  0  0  0  0  0  0  0
  142.5870   74.6090  221.5282 H   0  0  0  0  0  0  0  0  0  0  0  0
  141.1265   73.3823  219.6549 H   0  0  0  0  0  0  0  0  0  0  0  0
  140.2930   71.7477  221.2602 H   0  0  0  0  0  0  0  0  0  0  0  0
  141.9754   72.2767  221.6757 H   0  0  0  0  0  0  0  0  0  0  0  0
  140.0730   72.1670  223.3550 H   0  0  0  0  0  0  0  0  0  0  0  0
  137.8382   68.5535  223.2978 H   0  0  0  0  0  0  0  0  0  0  0  0
  138.8840   67.4672  225.2566 H   0  0  0  0  0  0  0  0  0  0  0  0
  140.1848   67.7366  227.2627 H   0  0  0  0  0  0  0  0  0  0  0  0
  141.4370   69.1329  228.8901 H   0  0  0  0  0  0  0  0  0  0  0  0
  141.5764   71.6056  228.4438 H   0  0  0  0  0  0  0  0  0  0  0  0
  140.4995   72.5904  226.4565 H   0  0  0  0  0  0  0  0  0  0  0  0
  1  2  2  0
  2  3  1  0
  3  4  1  0
  4  5  1  0
  5  6  2  0
  5  7  1  0
  7  8  1  0
  8  9  1  0
  9 10  1  0
  9 11  1  0
 11 12  1  0
 12 13  1  0
 13 14  1  0
  2 15  1  0
 15 16  2  0
 16 17  1  0
 17 18  2  0
 18 19  1  0
 19 20  2  0
 20 21  1  0
 21 22  2  0
 22 23  1  0
 23 24  2  0
 12  7  1  0
 24 15  1  0
 23 18  1  0
  3 25  1  0
  4 26  1  0
  4 27  1  0
  8 28  1  0
  8 29  1  0
  9 30  1  1
 10 31  1  0
 11 32  1  0
 11 33  1  0
 12 34  1  6
 13 35  1  0
 13 36  1  0
 14 37  1  0
 16 38  1  0
 17 39  1  0
 19 40  1  0
 20 41  1  0
 21 42  1  0
 22 43  1  0
M  END
>  <smiles>  (1) 
O=C(NCC(=O)N1C[C@H](O)C[C@H]1CO)c1ccc2ccccc2n1

>  <score_type>  (1) 
oracle

>  <origin>  (1) 
autodockgpu

>  <m_score__min__energy>  (1) 
-7.0099999999999998

>  <m_primary>  (1) 
energy

>  <rmsd>  (1) 
2.5014616514168098

>  <m_score__min__rmsd>  (1) 
2.5014616514168098

>  <meeko>  (1) 
{"free_energy": -5.72, "intermolecular_energy": -7.81, "internal_energy": -2.92, "cluster_size": 18, "cluster_id": 2, "rank_in_cluster": 16}

>  <energy>  (1) 
-7.01

>  <cluster_rmsd>  (1) 
0.0

>  <cluster>  (1) 
1

$$$$

     RDKit          3D

 43 45  0  0  0  0  0  0  0  0999 V2000
  141.4270   73.1160  221.7540 O   0  0  0  0  0  0  0  0  0  0  0  0
  140.3640   73.0110  222.4430 C   0  0  0  0  0  0  0  0  0  0  0  0
  139.3140   73.9910  222.3460 N   0  0  0  0  0  0  0  0  0  0  0  0
  139.4320   75.1280  221.4610 C   0  0  0  0  0  0  0  0  0  0  0  0
  138.8650   76.3070  222.1720 C   0  0  0  0  0  0  0  0  0  0  0  0
  137.6600   76.2960  222.5350 O   0  0  0  0  0  0  0  0  0  0  0  0
  139.7180   77.4260  222.4190 N   0  0  0  0  0  0  0  0  0  0  0  0
  141.1310   77.5410  222.1060 C   0  0  0  0  0  0  0  0  0  0  0  0
  141.4410   78.9970  222.2200 C   0  0  2  0  0  0  0  0  0  0  0  0
  142.7600   79.1380  222.6510 O   0  0  0  0  0  0  0  0  0  0  0  0
  140.4890   79.4660  223.3040 C   0  0  0  0  0  0  0  0  0  0  0  0
  139.2550   78.6680  223.0560 C   0  0  1  0  0  0  0  0  0  0  0  0
  138.3210   79.3290  222.0640 C   0  0  0  0  0  0  0  0  0  0  0  0
  137.0070   78.9060  222.2400 O   0  0  0  0  0  0  0  0  0  0  0  0
  140.1780   71.8780  223.3620 C   0  0  0  0  0  0  0  0  0  0  0  0
  139.4860   70.7720  222.9140 C   0  0  0  0  0  0  0  0  0  0  0  0
  139.2540   69.6570  223.6850 C   0  0  0  0  0  0  0  0  0  0  0  0
  139.7500   69.6700  224.9780 C   0  0  0  0  0  0  0  0  0  0  0  0
  139.5630   68.6040  225.8080 C   0  0  0  0  0  0  0  0  0  0  0  0
  140.0380   68.5740  227.0990 C   0  0  0  0  0  0  0  0  0  0  0  0
  140.7360   69.7050  227.5320 C   0  0  0  0  0  0  0  0  0  0  0  0
  140.9330   70.7930  226.6980 C   0  0  0  0  0  0  0  0  0  0  0  0
  140.4380   70.7910  225.3960 C   0  0  0  0  0  0  0  0  0  0  0  0
  140.6460   71.8650  224.6110 N   0  0  0  0  0  0  0  0  0  0  0  0
  138.4550   73.8320  222.9540 H   0  0  0  0  0  0  0  0  0  0  0  0
  140.4899   75.3079  221.2191 H   0  0  0  0  0  0  0  0  0  0  0  0
  138.8920   74.9454  220.5202 H   0  0  0  0  0  0  0  0  0  0  0  0
  141.7328   76.9615  222.8215 H   0  0  0  0  0  0  0  0  0  0  0  0
  141.3631   77.1488  221.1049 H   0  0  0  0  0  0  0  0  0  0  0  0
  141.3313   79.5577  221.2800 H   0  0  0  0  0  0  0  0  0  0  0  0
  143.3380   78.6660  221.9870 H   0  0  0  0  0  0  0  0  0  0  0  0
  140.8980   79.2565  224.3034 H   0  0  0  0  0  0  0  0  0  0  0  0
  140.3094   80.5509  223.2751 H   0  0  0  0  0  0  0  0  0  0  0  0
  138.7137   78.5369  224.0046 H   0  0  0  0  0  0  0  0  0  0  0  0
  138.3669   80.4194  222.2018 H   0  0  0  0  0  0  0  0  0  0  0  0
  138.6407   79.0485  221.0496 H   0  0  0  0  0  0  0  0  0  0  0  0
  136.9800   77.9380  222.4720 H   0  0  0  0  0  0  0  0  0  0  0  0
  139.0988   70.7824  221.8845 H   0  0  0  0  0  0  0  0  0  0  0  0
  138.6987   68.7926  223.2918 H   0  0  0  0  0  0  0  0  0  0  0  0
  139.0095   67.7320  225.4296 H   0  0  0  0  0  0  0  0  0  0  0  0
  139.8770   67.7061  227.7554 H   0  0  0  0  0  0  0  0  0  0  0  0
  141.1370   69.7314  228.5560 H   0  0  0  0  0  0  0  0  0  0  0  0
  141.4866   71.6686  227.0680 H   0  0  0  0  0  0  0  0  0  0  0  0
  1  2  2  0
  2  3  1  0
  3  4  1  0
  4  5  1  0
  5  6  2  0
  5  7  1  0
  7  8  1  0
  8  9  1  0
  9 10  1  0
  9 11  1  0
 11 12  1  0
 12 13  1  0
 13 14  1  0
  2 15  1  0
 15 16  2  0
 16 17  1  0
 17 18  2  0
 18 19  1  0
 19 20  2  0
 20 21  1  0
 21 22  2  0
 22 23  1  0
 23 24  2  0
 12  7  1  0
 24 15  1  0
 23 18  1  0
  3 25  1  0
  4 26  1  0
  4 27  1  0
  8 28  1  0
  8 29  1  0
  9 30  1  6
 10 31  1  0
 11 32  1  0
 11 33  1  0
 12 34  1  1
 13 35  1  0
 13 36  1  0
 14 37  1  0
 16 38  1  0
 17 39  1  0
 19 40  1  0
 20 41  1  0
 21 42  1  0
 22 43  1  0
M  END
>  <smiles>  (2) 
O=C(NCC(=O)N1C[C@H](O)C[C@H]1CO)c1ccc2ccccc2n1

>  <score_type>  (2) 
oracle

>  <origin>  (2) 
autodockgpu

>  <m_score__min__energy>  (2) 
-7.0099999999999998

>  <m_primary>  (2) 
energy

>  <rmsd>  (2) 
3.295746597008136

>  <m_score__min__rmsd>  (2) 
3.295746597008136

>  <meeko>  (2) 
{"free_energy": -6.49, "intermolecular_energy": -8.58, "internal_energy": -1.75, "cluster_size": 5, "cluster_id": 3, "rank_in_cluster": 1}

>  <energy>  (2) 
-7.01

>  <cluster_rmsd>  (2) 
0.03

>  <cluster>  (2) 
1

$$$$

     RDKit          3D

 43 45  0  0  0  0  0  0  0  0999 V2000
  140.9690   73.4290  220.8200 O   0  0  0  0  0  0  0  0  0  0  0  0
  140.2960   73.5170  221.8950 C   0  0  0  0  0  0  0  0  0  0  0  0
  139.7520   74.7780  222.3300 N   0  0  0  0  0  0  0  0  0  0  0  0
  139.9530   75.9850  221.5610 C   0  0  0  0  0  0  0  0  0  0  0  0
  139.4290   77.1200  222.3670 C   0  0  0  0  0  0  0  0  0  0  0  0
  138.2610   77.0680  222.8320 O   0  0  0  0  0  0  0  0  0  0  0  0
  140.2800   78.2480  222.5870 N   0  0  0  0  0  0  0  0  0  0  0  0
  141.5830   78.4930  221.9970 C   0  0  0  0  0  0  0  0  0  0  0  0
  141.8640   79.9360  222.2540 C   0  0  2  0  0  0  0  0  0  0  0  0
  143.2400   80.1010  222.4070 O   0  0  0  0  0  0  0  0  0  0  0  0
  141.1630   80.1920  223.5750 C   0  0  0  0  0  0  0  0  0  0  0  0
  139.9300   79.3590  223.4840 C   0  0  1  0  0  0  0  0  0  0  0  0
  138.7780   80.0880  222.8250 C   0  0  0  0  0  0  0  0  0  0  0  0
  137.5490   79.6200  223.2800 O   0  0  0  0  0  0  0  0  0  0  0  0
  140.0530   72.3280  222.7250 C   0  0  0  0  0  0  0  0  0  0  0  0
  139.4540   71.2300  222.1440 C   0  0  0  0  0  0  0  0  0  0  0  0
  139.1810   70.0650  222.8240 C   0  0  0  0  0  0  0  0  0  0  0  0
  139.5330   70.0190  224.1620 C   0  0  0  0  0  0  0  0  0  0  0  0
  139.2960   68.9010  224.9080 C   0  0  0  0  0  0  0  0  0  0  0  0
  139.6300   68.8120  226.2400 C   0  0  0  0  0  0  0  0  0  0  0  0
  140.2350   69.9370  226.8070 C   0  0  0  0  0  0  0  0  0  0  0  0
  140.4810   71.0760  226.0600 C   0  0  0  0  0  0  0  0  0  0  0  0
  140.1300   71.1350  224.7130 C   0  0  0  0  0  0  0  0  0  0  0  0
  140.3830   72.2570  224.0150 N   0  0  0  0  0  0  0  0  0  0  0  0
  139.2000   74.7700  223.2400 H   0  0  0  0  0  0  0  0  0  0  0  0
  141.0251   76.1292  221.3615 H   0  0  0  0  0  0  0  0  0  0  0  0
  139.4302   75.9212  220.5953 H   0  0  0  0  0  0  0  0  0  0  0  0
  142.3469   77.8606  222.4728 H   0  0  0  0  0  0  0  0  0  0  0  0
  141.5990   78.2560  220.9229 H   0  0  0  0  0  0  0  0  0  0  0  0
  141.5300   80.6107  221.4520 H   0  0  0  0  0  0  0  0  0  0  0  0
  143.6790   79.3010  222.0000 H   0  0  0  0  0  0  0  0  0  0  0  0
  141.7904   79.8740  224.4208 H   0  0  0  0  0  0  0  0  0  0  0  0
  140.9479   81.2572  223.7456 H   0  0  0  0  0  0  0  0  0  0  0  0
  139.6168   79.0662  224.4970 H   0  0  0  0  0  0  0  0  0  0  0  0
  138.8578   81.1613  223.0523 H   0  0  0  0  0  0  0  0  0  0  0  0
  138.8338   79.9112  221.7407 H   0  0  0  0  0  0  0  0  0  0  0  0
  137.5380   78.6240  223.2910 H   0  0  0  0  0  0  0  0  0  0  0  0
  139.1798   71.2885  221.0803 H   0  0  0  0  0  0  0  0  0  0  0  0
  138.7040   69.2080  222.3261 H   0  0  0  0  0  0  0  0  0  0  0  0
  138.8185   68.0358  224.4249 H   0  0  0  0  0  0  0  0  0  0  0  0
  139.4313   67.9034  226.8274 H   0  0  0  0  0  0  0  0  0  0  0  0
  140.5216   69.9169  227.8688 H   0  0  0  0  0  0  0  0  0  0  0  0
  140.9593   71.9450  226.5355 H   0  0  0  0  0  0  0  0  0  0  0  0
  1  2  2  0
  2  3  1  0
  3  4  1  0
  4  5  1  0
  5  6  2  0
  5  7  1  0
  7  8  1  0
  8  9  1  0
  9 10  1  0
  9 11  1  0
 11 12  1  0
 12 13  1  0
 13 14  1  0
  2 15  1  0
 15 16  2  0
 16 17  1  0
 17 18  2  0
 18 19  1  0
 19 20  2  0
 20 21  1  0
 21 22  2  0
 22 23  1  0
 23 24  2  0
 12  7  1  0
 24 15  1  0
 23 18  1  0
  3 25  1  0
  4 26  1  0
  4 27  1  0
  8 28  1  0
  8 29  1  0
  9 30  1  6
 10 31  1  0
 11 32  1  0
 11 33  1  0
 12 34  1  1
 13 35  1  0
 13 36  1  0
 14 37  1  0
 16 38  1  0
 17 39  1  0
 19 40  1  0
 20 41  1  0
 21 42  1  0
 22 43  1  0
M  END
>  <smiles>  (3) 
O=C(NCC(=O)N1C[C@H](O)C[C@H]1CO)c1ccc2ccccc2n1

>  <score_type>  (3) 
oracle

>  <origin>  (3) 
autodockgpu

>  <m_score__min__energy>  (3) 
-7.0099999999999998

>  <m_primary>  (3) 
energy

>  <rmsd>  (3) 
3.801240080636823

>  <m_score__min__rmsd>  (3) 
3.801240080636823

>  <meeko>  (3) 
{"free_energy": -6.23, "intermolecular_energy": -8.32, "internal_energy": -1.84, "cluster_size": 5, "cluster_id": 3, "rank_in_cluster": 4}

>  <energy>  (3) 
-7.0

>  <cluster_rmsd>  (3) 
0.06

>  <cluster>  (3) 
1

$$$$

     RDKit          3D

 43 45  0  0  0  0  0  0  0  0999 V2000
  139.6960   74.4320  222.3380 O   0  0  0  0  0  0  0  0  0  0  0  0
  140.2500   75.3540  221.6610 C   0  0  0  0  0  0  0  0  0  0  0  0
  140.8440   75.0810  220.3780 N   0  0  0  0  0  0  0  0  0  0  0  0
  140.8320   73.7490  219.8170 C   0  0  0  0  0  0  0  0  0  0  0  0
  141.7380   72.9080  220.6450 C   0  0  0  0  0  0  0  0  0  0  0  0
  141.2550   72.1650  221.5390 O   0  0  0  0  0  0  0  0  0  0  0  0
  143.1440   72.9740  220.3960 N   0  0  0  0  0  0  0  0  0  0  0  0
  144.0030   71.9030  219.9240 C   0  0  0  0  0  0  0  0  0  0  0  0
  145.2620   72.5760  219.4850 C   0  0  2  0  0  0  0  0  0  0  0  0
  146.3300   71.7070  219.7050 O   0  0  0  0  0  0  0  0  0  0  0  0
  145.3600   73.7640  220.4240 C   0  0  0  0  0  0  0  0  0  0  0  0
  143.9420   74.1910  220.5970 C   0  0  1  0  0  0  0  0  0  0  0  0
  143.4930   75.1720  219.5340 C   0  0  0  0  0  0  0  0  0  0  0  0
  143.2150   76.4230  220.0780 O   0  0  0  0  0  0  0  0  0  0  0  0
  140.2970   76.7320  222.1730 C   0  0  0  0  0  0  0  0  0  0  0  0
  139.1200   77.3240  222.5820 C   0  0  0  0  0  0  0  0  0  0  0  0
  139.0460   78.6050  223.0780 C   0  0  0  0  0  0  0  0  0  0  0  0
  140.2290   79.3190  223.1590 C   0  0  0  0  0  0  0  0  0  0  0  0
  140.2430   80.5960  223.6390 C   0  0  0  0  0  0  0  0  0  0  0  0
  141.3960   81.3410  223.7380 C   0  0  0  0  0  0  0  0  0  0  0  0
  142.5760   80.7210  223.3180 C   0  0  0  0  0  0  0  0  0  0  0  0
  142.5740   79.4260  222.8300 C   0  0  0  0  0  0  0  0  0  0  0  0
  141.3900   78.6980  222.7420 C   0  0  0  0  0  0  0  0  0  0  0  0
  141.4230   77.4410  222.2630 N   0  0  0  0  0  0  0  0  0  0  0  0
  141.2870   75.9060  219.8730 H   0  0  0  0  0  0  0  0  0  0  0  0
  139.8114   73.3396  219.8428 H   0  0  0  0  0  0  0  0  0  0  0  0
  141.1681   73.7662  218.7697 H   0  0  0  0  0  0  0  0  0  0  0  0
  144.2098   71.1887  220.7345 H   0  0  0  0  0  0  0  0  0  0  0  0
  143.5366   71.3308  219.1085 H   0  0  0  0  0  0  0  0  0  0  0  0
  145.2743   72.8645  218.4236 H   0  0  0  0  0  0  0  0  0  0  0  0
  146.3520   71.5100  220.6840 H   0  0  0  0  0  0  0  0  0  0  0  0
  145.8015   73.4682  221.3871 H   0  0  0  0  0  0  0  0  0  0  0  0
  146.0036   74.5660  220.0334 H   0  0  0  0  0  0  0  0  0  0  0  0
  143.8273   74.6718  221.5797 H   0  0  0  0  0  0  0  0  0  0  0  0
  144.2916   75.2776  218.7850 H   0  0  0  0  0  0  0  0  0  0  0  0
  142.5725   74.7840  219.0734 H   0  0  0  0  0  0  0  0  0  0  0  0
  142.7440   76.3270  220.9500 H   0  0  0  0  0  0  0  0  0  0  0  0
  138.1906   76.7403  222.5075 H   0  0  0  0  0  0  0  0  0  0  0  0
  138.0884   79.0428  223.3964 H   0  0  0  0  0  0  0  0  0  0  0  0
  139.2934   81.0489  223.9602 H   0  0  0  0  0  0  0  0  0  0  0  0
  141.3891   82.3699  224.1271 H   0  0  0  0  0  0  0  0  0  0  0  0
  143.5254   81.2734  223.3765 H   0  0  0  0  0  0  0  0  0  0  0  0
  143.5196   78.9658  222.5075 H   0  0  0  0  0  0  0  0  0  0  0  0
  1  2  2  0
  2  3  1  0
  3  4  1  0
  4  5  1  0
  5  6  2  0
  5  7  1  0
  7  8  1  0
  8  9  1  0
  9 10  1  0
  9 11  1  0
 11 12  1  0
 12 13  1  0
 13 14  1  0
  2 15  1  0
 15 16  2  0
 16 17  1  0
 17 18  2  0
 18 19  1  0
 19 20  2  0
 20 21  1  0
 21 22  2  0
 22 23  1  0
 23 24  2  0
 12  7  1  0
 24 15  1  0
 23 18  1  0
  3 25  1  0
  4 26  1  0
  4 27  1  0
  8 28  1  0
  8 29  1  0
  9 30  1  6
 10 31  1  0
 11 32  1  0
 11 33  1  0
 12 34  1  1
 13 35  1  0
 13 36  1  0
 14 37  1  0
 16 38  1  0
 17 39  1  0
 19 40  1  0
 20 41  1  0
 21 42  1  0
 22 43  1  0
M  END
>  <smiles>  (4) 
O=C(NCC(=O)N1C[C@H](O)C[C@H]1CO)c1ccc2ccccc2n1

>  <score_type>  (4) 
oracle

>  <origin>  (4) 
autodockgpu

>  <m_score__min__energy>  (4) 
-7.0099999999999998

>  <m_primary>  (4) 
energy

>  <rmsd>  (4) 
7.572518100110991

>  <m_score__min__rmsd>  (4) 
7.572518100110991

>  <meeko>  (4) 
{"free_energy": -6.99, "intermolecular_energy": -9.08, "internal_energy": -2.26, "cluster_size": 19, "cluster_id": 1, "rank_in_cluster": 7}

>  <energy>  (4) 
-7.0

>  <cluster_rmsd>  (4) 
0.03

>  <cluster>  (4) 
1

$$$$

     RDKit          3D

 43 45  0  0  0  0  0  0  0  0999 V2000
  139.6870   71.3150  220.9800 O   0  0  0  0  0  0  0  0  0  0  0  0
  140.0930   71.9520  222.0030 C   0  0  0  0  0  0  0  0  0  0  0  0
  140.5900   73.2990  221.8910 N   0  0  0  0  0  0  0  0  0  0  0  0
  140.6440   73.9720  220.6130 C   0  0  0  0  0  0  0  0  0  0  0  0
  141.2690   75.3040  220.8370 C   0  0  0  0  0  0  0  0  0  0  0  0
  141.2110   75.8380  221.9750 O   0  0  0  0  0  0  0  0  0  0  0  0
  141.9210   75.9430  219.7370 N   0  0  0  0  0  0  0  0  0  0  0  0
  141.7980   77.3300  219.3280 C   0  0  0  0  0  0  0  0  0  0  0  0
  142.9360   77.5640  218.3900 C   0  0  2  0  0  0  0  0  0  0  0  0
  142.5430   78.5070  217.4400 O   0  0  0  0  0  0  0  0  0  0  0  0
  143.1210   76.2110  217.7300 C   0  0  0  0  0  0  0  0  0  0  0  0
  142.8440   75.2440  218.8310 C   0  0  1  0  0  0  0  0  0  0  0  0
  144.0770   74.9220  219.6490 C   0  0  0  0  0  0  0  0  0  0  0  0
  143.7420   74.3550  220.8760 O   0  0  0  0  0  0  0  0  0  0  0  0
  140.0660   71.3270  223.3340 C   0  0  0  0  0  0  0  0  0  0  0  0
  139.4640   70.0930  223.4690 C   0  0  0  0  0  0  0  0  0  0  0  0
  139.3810   69.4160  224.6650 C   0  0  0  0  0  0  0  0  0  0  0  0
  139.9370   70.0270  225.7750 C   0  0  0  0  0  0  0  0  0  0  0  0
  139.8970   69.4220  226.9980 C   0  0  0  0  0  0  0  0  0  0  0  0
  140.4370   69.9930  228.1280 C   0  0  0  0  0  0  0  0  0  0  0  0
  141.0420   71.2420  227.9650 C   0  0  0  0  0  0  0  0  0  0  0  0
  141.0890   71.8650  226.7300 C   0  0  0  0  0  0  0  0  0  0  0  0
  140.5320   71.2610  225.6050 C   0  0  0  0  0  0  0  0  0  0  0  0
  140.5950   71.8930  224.4190 N   0  0  0  0  0  0  0  0  0  0  0  0
  140.9110   73.7650  222.7920 H   0  0  0  0  0  0  0  0  0  0  0  0
  141.2496   73.3868  219.9053 H   0  0  0  0  0  0  0  0  0  0  0  0
  139.6348   74.0830  220.1897 H   0  0  0  0  0  0  0  0  0  0  0  0
  140.8376   77.4983  218.8188 H   0  0  0  0  0  0  0  0  0  0  0  0
  141.8259   78.0160  220.1874 H   0  0  0  0  0  0  0  0  0  0  0  0
  143.8515   77.9342  218.8746 H   0  0  0  0  0  0  0  0  0  0  0  0
  143.3740   78.9330  217.0870 H   0  0  0  0  0  0  0  0  0  0  0  0
  142.4098   76.0774  216.9015 H   0  0  0  0  0  0  0  0  0  0  0  0
  144.1208   76.0830  217.2896 H   0  0  0  0  0  0  0  0  0  0  0  0
  142.4612   74.3067  218.4009 H   0  0  0  0  0  0  0  0  0  0  0  0
  144.7037   74.2137  219.0872 H   0  0  0  0  0  0  0  0  0  0  0  0
  144.6196   75.8598  219.8389 H   0  0  0  0  0  0  0  0  0  0  0  0
  143.2600   75.0150  221.4450 H   0  0  0  0  0  0  0  0  0  0  0  0
  139.0274   69.6255  222.5741 H   0  0  0  0  0  0  0  0  0  0  0  0
  138.8939   68.4322  224.7350 H   0  0  0  0  0  0  0  0  0  0  0  0
  139.4134   68.4378  227.0840 H   0  0  0  0  0  0  0  0  0  0  0  0
  140.3946   69.4929  229.1069 H   0  0  0  0  0  0  0  0  0  0  0  0
  141.4905   71.7407  228.8369 H   0  0  0  0  0  0  0  0  0  0  0  0
  141.5719   72.8488  226.6356 H   0  0  0  0  0  0  0  0  0  0  0  0
  1  2  2  0
  2  3  1  0
  3  4  1  0
  4  5  1  0
  5  6  2  0
  5  7  1  0
  7  8  1  0
  8  9  1  0
  9 10  1  0
  9 11  1  0
 11 12  1  0
 12 13  1  0
 13 14  1  0
  2 15  1  0
 15 16  2  0
 16 17  1  0
 17 18  2  0
 18 19  1  0
 19 20  2  0
 20 21  1  0
 21 22  2  0
 22 23  1  0
 23 24  2  0
 12  7  1  0
 24 15  1  0
 23 18  1  0
  3 25  1  0
  4 26  1  0
  4 27  1  0
  8 28  1  0
  8 29  1  0
  9 30  1  1
 10 31  1  0
 11 32  1  0
 11 33  1  0
 12 34  1  6
 13 35  1  0
 13 36  1  0
 14 37  1  0
 16 38  1  0
 17 39  1  0
 19 40  1  0
 20 41  1  0
 21 42  1  0
 22 43  1  0
M  END
>  <smiles>  (5) 
O=C(NCC(=O)N1C[C@H](O)C[C@H]1CO)c1ccc2ccccc2n1

>  <score_type>  (5) 
oracle

>  <origin>  (5) 
autodockgpu

>  <m_score__min__energy>  (5) 
-7.0099999999999998

>  <m_primary>  (5) 
energy

>  <rmsd>  (5) 
2.3649225512210426

>  <m_score__min__rmsd>  (5) 
2.3649225512210426

>  <meeko>  (5) 
{"free_energy": -6.3, "intermolecular_energy": -8.39, "internal_energy": -2.08, "cluster_size": 18, "cluster_id": 2, "rank_in_cluster": 10}

>  <energy>  (5) 
-7.0

>  <cluster_rmsd>  (5) 
0.03

>  <cluster>  (5) 
1

$$$$

     RDKit          3D

 43 45  0  0  0  0  0  0  0  0999 V2000
  137.4420   70.3390  221.7570 O   0  0  0  0  0  0  0  0  0  0  0  0
  138.0070   71.1240  222.5820 C   0  0  0  0  0  0  0  0  0  0  0  0
  138.0470   72.5450  222.3490 N   0  0  0  0  0  0  0  0  0  0  0  0
  137.4470   73.1250  221.1690 C   0  0  0  0  0  0  0  0  0  0  0  0
  138.5510   73.4740  220.2330 C   0  0  0  0  0  0  0  0  0  0  0  0
  138.5310   73.0340  219.0540 O   0  0  0  0  0  0  0  0  0  0  0  0
  139.6110   74.3040  220.7110 N   0  0  0  0  0  0  0  0  0  0  0  0
  139.4880   75.5810  221.3910 C   0  0  0  0  0  0  0  0  0  0  0  0
  140.8310   75.8370  221.9900 C   0  0  2  0  0  0  0  0  0  0  0  0
  141.0540   77.2130  222.0110 O   0  0  0  0  0  0  0  0  0  0  0  0
  141.7770   75.1740  221.0070 C   0  0  0  0  0  0  0  0  0  0  0  0
  141.0330   73.9590  220.5690 C   0  0  1  0  0  0  0  0  0  0  0  0
  141.2720   72.7690  221.4750 C   0  0  0  0  0  0  0  0  0  0  0  0
  140.6690   72.9440  222.7180 O   0  0  0  0  0  0  0  0  0  0  0  0
  138.6360   70.5990  223.8030 C   0  0  0  0  0  0  0  0  0  0  0  0
  138.5230   69.2520  224.0760 C   0  0  0  0  0  0  0  0  0  0  0  0
  139.0720   68.6530  225.1870 C   0  0  0  0  0  0  0  0  0  0  0  0
  139.7680   69.4680  226.0630 C   0  0  0  0  0  0  0  0  0  0  0  0
  140.3420   68.9540  227.1890 C   0  0  0  0  0  0  0  0  0  0  0  0
  141.0420   69.7270  228.0870 C   0  0  0  0  0  0  0  0  0  0  0  0
  141.1430   71.0890  227.7900 C   0  0  0  0  0  0  0  0  0  0  0  0
  140.5650   71.6220  226.6510 C   0  0  0  0  0  0  0  0  0  0  0  0
  139.8620   70.8120  225.7620 C   0  0  0  0  0  0  0  0  0  0  0  0
  139.3120   71.3620  224.6640 N   0  0  0  0  0  0  0  0  0  0  0  0
  138.5360   73.1350  223.0860 H   0  0  0  0  0  0  0  0  0  0  0  0
  136.7691   72.3990  220.6965 H   0  0  0  0  0  0  0  0  0  0  0  0
  136.8626   74.0195  221.4305 H   0  0  0  0  0  0  0  0  0  0  0  0
  139.2269   76.3751  220.6760 H   0  0  0  0  0  0  0  0  0  0  0  0
  138.6945   75.5662  222.1526 H   0  0  0  0  0  0  0  0  0  0  0  0
  140.9463   75.4611  223.0173 H   0  0  0  0  0  0  0  0  0  0  0  0
  142.0420   77.3520  221.9900 H   0  0  0  0  0  0  0  0  0  0  0  0
  141.9842   75.8365  220.1537 H   0  0  0  0  0  0  0  0  0  0  0  0
  142.7565   74.9390  221.4489 H   0  0  0  0  0  0  0  0  0  0  0  0
  141.3522   73.6873  219.5520 H   0  0  0  0  0  0  0  0  0  0  0  0
  140.8558   71.8686  220.9995 H   0  0  0  0  0  0  0  0  0  0  0  0
  142.3562   72.6652  221.6292 H   0  0  0  0  0  0  0  0  0  0  0  0
  140.4390   72.0630  223.1200 H   0  0  0  0  0  0  0  0  0  0  0  0
  137.9641   68.6225  223.3679 H   0  0  0  0  0  0  0  0  0  0  0  0
  138.9625   67.5740  225.3707 H   0  0  0  0  0  0  0  0  0  0  0  0
  140.2410   67.8767  227.3873 H   0  0  0  0  0  0  0  0  0  0  0  0
  141.4978   69.2958  228.9905 H   0  0  0  0  0  0  0  0  0  0  0  0
  141.6930   71.7507  228.4753 H   0  0  0  0  0  0  0  0  0  0  0  0
  140.6619   72.6982  226.4452 H   0  0  0  0  0  0  0  0  0  0  0  0
  1  2  2  0
  2  3  1  0
  3  4  1  0
  4  5  1  0
  5  6  2  0
  5  7  1  0
  7  8  1  0
  8  9  1  0
  9 10  1  0
  9 11  1  0
 11 12  1  0
 12 13  1  0
 13 14  1  0
  2 15  1  0
 15 16  2  0
 16 17  1  0
 17 18  2  0
 18 19  1  0
 19 20  2  0
 20 21  1  0
 21 22  2  0
 22 23  1  0
 23 24  2  0
 12  7  1  0
 24 15  1  0
 23 18  1  0
  3 25  1  0
  4 26  1  0
  4 27  1  0
  8 28  1  0
  8 29  1  0
  9 30  1  1
 10 31  1  0
 11 32  1  0
 11 33  1  0
 12 34  1  6
 13 35  1  0
 13 36  1  0
 14 37  1  0
 16 38  1  0
 17 39  1  0
 19 40  1  0
 20 41  1  0
 21 42  1  0
 22 43  1  0
M  END
>  <smiles>  (6) 
O=C(NCC(=O)N1C[C@H](O)C[C@H]1CO)c1ccc2ccccc2n1

>  <score_type>  (6) 
oracle

>  <origin>  (6) 
autodockgpu

>  <m_score__min__energy>  (6) 
-7.0099999999999998

>  <m_primary>  (6) 
energy

>  <rmsd>  (6) 
2.4417439334989166

>  <m_score__min__rmsd>  (6) 
2.4417439334989166

>  <meeko>  (6) 
{"free_energy": -5.76, "intermolecular_energy": -7.85, "internal_energy": -2.9, "cluster_size": 18, "cluster_id": 2, "rank_in_cluster": 15}

>  <energy>  (6) 
-6.99

>  <cluster_rmsd>  (6) 
0.03

>  <cluster>  (6) 
1

$$$$

     RDKit          3D

 43 45  0  0  0  0  0  0  0  0999 V2000
  139.4930   74.4880  222.5220 O   0  0  0  0  0  0  0  0  0  0  0  0
  140.1170   75.3620  221.8410 C   0  0  0  0  0  0  0  0  0  0  0  0
  140.7420   75.0230  220.5890 N   0  0  0  0  0  0  0  0  0  0  0  0
  140.6820   73.6770  220.0640 C   0  0  0  0  0  0  0  0  0  0  0  0
  141.7660   73.5450  219.0520 C   0  0  0  0  0  0  0  0  0  0  0  0
  141.4730   73.4520  217.8320 O   0  0  0  0  0  0  0  0  0  0  0  0
  143.1210   73.5250  219.5060 N   0  0  0  0  0  0  0  0  0  0  0  0
  144.1520   72.5660  219.1540 C   0  0  0  0  0  0  0  0  0  0  0  0
  145.4360   73.1950  219.5840 C   0  0  2  0  0  0  0  0  0  0  0  0
  146.3200   72.1860  219.9650 O   0  0  0  0  0  0  0  0  0  0  0  0
  145.0290   74.0120  220.7960 C   0  0  0  0  0  0  0  0  0  0  0  0
  143.6750   74.5210  220.4360 C   0  0  1  0  0  0  0  0  0  0  0  0
  143.7250   75.8290  219.6740 C   0  0  0  0  0  0  0  0  0  0  0  0
  142.7080   76.6920  220.0730 O   0  0  0  0  0  0  0  0  0  0  0  0
  140.2160   76.7500  222.3170 C   0  0  0  0  0  0  0  0  0  0  0  0
  139.0540   77.4210  222.6350 C   0  0  0  0  0  0  0  0  0  0  0  0
  139.0270   78.7200  223.0900 C   0  0  0  0  0  0  0  0  0  0  0  0
  140.2440   79.3650  223.2260 C   0  0  0  0  0  0  0  0  0  0  0  0
  140.3050   80.6540  223.6710 C   0  0  0  0  0  0  0  0  0  0  0  0
  141.4920   81.3330  223.8210 C   0  0  0  0  0  0  0  0  0  0  0  0
  142.6560   80.6320  223.4940 C   0  0  0  0  0  0  0  0  0  0  0  0
  142.6070   79.3250  223.0420 C   0  0  0  0  0  0  0  0  0  0  0  0
  141.3880   78.6650  222.9000 C   0  0  0  0  0  0  0  0  0  0  0  0
  141.3750   77.3940  222.4580 N   0  0  0  0  0  0  0  0  0  0  0  0
  141.2440   75.8100  220.0780 H   0  0  0  0  0  0  0  0  0  0  0  0
  140.8344   72.9499  220.8752 H   0  0  0  0  0  0  0  0  0  0  0  0
  139.6999   73.4811  219.6089 H   0  0  0  0  0  0  0  0  0  0  0  0
  143.9917   71.6155  219.6840 H   0  0  0  0  0  0  0  0  0  0  0  0
  144.1478   72.3345  218.0787 H   0  0  0  0  0  0  0  0  0  0  0  0
  145.9269   73.7972  218.8053 H   0  0  0  0  0  0  0  0  0  0  0  0
  145.9840   71.8120  220.8280 H   0  0  0  0  0  0  0  0  0  0  0  0
  144.9854   73.3829  221.6973 H   0  0  0  0  0  0  0  0  0  0  0  0
  145.7412   74.8177  221.0275 H   0  0  0  0  0  0  0  0  0  0  0  0
  143.0937   74.6805  221.3561 H   0  0  0  0  0  0  0  0  0  0  0  0
  144.6960   76.3123  219.8571 H   0  0  0  0  0  0  0  0  0  0  0  0
  143.5916   75.6101  218.6043 H   0  0  0  0  0  0  0  0  0  0  0  0
  142.7110   76.8000  221.0620 H   0  0  0  0  0  0  0  0  0  0  0  0
  138.0977   76.8900  222.5189 H   0  0  0  0  0  0  0  0  0  0  0  0
  138.0799   79.2232  223.3347 H   0  0  0  0  0  0  0  0  0  0  0  0
  139.3665   81.1710  223.9199 H   0  0  0  0  0  0  0  0  0  0  0  0
  141.5233   82.3725  224.1793 H   0  0  0  0  0  0  0  0  0  0  0  0
  143.6315   81.1296  223.5981 H   0  0  0  0  0  0  0  0  0  0  0  0
  143.5412   78.8009  222.7919 H   0  0  0  0  0  0  0  0  0  0  0  0
  1  2  2  0
  2  3  1  0
  3  4  1  0
  4  5  1  0
  5  6  2  0
  5  7  1  0
  7  8  1  0
  8  9  1  0
  9 10  1  0
  9 11  1  0
 11 12  1  0
 12 13  1  0
 13 14  1  0
  2 15  1  0
 15 16  2  0
 16 17  1  0
 17 18  2  0
 18 19  1  0
 19 20  2  0
 20 21  1  0
 21 22  2  0
 22 23  1  0
 23 24  2  0
 12  7  1  0
 24 15  1  0
 23 18  1  0
  3 25  1  0
  4 26  1  0
  4 27  1  0
  8 28  1  0
  8 29  1  0
  9 30  1  6
 10 31  1  0
 11 32  1  0
 11 33  1  0
 12 34  1  1
 13 35  1  0
 13 36  1  0
 14 37  1  0
 16 38  1  0
 17 39  1  0
 19 40  1  0
 20 41  1  0
 21 42  1  0
 22 43  1  0
M  END
>  <smiles>  (7) 
O=C(NCC(=O)N1C[C@H](O)C[C@H]1CO)c1ccc2ccccc2n1

>  <score_type>  (7) 
oracle

>  <origin>  (7) 
autodockgpu

>  <m_score__min__energy>  (7) 
-7.0099999999999998

>  <m_primary>  (7) 
energy

>  <rmsd>  (7) 
7.52462262688854

>  <m_score__min__rmsd>  (7) 
7.52462262688854

>  <meeko>  (7) 
{"free_energy": -6.62, "intermolecular_energy": -8.7, "internal_energy": -2.6, "cluster_size": 19, "cluster_id": 1, "rank_in_cluster": 15}

>  <energy>  (7) 
-6.99

>  <cluster_rmsd>  (7) 
0.89

>  <cluster>  (7) 
1

$$$$

     RDKit          3D

 43 45  0  0  0  0  0  0  0  0999 V2000
  139.3400   74.7440  222.1580 O   0  0  0  0  0  0  0  0  0  0  0  0
  140.3620   75.4740  221.9600 C   0  0  0  0  0  0  0  0  0  0  0  0
  141.5530   74.9370  221.3520 N   0  0  0  0  0  0  0  0  0  0  0  0
  141.6260   73.5510  220.9480 C   0  0  0  0  0  0  0  0  0  0  0  0
  142.9870   73.3210  220.3910 C   0  0  0  0  0  0  0  0  0  0  0  0
  143.8040   74.2760  220.3240 O   0  0  0  0  0  0  0  0  0  0  0  0
  143.3240   72.0060  219.9450 N   0  0  0  0  0  0  0  0  0  0  0  0
  142.4130   70.9080  219.6760 C   0  0  0  0  0  0  0  0  0  0  0  0
  143.2140   69.9150  218.9000 C   0  0  2  0  0  0  0  0  0  0  0  0
  142.7510   68.6350  219.2060 O   0  0  0  0  0  0  0  0  0  0  0  0
  144.6160   70.1030  219.4480 C   0  0  0  0  0  0  0  0  0  0  0  0
  144.7050   71.5710  219.6870 C   0  0  1  0  0  0  0  0  0  0  0  0
  145.1680   72.3360  218.4650 C   0  0  0  0  0  0  0  0  0  0  0  0
  146.0820   73.3310  218.8000 O   0  0  0  0  0  0  0  0  0  0  0  0
  140.3550   76.8920  222.3460 C   0  0  0  0  0  0  0  0  0  0  0  0
  139.1400   77.5190  222.5310 C   0  0  0  0  0  0  0  0  0  0  0  0
  139.0130   78.8400  222.8940 C   0  0  0  0  0  0  0  0  0  0  0  0
  140.1830   79.5580  223.0760 C   0  0  0  0  0  0  0  0  0  0  0  0
  140.1450   80.8740  223.4350 C   0  0  0  0  0  0  0  0  0  0  0  0
  141.2820   81.6250  223.6270 C   0  0  0  0  0  0  0  0  0  0  0  0
  142.5020   80.9690  223.4350 C   0  0  0  0  0  0  0  0  0  0  0  0
  142.5520   79.6350  223.0700 C   0  0  0  0  0  0  0  0  0  0  0  0
  141.3820   78.9020  222.8830 C   0  0  0  0  0  0  0  0  0  0  0  0
  141.4660   77.6070  222.5290 N   0  0  0  0  0  0  0  0  0  0  0  0
  142.3650   75.6110  221.2190 H   0  0  0  0  0  0  0  0  0  0  0  0
  141.4597   72.8969  221.8166 H   0  0  0  0  0  0  0  0  0  0  0  0
  140.8553   73.3243  220.1966 H   0  0  0  0  0  0  0  0  0  0  0  0
  142.0555   70.4642  220.6169 H   0  0  0  0  0  0  0  0  0  0  0  0
  141.5220   71.2395  219.1227 H   0  0  0  0  0  0  0  0  0  0  0  0
  143.1585   70.0425  217.8088 H   0  0  0  0  0  0  0  0  0  0  0  0
  142.2660   68.2980  218.4010 H   0  0  0  0  0  0  0  0  0  0  0  0
  144.7494   69.5436  220.3857 H   0  0  0  0  0  0  0  0  0  0  0  0
  145.3950   69.7332  218.7650 H   0  0  0  0  0  0  0  0  0  0  0  0
  145.4185   71.7607  220.5024 H   0  0  0  0  0  0  0  0  0  0  0  0
  145.6444   71.6348  217.7640 H   0  0  0  0  0  0  0  0  0  0  0  0
  144.2907   72.8148  218.0057 H   0  0  0  0  0  0  0  0  0  0  0  0
  145.6080   74.1430  219.1280 H   0  0  0  0  0  0  0  0  0  0  0  0
  138.2229   76.9307  222.3801 H   0  0  0  0  0  0  0  0  0  0  0  0
  138.0260   79.3051  223.0334 H   0  0  0  0  0  0  0  0  0  0  0  0
  139.1655   81.3541  223.5767 H   0  0  0  0  0  0  0  0  0  0  0  0
  141.2338   82.6852  223.9162 H   0  0  0  0  0  0  0  0  0  0  0  0
  143.4408   81.5245  223.5769 H   0  0  0  0  0  0  0  0  0  0  0  0
  143.5274   79.1474  222.9258 H   0  0  0  0  0  0  0  0  0  0  0  0
  1  2  2  0
  2  3  1  0
  3  4  1  0
  4  5  1  0
  5  6  2  0
  5  7  1  0
  7  8  1  0
  8  9  1  0
  9 10  1  0
  9 11  1  0
 11 12  1  0
 12 13  1  0
 13 14  1  0
  2 15  1  0
 15 16  2  0
 16 17  1  0
 17 18  2  0
 18 19  1  0
 19 20  2  0
 20 21  1  0
 21 22  2  0
 22 23  1  0
 23 24  2  0
 12  7  1  0
 24 15  1  0
 23 18  1  0
  3 25  1  0
  4 26  1  0
  4 27  1  0
  8 28  1  0
  8 29  1  0
  9 30  1  6
 10 31  1  0
 11 32  1  0
 11 33  1  0
 12 34  1  1
 13 35  1  0
 13 36  1  0
 14 37  1  0
 16 38  1  0
 17 39  1  0
 19 40  1  0
 20 41  1  0
 21 42  1  0
 22 43  1  0
M  END
>  <smiles>  (8) 
O=C(NCC(=O)N1C[C@H](O)C[C@H]1CO)c1ccc2ccccc2n1

>  <score_type>  (8) 
oracle

>  <origin>  (8) 
autodockgpu

>  <m_score__min__energy>  (8) 
-7.0099999999999998

>  <m_primary>  (8) 
energy

>  <rmsd>  (8) 
8.040614250401473

>  <m_score__min__rmsd>  (8) 
8.040614250401473

>  <meeko>  (8) 
{"free_energy": -6.0, "intermolecular_energy": -8.09, "internal_energy": -2.32, "cluster_size": 19, "cluster_id": 1, "rank_in_cluster": 19}

>  <energy>  (8) 
-6.98

>  <cluster_rmsd>  (8) 
0.08

>  <cluster>  (8) 
1

$$$$

     RDKit          3D

 43 45  0  0  0  0  0  0  0  0999 V2000
  138.8570   75.1450  221.9130 O   0  0  0  0  0  0  0  0  0  0  0  0
  140.0290   75.6290  222.0040 C   0  0  0  0  0  0  0  0  0  0  0  0
  141.1890   74.8360  221.6890 N   0  0  0  0  0  0  0  0  0  0  0  0
  141.0600   73.4620  221.2570 C   0  0  0  0  0  0  0  0  0  0  0  0
  141.8270   73.3180  219.9910 C   0  0  0  0  0  0  0  0  0  0  0  0
  141.2170   73.3030  218.8900 O   0  0  0  0  0  0  0  0  0  0  0  0
  143.2500   73.1990  220.0670 N   0  0  0  0  0  0  0  0  0  0  0  0
  144.0750   72.1530  219.4910 C   0  0  0  0  0  0  0  0  0  0  0  0
  145.4700   72.6850  219.5380 C   0  0  2  0  0  0  0  0  0  0  0  0
  146.3480   71.6150  219.7100 O   0  0  0  0  0  0  0  0  0  0  0  0
  145.4630   73.5550  220.7810 C   0  0  0  0  0  0  0  0  0  0  0  0
  144.1030   74.1640  220.7740 C   0  0  1  0  0  0  0  0  0  0  0  0
  144.0420   75.4490  219.9750 C   0  0  0  0  0  0  0  0  0  0  0  0
  142.7280   75.8660  219.7790 O   0  0  0  0  0  0  0  0  0  0  0  0
  140.2320   77.0200  222.4360 C   0  0  0  0  0  0  0  0  0  0  0  0
  139.1230   77.7910  222.7180 C   0  0  0  0  0  0  0  0  0  0  0  0
  139.1940   79.1020  223.1310 C   0  0  0  0  0  0  0  0  0  0  0  0
  140.4570   79.6540  223.2610 C   0  0  0  0  0  0  0  0  0  0  0  0
  140.6150   80.9480  223.6650 C   0  0  0  0  0  0  0  0  0  0  0  0
  141.8510   81.5370  223.8080 C   0  0  0  0  0  0  0  0  0  0  0  0
  142.9590   80.7360  223.5170 C   0  0  0  0  0  0  0  0  0  0  0  0
  142.8110   79.4230  223.1070 C   0  0  0  0  0  0  0  0  0  0  0  0
  141.5460   78.8560  222.9720 C   0  0  0  0  0  0  0  0  0  0  0  0
  141.4370   77.5760  222.5710 N   0  0  0  0  0  0  0  0  0  0  0  0
  142.1340   75.3130  221.7890 H   0  0  0  0  0  0  0  0  0  0  0  0
  141.4696   72.7873  222.0232 H   0  0  0  0  0  0  0  0  0  0  0  0
  140.0025   73.2023  221.1012 H   0  0  0  0  0  0  0  0  0  0  0  0
  143.9944   71.2287  220.0819 H   0  0  0  0  0  0  0  0  0  0  0  0
  143.7647   71.9019  218.4660 H   0  0  0  0  0  0  0  0  0  0  0  0
  145.7767   73.2308  218.6336 H   0  0  0  0  0  0  0  0  0  0  0  0
  146.4100   71.4410  220.6910 H   0  0  0  0  0  0  0  0  0  0  0  0
  145.6173   72.9487  221.6858 H   0  0  0  0  0  0  0  0  0  0  0  0
  146.2675   74.3052  220.7825 H   0  0  0  0  0  0  0  0  0  0  0  0
  143.8024   74.3875  221.8083 H   0  0  0  0  0  0  0  0  0  0  0  0
  144.5889   76.2339  220.5180 H   0  0  0  0  0  0  0  0  0  0  0  0
  144.4963   75.2651  218.9902 H   0  0  0  0  0  0  0  0  0  0  0  0
  142.2520   75.2430  219.1660 H   0  0  0  0  0  0  0  0  0  0  0  0
  138.1289   77.3334  222.6068 H   0  0  0  0  0  0  0  0  0  0  0  0
  138.2872   79.6855  223.3482 H   0  0  0  0  0  0  0  0  0  0  0  0
  139.7177   81.5449  223.8854 H   0  0  0  0  0  0  0  0  0  0  0  0
  141.9608   82.5819  224.1338 H   0  0  0  0  0  0  0  0  0  0  0  0
  143.9698   81.1585  223.6161 H   0  0  0  0  0  0  0  0  0  0  0  0
  143.7034   78.8194  222.8849 H   0  0  0  0  0  0  0  0  0  0  0  0
  1  2  2  0
  2  3  1  0
  3  4  1  0
  4  5  1  0
  5  6  2  0
  5  7  1  0
  7  8  1  0
  8  9  1  0
  9 10  1  0
  9 11  1  0
 11 12  1  0
 12 13  1  0
 13 14  1  0
  2 15  1  0
 15 16  2  0
 16 17  1  0
 17 18  2  0
 18 19  1  0
 19 20  2  0
 20 21  1  0
 21 22  2  0
 22 23  1  0
 23 24  2  0
 12  7  1  0
 24 15  1  0
 23 18  1  0
  3 25  1  0
  4 26  1  0
  4 27  1  0
  8 28  1  0
  8 29  1  0
  9 30  1  6
 10 31  1  0
 11 32  1  0
 11 33  1  0
 12 34  1  1
 13 35  1  0
 13 36  1  0
 14 37  1  0
 16 38  1  0
 17 39  1  0
 19 40  1  0
 20 41  1  0
 21 42  1  0
 22 43  1  0
M  END
>  <smiles>  (9) 
O=C(NCC(=O)N1C[C@H](O)C[C@H]1CO)c1ccc2ccccc2n1

>  <score_type>  (9) 
oracle

>  <origin>  (9) 
autodockgpu

>  <m_score__min__energy>  (9) 
-7.0099999999999998

>  <m_primary>  (9) 
energy

>  <rmsd>  (9) 
7.743525811496704

>  <m_score__min__rmsd>  (9) 
7.743525811496704

>  <meeko>  (9) 
{"free_energy": -6.3, "intermolecular_energy": -8.39, "internal_energy": -2.49, "cluster_size": 19, "cluster_id": 1, "rank_in_cluster": 18}

>  <energy>  (9) 
-6.98

>  <cluster_rmsd>  (9) 
0.1

>  <cluster>  (9) 
1

$$$$

     RDKit          3D

 43 45  0  0  0  0  0  0  0  0999 V2000
  138.3270   70.0300  221.5230 O   0  0  0  0  0  0  0  0  0  0  0  0
  138.5380   70.8460  222.4750 C   0  0  0  0  0  0  0  0  0  0  0  0
  138.3300   72.2600  222.3030 N   0  0  0  0  0  0  0  0  0  0  0  0
  137.8750   72.8010  221.0420 C   0  0  0  0  0  0  0  0  0  0  0  0
  137.8960   74.2840  221.1590 C   0  0  0  0  0  0  0  0  0  0  0  0
  136.8110   74.9220  221.2020 O   0  0  0  0  0  0  0  0  0  0  0  0
  139.1620   74.9440  221.2170 N   0  0  0  0  0  0  0  0  0  0  0  0
  139.4700   76.1960  221.8830 C   0  0  0  0  0  0  0  0  0  0  0  0
  140.9610   76.2430  221.9580 C   0  0  2  0  0  0  0  0  0  0  0  0
  141.3670   77.5750  221.8850 O   0  0  0  0  0  0  0  0  0  0  0  0
  141.3910   75.5010  220.7060 C   0  0  0  0  0  0  0  0  0  0  0  0
  140.3760   74.4170  220.5760 C   0  0  1  0  0  0  0  0  0  0  0  0
  140.7530   73.1690  221.3460 C   0  0  0  0  0  0  0  0  0  0  0  0
  140.5960   73.3470  222.7180 O   0  0  0  0  0  0  0  0  0  0  0  0
  139.0020   70.3630  223.7850 C   0  0  0  0  0  0  0  0  0  0  0  0
  138.8080   69.0350  224.1040 C   0  0  0  0  0  0  0  0  0  0  0  0
  139.2010   68.4750  225.2980 C   0  0  0  0  0  0  0  0  0  0  0  0
  139.8210   69.3100  226.2110 C   0  0  0  0  0  0  0  0  0  0  0  0
  140.2420   68.8350  227.4190 C   0  0  0  0  0  0  0  0  0  0  0  0
  140.8630   69.6290  228.3560 C   0  0  0  0  0  0  0  0  0  0  0  0
  141.0490   70.9700  228.0100 C   0  0  0  0  0  0  0  0  0  0  0  0
  140.6270   71.4640  226.7880 C   0  0  0  0  0  0  0  0  0  0  0  0
  140.0010   70.6340  225.8610 C   0  0  0  0  0  0  0  0  0  0  0  0
  139.6020   71.1460  224.6820 N   0  0  0  0  0  0  0  0  0  0  0  0
  138.5280   72.8770  223.1470 H   0  0  0  0  0  0  0  0  0  0  0  0
  138.5448   72.4786  220.2312 H   0  0  0  0  0  0  0  0  0  0  0  0
  136.8604   72.4446  220.8106 H   0  0  0  0  0  0  0  0  0  0  0  0
  139.0860   77.0470  221.3014 H   0  0  0  0  0  0  0  0  0  0  0  0
  139.0061   76.2572  222.8785 H   0  0  0  0  0  0  0  0  0  0  0  0
  141.3814   75.8115  222.8784 H   0  0  0  0  0  0  0  0  0  0  0  0
  142.3660   77.5790  221.8980 H   0  0  0  0  0  0  0  0  0  0  0  0
  141.3710   76.1651  219.8293 H   0  0  0  0  0  0  0  0  0  0  0  0
  142.4203   75.1180  220.7680 H   0  0  0  0  0  0  0  0  0  0  0  0
  140.2687   74.1482  219.5148 H   0  0  0  0  0  0  0  0  0  0  0  0
  140.1101   72.3390  221.0177 H   0  0  0  0  0  0  0  0  0  0  0  0
  141.8119   72.9479  221.1464 H   0  0  0  0  0  0  0  0  0  0  0  0
  140.3030   72.4990  223.1490 H   0  0  0  0  0  0  0  0  0  0  0  0
  138.3126   68.3890  223.3642 H   0  0  0  0  0  0  0  0  0  0  0  0
  139.0299   67.4107  225.5170 H   0  0  0  0  0  0  0  0  0  0  0  0
  140.0781   67.7729  227.6537 H   0  0  0  0  0  0  0  0  0  0  0  0
  141.1952   69.2293  229.3255 H   0  0  0  0  0  0  0  0  0  0  0  0
  141.5411   71.6471  228.7237 H   0  0  0  0  0  0  0  0  0  0  0  0
  140.7879   72.5249  226.5459 H   0  0  0  0  0  0  0  0  0  0  0  0
  1  2  2  0
  2  3  1  0
  3  4  1  0
  4  5  1  0
  5  6  2  0
  5  7  1  0
  7  8  1  0
  8  9  1  0
  9 10  1  0
  9 11  1  0
 11 12  1  0
 12 13  1  0
 13 14  1  0
  2 15  1  0
 15 16  2  0
 16 17  1  0
 17 18  2  0
 18 19  1  0
 19 20  2  0
 20 21  1  0
 21 22  2  0
 22 23  1  0
 23 24  2  0
 12  7  1  0
 24 15  1  0
 23 18  1  0
  3 25  1  0
  4 26  1  0
  4 27  1  0
  8 28  1  0
  8 29  1  0
  9 30  1  1
 10 31  1  0
 11 32  1  0
 11 33  1  0
 12 34  1  6
 13 35  1  0
 13 36  1  0
 14 37  1  0
 16 38  1  0
 17 39  1  0
 19 40  1  0
 20 41  1  0
 21 42  1  0
 22 43  1  0
M  END
>  <smiles>  (10) 
O=C(NCC(=O)N1C[C@H](O)C[C@H]1CO)c1ccc2ccccc2n1

>  <score_type>  (10) 
oracle

>  <origin>  (10) 
autodockgpu

>  <m_score__min__energy>  (10) 
-7.0099999999999998

>  <m_primary>  (10) 
energy

>  <rmsd>  (10) 
2.39932237936622

>  <m_score__min__rmsd>  (10) 
2.39932237936622

>  <meeko>  (10) 
{"free_energy": -6.26, "intermolecular_energy": -8.34, "internal_energy": -2.22, "cluster_size": 18, "cluster_id": 2, "rank_in_cluster": 11}

>  <energy>  (10) 
-6.98

>  <cluster_rmsd>  (10) 
0.88

>  <cluster>  (10) 
1

$$$$

     RDKit          3D

 43 45  0  0  0  0  0  0  0  0999 V2000
  141.4740   73.0300  221.5460 O   0  0  0  0  0  0  0  0  0  0  0  0
  140.4490   73.0100  222.2980 C   0  0  0  0  0  0  0  0  0  0  0  0
  139.5370   74.1240  222.3440 N   0  0  0  0  0  0  0  0  0  0  0  0
  139.7580   75.3030  221.5380 C   0  0  0  0  0  0  0  0  0  0  0  0
  139.1420   76.4540  222.2540 C   0  0  0  0  0  0  0  0  0  0  0  0
  137.9640   76.3610  222.6880 O   0  0  0  0  0  0  0  0  0  0  0  0
  139.9180   77.6420  222.4250 N   0  0  0  0  0  0  0  0  0  0  0  0
  141.2970   77.8560  222.0250 C   0  0  0  0  0  0  0  0  0  0  0  0
  141.4980   79.3340  222.0880 C   0  0  2  0  0  0  0  0  0  0  0  0
  142.8250   79.5870  222.4360 O   0  0  0  0  0  0  0  0  0  0  0  0
  140.5770   79.7570  223.2180 C   0  0  0  0  0  0  0  0  0  0  0  0
  139.3970   78.8600  223.0620 C   0  0  1  0  0  0  0  0  0  0  0  0
  138.3580   79.4220  222.1140 C   0  0  0  0  0  0  0  0  0  0  0  0
  138.2790   78.6750  220.9420 O   0  0  0  0  0  0  0  0  0  0  0  0
  140.1640   71.8400  223.1430 C   0  0  0  0  0  0  0  0  0  0  0  0
  139.4590   70.7880  222.5970 C   0  0  0  0  0  0  0  0  0  0  0  0
  139.1390   69.6450  223.2930 C   0  0  0  0  0  0  0  0  0  0  0  0
  139.5550   69.5730  224.6110 C   0  0  0  0  0  0  0  0  0  0  0  0
  139.2780   68.4740  225.3720 C   0  0  0  0  0  0  0  0  0  0  0  0
  139.6730   68.3600  226.6850 C   0  0  0  0  0  0  0  0  0  0  0  0
  140.3860   69.4380  227.2170 C   0  0  0  0  0  0  0  0  0  0  0  0
  140.6730   70.5570  226.4550 C   0  0  0  0  0  0  0  0  0  0  0  0
  140.2590   70.6420  225.1280 C   0  0  0  0  0  0  0  0  0  0  0  0
  140.5550   71.7440  224.4150 N   0  0  0  0  0  0  0  0  0  0  0  0
  138.7020   74.0300  222.9970 H   0  0  0  0  0  0  0  0  0  0  0  0
  140.8370   75.4739  221.4098 H   0  0  0  0  0  0  0  0  0  0  0  0
  139.3099   75.1812  220.5408 H   0  0  0  0  0  0  0  0  0  0  0  0
  141.9829   77.3436  222.7157 H   0  0  0  0  0  0  0  0  0  0  0  0
  141.5006   77.4559  221.0208 H   0  0  0  0  0  0  0  0  0  0  0  0
  141.2899   79.8595  221.1443 H   0  0  0  0  0  0  0  0  0  0  0  0
  143.3850   78.8970  221.9800 H   0  0  0  0  0  0  0  0  0  0  0  0
  141.0590   79.6058  224.1952 H   0  0  0  0  0  0  0  0  0  0  0  0
  140.3117   80.8237  223.1769 H   0  0  0  0  0  0  0  0  0  0  0  0
  138.9237   78.7116  224.0438 H   0  0  0  0  0  0  0  0  0  0  0  0
  137.3771   79.4109  222.6116 H   0  0  0  0  0  0  0  0  0  0  0  0
  138.6517   80.4486  221.8496 H   0  0  0  0  0  0  0  0  0  0  0  0
  137.7770   77.8300  221.1000 H   0  0  0  0  0  0  0  0  0  0  0  0
  139.1351   70.8669  221.5487 H   0  0  0  0  0  0  0  0  0  0  0  0
  138.5773   68.8246  222.8225 H   0  0  0  0  0  0  0  0  0  0  0  0
  138.7158   67.6454  224.9166 H   0  0  0  0  0  0  0  0  0  0  0  0
  139.4400   67.4676  227.2844 H   0  0  0  0  0  0  0  0  0  0  0  0
  140.7258   69.3961  228.2623 H   0  0  0  0  0  0  0  0  0  0  0  0
  141.2351   71.3897  226.9030 H   0  0  0  0  0  0  0  0  0  0  0  0
  1  2  2  0
  2  3  1  0
  3  4  1  0
  4  5  1  0
  5  6  2  0
  5  7  1  0
  7  8  1  0
  8  9  1  0
  9 10  1  0
  9 11  1  0
 11 12  1  0
 12 13  1  0
 13 14  1  0
  2 15  1  0
 15 16  2  0
 16 17  1  0
 17 18  2  0
 18 19  1  0
 19 20  2  0
 20 21  1  0
 21 22  2  0
 22 23  1  0
 23 24  2  0
 12  7  1  0
 24 15  1  0
 23 18  1  0
  3 25  1  0
  4 26  1  0
  4 27  1  0
  8 28  1  0
  8 29  1  0
  9 30  1  6
 10 31  1  0
 11 32  1  0
 11 33  1  0
 12 34  1  1
 13 35  1  0
 13 36  1  0
 14 37  1  0
 16 38  1  0
 17 39  1  0
 19 40  1  0
 20 41  1  0
 21 42  1  0
 22 43  1  0
M  END
>  <smiles>  (11) 
O=C(NCC(=O)N1C[C@H](O)C[C@H]1CO)c1ccc2ccccc2n1

>  <score_type>  (11) 
oracle

>  <origin>  (11) 
autodockgpu

>  <m_score__min__energy>  (11) 
-7.0099999999999998

>  <m_primary>  (11) 
energy

>  <rmsd>  (11) 
3.4095198734129357

>  <m_score__min__rmsd>  (11) 
3.4095198734129357

>  <meeko>  (11) 
{"free_energy": -6.34, "intermolecular_energy": -8.43, "internal_energy": -1.77, "cluster_size": 5, "cluster_id": 3, "rank_in_cluster": 3}

>  <energy>  (11) 
-6.98

>  <cluster_rmsd>  (11) 
0.07

>  <cluster>  (11) 
1

$$$$

     RDKit          3D

 43 45  0  0  0  0  0  0  0  0999 V2000
  138.9580   74.9280  222.3380 O   0  0  0  0  0  0  0  0  0  0  0  0
  139.9680   75.5840  221.9300 C   0  0  0  0  0  0  0  0  0  0  0  0
  140.9290   74.9900  221.0370 N   0  0  0  0  0  0  0  0  0  0  0  0
  140.7780   73.6290  220.5740 C   0  0  0  0  0  0  0  0  0  0  0  0
  141.7280   73.4340  219.4450 C   0  0  0  0  0  0  0  0  0  0  0  0
  141.2850   73.2690  218.2780 O   0  0  0  0  0  0  0  0  0  0  0  0
  143.1290   73.4380  219.7260 N   0  0  0  0  0  0  0  0  0  0  0  0
  144.1060   72.4380  219.3360 C   0  0  0  0  0  0  0  0  0  0  0  0
  145.4350   73.0870  219.5440 C   0  0  2  0  0  0  0  0  0  0  0  0
  146.3580   72.1050  219.9020 O   0  0  0  0  0  0  0  0  0  0  0  0
  145.1830   74.0140  220.7190 C   0  0  0  0  0  0  0  0  0  0  0  0
  143.7950   74.5060  220.4860 C   0  0  1  0  0  0  0  0  0  0  0  0
  143.7520   75.7390  219.6090 C   0  0  0  0  0  0  0  0  0  0  0  0
  142.8030   76.6530  220.0590 O   0  0  0  0  0  0  0  0  0  0  0  0
  140.1820   76.9730  222.3620 C   0  0  0  0  0  0  0  0  0  0  0  0
  139.0820   77.7380  222.6900 C   0  0  0  0  0  0  0  0  0  0  0  0
  139.1640   79.0470  223.1060 C   0  0  0  0  0  0  0  0  0  0  0  0
  140.4280   79.6040  223.1910 C   0  0  0  0  0  0  0  0  0  0  0  0
  140.5960   80.8960  223.5950 C   0  0  0  0  0  0  0  0  0  0  0  0
  141.8340   81.4890  223.6940 C   0  0  0  0  0  0  0  0  0  0  0  0
  142.9340   80.6950  223.3570 C   0  0  0  0  0  0  0  0  0  0  0  0
  142.7760   79.3830  222.9460 C   0  0  0  0  0  0  0  0  0  0  0  0
  141.5080   78.8120  222.8560 C   0  0  0  0  0  0  0  0  0  0  0  0
  141.3890   77.5340  222.4530 N   0  0  0  0  0  0  0  0  0  0  0  0
  141.7460   75.6030  220.7400 H   0  0  0  0  0  0  0  0  0  0  0  0
  141.0123   72.9270  221.3878 H   0  0  0  0  0  0  0  0  0  0  0  0
  139.7442   73.4426  220.2478 H   0  0  0  0  0  0  0  0  0  0  0  0
  144.0121   71.5409  219.9655 H   0  0  0  0  0  0  0  0  0  0  0  0
  143.9666   72.1110  218.2950 H   0  0  0  0  0  0  0  0  0  0  0  0
  145.8259   73.6109  218.6593 H   0  0  0  0  0  0  0  0  0  0  0  0
  146.1750   71.8620  220.8530 H   0  0  0  0  0  0  0  0  0  0  0  0
  145.2515   73.4682  221.6716 H   0  0  0  0  0  0  0  0  0  0  0  0
  145.9194   74.8283  220.7866 H   0  0  0  0  0  0  0  0  0  0  0  0
  143.3327   74.7547  221.4526 H   0  0  0  0  0  0  0  0  0  0  0  0
  144.7420   76.2184  219.6176 H   0  0  0  0  0  0  0  0  0  0  0  0
  143.4759   75.4284  218.5905 H   0  0  0  0  0  0  0  0  0  0  0  0
  142.8410   76.7350  221.0500 H   0  0  0  0  0  0  0  0  0  0  0  0
  138.0861   77.2770  222.6150 H   0  0  0  0  0  0  0  0  0  0  0  0
  138.2637   79.6257  223.3600 H   0  0  0  0  0  0  0  0  0  0  0  0
  139.7054   81.4882  223.8522 H   0  0  0  0  0  0  0  0  0  0  0  0
  141.9517   82.5326  224.0210 H   0  0  0  0  0  0  0  0  0  0  0  0
  143.9459   81.1218  223.4198 H   0  0  0  0  0  0  0  0  0  0  0  0
  143.6616   78.7839  222.6874 H   0  0  0  0  0  0  0  0  0  0  0  0
  1  2  2  0
  2  3  1  0
  3  4  1  0
  4  5  1  0
  5  6  2  0
  5  7  1  0
  7  8  1  0
  8  9  1  0
  9 10  1  0
  9 11  1  0
 11 12  1  0
 12 13  1  0
 13 14  1  0
  2 15  1  0
 15 16  2  0
 16 17  1  0
 17 18  2  0
 18 19  1  0
 19 20  2  0
 20 21  1  0
 21 22  2  0
 22 23  1  0
 23 24  2  0
 12  7  1  0
 24 15  1  0
 23 18  1  0
  3 25  1  0
  4 26  1  0
  4 27  1  0
  8 28  1  0
  8 29  1  0
  9 30  1  6
 10 31  1  0
 11 32  1  0
 11 33  1  0
 12 34  1  1
 13 35  1  0
 13 36  1  0
 14 37  1  0
 16 38  1  0
 17 39  1  0
 19 40  1  0
 20 41  1  0
 21 42  1  0
 22 43  1  0
M  END
>  <smiles>  (12) 
O=C(NCC(=O)N1C[C@H](O)C[C@H]1CO)c1ccc2ccccc2n1

>  <score_type>  (12) 
oracle

>  <origin>  (12) 
autodockgpu

>  <m_score__min__energy>  (12) 
-7.0099999999999998

>  <m_primary>  (12) 
energy

>  <rmsd>  (12) 
7.662172915726337

>  <m_score__min__rmsd>  (12) 
7.662172915726337

>  <meeko>  (12) 
{"free_energy": -6.67, "intermolecular_energy": -8.76, "internal_energy": -2.6, "cluster_size": 19, "cluster_id": 1, "rank_in_cluster": 14}

>  <energy>  (12) 
-6.98

>  <cluster_rmsd>  (12) 
0.07

>  <cluster>  (12) 
1

$$$$

     RDKit          3D

 43 45  0  0  0  0  0  0  0  0999 V2000
  141.4290   73.1850  221.4250 O   0  0  0  0  0  0  0  0  0  0  0  0
  140.4330   73.1690  222.2140 C   0  0  0  0  0  0  0  0  0  0  0  0
  139.5670   74.3130  222.3420 N   0  0  0  0  0  0  0  0  0  0  0  0
  139.8020   75.5170  221.5780 C   0  0  0  0  0  0  0  0  0  0  0  0
  139.2490   76.6570  222.3600 C   0  0  0  0  0  0  0  0  0  0  0  0
  138.0940   76.5730  222.8520 O   0  0  0  0  0  0  0  0  0  0  0  0
  140.0580   77.8230  222.5260 N   0  0  0  0  0  0  0  0  0  0  0  0
  141.3930   78.0490  222.0020 C   0  0  0  0  0  0  0  0  0  0  0  0
  141.6230   79.5180  222.1370 C   0  0  2  0  0  0  0  0  0  0  0  0
  142.9820   79.7350  222.3640 O   0  0  0  0  0  0  0  0  0  0  0  0
  140.8280   79.8770  223.3790 C   0  0  0  0  0  0  0  0  0  0  0  0
  139.6230   79.0040  223.2870 C   0  0  1  0  0  0  0  0  0  0  0  0
  138.5030   79.6350  222.4860 C   0  0  0  0  0  0  0  0  0  0  0  0
  137.2620   79.1210  222.8510 O   0  0  0  0  0  0  0  0  0  0  0  0
  140.1360   71.9760  223.0210 C   0  0  0  0  0  0  0  0  0  0  0  0
  139.4660   70.9280  222.4250 C   0  0  0  0  0  0  0  0  0  0  0  0
  139.1370   69.7640  223.0820 C   0  0  0  0  0  0  0  0  0  0  0  0
  139.5080   69.6650  224.4120 C   0  0  0  0  0  0  0  0  0  0  0  0
  139.2200   68.5450  225.1360 C   0  0  0  0  0  0  0  0  0  0  0  0
  139.5700   68.4040  226.4590 C   0  0  0  0  0  0  0  0  0  0  0  0
  140.2490   69.4780  227.0410 C   0  0  0  0  0  0  0  0  0  0  0  0
  140.5470   70.6200  226.3170 C   0  0  0  0  0  0  0  0  0  0  0  0
  140.1780   70.7310  224.9780 C   0  0  0  0  0  0  0  0  0  0  0  0
  140.4830   71.8540  224.3030 N   0  0  0  0  0  0  0  0  0  0  0  0
  138.7540   74.2220  223.0230 H   0  0  0  0  0  0  0  0  0  0  0  0
  140.8816   75.6577  221.4209 H   0  0  0  0  0  0  0  0  0  0  0  0
  139.3180   75.4517  220.5924 H   0  0  0  0  0  0  0  0  0  0  0  0
  142.1368   77.4869  222.5857 H   0  0  0  0  0  0  0  0  0  0  0  0
  141.4878   77.7121  220.9592 H   0  0  0  0  0  0  0  0  0  0  0  0
  141.3291   80.1046  221.2541 H   0  0  0  0  0  0  0  0  0  0  0  0
  143.4710   78.9460  221.9970 H   0  0  0  0  0  0  0  0  0  0  0  0
  141.4032   79.6580  224.2907 H   0  0  0  0  0  0  0  0  0  0  0  0
  140.5782   80.9469  223.4327 H   0  0  0  0  0  0  0  0  0  0  0  0
  139.2477   78.7990  224.3005 H   0  0  0  0  0  0  0  0  0  0  0  0
  138.5058   80.7209  222.6618 H   0  0  0  0  0  0  0  0  0  0  0  0
  138.6703   79.4098  221.4224 H   0  0  0  0  0  0  0  0  0  0  0  0
  137.3250   78.1410  223.0140 H   0  0  0  0  0  0  0  0  0  0  0  0
  139.1791   71.0277  221.3678 H   0  0  0  0  0  0  0  0  0  0  0  0
  138.6028   68.9484  222.5726 H   0  0  0  0  0  0  0  0  0  0  0  0
  138.6857   67.7205  224.6413 H   0  0  0  0  0  0  0  0  0  0  0  0
  139.3283   67.4944  227.0284 H   0  0  0  0  0  0  0  0  0  0  0  0
  140.5530   69.4147  228.0963 H   0  0  0  0  0  0  0  0  0  0  0  0
  141.0811   71.4490  226.8044 H   0  0  0  0  0  0  0  0  0  0  0  0
  1  2  2  0
  2  3  1  0
  3  4  1  0
  4  5  1  0
  5  6  2  0
  5  7  1  0
  7  8  1  0
  8  9  1  0
  9 10  1  0
  9 11  1  0
 11 12  1  0
 12 13  1  0
 13 14  1  0
  2 15  1  0
 15 16  2  0
 16 17  1  0
 17 18  2  0
 18 19  1  0
 19 20  2  0
 20 21  1  0
 21 22  2  0
 22 23  1  0
 23 24  2  0
 12  7  1  0
 24 15  1  0
 23 18  1  0
  3 25  1  0
  4 26  1  0
  4 27  1  0
  8 28  1  0
  8 29  1  0
  9 30  1  6
 10 31  1  0
 11 32  1  0
 11 33  1  0
 12 34  1  1
 13 35  1  0
 13 36  1  0
 14 37  1  0
 16 38  1  0
 17 39  1  0
 19 40  1  0
 20 41  1  0
 21 42  1  0
 22 43  1  0
M  END
>  <smiles>  (13) 
O=C(NCC(=O)N1C[C@H](O)C[C@H]1CO)c1ccc2ccccc2n1

>  <score_type>  (13) 
oracle

>  <origin>  (13) 
autodockgpu

>  <m_score__min__energy>  (13) 
-7.0099999999999998

>  <m_primary>  (13) 
energy

>  <rmsd>  (13) 
3.543358480724774

>  <m_score__min__rmsd>  (13) 
3.543358480724774

>  <meeko>  (13) 
{"free_energy": -6.36, "intermolecular_energy": -8.45, "internal_energy": -1.87, "cluster_size": 5, "cluster_id": 3, "rank_in_cluster": 2}

>  <energy>  (13) 
-6.87

>  <cluster_rmsd>  (13) 
0.89

>  <cluster>  (13) 
1

$$$$

     RDKit          3D

 43 45  0  0  0  0  0  0  0  0999 V2000
  138.7740   75.2510  221.8830 O   0  0  0  0  0  0  0  0  0  0  0  0
  139.9600   75.6950  221.9930 C   0  0  0  0  0  0  0  0  0  0  0  0
  141.0970   74.8610  221.6970 N   0  0  0  0  0  0  0  0  0  0  0  0
  140.9270   73.4920  221.2640 C   0  0  0  0  0  0  0  0  0  0  0  0
  141.6720   73.3330  219.9860 C   0  0  0  0  0  0  0  0  0  0  0  0
  141.0380   73.1710  218.9100 O   0  0  0  0  0  0  0  0  0  0  0  0
  143.1000   73.3680  220.0210 N   0  0  0  0  0  0  0  0  0  0  0  0
  144.0160   72.3530  219.5340 C   0  0  0  0  0  0  0  0  0  0  0  0
  145.3470   73.0250  219.4690 C   0  0  2  0  0  0  0  0  0  0  0  0
  146.3370   72.0770  219.7260 O   0  0  0  0  0  0  0  0  0  0  0  0
  145.2820   74.0260  220.6070 C   0  0  0  0  0  0  0  0  0  0  0  0
  143.8650   74.4900  220.5840 C   0  0  1  0  0  0  0  0  0  0  0  0
  143.6490   75.6610  219.6500 C   0  0  0  0  0  0  0  0  0  0  0  0
  142.6260   76.4910  220.1000 O   0  0  0  0  0  0  0  0  0  0  0  0
  140.2040   77.0780  222.4270 C   0  0  0  0  0  0  0  0  0  0  0  0
  139.1200   77.8750  222.7300 C   0  0  0  0  0  0  0  0  0  0  0  0
  139.2290   79.1820  223.1470 C   0  0  0  0  0  0  0  0  0  0  0  0
  140.5070   79.7020  223.2590 C   0  0  0  0  0  0  0  0  0  0  0  0
  140.7030   80.9900  223.6650 C   0  0  0  0  0  0  0  0  0  0  0  0
  141.9550   81.5480  223.7900 C   0  0  0  0  0  0  0  0  0  0  0  0
  143.0390   80.7220  223.4790 C   0  0  0  0  0  0  0  0  0  0  0  0
  142.8520   79.4140  223.0660 C   0  0  0  0  0  0  0  0  0  0  0  0
  141.5710   78.8790  222.9490 C   0  0  0  0  0  0  0  0  0  0  0  0
  141.4240   77.6040  222.5450 N   0  0  0  0  0  0  0  0  0  0  0  0
  142.0570   75.3060  221.8120 H   0  0  0  0  0  0  0  0  0  0  0  0
  141.3307   72.8051  222.0224 H   0  0  0  0  0  0  0  0  0  0  0  0
  139.8612   73.2589  221.1235 H   0  0  0  0  0  0  0  0  0  0  0  0
  144.0487   71.4988  220.2264 H   0  0  0  0  0  0  0  0  0  0  0  0
  143.7076   71.9567  218.5553 H   0  0  0  0  0  0  0  0  0  0  0  0
  145.5701   73.4917  218.4982 H   0  0  0  0  0  0  0  0  0  0  0  0
  146.0730   71.5930  220.5580 H   0  0  0  0  0  0  0  0  0  0  0  0
  145.5227   73.5458  221.5669 H   0  0  0  0  0  0  0  0  0  0  0  0
  146.0035   74.8487  220.4948 H   0  0  0  0  0  0  0  0  0  0  0  0
  143.5695   74.7994  221.5974 H   0  0  0  0  0  0  0  0  0  0  0  0
  144.5799   76.2436  219.5861 H   0  0  0  0  0  0  0  0  0  0  0  0
  143.3648   75.2672  218.6630 H   0  0  0  0  0  0  0  0  0  0  0  0
  142.7050   76.6430  221.0810 H   0  0  0  0  0  0  0  0  0  0  0  0
  138.1133   77.4424  222.6331 H   0  0  0  0  0  0  0  0  0  0  0  0
  138.3402   79.7865  223.3809 H   0  0  0  0  0  0  0  0  0  0  0  0
  139.8243   81.6077  223.9021 H   0  0  0  0  0  0  0  0  0  0  0  0
  142.0951   82.5888  224.1173 H   0  0  0  0  0  0  0  0  0  0  0  0
  144.0612   81.1194  223.5642 H   0  0  0  0  0  0  0  0  0  0  0  0
  143.7255   78.7895  222.8273 H   0  0  0  0  0  0  0  0  0  0  0  0
  1  2  2  0
  2  3  1  0
  3  4  1  0
  4  5  1  0
  5  6  2  0
  5  7  1  0
  7  8  1  0
  8  9  1  0
  9 10  1  0
  9 11  1  0
 11 12  1  0
 12 13  1  0
 13 14  1  0
  2 15  1  0
 15 16  2  0
 16 17  1  0
 17 18  2  0
 18 19  1  0
 19 20  2  0
 20 21  1  0
 21 22  2  0
 22 23  1  0
 23 24  2  0
 12  7  1  0
 24 15  1  0
 23 18  1  0
  3 25  1  0
  4 26  1  0
  4 27  1  0
  8 28  1  0
  8 29  1  0
  9 30  1  6
 10 31  1  0
 11 32  1  0
 11 33  1  0
 12 34  1  1
 13 35  1  0
 13 36  1  0
 14 37  1  0
 16 38  1  0
 17 39  1  0
 19 40  1  0
 20 41  1  0
 21 42  1  0
 22 43  1  0
M  END
>  <smiles>  (14) 
O=C(NCC(=O)N1C[C@H](O)C[C@H]1CO)c1ccc2ccccc2n1

>  <score_type>  (14) 
oracle

>  <origin>  (14) 
autodockgpu

>  <m_score__min__energy>  (14) 
-7.0099999999999998

>  <m_primary>  (14) 
energy

>  <rmsd>  (14) 
7.690859505024847

>  <m_score__min__rmsd>  (14) 
7.690859505024847

>  <meeko>  (14) 
{"free_energy": -6.98, "intermolecular_energy": -9.06, "internal_energy": -2.71, "cluster_size": 19, "cluster_id": 1, "rank_in_cluster": 12}

>  <energy>  (14) 
-6.67

>  <cluster_rmsd>  (14) 
0.43

>  <cluster>  (14) 
1

$$$$

     RDKit          3D

 43 45  0  0  0  0  0  0  0  0999 V2000
  139.5360   71.4900  221.0510 O   0  0  0  0  0  0  0  0  0  0  0  0
  140.1900   71.9820  222.0240 C   0  0  0  0  0  0  0  0  0  0  0  0
  140.9850   73.1720  221.8600 N   0  0  0  0  0  0  0  0  0  0  0  0
  141.0650   73.8470  220.5840 C   0  0  0  0  0  0  0  0  0  0  0  0
  141.5050   72.8450  219.5760 C   0  0  0  0  0  0  0  0  0  0  0  0
  140.6490   72.2660  218.8570 O   0  0  0  0  0  0  0  0  0  0  0  0
  142.9020   72.5680  219.4570 N   0  0  0  0  0  0  0  0  0  0  0  0
  144.0030   73.3870  219.9290 C   0  0  0  0  0  0  0  0  0  0  0  0
  145.1990   72.4950  219.8930 C   0  0  2  0  0  0  0  0  0  0  0  0
  146.3240   73.2700  219.6160 O   0  0  0  0  0  0  0  0  0  0  0  0
  144.9050   71.5740  218.7240 C   0  0  0  0  0  0  0  0  0  0  0  0
  143.4320   71.3590  218.8100 C   0  0  1  0  0  0  0  0  0  0  0  0
  143.0620   70.1990  219.7100 C   0  0  0  0  0  0  0  0  0  0  0  0
  141.7240   69.8450  219.5640 O   0  0  0  0  0  0  0  0  0  0  0  0
  140.1520   71.3460  223.3490 C   0  0  0  0  0  0  0  0  0  0  0  0
  139.5740   70.0990  223.4650 C   0  0  0  0  0  0  0  0  0  0  0  0
  139.4840   69.4100  224.6530 C   0  0  0  0  0  0  0  0  0  0  0  0
  140.0080   70.0240  225.7780 C   0  0  0  0  0  0  0  0  0  0  0  0
  139.9590   69.4090  226.9950 C   0  0  0  0  0  0  0  0  0  0  0  0
  140.4670   69.9820  228.1390 C   0  0  0  0  0  0  0  0  0  0  0  0
  141.0490   71.2450  227.9970 C   0  0  0  0  0  0  0  0  0  0  0  0
  141.1040   71.8790  226.7670 C   0  0  0  0  0  0  0  0  0  0  0  0
  140.5800   71.2710  225.6280 C   0  0  0  0  0  0  0  0  0  0  0  0
  140.6500   71.9140  224.4480 N   0  0  0  0  0  0  0  0  0  0  0  0
  141.5020   73.5220  222.7210 H   0  0  0  0  0  0  0  0  0  0  0  0
  140.0786   74.2486  220.3088 H   0  0  0  0  0  0  0  0  0  0  0  0
  141.7751   74.6857  220.6327 H   0  0  0  0  0  0  0  0  0  0  0  0
  144.1490   74.2545  219.2686 H   0  0  0  0  0  0  0  0  0  0  0  0
  143.8167   73.7837  220.9379 H   0  0  0  0  0  0  0  0  0  0  0  0
  145.3858   71.9524  220.8315 H   0  0  0  0  0  0  0  0  0  0  0  0
  145.9980   74.1670  219.3220 H   0  0  0  0  0  0  0  0  0  0  0  0
  145.1776   72.0500  217.7705 H   0  0  0  0  0  0  0  0  0  0  0  0
  145.4774   70.6355  218.7643 H   0  0  0  0  0  0  0  0  0  0  0  0
  143.0376   71.1526  217.8041 H   0  0  0  0  0  0  0  0  0  0  0  0
  143.6905   69.3334  219.4536 H   0  0  0  0  0  0  0  0  0  0  0  0
  143.2250   70.5069  220.7534 H   0  0  0  0  0  0  0  0  0  0  0  0
  141.1340   70.5400  219.9660 H   0  0  0  0  0  0  0  0  0  0  0  0
  139.1628   69.6298  222.5590 H   0  0  0  0  0  0  0  0  0  0  0  0
  139.0165   68.4157  224.7064 H   0  0  0  0  0  0  0  0  0  0  0  0
  139.4945   68.4144  227.0649 H   0  0  0  0  0  0  0  0  0  0  0  0
  140.4176   69.4731  229.1130 H   0  0  0  0  0  0  0  0  0  0  0  0
  141.4720   71.7456  228.8804 H   0  0  0  0  0  0  0  0  0  0  0  0
  141.5666   72.8739  226.6883 H   0  0  0  0  0  0  0  0  0  0  0  0
  1  2  2  0
  2  3  1  0
  3  4  1  0
  4  5  1  0
  5  6  2  0
  5  7  1  0
  7  8  1  0
  8  9  1  0
  9 10  1  0
  9 11  1  0
 11 12  1  0
 12 13  1  0
 13 14  1  0
  2 15  1  0
 15 16  2  0
 16 17  1  0
 17 18  2  0
 18 19  1  0
 19 20  2  0
 20 21  1  0
 21 22  2  0
 22 23  1  0
 23 24  2  0
 12  7  1  0
 24 15  1  0
 23 18  1  0
  3 25  1  0
  4 26  1  0
  4 27  1  0
  8 28  1  0
  8 29  1  0
  9 30  1  1
 10 31  1  0
 11 32  1  0
 11 33  1  0
 12 34  1  6
 13 35  1  0
 13 36  1  0
 14 37  1  0
 16 38  1  0
 17 39  1  0
 19 40  1  0
 20 41  1  0
 21 42  1  0
 22 43  1  0
M  END
>  <smiles>  (15) 
O=C(NCC(=O)N1C[C@H](O)C[C@H]1CO)c1ccc2ccccc2n1

>  <score_type>  (15) 
oracle

>  <origin>  (15) 
autodockgpu

>  <m_score__min__energy>  (15) 
-7.0099999999999998

>  <m_primary>  (15) 
energy

>  <rmsd>  (15) 
4.064992390707434

>  <m_score__min__rmsd>  (15) 
4.064992390707434

>  <meeko>  (15) 
{"free_energy": -5.59, "intermolecular_energy": -7.68, "internal_energy": -2.64, "cluster_size": 4, "cluster_id": 4, "rank_in_cluster": 4}

>  <energy>  (15) 
-6.62

>  <cluster_rmsd>  (15) 
0.71

>  <cluster>  (15) 
1

$$$$

     RDKit          3D

 43 45  0  0  0  0  0  0  0  0999 V2000
  139.3620   70.6500  221.4780 O   0  0  0  0  0  0  0  0  0  0  0  0
  139.6470   71.2040  222.5870 C   0  0  0  0  0  0  0  0  0  0  0  0
  139.8890   72.6210  222.6700 N   0  0  0  0  0  0  0  0  0  0  0  0
  139.8170   73.4620  221.4960 C   0  0  0  0  0  0  0  0  0  0  0  0
  141.0510   74.2920  221.4660 C   0  0  0  0  0  0  0  0  0  0  0  0
  141.0180   75.4750  221.8960 O   0  0  0  0  0  0  0  0  0  0  0  0
  142.2480   73.7130  220.9410 N   0  0  0  0  0  0  0  0  0  0  0  0
  142.4730   72.3200  220.6010 C   0  0  0  0  0  0  0  0  0  0  0  0
  143.7140   72.3160  219.7710 C   0  0  2  0  0  0  0  0  0  0  0  0
  144.3950   71.1190  219.9950 O   0  0  0  0  0  0  0  0  0  0  0  0
  144.5100   73.4770  220.3380 C   0  0  0  0  0  0  0  0  0  0  0  0
  143.4660   74.4890  220.6670 C   0  0  1  0  0  0  0  0  0  0  0  0
  143.1370   75.3920  219.4960 C   0  0  0  0  0  0  0  0  0  0  0  0
  142.7020   76.6440  219.9220 O   0  0  0  0  0  0  0  0  0  0  0  0
  139.7350   70.4080  223.8200 C   0  0  0  0  0  0  0  0  0  0  0  0
  139.2010   69.1360  223.8230 C   0  0  0  0  0  0  0  0  0  0  0  0
  139.2280   68.3030  224.9180 C   0  0  0  0  0  0  0  0  0  0  0  0
  139.8280   68.7910  226.0660 C   0  0  0  0  0  0  0  0  0  0  0  0
  139.8970   68.0290  227.1960 C   0  0  0  0  0  0  0  0  0  0  0  0
  140.4830   68.4740  228.3590 C   0  0  0  0  0  0  0  0  0  0  0  0
  141.0180   69.7650  228.3320 C   0  0  0  0  0  0  0  0  0  0  0  0
  140.9550   70.5470  227.1920 C   0  0  0  0  0  0  0  0  0  0  0  0
  140.3530   70.0670  226.0300 C   0  0  0  0  0  0  0  0  0  0  0  0
  140.3080   70.8530  224.9390 N   0  0  0  0  0  0  0  0  0  0  0  0
  140.1200   73.0100  223.6330 H   0  0  0  0  0  0  0  0  0  0  0  0
  139.7606   72.8396  220.5907 H   0  0  0  0  0  0  0  0  0  0  0  0
  138.9212   74.0996  221.5297 H   0  0  0  0  0  0  0  0  0  0  0  0
  142.6155   71.7188  221.5111 H   0  0  0  0  0  0  0  0  0  0  0  0
  141.6175   71.8841  220.0641 H   0  0  0  0  0  0  0  0  0  0  0  0
  143.5341   72.4055  218.6895 H   0  0  0  0  0  0  0  0  0  0  0  0
  144.8130   71.1830  220.8990 H   0  0  0  0  0  0  0  0  0  0  0  0
  145.0603   73.1725  221.2405 H   0  0  0  0  0  0  0  0  0  0  0  0
  145.2691   73.8573  219.6386 H   0  0  0  0  0  0  0  0  0  0  0  0
  143.8213   75.1170  221.4973 H   0  0  0  0  0  0  0  0  0  0  0  0
  144.0382   75.5182  218.8780 H   0  0  0  0  0  0  0  0  0  0  0  0
  142.3268   74.9243  218.9173 H   0  0  0  0  0  0  0  0  0  0  0  0
  142.5490   76.6430  220.9060 H   0  0  0  0  0  0  0  0  0  0  0  0
  138.7282   68.7678  222.9005 H   0  0  0  0  0  0  0  0  0  0  0  0
  138.7919   67.2937  224.8826 H   0  0  0  0  0  0  0  0  0  0  0  0
  139.4663   67.0170  227.1765 H   0  0  0  0  0  0  0  0  0  0  0  0
  140.5279   67.8471  229.2617 H   0  0  0  0  0  0  0  0  0  0  0  0
  141.4991   70.1677  229.2356 H   0  0  0  0  0  0  0  0  0  0  0  0
  141.3851   71.5594  227.2029 H   0  0  0  0  0  0  0  0  0  0  0  0
  1  2  2  0
  2  3  1  0
  3  4  1  0
  4  5  1  0
  5  6  2  0
  5  7  1  0
  7  8  1  0
  8  9  1  0
  9 10  1  0
  9 11  1  0
 11 12  1  0
 12 13  1  0
 13 14  1  0
  2 15  1  0
 15 16  2  0
 16 17  1  0
 17 18  2  0
 18 19  1  0
 19 20  2  0
 20 21  1  0
 21 22  2  0
 22 23  1  0
 23 24  2  0
 12  7  1  0
 24 15  1  0
 23 18  1  0
  3 25  1  0
  4 26  1  0
  4 27  1  0
  8 28  1  0
  8 29  1  0
  9 30  1  6
 10 31  1  0
 11 32  1  0
 11 33  1  0
 12 34  1  1
 13 35  1  0
 13 36  1  0
 14 37  1  0
 16 38  1  0
 17 39  1  0
 19 40  1  0
 20 41  1  0
 21 42  1  0
 22 43  1  0
M  END
>  <smiles>  (16) 
O=C(NCC(=O)N1C[C@H](O)C[C@H]1CO)c1ccc2ccccc2n1

>  <score_type>  (16) 
oracle

>  <origin>  (16) 
autodockgpu

>  <m_score__min__energy>  (16) 
-7.0099999999999998

>  <m_primary>  (16) 
energy

>  <rmsd>  (16) 
2.940885585526927

>  <m_score__min__rmsd>  (16) 
2.940885585526927

>  <meeko>  (16) 
{"free_energy": -6.6, "intermolecular_energy": -8.69, "internal_energy": -1.95, "cluster_size": 18, "cluster_id": 2, "rank_in_cluster": 2}

>  <energy>  (16) 
-6.38

>  <cluster_rmsd>  (16) 
0.49

>  <cluster>  (16) 
1

$$$$

     RDKit          3D

 43 45  0  0  0  0  0  0  0  0999 V2000
  138.7870   75.2400  221.9000 O   0  0  0  0  0  0  0  0  0  0  0  0
  139.9750   75.6860  221.9850 C   0  0  0  0  0  0  0  0  0  0  0  0
  141.1060   74.8570  221.6570 N   0  0  0  0  0  0  0  0  0  0  0  0
  140.9290   73.4890  221.2220 C   0  0  0  0  0  0  0  0  0  0  0  0
  141.6840   73.3250  219.9500 C   0  0  0  0  0  0  0  0  0  0  0  0
  141.0580   73.1610  218.8700 O   0  0  0  0  0  0  0  0  0  0  0  0
  143.1120   73.3560  219.9980 N   0  0  0  0  0  0  0  0  0  0  0  0
  144.0290   72.3330  219.5300 C   0  0  0  0  0  0  0  0  0  0  0  0
  145.3630   73.0020  219.4690 C   0  0  2  0  0  0  0  0  0  0  0  0
  146.3480   72.0540  219.7440 O   0  0  0  0  0  0  0  0  0  0  0  0
  145.2910   74.0160  220.5950 C   0  0  0  0  0  0  0  0  0  0  0  0
  143.8750   74.4830  220.5550 C   0  0  1  0  0  0  0  0  0  0  0  0
  143.6690   75.6440  219.6060 C   0  0  0  0  0  0  0  0  0  0  0  0
  142.7160   76.5360  220.0890 O   0  0  0  0  0  0  0  0  0  0  0  0
  140.2260   77.0680  222.4190 C   0  0  0  0  0  0  0  0  0  0  0  0
  139.1450   77.8700  222.7200 C   0  0  0  0  0  0  0  0  0  0  0  0
  139.2610   79.1770  223.1370 C   0  0  0  0  0  0  0  0  0  0  0  0
  140.5420   79.6900  223.2520 C   0  0  0  0  0  0  0  0  0  0  0  0
  140.7440   80.9770  223.6580 C   0  0  0  0  0  0  0  0  0  0  0  0
  141.9990   81.5270  223.7860 C   0  0  0  0  0  0  0  0  0  0  0  0
  143.0790   80.6950  223.4770 C   0  0  0  0  0  0  0  0  0  0  0  0
  142.8850   79.3880  223.0630 C   0  0  0  0  0  0  0  0  0  0  0  0
  141.6010   78.8610  222.9430 C   0  0  0  0  0  0  0  0  0  0  0  0
  141.4480   77.5870  222.5390 N   0  0  0  0  0  0  0  0  0  0  0  0
  142.0670   75.3030  221.7520 H   0  0  0  0  0  0  0  0  0  0  0  0
  141.3209   72.7987  221.9835 H   0  0  0  0  0  0  0  0  0  0  0  0
  139.8627   73.2640  221.0724 H   0  0  0  0  0  0  0  0  0  0  0  0
  144.0536   71.4865  220.2320 H   0  0  0  0  0  0  0  0  0  0  0  0
  143.7278   71.9261  218.5534 H   0  0  0  0  0  0  0  0  0  0  0  0
  145.5956   73.4581  218.4954 H   0  0  0  0  0  0  0  0  0  0  0  0
  146.1930   71.7310  220.6760 H   0  0  0  0  0  0  0  0  0  0  0  0
  145.5226   73.5462  221.5623 H   0  0  0  0  0  0  0  0  0  0  0  0
  146.0153   74.8358  220.4795 H   0  0  0  0  0  0  0  0  0  0  0  0
  143.5720   74.8045  221.5624 H   0  0  0  0  0  0  0  0  0  0  0  0
  144.6238   76.1754  219.4791 H   0  0  0  0  0  0  0  0  0  0  0  0
  143.3117   75.2447  218.6453 H   0  0  0  0  0  0  0  0  0  0  0  0
  142.7080   76.5320  221.0840 H   0  0  0  0  0  0  0  0  0  0  0  0
  138.1362   77.4425  222.6216 H   0  0  0  0  0  0  0  0  0  0  0  0
  138.3752   79.7867  223.3685 H   0  0  0  0  0  0  0  0  0  0  0  0
  139.8683   81.6000  223.8925 H   0  0  0  0  0  0  0  0  0  0  0  0
  142.1446   82.5667  224.1142 H   0  0  0  0  0  0  0  0  0  0  0  0
  144.1033   81.0864  223.5645 H   0  0  0  0  0  0  0  0  0  0  0  0
  143.7552   78.7582  222.8260 H   0  0  0  0  0  0  0  0  0  0  0  0
  1  2  2  0
  2  3  1  0
  3  4  1  0
  4  5  1  0
  5  6  2  0
  5  7  1  0
  7  8  1  0
  8  9  1  0
  9 10  1  0
  9 11  1  0
 11 12  1  0
 12 13  1  0
 13 14  1  0
  2 15  1  0
 15 16  2  0
 16 17  1  0
 17 18  2  0
 18 19  1  0
 19 20  2  0
 20 21  1  0
 21 22  2  0
 22 23  1  0
 23 24  2  0
 12  7  1  0
 24 15  1  0
 23 18  1  0
  3 25  1  0
  4 26  1  0
  4 27  1  0
  8 28  1  0
  8 29  1  0
  9 30  1  6
 10 31  1  0
 11 32  1  0
 11 33  1  0
 12 34  1  1
 13 35  1  0
 13 36  1  0
 14 37  1  0
 16 38  1  0
 17 39  1  0
 19 40  1  0
 20 41  1  0
 21 42  1  0
 22 43  1  0
M  END
>  <smiles>  (17) 
O=C(NCC(=O)N1C[C@H](O)C[C@H]1CO)c1ccc2ccccc2n1

>  <score_type>  (17) 
oracle

>  <origin>  (17) 
autodockgpu

>  <m_score__min__energy>  (17) 
-7.0099999999999998

>  <m_primary>  (17) 
energy

>  <rmsd>  (17) 
7.690398351688833

>  <m_score__min__rmsd>  (17) 
7.690398351688833

>  <meeko>  (17) 
{"free_energy": -6.98, "intermolecular_energy": -9.07, "internal_energy": -2.68, "cluster_size": 19, "cluster_id": 1, "rank_in_cluster": 9}

>  <energy>  (17) 
-6.37

>  <cluster_rmsd>  (17) 
0.51

>  <cluster>  (17) 
1

$$$$

     RDKit          3D

 43 45  0  0  0  0  0  0  0  0999 V2000
  137.6850   70.2070  221.8560 O   0  0  0  0  0  0  0  0  0  0  0  0
  138.1670   70.9870  222.7370 C   0  0  0  0  0  0  0  0  0  0  0  0
  138.1450   72.4160  222.5570 N   0  0  0  0  0  0  0  0  0  0  0  0
  137.5760   73.0110  221.3690 C   0  0  0  0  0  0  0  0  0  0  0  0
  138.5810   72.8810  220.2790 C   0  0  0  0  0  0  0  0  0  0  0  0
  138.3060   72.2050  219.2540 O   0  0  0  0  0  0  0  0  0  0  0  0
  139.8430   73.5340  220.4370 N   0  0  0  0  0  0  0  0  0  0  0  0
  140.0900   74.9630  220.4970 C   0  0  0  0  0  0  0  0  0  0  0  0
  141.4780   75.0980  221.0300 C   0  0  2  0  0  0  0  0  0  0  0  0
  142.0570   76.2420  220.4790 O   0  0  0  0  0  0  0  0  0  0  0  0
  142.1730   73.8590  220.4960 C   0  0  0  0  0  0  0  0  0  0  0  0
  141.1160   72.8100  220.5630 C   0  0  1  0  0  0  0  0  0  0  0  0
  141.0730   72.1080  221.9040 C   0  0  0  0  0  0  0  0  0  0  0  0
  140.6840   72.9740  222.9220 O   0  0  0  0  0  0  0  0  0  0  0  0
  138.7600   70.4480  223.9700 C   0  0  0  0  0  0  0  0  0  0  0  0
  138.6310   69.0990  224.2280 C   0  0  0  0  0  0  0  0  0  0  0  0
  139.1470   68.4870  225.3480 C   0  0  0  0  0  0  0  0  0  0  0  0
  139.8260   69.2900  226.2480 C   0  0  0  0  0  0  0  0  0  0  0  0
  140.3670   68.7620  227.3840 C   0  0  0  0  0  0  0  0  0  0  0  0
  141.0500   69.5220  228.3060 C   0  0  0  0  0  0  0  0  0  0  0  0
  141.1680   70.8860  228.0220 C   0  0  0  0  0  0  0  0  0  0  0  0
  140.6230   71.4330  226.8740 C   0  0  0  0  0  0  0  0  0  0  0  0
  139.9370   70.6350  225.9600 C   0  0  0  0  0  0  0  0  0  0  0  0
  139.4200   71.1980  224.8530 N   0  0  0  0  0  0  0  0  0  0  0  0
  138.5670   73.0010  223.3390 H   0  0  0  0  0  0  0  0  0  0  0  0
  136.6507   72.4848  221.0916 H   0  0  0  0  0  0  0  0  0  0  0  0
  137.3296   74.0685  221.5450 H   0  0  0  0  0  0  0  0  0  0  0  0
  140.0166   75.4096  219.4944 H   0  0  0  0  0  0  0  0  0  0  0  0
  139.3543   75.4813  221.1296 H   0  0  0  0  0  0  0  0  0  0  0  0
  141.5344   75.1844  222.1251 H   0  0  0  0  0  0  0  0  0  0  0  0
  142.3170   76.8350  221.2390 H   0  0  0  0  0  0  0  0  0  0  0  0
  142.5092   74.0126  219.4600 H   0  0  0  0  0  0  0  0  0  0  0  0
  143.0753   73.5947  221.0669 H   0  0  0  0  0  0  0  0  0  0  0  0
  141.3069   72.0555  219.7856 H   0  0  0  0  0  0  0  0  0  0  0  0
  140.3553   71.2762  221.8489 H   0  0  0  0  0  0  0  0  0  0  0  0
  142.0838   71.7393  222.1326 H   0  0  0  0  0  0  0  0  0  0  0  0
  140.1040   72.5020  223.5790 H   0  0  0  0  0  0  0  0  0  0  0  0
  138.0869   68.4793  223.5000 H   0  0  0  0  0  0  0  0  0  0  0  0
  139.0251   67.4074  225.5201 H   0  0  0  0  0  0  0  0  0  0  0  0
  140.2525   67.6840  227.5706 H   0  0  0  0  0  0  0  0  0  0  0  0
  141.4798   69.0802  229.2171 H   0  0  0  0  0  0  0  0  0  0  0  0
  141.7055   71.5380  228.7263 H   0  0  0  0  0  0  0  0  0  0  0  0
  140.7324   72.5103  226.6803 H   0  0  0  0  0  0  0  0  0  0  0  0
  1  2  2  0
  2  3  1  0
  3  4  1  0
  4  5  1  0
  5  6  2  0
  5  7  1  0
  7  8  1  0
  8  9  1  0
  9 10  1  0
  9 11  1  0
 11 12  1  0
 12 13  1  0
 13 14  1  0
  2 15  1  0
 15 16  2  0
 16 17  1  0
 17 18  2  0
 18 19  1  0
 19 20  2  0
 20 21  1  0
 21 22  2  0
 22 23  1  0
 23 24  2  0
 12  7  1  0
 24 15  1  0
 23 18  1  0
  3 25  1  0
  4 26  1  0
  4 27  1  0
  8 28  1  0
  8 29  1  0
  9 30  1  1
 10 31  1  0
 11 32  1  0
 11 33  1  0
 12 34  1  6
 13 35  1  0
 13 36  1  0
 14 37  1  0
 16 38  1  0
 17 39  1  0
 19 40  1  0
 20 41  1  0
 21 42  1  0
 22 43  1  0
M  END
>  <smiles>  (18) 
O=C(NCC(=O)N1C[C@H](O)C[C@H]1CO)c1ccc2ccccc2n1

>  <score_type>  (18) 
oracle

>  <origin>  (18) 
autodockgpu

>  <m_score__min__energy>  (18) 
-7.0099999999999998

>  <m_primary>  (18) 
energy

>  <rmsd>  (18) 
2.5783497323047344

>  <m_score__min__rmsd>  (18) 
2.5783497323047344

>  <meeko>  (18) 
{"free_energy": -5.7, "intermolecular_energy": -7.79, "internal_energy": -2.82, "cluster_size": 18, "cluster_id": 2, "rank_in_cluster": 18}

>  <energy>  (18) 
-6.3

>  <cluster_rmsd>  (18) 
0.52

>  <cluster>  (18) 
1

$$$$

     RDKit          3D

 43 45  0  0  0  0  0  0  0  0999 V2000
  138.8420   75.1650  222.1110 O   0  0  0  0  0  0  0  0  0  0  0  0
  140.0070   75.6730  222.0680 C   0  0  0  0  0  0  0  0  0  0  0  0
  141.1420   74.8950  221.6410 N   0  0  0  0  0  0  0  0  0  0  0  0
  140.9950   73.5120  221.2480 C   0  0  0  0  0  0  0  0  0  0  0  0
  141.7070   73.3380  219.9530 C   0  0  0  0  0  0  0  0  0  0  0  0
  141.0460   73.2170  218.8890 O   0  0  0  0  0  0  0  0  0  0  0  0
  143.1360   73.3110  219.9620 N   0  0  0  0  0  0  0  0  0  0  0  0
  143.9980   72.2600  219.4500 C   0  0  0  0  0  0  0  0  0  0  0  0
  145.3550   72.8750  219.3630 C   0  0  2  0  0  0  0  0  0  0  0  0
  146.3080   71.8830  219.5950 O   0  0  0  0  0  0  0  0  0  0  0  0
  145.3550   73.8700  220.5090 C   0  0  0  0  0  0  0  0  0  0  0  0
  143.9600   74.3940  220.5170 C   0  0  1  0  0  0  0  0  0  0  0  0
  143.7760   75.5810  219.5950 C   0  0  0  0  0  0  0  0  0  0  0  0
  142.4460   75.9870  219.5440 O   0  0  0  0  0  0  0  0  0  0  0  0
  140.2270   77.0740  222.4530 C   0  0  0  0  0  0  0  0  0  0  0  0
  139.1270   77.8740  222.6850 C   0  0  0  0  0  0  0  0  0  0  0  0
  139.2140   79.1980  223.0510 C   0  0  0  0  0  0  0  0  0  0  0  0
  140.4840   79.7320  223.1860 C   0  0  0  0  0  0  0  0  0  0  0  0
  140.6580   81.0370  223.5460 C   0  0  0  0  0  0  0  0  0  0  0  0
  141.9010   81.6090  223.6920 C   0  0  0  0  0  0  0  0  0  0  0  0
  143.0000   80.7790  223.4520 C   0  0  0  0  0  0  0  0  0  0  0  0
  142.8360   79.4540  223.0870 C   0  0  0  0  0  0  0  0  0  0  0  0
  141.5630   78.9050  222.9470 C   0  0  0  0  0  0  0  0  0  0  0  0
  141.4390   77.6140  222.5910 N   0  0  0  0  0  0  0  0  0  0  0  0
  142.0830   75.3910  221.6310 H   0  0  0  0  0  0  0  0  0  0  0  0
  141.4377   72.8553  222.0114 H   0  0  0  0  0  0  0  0  0  0  0  0
  139.9319   73.2491  221.1445 H   0  0  0  0  0  0  0  0  0  0  0  0
  144.0073   71.4002  220.1361 H   0  0  0  0  0  0  0  0  0  0  0  0
  143.6536   71.8840  218.4753 H   0  0  0  0  0  0  0  0  0  0  0  0
  145.5793   73.3388  218.3911 H   0  0  0  0  0  0  0  0  0  0  0  0
  146.1330   71.5140  220.5060 H   0  0  0  0  0  0  0  0  0  0  0  0
  145.5934   73.3729  221.4609 H   0  0  0  0  0  0  0  0  0  0  0  0
  146.1087   74.6620  220.3879 H   0  0  0  0  0  0  0  0  0  0  0  0
  143.6985   74.7077  221.5384 H   0  0  0  0  0  0  0  0  0  0  0  0
  144.3908   76.4165  219.9612 H   0  0  0  0  0  0  0  0  0  0  0  0
  144.0841   75.2819  218.5823 H   0  0  0  0  0  0  0  0  0  0  0  0
  141.8860   75.2930  219.1020 H   0  0  0  0  0  0  0  0  0  0  0  0
  138.1271   77.4299  222.5714 H   0  0  0  0  0  0  0  0  0  0  0  0
  138.3140   79.8050  223.2284 H   0  0  0  0  0  0  0  0  0  0  0  0
  139.7677   81.6572  223.7269 H   0  0  0  0  0  0  0  0  0  0  0  0
  142.0233   82.6630  223.9821 H   0  0  0  0  0  0  0  0  0  0  0  0
  144.0161   81.1874  223.5554 H   0  0  0  0  0  0  0  0  0  0  0  0
  143.7212   78.8269  222.9053 H   0  0  0  0  0  0  0  0  0  0  0  0
  1  2  2  0
  2  3  1  0
  3  4  1  0
  4  5  1  0
  5  6  2  0
  5  7  1  0
  7  8  1  0
  8  9  1  0
  9 10  1  0
  9 11  1  0
 11 12  1  0
 12 13  1  0
 13 14  1  0
  2 15  1  0
 15 16  2  0
 16 17  1  0
 17 18  2  0
 18 19  1  0
 19 20  2  0
 20 21  1  0
 21 22  2  0
 22 23  1  0
 23 24  2  0
 12  7  1  0
 24 15  1  0
 23 18  1  0
  3 25  1  0
  4 26  1  0
  4 27  1  0
  8 28  1  0
  8 29  1  0
  9 30  1  6
 10 31  1  0
 11 32  1  0
 11 33  1  0
 12 34  1  1
 13 35  1  0
 13 36  1  0
 14 37  1  0
 16 38  1  0
 17 39  1  0
 19 40  1  0
 20 41  1  0
 21 42  1  0
 22 43  1  0
M  END
>  <smiles>  (19) 
O=C(NCC(=O)N1C[C@H](O)C[C@H]1CO)c1ccc2ccccc2n1

>  <score_type>  (19) 
oracle

>  <origin>  (19) 
autodockgpu

>  <m_score__min__energy>  (19) 
-7.0099999999999998

>  <m_primary>  (19) 
energy

>  <rmsd>  (19) 
7.731903749099294

>  <m_score__min__rmsd>  (19) 
7.731903749099294

>  <meeko>  (19) 
{"free_energy": -6.37, "intermolecular_energy": -8.45, "internal_energy": -2.48, "cluster_size": 19, "cluster_id": 1, "rank_in_cluster": 17}

>  <energy>  (19) 
-6.0

>  <cluster_rmsd>  (19) 
1.91

>  <cluster>  (19) 
1

$$$$

     RDKit          3D

 43 45  0  0  0  0  0  0  0  0999 V2000
  138.8080   75.2860  221.7920 O   0  0  0  0  0  0  0  0  0  0  0  0
  139.9920   75.7220  221.9470 C   0  0  0  0  0  0  0  0  0  0  0  0
  141.1330   74.8760  221.7080 N   0  0  0  0  0  0  0  0  0  0  0  0
  140.9700   73.5030  221.2850 C   0  0  0  0  0  0  0  0  0  0  0  0
  141.6870   73.3470  219.9900 C   0  0  0  0  0  0  0  0  0  0  0  0
  141.0300   73.2070  218.9260 O   0  0  0  0  0  0  0  0  0  0  0  0
  143.1160   73.3600  219.9990 N   0  0  0  0  0  0  0  0  0  0  0  0
  144.0070   72.3380  219.4800 C   0  0  0  0  0  0  0  0  0  0  0  0
  145.3470   72.9920  219.3980 C   0  0  2  0  0  0  0  0  0  0  0  0
  146.3270   72.0250  219.6220 O   0  0  0  0  0  0  0  0  0  0  0  0
  145.3190   73.9780  220.5510 C   0  0  0  0  0  0  0  0  0  0  0  0
  143.9090   74.4620  220.5630 C   0  0  1  0  0  0  0  0  0  0  0  0
  143.6920   75.6500  219.6490 C   0  0  0  0  0  0  0  0  0  0  0  0
  142.5930   76.4060  220.0460 O   0  0  0  0  0  0  0  0  0  0  0  0
  140.2290   77.1090  222.3740 C   0  0  0  0  0  0  0  0  0  0  0  0
  139.1400   77.9060  222.6580 C   0  0  0  0  0  0  0  0  0  0  0  0
  139.2440   79.2160  223.0670 C   0  0  0  0  0  0  0  0  0  0  0  0
  140.5200   79.7390  223.1910 C   0  0  0  0  0  0  0  0  0  0  0  0
  140.7100   81.0290  223.5910 C   0  0  0  0  0  0  0  0  0  0  0  0
  141.9590   81.5890  223.7270 C   0  0  0  0  0  0  0  0  0  0  0  0
  143.0470   80.7630  223.4340 C   0  0  0  0  0  0  0  0  0  0  0  0
  142.8670   79.4520  223.0280 C   0  0  0  0  0  0  0  0  0  0  0  0
  141.5880   78.9150  222.8990 C   0  0  0  0  0  0  0  0  0  0  0  0
  141.4470   77.6370  222.5020 N   0  0  0  0  0  0  0  0  0  0  0  0
  142.0910   75.3140  221.8580 H   0  0  0  0  0  0  0  0  0  0  0  0
  141.3999   72.8246  222.0367 H   0  0  0  0  0  0  0  0  0  0  0  0
  139.9042   73.2563  221.1705 H   0  0  0  0  0  0  0  0  0  0  0  0
  144.0404   71.4739  220.1598 H   0  0  0  0  0  0  0  0  0  0  0  0
  143.6736   71.9596  218.5024 H   0  0  0  0  0  0  0  0  0  0  0  0
  145.5586   73.4697  218.4300 H   0  0  0  0  0  0  0  0  0  0  0  0
  146.0460   71.5020  220.4240 H   0  0  0  0  0  0  0  0  0  0  0  0
  145.5719   73.4810  221.4992 H   0  0  0  0  0  0  0  0  0  0  0  0
  146.0497   74.7921  220.4356 H   0  0  0  0  0  0  0  0  0  0  0  0
  143.6383   74.7601  221.5867 H   0  0  0  0  0  0  0  0  0  0  0  0
  144.5894   76.2857  219.6703 H   0  0  0  0  0  0  0  0  0  0  0  0
  143.5024   75.2733  218.6331 H   0  0  0  0  0  0  0  0  0  0  0  0
  142.7020   76.7130  220.9870 H   0  0  0  0  0  0  0  0  0  0  0  0
  138.1349   77.4717  222.5520 H   0  0  0  0  0  0  0  0  0  0  0  0
  138.3520   79.8213  223.2859 H   0  0  0  0  0  0  0  0  0  0  0  0
  139.8279   81.6472  223.8141 H   0  0  0  0  0  0  0  0  0  0  0  0
  142.0940   82.6320  224.0494 H   0  0  0  0  0  0  0  0  0  0  0  0
  144.0675   81.1627  223.5279 H   0  0  0  0  0  0  0  0  0  0  0  0
  143.7441   78.8269  222.8046 H   0  0  0  0  0  0  0  0  0  0  0  0
  1  2  2  0
  2  3  1  0
  3  4  1  0
  4  5  1  0
  5  6  2  0
  5  7  1  0
  7  8  1  0
  8  9  1  0
  9 10  1  0
  9 11  1  0
 11 12  1  0
 12 13  1  0
 13 14  1  0
  2 15  1  0
 15 16  2  0
 16 17  1  0
 17 18  2  0
 18 19  1  0
 19 20  2  0
 20 21  1  0
 21 22  2  0
 22 23  1  0
 23 24  2  0
 12  7  1  0
 24 15  1  0
 23 18  1  0
  3 25  1  0
  4 26  1  0
  4 27  1  0
  8 28  1  0
  8 29  1  0
  9 30  1  6
 10 31  1  0
 11 32  1  0
 11 33  1  0
 12 34  1  1
 13 35  1  0
 13 36  1  0
 14 37  1  0
 16 38  1  0
 17 39  1  0
 19 40  1  0
 20 41  1  0
 21 42  1  0
 22 43  1  0
M  END
>  <smiles>  (20) 
O=C(NCC(=O)N1C[C@H](O)C[C@H]1CO)c1ccc2ccccc2n1

>  <score_type>  (20) 
oracle

>  <origin>  (20) 
autodockgpu

>  <m_score__min__energy>  (20) 
-7.0099999999999998

>  <m_primary>  (20) 
energy

>  <rmsd>  (20) 
7.7236110500840605

>  <m_score__min__rmsd>  (20) 
7.7236110500840605

>  <meeko>  (20) 
{"free_energy": -6.98, "intermolecular_energy": -9.07, "internal_energy": -2.71, "cluster_size": 19, "cluster_id": 1, "rank_in_cluster": 11}

>  <energy>  (20) 
-6.79

>  <cluster_rmsd>  (20) 
0.0

>  <cluster>  (20) 
2

$$$$

     RDKit          3D

 43 45  0  0  0  0  0  0  0  0999 V2000
  139.6000   70.9920  221.1150 O   0  0  0  0  0  0  0  0  0  0  0  0
  140.0860   71.6510  222.0870 C   0  0  0  0  0  0  0  0  0  0  0  0
  140.7270   72.9230  221.8760 N   0  0  0  0  0  0  0  0  0  0  0  0
  140.8400   73.4930  220.5530 C   0  0  0  0  0  0  0  0  0  0  0  0
  142.1020   74.2810  220.5130 C   0  0  0  0  0  0  0  0  0  0  0  0
  142.0990   75.4830  220.8870 O   0  0  0  0  0  0  0  0  0  0  0  0
  143.2900   73.6400  220.0440 N   0  0  0  0  0  0  0  0  0  0  0  0
  144.6500   74.1400  220.1290 C   0  0  0  0  0  0  0  0  0  0  0  0
  145.5200   72.9590  219.8450 C   0  0  2  0  0  0  0  0  0  0  0  0
  146.6780   73.4040  219.2090 O   0  0  0  0  0  0  0  0  0  0  0  0
  144.6820   72.1400  218.8820 C   0  0  0  0  0  0  0  0  0  0  0  0
  143.2900   72.3270  219.3820 C   0  0  1  0  0  0  0  0  0  0  0  0
  142.9090   71.3170  220.4430 C   0  0  0  0  0  0  0  0  0  0  0  0
  142.0510   70.3440  219.9390 O   0  0  0  0  0  0  0  0  0  0  0  0
  140.0040   71.1300  223.4600 C   0  0  0  0  0  0  0  0  0  0  0  0
  139.3090   69.9590  223.6790 C   0  0  0  0  0  0  0  0  0  0  0  0
  139.1690   69.3790  224.9200 C   0  0  0  0  0  0  0  0  0  0  0  0
  139.7660   70.0270  225.9880 C   0  0  0  0  0  0  0  0  0  0  0  0
  139.6740   69.5190  227.2520 C   0  0  0  0  0  0  0  0  0  0  0  0
  140.2520   70.1290  228.3420 C   0  0  0  0  0  0  0  0  0  0  0  0
  140.9510   71.3130  228.0950 C   0  0  0  0  0  0  0  0  0  0  0  0
  141.0510   71.8380  226.8180 C   0  0  0  0  0  0  0  0  0  0  0  0
  140.4540   71.1960  225.7350 C   0  0  0  0  0  0  0  0  0  0  0  0
  140.5700   71.7320  224.5060 N   0  0  0  0  0  0  0  0  0  0  0  0
  141.1070   73.4140  222.7400 H   0  0  0  0  0  0  0  0  0  0  0  0
  140.8733   72.6917  219.8002 H   0  0  0  0  0  0  0  0  0  0  0  0
  139.9746   74.1350  220.3320 H   0  0  0  0  0  0  0  0  0  0  0  0
  144.8176   74.9308  219.3830 H   0  0  0  0  0  0  0  0  0  0  0  0
  144.8649   74.5817  221.1132 H   0  0  0  0  0  0  0  0  0  0  0  0
  145.8218   72.3937  220.7391 H   0  0  0  0  0  0  0  0  0  0  0  0
  146.4070   74.1240  218.5730 H   0  0  0  0  0  0  0  0  0  0  0  0
  144.7840   72.5173  217.8538 H   0  0  0  0  0  0  0  0  0  0  0  0
  144.9843   71.0830  218.8447 H   0  0  0  0  0  0  0  0  0  0  0  0
  142.5876   72.2238  218.5418 H   0  0  0  0  0  0  0  0  0  0  0  0
  143.8218   70.8295  220.8161 H   0  0  0  0  0  0  0  0  0  0  0  0
  142.3885   71.8486  221.2532 H   0  0  0  0  0  0  0  0  0  0  0  0
  141.1070   70.6560  219.9800 H   0  0  0  0  0  0  0  0  0  0  0  0
  138.8416   69.4619  222.8162 H   0  0  0  0  0  0  0  0  0  0  0  0
  138.6080   68.4428  225.0567 H   0  0  0  0  0  0  0  0  0  0  0  0
  139.1151   68.5841  227.4054 H   0  0  0  0  0  0  0  0  0  0  0  0
  140.1680   69.7065  229.3542 H   0  0  0  0  0  0  0  0  0  0  0  0
  141.4320   71.8391  228.9327 H   0  0  0  0  0  0  0  0  0  0  0  0
  141.6081   72.7726  226.6564 H   0  0  0  0  0  0  0  0  0  0  0  0
  1  2  2  0
  2  3  1  0
  3  4  1  0
  4  5  1  0
  5  6  2  0
  5  7  1  0
  7  8  1  0
  8  9  1  0
  9 10  1  0
  9 11  1  0
 11 12  1  0
 12 13  1  0
 13 14  1  0
  2 15  1  0
 15 16  2  0
 16 17  1  0
 17 18  2  0
 18 19  1  0
 19 20  2  0
 20 21  1  0
 21 22  2  0
 22 23  1  0
 23 24  2  0
 12  7  1  0
 24 15  1  0
 23 18  1  0
  3 25  1  0
  4 26  1  0
  4 27  1  0
  8 28  1  0
  8 29  1  0
  9 30  1  1
 10 31  1  0
 11 32  1  0
 11 33  1  0
 12 34  1  6
 13 35  1  0
 13 36  1  0
 14 37  1  0
 16 38  1  0
 17 39  1  0
 19 40  1  0
 20 41  1  0
 21 42  1  0
 22 43  1  0
M  END
>  <smiles>  (21) 
O=C(NCC(=O)N1C[C@H](O)C[C@H]1CO)c1ccc2ccccc2n1

>  <score_type>  (21) 
oracle

>  <origin>  (21) 
autodockgpu

>  <m_score__min__energy>  (21) 
-7.0099999999999998

>  <m_primary>  (21) 
energy

>  <rmsd>  (21) 
3.808812251064748

>  <m_score__min__rmsd>  (21) 
3.808812251064748

>  <meeko>  (21) 
{"free_energy": -6.37, "intermolecular_energy": -8.46, "internal_energy": -1.9, "cluster_size": 4, "cluster_id": 4, "rank_in_cluster": 1}

>  <energy>  (21) 
-6.6

>  <cluster_rmsd>  (21) 
1.83

>  <cluster>  (21) 
2

$$$$

     RDKit          3D

 43 45  0  0  0  0  0  0  0  0999 V2000
  137.8520   70.1740  221.7910 O   0  0  0  0  0  0  0  0  0  0  0  0
  138.2180   70.9740  222.7090 C   0  0  0  0  0  0  0  0  0  0  0  0
  138.0620   72.3980  222.5610 N   0  0  0  0  0  0  0  0  0  0  0  0
  137.4830   72.9660  221.3650 C   0  0  0  0  0  0  0  0  0  0  0  0
  137.5410   74.4470  221.5010 C   0  0  0  0  0  0  0  0  0  0  0  0
  136.4730   75.1070  221.5930 O   0  0  0  0  0  0  0  0  0  0  0  0
  138.8230   75.0780  221.5210 N   0  0  0  0  0  0  0  0  0  0  0  0
  139.2140   76.2480  222.2880 C   0  0  0  0  0  0  0  0  0  0  0  0
  140.7060   76.2650  222.2420 C   0  0  2  0  0  0  0  0  0  0  0  0
  141.1360   77.5910  222.2750 O   0  0  0  0  0  0  0  0  0  0  0  0
  141.0150   75.6540  220.8880 C   0  0  0  0  0  0  0  0  0  0  0  0
  139.9680   74.6050  220.7300 C   0  0  1  0  0  0  0  0  0  0  0  0
  140.3770   73.2760  221.3310 C   0  0  0  0  0  0  0  0  0  0  0  0
  140.4400   73.3410  222.7200 O   0  0  0  0  0  0  0  0  0  0  0  0
  138.8140   70.4630  223.9530 C   0  0  0  0  0  0  0  0  0  0  0  0
  138.7190   69.1130  224.2230 C   0  0  0  0  0  0  0  0  0  0  0  0
  139.2400   68.5260  225.3530 C   0  0  0  0  0  0  0  0  0  0  0  0
  139.8870   69.3550  226.2530 C   0  0  0  0  0  0  0  0  0  0  0  0
  140.4310   68.8530  227.3990 C   0  0  0  0  0  0  0  0  0  0  0  0
  141.0830   69.6400  228.3200 C   0  0  0  0  0  0  0  0  0  0  0  0
  141.1670   71.0040  228.0250 C   0  0  0  0  0  0  0  0  0  0  0  0
  140.6190   71.5250  226.8660 C   0  0  0  0  0  0  0  0  0  0  0  0
  139.9650   70.7010  225.9530 C   0  0  0  0  0  0  0  0  0  0  0  0
  139.4430   71.2390  224.8350 N   0  0  0  0  0  0  0  0  0  0  0  0
  138.3920   73.0000  223.3740 H   0  0  0  0  0  0  0  0  0  0  0  0
  138.0562   72.6470  220.4820 H   0  0  0  0  0  0  0  0  0  0  0  0
  136.4437   72.6285  221.2392 H   0  0  0  0  0  0  0  0  0  0  0  0
  138.8036   77.1619  221.8338 H   0  0  0  0  0  0  0  0  0  0  0  0
  138.8348   76.2090  223.3198 H   0  0  0  0  0  0  0  0  0  0  0  0
  141.1898   75.7320  223.0738 H   0  0  0  0  0  0  0  0  0  0  0  0
  142.1220   77.5850  222.1150 H   0  0  0  0  0  0  0  0  0  0  0  0
  140.9393   76.4078  220.0904 H   0  0  0  0  0  0  0  0  0  0  0  0
  142.0367   75.2514  220.8237 H   0  0  0  0  0  0  0  0  0  0  0  0
  139.7690   74.4524  219.6590 H   0  0  0  0  0  0  0  0  0  0  0  0
  139.6406   72.5116  221.0422 H   0  0  0  0  0  0  0  0  0  0  0  0
  141.3774   73.0197  220.9522 H   0  0  0  0  0  0  0  0  0  0  0  0
  140.0560   72.5160  223.1250 H   0  0  0  0  0  0  0  0  0  0  0  0
  138.1989   68.4720  223.4959 H   0  0  0  0  0  0  0  0  0  0  0  0
  139.1465   67.4449  225.5333 H   0  0  0  0  0  0  0  0  0  0  0  0
  140.3447   67.7740  227.5948 H   0  0  0  0  0  0  0  0  0  0  0  0
  141.5152   69.2185  229.2395 H   0  0  0  0  0  0  0  0  0  0  0  0
  141.6792   71.6768  228.7285 H   0  0  0  0  0  0  0  0  0  0  0  0
  140.7009   72.6030  226.6632 H   0  0  0  0  0  0  0  0  0  0  0  0
  1  2  2  0
  2  3  1  0
  3  4  1  0
  4  5  1  0
  5  6  2  0
  5  7  1  0
  7  8  1  0
  8  9  1  0
  9 10  1  0
  9 11  1  0
 11 12  1  0
 12 13  1  0
 13 14  1  0
  2 15  1  0
 15 16  2  0
 16 17  1  0
 17 18  2  0
 18 19  1  0
 19 20  2  0
 20 21  1  0
 21 22  2  0
 22 23  1  0
 23 24  2  0
 12  7  1  0
 24 15  1  0
 23 18  1  0
  3 25  1  0
  4 26  1  0
  4 27  1  0
  8 28  1  0
  8 29  1  0
  9 30  1  1
 10 31  1  0
 11 32  1  0
 11 33  1  0
 12 34  1  6
 13 35  1  0
 13 36  1  0
 14 37  1  0
 16 38  1  0
 17 39  1  0
 19 40  1  0
 20 41  1  0
 21 42  1  0
 22 43  1  0
M  END
>  <smiles>  (22) 
O=C(NCC(=O)N1C[C@H](O)C[C@H]1CO)c1ccc2ccccc2n1

>  <score_type>  (22) 
oracle

>  <origin>  (22) 
autodockgpu

>  <m_score__min__energy>  (22) 
-7.0099999999999998

>  <m_primary>  (22) 
energy

>  <rmsd>  (22) 
2.5290759916295196

>  <m_score__min__rmsd>  (22) 
2.5290759916295196

>  <meeko>  (22) 
{"free_energy": -6.32, "intermolecular_energy": -8.41, "internal_energy": -2.18, "cluster_size": 18, "cluster_id": 2, "rank_in_cluster": 8}

>  <energy>  (22) 
-6.49

>  <cluster_rmsd>  (22) 
1.54

>  <cluster>  (22) 
2

$$$$

     RDKit          3D

 43 45  0  0  0  0  0  0  0  0999 V2000
  136.2810   69.4190  224.1320 O   0  0  0  0  0  0  0  0  0  0  0  0
  136.1970   70.6730  224.3240 C   0  0  0  0  0  0  0  0  0  0  0  0
  137.1930   71.5740  223.8050 N   0  0  0  0  0  0  0  0  0  0  0  0
  138.3220   71.0830  223.0470 C   0  0  0  0  0  0  0  0  0  0  0  0
  139.5050   71.0950  223.9510 C   0  0  0  0  0  0  0  0  0  0  0  0
  140.4120   71.9500  223.7800 O   0  0  0  0  0  0  0  0  0  0  0  0
  139.5720   70.1220  224.9960 N   0  0  0  0  0  0  0  0  0  0  0  0
  139.3810   68.6880  224.8730 C   0  0  0  0  0  0  0  0  0  0  0  0
  139.9140   68.1120  226.1440 C   0  0  2  0  0  0  0  0  0  0  0  0
  139.1820   66.9670  226.4540 O   0  0  0  0  0  0  0  0  0  0  0  0
  139.6270   69.2010  227.1610 C   0  0  0  0  0  0  0  0  0  0  0  0
  139.8550   70.4610  226.3980 C   0  0  1  0  0  0  0  0  0  0  0  0
  141.2990   70.9170  226.4400 C   0  0  0  0  0  0  0  0  0  0  0  0
  141.3960   72.3050  226.4790 O   0  0  0  0  0  0  0  0  0  0  0  0
  135.0740   71.2390  225.0860 C   0  0  0  0  0  0  0  0  0  0  0  0
  134.1700   70.3740  225.6670 C   0  0  0  0  0  0  0  0  0  0  0  0
  133.0830   70.7920  226.4020 C   0  0  0  0  0  0  0  0  0  0  0  0
  132.9090   72.1570  226.5490 C   0  0  0  0  0  0  0  0  0  0  0  0
  131.8580   72.6540  227.2620 C   0  0  0  0  0  0  0  0  0  0  0  0
  131.6470   74.0030  227.4350 C   0  0  0  0  0  0  0  0  0  0  0  0
  132.5760   74.8600  226.8370 C   0  0  0  0  0  0  0  0  0  0  0  0
  133.6470   74.3670  226.1120 C   0  0  0  0  0  0  0  0  0  0  0  0
  133.8320   72.9950  225.9560 C   0  0  0  0  0  0  0  0  0  0  0  0
  134.8830   72.5490  225.2440 N   0  0  0  0  0  0  0  0  0  0  0  0
  137.0520   72.6090  224.0070 H   0  0  0  0  0  0  0  0  0  0  0  0
  138.1246   70.0580  222.6999 H   0  0  0  0  0  0  0  0  0  0  0  0
  138.5014   71.7148  222.1646 H   0  0  0  0  0  0  0  0  0  0  0  0
  138.3132   68.4494  224.7592 H   0  0  0  0  0  0  0  0  0  0  0  0
  139.8931   68.2791  223.9895 H   0  0  0  0  0  0  0  0  0  0  0  0
  140.9770   67.8323  226.1026 H   0  0  0  0  0  0  0  0  0  0  0  0
  139.7530   66.4050  227.0500 H   0  0  0  0  0  0  0  0  0  0  0  0
  138.5885   69.1407  227.5186 H   0  0  0  0  0  0  0  0  0  0  0  0
  140.2578   69.1246  228.0589 H   0  0  0  0  0  0  0  0  0  0  0  0
  139.2293   71.2589  226.8244 H   0  0  0  0  0  0  0  0  0  0  0  0
  141.7793   70.5000  227.3375 H   0  0  0  0  0  0  0  0  0  0  0  0
  141.7991   70.5622  225.5267 H   0  0  0  0  0  0  0  0  0  0  0  0
  140.9080   72.7100  225.7120 H   0  0  0  0  0  0  0  0  0  0  0  0
  134.3257   69.2929  225.5363 H   0  0  0  0  0  0  0  0  0  0  0  0
  132.3836   70.0723  226.8525 H   0  0  0  0  0  0  0  0  0  0  0  0
  131.1492   71.9471  227.7179 H   0  0  0  0  0  0  0  0  0  0  0  0
  130.7932   74.3865  228.0128 H   0  0  0  0  0  0  0  0  0  0  0  0
  132.4532   75.9478  226.9449 H   0  0  0  0  0  0  0  0  0  0  0  0
  134.3609   75.0670  225.6534 H   0  0  0  0  0  0  0  0  0  0  0  0
  1  2  2  0
  2  3  1  0
  3  4  1  0
  4  5  1  0
  5  6  2  0
  5  7  1  0
  7  8  1  0
  8  9  1  0
  9 10  1  0
  9 11  1  0
 11 12  1  0
 12 13  1  0
 13 14  1  0
  2 15  1  0
 15 16  2  0
 16 17  1  0
 17 18  2  0
 18 19  1  0
 19 20  2  0
 20 21  1  0
 21 22  2  0
 22 23  1  0
 23 24  2  0
 12  7  1  0
 24 15  1  0
 23 18  1  0
  3 25  1  0
  4 26  1  0
  4 27  1  0
  8 28  1  0
  8 29  1  0
  9 30  1  6
 10 31  1  0
 11 32  1  0
 11 33  1  0
 12 34  1  1
 13 35  1  0
 13 36  1  0
 14 37  1  0
 16 38  1  0
 17 39  1  0
 19 40  1  0
 20 41  1  0
 21 42  1  0
 22 43  1  0
M  END
>  <smiles>  (23) 
O=C(NCC(=O)N1C[C@H](O)C[C@H]1CO)c1ccc2ccccc2n1

>  <score_type>  (23) 
oracle

>  <origin>  (23) 
autodockgpu

>  <m_score__min__energy>  (23) 
-7.0099999999999998

>  <m_primary>  (23) 
energy

>  <rmsd>  (23) 
7.968313608450359

>  <m_score__min__rmsd>  (23) 
7.968313608450359

>  <meeko>  (23) 
{"free_energy": -6.31, "intermolecular_energy": -8.4, "internal_energy": -2.09, "cluster_size": 1, "cluster_id": 5, "rank_in_cluster": 1}

>  <energy>  (23) 
-6.4

>  <cluster_rmsd>  (23) 
1.27

>  <cluster>  (23) 
2

$$$$

     RDKit          3D

 43 45  0  0  0  0  0  0  0  0999 V2000
  138.8330   75.1780  222.0250 O   0  0  0  0  0  0  0  0  0  0  0  0
  140.0050   75.6700  222.0470 C   0  0  0  0  0  0  0  0  0  0  0  0
  141.1510   74.8780  221.6830 N   0  0  0  0  0  0  0  0  0  0  0  0
  141.0080   73.4970  221.2810 C   0  0  0  0  0  0  0  0  0  0  0  0
  141.7220   73.3320  219.9860 C   0  0  0  0  0  0  0  0  0  0  0  0
  141.0620   73.2220  218.9200 O   0  0  0  0  0  0  0  0  0  0  0  0
  143.1510   73.3030  219.9960 N   0  0  0  0  0  0  0  0  0  0  0  0
  144.0120   72.2610  219.4680 C   0  0  0  0  0  0  0  0  0  0  0  0
  145.3700   72.8750  219.3940 C   0  0  2  0  0  0  0  0  0  0  0  0
  146.3210   71.8780  219.6090 O   0  0  0  0  0  0  0  0  0  0  0  0
  145.3700   73.8500  220.5560 C   0  0  0  0  0  0  0  0  0  0  0  0
  143.9750   74.3760  220.5710 C   0  0  1  0  0  0  0  0  0  0  0  0
  143.7940   75.5790  219.6690 C   0  0  0  0  0  0  0  0  0  0  0  0
  142.4660   75.9940  219.6310 O   0  0  0  0  0  0  0  0  0  0  0  0
  140.2220   77.0690  222.4450 C   0  0  0  0  0  0  0  0  0  0  0  0
  139.1200   77.8630  222.6880 C   0  0  0  0  0  0  0  0  0  0  0  0
  139.2040   79.1840  223.0670 C   0  0  0  0  0  0  0  0  0  0  0  0
  140.4730   79.7210  223.2020 C   0  0  0  0  0  0  0  0  0  0  0  0
  140.6440   81.0220  223.5740 C   0  0  0  0  0  0  0  0  0  0  0  0
  141.8860   81.5970  223.7210 C   0  0  0  0  0  0  0  0  0  0  0  0
  142.9870   80.7730  223.4700 C   0  0  0  0  0  0  0  0  0  0  0  0
  142.8260   79.4510  223.0920 C   0  0  0  0  0  0  0  0  0  0  0  0
  141.5540   78.9000  222.9520 C   0  0  0  0  0  0  0  0  0  0  0  0
  141.4320   77.6110  222.5830 N   0  0  0  0  0  0  0  0  0  0  0  0
  142.0980   75.3610  221.7250 H   0  0  0  0  0  0  0  0  0  0  0  0
  141.4512   72.8368  222.0410 H   0  0  0  0  0  0  0  0  0  0  0  0
  139.9456   73.2326  221.1741 H   0  0  0  0  0  0  0  0  0  0  0  0
  144.0188   71.3895  220.1392 H   0  0  0  0  0  0  0  0  0  0  0  0
  143.6689   71.9028  218.4862 H   0  0  0  0  0  0  0  0  0  0  0  0
  145.5966   73.3554  218.4307 H   0  0  0  0  0  0  0  0  0  0  0  0
  146.1740   71.5250  220.5320 H   0  0  0  0  0  0  0  0  0  0  0  0
  145.6065   73.3366  221.4997 H   0  0  0  0  0  0  0  0  0  0  0  0
  146.1250   74.6428  220.4493 H   0  0  0  0  0  0  0  0  0  0  0  0
  143.7119   74.6728  221.5970 H   0  0  0  0  0  0  0  0  0  0  0  0
  144.4157   76.4047  220.0456 H   0  0  0  0  0  0  0  0  0  0  0  0
  144.0955   75.2944  218.6501 H   0  0  0  0  0  0  0  0  0  0  0  0
  141.8980   75.3050  219.1920 H   0  0  0  0  0  0  0  0  0  0  0  0
  138.1212   77.4168  222.5728 H   0  0  0  0  0  0  0  0  0  0  0  0
  138.3027   79.7861  223.2543 H   0  0  0  0  0  0  0  0  0  0  0  0
  139.7523   81.6374  223.7645 H   0  0  0  0  0  0  0  0  0  0  0  0
  142.0058   82.6488  224.0200 H   0  0  0  0  0  0  0  0  0  0  0  0
  144.0021   81.1835  223.5750 H   0  0  0  0  0  0  0  0  0  0  0  0
  143.7124   78.8285  222.9000 H   0  0  0  0  0  0  0  0  0  0  0  0
  1  2  2  0
  2  3  1  0
  3  4  1  0
  4  5  1  0
  5  6  2  0
  5  7  1  0
  7  8  1  0
  8  9  1  0
  9 10  1  0
  9 11  1  0
 11 12  1  0
 12 13  1  0
 13 14  1  0
  2 15  1  0
 15 16  2  0
 16 17  1  0
 17 18  2  0
 18 19  1  0
 19 20  2  0
 20 21  1  0
 21 22  2  0
 22 23  1  0
 23 24  2  0
 12  7  1  0
 24 15  1  0
 23 18  1  0
  3 25  1  0
  4 26  1  0
  4 27  1  0
  8 28  1  0
  8 29  1  0
  9 30  1  6
 10 31  1  0
 11 32  1  0
 11 33  1  0
 12 34  1  1
 13 35  1  0
 13 36  1  0
 14 37  1  0
 16 38  1  0
 17 39  1  0
 19 40  1  0
 20 41  1  0
 21 42  1  0
 22 43  1  0
M  END
>  <smiles>  (24) 
O=C(NCC(=O)N1C[C@H](O)C[C@H]1CO)c1ccc2ccccc2n1

>  <score_type>  (24) 
oracle

>  <origin>  (24) 
autodockgpu

>  <m_score__min__energy>  (24) 
-7.0099999999999998

>  <m_primary>  (24) 
energy

>  <rmsd>  (24) 
7.72900084131041

>  <m_score__min__rmsd>  (24) 
7.72900084131041

>  <meeko>  (24) 
{"free_energy": -6.38, "intermolecular_energy": -8.46, "internal_energy": -2.46, "cluster_size": 19, "cluster_id": 1, "rank_in_cluster": 16}

>  <energy>  (24) 
-6.33

>  <cluster_rmsd>  (24) 
0.44

>  <cluster>  (24) 
2

$$$$

     RDKit          3D

 43 45  0  0  0  0  0  0  0  0999 V2000
  139.7450   74.4850  222.3390 O   0  0  0  0  0  0  0  0  0  0  0  0
  140.2870   75.4060  221.6480 C   0  0  0  0  0  0  0  0  0  0  0  0
  140.8690   75.1250  220.3610 N   0  0  0  0  0  0  0  0  0  0  0  0
  140.8590   73.7890  219.8110 C   0  0  0  0  0  0  0  0  0  0  0  0
  141.7680   72.9560  220.6450 C   0  0  0  0  0  0  0  0  0  0  0  0
  141.2910   72.2380  221.5620 O   0  0  0  0  0  0  0  0  0  0  0  0
  143.1710   73.0020  220.3730 N   0  0  0  0  0  0  0  0  0  0  0  0
  144.0050   71.9210  219.8790 C   0  0  0  0  0  0  0  0  0  0  0  0
  145.2670   72.5770  219.4260 C   0  0  2  0  0  0  0  0  0  0  0  0
  146.3250   71.6900  219.6220 O   0  0  0  0  0  0  0  0  0  0  0  0
  145.3990   73.7570  220.3710 C   0  0  0  0  0  0  0  0  0  0  0  0
  143.9920   74.2050  220.5700 C   0  0  1  0  0  0  0  0  0  0  0  0
  143.5410   75.2010  219.5220 C   0  0  0  0  0  0  0  0  0  0  0  0
  143.2700   76.4460  220.0820 O   0  0  0  0  0  0  0  0  0  0  0  0
  140.3310   76.7880  222.1480 C   0  0  0  0  0  0  0  0  0  0  0  0
  139.1580   77.3690  222.5830 C   0  0  0  0  0  0  0  0  0  0  0  0
  139.0820   78.6540  223.0710 C   0  0  0  0  0  0  0  0  0  0  0  0
  140.2590   79.3810  223.1170 C   0  0  0  0  0  0  0  0  0  0  0  0
  140.2700   80.6620  223.5870 C   0  0  0  0  0  0  0  0  0  0  0  0
  141.4170   81.4210  223.6500 C   0  0  0  0  0  0  0  0  0  0  0  0
  142.5930   80.8110  223.2050 C   0  0  0  0  0  0  0  0  0  0  0  0
  142.5940   79.5120  222.7260 C   0  0  0  0  0  0  0  0  0  0  0  0
  141.4150   78.7700  222.6750 C   0  0  0  0  0  0  0  0  0  0  0  0
  141.4510   77.5100  222.2040 N   0  0  0  0  0  0  0  0  0  0  0  0
  141.3020   75.9490  219.8450 H   0  0  0  0  0  0  0  0  0  0  0  0
  139.8392   73.3778  219.8413 H   0  0  0  0  0  0  0  0  0  0  0  0
  141.1938   73.7984  218.7633 H   0  0  0  0  0  0  0  0  0  0  0  0
  144.2128   71.1967  220.6804 H   0  0  0  0  0  0  0  0  0  0  0  0
  143.5167   71.3630  219.0665 H   0  0  0  0  0  0  0  0  0  0  0  0
  145.2667   72.8729  218.3665 H   0  0  0  0  0  0  0  0  0  0  0  0
  146.0710   71.0920  220.3810 H   0  0  0  0  0  0  0  0  0  0  0  0
  145.8514   73.4477  221.3248 H   0  0  0  0  0  0  0  0  0  0  0  0
  146.0487   74.5514  219.9750 H   0  0  0  0  0  0  0  0  0  0  0  0
  143.9015   74.6802  221.5579 H   0  0  0  0  0  0  0  0  0  0  0  0
  144.3362   75.3131  218.7703 H   0  0  0  0  0  0  0  0  0  0  0  0
  142.6165   74.8218  219.0620 H   0  0  0  0  0  0  0  0  0  0  0  0
  142.7610   76.3420  220.9320 H   0  0  0  0  0  0  0  0  0  0  0  0
  138.2341   76.7738  222.5375 H   0  0  0  0  0  0  0  0  0  0  0  0
  138.1279   79.0841  223.4095 H   0  0  0  0  0  0  0  0  0  0  0  0
  139.3239   81.1064  223.9295 H   0  0  0  0  0  0  0  0  0  0  0  0
  141.4082   82.4531  224.0305 H   0  0  0  0  0  0  0  0  0  0  0  0
  143.5372   81.3745  223.2360 H   0  0  0  0  0  0  0  0  0  0  0  0
  143.5360   79.0602  222.3817 H   0  0  0  0  0  0  0  0  0  0  0  0
  1  2  2  0
  2  3  1  0
  3  4  1  0
  4  5  1  0
  5  6  2  0
  5  7  1  0
  7  8  1  0
  8  9  1  0
  9 10  1  0
  9 11  1  0
 11 12  1  0
 12 13  1  0
 13 14  1  0
  2 15  1  0
 15 16  2  0
 16 17  1  0
 17 18  2  0
 18 19  1  0
 19 20  2  0
 20 21  1  0
 21 22  2  0
 22 23  1  0
 23 24  2  0
 12  7  1  0
 24 15  1  0
 23 18  1  0
  3 25  1  0
  4 26  1  0
  4 27  1  0
  8 28  1  0
  8 29  1  0
  9 30  1  6
 10 31  1  0
 11 32  1  0
 11 33  1  0
 12 34  1  1
 13 35  1  0
 13 36  1  0
 14 37  1  0
 16 38  1  0
 17 39  1  0
 19 40  1  0
 20 41  1  0
 21 42  1  0
 22 43  1  0
M  END
>  <smiles>  (25) 
O=C(NCC(=O)N1C[C@H](O)C[C@H]1CO)c1ccc2ccccc2n1

>  <score_type>  (25) 
oracle

>  <origin>  (25) 
autodockgpu

>  <m_score__min__energy>  (25) 
-7.0099999999999998

>  <m_primary>  (25) 
energy

>  <rmsd>  (25) 
7.623082659933609

>  <m_score__min__rmsd>  (25) 
7.623082659933609

>  <meeko>  (25) 
{"free_energy": -6.87, "intermolecular_energy": -8.96, "internal_energy": -2.3, "cluster_size": 19, "cluster_id": 1, "rank_in_cluster": 13}

>  <energy>  (25) 
-6.33

>  <cluster_rmsd>  (25) 
0.43

>  <cluster>  (25) 
2

$$$$

     RDKit          3D

 43 45  0  0  0  0  0  0  0  0999 V2000
  140.9750   71.6120  221.3840 O   0  0  0  0  0  0  0  0  0  0  0  0
  140.4470   72.1740  222.3950 C   0  0  0  0  0  0  0  0  0  0  0  0
  140.0040   73.5430  222.3380 N   0  0  0  0  0  0  0  0  0  0  0  0
  140.1460   74.3250  221.1300 C   0  0  0  0  0  0  0  0  0  0  0  0
  140.1710   75.7580  221.5280 C   0  0  0  0  0  0  0  0  0  0  0  0
  139.8580   76.0860  222.7020 O   0  0  0  0  0  0  0  0  0  0  0  0
  140.5540   76.7280  220.5500 N   0  0  0  0  0  0  0  0  0  0  0  0
  139.8830   77.0240  219.2970 C   0  0  0  0  0  0  0  0  0  0  0  0
  140.4500   78.3290  218.8470 C   0  0  2  0  0  0  0  0  0  0  0  0
  140.4640   78.3510  217.4530 O   0  0  0  0  0  0  0  0  0  0  0  0
  141.8710   78.2870  219.3790 C   0  0  0  0  0  0  0  0  0  0  0  0
  141.7330   77.5940  220.6910 C   0  0  1  0  0  0  0  0  0  0  0  0
  141.4240   78.5480  221.8260 C   0  0  0  0  0  0  0  0  0  0  0  0
  141.6300   77.9510  223.0660 O   0  0  0  0  0  0  0  0  0  0  0  0
  140.2710   71.4360  223.6550 C   0  0  0  0  0  0  0  0  0  0  0  0
  139.6300   70.2150  223.6190 C   0  0  0  0  0  0  0  0  0  0  0  0
  139.4130   69.4380  224.7350 C   0  0  0  0  0  0  0  0  0  0  0  0
  139.8690   69.9310  225.9450 C   0  0  0  0  0  0  0  0  0  0  0  0
  139.6930   69.2240  227.0980 C   0  0  0  0  0  0  0  0  0  0  0  0
  140.1310   69.6760  228.3220 C   0  0  0  0  0  0  0  0  0  0  0  0
  140.7780   70.9150  228.3330 C   0  0  0  0  0  0  0  0  0  0  0  0
  140.9630   71.6420  227.1690 C   0  0  0  0  0  0  0  0  0  0  0  0
  140.5070   71.1560  225.9460 C   0  0  0  0  0  0  0  0  0  0  0  0
  140.7020   71.8870  224.8330 N   0  0  0  0  0  0  0  0  0  0  0  0
  139.5710   73.9410  223.2240 H   0  0  0  0  0  0  0  0  0  0  0  0
  141.0834   74.0604  220.6188 H   0  0  0  0  0  0  0  0  0  0  0  0
  139.3124   74.1282  220.4397 H   0  0  0  0  0  0  0  0  0  0  0  0
  140.0878   76.2382  218.5550 H   0  0  0  0  0  0  0  0  0  0  0  0
  138.7906   77.0705  219.4171 H   0  0  0  0  0  0  0  0  0  0  0  0
  139.8877   79.2091  219.1923 H   0  0  0  0  0  0  0  0  0  0  0  0
  139.7650   79.0020  217.1620 H   0  0  0  0  0  0  0  0  0  0  0  0
  142.5272   77.7200  218.7023 H   0  0  0  0  0  0  0  0  0  0  0  0
  142.3239   79.2855  219.4683 H   0  0  0  0  0  0  0  0  0  0  0  0
  142.6735   77.0735  220.9246 H   0  0  0  0  0  0  0  0  0  0  0  0
  142.0777   79.4285  221.7405 H   0  0  0  0  0  0  0  0  0  0  0  0
  140.3651   78.8371  221.7545 H   0  0  0  0  0  0  0  0  0  0  0  0
  141.8260   76.9810  222.9580 H   0  0  0  0  0  0  0  0  0  0  0  0
  139.2734   69.8423  222.6474 H   0  0  0  0  0  0  0  0  0  0  0  0
  138.8995   68.4676  224.6676 H   0  0  0  0  0  0  0  0  0  0  0  0
  139.1798   68.2524  227.0476 H   0  0  0  0  0  0  0  0  0  0  0  0
  139.9799   69.0932  229.2426 H   0  0  0  0  0  0  0  0  0  0  0  0
  141.1479   71.3210  229.2861 H   0  0  0  0  0  0  0  0  0  0  0  0
  141.4758   72.6142  227.2108 H   0  0  0  0  0  0  0  0  0  0  0  0
  1  2  2  0
  2  3  1  0
  3  4  1  0
  4  5  1  0
  5  6  2  0
  5  7  1  0
  7  8  1  0
  8  9  1  0
  9 10  1  0
  9 11  1  0
 11 12  1  0
 12 13  1  0
 13 14  1  0
  2 15  1  0
 15 16  2  0
 16 17  1  0
 17 18  2  0
 18 19  1  0
 19 20  2  0
 20 21  1  0
 21 22  2  0
 22 23  1  0
 23 24  2  0
 12  7  1  0
 24 15  1  0
 23 18  1  0
  3 25  1  0
  4 26  1  0
  4 27  1  0
  8 28  1  0
  8 29  1  0
  9 30  1  1
 10 31  1  0
 11 32  1  0
 11 33  1  0
 12 34  1  1
 13 35  1  0
 13 36  1  0
 14 37  1  0
 16 38  1  0
 17 39  1  0
 19 40  1  0
 20 41  1  0
 21 42  1  0
 22 43  1  0
M  END
>  <smiles>  (26) 
O=C(NCC(=O)N1C[C@H](O)C[C@H]1CO)c1ccc2ccccc2n1

>  <score_type>  (26) 
oracle

>  <origin>  (26) 
autodockgpu

>  <m_score__min__energy>  (26) 
-7.0099999999999998

>  <m_primary>  (26) 
energy

>  <rmsd>  (26) 
1.7669635189816286

>  <m_score__min__rmsd>  (26) 
1.7669635189816286

>  <meeko>  (26) 
{"free_energy": -6.21, "intermolecular_energy": -8.3, "internal_energy": -2.07, "cluster_size": 18, "cluster_id": 2, "rank_in_cluster": 12}

>  <energy>  (26) 
-6.32

>  <cluster_rmsd>  (26) 
0.43

>  <cluster>  (26) 
2

$$$$

     RDKit          3D

 43 45  0  0  0  0  0  0  0  0999 V2000
  138.8060   75.2410  221.8290 O   0  0  0  0  0  0  0  0  0  0  0  0
  139.9900   75.6770  221.9910 C   0  0  0  0  0  0  0  0  0  0  0  0
  141.1320   74.8320  221.7550 N   0  0  0  0  0  0  0  0  0  0  0  0
  140.9720   73.4610  221.3270 C   0  0  0  0  0  0  0  0  0  0  0  0
  141.6810   73.3140  220.0270 C   0  0  0  0  0  0  0  0  0  0  0  0
  141.0170   73.1830  218.9650 O   0  0  0  0  0  0  0  0  0  0  0  0
  143.1100   73.3240  220.0270 N   0  0  0  0  0  0  0  0  0  0  0  0
  143.9960   72.3070  219.4910 C   0  0  0  0  0  0  0  0  0  0  0  0
  145.3360   72.9580  219.4080 C   0  0  2  0  0  0  0  0  0  0  0  0
  146.3160   71.9880  219.6150 O   0  0  0  0  0  0  0  0  0  0  0  0
  145.3170   73.9310  220.5720 C   0  0  0  0  0  0  0  0  0  0  0  0
  143.9080   74.4180  220.5980 C   0  0  1  0  0  0  0  0  0  0  0  0
  143.6880   75.6170  219.6990 C   0  0  0  0  0  0  0  0  0  0  0  0
  142.5880   76.3660  220.1060 O   0  0  0  0  0  0  0  0  0  0  0  0
  140.2240   77.0620  222.4250 C   0  0  0  0  0  0  0  0  0  0  0  0
  139.1330   77.8570  222.7080 C   0  0  0  0  0  0  0  0  0  0  0  0
  139.2340   79.1660  223.1220 C   0  0  0  0  0  0  0  0  0  0  0  0
  140.5090   79.6890  223.2520 C   0  0  0  0  0  0  0  0  0  0  0  0
  140.6960   80.9790  223.6570 C   0  0  0  0  0  0  0  0  0  0  0  0
  141.9450   81.5390  223.8000 C   0  0  0  0  0  0  0  0  0  0  0  0
  143.0350   80.7150  223.5090 C   0  0  0  0  0  0  0  0  0  0  0  0
  142.8570   79.4050  223.0970 C   0  0  0  0  0  0  0  0  0  0  0  0
  141.5790   78.8670  222.9610 C   0  0  0  0  0  0  0  0  0  0  0  0
  141.4410   77.5910  222.5590 N   0  0  0  0  0  0  0  0  0  0  0  0
  142.0890   75.2700  221.9110 H   0  0  0  0  0  0  0  0  0  0  0  0
  141.4096   72.7810  222.0727 H   0  0  0  0  0  0  0  0  0  0  0  0
  139.9065   73.2103  221.2183 H   0  0  0  0  0  0  0  0  0  0  0  0
  144.0318   71.4351  220.1607 H   0  0  0  0  0  0  0  0  0  0  0  0
  143.6558   71.9412  218.5110 H   0  0  0  0  0  0  0  0  0  0  0  0
  145.5423   73.4452  218.4436 H   0  0  0  0  0  0  0  0  0  0  0  0
  146.1180   71.5530  220.4920 H   0  0  0  0  0  0  0  0  0  0  0  0
  145.5745   73.4229  221.5130 H   0  0  0  0  0  0  0  0  0  0  0  0
  146.0488   74.7447  220.4612 H   0  0  0  0  0  0  0  0  0  0  0  0
  143.6439   74.7055  221.6264 H   0  0  0  0  0  0  0  0  0  0  0  0
  144.5843   76.2541  219.7275 H   0  0  0  0  0  0  0  0  0  0  0  0
  143.4982   75.2525  218.6787 H   0  0  0  0  0  0  0  0  0  0  0  0
  142.7020   76.6700  221.0470 H   0  0  0  0  0  0  0  0  0  0  0  0
  138.1288   77.4219  222.5970 H   0  0  0  0  0  0  0  0  0  0  0  0
  138.3407   79.7698  223.3399 H   0  0  0  0  0  0  0  0  0  0  0  0
  139.8126   81.5960  223.8780 H   0  0  0  0  0  0  0  0  0  0  0  0
  142.0781   82.5810  224.1264 H   0  0  0  0  0  0  0  0  0  0  0  0
  144.0549   81.1148  223.6091 H   0  0  0  0  0  0  0  0  0  0  0  0
  143.7354   78.7814  222.8743 H   0  0  0  0  0  0  0  0  0  0  0  0
  1  2  2  0
  2  3  1  0
  3  4  1  0
  4  5  1  0
  5  6  2  0
  5  7  1  0
  7  8  1  0
  8  9  1  0
  9 10  1  0
  9 11  1  0
 11 12  1  0
 12 13  1  0
 13 14  1  0
  2 15  1  0
 15 16  2  0
 16 17  1  0
 17 18  2  0
 18 19  1  0
 19 20  2  0
 20 21  1  0
 21 22  2  0
 22 23  1  0
 23 24  2  0
 12  7  1  0
 24 15  1  0
 23 18  1  0
  3 25  1  0
  4 26  1  0
  4 27  1  0
  8 28  1  0
  8 29  1  0
  9 30  1  6
 10 31  1  0
 11 32  1  0
 11 33  1  0
 12 34  1  1
 13 35  1  0
 13 36  1  0
 14 37  1  0
 16 38  1  0
 17 39  1  0
 19 40  1  0
 20 41  1  0
 21 42  1  0
 22 43  1  0
M  END
>  <smiles>  (27) 
O=C(NCC(=O)N1C[C@H](O)C[C@H]1CO)c1ccc2ccccc2n1

>  <score_type>  (27) 
oracle

>  <origin>  (27) 
autodockgpu

>  <m_score__min__energy>  (27) 
-7.0099999999999998

>  <m_primary>  (27) 
energy

>  <rmsd>  (27) 
7.6901719375744255

>  <m_score__min__rmsd>  (27) 
7.6901719375744255

>  <meeko>  (27) 
{"free_energy": -7.01, "intermolecular_energy": -9.1, "internal_energy": -2.7, "cluster_size": 19, "cluster_id": 1, "rank_in_cluster": 2}

>  <energy>  (27) 
-6.32

>  <cluster_rmsd>  (27) 
1.98

>  <cluster>  (27) 
2

$$$$

     RDKit          3D

 43 45  0  0  0  0  0  0  0  0999 V2000
  140.3100   70.9570  221.5360 O   0  0  0  0  0  0  0  0  0  0  0  0
  139.9090   72.0470  222.0540 C   0  0  0  0  0  0  0  0  0  0  0  0
  138.8970   72.0560  223.0780 N   0  0  0  0  0  0  0  0  0  0  0  0
  138.3020   70.8270  223.5520 C   0  0  0  0  0  0  0  0  0  0  0  0
  139.4080   69.9470  224.0170 C   0  0  0  0  0  0  0  0  0  0  0  0
  139.8340   69.0310  223.2660 O   0  0  0  0  0  0  0  0  0  0  0  0
  139.9550   70.1720  225.3180 N   0  0  0  0  0  0  0  0  0  0  0  0
  139.9940   71.4250  226.0490 C   0  0  0  0  0  0  0  0  0  0  0  0
  140.3160   71.0470  227.4570 C   0  0  2  0  0  0  0  0  0  0  0  0
  141.0560   72.0780  228.0360 O   0  0  0  0  0  0  0  0  0  0  0  0
  141.1870   69.8150  227.2910 C   0  0  0  0  0  0  0  0  0  0  0  0
  140.5800   69.1130  226.1240 C   0  0  1  0  0  0  0  0  0  0  0  0
  139.4650   68.1710  226.5240 C   0  0  0  0  0  0  0  0  0  0  0  0
  139.0350   67.4010  225.4460 O   0  0  0  0  0  0  0  0  0  0  0  0
  140.4730   73.3330  221.6180 C   0  0  0  0  0  0  0  0  0  0  0  0
  141.3910   73.3360  220.5890 C   0  0  0  0  0  0  0  0  0  0  0  0
  141.9810   74.4790  220.0990 C   0  0  0  0  0  0  0  0  0  0  0  0
  141.6190   75.6770  220.6900 C   0  0  0  0  0  0  0  0  0  0  0  0
  142.1580   76.8560  220.2640 C   0  0  0  0  0  0  0  0  0  0  0  0
  141.8270   78.0700  220.8220 C   0  0  0  0  0  0  0  0  0  0  0  0
  140.8950   78.0430  221.8630 C   0  0  0  0  0  0  0  0  0  0  0  0
  140.3410   76.8530  222.3040 C   0  0  0  0  0  0  0  0  0  0  0  0
  140.6980   75.6400  221.7180 C   0  0  0  0  0  0  0  0  0  0  0  0
  140.1410   74.5020  222.1690 N   0  0  0  0  0  0  0  0  0  0  0  0
  138.6160   73.0080  223.4610 H   0  0  0  0  0  0  0  0  0  0  0  0
  137.6148   71.0387  224.3844 H   0  0  0  0  0  0  0  0  0  0  0  0
  137.7285   70.3389  222.7502 H   0  0  0  0  0  0  0  0  0  0  0  0
  140.7719   72.0863  225.6396 H   0  0  0  0  0  0  0  0  0  0  0  0
  139.0425   71.9724  225.9776 H   0  0  0  0  0  0  0  0  0  0  0  0
  139.4341   70.8677  228.0895 H   0  0  0  0  0  0  0  0  0  0  0  0
  140.4170   72.6450  228.5520 H   0  0  0  0  0  0  0  0  0  0  0  0
  142.2297   70.0961  227.0817 H   0  0  0  0  0  0  0  0  0  0  0  0
  141.2216   69.1902  228.1957 H   0  0  0  0  0  0  0  0  0  0  0  0
  141.3569   68.5276  225.6105 H   0  0  0  0  0  0  0  0  0  0  0  0
  139.8296   67.5024  227.3178 H   0  0  0  0  0  0  0  0  0  0  0  0
  138.6154   68.7731  226.8783 H   0  0  0  0  0  0  0  0  0  0  0  0
  139.6560   67.5030  224.6750 H   0  0  0  0  0  0  0  0  0  0  0  0
  141.6668   72.3727  220.1351 H   0  0  0  0  0  0  0  0  0  0  0  0
  142.7080   74.4419  219.2743 H   0  0  0  0  0  0  0  0  0  0  0  0
  142.8872   76.8354  219.4407 H   0  0  0  0  0  0  0  0  0  0  0  0
  142.2723   79.0112  220.4674 H   0  0  0  0  0  0  0  0  0  0  0  0
  140.5952   78.9867  222.3421 H   0  0  0  0  0  0  0  0  0  0  0  0
  139.6106   76.8653  223.1264 H   0  0  0  0  0  0  0  0  0  0  0  0
  1  2  2  0
  2  3  1  0
  3  4  1  0
  4  5  1  0
  5  6  2  0
  5  7  1  0
  7  8  1  0
  8  9  1  0
  9 10  1  0
  9 11  1  0
 11 12  1  0
 12 13  1  0
 13 14  1  0
  2 15  1  0
 15 16  2  0
 16 17  1  0
 17 18  2  0
 18 19  1  0
 19 20  2  0
 20 21  1  0
 21 22  2  0
 22 23  1  0
 23 24  2  0
 12  7  1  0
 24 15  1  0
 23 18  1  0
  3 25  1  0
  4 26  1  0
  4 27  1  0
  8 28  1  0
  8 29  1  0
  9 30  1  1
 10 31  1  0
 11 32  1  0
 11 33  1  0
 12 34  1  6
 13 35  1  0
 13 36  1  0
 14 37  1  0
 16 38  1  0
 17 39  1  0
 19 40  1  0
 20 41  1  0
 21 42  1  0
 22 43  1  0
M  END
>  <smiles>  (28) 
O=C(NCC(=O)N1C[C@H](O)C[C@H]1CO)c1ccc2ccccc2n1

>  <score_type>  (28) 
oracle

>  <origin>  (28) 
autodockgpu

>  <m_score__min__energy>  (28) 
-7.0099999999999998

>  <m_primary>  (28) 
energy

>  <rmsd>  (28) 
8.202039077853192

>  <m_score__min__rmsd>  (28) 
8.202039077853192

>  <meeko>  (28) 
{"free_energy": -6.27, "intermolecular_energy": -8.36, "internal_energy": -1.89, "cluster_size": 1, "cluster_id": 6, "rank_in_cluster": 1}

>  <energy>  (28) 
-6.32

>  <cluster_rmsd>  (28) 
1.56

>  <cluster>  (28) 
2

$$$$

     RDKit          3D

 43 45  0  0  0  0  0  0  0  0999 V2000
  137.2060   70.2080  221.9280 O   0  0  0  0  0  0  0  0  0  0  0  0
  137.7670   70.9890  222.7590 C   0  0  0  0  0  0  0  0  0  0  0  0
  137.7340   72.4170  222.5770 N   0  0  0  0  0  0  0  0  0  0  0  0
  137.0630   73.0100  221.4420 C   0  0  0  0  0  0  0  0  0  0  0  0
  138.1050   73.3410  220.4310 C   0  0  0  0  0  0  0  0  0  0  0  0
  137.9800   72.9280  219.2490 O   0  0  0  0  0  0  0  0  0  0  0  0
  139.2270   74.1250  220.8420 N   0  0  0  0  0  0  0  0  0  0  0  0
  139.2080   75.4770  221.3700 C   0  0  0  0  0  0  0  0  0  0  0  0
  140.5570   75.6800  221.9750 C   0  0  2  0  0  0  0  0  0  0  0  0
  140.9030   77.0250  221.8460 O   0  0  0  0  0  0  0  0  0  0  0  0
  141.4570   74.8290  221.0990 C   0  0  0  0  0  0  0  0  0  0  0  0
  140.6140   73.6420  220.7800 C   0  0  1  0  0  0  0  0  0  0  0  0
  140.7280   72.5470  221.8200 C   0  0  0  0  0  0  0  0  0  0  0  0
  140.3960   73.0120  223.0900 O   0  0  0  0  0  0  0  0  0  0  0  0
  138.4660   70.4520  223.9360 C   0  0  0  0  0  0  0  0  0  0  0  0
  138.4230   69.0920  224.1640 C   0  0  0  0  0  0  0  0  0  0  0  0
  139.0410   68.4810  225.2310 C   0  0  0  0  0  0  0  0  0  0  0  0
  139.7340   69.2960  226.1100 C   0  0  0  0  0  0  0  0  0  0  0  0
  140.3740   68.7700  227.1930 C   0  0  0  0  0  0  0  0  0  0  0  0
  141.0750   69.5420  228.0910 C   0  0  0  0  0  0  0  0  0  0  0  0
  141.1040   70.9170  227.8400 C   0  0  0  0  0  0  0  0  0  0  0  0
  140.4590   71.4620  226.7430 C   0  0  0  0  0  0  0  0  0  0  0  0
  139.7570   70.6520  225.8530 C   0  0  0  0  0  0  0  0  0  0  0  0
  139.1410   71.2140  224.7970 N   0  0  0  0  0  0  0  0  0  0  0  0
  138.2250   73.0030  223.3160 H   0  0  0  0  0  0  0  0  0  0  0  0
  136.3407   72.2971  221.0178 H   0  0  0  0  0  0  0  0  0  0  0  0
  136.5144   73.9142  221.7443 H   0  0  0  0  0  0  0  0  0  0  0  0
  139.0339   76.2038  220.5629 H   0  0  0  0  0  0  0  0  0  0  0  0
  138.4021   75.6199  222.1050 H   0  0  0  0  0  0  0  0  0  0  0  0
  140.6191   75.4150  223.0408 H   0  0  0  0  0  0  0  0  0  0  0  0
  141.8950   77.0850  221.9490 H   0  0  0  0  0  0  0  0  0  0  0  0
  141.7379   75.3690  220.1828 H   0  0  0  0  0  0  0  0  0  0  0  0
  142.4037   74.5614  221.5910 H   0  0  0  0  0  0  0  0  0  0  0  0
  140.9255   73.2283  219.8095 H   0  0  0  0  0  0  0  0  0  0  0  0
  140.0471   71.7261  221.5507 H   0  0  0  0  0  0  0  0  0  0  0  0
  141.7714   72.1994  221.8419 H   0  0  0  0  0  0  0  0  0  0  0  0
  139.5810   72.5510  223.4270 H   0  0  0  0  0  0  0  0  0  0  0  0
  137.8650   68.4626  223.4552 H   0  0  0  0  0  0  0  0  0  0  0  0
  138.9868   67.3924  225.3791 H   0  0  0  0  0  0  0  0  0  0  0  0
  140.3281   67.6831  227.3557 H   0  0  0  0  0  0  0  0  0  0  0  0
  141.5852   69.1008  228.9599 H   0  0  0  0  0  0  0  0  0  0  0  0
  141.6503   71.5791  228.5279 H   0  0  0  0  0  0  0  0  0  0  0  0
  140.5013   72.5478  226.5720 H   0  0  0  0  0  0  0  0  0  0  0  0
  1  2  2  0
  2  3  1  0
  3  4  1  0
  4  5  1  0
  5  6  2  0
  5  7  1  0
  7  8  1  0
  8  9  1  0
  9 10  1  0
  9 11  1  0
 11 12  1  0
 12 13  1  0
 13 14  1  0
  2 15  1  0
 15 16  2  0
 16 17  1  0
 17 18  2  0
 18 19  1  0
 19 20  2  0
 20 21  1  0
 21 22  2  0
 22 23  1  0
 23 24  2  0
 12  7  1  0
 24 15  1  0
 23 18  1  0
  3 25  1  0
  4 26  1  0
  4 27  1  0
  8 28  1  0
  8 29  1  0
  9 30  1  1
 10 31  1  0
 11 32  1  0
 11 33  1  0
 12 34  1  6
 13 35  1  0
 13 36  1  0
 14 37  1  0
 16 38  1  0
 17 39  1  0
 19 40  1  0
 20 41  1  0
 21 42  1  0
 22 43  1  0
M  END
>  <smiles>  (29) 
O=C(NCC(=O)N1C[C@H](O)C[C@H]1CO)c1ccc2ccccc2n1

>  <score_type>  (29) 
oracle

>  <origin>  (29) 
autodockgpu

>  <m_score__min__energy>  (29) 
-7.0099999999999998

>  <m_primary>  (29) 
energy

>  <rmsd>  (29) 
2.559519071948933

>  <m_score__min__rmsd>  (29) 
2.559519071948933

>  <meeko>  (29) 
{"free_energy": -5.99, "intermolecular_energy": -8.08, "internal_energy": -2.83, "cluster_size": 18, "cluster_id": 2, "rank_in_cluster": 14}

>  <energy>  (29) 
-6.3

>  <cluster_rmsd>  (29) 
0.49

>  <cluster>  (29) 
2

$$$$

     RDKit          3D

 43 45  0  0  0  0  0  0  0  0999 V2000
  138.8030   75.2520  221.8340 O   0  0  0  0  0  0  0  0  0  0  0  0
  139.9880   75.6820  221.9970 C   0  0  0  0  0  0  0  0  0  0  0  0
  141.1270   74.8330  221.7600 N   0  0  0  0  0  0  0  0  0  0  0  0
  140.9610   73.4630  221.3300 C   0  0  0  0  0  0  0  0  0  0  0  0
  141.6780   73.3120  220.0350 C   0  0  0  0  0  0  0  0  0  0  0  0
  141.0210   73.1880  218.9680 O   0  0  0  0  0  0  0  0  0  0  0  0
  143.1070   73.3130  220.0450 N   0  0  0  0  0  0  0  0  0  0  0  0
  143.9900   72.2880  219.5160 C   0  0  0  0  0  0  0  0  0  0  0  0
  145.3350   72.9310  219.4430 C   0  0  2  0  0  0  0  0  0  0  0  0
  146.3070   71.9530  219.6580 O   0  0  0  0  0  0  0  0  0  0  0  0
  145.3150   73.9050  220.6060 C   0  0  0  0  0  0  0  0  0  0  0  0
  143.9090   74.4020  220.6210 C   0  0  1  0  0  0  0  0  0  0  0  0
  143.7040   75.6010  219.7190 C   0  0  0  0  0  0  0  0  0  0  0  0
  142.5890   76.3430  220.1010 O   0  0  0  0  0  0  0  0  0  0  0  0
  140.2280   77.0660  222.4330 C   0  0  0  0  0  0  0  0  0  0  0  0
  139.1410   77.8610  222.7310 C   0  0  0  0  0  0  0  0  0  0  0  0
  139.2480   79.1680  223.1480 C   0  0  0  0  0  0  0  0  0  0  0  0
  140.5240   79.6900  223.2670 C   0  0  0  0  0  0  0  0  0  0  0  0
  140.7170   80.9780  223.6750 C   0  0  0  0  0  0  0  0  0  0  0  0
  141.9680   81.5360  223.8060 C   0  0  0  0  0  0  0  0  0  0  0  0
  143.0540   80.7120  223.5000 C   0  0  0  0  0  0  0  0  0  0  0  0
  142.8710   79.4040  223.0860 C   0  0  0  0  0  0  0  0  0  0  0  0
  141.5910   78.8680  222.9620 C   0  0  0  0  0  0  0  0  0  0  0  0
  141.4470   77.5930  222.5570 N   0  0  0  0  0  0  0  0  0  0  0  0
  142.0860   75.2660  221.9180 H   0  0  0  0  0  0  0  0  0  0  0  0
  141.3889   72.7798  222.0784 H   0  0  0  0  0  0  0  0  0  0  0  0
  139.8946   73.2194  221.2137 H   0  0  0  0  0  0  0  0  0  0  0  0
  144.0149   71.4164  220.1866 H   0  0  0  0  0  0  0  0  0  0  0  0
  143.6547   71.9227  218.5341 H   0  0  0  0  0  0  0  0  0  0  0  0
  145.5513   73.4172  218.4802 H   0  0  0  0  0  0  0  0  0  0  0  0
  146.1230   71.5480  220.5520 H   0  0  0  0  0  0  0  0  0  0  0  0
  145.5620   73.3959  221.5493 H   0  0  0  0  0  0  0  0  0  0  0  0
  146.0536   74.7133  220.5002 H   0  0  0  0  0  0  0  0  0  0  0  0
  143.6396   74.6924  221.6472 H   0  0  0  0  0  0  0  0  0  0  0  0
  144.5954   76.2434  219.7704 H   0  0  0  0  0  0  0  0  0  0  0  0
  143.5416   75.2374  218.6936 H   0  0  0  0  0  0  0  0  0  0  0  0
  142.6860   76.6590  221.0400 H   0  0  0  0  0  0  0  0  0  0  0  0
  138.1352   77.4272  222.6300 H   0  0  0  0  0  0  0  0  0  0  0  0
  138.3575   79.7719  223.3769 H   0  0  0  0  0  0  0  0  0  0  0  0
  139.8368   81.5951  223.9086 H   0  0  0  0  0  0  0  0  0  0  0  0
  142.1058   82.5767  224.1346 H   0  0  0  0  0  0  0  0  0  0  0  0
  144.0752   81.1109  223.5899 H   0  0  0  0  0  0  0  0  0  0  0  0
  143.7464   78.7804  222.8521 H   0  0  0  0  0  0  0  0  0  0  0  0
  1  2  2  0
  2  3  1  0
  3  4  1  0
  4  5  1  0
  5  6  2  0
  5  7  1  0
  7  8  1  0
  8  9  1  0
  9 10  1  0
  9 11  1  0
 11 12  1  0
 12 13  1  0
 13 14  1  0
  2 15  1  0
 15 16  2  0
 16 17  1  0
 17 18  2  0
 18 19  1  0
 19 20  2  0
 20 21  1  0
 21 22  2  0
 22 23  1  0
 23 24  2  0
 12  7  1  0
 24 15  1  0
 23 18  1  0
  3 25  1  0
  4 26  1  0
  4 27  1  0
  8 28  1  0
  8 29  1  0
  9 30  1  6
 10 31  1  0
 11 32  1  0
 11 33  1  0
 12 34  1  1
 13 35  1  0
 13 36  1  0
 14 37  1  0
 16 38  1  0
 17 39  1  0
 19 40  1  0
 20 41  1  0
 21 42  1  0
 22 43  1  0
M  END
>  <smiles>  (30) 
O=C(NCC(=O)N1C[C@H](O)C[C@H]1CO)c1ccc2ccccc2n1

>  <score_type>  (30) 
oracle

>  <origin>  (30) 
autodockgpu

>  <m_score__min__energy>  (30) 
-7.0099999999999998

>  <m_primary>  (30) 
energy

>  <rmsd>  (30) 
7.694779927260786

>  <m_score__min__rmsd>  (30) 
7.694779927260786

>  <meeko>  (30) 
{"free_energy": -7.0, "intermolecular_energy": -9.09, "internal_energy": -2.7, "cluster_size": 19, "cluster_id": 1, "rank_in_cluster": 4}

>  <energy>  (30) 
-6.26

>  <cluster_rmsd>  (30) 
1.84

>  <cluster>  (30) 
2

$$$$

     RDKit          3D

 43 45  0  0  0  0  0  0  0  0999 V2000
  140.7420   71.6720  221.0270 O   0  0  0  0  0  0  0  0  0  0  0  0
  140.3020   72.2820  222.0510 C   0  0  0  0  0  0  0  0  0  0  0  0
  139.9410   73.6750  221.9900 N   0  0  0  0  0  0  0  0  0  0  0  0
  140.0680   74.4260  220.7610 C   0  0  0  0  0  0  0  0  0  0  0  0
  140.9820   75.5700  221.0290 C   0  0  0  0  0  0  0  0  0  0  0  0
  141.1370   75.9820  222.2080 O   0  0  0  0  0  0  0  0  0  0  0  0
  141.6620   76.1700  219.9240 N   0  0  0  0  0  0  0  0  0  0  0  0
  141.6480   77.5700  219.5400 C   0  0  0  0  0  0  0  0  0  0  0  0
  142.7810   77.7240  218.5810 C   0  0  2  0  0  0  0  0  0  0  0  0
  142.4490   78.7130  217.6550 O   0  0  0  0  0  0  0  0  0  0  0  0
  142.8360   76.3710  217.8950 C   0  0  0  0  0  0  0  0  0  0  0  0
  142.5030   75.4120  218.9860 C   0  0  1  0  0  0  0  0  0  0  0  0
  143.7210   74.9730  219.7710 C   0  0  0  0  0  0  0  0  0  0  0  0
  143.3640   74.2960  220.9340 O   0  0  0  0  0  0  0  0  0  0  0  0
  140.1480   71.5780  223.3330 C   0  0  0  0  0  0  0  0  0  0  0  0
  139.4180   70.4080  223.3580 C   0  0  0  0  0  0  0  0  0  0  0  0
  139.2100   69.6670  224.4990 C   0  0  0  0  0  0  0  0  0  0  0  0
  139.7730   70.1420  225.6710 C   0  0  0  0  0  0  0  0  0  0  0  0
  139.6140   69.4670  226.8460 C   0  0  0  0  0  0  0  0  0  0  0  0
  140.1560   69.9030  228.0330 C   0  0  0  0  0  0  0  0  0  0  0  0
  140.8920   71.0900  227.9830 C   0  0  0  0  0  0  0  0  0  0  0  0
  141.0600   71.7840  226.7970 C   0  0  0  0  0  0  0  0  0  0  0  0
  140.4980   71.3150  225.6120 C   0  0  0  0  0  0  0  0  0  0  0  0
  140.6800   72.0140  224.4760 N   0  0  0  0  0  0  0  0  0  0  0  0
  139.5810   74.1150  222.8890 H   0  0  0  0  0  0  0  0  0  0  0  0
  140.4886   73.7860  219.9714 H   0  0  0  0  0  0  0  0  0  0  0  0
  139.0850   74.7860  220.4232 H   0  0  0  0  0  0  0  0  0  0  0  0
  140.6947   77.8275  219.0553 H   0  0  0  0  0  0  0  0  0  0  0  0
  141.7518   78.2359  220.4094 H   0  0  0  0  0  0  0  0  0  0  0  0
  143.7346   78.0073  219.0505 H   0  0  0  0  0  0  0  0  0  0  0  0
  143.2990   79.0140  217.2280 H   0  0  0  0  0  0  0  0  0  0  0  0
  142.0977   76.3126  217.0817 H   0  0  0  0  0  0  0  0  0  0  0  0
  143.8114   76.1670  217.4291 H   0  0  0  0  0  0  0  0  0  0  0  0
  142.0340   74.5179  218.5494 H   0  0  0  0  0  0  0  0  0  0  0  0
  144.3297   74.3064  219.1424 H   0  0  0  0  0  0  0  0  0  0  0  0
  144.2889   75.8709  220.0559 H   0  0  0  0  0  0  0  0  0  0  0  0
  142.9590   74.9240  221.5920 H   0  0  0  0  0  0  0  0  0  0  0  0
  138.9787   70.0480  222.4160 H   0  0  0  0  0  0  0  0  0  0  0  0
  138.6219   68.7376  224.4804 H   0  0  0  0  0  0  0  0  0  0  0  0
  139.0283   68.5359  226.8442 H   0  0  0  0  0  0  0  0  0  0  0  0
  140.0174   69.3467  228.9718 H   0  0  0  0  0  0  0  0  0  0  0  0
  141.3472   71.4809  228.9050 H   0  0  0  0  0  0  0  0  0  0  0  0
  141.6438   72.7162  226.7904 H   0  0  0  0  0  0  0  0  0  0  0  0
  1  2  2  0
  2  3  1  0
  3  4  1  0
  4  5  1  0
  5  6  2  0
  5  7  1  0
  7  8  1  0
  8  9  1  0
  9 10  1  0
  9 11  1  0
 11 12  1  0
 12 13  1  0
 13 14  1  0
  2 15  1  0
 15 16  2  0
 16 17  1  0
 17 18  2  0
 18 19  1  0
 19 20  2  0
 20 21  1  0
 21 22  2  0
 22 23  1  0
 23 24  2  0
 12  7  1  0
 24 15  1  0
 23 18  1  0
  3 25  1  0
  4 26  1  0
  4 27  1  0
  8 28  1  0
  8 29  1  0
  9 30  1  1
 10 31  1  0
 11 32  1  0
 11 33  1  0
 12 34  1  6
 13 35  1  0
 13 36  1  0
 14 37  1  0
 16 38  1  0
 17 39  1  0
 19 40  1  0
 20 41  1  0
 21 42  1  0
 22 43  1  0
M  END
>  <smiles>  (31) 
O=C(NCC(=O)N1C[C@H](O)C[C@H]1CO)c1ccc2ccccc2n1

>  <score_type>  (31) 
oracle

>  <origin>  (31) 
autodockgpu

>  <m_score__min__energy>  (31) 
-7.0099999999999998

>  <m_primary>  (31) 
energy

>  <rmsd>  (31) 
2.279024962720035

>  <m_score__min__rmsd>  (31) 
2.279024962720035

>  <meeko>  (31) 
{"free_energy": -6.79, "intermolecular_energy": -8.87, "internal_energy": -1.82, "cluster_size": 18, "cluster_id": 2, "rank_in_cluster": 1}

>  <energy>  (31) 
-6.21

>  <cluster_rmsd>  (31) 
1.36

>  <cluster>  (31) 
2

$$$$

     RDKit          3D

 43 45  0  0  0  0  0  0  0  0999 V2000
  136.5060   70.7310  221.8740 O   0  0  0  0  0  0  0  0  0  0  0  0
  137.3130   71.3940  222.5980 C   0  0  0  0  0  0  0  0  0  0  0  0
  137.4810   72.8120  222.4180 N   0  0  0  0  0  0  0  0  0  0  0  0
  136.7390   73.5300  221.4060 C   0  0  0  0  0  0  0  0  0  0  0  0
  137.7050   73.9380  220.3500 C   0  0  0  0  0  0  0  0  0  0  0  0
  137.4040   73.7840  219.1370 O   0  0  0  0  0  0  0  0  0  0  0  0
  138.9570   74.4960  220.7520 N   0  0  0  0  0  0  0  0  0  0  0  0
  139.1800   75.7690  221.4130 C   0  0  0  0  0  0  0  0  0  0  0  0
  140.5780   75.7020  221.9320 C   0  0  2  0  0  0  0  0  0  0  0  0
  141.1210   76.9860  221.9140 O   0  0  0  0  0  0  0  0  0  0  0  0
  141.2820   74.8280  220.9100 C   0  0  0  0  0  0  0  0  0  0  0  0
  140.2460   73.8220  220.5380 C   0  0  1  0  0  0  0  0  0  0  0  0
  140.2500   72.6150  221.4520 C   0  0  0  0  0  0  0  0  0  0  0  0
  140.3410   72.9870  222.7900 O   0  0  0  0  0  0  0  0  0  0  0  0
  138.0980   70.7260  223.6470 C   0  0  0  0  0  0  0  0  0  0  0  0
  138.0460   69.3500  223.7340 C   0  0  0  0  0  0  0  0  0  0  0  0
  138.7390   68.6210  224.6730 C   0  0  0  0  0  0  0  0  0  0  0  0
  139.5230   69.3290  225.5670 C   0  0  0  0  0  0  0  0  0  0  0  0
  140.2430   68.6820  226.5290 C   0  0  0  0  0  0  0  0  0  0  0  0
  141.0350   69.3460  227.4380 C   0  0  0  0  0  0  0  0  0  0  0  0
  141.0730   70.7390  227.3300 C   0  0  0  0  0  0  0  0  0  0  0  0
  140.3480   71.4060  226.3580 C   0  0  0  0  0  0  0  0  0  0  0  0
  139.5550   70.7050  225.4530 C   0  0  0  0  0  0  0  0  0  0  0  0
  138.8620   71.3840  224.5200 N   0  0  0  0  0  0  0  0  0  0  0  0
  138.1740   73.2960  223.0640 H   0  0  0  0  0  0  0  0  0  0  0  0
  135.9642   72.8788  220.9752 H   0  0  0  0  0  0  0  0  0  0  0  0
  136.2436   74.4110  221.8400 H   0  0  0  0  0  0  0  0  0  0  0  0
  139.0733   76.5984  220.6984 H   0  0  0  0  0  0  0  0  0  0  0  0
  138.4513   75.9473  222.2175 H   0  0  0  0  0  0  0  0  0  0  0  0
  140.6607   75.3148  222.9583 H   0  0  0  0  0  0  0  0  0  0  0  0
  142.0060   76.9380  222.3740 H   0  0  0  0  0  0  0  0  0  0  0  0
  141.5896   75.4177  220.0339 H   0  0  0  0  0  0  0  0  0  0  0  0
  142.2027   74.3699  221.3004 H   0  0  0  0  0  0  0  0  0  0  0  0
  140.4306   73.4764  219.5101 H   0  0  0  0  0  0  0  0  0  0  0  0
  139.3186   72.0496  221.3010 H   0  0  0  0  0  0  0  0  0  0  0  0
  141.1273   71.9990  221.2053 H   0  0  0  0  0  0  0  0  0  0  0  0
  139.4420   72.9700  223.2180 H   0  0  0  0  0  0  0  0  0  0  0  0
  137.4167   68.8065  223.0139 H   0  0  0  0  0  0  0  0  0  0  0  0
  138.6727   67.5237  224.7114 H   0  0  0  0  0  0  0  0  0  0  0  0
  140.1881   67.5846  226.5800 H   0  0  0  0  0  0  0  0  0  0  0  0
  141.6076   68.8089  228.2085 H   0  0  0  0  0  0  0  0  0  0  0  0
  141.6919   71.3170  228.0320 H   0  0  0  0  0  0  0  0  0  0  0  0
  140.3988   72.5033  226.2996 H   0  0  0  0  0  0  0  0  0  0  0  0
  1  2  2  0
  2  3  1  0
  3  4  1  0
  4  5  1  0
  5  6  2  0
  5  7  1  0
  7  8  1  0
  8  9  1  0
  9 10  1  0
  9 11  1  0
 11 12  1  0
 12 13  1  0
 13 14  1  0
  2 15  1  0
 15 16  2  0
 16 17  1  0
 17 18  2  0
 18 19  1  0
 19 20  2  0
 20 21  1  0
 21 22  2  0
 22 23  1  0
 23 24  2  0
 12  7  1  0
 24 15  1  0
 23 18  1  0
  3 25  1  0
  4 26  1  0
  4 27  1  0
  8 28  1  0
  8 29  1  0
  9 30  1  1
 10 31  1  0
 11 32  1  0
 11 33  1  0
 12 34  1  6
 13 35  1  0
 13 36  1  0
 14 37  1  0
 16 38  1  0
 17 39  1  0
 19 40  1  0
 20 41  1  0
 21 42  1  0
 22 43  1  0
M  END
>  <smiles>  (32) 
O=C(NCC(=O)N1C[C@H](O)C[C@H]1CO)c1ccc2ccccc2n1

>  <score_type>  (32) 
oracle

>  <origin>  (32) 
autodockgpu

>  <m_score__min__energy>  (32) 
-7.0099999999999998

>  <m_primary>  (32) 
energy

>  <rmsd>  (32) 
2.5700059975021206

>  <m_score__min__rmsd>  (32) 
2.5700059975021206

>  <meeko>  (32) 
{"free_energy": -5.75, "intermolecular_energy": -7.84, "internal_energy": -2.74, "cluster_size": 2, "cluster_id": 7, "rank_in_cluster": 1}

>  <energy>  (32) 
-6.17

>  <cluster_rmsd>  (32) 
0.67

>  <cluster>  (32) 
2

$$$$

     RDKit          3D

 43 45  0  0  0  0  0  0  0  0999 V2000
  139.6700   74.4910  222.3540 O   0  0  0  0  0  0  0  0  0  0  0  0
  140.2440   75.4030  221.6810 C   0  0  0  0  0  0  0  0  0  0  0  0
  140.8560   75.1160  220.4090 N   0  0  0  0  0  0  0  0  0  0  0  0
  140.8390   73.7810  219.8560 C   0  0  0  0  0  0  0  0  0  0  0  0
  141.7460   72.9430  220.6860 C   0  0  0  0  0  0  0  0  0  0  0  0
  141.2670   72.2150  221.5940 O   0  0  0  0  0  0  0  0  0  0  0  0
  143.1500   72.9940  220.4230 N   0  0  0  0  0  0  0  0  0  0  0  0
  143.9950   71.9140  219.9450 C   0  0  0  0  0  0  0  0  0  0  0  0
  145.2550   72.5740  219.4920 C   0  0  2  0  0  0  0  0  0  0  0  0
  146.3170   71.6950  219.7040 O   0  0  0  0  0  0  0  0  0  0  0  0
  145.3740   73.7640  220.4260 C   0  0  0  0  0  0  0  0  0  0  0  0
  143.9620   74.2050  220.6120 C   0  0  1  0  0  0  0  0  0  0  0  0
  143.5120   75.1870  219.5500 C   0  0  0  0  0  0  0  0  0  0  0  0
  143.2610   76.4450  220.0910 O   0  0  0  0  0  0  0  0  0  0  0  0
  140.2970   76.7840  222.1850 C   0  0  0  0  0  0  0  0  0  0  0  0
  139.1250   77.3770  222.6060 C   0  0  0  0  0  0  0  0  0  0  0  0
  139.0560   78.6610  223.0960 C   0  0  0  0  0  0  0  0  0  0  0  0
  140.2400   79.3760  223.1580 C   0  0  0  0  0  0  0  0  0  0  0  0
  140.2590   80.6550  223.6310 C   0  0  0  0  0  0  0  0  0  0  0  0
  141.4130   81.4020  223.7110 C   0  0  0  0  0  0  0  0  0  0  0  0
  142.5880   80.7800  223.2800 C   0  0  0  0  0  0  0  0  0  0  0  0
  142.5810   79.4820  222.7980 C   0  0  0  0  0  0  0  0  0  0  0  0
  141.3950   78.7530  222.7300 C   0  0  0  0  0  0  0  0  0  0  0  0
  141.4230   77.4940  222.2560 N   0  0  0  0  0  0  0  0  0  0  0  0
  141.3150   75.9330  219.9060 H   0  0  0  0  0  0  0  0  0  0  0  0
  139.8175   73.3741  219.8877 H   0  0  0  0  0  0  0  0  0  0  0  0
  141.1714   73.7911  218.8075 H   0  0  0  0  0  0  0  0  0  0  0  0
  144.2034   71.1998  220.7552 H   0  0  0  0  0  0  0  0  0  0  0  0
  143.5154   71.3442  219.1355 H   0  0  0  0  0  0  0  0  0  0  0  0
  145.2592   72.8598  218.4298 H   0  0  0  0  0  0  0  0  0  0  0  0
  146.3510   71.5050  220.6840 H   0  0  0  0  0  0  0  0  0  0  0  0
  145.8225   73.4671  221.3855 H   0  0  0  0  0  0  0  0  0  0  0  0
  146.0212   74.5586  220.0262 H   0  0  0  0  0  0  0  0  0  0  0  0
  143.8615   74.6899  221.5942 H   0  0  0  0  0  0  0  0  0  0  0  0
  144.3009   75.2764  218.7887 H   0  0  0  0  0  0  0  0  0  0  0  0
  142.5790   74.8105  219.1053 H   0  0  0  0  0  0  0  0  0  0  0  0
  142.7560   76.3630  220.9450 H   0  0  0  0  0  0  0  0  0  0  0  0
  138.1954   76.7920  222.5469 H   0  0  0  0  0  0  0  0  0  0  0  0
  138.1022   79.1000  223.4240 H   0  0  0  0  0  0  0  0  0  0  0  0
  139.3133   81.1087  223.9623 H   0  0  0  0  0  0  0  0  0  0  0  0
  141.4102   82.4333  224.0937 H   0  0  0  0  0  0  0  0  0  0  0  0
  143.5379   81.3330  223.3246 H   0  0  0  0  0  0  0  0  0  0  0  0
  143.5224   79.0208  222.4649 H   0  0  0  0  0  0  0  0  0  0  0  0
  1  2  2  0
  2  3  1  0
  3  4  1  0
  4  5  1  0
  5  6  2  0
  5  7  1  0
  7  8  1  0
  8  9  1  0
  9 10  1  0
  9 11  1  0
 11 12  1  0
 12 13  1  0
 13 14  1  0
  2 15  1  0
 15 16  2  0
 16 17  1  0
 17 18  2  0
 18 19  1  0
 19 20  2  0
 20 21  1  0
 21 22  2  0
 22 23  1  0
 23 24  2  0
 12  7  1  0
 24 15  1  0
 23 18  1  0
  3 25  1  0
  4 26  1  0
  4 27  1  0
  8 28  1  0
  8 29  1  0
  9 30  1  6
 10 31  1  0
 11 32  1  0
 11 33  1  0
 12 34  1  1
 13 35  1  0
 13 36  1  0
 14 37  1  0
 16 38  1  0
 17 39  1  0
 19 40  1  0
 20 41  1  0
 21 42  1  0
 22 43  1  0
M  END
>  <smiles>  (33) 
O=C(NCC(=O)N1C[C@H](O)C[C@H]1CO)c1ccc2ccccc2n1

>  <score_type>  (33) 
oracle

>  <origin>  (33) 
autodockgpu

>  <m_score__min__energy>  (33) 
-7.0099999999999998

>  <m_primary>  (33) 
energy

>  <rmsd>  (33) 
7.606436256391321

>  <m_score__min__rmsd>  (33) 
7.606436256391321

>  <meeko>  (33) 
{"free_energy": -6.98, "intermolecular_energy": -9.07, "internal_energy": -2.27, "cluster_size": 19, "cluster_id": 1, "rank_in_cluster": 10}

>  <energy>  (33) 
-5.99

>  <cluster_rmsd>  (33) 
1.9

>  <cluster>  (33) 
2

$$$$

     RDKit          3D

 43 45  0  0  0  0  0  0  0  0999 V2000
  137.3340   70.3840  221.8050 O   0  0  0  0  0  0  0  0  0  0  0  0
  137.9550   71.1600  222.5960 C   0  0  0  0  0  0  0  0  0  0  0  0
  138.0430   72.5740  222.3360 N   0  0  0  0  0  0  0  0  0  0  0  0
  137.4290   73.1570  221.1650 C   0  0  0  0  0  0  0  0  0  0  0  0
  138.5210   73.5180  220.2210 C   0  0  0  0  0  0  0  0  0  0  0  0
  138.4940   73.0810  219.0400 O   0  0  0  0  0  0  0  0  0  0  0  0
  139.5770   74.3580  220.6910 N   0  0  0  0  0  0  0  0  0  0  0  0
  139.4480   75.6120  221.4110 C   0  0  0  0  0  0  0  0  0  0  0  0
  140.8030   75.8790  221.9780 C   0  0  2  0  0  0  0  0  0  0  0  0
  140.9970   77.2590  222.0320 O   0  0  0  0  0  0  0  0  0  0  0  0
  141.7330   75.2650  220.9480 C   0  0  0  0  0  0  0  0  0  0  0  0
  141.0010   74.0470  220.4970 C   0  0  1  0  0  0  0  0  0  0  0  0
  141.2920   72.8380  221.3600 C   0  0  0  0  0  0  0  0  0  0  0  0
  140.6920   72.9470  222.6120 O   0  0  0  0  0  0  0  0  0  0  0  0
  138.6030   70.6320  223.8060 C   0  0  0  0  0  0  0  0  0  0  0  0
  138.4790   69.2870  224.0870 C   0  0  0  0  0  0  0  0  0  0  0  0
  139.0430   68.6850  225.1880 C   0  0  0  0  0  0  0  0  0  0  0  0
  139.7680   69.4940  226.0460 C   0  0  0  0  0  0  0  0  0  0  0  0
  140.3590   68.9770  227.1620 C   0  0  0  0  0  0  0  0  0  0  0  0
  141.0880   69.7440  228.0410 C   0  0  0  0  0  0  0  0  0  0  0  0
  141.2010   71.1030  227.7370 C   0  0  0  0  0  0  0  0  0  0  0  0
  140.6060   71.6400  226.6080 C   0  0  0  0  0  0  0  0  0  0  0  0
  139.8730   70.8360  225.7370 C   0  0  0  0  0  0  0  0  0  0  0  0
  139.3070   71.3890  224.6490 N   0  0  0  0  0  0  0  0  0  0  0  0
  138.5800   73.1570  223.0460 H   0  0  0  0  0  0  0  0  0  0  0  0
  136.7511   72.4295  220.6947 H   0  0  0  0  0  0  0  0  0  0  0  0
  136.8420   74.0466  221.4372 H   0  0  0  0  0  0  0  0  0  0  0  0
  139.1498   76.4205  220.7273 H   0  0  0  0  0  0  0  0  0  0  0  0
  138.6777   75.5589  222.1944 H   0  0  0  0  0  0  0  0  0  0  0  0
  140.9574   75.4761  222.9898 H   0  0  0  0  0  0  0  0  0  0  0  0
  141.9830   77.4170  222.0310 H   0  0  0  0  0  0  0  0  0  0  0  0
  141.9005   75.9559  220.1086 H   0  0  0  0  0  0  0  0  0  0  0  0
  142.7303   75.0389  221.3534 H   0  0  0  0  0  0  0  0  0  0  0  0
  141.2944   73.8107  219.4635 H   0  0  0  0  0  0  0  0  0  0  0  0
  140.9073   71.9388  220.8566 H   0  0  0  0  0  0  0  0  0  0  0  0
  142.3805   72.7714  221.5041 H   0  0  0  0  0  0  0  0  0  0  0  0
  140.3120   72.0710  222.8940 H   0  0  0  0  0  0  0  0  0  0  0  0
  137.8977   68.6621  223.3931 H   0  0  0  0  0  0  0  0  0  0  0  0
  138.9231   67.6082  225.3782 H   0  0  0  0  0  0  0  0  0  0  0  0
  140.2478   67.9021  227.3673 H   0  0  0  0  0  0  0  0  0  0  0  0
  141.5573   69.3101  228.9363 H   0  0  0  0  0  0  0  0  0  0  0  0
  141.7742   71.7595  228.4081 H   0  0  0  0  0  0  0  0  0  0  0  0
  140.7131   72.7140  226.3960 H   0  0  0  0  0  0  0  0  0  0  0  0
  1  2  2  0
  2  3  1  0
  3  4  1  0
  4  5  1  0
  5  6  2  0
  5  7  1  0
  7  8  1  0
  8  9  1  0
  9 10  1  0
  9 11  1  0
 11 12  1  0
 12 13  1  0
 13 14  1  0
  2 15  1  0
 15 16  2  0
 16 17  1  0
 17 18  2  0
 18 19  1  0
 19 20  2  0
 20 21  1  0
 21 22  2  0
 22 23  1  0
 23 24  2  0
 12  7  1  0
 24 15  1  0
 23 18  1  0
  3 25  1  0
  4 26  1  0
  4 27  1  0
  8 28  1  0
  8 29  1  0
  9 30  1  1
 10 31  1  0
 11 32  1  0
 11 33  1  0
 12 34  1  6
 13 35  1  0
 13 36  1  0
 14 37  1  0
 16 38  1  0
 17 39  1  0
 19 40  1  0
 20 41  1  0
 21 42  1  0
 22 43  1  0
M  END
>  <smiles>  (34) 
O=C(NCC(=O)N1C[C@H](O)C[C@H]1CO)c1ccc2ccccc2n1

>  <score_type>  (34) 
oracle

>  <origin>  (34) 
autodockgpu

>  <m_score__min__energy>  (34) 
-7.0099999999999998

>  <m_primary>  (34) 
energy

>  <rmsd>  (34) 
2.423502968414133

>  <m_score__min__rmsd>  (34) 
2.423502968414133

>  <meeko>  (34) 
{"free_energy": -5.72, "intermolecular_energy": -7.81, "internal_energy": -2.9, "cluster_size": 18, "cluster_id": 2, "rank_in_cluster": 17}

>  <energy>  (34) 
-5.76

>  <cluster_rmsd>  (34) 
1.78

>  <cluster>  (34) 
2

$$$$

     RDKit          3D

 43 45  0  0  0  0  0  0  0  0999 V2000
  138.5420   72.3560  222.5530 O   0  0  0  0  0  0  0  0  0  0  0  0
  139.6300   71.7410  222.7890 C   0  0  0  0  0  0  0  0  0  0  0  0
  140.7850   71.9230  221.9480 N   0  0  0  0  0  0  0  0  0  0  0  0
  140.7460   72.8100  220.8080 C   0  0  0  0  0  0  0  0  0  0  0  0
  141.9800   73.6410  220.8470 C   0  0  0  0  0  0  0  0  0  0  0  0
  143.0910   73.0980  221.0840 O   0  0  0  0  0  0  0  0  0  0  0  0
  141.8620   75.0460  220.6150 N   0  0  0  0  0  0  0  0  0  0  0  0
  142.3820   75.7970  219.4860 C   0  0  0  0  0  0  0  0  0  0  0  0
  141.6810   77.1140  219.5350 C   0  0  2  0  0  0  0  0  0  0  0  0
  142.5400   78.0930  219.0360 O   0  0  0  0  0  0  0  0  0  0  0  0
  141.4600   77.3290  221.0210 C   0  0  0  0  0  0  0  0  0  0  0  0
  141.1660   75.9600  221.5330 C   0  0  1  0  0  0  0  0  0  0  0  0
  139.6960   75.6070  221.4480 C   0  0  0  0  0  0  0  0  0  0  0  0
  139.1910   75.2230  222.6870 O   0  0  0  0  0  0  0  0  0  0  0  0
  139.7370   70.8240  223.9330 C   0  0  0  0  0  0  0  0  0  0  0  0
  139.1990   69.5590  223.8170 C   0  0  0  0  0  0  0  0  0  0  0  0
  139.2430   68.6190  224.8210 C   0  0  0  0  0  0  0  0  0  0  0  0
  139.8640   68.9870  226.0020 C   0  0  0  0  0  0  0  0  0  0  0  0
  139.9500   68.1150  227.0470 C   0  0  0  0  0  0  0  0  0  0  0  0
  140.5590   68.4380  228.2380 C   0  0  0  0  0  0  0  0  0  0  0  0
  141.0970   69.7250  228.3330 C   0  0  0  0  0  0  0  0  0  0  0  0
  141.0170   70.6190  227.2790 C   0  0  0  0  0  0  0  0  0  0  0  0
  140.3930   70.2600  226.0860 C   0  0  0  0  0  0  0  0  0  0  0  0
  140.3310   71.1520  225.0810 N   0  0  0  0  0  0  0  0  0  0  0  0
  141.6570   71.3740  222.2110 H   0  0  0  0  0  0  0  0  0  0  0  0
  140.7164   72.2246  219.8772 H   0  0  0  0  0  0  0  0  0  0  0  0
  139.8489   73.4457  220.8416 H   0  0  0  0  0  0  0  0  0  0  0  0
  143.4691   75.9349  219.5824 H   0  0  0  0  0  0  0  0  0  0  0  0
  142.2115   75.2760  218.5323 H   0  0  0  0  0  0  0  0  0  0  0  0
  140.7493   77.1523  218.9516 H   0  0  0  0  0  0  0  0  0  0  0  0
  143.4540   77.8860  219.3800 H   0  0  0  0  0  0  0  0  0  0  0  0
  142.3622   77.7410  221.4967 H   0  0  0  0  0  0  0  0  0  0  0  0
  140.6546   78.0473  221.2340 H   0  0  0  0  0  0  0  0  0  0  0  0
  141.4751   75.8946  222.5867 H   0  0  0  0  0  0  0  0  0  0  0  0
  139.1377   76.4850  221.0910 H   0  0  0  0  0  0  0  0  0  0  0  0
  139.5836   74.7621  220.7527 H   0  0  0  0  0  0  0  0  0  0  0  0
  139.0840   74.2340  222.7280 H   0  0  0  0  0  0  0  0  0  0  0  0
  138.7083   69.2870  222.8708 H   0  0  0  0  0  0  0  0  0  0  0  0
  138.8039   67.6189  224.6907 H   0  0  0  0  0  0  0  0  0  0  0  0
  139.5143   67.1114  226.9331 H   0  0  0  0  0  0  0  0  0  0  0  0
  140.6193   67.7219  229.0708 H   0  0  0  0  0  0  0  0  0  0  0  0
  141.5941   70.0336  229.2645 H   0  0  0  0  0  0  0  0  0  0  0  0
  141.4510   71.6242  227.3846 H   0  0  0  0  0  0  0  0  0  0  0  0
  1  2  2  0
  2  3  1  0
  3  4  1  0
  4  5  1  0
  5  6  2  0
  5  7  1  0
  7  8  1  0
  8  9  1  0
  9 10  1  0
  9 11  1  0
 11 12  1  0
 12 13  1  0
 13 14  1  0
  2 15  1  0
 15 16  2  0
 16 17  1  0
 17 18  2  0
 18 19  1  0
 19 20  2  0
 20 21  1  0
 21 22  2  0
 22 23  1  0
 23 24  2  0
 12  7  1  0
 24 15  1  0
 23 18  1  0
  3 25  1  0
  4 26  1  0
  4 27  1  0
  8 28  1  0
  8 29  1  0
  9 30  1  6
 10 31  1  0
 11 32  1  0
 11 33  1  0
 12 34  1  1
 13 35  1  0
 13 36  1  0
 14 37  1  0
 16 38  1  0
 17 39  1  0
 19 40  1  0
 20 41  1  0
 21 42  1  0
 22 43  1  0
M  END
>  <smiles>  (35) 
O=C(NCC(=O)N1C[C@H](O)C[C@H]1CO)c1ccc2ccccc2n1

>  <score_type>  (35) 
oracle

>  <origin>  (35) 
autodockgpu

>  <m_score__min__energy>  (35) 
-7.0099999999999998

>  <m_primary>  (35) 
energy

>  <rmsd>  (35) 
2.2763215692020116

>  <m_score__min__rmsd>  (35) 
2.2763215692020116

>  <meeko>  (35) 
{"free_energy": -6.49, "intermolecular_energy": -8.58, "internal_energy": -1.85, "cluster_size": 18, "cluster_id": 2, "rank_in_cluster": 3}

>  <energy>  (35) 
-5.72

>  <cluster_rmsd>  (35) 
1.84

>  <cluster>  (35) 
2

$$$$

     RDKit          3D

 43 45  0  0  0  0  0  0  0  0999 V2000
  141.4160   72.3490  221.4010 O   0  0  0  0  0  0  0  0  0  0  0  0
  140.4710   72.6210  222.2080 C   0  0  0  0  0  0  0  0  0  0  0  0
  139.6250   73.7680  222.0020 N   0  0  0  0  0  0  0  0  0  0  0  0
  139.8210   74.6480  220.8720 C   0  0  0  0  0  0  0  0  0  0  0  0
  141.0410   75.4570  221.1420 C   0  0  0  0  0  0  0  0  0  0  0  0
  141.4180   75.6390  222.3290 O   0  0  0  0  0  0  0  0  0  0  0  0
  141.7510   76.0080  220.0320 N   0  0  0  0  0  0  0  0  0  0  0  0
  141.7140   77.3800  219.5580 C   0  0  0  0  0  0  0  0  0  0  0  0
  142.8840   77.5090  218.6400 C   0  0  2  0  0  0  0  0  0  0  0  0
  142.5650   78.4270  217.6400 O   0  0  0  0  0  0  0  0  0  0  0  0
  143.0100   76.1190  218.0460 C   0  0  0  0  0  0  0  0  0  0  0  0
  142.6560   75.2200  219.1820 C   0  0  1  0  0  0  0  0  0  0  0  0
  143.8500   74.8710  220.0450 C   0  0  0  0  0  0  0  0  0  0  0  0
  143.5460   73.8620  220.9540 O   0  0  0  0  0  0  0  0  0  0  0  0
  140.2160   71.7670  223.3780 C   0  0  0  0  0  0  0  0  0  0  0  0
  139.4370   70.6420  223.2140 C   0  0  0  0  0  0  0  0  0  0  0  0
  139.1350   69.7710  224.2360 C   0  0  0  0  0  0  0  0  0  0  0  0
  139.6510   70.0650  225.4870 C   0  0  0  0  0  0  0  0  0  0  0  0
  139.3980   69.2530  226.5540 C   0  0  0  0  0  0  0  0  0  0  0  0
  139.8910   69.5060  227.8140 C   0  0  0  0  0  0  0  0  0  0  0  0
  140.6790   70.6520  227.9560 C   0  0  0  0  0  0  0  0  0  0  0  0
  140.9420   71.4830  226.8800 C   0  0  0  0  0  0  0  0  0  0  0  0
  140.4270   71.1980  225.6170 C   0  0  0  0  0  0  0  0  0  0  0  0
  140.7020   72.0260  224.5920 N   0  0  0  0  0  0  0  0  0  0  0  0
  138.8570   73.9290  222.7190 H   0  0  0  0  0  0  0  0  0  0  0  0
  139.9578   74.0567  219.9546 H   0  0  0  0  0  0  0  0  0  0  0  0
  138.9464   75.3003  220.7323 H   0  0  0  0  0  0  0  0  0  0  0  0
  140.7762   77.5761  219.0175 H   0  0  0  0  0  0  0  0  0  0  0  0
  141.7599   78.1024  220.3863 H   0  0  0  0  0  0  0  0  0  0  0  0
  143.8073   77.8512  219.1304 H   0  0  0  0  0  0  0  0  0  0  0  0
  143.4240   78.8110  217.3080 H   0  0  0  0  0  0  0  0  0  0  0  0
  142.3114   75.9855  217.2068 H   0  0  0  0  0  0  0  0  0  0  0  0
  144.0110   75.9177  217.6369 H   0  0  0  0  0  0  0  0  0  0  0  0
  142.2335   74.2854  218.7845 H   0  0  0  0  0  0  0  0  0  0  0  0
  144.6722   74.5325  219.3973 H   0  0  0  0  0  0  0  0  0  0  0  0
  144.1405   75.7685  220.6107 H   0  0  0  0  0  0  0  0  0  0  0  0
  142.7360   74.1010  221.4820 H   0  0  0  0  0  0  0  0  0  0  0  0
  139.0350   70.4287  222.2125 H   0  0  0  0  0  0  0  0  0  0  0  0
  138.5114   68.8808  224.0666 H   0  0  0  0  0  0  0  0  0  0  0  0
  138.7746   68.3597  226.4010 H   0  0  0  0  0  0  0  0  0  0  0  0
  139.6764   68.8417  228.6641 H   0  0  0  0  0  0  0  0  0  0  0  0
  141.0986   70.8986  228.9425 H   0  0  0  0  0  0  0  0  0  0  0  0
  141.5646   72.3784  227.0240 H   0  0  0  0  0  0  0  0  0  0  0  0
  1  2  2  0
  2  3  1  0
  3  4  1  0
  4  5  1  0
  5  6  2  0
  5  7  1  0
  7  8  1  0
  8  9  1  0
  9 10  1  0
  9 11  1  0
 11 12  1  0
 12 13  1  0
 13 14  1  0
  2 15  1  0
 15 16  2  0
 16 17  1  0
 17 18  2  0
 18 19  1  0
 19 20  2  0
 20 21  1  0
 21 22  2  0
 22 23  1  0
 23 24  2  0
 12  7  1  0
 24 15  1  0
 23 18  1  0
  3 25  1  0
  4 26  1  0
  4 27  1  0
  8 28  1  0
  8 29  1  0
  9 30  1  1
 10 31  1  0
 11 32  1  0
 11 33  1  0
 12 34  1  6
 13 35  1  0
 13 36  1  0
 14 37  1  0
 16 38  1  0
 17 39  1  0
 19 40  1  0
 20 41  1  0
 21 42  1  0
 22 43  1  0
M  END
>  <smiles>  (36) 
O=C(NCC(=O)N1C[C@H](O)C[C@H]1CO)c1ccc2ccccc2n1

>  <score_type>  (36) 
oracle

>  <origin>  (36) 
autodockgpu

>  <m_score__min__energy>  (36) 
-7.0099999999999998

>  <m_primary>  (36) 
energy

>  <rmsd>  (36) 
2.3206652730040997

>  <m_score__min__rmsd>  (36) 
2.3206652730040997

>  <meeko>  (36) 
{"free_energy": -6.33, "intermolecular_energy": -8.41, "internal_energy": -2.3, "cluster_size": 18, "cluster_id": 2, "rank_in_cluster": 6}

>  <energy>  (36) 
-5.72

>  <cluster_rmsd>  (36) 
1.79

>  <cluster>  (36) 
2

$$$$

     RDKit          3D

 43 45  0  0  0  0  0  0  0  0999 V2000
  139.9400   73.7640  222.6910 O   0  0  0  0  0  0  0  0  0  0  0  0
  140.3900   72.5800  222.5830 C   0  0  0  0  0  0  0  0  0  0  0  0
  141.0280   72.1350  221.3710 N   0  0  0  0  0  0  0  0  0  0  0  0
  141.1760   73.0180  220.2360 C   0  0  0  0  0  0  0  0  0  0  0  0
  141.8480   72.2470  219.1550 C   0  0  0  0  0  0  0  0  0  0  0  0
  141.1560   71.7030  218.2550 O   0  0  0  0  0  0  0  0  0  0  0  0
  143.2730   72.1470  219.1760 N   0  0  0  0  0  0  0  0  0  0  0  0
  144.2220   73.1850  219.5360 C   0  0  0  0  0  0  0  0  0  0  0  0
  145.5170   72.4750  219.7510 C   0  0  2  0  0  0  0  0  0  0  0  0
  146.5580   73.3290  219.3880 O   0  0  0  0  0  0  0  0  0  0  0  0
  145.4380   71.3140  218.7760 C   0  0  0  0  0  0  0  0  0  0  0  0
  144.0010   70.9200  218.8180 C   0  0  1  0  0  0  0  0  0  0  0  0
  143.7020   69.9160  219.9110 C   0  0  0  0  0  0  0  0  0  0  0  0
  142.3330   69.6970  220.0430 O   0  0  0  0  0  0  0  0  0  0  0  0
  140.2730   71.6300  223.6990 C   0  0  0  0  0  0  0  0  0  0  0  0
  139.6750   70.4100  223.4650 C   0  0  0  0  0  0  0  0  0  0  0  0
  139.5130   69.4450  224.4340 C   0  0  0  0  0  0  0  0  0  0  0  0
  139.9820   69.7400  225.7020 C   0  0  0  0  0  0  0  0  0  0  0  0
  139.8610   68.8380  226.7190 C   0  0  0  0  0  0  0  0  0  0  0  0
  140.3130   69.0900  227.9940 C   0  0  0  0  0  0  0  0  0  0  0  0
  140.9150   70.3330  228.2070 C   0  0  0  0  0  0  0  0  0  0  0  0
  141.0450   71.2550  227.1830 C   0  0  0  0  0  0  0  0  0  0  0  0
  140.5760   70.9700  225.9030 C   0  0  0  0  0  0  0  0  0  0  0  0
  140.7170   71.8890  224.9300 N   0  0  0  0  0  0  0  0  0  0  0  0
  141.3800   71.1310  221.3580 H   0  0  0  0  0  0  0  0  0  0  0  0
  140.1878   73.3602  219.8948 H   0  0  0  0  0  0  0  0  0  0  0  0
  141.7702   73.9029  220.5080 H   0  0  0  0  0  0  0  0  0  0  0  0
  144.3158   73.9204  218.7234 H   0  0  0  0  0  0  0  0  0  0  0  0
  143.9041   73.7397  220.4311 H   0  0  0  0  0  0  0  0  0  0  0  0
  145.6889   72.1543  220.7891 H   0  0  0  0  0  0  0  0  0  0  0  0
  146.1440   74.1400  218.9790 H   0  0  0  0  0  0  0  0  0  0  0  0
  145.7293   71.6305  217.7636 H   0  0  0  0  0  0  0  0  0  0  0  0
  146.1160   70.4883  219.0379 H   0  0  0  0  0  0  0  0  0  0  0  0
  143.7214   70.4718  217.8531 H   0  0  0  0  0  0  0  0  0  0  0  0
  144.1942   68.9634  219.6656 H   0  0  0  0  0  0  0  0  0  0  0  0
  144.0801   70.3188  220.8622 H   0  0  0  0  0  0  0  0  0  0  0  0
  141.8640   69.8960  219.1880 H   0  0  0  0  0  0  0  0  0  0  0  0
  139.3078   70.1961  222.4504 H   0  0  0  0  0  0  0  0  0  0  0  0
  139.0317   68.4816  224.2098 H   0  0  0  0  0  0  0  0  0  0  0  0
  139.3824   67.8697  226.5109 H   0  0  0  0  0  0  0  0  0  0  0  0
  140.2061   68.3521  228.8027 H   0  0  0  0  0  0  0  0  0  0  0  0
  141.2933   70.5838  229.2090 H   0  0  0  0  0  0  0  0  0  0  0  0
  141.5246   72.2246  227.3826 H   0  0  0  0  0  0  0  0  0  0  0  0
  1  2  2  0
  2  3  1  0
  3  4  1  0
  4  5  1  0
  5  6  2  0
  5  7  1  0
  7  8  1  0
  8  9  1  0
  9 10  1  0
  9 11  1  0
 11 12  1  0
 12 13  1  0
 13 14  1  0
  2 15  1  0
 15 16  2  0
 16 17  1  0
 17 18  2  0
 18 19  1  0
 19 20  2  0
 20 21  1  0
 21 22  2  0
 22 23  1  0
 23 24  2  0
 12  7  1  0
 24 15  1  0
 23 18  1  0
  3 25  1  0
  4 26  1  0
  4 27  1  0
  8 28  1  0
  8 29  1  0
  9 30  1  1
 10 31  1  0
 11 32  1  0
 11 33  1  0
 12 34  1  6
 13 35  1  0
 13 36  1  0
 14 37  1  0
 16 38  1  0
 17 39  1  0
 19 40  1  0
 20 41  1  0
 21 42  1  0
 22 43  1  0
M  END
>  <smiles>  (37) 
O=C(NCC(=O)N1C[C@H](O)C[C@H]1CO)c1ccc2ccccc2n1

>  <score_type>  (37) 
oracle

>  <origin>  (37) 
autodockgpu

>  <m_score__min__energy>  (37) 
-7.0099999999999998

>  <m_primary>  (37) 
energy

>  <rmsd>  (37) 
4.383928528504865

>  <m_score__min__rmsd>  (37) 
4.383928528504865

>  <meeko>  (37) 
{"free_energy": -6.16, "intermolecular_energy": -8.25, "internal_energy": -2.27, "cluster_size": 4, "cluster_id": 4, "rank_in_cluster": 2}

>  <energy>  (37) 
-5.7

>  <cluster_rmsd>  (37) 
1.79

>  <cluster>  (37) 
2

$$$$

     RDKit          3D

 43 45  0  0  0  0  0  0  0  0999 V2000
  141.4210   72.3600  221.3950 O   0  0  0  0  0  0  0  0  0  0  0  0
  140.4790   72.6300  222.2050 C   0  0  0  0  0  0  0  0  0  0  0  0
  139.6320   73.7780  222.0040 N   0  0  0  0  0  0  0  0  0  0  0  0
  139.8250   74.6610  220.8760 C   0  0  0  0  0  0  0  0  0  0  0  0
  141.0450   75.4700  221.1470 C   0  0  0  0  0  0  0  0  0  0  0  0
  141.4200   75.6560  222.3340 O   0  0  0  0  0  0  0  0  0  0  0  0
  141.7580   76.0170  220.0360 N   0  0  0  0  0  0  0  0  0  0  0  0
  141.7260   77.3880  219.5600 C   0  0  0  0  0  0  0  0  0  0  0  0
  142.8970   77.5130  218.6430 C   0  0  2  0  0  0  0  0  0  0  0  0
  142.5810   78.4300  217.6410 O   0  0  0  0  0  0  0  0  0  0  0  0
  143.0180   76.1210  218.0510 C   0  0  0  0  0  0  0  0  0  0  0  0
  142.6600   75.2250  219.1870 C   0  0  1  0  0  0  0  0  0  0  0  0
  143.8530   74.8720  220.0510 C   0  0  0  0  0  0  0  0  0  0  0  0
  143.5450   73.8650  220.9610 O   0  0  0  0  0  0  0  0  0  0  0  0
  140.2270   71.7730  223.3730 C   0  0  0  0  0  0  0  0  0  0  0  0
  139.4570   70.6410  223.2050 C   0  0  0  0  0  0  0  0  0  0  0  0
  139.1580   69.7670  224.2260 C   0  0  0  0  0  0  0  0  0  0  0  0
  139.6670   70.0640  225.4780 C   0  0  0  0  0  0  0  0  0  0  0  0
  139.4180   69.2490  226.5440 C   0  0  0  0  0  0  0  0  0  0  0  0
  139.9040   69.5050  227.8060 C   0  0  0  0  0  0  0  0  0  0  0  0
  140.6810   70.6580  227.9510 C   0  0  0  0  0  0  0  0  0  0  0  0
  140.9420   71.4910  226.8780 C   0  0  0  0  0  0  0  0  0  0  0  0
  140.4340   71.2040  225.6120 C   0  0  0  0  0  0  0  0  0  0  0  0
  140.7060   72.0350  224.5900 N   0  0  0  0  0  0  0  0  0  0  0  0
  138.8650   73.9360  222.7240 H   0  0  0  0  0  0  0  0  0  0  0  0
  139.9608   74.0723  219.9567 H   0  0  0  0  0  0  0  0  0  0  0  0
  138.9495   75.3128  220.7390 H   0  0  0  0  0  0  0  0  0  0  0  0
  140.7894   77.5862  219.0183 H   0  0  0  0  0  0  0  0  0  0  0  0
  141.7737   78.1111  220.3876 H   0  0  0  0  0  0  0  0  0  0  0  0
  143.8209   77.8537  219.1333 H   0  0  0  0  0  0  0  0  0  0  0  0
  143.4310   78.8850  217.3800 H   0  0  0  0  0  0  0  0  0  0  0  0
  142.3195   75.9891  217.2115 H   0  0  0  0  0  0  0  0  0  0  0  0
  144.0187   75.9153  217.6432 H   0  0  0  0  0  0  0  0  0  0  0  0
  142.2337   74.2919  218.7901 H   0  0  0  0  0  0  0  0  0  0  0  0
  144.6740   74.5297  219.4038 H   0  0  0  0  0  0  0  0  0  0  0  0
  144.1468   75.7690  220.6159 H   0  0  0  0  0  0  0  0  0  0  0  0
  142.7300   74.1030  221.4820 H   0  0  0  0  0  0  0  0  0  0  0  0
  139.0607   70.4250  222.2019 H   0  0  0  0  0  0  0  0  0  0  0  0
  138.5418   68.8722  224.0540 H   0  0  0  0  0  0  0  0  0  0  0  0
  138.8033   68.3502  226.3881 H   0  0  0  0  0  0  0  0  0  0  0  0
  139.6924   68.8382  228.6549 H   0  0  0  0  0  0  0  0  0  0  0  0
  141.0937   70.9082  228.9395 H   0  0  0  0  0  0  0  0  0  0  0  0
  141.5577   72.3905  227.0255 H   0  0  0  0  0  0  0  0  0  0  0  0
  1  2  2  0
  2  3  1  0
  3  4  1  0
  4  5  1  0
  5  6  2  0
  5  7  1  0
  7  8  1  0
  8  9  1  0
  9 10  1  0
  9 11  1  0
 11 12  1  0
 12 13  1  0
 13 14  1  0
  2 15  1  0
 15 16  2  0
 16 17  1  0
 17 18  2  0
 18 19  1  0
 19 20  2  0
 20 21  1  0
 21 22  2  0
 22 23  1  0
 23 24  2  0
 12  7  1  0
 24 15  1  0
 23 18  1  0
  3 25  1  0
  4 26  1  0
  4 27  1  0
  8 28  1  0
  8 29  1  0
  9 30  1  1
 10 31  1  0
 11 32  1  0
 11 33  1  0
 12 34  1  6
 13 35  1  0
 13 36  1  0
 14 37  1  0
 16 38  1  0
 17 39  1  0
 19 40  1  0
 20 41  1  0
 21 42  1  0
 22 43  1  0
M  END
>  <smiles>  (38) 
O=C(NCC(=O)N1C[C@H](O)C[C@H]1CO)c1ccc2ccccc2n1

>  <score_type>  (38) 
oracle

>  <origin>  (38) 
autodockgpu

>  <m_score__min__energy>  (38) 
-7.0099999999999998

>  <m_primary>  (38) 
energy

>  <rmsd>  (38) 
2.326117822638552

>  <m_score__min__rmsd>  (38) 
2.326117822638552

>  <meeko>  (38) 
{"free_energy": -6.32, "intermolecular_energy": -8.41, "internal_energy": -2.32, "cluster_size": 18, "cluster_id": 2, "rank_in_cluster": 7}

>  <energy>  (38) 
-6.49

>  <cluster_rmsd>  (38) 
0.0

>  <cluster>  (38) 
3

$$$$

     RDKit          3D

 43 45  0  0  0  0  0  0  0  0999 V2000
  138.7940   75.2880  221.8370 O   0  0  0  0  0  0  0  0  0  0  0  0
  139.9800   75.7180  221.9870 C   0  0  0  0  0  0  0  0  0  0  0  0
  141.1170   74.8730  221.7290 N   0  0  0  0  0  0  0  0  0  0  0  0
  140.9470   73.5060  221.2900 C   0  0  0  0  0  0  0  0  0  0  0  0
  141.6830   73.3540  220.0060 C   0  0  0  0  0  0  0  0  0  0  0  0
  141.0410   73.2190  218.9310 O   0  0  0  0  0  0  0  0  0  0  0  0
  143.1110   73.3660  220.0350 N   0  0  0  0  0  0  0  0  0  0  0  0
  144.0090   72.3440  219.5270 C   0  0  0  0  0  0  0  0  0  0  0  0
  145.3500   72.9970  219.4660 C   0  0  2  0  0  0  0  0  0  0  0  0
  146.3260   72.0290  219.7020 O   0  0  0  0  0  0  0  0  0  0  0  0
  145.3060   73.9800  220.6200 C   0  0  0  0  0  0  0  0  0  0  0  0
  143.8970   74.4660  220.6120 C   0  0  1  0  0  0  0  0  0  0  0  0
  143.6940   75.6560  219.6980 C   0  0  0  0  0  0  0  0  0  0  0  0
  142.6080   76.4290  220.0980 O   0  0  0  0  0  0  0  0  0  0  0  0
  140.2250   77.0990  222.4300 C   0  0  0  0  0  0  0  0  0  0  0  0
  139.1400   77.8980  222.7250 C   0  0  0  0  0  0  0  0  0  0  0  0
  139.2500   79.2030  223.1490 C   0  0  0  0  0  0  0  0  0  0  0  0
  140.5280   79.7190  223.2750 C   0  0  0  0  0  0  0  0  0  0  0  0
  140.7250   81.0040  223.6890 C   0  0  0  0  0  0  0  0  0  0  0  0
  141.9770   81.5570  223.8290 C   0  0  0  0  0  0  0  0  0  0  0  0
  143.0610   80.7280  223.5250 C   0  0  0  0  0  0  0  0  0  0  0  0
  142.8740   79.4230  223.1050 C   0  0  0  0  0  0  0  0  0  0  0  0
  141.5920   78.8930  222.9720 C   0  0  0  0  0  0  0  0  0  0  0  0
  141.4450   77.6200  222.5610 N   0  0  0  0  0  0  0  0  0  0  0  0
  142.0770   75.3060  221.8760 H   0  0  0  0  0  0  0  0  0  0  0  0
  141.3574   72.8162  222.0421 H   0  0  0  0  0  0  0  0  0  0  0  0
  139.8806   73.2720  221.1554 H   0  0  0  0  0  0  0  0  0  0  0  0
  144.0318   71.4785  220.2056 H   0  0  0  0  0  0  0  0  0  0  0  0
  143.6897   71.9677  218.5439 H   0  0  0  0  0  0  0  0  0  0  0  0
  145.5759   73.4767  218.5022 H   0  0  0  0  0  0  0  0  0  0  0  0
  146.1450   71.6430  220.6050 H   0  0  0  0  0  0  0  0  0  0  0  0
  145.5439   73.4806  221.5708 H   0  0  0  0  0  0  0  0  0  0  0  0
  146.0395   74.7933  220.5173 H   0  0  0  0  0  0  0  0  0  0  0  0
  143.6123   74.7630  221.6321 H   0  0  0  0  0  0  0  0  0  0  0  0
  144.6009   76.2783  219.7152 H   0  0  0  0  0  0  0  0  0  0  0  0
  143.4946   75.2808  218.6834 H   0  0  0  0  0  0  0  0  0  0  0  0
  142.7000   76.6910  221.0540 H   0  0  0  0  0  0  0  0  0  0  0  0
  138.1329   77.4694  222.6156 H   0  0  0  0  0  0  0  0  0  0  0  0
  138.3610   79.8092  223.3777 H   0  0  0  0  0  0  0  0  0  0  0  0
  139.8462   81.6237  223.9205 H   0  0  0  0  0  0  0  0  0  0  0  0
  142.1176   82.5958  224.1623 H   0  0  0  0  0  0  0  0  0  0  0  0
  144.0837   81.1214  223.6217 H   0  0  0  0  0  0  0  0  0  0  0  0
  143.7478   78.7963  222.8733 H   0  0  0  0  0  0  0  0  0  0  0  0
  1  2  2  0
  2  3  1  0
  3  4  1  0
  4  5  1  0
  5  6  2  0
  5  7  1  0
  7  8  1  0
  8  9  1  0
  9 10  1  0
  9 11  1  0
 11 12  1  0
 12 13  1  0
 13 14  1  0
  2 15  1  0
 15 16  2  0
 16 17  1  0
 17 18  2  0
 18 19  1  0
 19 20  2  0
 20 21  1  0
 21 22  2  0
 22 23  1  0
 23 24  2  0
 12  7  1  0
 24 15  1  0
 23 18  1  0
  3 25  1  0
  4 26  1  0
  4 27  1  0
  8 28  1  0
  8 29  1  0
  9 30  1  6
 10 31  1  0
 11 32  1  0
 11 33  1  0
 12 34  1  1
 13 35  1  0
 13 36  1  0
 14 37  1  0
 16 38  1  0
 17 39  1  0
 19 40  1  0
 20 41  1  0
 21 42  1  0
 22 43  1  0
M  END
>  <smiles>  (39) 
O=C(NCC(=O)N1C[C@H](O)C[C@H]1CO)c1ccc2ccccc2n1

>  <score_type>  (39) 
oracle

>  <origin>  (39) 
autodockgpu

>  <m_score__min__energy>  (39) 
-7.0099999999999998

>  <m_primary>  (39) 
energy

>  <rmsd>  (39) 
7.7022932838904925

>  <m_score__min__rmsd>  (39) 
7.7022932838904925

>  <meeko>  (39) 
{"free_energy": -7.0, "intermolecular_energy": -9.09, "internal_energy": -2.71, "cluster_size": 19, "cluster_id": 1, "rank_in_cluster": 3}

>  <energy>  (39) 
-6.36

>  <cluster_rmsd>  (39) 
0.56

>  <cluster>  (39) 
3

$$$$

     RDKit          3D

 43 45  0  0  0  0  0  0  0  0999 V2000
  141.4110   72.3380  221.3870 O   0  0  0  0  0  0  0  0  0  0  0  0
  140.4710   72.6170  222.1960 C   0  0  0  0  0  0  0  0  0  0  0  0
  139.6380   73.7750  221.9990 N   0  0  0  0  0  0  0  0  0  0  0  0
  139.8430   74.6600  220.8740 C   0  0  0  0  0  0  0  0  0  0  0  0
  141.0670   75.4600  221.1530 C   0  0  0  0  0  0  0  0  0  0  0  0
  141.4450   75.6270  222.3420 O   0  0  0  0  0  0  0  0  0  0  0  0
  141.7800   76.0190  220.0490 N   0  0  0  0  0  0  0  0  0  0  0  0
  141.7700   77.4020  219.6060 C   0  0  0  0  0  0  0  0  0  0  0  0
  142.9340   77.5250  218.6800 C   0  0  2  0  0  0  0  0  0  0  0  0
  142.6270   78.4720  217.7040 O   0  0  0  0  0  0  0  0  0  0  0  0
  143.0220   76.1460  218.0540 C   0  0  0  0  0  0  0  0  0  0  0  0
  142.6580   75.2300  219.1730 C   0  0  1  0  0  0  0  0  0  0  0  0
  143.8520   74.8340  220.0160 C   0  0  0  0  0  0  0  0  0  0  0  0
  143.5300   73.8190  220.9130 O   0  0  0  0  0  0  0  0  0  0  0  0
  140.2070   71.7580  223.3610 C   0  0  0  0  0  0  0  0  0  0  0  0
  139.4060   70.6480  223.1930 C   0  0  0  0  0  0  0  0  0  0  0  0
  139.0930   69.7760  224.2100 C   0  0  0  0  0  0  0  0  0  0  0  0
  139.6230   70.0490  225.4600 C   0  0  0  0  0  0  0  0  0  0  0  0
  139.3620   69.2340  226.5220 C   0  0  0  0  0  0  0  0  0  0  0  0
  139.8670   69.4680  227.7810 C   0  0  0  0  0  0  0  0  0  0  0  0
  140.6760   70.5980  227.9270 C   0  0  0  0  0  0  0  0  0  0  0  0
  140.9480   71.4320  226.8560 C   0  0  0  0  0  0  0  0  0  0  0  0
  140.4210   71.1670  225.5940 C   0  0  0  0  0  0  0  0  0  0  0  0
  140.7050   71.9980  224.5740 N   0  0  0  0  0  0  0  0  0  0  0  0
  138.8720   73.9400  222.7180 H   0  0  0  0  0  0  0  0  0  0  0  0
  139.9795   74.0728  219.9539 H   0  0  0  0  0  0  0  0  0  0  0  0
  138.9727   75.3182  220.7345 H   0  0  0  0  0  0  0  0  0  0  0  0
  140.8321   77.6315  219.0791 H   0  0  0  0  0  0  0  0  0  0  0  0
  141.8400   78.1043  220.4497 H   0  0  0  0  0  0  0  0  0  0  0  0
  143.8694   77.8350  219.1688 H   0  0  0  0  0  0  0  0  0  0  0  0
  143.4890   78.8810  217.4090 H   0  0  0  0  0  0  0  0  0  0  0  0
  142.3126   76.0475  217.2191 H   0  0  0  0  0  0  0  0  0  0  0  0
  144.0142   75.9309  217.6307 H   0  0  0  0  0  0  0  0  0  0  0  0
  142.2100   74.3146  218.7591 H   0  0  0  0  0  0  0  0  0  0  0  0
  144.6567   74.4831  219.3532 H   0  0  0  0  0  0  0  0  0  0  0  0
  144.1744   75.7139  220.5921 H   0  0  0  0  0  0  0  0  0  0  0  0
  142.7310   74.0700  221.4510 H   0  0  0  0  0  0  0  0  0  0  0  0
  138.9953   70.4492  222.1921 H   0  0  0  0  0  0  0  0  0  0  0  0
  138.4499   68.9003  224.0379 H   0  0  0  0  0  0  0  0  0  0  0  0
  138.7215   68.3534  226.3660 H   0  0  0  0  0  0  0  0  0  0  0  0
  139.6455   68.8009  228.6272 H   0  0  0  0  0  0  0  0  0  0  0  0
  141.1054   70.8295  228.9129 H   0  0  0  0  0  0  0  0  0  0  0  0
  141.5879   72.3145  227.0033 H   0  0  0  0  0  0  0  0  0  0  0  0
  1  2  2  0
  2  3  1  0
  3  4  1  0
  4  5  1  0
  5  6  2  0
  5  7  1  0
  7  8  1  0
  8  9  1  0
  9 10  1  0
  9 11  1  0
 11 12  1  0
 12 13  1  0
 13 14  1  0
  2 15  1  0
 15 16  2  0
 16 17  1  0
 17 18  2  0
 18 19  1  0
 19 20  2  0
 20 21  1  0
 21 22  2  0
 22 23  1  0
 23 24  2  0
 12  7  1  0
 24 15  1  0
 23 18  1  0
  3 25  1  0
  4 26  1  0
  4 27  1  0
  8 28  1  0
  8 29  1  0
  9 30  1  1
 10 31  1  0
 11 32  1  0
 11 33  1  0
 12 34  1  6
 13 35  1  0
 13 36  1  0
 14 37  1  0
 16 38  1  0
 17 39  1  0
 19 40  1  0
 20 41  1  0
 21 42  1  0
 22 43  1  0
M  END
>  <smiles>  (40) 
O=C(NCC(=O)N1C[C@H](O)C[C@H]1CO)c1ccc2ccccc2n1

>  <score_type>  (40) 
oracle

>  <origin>  (40) 
autodockgpu

>  <m_score__min__energy>  (40) 
-7.0099999999999998

>  <m_primary>  (40) 
energy

>  <rmsd>  (40) 
2.3414812855741176

>  <m_score__min__rmsd>  (40) 
2.3414812855741176

>  <meeko>  (40) 
{"free_energy": -6.33, "intermolecular_energy": -8.42, "internal_energy": -2.3, "cluster_size": 18, "cluster_id": 2, "rank_in_cluster": 5}

>  <energy>  (40) 
-6.34

>  <cluster_rmsd>  (40) 
0.58

>  <cluster>  (40) 
3

$$$$

     RDKit          3D

 43 45  0  0  0  0  0  0  0  0999 V2000
  138.7900   75.2640  221.7620 O   0  0  0  0  0  0  0  0  0  0  0  0
  139.9720   75.6930  221.9490 C   0  0  0  0  0  0  0  0  0  0  0  0
  141.1140   74.8430  221.7330 N   0  0  0  0  0  0  0  0  0  0  0  0
  140.9550   73.4730  221.2980 C   0  0  0  0  0  0  0  0  0  0  0  0
  141.6850   73.3270  220.0090 C   0  0  0  0  0  0  0  0  0  0  0  0
  141.0380   73.2000  218.9370 O   0  0  0  0  0  0  0  0  0  0  0  0
  143.1140   73.3350  220.0320 N   0  0  0  0  0  0  0  0  0  0  0  0
  144.0060   72.3130  219.5160 C   0  0  0  0  0  0  0  0  0  0  0  0
  145.3490   72.9620  219.4510 C   0  0  2  0  0  0  0  0  0  0  0  0
  146.3240   71.9910  219.6800 O   0  0  0  0  0  0  0  0  0  0  0  0
  145.3130   73.9420  220.6090 C   0  0  0  0  0  0  0  0  0  0  0  0
  143.9050   74.4310  220.6090 C   0  0  1  0  0  0  0  0  0  0  0  0
  143.7010   75.6250  219.7000 C   0  0  0  0  0  0  0  0  0  0  0  0
  142.6330   76.4120  220.1210 O   0  0  0  0  0  0  0  0  0  0  0  0
  140.2050   77.0760  222.3900 C   0  0  0  0  0  0  0  0  0  0  0  0
  139.1140   77.8610  222.7010 C   0  0  0  0  0  0  0  0  0  0  0  0
  139.2140   79.1670  223.1250 C   0  0  0  0  0  0  0  0  0  0  0  0
  140.4870   79.6970  223.2360 C   0  0  0  0  0  0  0  0  0  0  0  0
  140.6740   80.9840  223.6500 C   0  0  0  0  0  0  0  0  0  0  0  0
  141.9210   81.5520  223.7750 C   0  0  0  0  0  0  0  0  0  0  0  0
  143.0110   80.7380  223.4550 C   0  0  0  0  0  0  0  0  0  0  0  0
  142.8340   79.4310  223.0350 C   0  0  0  0  0  0  0  0  0  0  0  0
  141.5570   78.8850  222.9180 C   0  0  0  0  0  0  0  0  0  0  0  0
  141.4210   77.6110  222.5070 N   0  0  0  0  0  0  0  0  0  0  0  0
  142.0700   75.2750  221.9090 H   0  0  0  0  0  0  0  0  0  0  0  0
  141.3773   72.7889  222.0487 H   0  0  0  0  0  0  0  0  0  0  0  0
  139.8904   73.2271  221.1711 H   0  0  0  0  0  0  0  0  0  0  0  0
  144.0294   71.4448  220.1911 H   0  0  0  0  0  0  0  0  0  0  0  0
  143.6808   71.9417  218.5329 H   0  0  0  0  0  0  0  0  0  0  0  0
  145.5717   73.4434  218.4873 H   0  0  0  0  0  0  0  0  0  0  0  0
  146.1090   71.5590  220.5540 H   0  0  0  0  0  0  0  0  0  0  0  0
  145.5543   73.4391  221.5571 H   0  0  0  0  0  0  0  0  0  0  0  0
  146.0480   74.7539  220.5055 H   0  0  0  0  0  0  0  0  0  0  0  0
  143.6252   74.7249  221.6314 H   0  0  0  0  0  0  0  0  0  0  0  0
  144.6163   76.2351  219.7009 H   0  0  0  0  0  0  0  0  0  0  0  0
  143.4778   75.2539  218.6888 H   0  0  0  0  0  0  0  0  0  0  0  0
  142.7070   76.6080  221.0950 H   0  0  0  0  0  0  0  0  0  0  0  0
  138.1108   77.4200  222.6051 H   0  0  0  0  0  0  0  0  0  0  0  0
  138.3210   79.7628  223.3649 H   0  0  0  0  0  0  0  0  0  0  0  0
  139.7908   81.5927  223.8939 H   0  0  0  0  0  0  0  0  0  0  0  0
  142.0530   82.5917  224.1091 H   0  0  0  0  0  0  0  0  0  0  0  0
  144.0299   81.1440  223.5386 H   0  0  0  0  0  0  0  0  0  0  0  0
  143.7123   78.8155  222.7905 H   0  0  0  0  0  0  0  0  0  0  0  0
  1  2  2  0
  2  3  1  0
  3  4  1  0
  4  5  1  0
  5  6  2  0
  5  7  1  0
  7  8  1  0
  8  9  1  0
  9 10  1  0
  9 11  1  0
 11 12  1  0
 12 13  1  0
 13 14  1  0
  2 15  1  0
 15 16  2  0
 16 17  1  0
 17 18  2  0
 18 19  1  0
 19 20  2  0
 20 21  1  0
 21 22  2  0
 22 23  1  0
 23 24  2  0
 12  7  1  0
 24 15  1  0
 23 18  1  0
  3 25  1  0
  4 26  1  0
  4 27  1  0
  8 28  1  0
  8 29  1  0
  9 30  1  6
 10 31  1  0
 11 32  1  0
 11 33  1  0
 12 34  1  1
 13 35  1  0
 13 36  1  0
 14 37  1  0
 16 38  1  0
 17 39  1  0
 19 40  1  0
 20 41  1  0
 21 42  1  0
 22 43  1  0
M  END
>  <smiles>  (41) 
O=C(NCC(=O)N1C[C@H](O)C[C@H]1CO)c1ccc2ccccc2n1

>  <score_type>  (41) 
oracle

>  <origin>  (41) 
autodockgpu

>  <m_score__min__energy>  (41) 
-7.0099999999999998

>  <m_primary>  (41) 
energy

>  <rmsd>  (41) 
7.701033674720668

>  <m_score__min__rmsd>  (41) 
7.701033674720668

>  <meeko>  (41) 
{"free_energy": -6.99, "intermolecular_energy": -9.08, "internal_energy": -2.7, "cluster_size": 19, "cluster_id": 1, "rank_in_cluster": 6}

>  <energy>  (41) 
-6.23

>  <cluster_rmsd>  (41) 
0.93

>  <cluster>  (41) 
3

$$$$

     RDKit          3D

 43 45  0  0  0  0  0  0  0  0999 V2000
  138.8020   75.2450  221.8070 O   0  0  0  0  0  0  0  0  0  0  0  0
  139.9840   75.6830  221.9800 C   0  0  0  0  0  0  0  0  0  0  0  0
  141.1300   74.8390  221.7570 N   0  0  0  0  0  0  0  0  0  0  0  0
  140.9760   73.4670  221.3300 C   0  0  0  0  0  0  0  0  0  0  0  0
  141.6900   73.3210  220.0320 C   0  0  0  0  0  0  0  0  0  0  0  0
  141.0300   73.1960  218.9670 O   0  0  0  0  0  0  0  0  0  0  0  0
  143.1190   73.3270  220.0380 N   0  0  0  0  0  0  0  0  0  0  0  0
  144.0040   72.3070  219.5040 C   0  0  0  0  0  0  0  0  0  0  0  0
  145.3470   72.9550  219.4280 C   0  0  2  0  0  0  0  0  0  0  0  0
  146.3220   71.9810  219.6380 O   0  0  0  0  0  0  0  0  0  0  0  0
  145.3260   73.9260  220.5940 C   0  0  0  0  0  0  0  0  0  0  0  0
  143.9180   74.4180  220.6140 C   0  0  1  0  0  0  0  0  0  0  0  0
  143.7060   75.6180  219.7160 C   0  0  0  0  0  0  0  0  0  0  0  0
  142.5910   76.3560  220.1050 O   0  0  0  0  0  0  0  0  0  0  0  0
  140.2120   77.0690  222.4130 C   0  0  0  0  0  0  0  0  0  0  0  0
  139.1170   77.8580  222.7000 C   0  0  0  0  0  0  0  0  0  0  0  0
  139.2120   79.1670  223.1140 C   0  0  0  0  0  0  0  0  0  0  0  0
  140.4840   79.6980  223.2410 C   0  0  0  0  0  0  0  0  0  0  0  0
  140.6660   80.9880  223.6460 C   0  0  0  0  0  0  0  0  0  0  0  0
  141.9110   81.5550  223.7860 C   0  0  0  0  0  0  0  0  0  0  0  0
  143.0050   80.7370  223.4910 C   0  0  0  0  0  0  0  0  0  0  0  0
  142.8340   79.4260  223.0790 C   0  0  0  0  0  0  0  0  0  0  0  0
  141.5580   78.8820  222.9470 C   0  0  0  0  0  0  0  0  0  0  0  0
  141.4260   77.6040  222.5450 N   0  0  0  0  0  0  0  0  0  0  0  0
  142.0840   75.2790  221.9220 H   0  0  0  0  0  0  0  0  0  0  0  0
  141.4135   72.7893  222.0779 H   0  0  0  0  0  0  0  0  0  0  0  0
  139.9117   73.2126  221.2182 H   0  0  0  0  0  0  0  0  0  0  0  0
  144.0342   71.4340  220.1725 H   0  0  0  0  0  0  0  0  0  0  0  0
  143.6669   71.9430  218.5222 H   0  0  0  0  0  0  0  0  0  0  0  0
  145.5592   73.4439  218.4657 H   0  0  0  0  0  0  0  0  0  0  0  0
  146.1480   71.5790  220.5360 H   0  0  0  0  0  0  0  0  0  0  0  0
  145.5772   73.4152  221.5353 H   0  0  0  0  0  0  0  0  0  0  0  0
  146.0613   74.7373  220.4884 H   0  0  0  0  0  0  0  0  0  0  0  0
  143.6502   74.7054  221.6414 H   0  0  0  0  0  0  0  0  0  0  0  0
  144.5960   76.2626  219.7647 H   0  0  0  0  0  0  0  0  0  0  0  0
  143.5399   75.2565  218.6905 H   0  0  0  0  0  0  0  0  0  0  0  0
  142.6860   76.6600  221.0480 H   0  0  0  0  0  0  0  0  0  0  0  0
  138.1149   77.4173  222.5922 H   0  0  0  0  0  0  0  0  0  0  0  0
  138.3158   79.7655  223.3345 H   0  0  0  0  0  0  0  0  0  0  0  0
  139.7799   81.6001  223.8699 H   0  0  0  0  0  0  0  0  0  0  0  0
  142.0390   82.5975  224.1129 H   0  0  0  0  0  0  0  0  0  0  0  0
  144.0228   81.1428  223.5881 H   0  0  0  0  0  0  0  0  0  0  0  0
  143.7151   78.8073  222.8535 H   0  0  0  0  0  0  0  0  0  0  0  0
  1  2  2  0
  2  3  1  0
  3  4  1  0
  4  5  1  0
  5  6  2  0
  5  7  1  0
  7  8  1  0
  8  9  1  0
  9 10  1  0
  9 11  1  0
 11 12  1  0
 12 13  1  0
 13 14  1  0
  2 15  1  0
 15 16  2  0
 16 17  1  0
 17 18  2  0
 18 19  1  0
 19 20  2  0
 20 21  1  0
 21 22  2  0
 22 23  1  0
 23 24  2  0
 12  7  1  0
 24 15  1  0
 23 18  1  0
  3 25  1  0
  4 26  1  0
  4 27  1  0
  8 28  1  0
  8 29  1  0
  9 30  1  6
 10 31  1  0
 11 32  1  0
 11 33  1  0
 12 34  1  1
 13 35  1  0
 13 36  1  0
 14 37  1  0
 16 38  1  0
 17 39  1  0
 19 40  1  0
 20 41  1  0
 21 42  1  0
 22 43  1  0
M  END
>  <smiles>  (42) 
O=C(NCC(=O)N1C[C@H](O)C[C@H]1CO)c1ccc2ccccc2n1

>  <score_type>  (42) 
oracle

>  <origin>  (42) 
autodockgpu

>  <m_score__min__energy>  (42) 
-7.0099999999999998

>  <m_primary>  (42) 
energy

>  <rmsd>  (42) 
7.699373743681623

>  <m_score__min__rmsd>  (42) 
7.699373743681623

>  <meeko>  (42) 
{"free_energy": -7.01, "intermolecular_energy": -9.1, "internal_energy": -2.7, "cluster_size": 19, "cluster_id": 1, "rank_in_cluster": 1}

>  <energy>  (42) 
-6.12

>  <cluster_rmsd>  (42) 
1.6

>  <cluster>  (42) 
3

$$$$

     RDKit          3D

 43 45  0  0  0  0  0  0  0  0999 V2000
  138.3890   70.7290  221.7900 O   0  0  0  0  0  0  0  0  0  0  0  0
  138.9980   71.2590  222.7730 C   0  0  0  0  0  0  0  0  0  0  0  0
  139.3940   72.6430  222.7440 N   0  0  0  0  0  0  0  0  0  0  0  0
  139.1130   73.4770  221.5970 C   0  0  0  0  0  0  0  0  0  0  0  0
  139.7470   74.8010  221.8420 C   0  0  0  0  0  0  0  0  0  0  0  0
  140.9970   74.8800  221.9690 O   0  0  0  0  0  0  0  0  0  0  0  0
  138.9050   75.9530  221.9280 N   0  0  0  0  0  0  0  0  0  0  0  0
  137.6290   76.0590  222.6100 C   0  0  0  0  0  0  0  0  0  0  0  0
  137.3590   77.5240  222.7120 C   0  0  2  0  0  0  0  0  0  0  0  0
  135.9800   77.7270  222.6570 O   0  0  0  0  0  0  0  0  0  0  0  0
  138.0140   78.0800  221.4610 C   0  0  0  0  0  0  0  0  0  0  0  0
  139.2370   77.2420  221.3040 C   0  0  1  0  0  0  0  0  0  0  0  0
  140.4230   77.7900  222.0710 C   0  0  0  0  0  0  0  0  0  0  0  0
  141.6180   77.5620  221.3940 O   0  0  0  0  0  0  0  0  0  0  0  0
  139.3150   70.4680  223.9710 C   0  0  0  0  0  0  0  0  0  0  0  0
  138.9740   69.1310  223.9870 C   0  0  0  0  0  0  0  0  0  0  0  0
  139.2230   68.2960  225.0530 C   0  0  0  0  0  0  0  0  0  0  0  0
  139.8470   68.8520  226.1560 C   0  0  0  0  0  0  0  0  0  0  0  0
  140.1290   68.0930  227.2540 C   0  0  0  0  0  0  0  0  0  0  0  0
  140.7490   68.6030  228.3720 C   0  0  0  0  0  0  0  0  0  0  0  0
  141.0850   69.9600  228.3330 C   0  0  0  0  0  0  0  0  0  0  0  0
  140.8040   70.7400  227.2240 C   0  0  0  0  0  0  0  0  0  0  0  0
  140.1750   70.1920  226.1080 C   0  0  0  0  0  0  0  0  0  0  0  0
  139.9160   70.9780  225.0470 N   0  0  0  0  0  0  0  0  0  0  0  0
  139.8980   73.0130  223.6040 H   0  0  0  0  0  0  0  0  0  0  0  0
  139.5340   73.0211  220.6887 H   0  0  0  0  0  0  0  0  0  0  0  0
  138.0279   73.5870  221.4539 H   0  0  0  0  0  0  0  0  0  0  0  0
  136.8388   75.5608  222.0291 H   0  0  0  0  0  0  0  0  0  0  0  0
  137.6498   75.5754  223.5978 H   0  0  0  0  0  0  0  0  0  0  0  0
  137.7320   77.9893  223.6363 H   0  0  0  0  0  0  0  0  0  0  0  0
  135.5930   76.9760  222.1240 H   0  0  0  0  0  0  0  0  0  0  0  0
  137.3506   77.9739  220.5900 H   0  0  0  0  0  0  0  0  0  0  0  0
  138.2386   79.1541  221.5373 H   0  0  0  0  0  0  0  0  0  0  0  0
  139.5077   77.1937  220.2389 H   0  0  0  0  0  0  0  0  0  0  0  0
  140.2907   78.8734  222.2075 H   0  0  0  0  0  0  0  0  0  0  0  0
  140.4731   77.2761  223.0423 H   0  0  0  0  0  0  0  0  0  0  0  0
  142.0540   76.7310  221.7250 H   0  0  0  0  0  0  0  0  0  0  0  0
  138.4767   68.7099  223.1008 H   0  0  0  0  0  0  0  0  0  0  0  0
  138.9385   67.2337  225.0290 H   0  0  0  0  0  0  0  0  0  0  0  0
  139.8492   67.0292  227.2455 H   0  0  0  0  0  0  0  0  0  0  0  0
  140.9685   67.9767  229.2493 H   0  0  0  0  0  0  0  0  0  0  0  0
  141.5827   70.4170  229.2010 H   0  0  0  0  0  0  0  0  0  0  0  0
  141.0806   71.8047  227.2240 H   0  0  0  0  0  0  0  0  0  0  0  0
  1  2  2  0
  2  3  1  0
  3  4  1  0
  4  5  1  0
  5  6  2  0
  5  7  1  0
  7  8  1  0
  8  9  1  0
  9 10  1  0
  9 11  1  0
 11 12  1  0
 12 13  1  0
 13 14  1  0
  2 15  1  0
 15 16  2  0
 16 17  1  0
 17 18  2  0
 18 19  1  0
 19 20  2  0
 20 21  1  0
 21 22  2  0
 22 23  1  0
 23 24  2  0
 12  7  1  0
 24 15  1  0
 23 18  1  0
  3 25  1  0
  4 26  1  0
  4 27  1  0
  8 28  1  0
  8 29  1  0
  9 30  1  1
 10 31  1  0
 11 32  1  0
 11 33  1  0
 12 34  1  6
 13 35  1  0
 13 36  1  0
 14 37  1  0
 16 38  1  0
 17 39  1  0
 19 40  1  0
 20 41  1  0
 21 42  1  0
 22 43  1  0
M  END
>  <smiles>  (43) 
O=C(NCC(=O)N1C[C@H](O)C[C@H]1CO)c1ccc2ccccc2n1

>  <score_type>  (43) 
oracle

>  <origin>  (43) 
autodockgpu

>  <m_score__min__energy>  (43) 
-7.0099999999999998

>  <m_primary>  (43) 
energy

>  <rmsd>  (43) 
2.6791703111457896

>  <m_score__min__rmsd>  (43) 
2.6791703111457896

>  <meeko>  (43) 
{"free_energy": -6.12, "intermolecular_energy": -8.2, "internal_energy": -1.91, "cluster_size": 5, "cluster_id": 3, "rank_in_cluster": 5}

>  <energy>  (43) 
-6.37

>  <cluster_rmsd>  (43) 
0.0

>  <cluster>  (43) 
4

$$$$

     RDKit          3D

 43 45  0  0  0  0  0  0  0  0999 V2000
  138.7930   75.2020  221.8100 O   0  0  0  0  0  0  0  0  0  0  0  0
  139.9720   75.6460  221.9820 C   0  0  0  0  0  0  0  0  0  0  0  0
  141.1220   74.8100  221.7560 N   0  0  0  0  0  0  0  0  0  0  0  0
  140.9760   73.4370  221.3270 C   0  0  0  0  0  0  0  0  0  0  0  0
  141.6930   73.2960  220.0310 C   0  0  0  0  0  0  0  0  0  0  0  0
  141.0360   73.1680  218.9650 O   0  0  0  0  0  0  0  0  0  0  0  0
  143.1220   73.3080  220.0400 N   0  0  0  0  0  0  0  0  0  0  0  0
  144.0130   72.2930  219.5080 C   0  0  0  0  0  0  0  0  0  0  0  0
  145.3530   72.9460  219.4340 C   0  0  2  0  0  0  0  0  0  0  0  0
  146.3330   71.9770  219.6460 O   0  0  0  0  0  0  0  0  0  0  0  0
  145.3250   73.9180  220.6000 C   0  0  0  0  0  0  0  0  0  0  0  0
  143.9160   74.4030  220.6170 C   0  0  1  0  0  0  0  0  0  0  0  0
  143.7000   75.6020  219.7190 C   0  0  0  0  0  0  0  0  0  0  0  0
  142.5890   76.3430  220.1140 O   0  0  0  0  0  0  0  0  0  0  0  0
  140.1920   77.0340  222.4160 C   0  0  0  0  0  0  0  0  0  0  0  0
  139.0940   77.8160  222.7050 C   0  0  0  0  0  0  0  0  0  0  0  0
  139.1810   79.1250  223.1210 C   0  0  0  0  0  0  0  0  0  0  0  0
  140.4500   79.6630  223.2460 C   0  0  0  0  0  0  0  0  0  0  0  0
  140.6250   80.9540  223.6530 C   0  0  0  0  0  0  0  0  0  0  0  0
  141.8670   81.5280  223.7910 C   0  0  0  0  0  0  0  0  0  0  0  0
  142.9650   80.7170  223.4940 C   0  0  0  0  0  0  0  0  0  0  0  0
  142.8010   79.4060  223.0810 C   0  0  0  0  0  0  0  0  0  0  0  0
  141.5280   78.8540  222.9500 C   0  0  0  0  0  0  0  0  0  0  0  0
  141.4040   77.5760  222.5460 N   0  0  0  0  0  0  0  0  0  0  0  0
  142.0750   75.2550  221.9200 H   0  0  0  0  0  0  0  0  0  0  0  0
  141.4155   72.7608  222.0751 H   0  0  0  0  0  0  0  0  0  0  0  0
  139.9132   73.1772  221.2126 H   0  0  0  0  0  0  0  0  0  0  0  0
  144.0460   71.4202  220.1767 H   0  0  0  0  0  0  0  0  0  0  0  0
  143.6794   71.9282  218.5253 H   0  0  0  0  0  0  0  0  0  0  0  0
  145.5649   73.4346  218.4715 H   0  0  0  0  0  0  0  0  0  0  0  0
  146.1570   71.5720  220.5420 H   0  0  0  0  0  0  0  0  0  0  0  0
  145.5767   73.4089  221.5421 H   0  0  0  0  0  0  0  0  0  0  0  0
  146.0566   74.7327  220.4954 H   0  0  0  0  0  0  0  0  0  0  0  0
  143.6453   74.6892  221.6440 H   0  0  0  0  0  0  0  0  0  0  0  0
  144.5915   76.2449  219.7609 H   0  0  0  0  0  0  0  0  0  0  0  0
  143.5261   75.2391  218.6953 H   0  0  0  0  0  0  0  0  0  0  0  0
  142.6890   76.6440  221.0580 H   0  0  0  0  0  0  0  0  0  0  0  0
  138.0944   77.3696  222.5973 H   0  0  0  0  0  0  0  0  0  0  0  0
  138.2815   79.7175  223.3443 H   0  0  0  0  0  0  0  0  0  0  0  0
  139.7358   81.5604  223.8800 H   0  0  0  0  0  0  0  0  0  0  0  0
  141.9895   82.5711  224.1181 H   0  0  0  0  0  0  0  0  0  0  0  0
  143.9806   81.1286  223.5903 H   0  0  0  0  0  0  0  0  0  0  0  0
  143.6855   78.7929  222.8536 H   0  0  0  0  0  0  0  0  0  0  0  0
  1  2  2  0
  2  3  1  0
  3  4  1  0
  4  5  1  0
  5  6  2  0
  5  7  1  0
  7  8  1  0
  8  9  1  0
  9 10  1  0
  9 11  1  0
 11 12  1  0
 12 13  1  0
 13 14  1  0
  2 15  1  0
 15 16  2  0
 16 17  1  0
 17 18  2  0
 18 19  1  0
 19 20  2  0
 20 21  1  0
 21 22  2  0
 22 23  1  0
 23 24  2  0
 12  7  1  0
 24 15  1  0
 23 18  1  0
  3 25  1  0
  4 26  1  0
  4 27  1  0
  8 28  1  0
  8 29  1  0
  9 30  1  6
 10 31  1  0
 11 32  1  0
 11 33  1  0
 12 34  1  1
 13 35  1  0
 13 36  1  0
 14 37  1  0
 16 38  1  0
 17 39  1  0
 19 40  1  0
 20 41  1  0
 21 42  1  0
 22 43  1  0
M  END
>  <smiles>  (44) 
O=C(NCC(=O)N1C[C@H](O)C[C@H]1CO)c1ccc2ccccc2n1

>  <score_type>  (44) 
oracle

>  <origin>  (44) 
autodockgpu

>  <m_score__min__energy>  (44) 
-7.0099999999999998

>  <m_primary>  (44) 
energy

>  <rmsd>  (44) 
7.680701120660022

>  <m_score__min__rmsd>  (44) 
7.680701120660022

>  <meeko>  (44) 
{"free_energy": -7.0, "intermolecular_energy": -9.08, "internal_energy": -2.69, "cluster_size": 19, "cluster_id": 1, "rank_in_cluster": 5}

>  <energy>  (44) 
-6.16

>  <cluster_rmsd>  (44) 
1.23

>  <cluster>  (44) 
4

$$$$

     RDKit          3D

 43 45  0  0  0  0  0  0  0  0999 V2000
  136.2630   71.2540  221.8120 O   0  0  0  0  0  0  0  0  0  0  0  0
  137.1460   71.8010  222.5440 C   0  0  0  0  0  0  0  0  0  0  0  0
  137.4380   73.2070  222.4330 N   0  0  0  0  0  0  0  0  0  0  0  0
  136.7370   74.0430  221.4840 C   0  0  0  0  0  0  0  0  0  0  0  0
  137.7180   74.4560  220.4440 C   0  0  0  0  0  0  0  0  0  0  0  0
  137.4340   74.3110  219.2260 O   0  0  0  0  0  0  0  0  0  0  0  0
  138.9660   75.0080  220.8670 N   0  0  0  0  0  0  0  0  0  0  0  0
  139.1740   76.2170  221.6430 C   0  0  0  0  0  0  0  0  0  0  0  0
  140.5870   76.1400  222.1180 C   0  0  2  0  0  0  0  0  0  0  0  0
  141.0950   77.4350  222.2120 O   0  0  0  0  0  0  0  0  0  0  0  0
  141.2840   75.3900  220.9980 C   0  0  0  0  0  0  0  0  0  0  0  0
  140.2660   74.3960  220.5560 C   0  0  1  0  0  0  0  0  0  0  0  0
  140.3260   73.1060  221.3470 C   0  0  0  0  0  0  0  0  0  0  0  0
  140.3210   73.3460  222.7180 O   0  0  0  0  0  0  0  0  0  0  0  0
  137.8950   71.0090  223.5310 C   0  0  0  0  0  0  0  0  0  0  0  0
  137.4940   69.7130  223.7770 C   0  0  0  0  0  0  0  0  0  0  0  0
  138.1210   68.8810  224.6770 C   0  0  0  0  0  0  0  0  0  0  0  0
  139.2090   69.3970  225.3600 C   0  0  0  0  0  0  0  0  0  0  0  0
  139.8860   68.6390  226.2700 C   0  0  0  0  0  0  0  0  0  0  0  0
  140.9720   69.1110  226.9700 C   0  0  0  0  0  0  0  0  0  0  0  0
  141.3610   70.4270  226.7040 C   0  0  0  0  0  0  0  0  0  0  0  0
  140.6810   71.2060  225.7840 C   0  0  0  0  0  0  0  0  0  0  0  0
  139.5850   70.6980  225.0900 C   0  0  0  0  0  0  0  0  0  0  0  0
  138.9470   71.4820  224.2020 N   0  0  0  0  0  0  0  0  0  0  0  0
  138.1890   73.5910  223.0810 H   0  0  0  0  0  0  0  0  0  0  0  0
  135.9143   73.4781  221.0214 H   0  0  0  0  0  0  0  0  0  0  0  0
  136.3086   74.9236  221.9849 H   0  0  0  0  0  0  0  0  0  0  0  0
  139.0262   77.1082  221.0154 H   0  0  0  0  0  0  0  0  0  0  0  0
  138.4634   76.2959  222.4789 H   0  0  0  0  0  0  0  0  0  0  0  0
  140.7090   75.6577  223.0991 H   0  0  0  0  0  0  0  0  0  0  0  0
  142.0870   77.3700  222.1120 H   0  0  0  0  0  0  0  0  0  0  0  0
  141.5511   76.0707  220.1762 H   0  0  0  0  0  0  0  0  0  0  0  0
  142.2269   74.9228  221.3183 H   0  0  0  0  0  0  0  0  0  0  0  0
  140.4321   74.1575  219.4951 H   0  0  0  0  0  0  0  0  0  0  0  0
  139.4531   72.4882  221.0894 H   0  0  0  0  0  0  0  0  0  0  0  0
  141.2623   72.5884  221.0913 H   0  0  0  0  0  0  0  0  0  0  0  0
  139.4630   73.0420  223.1220 H   0  0  0  0  0  0  0  0  0  0  0  0
  136.6265   69.3228  223.2245 H   0  0  0  0  0  0  0  0  0  0  0  0
  137.7727   67.8514  224.8460 H   0  0  0  0  0  0  0  0  0  0  0  0
  139.5495   67.6076  226.4515 H   0  0  0  0  0  0  0  0  0  0  0  0
  141.5062   68.4858  227.7006 H   0  0  0  0  0  0  0  0  0  0  0  0
  142.2247   70.8519  227.2364 H   0  0  0  0  0  0  0  0  0  0  0  0
  141.0100   72.2391  225.5985 H   0  0  0  0  0  0  0  0  0  0  0  0
  1  2  2  0
  2  3  1  0
  3  4  1  0
  4  5  1  0
  5  6  2  0
  5  7  1  0
  7  8  1  0
  8  9  1  0
  9 10  1  0
  9 11  1  0
 11 12  1  0
 12 13  1  0
 13 14  1  0
  2 15  1  0
 15 16  2  0
 16 17  1  0
 17 18  2  0
 18 19  1  0
 19 20  2  0
 20 21  1  0
 21 22  2  0
 22 23  1  0
 23 24  2  0
 12  7  1  0
 24 15  1  0
 23 18  1  0
  3 25  1  0
  4 26  1  0
  4 27  1  0
  8 28  1  0
  8 29  1  0
  9 30  1  1
 10 31  1  0
 11 32  1  0
 11 33  1  0
 12 34  1  6
 13 35  1  0
 13 36  1  0
 14 37  1  0
 16 38  1  0
 17 39  1  0
 19 40  1  0
 20 41  1  0
 21 42  1  0
 22 43  1  0
M  END
>  <smiles>  (45) 
O=C(NCC(=O)N1C[C@H](O)C[C@H]1CO)c1ccc2ccccc2n1

>  <score_type>  (45) 
oracle

>  <origin>  (45) 
autodockgpu

>  <m_score__min__energy>  (45) 
-7.0099999999999998

>  <m_primary>  (45) 
energy

>  <rmsd>  (45) 
2.6120066643789914

>  <m_score__min__rmsd>  (45) 
2.6120066643789914

>  <meeko>  (45) 
{"free_energy": -5.7, "intermolecular_energy": -7.79, "internal_energy": -2.81, "cluster_size": 2, "cluster_id": 7, "rank_in_cluster": 2}

>  <energy>  (45) 
-5.98

>  <cluster_rmsd>  (45) 
1.3

>  <cluster>  (45) 
4

$$$$

     RDKit          3D

 43 45  0  0  0  0  0  0  0  0999 V2000
  140.9290   71.5240  221.3610 O   0  0  0  0  0  0  0  0  0  0  0  0
  140.3540   72.0940  222.3410 C   0  0  0  0  0  0  0  0  0  0  0  0
  139.8240   73.4280  222.2190 N   0  0  0  0  0  0  0  0  0  0  0  0
  139.9290   74.1630  220.9790 C   0  0  0  0  0  0  0  0  0  0  0  0
  140.7180   75.3950  221.2560 C   0  0  0  0  0  0  0  0  0  0  0  0
  140.6370   75.9470  222.3840 O   0  0  0  0  0  0  0  0  0  0  0  0
  141.5500   75.9170  220.2180 N   0  0  0  0  0  0  0  0  0  0  0  0
  141.7140   77.3090  219.8400 C   0  0  0  0  0  0  0  0  0  0  0  0
  142.9370   77.3410  218.9850 C   0  0  2  0  0  0  0  0  0  0  0  0
  142.7900   78.3550  218.0380 O   0  0  0  0  0  0  0  0  0  0  0  0
  142.9140   75.9870  218.3020 C   0  0  0  0  0  0  0  0  0  0  0  0
  142.3890   75.0720  219.3560 C   0  0  1  0  0  0  0  0  0  0  0  0
  143.4820   74.5150  220.2430 C   0  0  0  0  0  0  0  0  0  0  0  0
  143.0770   73.3440  220.8780 O   0  0  0  0  0  0  0  0  0  0  0  0
  140.2120   71.4020  223.6310 C   0  0  0  0  0  0  0  0  0  0  0  0
  139.5720   70.1810  223.6570 C   0  0  0  0  0  0  0  0  0  0  0  0
  139.3850   69.4450  224.8050 C   0  0  0  0  0  0  0  0  0  0  0  0
  139.8720   69.9830  225.9840 C   0  0  0  0  0  0  0  0  0  0  0  0
  139.7270   69.3180  227.1670 C   0  0  0  0  0  0  0  0  0  0  0  0
  140.1950   69.8140  228.3610 C   0  0  0  0  0  0  0  0  0  0  0  0
  140.8400   71.0530  228.3100 C   0  0  0  0  0  0  0  0  0  0  0  0
  140.9940   71.7370  227.1170 C   0  0  0  0  0  0  0  0  0  0  0  0
  140.5070   71.2070  225.9240 C   0  0  0  0  0  0  0  0  0  0  0  0
  140.6730   71.8970  224.7810 N   0  0  0  0  0  0  0  0  0  0  0  0
  139.3570   73.8360  223.0830 H   0  0  0  0  0  0  0  0  0  0  0  0
  140.4410   73.5512  220.2217 H   0  0  0  0  0  0  0  0  0  0  0  0
  138.9309   74.4197  220.5944 H   0  0  0  0  0  0  0  0  0  0  0  0
  140.8386   77.6608  219.2743 H   0  0  0  0  0  0  0  0  0  0  0  0
  141.8089   77.9649  220.7179 H   0  0  0  0  0  0  0  0  0  0  0  0
  143.8700   77.5270  219.5372 H   0  0  0  0  0  0  0  0  0  0  0  0
  142.8820   77.9320  217.1380 H   0  0  0  0  0  0  0  0  0  0  0  0
  142.2486   76.0001  217.4262 H   0  0  0  0  0  0  0  0  0  0  0  0
  143.9009   75.6820  217.9238 H   0  0  0  0  0  0  0  0  0  0  0  0
  141.8712   74.2279  218.8771 H   0  0  0  0  0  0  0  0  0  0  0  0
  144.3673   74.2995  219.6267 H   0  0  0  0  0  0  0  0  0  0  0  0
  143.7147   75.2633  221.0149 H   0  0  0  0  0  0  0  0  0  0  0  0
  142.2090   73.0290  220.5070 H   0  0  0  0  0  0  0  0  0  0  0  0
  139.1904   69.7732  222.7094 H   0  0  0  0  0  0  0  0  0  0  0  0
  138.8714   68.4725  224.7865 H   0  0  0  0  0  0  0  0  0  0  0  0
  139.2144   68.3447  227.1652 H   0  0  0  0  0  0  0  0  0  0  0  0
  140.0686   69.2651  229.3058 H   0  0  0  0  0  0  0  0  0  0  0  0
  141.2335   71.4937  229.2379 H   0  0  0  0  0  0  0  0  0  0  0  0
  141.5067   72.7102  227.1104 H   0  0  0  0  0  0  0  0  0  0  0  0
  1  2  2  0
  2  3  1  0
  3  4  1  0
  4  5  1  0
  5  6  2  0
  5  7  1  0
  7  8  1  0
  8  9  1  0
  9 10  1  0
  9 11  1  0
 11 12  1  0
 12 13  1  0
 13 14  1  0
  2 15  1  0
 15 16  2  0
 16 17  1  0
 17 18  2  0
 18 19  1  0
 19 20  2  0
 20 21  1  0
 21 22  2  0
 22 23  1  0
 23 24  2  0
 12  7  1  0
 24 15  1  0
 23 18  1  0
  3 25  1  0
  4 26  1  0
  4 27  1  0
  8 28  1  0
  8 29  1  0
  9 30  1  1
 10 31  1  0
 11 32  1  0
 11 33  1  0
 12 34  1  6
 13 35  1  0
 13 36  1  0
 14 37  1  0
 16 38  1  0
 17 39  1  0
 19 40  1  0
 20 41  1  0
 21 42  1  0
 22 43  1  0
M  END
>  <smiles>  (46) 
O=C(NCC(=O)N1C[C@H](O)C[C@H]1CO)c1ccc2ccccc2n1

>  <score_type>  (46) 
oracle

>  <origin>  (46) 
autodockgpu

>  <m_score__min__energy>  (46) 
-7.0099999999999998

>  <m_primary>  (46) 
energy

>  <rmsd>  (46) 
2.272532028392948

>  <m_score__min__rmsd>  (46) 
2.272532028392948

>  <meeko>  (46) 
{"free_energy": -6.17, "intermolecular_energy": -8.26, "internal_energy": -2.0, "cluster_size": 18, "cluster_id": 2, "rank_in_cluster": 13}

>  <energy>  (46) 
-5.59

>  <cluster_rmsd>  (46) 
0.83

>  <cluster>  (46) 
4

$$$$

     RDKit          3D

 43 45  0  0  0  0  0  0  0  0999 V2000
  140.1680   71.0220  221.3230 O   0  0  0  0  0  0  0  0  0  0  0  0
  139.9610   71.6530  222.4070 C   0  0  0  0  0  0  0  0  0  0  0  0
  139.7210   73.0730  222.4080 N   0  0  0  0  0  0  0  0  0  0  0  0
  139.7070   73.8290  221.1760 C   0  0  0  0  0  0  0  0  0  0  0  0
  140.5600   75.0310  221.3810 C   0  0  0  0  0  0  0  0  0  0  0  0
  140.3270   75.8040  222.3470 O   0  0  0  0  0  0  0  0  0  0  0  0
  141.6280   75.2720  220.4630 N   0  0  0  0  0  0  0  0  0  0  0  0
  142.4100   74.2820  219.7460 C   0  0  0  0  0  0  0  0  0  0  0  0
  143.1150   75.0420  218.6710 C   0  0  2  0  0  0  0  0  0  0  0  0
  144.3430   74.4290  218.4250 O   0  0  0  0  0  0  0  0  0  0  0  0
  143.3340   76.4040  219.3030 C   0  0  0  0  0  0  0  0  0  0  0  0
  142.0980   76.6190  220.1080 C   0  0  1  0  0  0  0  0  0  0  0  0
  140.9830   77.2600  219.3090 C   0  0  0  0  0  0  0  0  0  0  0  0
  140.0310   77.8450  220.1380 O   0  0  0  0  0  0  0  0  0  0  0  0
  139.9610   70.9440  223.6960 C   0  0  0  0  0  0  0  0  0  0  0  0
  139.4600   69.6600  223.7410 C   0  0  0  0  0  0  0  0  0  0  0  0
  139.4120   68.9030  224.8900 C   0  0  0  0  0  0  0  0  0  0  0  0
  139.8950   69.4860  226.0490 C   0  0  0  0  0  0  0  0  0  0  0  0
  139.8830   68.8040  227.2310 C   0  0  0  0  0  0  0  0  0  0  0  0
  140.3530   69.3440  228.4060 C   0  0  0  0  0  0  0  0  0  0  0  0
  140.8560   70.6460  228.3350 C   0  0  0  0  0  0  0  0  0  0  0  0
  140.8740   71.3480  227.1420 C   0  0  0  0  0  0  0  0  0  0  0  0
  140.3890   70.7720  225.9690 C   0  0  0  0  0  0  0  0  0  0  0  0
  140.4210   71.4820  224.8260 N   0  0  0  0  0  0  0  0  0  0  0  0
  139.5550   73.5270  223.3550 H   0  0  0  0  0  0  0  0  0  0  0  0
  140.1101   73.2176  220.3552 H   0  0  0  0  0  0  0  0  0  0  0  0
  138.6801   74.1222  220.9122 H   0  0  0  0  0  0  0  0  0  0  0  0
  143.1362   73.8029  220.4192 H   0  0  0  0  0  0  0  0  0  0  0  0
  141.7797   73.4793  219.3357 H   0  0  0  0  0  0  0  0  0  0  0  0
  142.5665   75.0925  217.7188 H   0  0  0  0  0  0  0  0  0  0  0  0
  144.8710   75.0480  217.8470 H   0  0  0  0  0  0  0  0  0  0  0  0
  144.2261   76.3996  219.9465 H   0  0  0  0  0  0  0  0  0  0  0  0
  143.5043   77.1976  218.5605 H   0  0  0  0  0  0  0  0  0  0  0  0
  142.3318   77.2753  220.9592 H   0  0  0  0  0  0  0  0  0  0  0  0
  141.4114   78.0341  218.6553 H   0  0  0  0  0  0  0  0  0  0  0  0
  140.4888   76.4758  218.7167 H   0  0  0  0  0  0  0  0  0  0  0  0
  140.0250   77.4020  221.0300 H   0  0  0  0  0  0  0  0  0  0  0  0
  139.0784   69.2170  222.8093 H   0  0  0  0  0  0  0  0  0  0  0  0
  139.0077   67.8800  224.8872 H   0  0  0  0  0  0  0  0  0  0  0  0
  139.4809   67.7802  227.2449 H   0  0  0  0  0  0  0  0  0  0  0  0
  140.3339   68.7810  229.3508 H   0  0  0  0  0  0  0  0  0  0  0  0
  141.2458   71.1230  229.2463 H   0  0  0  0  0  0  0  0  0  0  0  0
  141.2755   72.3718  227.1195 H   0  0  0  0  0  0  0  0  0  0  0  0
  1  2  2  0
  2  3  1  0
  3  4  1  0
  4  5  1  0
  5  6  2  0
  5  7  1  0
  7  8  1  0
  8  9  1  0
  9 10  1  0
  9 11  1  0
 11 12  1  0
 12 13  1  0
 13 14  1  0
  2 15  1  0
 15 16  2  0
 16 17  1  0
 17 18  2  0
 18 19  1  0
 19 20  2  0
 20 21  1  0
 21 22  2  0
 22 23  1  0
 23 24  2  0
 12  7  1  0
 24 15  1  0
 23 18  1  0
  3 25  1  0
  4 26  1  0
  4 27  1  0
  8 28  1  0
  8 29  1  0
  9 30  1  6
 10 31  1  0
 11 32  1  0
 11 33  1  0
 12 34  1  1
 13 35  1  0
 13 36  1  0
 14 37  1  0
 16 38  1  0
 17 39  1  0
 19 40  1  0
 20 41  1  0
 21 42  1  0
 22 43  1  0
M  END
>  <smiles>  (47) 
O=C(NCC(=O)N1C[C@H](O)C[C@H]1CO)c1ccc2ccccc2n1

>  <score_type>  (47) 
oracle

>  <origin>  (47) 
autodockgpu

>  <m_score__min__energy>  (47) 
-7.0099999999999998

>  <m_primary>  (47) 
energy

>  <rmsd>  (47) 
1.886636373721335

>  <m_score__min__rmsd>  (47) 
1.886636373721335

>  <meeko>  (47) 
{"free_energy": -6.32, "intermolecular_energy": -8.4, "internal_energy": -1.94, "cluster_size": 18, "cluster_id": 2, "rank_in_cluster": 9}

>  <energy>  (47) 
-6.31

>  <cluster_rmsd>  (47) 
0.0

>  <cluster>  (47) 
5

$$$$

     RDKit          3D

 43 45  0  0  0  0  0  0  0  0999 V2000
  140.0840   70.8560  221.3360 O   0  0  0  0  0  0  0  0  0  0  0  0
  139.9080   71.5010  222.4180 C   0  0  0  0  0  0  0  0  0  0  0  0
  139.6670   72.9210  222.4060 N   0  0  0  0  0  0  0  0  0  0  0  0
  139.6180   73.6610  221.1650 C   0  0  0  0  0  0  0  0  0  0  0  0
  140.3490   74.9390  221.3790 C   0  0  0  0  0  0  0  0  0  0  0  0
  140.0360   75.6830  222.3450 O   0  0  0  0  0  0  0  0  0  0  0  0
  141.3950   75.2850  220.4680 N   0  0  0  0  0  0  0  0  0  0  0  0
  141.8410   76.6190  220.1090 C   0  0  0  0  0  0  0  0  0  0  0  0
  143.1600   76.4230  219.4370 C   0  0  2  0  0  0  0  0  0  0  0  0
  143.3200   77.4180  218.4730 O   0  0  0  0  0  0  0  0  0  0  0  0
  143.0060   75.0710  218.7660 C   0  0  0  0  0  0  0  0  0  0  0  0
  142.1920   74.2880  219.7390 C   0  0  1  0  0  0  0  0  0  0  0  0
  143.0410   73.5840  220.7780 C   0  0  0  0  0  0  0  0  0  0  0  0
  142.5810   72.2940  221.0240 O   0  0  0  0  0  0  0  0  0  0  0  0
  139.9450   70.8100  223.7150 C   0  0  0  0  0  0  0  0  0  0  0  0
  139.4440   69.5280  223.7930 C   0  0  0  0  0  0  0  0  0  0  0  0
  139.4280   68.7870  224.9530 C   0  0  0  0  0  0  0  0  0  0  0  0
  139.9470   69.3840  226.0890 C   0  0  0  0  0  0  0  0  0  0  0  0
  139.9680   68.7180  227.2800 C   0  0  0  0  0  0  0  0  0  0  0  0
  140.4740   69.2730  228.4330 C   0  0  0  0  0  0  0  0  0  0  0  0
  140.9760   70.5740  228.3300 C   0  0  0  0  0  0  0  0  0  0  0  0
  140.9600   71.2590  227.1270 C   0  0  0  0  0  0  0  0  0  0  0  0
  140.4400   70.6680  225.9770 C   0  0  0  0  0  0  0  0  0  0  0  0
  140.4390   71.3620  224.8240 N   0  0  0  0  0  0  0  0  0  0  0  0
  139.5280   73.3890  223.3510 H   0  0  0  0  0  0  0  0  0  0  0  0
  140.0996   73.0823  220.3630 H   0  0  0  0  0  0  0  0  0  0  0  0
  138.5763   73.8546  220.8695 H   0  0  0  0  0  0  0  0  0  0  0  0
  141.1248   77.0934  219.4220 H   0  0  0  0  0  0  0  0  0  0  0  0
  141.9207   77.2763  220.9874 H   0  0  0  0  0  0  0  0  0  0  0  0
  144.0243   76.4691  220.1159 H   0  0  0  0  0  0  0  0  0  0  0  0
  143.7090   78.2140  218.9330 H   0  0  0  0  0  0  0  0  0  0  0  0
  142.4822   75.1675  217.8036 H   0  0  0  0  0  0  0  0  0  0  0  0
  143.9708   74.5956  218.5355 H   0  0  0  0  0  0  0  0  0  0  0  0
  141.6118   73.5281  219.1950 H   0  0  0  0  0  0  0  0  0  0  0  0
  144.0782   73.5305  220.4154 H   0  0  0  0  0  0  0  0  0  0  0  0
  142.9829   74.1557  221.7160 H   0  0  0  0  0  0  0  0  0  0  0  0
  141.6470   72.1870  220.6950 H   0  0  0  0  0  0  0  0  0  0  0  0
  139.0350   69.0727  222.8790 H   0  0  0  0  0  0  0  0  0  0  0  0
  139.0207   67.7654  224.9762 H   0  0  0  0  0  0  0  0  0  0  0  0
  139.5639   67.6957  227.3199 H   0  0  0  0  0  0  0  0  0  0  0  0
  140.4831   68.7224  229.3852 H   0  0  0  0  0  0  0  0  0  0  0  0
  141.3921   71.0632  229.2231 H   0  0  0  0  0  0  0  0  0  0  0  0
  141.3624   72.2816  227.0783 H   0  0  0  0  0  0  0  0  0  0  0  0
  1  2  2  0
  2  3  1  0
  3  4  1  0
  4  5  1  0
  5  6  2  0
  5  7  1  0
  7  8  1  0
  8  9  1  0
  9 10  1  0
  9 11  1  0
 11 12  1  0
 12 13  1  0
 13 14  1  0
  2 15  1  0
 15 16  2  0
 16 17  1  0
 17 18  2  0
 18 19  1  0
 19 20  2  0
 20 21  1  0
 21 22  2  0
 22 23  1  0
 23 24  2  0
 12  7  1  0
 24 15  1  0
 23 18  1  0
  3 25  1  0
  4 26  1  0
  4 27  1  0
  8 28  1  0
  8 29  1  0
  9 30  1  1
 10 31  1  0
 11 32  1  0
 11 33  1  0
 12 34  1  6
 13 35  1  0
 13 36  1  0
 14 37  1  0
 16 38  1  0
 17 39  1  0
 19 40  1  0
 20 41  1  0
 21 42  1  0
 22 43  1  0
M  END
>  <smiles>  (48) 
O=C(NCC(=O)N1C[C@H](O)C[C@H]1CO)c1ccc2ccccc2n1

>  <score_type>  (48) 
oracle

>  <origin>  (48) 
autodockgpu

>  <m_score__min__energy>  (48) 
-7.0099999999999998

>  <m_primary>  (48) 
energy

>  <rmsd>  (48) 
2.2718963958845784

>  <m_score__min__rmsd>  (48) 
2.2718963958845784

>  <meeko>  (48) 
{"free_energy": -6.4, "intermolecular_energy": -8.49, "internal_energy": -2.09, "cluster_size": 18, "cluster_id": 2, "rank_in_cluster": 4}

>  <energy>  (48) 
-6.27

>  <cluster_rmsd>  (48) 
0.0

>  <cluster>  (48) 
6

$$$$

     RDKit          3D

 43 45  0  0  0  0  0  0  0  0999 V2000
  138.7700   75.2930  221.8270 O   0  0  0  0  0  0  0  0  0  0  0  0
  139.9560   75.7280  221.9720 C   0  0  0  0  0  0  0  0  0  0  0  0
  141.0950   74.8890  221.7000 N   0  0  0  0  0  0  0  0  0  0  0  0
  140.9280   73.5250  221.2530 C   0  0  0  0  0  0  0  0  0  0  0  0
  141.6780   73.3790  219.9760 C   0  0  0  0  0  0  0  0  0  0  0  0
  141.0470   73.2500  218.8940 O   0  0  0  0  0  0  0  0  0  0  0  0
  143.1060   73.3890  220.0200 N   0  0  0  0  0  0  0  0  0  0  0  0
  144.0070   72.3680  219.5170 C   0  0  0  0  0  0  0  0  0  0  0  0
  145.3500   73.0190  219.4730 C   0  0  2  0  0  0  0  0  0  0  0  0
  146.3220   72.0480  219.7150 O   0  0  0  0  0  0  0  0  0  0  0  0
  145.2950   73.9960  220.6320 C   0  0  0  0  0  0  0  0  0  0  0  0
  143.8870   74.4850  220.6110 C   0  0  1  0  0  0  0  0  0  0  0  0
  143.6960   75.6790  219.7010 C   0  0  0  0  0  0  0  0  0  0  0  0
  142.6160   76.4610  220.1030 O   0  0  0  0  0  0  0  0  0  0  0  0
  140.1970   77.1070  222.4230 C   0  0  0  0  0  0  0  0  0  0  0  0
  139.1110   77.8940  222.7430 C   0  0  0  0  0  0  0  0  0  0  0  0
  139.2170   79.1960  223.1760 C   0  0  0  0  0  0  0  0  0  0  0  0
  140.4940   79.7210  223.2870 C   0  0  0  0  0  0  0  0  0  0  0  0
  140.6870   81.0040  223.7090 C   0  0  0  0  0  0  0  0  0  0  0  0
  141.9370   81.5660  223.8330 C   0  0  0  0  0  0  0  0  0  0  0  0
  143.0220   80.7490  223.5040 C   0  0  0  0  0  0  0  0  0  0  0  0
  142.8390   79.4450  223.0750 C   0  0  0  0  0  0  0  0  0  0  0  0
  141.5590   78.9070  222.9590 C   0  0  0  0  0  0  0  0  0  0  0  0
  141.4150   77.6360  222.5390 N   0  0  0  0  0  0  0  0  0  0  0  0
  142.0540   75.3260  221.8440 H   0  0  0  0  0  0  0  0  0  0  0  0
  141.3295   72.8310  222.0061 H   0  0  0  0  0  0  0  0  0  0  0  0
  139.8629   73.2926  221.1061 H   0  0  0  0  0  0  0  0  0  0  0  0
  144.0212   71.4995  220.1919 H   0  0  0  0  0  0  0  0  0  0  0  0
  143.6973   71.9966  218.5290 H   0  0  0  0  0  0  0  0  0  0  0  0
  145.5870   73.5029  218.5140 H   0  0  0  0  0  0  0  0  0  0  0  0
  146.1980   71.7350  220.6550 H   0  0  0  0  0  0  0  0  0  0  0  0
  145.5213   73.4909  221.5826 H   0  0  0  0  0  0  0  0  0  0  0  0
  146.0312   74.8083  220.5419 H   0  0  0  0  0  0  0  0  0  0  0  0
  143.5916   74.7781  221.6293 H   0  0  0  0  0  0  0  0  0  0  0  0
  144.6085   76.2929  219.7209 H   0  0  0  0  0  0  0  0  0  0  0  0
  143.4943   75.3091  218.6849 H   0  0  0  0  0  0  0  0  0  0  0  0
  142.7250   76.7440  221.0510 H   0  0  0  0  0  0  0  0  0  0  0  0
  138.1058   77.4577  222.6470 H   0  0  0  0  0  0  0  0  0  0  0  0
  138.3270   79.7934  223.4230 H   0  0  0  0  0  0  0  0  0  0  0  0
  139.8071   81.6144  223.9605 H   0  0  0  0  0  0  0  0  0  0  0  0
  142.0748   82.6030  224.1729 H   0  0  0  0  0  0  0  0  0  0  0  0
  144.0429   81.1501  223.5875 H   0  0  0  0  0  0  0  0  0  0  0  0
  143.7137   78.8273  222.8231 H   0  0  0  0  0  0  0  0  0  0  0  0
  1  2  2  0
  2  3  1  0
  3  4  1  0
  4  5  1  0
  5  6  2  0
  5  7  1  0
  7  8  1  0
  8  9  1  0
  9 10  1  0
  9 11  1  0
 11 12  1  0
 12 13  1  0
 13 14  1  0
  2 15  1  0
 15 16  2  0
 16 17  1  0
 17 18  2  0
 18 19  1  0
 19 20  2  0
 20 21  1  0
 21 22  2  0
 22 23  1  0
 23 24  2  0
 12  7  1  0
 24 15  1  0
 23 18  1  0
  3 25  1  0
  4 26  1  0
  4 27  1  0
  8 28  1  0
  8 29  1  0
  9 30  1  6
 10 31  1  0
 11 32  1  0
 11 33  1  0
 12 34  1  1
 13 35  1  0
 13 36  1  0
 14 37  1  0
 16 38  1  0
 17 39  1  0
 19 40  1  0
 20 41  1  0
 21 42  1  0
 22 43  1  0
M  END
>  <smiles>  (49) 
O=C(NCC(=O)N1C[C@H](O)C[C@H]1CO)c1ccc2ccccc2n1

>  <score_type>  (49) 
oracle

>  <origin>  (49) 
autodockgpu

>  <m_score__min__energy>  (49) 
-7.0099999999999998

>  <m_primary>  (49) 
energy

>  <rmsd>  (49) 
7.7006908896332265

>  <m_score__min__rmsd>  (49) 
7.7006908896332265

>  <meeko>  (49) 
{"free_energy": -6.98, "intermolecular_energy": -9.07, "internal_energy": -2.7, "cluster_size": 19, "cluster_id": 1, "rank_in_cluster": 8}

>  <energy>  (49) 
-5.75

>  <cluster_rmsd>  (49) 
0.0

>  <cluster>  (49) 
7

$$$$

     RDKit          3D

 43 45  0  0  0  0  0  0  0  0999 V2000
  139.6150   73.8620  222.4520 O   0  0  0  0  0  0  0  0  0  0  0  0
  140.2780   72.7830  222.3400 C   0  0  0  0  0  0  0  0  0  0  0  0
  141.1260   72.5460  221.2010 N   0  0  0  0  0  0  0  0  0  0  0  0
  141.2520   73.5260  220.1460 C   0  0  0  0  0  0  0  0  0  0  0  0
  142.2420   73.0030  219.1660 C   0  0  0  0  0  0  0  0  0  0  0  0
  141.8660   72.6900  218.0060 O   0  0  0  0  0  0  0  0  0  0  0  0
  143.6030   72.8690  219.5800 N   0  0  0  0  0  0  0  0  0  0  0  0
  144.3980   73.8400  220.3090 C   0  0  0  0  0  0  0  0  0  0  0  0
  145.5870   73.0820  220.8010 C   0  0  2  0  0  0  0  0  0  0  0  0
  146.6780   73.9490  220.8490 O   0  0  0  0  0  0  0  0  0  0  0  0
  145.8010   72.0400  219.7200 C   0  0  0  0  0  0  0  0  0  0  0  0
  144.4160   71.6750  219.3060 C   0  0  1  0  0  0  0  0  0  0  0  0
  143.8290   70.5620  220.1480 C   0  0  0  0  0  0  0  0  0  0  0  0
  142.5250   70.2620  219.7620 O   0  0  0  0  0  0  0  0  0  0  0  0
  140.1970   71.7440  223.3780 C   0  0  0  0  0  0  0  0  0  0  0  0
  139.6080   70.5390  223.0580 C   0  0  0  0  0  0  0  0  0  0  0  0
  139.4790   69.4960  223.9480 C   0  0  0  0  0  0  0  0  0  0  0  0
  139.9730   69.6940  225.2250 C   0  0  0  0  0  0  0  0  0  0  0  0
  139.8850   68.7110  226.1680 C   0  0  0  0  0  0  0  0  0  0  0  0
  140.3630   68.8640  227.4490 C   0  0  0  0  0  0  0  0  0  0  0  0
  140.9560   70.0930  227.7500 C   0  0  0  0  0  0  0  0  0  0  0  0
  141.0510   71.0980  226.8020 C   0  0  0  0  0  0  0  0  0  0  0  0
  140.5570   70.9110  225.5130 C   0  0  0  0  0  0  0  0  0  0  0  0
  140.6660   71.9080  224.6150 N   0  0  0  0  0  0  0  0  0  0  0  0
  141.6490   71.6200  221.1800 H   0  0  0  0  0  0  0  0  0  0  0  0
  140.2795   73.6755  219.6541 H   0  0  0  0  0  0  0  0  0  0  0  0
  141.5830   74.4929  220.5528 H   0  0  0  0  0  0  0  0  0  0  0  0
  144.7105   74.6593  219.6449 H   0  0  0  0  0  0  0  0  0  0  0  0
  143.8325   74.2985  221.1337 H   0  0  0  0  0  0  0  0  0  0  0  0
  145.4605   72.6429  221.8016 H   0  0  0  0  0  0  0  0  0  0  0  0
  146.6070   74.5560  220.0590 H   0  0  0  0  0  0  0  0  0  0  0  0
  146.3655   72.4610  218.8749 H   0  0  0  0  0  0  0  0  0  0  0  0
  146.3846   71.1754  220.0692 H   0  0  0  0  0  0  0  0  0  0  0  0
  144.4280   71.3441  218.2570 H   0  0  0  0  0  0  0  0  0  0  0  0
  144.4512   69.6620  220.0344 H   0  0  0  0  0  0  0  0  0  0  0  0
  143.8100   70.8960  221.1959 H   0  0  0  0  0  0  0  0  0  0  0  0
  142.2790   70.7700  218.9420 H   0  0  0  0  0  0  0  0  0  0  0  0
  139.2205   70.4036  222.0374 H   0  0  0  0  0  0  0  0  0  0  0  0
  139.0042   68.5475  223.6565 H   0  0  0  0  0  0  0  0  0  0  0  0
  139.4122   67.7568  225.8922 H   0  0  0  0  0  0  0  0  0  0  0  0
  140.2826   68.0613  228.1968 H   0  0  0  0  0  0  0  0  0  0  0  0
  141.3554   70.2656  228.7603 H   0  0  0  0  0  0  0  0  0  0  0  0
  141.5221   72.0552  227.0700 H   0  0  0  0  0  0  0  0  0  0  0  0
  1  2  2  0
  2  3  1  0
  3  4  1  0
  4  5  1  0
  5  6  2  0
  5  7  1  0
  7  8  1  0
  8  9  1  0
  9 10  1  0
  9 11  1  0
 11 12  1  0
 12 13  1  0
 13 14  1  0
  2 15  1  0
 15 16  2  0
 16 17  1  0
 17 18  2  0
 18 19  1  0
 19 20  2  0
 20 21  1  0
 21 22  2  0
 22 23  1  0
 23 24  2  0
 12  7  1  0
 24 15  1  0
 23 18  1  0
  3 25  1  0
  4 26  1  0
  4 27  1  0
  8 28  1  0
  8 29  1  0
  9 30  1  1
 10 31  1  0
 11 32  1  0
 11 33  1  0
 12 34  1  6
 13 35  1  0
 13 36  1  0
 14 37  1  0
 16 38  1  0
 17 39  1  0
 19 40  1  0
 20 41  1  0
 21 42  1  0
 22 43  1  0
M  END
>  <smiles>  (50) 
O=C(NCC(=O)N1C[C@H](O)C[C@H]1CO)c1ccc2ccccc2n1

>  <score_type>  (50) 
oracle

>  <origin>  (50) 
autodockgpu

>  <m_score__min__energy>  (50) 
-7.0099999999999998

>  <m_primary>  (50) 
energy

>  <rmsd>  (50) 
4.3177680869024195

>  <m_score__min__rmsd>  (50) 
4.3177680869024195

>  <meeko>  (50) 
{"free_energy": -5.98, "intermolecular_energy": -8.07, "internal_energy": -2.33, "cluster_size": 4, "cluster_id": 4, "rank_in_cluster": 3}

>  <energy>  (50) 
-5.7

>  <cluster_rmsd>  (50) 
0.51

>  <cluster>  (50) 
7

$$$$
