
     RDKit          3D

 52 56  0  0  0  0  0  0  0  0999 V2000
  139.8820   72.3900  220.7900 O   0  0  0  0  0  0  0  0  0  0  0  0
  139.7710   72.8220  221.9720 C   0  0  0  0  0  0  0  0  0  0  0  0
  139.5290   74.2060  222.2590 N   0  0  0  0  0  0  0  0  0  0  0  0
  139.3960   75.1960  221.2070 C   0  0  0  0  0  0  0  0  0  0  0  0
  140.4330   76.2240  221.4140 C   0  0  0  0  0  0  0  0  0  0  0  0
  140.6210   76.6220  222.6080 O   0  0  0  0  0  0  0  0  0  0  0  0
  141.1790   76.7380  220.3180 N   0  0  0  0  0  0  0  0  0  0  0  0
  140.6670   77.6740  219.3220 C   0  0  0  0  0  0  0  0  0  0  0  0
  141.6780   77.6930  218.2170 C   0  0  0  0  0  0  0  0  0  0  0  0
  142.9670   77.1440  218.8300 C   0  0  0  0  0  0  0  0  0  0  0  0
  142.5450   76.3950  220.0500 C   0  0  2  0  0  0  0  0  0  0  0  0
  142.7750   74.9490  219.9690 C   0  0  0  0  0  0  0  0  0  0  0  0
  141.7870   74.0140  219.6510 C   0  0  0  0  0  0  0  0  0  0  0  0
  142.3230   72.8060  219.6630 N   0  0  0  0  0  0  0  0  0  0  0  0
  143.6220   72.8570  219.9700 C   0  0  0  0  0  0  0  0  0  0  0  0
  144.6230   71.9170  220.1150 C   0  0  0  0  0  0  0  0  0  0  0  0
  145.9050   72.2840  220.4480 C   0  0  0  0  0  0  0  0  0  0  0  0
  146.1980   73.6310  220.6420 C   0  0  0  0  0  0  0  0  0  0  0  0
  145.1800   74.5590  220.4920 C   0  0  0  0  0  0  0  0  0  0  0  0
  143.9100   74.1920  220.1620 C   0  0  0  0  0  0  0  0  0  0  0  0
  139.8930   71.8840  223.0910 C   0  0  0  0  0  0  0  0  0  0  0  0
  139.5150   70.5670  222.9350 C   0  0  0  0  0  0  0  0  0  0  0  0
  139.6080   69.6460  223.9540 C   0  0  0  0  0  0  0  0  0  0  0  0
  140.0990   70.0450  225.1850 C   0  0  0  0  0  0  0  0  0  0  0  0
  140.1960   69.1310  226.2040 C   0  0  0  0  0  0  0  0  0  0  0  0
  140.6880   69.5450  227.4290 C   0  0  0  0  0  0  0  0  0  0  0  0
  140.7910   68.3470  228.6960 Cl  0  0  0  0  0  0  0  0  0  0  0  0
  141.0650   70.8460  227.5930 C   0  0  0  0  0  0  0  0  0  0  0  0
  140.9630   71.7570  226.5600 C   0  0  0  0  0  0  0  0  0  0  0  0
  140.4720   71.3700  225.3190 C   0  0  0  0  0  0  0  0  0  0  0  0
  140.3670   72.2480  224.2970 N   0  0  0  0  0  0  0  0  0  0  0  0
  139.4510   74.4730  223.2810 H   0  0  0  0  0  0  0  0  0  0  0  0
  139.5344   74.7186  220.2257 H   0  0  0  0  0  0  0  0  0  0  0  0
  138.3953   75.6518  221.2359 H   0  0  0  0  0  0  0  0  0  0  0  0
  139.6922   77.3335  218.9427 H   0  0  0  0  0  0  0  0  0  0  0  0
  140.5178   78.6765  219.7496 H   0  0  0  0  0  0  0  0  0  0  0  0
  141.3476   77.0561  217.3832 H   0  0  0  0  0  0  0  0  0  0  0  0
  141.8191   78.7058  217.8115 H   0  0  0  0  0  0  0  0  0  0  0  0
  143.4724   76.4708  218.1219 H   0  0  0  0  0  0  0  0  0  0  0  0
  143.6770   77.9485  219.0720 H   0  0  0  0  0  0  0  0  0  0  0  0
  143.1787   76.6975  220.8967 H   0  0  0  0  0  0  0  0  0  0  0  0
  140.7351   74.2453  219.4273 H   0  0  0  0  0  0  0  0  0  0  0  0
  141.7980   71.9170  219.4570 H   0  0  0  0  0  0  0  0  0  0  0  0
  144.3897   70.8531  219.9609 H   0  0  0  0  0  0  0  0  0  0  0  0
  146.6905   71.5221  220.5599 H   0  0  0  0  0  0  0  0  0  0  0  0
  147.2158   73.9518  220.9086 H   0  0  0  0  0  0  0  0  0  0  0  0
  145.4041   75.6251  220.6441 H   0  0  0  0  0  0  0  0  0  0  0  0
  139.1246   70.2402  221.9599 H   0  0  0  0  0  0  0  0  0  0  0  0
  139.2954   68.6039  223.7916 H   0  0  0  0  0  0  0  0  0  0  0  0
  139.8877   68.0865  226.0494 H   0  0  0  0  0  0  0  0  0  0  0  0
  141.4576   71.1755  228.5663 H   0  0  0  0  0  0  0  0  0  0  0  0
  141.2737   72.7998  226.7213 H   0  0  0  0  0  0  0  0  0  0  0  0
  1  2  2  0
  2  3  1  0
  3  4  1  0
  4  5  1  0
  5  6  2  0
  5  7  1  0
  7  8  1  0
  8  9  1  0
  9 10  1  0
 10 11  1  0
 11 12  1  0
 12 13  2  0
 13 14  1  0
 14 15  1  0
 15 16  2  0
 16 17  1  0
 17 18  2  0
 18 19  1  0
 19 20  2  0
  2 21  1  0
 21 22  2  0
 22 23  1  0
 23 24  2  0
 24 25  1  0
 25 26  2  0
 26 27  1  0
 26 28  1  0
 28 29  2  0
 29 30  1  0
 30 31  2  0
 11  7  1  0
 20 12  1  0
 31 21  1  0
 20 15  1  0
 30 24  1  0
  3 32  1  0
  4 33  1  0
  4 34  1  0
  8 35  1  0
  8 36  1  0
  9 37  1  0
  9 38  1  0
 10 39  1  0
 10 40  1  0
 11 41  1  1
 13 42  1  0
 14 43  1  0
 16 44  1  0
 17 45  1  0
 18 46  1  0
 19 47  1  0
 22 48  1  0
 23 49  1  0
 25 50  1  0
 28 51  1  0
 29 52  1  0
M  END
>  <smiles>  (1) 
O=C(NCC(=O)N1CCC[C@@H]1c1c[nH]c2ccccc12)c1ccc2cc(Cl)ccc2n1

>  <score_type>  (1) 
oracle

>  <origin>  (1) 
autodockgpu

>  <m_score__min__energy>  (1) 
-9.6999999999999993

>  <m_primary>  (1) 
energy

>  <rmsd>  (1) 
1.9817665102512003

>  <m_score__min__rmsd>  (1) 
1.9817665102512003

>  <meeko>  (1) 
{"free_energy": -8.95, "intermolecular_energy": -10.44, "internal_energy": -2.26, "cluster_size": 11, "cluster_id": 3, "rank_in_cluster": 4}

>  <energy>  (1) 
-9.7

>  <cluster_rmsd>  (1) 
0.0

>  <cluster>  (1) 
1

$$$$

     RDKit          3D

 52 56  0  0  0  0  0  0  0  0999 V2000
  139.5430   72.0580  220.8370 O   0  0  0  0  0  0  0  0  0  0  0  0
  139.6050   72.5250  222.0100 C   0  0  0  0  0  0  0  0  0  0  0  0
  139.5140   73.9300  222.2770 N   0  0  0  0  0  0  0  0  0  0  0  0
  139.3430   74.9040  221.2150 C   0  0  0  0  0  0  0  0  0  0  0  0
  140.2190   76.0550  221.5060 C   0  0  0  0  0  0  0  0  0  0  0  0
  140.1950   76.5110  222.6940 O   0  0  0  0  0  0  0  0  0  0  0  0
  141.0440   76.6170  220.4940 N   0  0  0  0  0  0  0  0  0  0  0  0
  142.3080   76.0510  220.0350 C   0  0  0  0  0  0  0  0  0  0  0  0
  142.9580   77.1140  219.2030 C   0  0  0  0  0  0  0  0  0  0  0  0
  141.8330   78.0720  218.8100 C   0  0  0  0  0  0  0  0  0  0  0  0
  140.7340   77.8270  219.7900 C   0  0  2  0  0  0  0  0  0  0  0  0
  140.4650   78.9630  220.6780 C   0  0  0  0  0  0  0  0  0  0  0  0
  139.3250   79.7650  220.6020 C   0  0  0  0  0  0  0  0  0  0  0  0
  139.3920   80.6930  221.5420 N   0  0  0  0  0  0  0  0  0  0  0  0
  140.5130   80.5730  222.2590 C   0  0  0  0  0  0  0  0  0  0  0  0
  141.0610   81.2590  223.3250 C   0  0  0  0  0  0  0  0  0  0  0  0
  142.2690   80.8890  223.8660 C   0  0  0  0  0  0  0  0  0  0  0  0
  142.9510   79.8010  223.3290 C   0  0  0  0  0  0  0  0  0  0  0  0
  142.3840   79.1260  222.2600 C   0  0  0  0  0  0  0  0  0  0  0  0
  141.1860   79.4940  221.7260 C   0  0  0  0  0  0  0  0  0  0  0  0
  139.7760   71.6060  223.1380 C   0  0  0  0  0  0  0  0  0  0  0  0
  139.4230   70.2790  223.0100 C   0  0  0  0  0  0  0  0  0  0  0  0
  139.5630   69.3740  224.0390 C   0  0  0  0  0  0  0  0  0  0  0  0
  140.0750   69.8010  225.2510 C   0  0  0  0  0  0  0  0  0  0  0  0
  140.2180   68.9050  226.2800 C   0  0  0  0  0  0  0  0  0  0  0  0
  140.7310   69.3470  227.4860 C   0  0  0  0  0  0  0  0  0  0  0  0
  140.8930   68.1690  228.7660 Cl  0  0  0  0  0  0  0  0  0  0  0  0
  141.0830   70.6570  227.6230 C   0  0  0  0  0  0  0  0  0  0  0  0
  140.9350   71.5520  226.5800 C   0  0  0  0  0  0  0  0  0  0  0  0
  140.4220   71.1360  225.3580 C   0  0  0  0  0  0  0  0  0  0  0  0
  140.2720   71.9970  224.3270 N   0  0  0  0  0  0  0  0  0  0  0  0
  139.5760   74.2260  223.2920 H   0  0  0  0  0  0  0  0  0  0  0  0
  139.6228   74.4567  220.2498 H   0  0  0  0  0  0  0  0  0  0  0  0
  138.2932   75.2276  221.1589 H   0  0  0  0  0  0  0  0  0  0  0  0
  142.9459   75.7940  220.8935 H   0  0  0  0  0  0  0  0  0  0  0  0
  142.1504   75.1277  219.4582 H   0  0  0  0  0  0  0  0  0  0  0  0
  143.7263   77.6424  219.7865 H   0  0  0  0  0  0  0  0  0  0  0  0
  143.4598   76.6907  218.3204 H   0  0  0  0  0  0  0  0  0  0  0  0
  142.1776   79.1147  218.8727 H   0  0  0  0  0  0  0  0  0  0  0  0
  141.4995   77.9043  217.7753 H   0  0  0  0  0  0  0  0  0  0  0  0
  139.7846   77.7101  219.2469 H   0  0  0  0  0  0  0  0  0  0  0  0
  138.5051   79.6448  219.8786 H   0  0  0  0  0  0  0  0  0  0  0  0
  138.6590   81.4310  221.7070 H   0  0  0  0  0  0  0  0  0  0  0  0
  140.5203   82.1179  223.7492 H   0  0  0  0  0  0  0  0  0  0  0  0
  142.6923   81.4468  224.7143 H   0  0  0  0  0  0  0  0  0  0  0  0
  143.9190   79.4839  223.7442 H   0  0  0  0  0  0  0  0  0  0  0  0
  142.9179   78.2662  221.8291 H   0  0  0  0  0  0  0  0  0  0  0  0
  139.0143   69.9302  222.0502 H   0  0  0  0  0  0  0  0  0  0  0  0
  139.2708   68.3229  223.8984 H   0  0  0  0  0  0  0  0  0  0  0  0
  139.9293   67.8518  226.1480 H   0  0  0  0  0  0  0  0  0  0  0  0
  141.4925   71.0083  228.5816 H   0  0  0  0  0  0  0  0  0  0  0  0
  141.2262   72.6036  226.7190 H   0  0  0  0  0  0  0  0  0  0  0  0
  1  2  2  0
  2  3  1  0
  3  4  1  0
  4  5  1  0
  5  6  2  0
  5  7  1  0
  7  8  1  0
  8  9  1  0
  9 10  1  0
 10 11  1  0
 11 12  1  0
 12 13  2  0
 13 14  1  0
 14 15  1  0
 15 16  2  0
 16 17  1  0
 17 18  2  0
 18 19  1  0
 19 20  2  0
  2 21  1  0
 21 22  2  0
 22 23  1  0
 23 24  2  0
 24 25  1  0
 25 26  2  0
 26 27  1  0
 26 28  1  0
 28 29  2  0
 29 30  1  0
 30 31  2  0
 11  7  1  0
 20 12  1  0
 31 21  1  0
 20 15  1  0
 30 24  1  0
  3 32  1  0
  4 33  1  0
  4 34  1  0
  8 35  1  0
  8 36  1  0
  9 37  1  0
  9 38  1  0
 10 39  1  0
 10 40  1  0
 11 41  1  6
 13 42  1  0
 14 43  1  0
 16 44  1  0
 17 45  1  0
 18 46  1  0
 19 47  1  0
 22 48  1  0
 23 49  1  0
 25 50  1  0
 28 51  1  0
 29 52  1  0
M  END
>  <smiles>  (2) 
O=C(NCC(=O)N1CCC[C@@H]1c1c[nH]c2ccccc12)c1ccc2cc(Cl)ccc2n1

>  <score_type>  (2) 
oracle

>  <origin>  (2) 
autodockgpu

>  <m_score__min__energy>  (2) 
-9.6999999999999993

>  <m_primary>  (2) 
energy

>  <rmsd>  (2) 
1.9845623533274583

>  <m_score__min__rmsd>  (2) 
1.9845623533274583

>  <meeko>  (2) 
{"free_energy": -9.23, "intermolecular_energy": -10.72, "internal_energy": -2.0, "cluster_size": 23, "cluster_id": 2, "rank_in_cluster": 10}

>  <energy>  (2) 
-9.57

>  <cluster_rmsd>  (2) 
0.21

>  <cluster>  (2) 
1

$$$$

     RDKit          3D

 52 56  0  0  0  0  0  0  0  0999 V2000
  142.1160   80.5970  220.1630 O   0  0  0  0  0  0  0  0  0  0  0  0
  141.4210   79.7050  219.6000 C   0  0  0  0  0  0  0  0  0  0  0  0
  140.0040   79.8380  219.4280 N   0  0  0  0  0  0  0  0  0  0  0  0
  139.2810   81.0070  219.8900 C   0  0  0  0  0  0  0  0  0  0  0  0
  138.0240   80.5510  220.5130 C   0  0  0  0  0  0  0  0  0  0  0  0
  137.1480   80.0440  219.7400 O   0  0  0  0  0  0  0  0  0  0  0  0
  137.8150   80.6790  221.9130 N   0  0  0  0  0  0  0  0  0  0  0  0
  137.2320   81.8440  222.5700 C   0  0  0  0  0  0  0  0  0  0  0  0
  137.4860   81.6620  224.0340 C   0  0  0  0  0  0  0  0  0  0  0  0
  137.7750   80.1720  224.2190 C   0  0  0  0  0  0  0  0  0  0  0  0
  138.1580   79.6660  222.8680 C   0  0  2  0  0  0  0  0  0  0  0  0
  139.5530   79.2250  222.7720 C   0  0  0  0  0  0  0  0  0  0  0  0
  139.9520   77.9870  222.2620 C   0  0  0  0  0  0  0  0  0  0  0  0
  141.2700   77.9080  222.3160 N   0  0  0  0  0  0  0  0  0  0  0  0
  141.8000   79.0210  222.8320 C   0  0  0  0  0  0  0  0  0  0  0  0
  143.0850   79.4490  223.1020 C   0  0  0  0  0  0  0  0  0  0  0  0
  143.3240   80.6850  223.6530 C   0  0  0  0  0  0  0  0  0  0  0  0
  142.2490   81.5200  223.9420 C   0  0  0  0  0  0  0  0  0  0  0  0
  140.9680   81.0730  223.6630 C   0  0  0  0  0  0  0  0  0  0  0  0
  140.7340   79.8470  223.1170 C   0  0  0  0  0  0  0  0  0  0  0  0
  142.0770   78.4920  219.1050 C   0  0  0  0  0  0  0  0  0  0  0  0
  142.4450   78.3960  217.7790 C   0  0  0  0  0  0  0  0  0  0  0  0
  143.0630   77.2790  217.2630 C   0  0  0  0  0  0  0  0  0  0  0  0
  143.3310   76.2080  218.0960 C   0  0  0  0  0  0  0  0  0  0  0  0
  143.9480   75.0920  217.5890 C   0  0  0  0  0  0  0  0  0  0  0  0
  144.2090   74.0280  218.4340 C   0  0  0  0  0  0  0  0  0  0  0  0
  144.9940   72.6310  217.7410 Cl  0  0  0  0  0  0  0  0  0  0  0  0
  143.8490   74.1140  219.7470 C   0  0  0  0  0  0  0  0  0  0  0  0
  143.2280   75.2420  220.2480 C   0  0  0  0  0  0  0  0  0  0  0  0
  142.9540   76.3260  219.4220 C   0  0  0  0  0  0  0  0  0  0  0  0
  142.3480   77.4370  219.8950 N   0  0  0  0  0  0  0  0  0  0  0  0
  139.5070   79.0370  218.9450 H   0  0  0  0  0  0  0  0  0  0  0  0
  139.8869   81.5525  220.6285 H   0  0  0  0  0  0  0  0  0  0  0  0
  139.0665   81.6805  219.0472 H   0  0  0  0  0  0  0  0  0  0  0  0
  137.7124   82.7659  222.2104 H   0  0  0  0  0  0  0  0  0  0  0  0
  136.1567   81.9316  222.3554 H   0  0  0  0  0  0  0  0  0  0  0  0
  138.3508   82.2632  224.3513 H   0  0  0  0  0  0  0  0  0  0  0  0
  136.6278   81.9884  224.6397 H   0  0  0  0  0  0  0  0  0  0  0  0
  138.6003   80.0266  224.9315 H   0  0  0  0  0  0  0  0  0  0  0  0
  136.9034   79.6356  224.6222 H   0  0  0  0  0  0  0  0  0  0  0  0
  137.5950   78.7457  222.6535 H   0  0  0  0  0  0  0  0  0  0  0  0
  139.2792   77.2059  221.8783 H   0  0  0  0  0  0  0  0  0  0  0  0
  141.8330   77.0780  221.9940 H   0  0  0  0  0  0  0  0  0  0  0  0
  143.9334   78.7879  222.8716 H   0  0  0  0  0  0  0  0  0  0  0  0
  144.3535   81.0106  223.8632 H   0  0  0  0  0  0  0  0  0  0  0  0
  142.4131   82.5143  224.3829 H   0  0  0  0  0  0  0  0  0  0  0  0
  140.1136   81.7279  223.8892 H   0  0  0  0  0  0  0  0  0  0  0  0
  142.2370   79.2433  217.1090 H   0  0  0  0  0  0  0  0  0  0  0  0
  143.3407   77.2389  216.1994 H   0  0  0  0  0  0  0  0  0  0  0  0
  144.2307   75.0441  216.5270 H   0  0  0  0  0  0  0  0  0  0  0  0
  144.0571   73.2690  220.4198 H   0  0  0  0  0  0  0  0  0  0  0  0
  142.9477   75.2827  221.3109 H   0  0  0  0  0  0  0  0  0  0  0  0
  1  2  2  0
  2  3  1  0
  3  4  1  0
  4  5  1  0
  5  6  2  0
  5  7  1  0
  7  8  1  0
  8  9  1  0
  9 10  1  0
 10 11  1  0
 11 12  1  0
 12 13  2  0
 13 14  1  0
 14 15  1  0
 15 16  2  0
 16 17  1  0
 17 18  2  0
 18 19  1  0
 19 20  2  0
  2 21  1  0
 21 22  2  0
 22 23  1  0
 23 24  2  0
 24 25  1  0
 25 26  2  0
 26 27  1  0
 26 28  1  0
 28 29  2  0
 29 30  1  0
 30 31  2  0
 11  7  1  0
 20 12  1  0
 31 21  1  0
 20 15  1  0
 30 24  1  0
  3 32  1  0
  4 33  1  0
  4 34  1  0
  8 35  1  0
  8 36  1  0
  9 37  1  0
  9 38  1  0
 10 39  1  0
 10 40  1  0
 11 41  1  6
 13 42  1  0
 14 43  1  0
 16 44  1  0
 17 45  1  0
 18 46  1  0
 19 47  1  0
 22 48  1  0
 23 49  1  0
 25 50  1  0
 28 51  1  0
 29 52  1  0
M  END
>  <smiles>  (3) 
O=C(NCC(=O)N1CCC[C@@H]1c1c[nH]c2ccccc12)c1ccc2cc(Cl)ccc2n1

>  <score_type>  (3) 
oracle

>  <origin>  (3) 
autodockgpu

>  <m_score__min__energy>  (3) 
-9.6999999999999993

>  <m_primary>  (3) 
energy

>  <rmsd>  (3) 
9.007530129542193

>  <m_score__min__rmsd>  (3) 
9.007530129542193

>  <meeko>  (3) 
{"free_energy": -7.06, "intermolecular_energy": -8.56, "internal_energy": -3.21, "cluster_size": 4, "cluster_id": 6, "rank_in_cluster": 4}

>  <energy>  (3) 
-9.09

>  <cluster_rmsd>  (3) 
0.55

>  <cluster>  (3) 
1

$$$$

     RDKit          3D

 52 56  0  0  0  0  0  0  0  0999 V2000
  133.6230   69.9740  226.6080 O   0  0  0  0  0  0  0  0  0  0  0  0
  134.0270   71.0930  226.1830 C   0  0  0  0  0  0  0  0  0  0  0  0
  135.1400   71.2110  225.2860 N   0  0  0  0  0  0  0  0  0  0  0  0
  135.8690   70.0510  224.8100 C   0  0  0  0  0  0  0  0  0  0  0  0
  136.4730   70.3930  223.5090 C   0  0  0  0  0  0  0  0  0  0  0  0
  136.1550   71.5170  223.0030 O   0  0  0  0  0  0  0  0  0  0  0  0
  137.3690   69.4970  222.8630 N   0  0  0  0  0  0  0  0  0  0  0  0
  136.9900   68.5240  221.8450 C   0  0  0  0  0  0  0  0  0  0  0  0
  138.1710   67.6180  221.6810 C   0  0  0  0  0  0  0  0  0  0  0  0
  139.3620   68.3870  222.2530 C   0  0  0  0  0  0  0  0  0  0  0  0
  138.7750   69.4370  223.1370 C   0  0  2  0  0  0  0  0  0  0  0  0
  139.0830   69.2580  224.5590 C   0  0  0  0  0  0  0  0  0  0  0  0
  138.6970   68.1450  225.3110 C   0  0  0  0  0  0  0  0  0  0  0  0
  139.1310   68.2960  226.5500 N   0  0  0  0  0  0  0  0  0  0  0  0
  139.7940   69.4470  226.6920 C   0  0  0  0  0  0  0  0  0  0  0  0
  140.4330   70.0750  227.7430 C   0  0  0  0  0  0  0  0  0  0  0  0
  141.0450   71.2950  227.5800 C   0  0  0  0  0  0  0  0  0  0  0  0
  141.0190   71.9070  226.3300 C   0  0  0  0  0  0  0  0  0  0  0  0
  140.3740   71.2600  225.2890 C   0  0  0  0  0  0  0  0  0  0  0  0
  139.7680   70.0510  225.4530 C   0  0  0  0  0  0  0  0  0  0  0  0
  133.3430   72.3140  226.6170 C   0  0  0  0  0  0  0  0  0  0  0  0
  132.1140   72.2350  227.2370 C   0  0  0  0  0  0  0  0  0  0  0  0
  131.4290   73.3510  227.6630 C   0  0  0  0  0  0  0  0  0  0  0  0
  131.9850   74.6030  227.4680 C   0  0  0  0  0  0  0  0  0  0  0  0
  131.3080   75.7190  227.8910 C   0  0  0  0  0  0  0  0  0  0  0  0
  131.8760   76.9630  227.6880 C   0  0  0  0  0  0  0  0  0  0  0  0
  130.9760   78.3540  228.2430 Cl  0  0  0  0  0  0  0  0  0  0  0  0
  133.0920   77.0520  227.0760 C   0  0  0  0  0  0  0  0  0  0  0  0
  133.7650   75.9220  226.6530 C   0  0  0  0  0  0  0  0  0  0  0  0
  133.2180   74.6580  226.8440 C   0  0  0  0  0  0  0  0  0  0  0  0
  133.8630   73.5420  226.4380 N   0  0  0  0  0  0  0  0  0  0  0  0
  135.4050   72.1910  224.9850 H   0  0  0  0  0  0  0  0  0  0  0  0
  136.6578   69.7852  225.5291 H   0  0  0  0  0  0  0  0  0  0  0  0
  135.1905   69.1920  224.7016 H   0  0  0  0  0  0  0  0  0  0  0  0
  136.1106   67.9503  222.1730 H   0  0  0  0  0  0  0  0  0  0  0  0
  136.7238   69.0149  220.8973 H   0  0  0  0  0  0  0  0  0  0  0  0
  138.0163   66.6812  222.2364 H   0  0  0  0  0  0  0  0  0  0  0  0
  138.3311   67.3448  220.6276 H   0  0  0  0  0  0  0  0  0  0  0  0
  140.0101   67.7144  222.8340 H   0  0  0  0  0  0  0  0  0  0  0  0
  139.9833   68.8251  221.4580 H   0  0  0  0  0  0  0  0  0  0  0  0
  139.2416   70.4060  222.9061 H   0  0  0  0  0  0  0  0  0  0  0  0
  138.1256   67.2843  224.9334 H   0  0  0  0  0  0  0  0  0  0  0  0
  138.9780   67.6010  227.3260 H   0  0  0  0  0  0  0  0  0  0  0  0
  140.4526   69.5894  228.7298 H   0  0  0  0  0  0  0  0  0  0  0  0
  141.5495   71.7820  228.4275 H   0  0  0  0  0  0  0  0  0  0  0  0
  141.5004   72.8834  226.1724 H   0  0  0  0  0  0  0  0  0  0  0  0
  140.3503   71.7376  224.2984 H   0  0  0  0  0  0  0  0  0  0  0  0
  131.6642   71.2440  227.3972 H   0  0  0  0  0  0  0  0  0  0  0  0
  130.4497   73.2482  228.1533 H   0  0  0  0  0  0  0  0  0  0  0  0
  130.3290   75.6254  228.3838 H   0  0  0  0  0  0  0  0  0  0  0  0
  133.5450   78.0416  226.9164 H   0  0  0  0  0  0  0  0  0  0  0  0
  134.7432   76.0233  226.1602 H   0  0  0  0  0  0  0  0  0  0  0  0
  1  2  2  0
  2  3  1  0
  3  4  1  0
  4  5  1  0
  5  6  2  0
  5  7  1  0
  7  8  1  0
  8  9  1  0
  9 10  1  0
 10 11  1  0
 11 12  1  0
 12 13  2  0
 13 14  1  0
 14 15  1  0
 15 16  2  0
 16 17  1  0
 17 18  2  0
 18 19  1  0
 19 20  2  0
  2 21  1  0
 21 22  2  0
 22 23  1  0
 23 24  2  0
 24 25  1  0
 25 26  2  0
 26 27  1  0
 26 28  1  0
 28 29  2  0
 29 30  1  0
 30 31  2  0
 11  7  1  0
 20 12  1  0
 31 21  1  0
 20 15  1  0
 30 24  1  0
  3 32  1  0
  4 33  1  0
  4 34  1  0
  8 35  1  0
  8 36  1  0
  9 37  1  0
  9 38  1  0
 10 39  1  0
 10 40  1  0
 11 41  1  6
 13 42  1  0
 14 43  1  0
 16 44  1  0
 17 45  1  0
 18 46  1  0
 19 47  1  0
 22 48  1  0
 23 49  1  0
 25 50  1  0
 28 51  1  0
 29 52  1  0
M  END
>  <smiles>  (4) 
O=C(NCC(=O)N1CCC[C@@H]1c1c[nH]c2ccccc12)c1ccc2cc(Cl)ccc2n1

>  <score_type>  (4) 
oracle

>  <origin>  (4) 
autodockgpu

>  <m_score__min__energy>  (4) 
-9.6999999999999993

>  <m_primary>  (4) 
energy

>  <rmsd>  (4) 
8.550013501102454

>  <m_score__min__rmsd>  (4) 
8.550013501102454

>  <meeko>  (4) 
{"free_energy": -8.56, "intermolecular_energy": -10.05, "internal_energy": -2.16, "cluster_size": 10, "cluster_id": 1, "rank_in_cluster": 9}

>  <energy>  (4) 
-8.9

>  <cluster_rmsd>  (4) 
1.07

>  <cluster>  (4) 
1

$$$$

     RDKit          3D

 52 56  0  0  0  0  0  0  0  0999 V2000
  139.6940   71.9060  220.7420 O   0  0  0  0  0  0  0  0  0  0  0  0
  139.6880   72.3980  221.9060 C   0  0  0  0  0  0  0  0  0  0  0  0
  139.5700   73.8070  222.1370 N   0  0  0  0  0  0  0  0  0  0  0  0
  139.4490   74.7570  221.0480 C   0  0  0  0  0  0  0  0  0  0  0  0
  140.1580   75.9910  221.4360 C   0  0  0  0  0  0  0  0  0  0  0  0
  140.1190   76.3150  222.6660 O   0  0  0  0  0  0  0  0  0  0  0  0
  140.8470   76.7710  220.4680 N   0  0  0  0  0  0  0  0  0  0  0  0
  142.0510   76.3500  219.7570 C   0  0  0  0  0  0  0  0  0  0  0  0
  142.5830   77.5780  219.0860 C   0  0  0  0  0  0  0  0  0  0  0  0
  141.4100   78.5580  219.0300 C   0  0  0  0  0  0  0  0  0  0  0  0
  140.4430   78.0860  220.0650 C   0  0  2  0  0  0  0  0  0  0  0  0
  140.2750   79.0120  221.1890 C   0  0  0  0  0  0  0  0  0  0  0  0
  139.0430   79.5080  221.6200 C   0  0  0  0  0  0  0  0  0  0  0  0
  139.2430   80.3120  222.6490 N   0  0  0  0  0  0  0  0  0  0  0  0
  140.5410   80.3960  222.9520 C   0  0  0  0  0  0  0  0  0  0  0  0
  141.2740   81.0730  223.9060 C   0  0  0  0  0  0  0  0  0  0  0  0
  142.6420   80.9580  223.9710 C   0  0  0  0  0  0  0  0  0  0  0  0
  143.3000   80.1410  223.0550 C   0  0  0  0  0  0  0  0  0  0  0  0
  142.5470   79.4700  222.1060 C   0  0  0  0  0  0  0  0  0  0  0  0
  141.1910   79.5860  222.0440 C   0  0  0  0  0  0  0  0  0  0  0  0
  139.8060   71.5040  223.0610 C   0  0  0  0  0  0  0  0  0  0  0  0
  139.3780   70.1960  222.9710 C   0  0  0  0  0  0  0  0  0  0  0  0
  139.4660   69.3160  224.0260 C   0  0  0  0  0  0  0  0  0  0  0  0
  140.0020   69.7480  225.2260 C   0  0  0  0  0  0  0  0  0  0  0  0
  140.0930   68.8750  226.2810 C   0  0  0  0  0  0  0  0  0  0  0  0
  140.6310   69.3230  227.4750 C   0  0  0  0  0  0  0  0  0  0  0  0
  140.7250   68.1760  228.7880 Cl  0  0  0  0  0  0  0  0  0  0  0  0
  141.0570   70.6150  227.5740 C   0  0  0  0  0  0  0  0  0  0  0  0
  140.9610   71.4850  226.5050 C   0  0  0  0  0  0  0  0  0  0  0  0
  140.4250   71.0630  225.2940 C   0  0  0  0  0  0  0  0  0  0  0  0
  140.3230   71.9010  224.2380 N   0  0  0  0  0  0  0  0  0  0  0  0
  139.5750   74.1250  223.1480 H   0  0  0  0  0  0  0  0  0  0  0  0
  139.9003   74.3386  220.1362 H   0  0  0  0  0  0  0  0  0  0  0  0
  138.3894   74.9733  220.8467 H   0  0  0  0  0  0  0  0  0  0  0  0
  142.7921   75.9490  220.4640 H   0  0  0  0  0  0  0  0  0  0  0  0
  141.8324   75.5550  219.0289 H   0  0  0  0  0  0  0  0  0  0  0  0
  143.4125   78.0050  219.6688 H   0  0  0  0  0  0  0  0  0  0  0  0
  142.9754   77.3556  218.0827 H   0  0  0  0  0  0  0  0  0  0  0  0
  141.7508   79.5783  219.2597 H   0  0  0  0  0  0  0  0  0  0  0  0
  140.9530   78.5892  218.0299 H   0  0  0  0  0  0  0  0  0  0  0  0
  139.4350   78.0483  219.6263 H   0  0  0  0  0  0  0  0  0  0  0  0
  138.0657   79.2685  221.1755 H   0  0  0  0  0  0  0  0  0  0  0  0
  138.4800   80.8210  223.1680 H   0  0  0  0  0  0  0  0  0  0  0  0
  140.7525   81.7176  224.6289 H   0  0  0  0  0  0  0  0  0  0  0  0
  143.2106   81.5049  224.7376 H   0  0  0  0  0  0  0  0  0  0  0  0
  144.3941   80.0311  223.0846 H   0  0  0  0  0  0  0  0  0  0  0  0
  143.0600   78.8229  221.3793 H   0  0  0  0  0  0  0  0  0  0  0  0
  138.9505   69.8428  222.0210 H   0  0  0  0  0  0  0  0  0  0  0  0
  139.1137   68.2798  223.9160 H   0  0  0  0  0  0  0  0  0  0  0  0
  139.7443   67.8367  226.1794 H   0  0  0  0  0  0  0  0  0  0  0  0
  141.4850   70.9709  228.5227 H   0  0  0  0  0  0  0  0  0  0  0  0
  141.3122   72.5218  226.6134 H   0  0  0  0  0  0  0  0  0  0  0  0
  1  2  2  0
  2  3  1  0
  3  4  1  0
  4  5  1  0
  5  6  2  0
  5  7  1  0
  7  8  1  0
  8  9  1  0
  9 10  1  0
 10 11  1  0
 11 12  1  0
 12 13  2  0
 13 14  1  0
 14 15  1  0
 15 16  2  0
 16 17  1  0
 17 18  2  0
 18 19  1  0
 19 20  2  0
  2 21  1  0
 21 22  2  0
 22 23  1  0
 23 24  2  0
 24 25  1  0
 25 26  2  0
 26 27  1  0
 26 28  1  0
 28 29  2  0
 29 30  1  0
 30 31  2  0
 11  7  1  0
 20 12  1  0
 31 21  1  0
 20 15  1  0
 30 24  1  0
  3 32  1  0
  4 33  1  0
  4 34  1  0
  8 35  1  0
  8 36  1  0
  9 37  1  0
  9 38  1  0
 10 39  1  0
 10 40  1  0
 11 41  1  6
 13 42  1  0
 14 43  1  0
 16 44  1  0
 17 45  1  0
 18 46  1  0
 19 47  1  0
 22 48  1  0
 23 49  1  0
 25 50  1  0
 28 51  1  0
 29 52  1  0
M  END
>  <smiles>  (5) 
O=C(NCC(=O)N1CCC[C@@H]1c1c[nH]c2ccccc12)c1ccc2cc(Cl)ccc2n1

>  <score_type>  (5) 
oracle

>  <origin>  (5) 
autodockgpu

>  <m_score__min__energy>  (5) 
-9.6999999999999993

>  <m_primary>  (5) 
energy

>  <rmsd>  (5) 
1.9398497932726166

>  <m_score__min__rmsd>  (5) 
1.9398497932726166

>  <meeko>  (5) 
{"free_energy": -9.39, "intermolecular_energy": -10.88, "internal_energy": -2.05, "cluster_size": 23, "cluster_id": 2, "rank_in_cluster": 5}

>  <energy>  (5) 
-8.83

>  <cluster_rmsd>  (5) 
1.36

>  <cluster>  (5) 
1

$$$$

     RDKit          3D

 52 56  0  0  0  0  0  0  0  0999 V2000
  139.5750   71.8840  220.5050 O   0  0  0  0  0  0  0  0  0  0  0  0
  139.9130   72.3990  221.6080 C   0  0  0  0  0  0  0  0  0  0  0  0
  140.2870   73.7780  221.7220 N   0  0  0  0  0  0  0  0  0  0  0  0
  140.2990   74.6680  220.5770 C   0  0  0  0  0  0  0  0  0  0  0  0
  140.8970   75.9490  220.9990 C   0  0  0  0  0  0  0  0  0  0  0  0
  141.0490   76.1290  222.2500 O   0  0  0  0  0  0  0  0  0  0  0  0
  141.2810   76.9250  220.0400 N   0  0  0  0  0  0  0  0  0  0  0  0
  142.4670   76.8460  219.1930 C   0  0  0  0  0  0  0  0  0  0  0  0
  142.6260   78.2030  218.5800 C   0  0  0  0  0  0  0  0  0  0  0  0
  141.2590   78.8760  218.7090 C   0  0  0  0  0  0  0  0  0  0  0  0
  140.5420   78.1270  219.7840 C   0  0  2  0  0  0  0  0  0  0  0  0
  140.2850   78.9190  220.9900 C   0  0  0  0  0  0  0  0  0  0  0  0
  139.0100   79.1900  221.4930 C   0  0  0  0  0  0  0  0  0  0  0  0
  139.1300   79.9240  222.5860 N   0  0  0  0  0  0  0  0  0  0  0  0
  140.4130   80.1720  222.8630 C   0  0  0  0  0  0  0  0  0  0  0  0
  141.0750   80.8660  223.8560 C   0  0  0  0  0  0  0  0  0  0  0  0
  142.4460   80.9490  223.8770 C   0  0  0  0  0  0  0  0  0  0  0  0
  143.1810   80.3190  222.8760 C   0  0  0  0  0  0  0  0  0  0  0  0
  142.4980   79.6270  221.8890 C   0  0  0  0  0  0  0  0  0  0  0  0
  141.1390   79.5470  221.8710 C   0  0  0  0  0  0  0  0  0  0  0  0
  139.9260   71.5660  222.8130 C   0  0  0  0  0  0  0  0  0  0  0  0
  139.3500   70.3130  222.7950 C   0  0  0  0  0  0  0  0  0  0  0  0
  139.3350   69.4910  223.8990 C   0  0  0  0  0  0  0  0  0  0  0  0
  139.9160   69.9270  225.0770 C   0  0  0  0  0  0  0  0  0  0  0  0
  139.9050   69.1120  226.1800 C   0  0  0  0  0  0  0  0  0  0  0  0
  140.4900   69.5620  227.3510 C   0  0  0  0  0  0  0  0  0  0  0  0
  140.4500   68.4900  228.7290 Cl  0  0  0  0  0  0  0  0  0  0  0  0
  141.0630   70.8000  227.3790 C   0  0  0  0  0  0  0  0  0  0  0  0
  141.0690   71.6120  226.2610 C   0  0  0  0  0  0  0  0  0  0  0  0
  140.4880   71.1860  225.0720 C   0  0  0  0  0  0  0  0  0  0  0  0
  140.4850   71.9680  223.9690 N   0  0  0  0  0  0  0  0  0  0  0  0
  140.5560   74.1190  222.6890 H   0  0  0  0  0  0  0  0  0  0  0  0
  140.8978   74.2257  219.7671 H   0  0  0  0  0  0  0  0  0  0  0  0
  139.2752   74.8284  220.2080 H   0  0  0  0  0  0  0  0  0  0  0  0
  143.3514   76.5927  219.7960 H   0  0  0  0  0  0  0  0  0  0  0  0
  142.3627   76.0659  218.4245 H   0  0  0  0  0  0  0  0  0  0  0  0
  143.3908   78.7808  219.1197 H   0  0  0  0  0  0  0  0  0  0  0  0
  142.9509   78.1399  217.5310 H   0  0  0  0  0  0  0  0  0  0  0  0
  141.3764   79.9329  218.9903 H   0  0  0  0  0  0  0  0  0  0  0  0
  140.7042   78.8555  217.7594 H   0  0  0  0  0  0  0  0  0  0  0  0
  139.5292   77.8754  219.4361 H   0  0  0  0  0  0  0  0  0  0  0  0
  138.0619   78.8486  221.0519 H   0  0  0  0  0  0  0  0  0  0  0  0
  138.3210   80.2700  223.1660 H   0  0  0  0  0  0  0  0  0  0  0  0
  140.4929   81.3625  224.6463 H   0  0  0  0  0  0  0  0  0  0  0  0
  142.9574   81.5067  224.6754 H   0  0  0  0  0  0  0  0  0  0  0  0
  144.2798   80.3697  222.8691 H   0  0  0  0  0  0  0  0  0  0  0  0
  143.0717   79.1265  221.0950 H   0  0  0  0  0  0  0  0  0  0  0  0
  138.8852   69.9572  221.8636 H   0  0  0  0  0  0  0  0  0  0  0  0
  138.8659   68.4975  223.8455 H   0  0  0  0  0  0  0  0  0  0  0  0
  139.4388   68.1167  226.1348 H   0  0  0  0  0  0  0  0  0  0  0  0
  141.5288   71.1583  228.3089 H   0  0  0  0  0  0  0  0  0  0  0  0
  141.5382   72.6056  226.3123 H   0  0  0  0  0  0  0  0  0  0  0  0
  1  2  2  0
  2  3  1  0
  3  4  1  0
  4  5  1  0
  5  6  2  0
  5  7  1  0
  7  8  1  0
  8  9  1  0
  9 10  1  0
 10 11  1  0
 11 12  1  0
 12 13  2  0
 13 14  1  0
 14 15  1  0
 15 16  2  0
 16 17  1  0
 17 18  2  0
 18 19  1  0
 19 20  2  0
  2 21  1  0
 21 22  2  0
 22 23  1  0
 23 24  2  0
 24 25  1  0
 25 26  2  0
 26 27  1  0
 26 28  1  0
 28 29  2  0
 29 30  1  0
 30 31  2  0
 11  7  1  0
 20 12  1  0
 31 21  1  0
 20 15  1  0
 30 24  1  0
  3 32  1  0
  4 33  1  0
  4 34  1  0
  8 35  1  0
  8 36  1  0
  9 37  1  0
  9 38  1  0
 10 39  1  0
 10 40  1  0
 11 41  1  6
 13 42  1  0
 14 43  1  0
 16 44  1  0
 17 45  1  0
 18 46  1  0
 19 47  1  0
 22 48  1  0
 23 49  1  0
 25 50  1  0
 28 51  1  0
 29 52  1  0
M  END
>  <smiles>  (6) 
O=C(NCC(=O)N1CCC[C@@H]1c1c[nH]c2ccccc12)c1ccc2cc(Cl)ccc2n1

>  <score_type>  (6) 
oracle

>  <origin>  (6) 
autodockgpu

>  <m_score__min__energy>  (6) 
-9.6999999999999993

>  <m_primary>  (6) 
energy

>  <rmsd>  (6) 
2.1817356657598377

>  <m_score__min__rmsd>  (6) 
2.1817356657598377

>  <meeko>  (6) 
{"free_energy": -8.58, "intermolecular_energy": -10.07, "internal_energy": -2.28, "cluster_size": 23, "cluster_id": 2, "rank_in_cluster": 20}

>  <energy>  (6) 
-8.72

>  <cluster_rmsd>  (6) 
1.34

>  <cluster>  (6) 
1

$$$$

     RDKit          3D

 52 56  0  0  0  0  0  0  0  0999 V2000
  140.2150   72.3730  220.7540 O   0  0  0  0  0  0  0  0  0  0  0  0
  139.9920   72.8130  221.9180 C   0  0  0  0  0  0  0  0  0  0  0  0
  139.7120   74.1960  222.1700 N   0  0  0  0  0  0  0  0  0  0  0  0
  139.6650   75.1770  221.1020 C   0  0  0  0  0  0  0  0  0  0  0  0
  141.0520   75.4970  220.7150 C   0  0  0  0  0  0  0  0  0  0  0  0
  141.9700   74.7600  221.1980 O   0  0  0  0  0  0  0  0  0  0  0  0
  141.3330   76.5820  219.8410 N   0  0  0  0  0  0  0  0  0  0  0  0
  142.5220   76.6960  219.0030 C   0  0  0  0  0  0  0  0  0  0  0  0
  142.5380   78.1070  218.5000 C   0  0  0  0  0  0  0  0  0  0  0  0
  141.1070   78.6200  218.6680 C   0  0  0  0  0  0  0  0  0  0  0  0
  140.4710   77.7170  219.6720 C   0  0  2  0  0  0  0  0  0  0  0  0
  140.1290   78.3780  220.9350 C   0  0  0  0  0  0  0  0  0  0  0  0
  138.8550   78.3620  221.5090 C   0  0  0  0  0  0  0  0  0  0  0  0
  138.8870   79.0480  222.6380 N   0  0  0  0  0  0  0  0  0  0  0  0
  140.1090   79.5340  222.8730 C   0  0  0  0  0  0  0  0  0  0  0  0
  140.6740   80.2950  223.8770 C   0  0  0  0  0  0  0  0  0  0  0  0
  142.0010   80.6510  223.8420 C   0  0  0  0  0  0  0  0  0  0  0  0
  142.7900   80.2330  222.7740 C   0  0  0  0  0  0  0  0  0  0  0  0
  142.2040   79.4690  221.7770 C   0  0  0  0  0  0  0  0  0  0  0  0
  140.8890   79.1190  221.8140 C   0  0  0  0  0  0  0  0  0  0  0  0
  140.0210   71.8850  223.0510 C   0  0  0  0  0  0  0  0  0  0  0  0
  139.5500   70.5970  222.9040 C   0  0  0  0  0  0  0  0  0  0  0  0
  139.5540   69.6860  223.9360 C   0  0  0  0  0  0  0  0  0  0  0  0
  140.0460   70.0660  225.1720 C   0  0  0  0  0  0  0  0  0  0  0  0
  140.0540   69.1620  226.2050 C   0  0  0  0  0  0  0  0  0  0  0  0
  140.5490   69.5560  227.4350 C   0  0  0  0  0  0  0  0  0  0  0  0
  140.5370   68.3720  228.7190 Cl  0  0  0  0  0  0  0  0  0  0  0  0
  141.0170   70.8280  227.5910 C   0  0  0  0  0  0  0  0  0  0  0  0
  141.0050   71.7300  226.5450 C   0  0  0  0  0  0  0  0  0  0  0  0
  140.5130   71.3610  225.2980 C   0  0  0  0  0  0  0  0  0  0  0  0
  140.4950   72.2300  224.2630 N   0  0  0  0  0  0  0  0  0  0  0  0
  139.5390   74.4700  223.1790 H   0  0  0  0  0  0  0  0  0  0  0  0
  139.1227   74.7634  220.2390 H   0  0  0  0  0  0  0  0  0  0  0  0
  139.1436   76.0848  221.4399 H   0  0  0  0  0  0  0  0  0  0  0  0
  143.4270   76.4903  219.5934 H   0  0  0  0  0  0  0  0  0  0  0  0
  142.5022   75.9728  218.1744 H   0  0  0  0  0  0  0  0  0  0  0  0
  143.2366   78.7174  219.0911 H   0  0  0  0  0  0  0  0  0  0  0  0
  142.8696   78.1619  217.4526 H   0  0  0  0  0  0  0  0  0  0  0  0
  141.1117   79.6575  219.0335 H   0  0  0  0  0  0  0  0  0  0  0  0
  140.5594   78.6170  217.7140 H   0  0  0  0  0  0  0  0  0  0  0  0
  139.4914   77.3898  219.2934 H   0  0  0  0  0  0  0  0  0  0  0  0
  137.9703   77.8605  221.0897 H   0  0  0  0  0  0  0  0  0  0  0  0
  138.0600   79.1940  223.2720 H   0  0  0  0  0  0  0  0  0  0  0  0
  140.0498   80.6228  224.7214 H   0  0  0  0  0  0  0  0  0  0  0  0
  142.4349   81.2596  224.6491 H   0  0  0  0  0  0  0  0  0  0  0  0
  143.8551   80.5031  222.7225 H   0  0  0  0  0  0  0  0  0  0  0  0
  142.8207   79.1351  220.9295 H   0  0  0  0  0  0  0  0  0  0  0  0
  139.1563   70.2860  221.9251 H   0  0  0  0  0  0  0  0  0  0  0  0
  139.1702   68.6670  223.7797 H   0  0  0  0  0  0  0  0  0  0  0  0
  139.6729   68.1408  226.0570 H   0  0  0  0  0  0  0  0  0  0  0  0
  141.4116   71.1413  228.5688 H   0  0  0  0  0  0  0  0  0  0  0  0
  141.3881   72.7494  226.6999 H   0  0  0  0  0  0  0  0  0  0  0  0
  1  2  2  0
  2  3  1  0
  3  4  1  0
  4  5  1  0
  5  6  2  0
  5  7  1  0
  7  8  1  0
  8  9  1  0
  9 10  1  0
 10 11  1  0
 11 12  1  0
 12 13  2  0
 13 14  1  0
 14 15  1  0
 15 16  2  0
 16 17  1  0
 17 18  2  0
 18 19  1  0
 19 20  2  0
  2 21  1  0
 21 22  2  0
 22 23  1  0
 23 24  2  0
 24 25  1  0
 25 26  2  0
 26 27  1  0
 26 28  1  0
 28 29  2  0
 29 30  1  0
 30 31  2  0
 11  7  1  0
 20 12  1  0
 31 21  1  0
 20 15  1  0
 30 24  1  0
  3 32  1  0
  4 33  1  0
  4 34  1  0
  8 35  1  0
  8 36  1  0
  9 37  1  0
  9 38  1  0
 10 39  1  0
 10 40  1  0
 11 41  1  6
 13 42  1  0
 14 43  1  0
 16 44  1  0
 17 45  1  0
 18 46  1  0
 19 47  1  0
 22 48  1  0
 23 49  1  0
 25 50  1  0
 28 51  1  0
 29 52  1  0
M  END
>  <smiles>  (7) 
O=C(NCC(=O)N1CCC[C@@H]1c1c[nH]c2ccccc12)c1ccc2cc(Cl)ccc2n1

>  <score_type>  (7) 
oracle

>  <origin>  (7) 
autodockgpu

>  <m_score__min__energy>  (7) 
-9.6999999999999993

>  <m_primary>  (7) 
energy

>  <rmsd>  (7) 
2.1345324495630678

>  <m_score__min__rmsd>  (7) 
2.1345324495630678

>  <meeko>  (7) 
{"free_energy": -9.01, "intermolecular_energy": -10.5, "internal_energy": -1.54, "cluster_size": 23, "cluster_id": 2, "rank_in_cluster": 17}

>  <energy>  (7) 
-8.67

>  <cluster_rmsd>  (7) 
1.35

>  <cluster>  (7) 
1

$$$$

     RDKit          3D

 52 56  0  0  0  0  0  0  0  0999 V2000
  139.8360   72.5210  220.6560 O   0  0  0  0  0  0  0  0  0  0  0  0
  139.7400   72.9160  221.8530 C   0  0  0  0  0  0  0  0  0  0  0  0
  139.5190   74.2930  222.1860 N   0  0  0  0  0  0  0  0  0  0  0  0
  139.3920   75.3180  221.1680 C   0  0  0  0  0  0  0  0  0  0  0  0
  140.5320   76.2450  221.3070 C   0  0  0  0  0  0  0  0  0  0  0  0
  140.8850   76.5490  222.4910 O   0  0  0  0  0  0  0  0  0  0  0  0
  141.1930   76.7640  220.1610 N   0  0  0  0  0  0  0  0  0  0  0  0
  140.5970   77.6800  219.1930 C   0  0  0  0  0  0  0  0  0  0  0  0
  141.5330   77.7110  218.0250 C   0  0  0  0  0  0  0  0  0  0  0  0
  142.8710   77.1940  218.5560 C   0  0  0  0  0  0  0  0  0  0  0  0
  142.5460   76.4470  219.8060 C   0  0  2  0  0  0  0  0  0  0  0  0
  142.8010   75.0060  219.7220 C   0  0  0  0  0  0  0  0  0  0  0  0
  141.8620   74.0670  219.2890 C   0  0  0  0  0  0  0  0  0  0  0  0
  142.4090   72.8640  219.3320 N   0  0  0  0  0  0  0  0  0  0  0  0
  143.6710   72.9240  219.7670 C   0  0  0  0  0  0  0  0  0  0  0  0
  144.6640   71.9910  219.9930 C   0  0  0  0  0  0  0  0  0  0  0  0
  145.9020   72.3660  220.4590 C   0  0  0  0  0  0  0  0  0  0  0  0
  146.1570   73.7120  220.7070 C   0  0  0  0  0  0  0  0  0  0  0  0
  145.1470   74.6310  220.4730 C   0  0  0  0  0  0  0  0  0  0  0  0
  143.9220   74.2570  220.0120 C   0  0  0  0  0  0  0  0  0  0  0  0
  139.8570   71.9410  222.9400 C   0  0  0  0  0  0  0  0  0  0  0  0
  139.4740   70.6320  222.7400 C   0  0  0  0  0  0  0  0  0  0  0  0
  139.5630   69.6770  223.7280 C   0  0  0  0  0  0  0  0  0  0  0  0
  140.0540   70.0320  224.9710 C   0  0  0  0  0  0  0  0  0  0  0  0
  140.1460   69.0850  225.9600 C   0  0  0  0  0  0  0  0  0  0  0  0
  140.6380   69.4560  227.1980 C   0  0  0  0  0  0  0  0  0  0  0  0
  140.7350   68.2150  228.4240 Cl  0  0  0  0  0  0  0  0  0  0  0  0
  141.0200   70.7490  227.4060 C   0  0  0  0  0  0  0  0  0  0  0  0
  140.9230   71.6950  226.4040 C   0  0  0  0  0  0  0  0  0  0  0  0
  140.4320   71.3500  225.1500 C   0  0  0  0  0  0  0  0  0  0  0  0
  140.3310   72.2630  224.1580 N   0  0  0  0  0  0  0  0  0  0  0  0
  139.4530   74.5280  223.2170 H   0  0  0  0  0  0  0  0  0  0  0  0
  139.4064   74.8561  220.1698 H   0  0  0  0  0  0  0  0  0  0  0  0
  138.4426   75.8602  221.2890 H   0  0  0  0  0  0  0  0  0  0  0  0
  139.6074   77.3152  218.8804 H   0  0  0  0  0  0  0  0  0  0  0  0
  140.4539   78.6828  219.6218 H   0  0  0  0  0  0  0  0  0  0  0  0
  141.1627   77.0606  217.2189 H   0  0  0  0  0  0  0  0  0  0  0  0
  141.6258   78.7233  217.6046 H   0  0  0  0  0  0  0  0  0  0  0  0
  143.3431   76.5254  217.8211 H   0  0  0  0  0  0  0  0  0  0  0  0
  143.5781   78.0151  218.7452 H   0  0  0  0  0  0  0  0  0  0  0  0
  143.2278   76.7701  220.6065 H   0  0  0  0  0  0  0  0  0  0  0  0
  140.8351   74.2917  218.9651 H   0  0  0  0  0  0  0  0  0  0  0  0
  141.9180   71.9740  219.0580 H   0  0  0  0  0  0  0  0  0  0  0  0
  144.4606   70.9280  219.7965 H   0  0  0  0  0  0  0  0  0  0  0  0
  146.6824   71.6108  220.6340 H   0  0  0  0  0  0  0  0  0  0  0  0
  147.1387   74.0386  221.0805 H   0  0  0  0  0  0  0  0  0  0  0  0
  145.3411   75.6964  220.6658 H   0  0  0  0  0  0  0  0  0  0  0  0
  139.0827   70.3394  221.7545 H   0  0  0  0  0  0  0  0  0  0  0  0
  139.2467   68.6421  223.5305 H   0  0  0  0  0  0  0  0  0  0  0  0
  139.8334   68.0474  225.7710 H   0  0  0  0  0  0  0  0  0  0  0  0
  141.4127   71.0439  228.3903 H   0  0  0  0  0  0  0  0  0  0  0  0
  141.2372   72.7308  226.6002 H   0  0  0  0  0  0  0  0  0  0  0  0
  1  2  2  0
  2  3  1  0
  3  4  1  0
  4  5  1  0
  5  6  2  0
  5  7  1  0
  7  8  1  0
  8  9  1  0
  9 10  1  0
 10 11  1  0
 11 12  1  0
 12 13  2  0
 13 14  1  0
 14 15  1  0
 15 16  2  0
 16 17  1  0
 17 18  2  0
 18 19  1  0
 19 20  2  0
  2 21  1  0
 21 22  2  0
 22 23  1  0
 23 24  2  0
 24 25  1  0
 25 26  2  0
 26 27  1  0
 26 28  1  0
 28 29  2  0
 29 30  1  0
 30 31  2  0
 11  7  1  0
 20 12  1  0
 31 21  1  0
 20 15  1  0
 30 24  1  0
  3 32  1  0
  4 33  1  0
  4 34  1  0
  8 35  1  0
  8 36  1  0
  9 37  1  0
  9 38  1  0
 10 39  1  0
 10 40  1  0
 11 41  1  1
 13 42  1  0
 14 43  1  0
 16 44  1  0
 17 45  1  0
 18 46  1  0
 19 47  1  0
 22 48  1  0
 23 49  1  0
 25 50  1  0
 28 51  1  0
 29 52  1  0
M  END
>  <smiles>  (8) 
O=C(NCC(=O)N1CCC[C@@H]1c1c[nH]c2ccccc12)c1ccc2cc(Cl)ccc2n1

>  <score_type>  (8) 
oracle

>  <origin>  (8) 
autodockgpu

>  <m_score__min__energy>  (8) 
-9.6999999999999993

>  <m_primary>  (8) 
energy

>  <rmsd>  (8) 
1.983390363225093

>  <m_score__min__rmsd>  (8) 
1.983390363225093

>  <meeko>  (8) 
{"free_energy": -8.81, "intermolecular_energy": -10.3, "internal_energy": -2.2, "cluster_size": 11, "cluster_id": 3, "rank_in_cluster": 7}

>  <energy>  (8) 
-8.63

>  <cluster_rmsd>  (8) 
1.35

>  <cluster>  (8) 
1

$$$$

     RDKit          3D

 52 56  0  0  0  0  0  0  0  0999 V2000
  140.1200   72.3330  220.7200 O   0  0  0  0  0  0  0  0  0  0  0  0
  139.8950   72.7730  221.8840 C   0  0  0  0  0  0  0  0  0  0  0  0
  139.5700   74.1470  222.1290 N   0  0  0  0  0  0  0  0  0  0  0  0
  139.4760   75.1180  221.0560 C   0  0  0  0  0  0  0  0  0  0  0  0
  140.4980   76.1560  221.2870 C   0  0  0  0  0  0  0  0  0  0  0  0
  140.7060   76.5000  222.4950 O   0  0  0  0  0  0  0  0  0  0  0  0
  141.2080   76.7350  220.2010 N   0  0  0  0  0  0  0  0  0  0  0  0
  140.6520   77.6980  219.2550 C   0  0  0  0  0  0  0  0  0  0  0  0
  141.6400   77.7910  218.1340 C   0  0  0  0  0  0  0  0  0  0  0  0
  142.9550   77.2530  218.6990 C   0  0  0  0  0  0  0  0  0  0  0  0
  142.5770   76.4410  219.8930 C   0  0  2  0  0  0  0  0  0  0  0  0
  142.8440   75.0070  219.7470 C   0  0  0  0  0  0  0  0  0  0  0  0
  141.9270   74.0870  219.2340 C   0  0  0  0  0  0  0  0  0  0  0  0
  142.4800   72.8860  219.2380 N   0  0  0  0  0  0  0  0  0  0  0  0
  143.7240   72.9290  219.7230 C   0  0  0  0  0  0  0  0  0  0  0  0
  144.7140   71.9910  219.9390 C   0  0  0  0  0  0  0  0  0  0  0  0
  145.9310   72.3470  220.4700 C   0  0  0  0  0  0  0  0  0  0  0  0
  146.1680   73.6800  220.7930 C   0  0  0  0  0  0  0  0  0  0  0  0
  145.1630   74.6060  220.5670 C   0  0  0  0  0  0  0  0  0  0  0  0
  143.9570   74.2500  220.0420 C   0  0  0  0  0  0  0  0  0  0  0  0
  139.9700   71.8550  223.0230 C   0  0  0  0  0  0  0  0  0  0  0  0
  139.5370   70.5520  222.8910 C   0  0  0  0  0  0  0  0  0  0  0  0
  139.5850   69.6500  223.9300 C   0  0  0  0  0  0  0  0  0  0  0  0
  140.0850   70.0530  225.1560 C   0  0  0  0  0  0  0  0  0  0  0  0
  140.1360   69.1580  226.1950 C   0  0  0  0  0  0  0  0  0  0  0  0
  140.6380   69.5770  227.4140 C   0  0  0  0  0  0  0  0  0  0  0  0
  140.6820   68.4020  228.7060 Cl  0  0  0  0  0  0  0  0  0  0  0  0
  141.0690   70.8630  227.5540 C   0  0  0  0  0  0  0  0  0  0  0  0
  141.0130   71.7560  226.5010 C   0  0  0  0  0  0  0  0  0  0  0  0
  140.5140   71.3630  225.2650 C   0  0  0  0  0  0  0  0  0  0  0  0
  140.4520   72.2230  224.2240 N   0  0  0  0  0  0  0  0  0  0  0  0
  139.3990   74.4220  223.1380 H   0  0  0  0  0  0  0  0  0  0  0  0
  139.6573   74.6247  220.0897 H   0  0  0  0  0  0  0  0  0  0  0  0
  138.4727   75.5685  221.0363 H   0  0  0  0  0  0  0  0  0  0  0  0
  139.6794   77.3473  218.8794 H   0  0  0  0  0  0  0  0  0  0  0  0
  140.4847   78.6771  219.7275 H   0  0  0  0  0  0  0  0  0  0  0  0
  141.3106   77.1805  217.2803 H   0  0  0  0  0  0  0  0  0  0  0  0
  141.7458   78.8234  217.7694 H   0  0  0  0  0  0  0  0  0  0  0  0
  143.4648   76.6251  217.9535 H   0  0  0  0  0  0  0  0  0  0  0  0
  143.6475   78.0660  218.9626 H   0  0  0  0  0  0  0  0  0  0  0  0
  143.2194   76.7244  220.7398 H   0  0  0  0  0  0  0  0  0  0  0  0
  140.9112   74.3229  218.8840 H   0  0  0  0  0  0  0  0  0  0  0  0
  142.0050   72.0080  218.9020 H   0  0  0  0  0  0  0  0  0  0  0  0
  144.5252   70.9384  219.6812 H   0  0  0  0  0  0  0  0  0  0  0  0
  146.7085   71.5872  220.6377 H   0  0  0  0  0  0  0  0  0  0  0  0
  147.1332   73.9915  221.2188 H   0  0  0  0  0  0  0  0  0  0  0  0
  145.3440   75.6613  220.8191 H   0  0  0  0  0  0  0  0  0  0  0  0
  139.1389   70.2216  221.9203 H   0  0  0  0  0  0  0  0  0  0  0  0
  139.2294   68.6189  223.7871 H   0  0  0  0  0  0  0  0  0  0  0  0
  139.7836   68.1247  226.0608 H   0  0  0  0  0  0  0  0  0  0  0  0
  141.4687   71.1958  228.5233 H   0  0  0  0  0  0  0  0  0  0  0  0
  141.3668   72.7879  226.6425 H   0  0  0  0  0  0  0  0  0  0  0  0
  1  2  2  0
  2  3  1  0
  3  4  1  0
  4  5  1  0
  5  6  2  0
  5  7  1  0
  7  8  1  0
  8  9  1  0
  9 10  1  0
 10 11  1  0
 11 12  1  0
 12 13  2  0
 13 14  1  0
 14 15  1  0
 15 16  2  0
 16 17  1  0
 17 18  2  0
 18 19  1  0
 19 20  2  0
  2 21  1  0
 21 22  2  0
 22 23  1  0
 23 24  2  0
 24 25  1  0
 25 26  2  0
 26 27  1  0
 26 28  1  0
 28 29  2  0
 29 30  1  0
 30 31  2  0
 11  7  1  0
 20 12  1  0
 31 21  1  0
 20 15  1  0
 30 24  1  0
  3 32  1  0
  4 33  1  0
  4 34  1  0
  8 35  1  0
  8 36  1  0
  9 37  1  0
  9 38  1  0
 10 39  1  0
 10 40  1  0
 11 41  1  1
 13 42  1  0
 14 43  1  0
 16 44  1  0
 17 45  1  0
 18 46  1  0
 19 47  1  0
 22 48  1  0
 23 49  1  0
 25 50  1  0
 28 51  1  0
 29 52  1  0
M  END
>  <smiles>  (9) 
O=C(NCC(=O)N1CCC[C@@H]1c1c[nH]c2ccccc12)c1ccc2cc(Cl)ccc2n1

>  <score_type>  (9) 
oracle

>  <origin>  (9) 
autodockgpu

>  <m_score__min__energy>  (9) 
-9.6999999999999993

>  <m_primary>  (9) 
energy

>  <rmsd>  (9) 
1.977101046721663

>  <m_score__min__rmsd>  (9) 
1.977101046721663

>  <meeko>  (9) 
{"free_energy": -8.97, "intermolecular_energy": -10.47, "internal_energy": -2.18, "cluster_size": 11, "cluster_id": 3, "rank_in_cluster": 1}

>  <energy>  (9) 
-8.56

>  <cluster_rmsd>  (9) 
0.57

>  <cluster>  (9) 
1

$$$$

     RDKit          3D

 52 56  0  0  0  0  0  0  0  0999 V2000
  133.7440   71.8170  225.5980 O   0  0  0  0  0  0  0  0  0  0  0  0
  134.6190   72.6210  225.1690 C   0  0  0  0  0  0  0  0  0  0  0  0
  135.8480   72.1690  224.5850 N   0  0  0  0  0  0  0  0  0  0  0  0
  136.1610   70.7600  224.4490 C   0  0  0  0  0  0  0  0  0  0  0  0
  137.4390   70.6440  223.7210 C   0  0  0  0  0  0  0  0  0  0  0  0
  138.1430   71.7000  223.6200 O   0  0  0  0  0  0  0  0  0  0  0  0
  137.8510   69.4030  223.1640 N   0  0  0  0  0  0  0  0  0  0  0  0
  137.0230   68.5490  222.3180 C   0  0  0  0  0  0  0  0  0  0  0  0
  137.7430   67.2400  222.2230 C   0  0  0  0  0  0  0  0  0  0  0  0
  139.1920   67.5380  222.6140 C   0  0  0  0  0  0  0  0  0  0  0  0
  139.1480   68.8260  223.3680 C   0  0  2  0  0  0  0  0  0  0  0  0
  139.5110   68.7000  224.7820 C   0  0  0  0  0  0  0  0  0  0  0  0
  139.4030   67.5170  225.5180 C   0  0  0  0  0  0  0  0  0  0  0  0
  139.8110   67.7440  226.7540 N   0  0  0  0  0  0  0  0  0  0  0  0
  140.1940   69.0150  226.9100 C   0  0  0  0  0  0  0  0  0  0  0  0
  140.6880   69.7560  227.9650 C   0  0  0  0  0  0  0  0  0  0  0  0
  141.0010   71.0870  227.8170 C   0  0  0  0  0  0  0  0  0  0  0  0
  140.8150   71.6960  226.5790 C   0  0  0  0  0  0  0  0  0  0  0  0
  140.3190   70.9340  225.5330 C   0  0  0  0  0  0  0  0  0  0  0  0
  140.0100   69.6160  225.6830 C   0  0  0  0  0  0  0  0  0  0  0  0
  134.3780   74.0630  225.2700 C   0  0  0  0  0  0  0  0  0  0  0  0
  134.7380   74.8990  224.2340 C   0  0  0  0  0  0  0  0  0  0  0  0
  134.5330   76.2600  224.2790 C   0  0  0  0  0  0  0  0  0  0  0  0
  133.9460   76.8200  225.3990 C   0  0  0  0  0  0  0  0  0  0  0  0
  133.7390   78.1760  225.4490 C   0  0  0  0  0  0  0  0  0  0  0  0
  133.1510   78.7220  226.5760 C   0  0  0  0  0  0  0  0  0  0  0  0
  132.9100   80.4510  226.5940 Cl  0  0  0  0  0  0  0  0  0  0  0  0
  132.7920   77.9030  227.6060 C   0  0  0  0  0  0  0  0  0  0  0  0
  133.0040   76.5390  227.5450 C   0  0  0  0  0  0  0  0  0  0  0  0
  133.5930   75.9630  226.4260 C   0  0  0  0  0  0  0  0  0  0  0  0
  133.8080   74.6310  226.3490 N   0  0  0  0  0  0  0  0  0  0  0  0
  136.5200   72.9190  224.2540 H   0  0  0  0  0  0  0  0  0  0  0  0
  136.2555   70.3010  225.4442 H   0  0  0  0  0  0  0  0  0  0  0  0
  135.3606   70.2425  223.8999 H   0  0  0  0  0  0  0  0  0  0  0  0
  136.0311   68.4076  222.7720 H   0  0  0  0  0  0  0  0  0  0  0  0
  136.8664   68.9957  221.3251 H   0  0  0  0  0  0  0  0  0  0  0  0
  137.3014   66.5078  222.9150 H   0  0  0  0  0  0  0  0  0  0  0  0
  137.6742   66.8100  221.2129 H   0  0  0  0  0  0  0  0  0  0  0  0
  139.5911   66.7342  223.2501 H   0  0  0  0  0  0  0  0  0  0  0  0
  139.8459   67.6050  221.7320 H   0  0  0  0  0  0  0  0  0  0  0  0
  139.9228   69.5009  222.9754 H   0  0  0  0  0  0  0  0  0  0  0  0
  139.0379   66.5540  225.1314 H   0  0  0  0  0  0  0  0  0  0  0  0
  139.8340   67.0200  227.5190 H   0  0  0  0  0  0  0  0  0  0  0  0
  140.8340   69.2727  228.9423 H   0  0  0  0  0  0  0  0  0  0  0  0
  141.3939   71.6639  228.6672 H   0  0  0  0  0  0  0  0  0  0  0  0
  141.0566   72.7593  226.4341 H   0  0  0  0  0  0  0  0  0  0  0  0
  140.1703   71.4082  224.5516 H   0  0  0  0  0  0  0  0  0  0  0  0
  135.2059   74.4628  223.3391 H   0  0  0  0  0  0  0  0  0  0  0  0
  134.8331   76.8953  223.4327 H   0  0  0  0  0  0  0  0  0  0  0  0
  134.0358   78.8181  224.6067 H   0  0  0  0  0  0  0  0  0  0  0  0
  132.3248   78.3367  228.5024 H   0  0  0  0  0  0  0  0  0  0  0  0
  132.7035   75.9028  228.3906 H   0  0  0  0  0  0  0  0  0  0  0  0
  1  2  2  0
  2  3  1  0
  3  4  1  0
  4  5  1  0
  5  6  2  0
  5  7  1  0
  7  8  1  0
  8  9  1  0
  9 10  1  0
 10 11  1  0
 11 12  1  0
 12 13  2  0
 13 14  1  0
 14 15  1  0
 15 16  2  0
 16 17  1  0
 17 18  2  0
 18 19  1  0
 19 20  2  0
  2 21  1  0
 21 22  2  0
 22 23  1  0
 23 24  2  0
 24 25  1  0
 25 26  2  0
 26 27  1  0
 26 28  1  0
 28 29  2  0
 29 30  1  0
 30 31  2  0
 11  7  1  0
 20 12  1  0
 31 21  1  0
 20 15  1  0
 30 24  1  0
  3 32  1  0
  4 33  1  0
  4 34  1  0
  8 35  1  0
  8 36  1  0
  9 37  1  0
  9 38  1  0
 10 39  1  0
 10 40  1  0
 11 41  1  6
 13 42  1  0
 14 43  1  0
 16 44  1  0
 17 45  1  0
 18 46  1  0
 19 47  1  0
 22 48  1  0
 23 49  1  0
 25 50  1  0
 28 51  1  0
 29 52  1  0
M  END
>  <smiles>  (10) 
O=C(NCC(=O)N1CCC[C@@H]1c1c[nH]c2ccccc12)c1ccc2cc(Cl)ccc2n1

>  <score_type>  (10) 
oracle

>  <origin>  (10) 
autodockgpu

>  <m_score__min__energy>  (10) 
-9.6999999999999993

>  <m_primary>  (10) 
energy

>  <rmsd>  (10) 
8.67909360180666

>  <m_score__min__rmsd>  (10) 
8.67909360180666

>  <meeko>  (10) 
{"free_energy": -8.4, "intermolecular_energy": -9.89, "internal_energy": -1.95, "cluster_size": 10, "cluster_id": 1, "rank_in_cluster": 10}

>  <energy>  (10) 
-8.4

>  <cluster_rmsd>  (10) 
1.3

>  <cluster>  (10) 
1

$$$$

     RDKit          3D

 52 56  0  0  0  0  0  0  0  0999 V2000
  139.0250   71.9580  220.7710 O   0  0  0  0  0  0  0  0  0  0  0  0
  139.6720   72.3510  221.7830 C   0  0  0  0  0  0  0  0  0  0  0  0
  140.3170   73.6310  221.8250 N   0  0  0  0  0  0  0  0  0  0  0  0
  140.2640   74.5540  220.7080 C   0  0  0  0  0  0  0  0  0  0  0  0
  141.0740   75.7370  221.0540 C   0  0  0  0  0  0  0  0  0  0  0  0
  141.3670   75.8960  222.2830 O   0  0  0  0  0  0  0  0  0  0  0  0
  141.5000   76.6490  220.0500 N   0  0  0  0  0  0  0  0  0  0  0  0
  140.6460   77.6360  219.3980 C   0  0  0  0  0  0  0  0  0  0  0  0
  141.4260   78.1460  218.2260 C   0  0  0  0  0  0  0  0  0  0  0  0
  142.8850   77.7960  218.5190 C   0  0  0  0  0  0  0  0  0  0  0  0
  142.8410   76.7110  219.5430 C   0  0  2  0  0  0  0  0  0  0  0  0
  143.3400   75.4190  219.0630 C   0  0  0  0  0  0  0  0  0  0  0  0
  142.9870   74.8470  217.8390 C   0  0  0  0  0  0  0  0  0  0  0  0
  143.6100   73.6880  217.7140 N   0  0  0  0  0  0  0  0  0  0  0  0
  144.3710   73.4310  218.7810 C   0  0  0  0  0  0  0  0  0  0  0  0
  145.2040   72.3940  219.1520 C   0  0  0  0  0  0  0  0  0  0  0  0
  145.8750   72.4120  220.3520 C   0  0  0  0  0  0  0  0  0  0  0  0
  145.7110   73.4990  221.2070 C   0  0  0  0  0  0  0  0  0  0  0  0
  144.8720   74.5290  220.8160 C   0  0  0  0  0  0  0  0  0  0  0  0
  144.2080   74.5080  219.6270 C   0  0  0  0  0  0  0  0  0  0  0  0
  139.7720   71.4760  222.9530 C   0  0  0  0  0  0  0  0  0  0  0  0
  139.2890   70.1850  222.8960 C   0  0  0  0  0  0  0  0  0  0  0  0
  139.3580   69.3230  223.9670 C   0  0  0  0  0  0  0  0  0  0  0  0
  139.9300   69.7560  225.1500 C   0  0  0  0  0  0  0  0  0  0  0  0
  140.0020   68.9000  226.2210 C   0  0  0  0  0  0  0  0  0  0  0  0
  140.5760   69.3480  227.3970 C   0  0  0  0  0  0  0  0  0  0  0  0
  140.6440   68.2240  228.7320 Cl  0  0  0  0  0  0  0  0  0  0  0  0
  141.0560   70.6230  227.4640 C   0  0  0  0  0  0  0  0  0  0  0  0
  140.9790   71.4760  226.3790 C   0  0  0  0  0  0  0  0  0  0  0  0
  140.4070   71.0530  225.1860 C   0  0  0  0  0  0  0  0  0  0  0  0
  140.3230   71.8740  224.1150 N   0  0  0  0  0  0  0  0  0  0  0  0
  140.8360   73.8720  222.7160 H   0  0  0  0  0  0  0  0  0  0  0  0
  140.6721   74.0730  219.8069 H   0  0  0  0  0  0  0  0  0  0  0  0
  139.2238   74.8494  220.5061 H   0  0  0  0  0  0  0  0  0  0  0  0
  139.7099   77.1677  219.0597 H   0  0  0  0  0  0  0  0  0  0  0  0
  140.3731   78.4500  220.0857 H   0  0  0  0  0  0  0  0  0  0  0  0
  141.0921   77.6555  217.2998 H   0  0  0  0  0  0  0  0  0  0  0  0
  141.2876   79.2281  218.0849 H   0  0  0  0  0  0  0  0  0  0  0  0
  143.3855   77.4417  217.6058 H   0  0  0  0  0  0  0  0  0  0  0  0
  143.4487   78.6701  218.8769 H   0  0  0  0  0  0  0  0  0  0  0  0
  143.5381   76.9551  220.3581 H   0  0  0  0  0  0  0  0  0  0  0  0
  142.3025   75.2887  217.0998 H   0  0  0  0  0  0  0  0  0  0  0  0
  143.5210   73.0480  216.8820 H   0  0  0  0  0  0  0  0  0  0  0  0
  145.3332   71.5371  218.4745 H   0  0  0  0  0  0  0  0  0  0  0  0
  146.5338   71.5773  220.6335 H   0  0  0  0  0  0  0  0  0  0  0  0
  146.2367   73.5386  222.1724 H   0  0  0  0  0  0  0  0  0  0  0  0
  144.7377   75.3907  221.4864 H   0  0  0  0  0  0  0  0  0  0  0  0
  138.8318   69.8314  221.9601 H   0  0  0  0  0  0  0  0  0  0  0  0
  138.9623   68.3001  223.8831 H   0  0  0  0  0  0  0  0  0  0  0  0
  139.6098   67.8751  226.1451 H   0  0  0  0  0  0  0  0  0  0  0  0
  141.5130   70.9791  228.3991 H   0  0  0  0  0  0  0  0  0  0  0  0
  141.3744   72.4992  226.4611 H   0  0  0  0  0  0  0  0  0  0  0  0
  1  2  2  0
  2  3  1  0
  3  4  1  0
  4  5  1  0
  5  6  2  0
  5  7  1  0
  7  8  1  0
  8  9  1  0
  9 10  1  0
 10 11  1  0
 11 12  1  0
 12 13  2  0
 13 14  1  0
 14 15  1  0
 15 16  2  0
 16 17  1  0
 17 18  2  0
 18 19  1  0
 19 20  2  0
  2 21  1  0
 21 22  2  0
 22 23  1  0
 23 24  2  0
 24 25  1  0
 25 26  2  0
 26 27  1  0
 26 28  1  0
 28 29  2  0
 29 30  1  0
 30 31  2  0
 11  7  1  0
 20 12  1  0
 31 21  1  0
 20 15  1  0
 30 24  1  0
  3 32  1  0
  4 33  1  0
  4 34  1  0
  8 35  1  0
  8 36  1  0
  9 37  1  0
  9 38  1  0
 10 39  1  0
 10 40  1  0
 11 41  1  1
 13 42  1  0
 14 43  1  0
 16 44  1  0
 17 45  1  0
 18 46  1  0
 19 47  1  0
 22 48  1  0
 23 49  1  0
 25 50  1  0
 28 51  1  0
 29 52  1  0
M  END
>  <smiles>  (11) 
O=C(NCC(=O)N1CCC[C@@H]1c1c[nH]c2ccccc12)c1ccc2cc(Cl)ccc2n1

>  <score_type>  (11) 
oracle

>  <origin>  (11) 
autodockgpu

>  <m_score__min__energy>  (11) 
-9.6999999999999993

>  <m_primary>  (11) 
energy

>  <rmsd>  (11) 
1.9814616068609274

>  <m_score__min__rmsd>  (11) 
1.9814616068609274

>  <meeko>  (11) 
{"free_energy": -8.14, "intermolecular_energy": -9.64, "internal_energy": -2.36, "cluster_size": 11, "cluster_id": 3, "rank_in_cluster": 10}

>  <energy>  (11) 
-9.49

>  <cluster_rmsd>  (11) 
0.0

>  <cluster>  (11) 
2

$$$$

     RDKit          3D

 52 56  0  0  0  0  0  0  0  0999 V2000
  139.8430   72.1510  220.7090 O   0  0  0  0  0  0  0  0  0  0  0  0
  139.7680   72.6220  221.8790 C   0  0  0  0  0  0  0  0  0  0  0  0
  139.5960   74.0240  222.1270 N   0  0  0  0  0  0  0  0  0  0  0  0
  139.4970   74.9880  221.0480 C   0  0  0  0  0  0  0  0  0  0  0  0
  140.3190   76.1600  221.4050 C   0  0  0  0  0  0  0  0  0  0  0  0
  140.4550   76.4120  222.6460 O   0  0  0  0  0  0  0  0  0  0  0  0
  140.9230   76.9610  220.3980 N   0  0  0  0  0  0  0  0  0  0  0  0
  142.1080   76.5880  219.6310 C   0  0  0  0  0  0  0  0  0  0  0  0
  142.5500   77.8320  218.9250 C   0  0  0  0  0  0  0  0  0  0  0  0
  141.3320   78.7570  218.9210 C   0  0  0  0  0  0  0  0  0  0  0  0
  140.4400   78.2520  220.0060 C   0  0  2  0  0  0  0  0  0  0  0  0
  140.2860   79.1800  221.1300 C   0  0  0  0  0  0  0  0  0  0  0  0
  139.0700   79.7480  221.5190 C   0  0  0  0  0  0  0  0  0  0  0  0
  139.2800   80.5330  222.5620 N   0  0  0  0  0  0  0  0  0  0  0  0
  140.5690   80.5370  222.9120 C   0  0  0  0  0  0  0  0  0  0  0  0
  141.3040   81.1640  223.8980 C   0  0  0  0  0  0  0  0  0  0  0  0
  142.6600   80.9660  224.0120 C   0  0  0  0  0  0  0  0  0  0  0  0
  143.3010   80.1160  223.1150 C   0  0  0  0  0  0  0  0  0  0  0  0
  142.5450   79.4960  222.1340 C   0  0  0  0  0  0  0  0  0  0  0  0
  141.2020   79.6940  222.0230 C   0  0  0  0  0  0  0  0  0  0  0  0
  139.8590   71.7130  223.0240 C   0  0  0  0  0  0  0  0  0  0  0  0
  139.4020   70.4160  222.9170 C   0  0  0  0  0  0  0  0  0  0  0  0
  139.4650   69.5220  223.9620 C   0  0  0  0  0  0  0  0  0  0  0  0
  140.0030   69.9280  225.1700 C   0  0  0  0  0  0  0  0  0  0  0  0
  140.0690   69.0410  226.2150 C   0  0  0  0  0  0  0  0  0  0  0  0
  140.6090   69.4620  227.4170 C   0  0  0  0  0  0  0  0  0  0  0  0
  140.6700   68.2990  228.7170 Cl  0  0  0  0  0  0  0  0  0  0  0  0
  141.0640   70.7430  227.5330 C   0  0  0  0  0  0  0  0  0  0  0  0
  140.9940   71.6280  226.4740 C   0  0  0  0  0  0  0  0  0  0  0  0
  140.4550   71.2320  225.2560 C   0  0  0  0  0  0  0  0  0  0  0  0
  140.3790   72.0840  224.2090 N   0  0  0  0  0  0  0  0  0  0  0  0
  139.5440   74.3240  223.1420 H   0  0  0  0  0  0  0  0  0  0  0  0
  139.8691   74.5419  220.1139 H   0  0  0  0  0  0  0  0  0  0  0  0
  138.4492   75.2879  220.8993 H   0  0  0  0  0  0  0  0  0  0  0  0
  142.9007   76.2276  220.3031 H   0  0  0  0  0  0  0  0  0  0  0  0
  141.8897   75.7771  218.9205 H   0  0  0  0  0  0  0  0  0  0  0  0
  143.3871   78.3016  219.4623 H   0  0  0  0  0  0  0  0  0  0  0  0
  142.9022   77.6181  217.9051 H   0  0  0  0  0  0  0  0  0  0  0  0
  141.6368   79.7939  219.1261 H   0  0  0  0  0  0  0  0  0  0  0  0
  140.8249   78.7576  217.9449 H   0  0  0  0  0  0  0  0  0  0  0  0
  139.4143   78.1647  219.6184 H   0  0  0  0  0  0  0  0  0  0  0  0
  138.0974   79.5710  221.0365 H   0  0  0  0  0  0  0  0  0  0  0  0
  138.5300   81.0840  223.0550 H   0  0  0  0  0  0  0  0  0  0  0  0
  140.7953   81.8348  224.6060 H   0  0  0  0  0  0  0  0  0  0  0  0
  143.2317   81.4735  224.8029 H   0  0  0  0  0  0  0  0  0  0  0  0
  144.3847   79.9405  223.1839 H   0  0  0  0  0  0  0  0  0  0  0  0
  143.0449   78.8226  221.4222 H   0  0  0  0  0  0  0  0  0  0  0  0
  138.9711   70.0836  221.9611 H   0  0  0  0  0  0  0  0  0  0  0  0
  139.0912   68.4950  223.8376 H   0  0  0  0  0  0  0  0  0  0  0  0
  139.6985   68.0118  226.0987 H   0  0  0  0  0  0  0  0  0  0  0  0
  141.4949   71.0778  228.4881 H   0  0  0  0  0  0  0  0  0  0  0  0
  141.3683   72.6551  226.5963 H   0  0  0  0  0  0  0  0  0  0  0  0
  1  2  2  0
  2  3  1  0
  3  4  1  0
  4  5  1  0
  5  6  2  0
  5  7  1  0
  7  8  1  0
  8  9  1  0
  9 10  1  0
 10 11  1  0
 11 12  1  0
 12 13  2  0
 13 14  1  0
 14 15  1  0
 15 16  2  0
 16 17  1  0
 17 18  2  0
 18 19  1  0
 19 20  2  0
  2 21  1  0
 21 22  2  0
 22 23  1  0
 23 24  2  0
 24 25  1  0
 25 26  2  0
 26 27  1  0
 26 28  1  0
 28 29  2  0
 29 30  1  0
 30 31  2  0
 11  7  1  0
 20 12  1  0
 31 21  1  0
 20 15  1  0
 30 24  1  0
  3 32  1  0
  4 33  1  0
  4 34  1  0
  8 35  1  0
  8 36  1  0
  9 37  1  0
  9 38  1  0
 10 39  1  0
 10 40  1  0
 11 41  1  6
 13 42  1  0
 14 43  1  0
 16 44  1  0
 17 45  1  0
 18 46  1  0
 19 47  1  0
 22 48  1  0
 23 49  1  0
 25 50  1  0
 28 51  1  0
 29 52  1  0
M  END
>  <smiles>  (12) 
O=C(NCC(=O)N1CCC[C@@H]1c1c[nH]c2ccccc12)c1ccc2cc(Cl)ccc2n1

>  <score_type>  (12) 
oracle

>  <origin>  (12) 
autodockgpu

>  <m_score__min__energy>  (12) 
-9.6999999999999993

>  <m_primary>  (12) 
energy

>  <rmsd>  (12) 
2.048255898762624

>  <m_score__min__rmsd>  (12) 
2.048255898762624

>  <meeko>  (12) 
{"free_energy": -9.37, "intermolecular_energy": -10.87, "internal_energy": -2.04, "cluster_size": 23, "cluster_id": 2, "rank_in_cluster": 7}

>  <energy>  (12) 
-9.42

>  <cluster_rmsd>  (12) 
0.47

>  <cluster>  (12) 
2

$$$$

     RDKit          3D

 52 56  0  0  0  0  0  0  0  0999 V2000
  134.2220   71.1990  223.9940 O   0  0  0  0  0  0  0  0  0  0  0  0
  134.7870   72.1690  224.5750 C   0  0  0  0  0  0  0  0  0  0  0  0
  136.1920   72.4210  224.4450 N   0  0  0  0  0  0  0  0  0  0  0  0
  137.0520   71.5790  223.6360 C   0  0  0  0  0  0  0  0  0  0  0  0
  136.9730   70.2040  224.1650 C   0  0  0  0  0  0  0  0  0  0  0  0
  136.3510   70.0440  225.2640 O   0  0  0  0  0  0  0  0  0  0  0  0
  137.5700   69.1190  223.4680 N   0  0  0  0  0  0  0  0  0  0  0  0
  136.8550   68.1790  222.6110 C   0  0  0  0  0  0  0  0  0  0  0  0
  137.8090   67.0560  222.3440 C   0  0  0  0  0  0  0  0  0  0  0  0
  139.1990   67.6160  222.6510 C   0  0  0  0  0  0  0  0  0  0  0  0
  138.9690   68.8070  223.5210 C   0  0  2  0  0  0  0  0  0  0  0  0
  139.4780   68.6530  224.8870 C   0  0  0  0  0  0  0  0  0  0  0  0
  139.5350   67.4370  225.5710 C   0  0  0  0  0  0  0  0  0  0  0  0
  140.0430   67.6460  226.7730 N   0  0  0  0  0  0  0  0  0  0  0  0
  140.3400   68.9360  226.9530 C   0  0  0  0  0  0  0  0  0  0  0  0
  140.8770   69.6720  227.9910 C   0  0  0  0  0  0  0  0  0  0  0  0
  141.0690   71.0280  227.8790 C   0  0  0  0  0  0  0  0  0  0  0  0
  140.7160   71.6700  226.6950 C   0  0  0  0  0  0  0  0  0  0  0  0
  140.1800   70.9140  225.6660 C   0  0  0  0  0  0  0  0  0  0  0  0
  139.9900   69.5700  225.7800 C   0  0  0  0  0  0  0  0  0  0  0  0
  133.9860   73.0680  225.4100 C   0  0  0  0  0  0  0  0  0  0  0  0
  132.8380   72.6070  226.0190 C   0  0  0  0  0  0  0  0  0  0  0  0
  132.0500   73.4100  226.8130 C   0  0  0  0  0  0  0  0  0  0  0  0
  132.4140   74.7300  227.0140 C   0  0  0  0  0  0  0  0  0  0  0  0
  131.6330   75.5340  227.8050 C   0  0  0  0  0  0  0  0  0  0  0  0
  132.0100   76.8520  227.9970 C   0  0  0  0  0  0  0  0  0  0  0  0
  130.9840   77.8370  229.0100 Cl  0  0  0  0  0  0  0  0  0  0  0  0
  133.1440   77.3170  227.3990 C   0  0  0  0  0  0  0  0  0  0  0  0
  133.9230   76.4970  226.6050 C   0  0  0  0  0  0  0  0  0  0  0  0
  133.5690   75.1700  226.3940 C   0  0  0  0  0  0  0  0  0  0  0  0
  134.3200   74.3540  225.6210 N   0  0  0  0  0  0  0  0  0  0  0  0
  136.5750   73.2590  224.9690 H   0  0  0  0  0  0  0  0  0  0  0  0
  136.7137   71.5963  222.5894 H   0  0  0  0  0  0  0  0  0  0  0  0
  138.0890   71.9439  223.6740 H   0  0  0  0  0  0  0  0  0  0  0  0
  135.9561   67.8036  223.1219 H   0  0  0  0  0  0  0  0  0  0  0  0
  136.5237   68.6569  221.6772 H   0  0  0  0  0  0  0  0  0  0  0  0
  137.5869   66.1997  222.9978 H   0  0  0  0  0  0  0  0  0  0  0  0
  137.7347   66.6964  221.3071 H   0  0  0  0  0  0  0  0  0  0  0  0
  139.8069   66.8665  223.1790 H   0  0  0  0  0  0  0  0  0  0  0  0
  139.7426   67.8819  221.7324 H   0  0  0  0  0  0  0  0  0  0  0  0
  139.5550   69.6542  223.1352 H   0  0  0  0  0  0  0  0  0  0  0  0
  139.2101   66.4639  225.1741 H   0  0  0  0  0  0  0  0  0  0  0  0
  140.1970   66.8960  227.4960 H   0  0  0  0  0  0  0  0  0  0  0  0
  141.1563   69.1629  228.9252 H   0  0  0  0  0  0  0  0  0  0  0  0
  141.4969   71.6000  228.7155 H   0  0  0  0  0  0  0  0  0  0  0  0
  140.8598   72.7544  226.5795 H   0  0  0  0  0  0  0  0  0  0  0  0
  139.8990   71.4143  224.7275 H   0  0  0  0  0  0  0  0  0  0  0  0
  132.5407   71.5592  225.8649 H   0  0  0  0  0  0  0  0  0  0  0  0
  131.1408   73.0065  227.2826 H   0  0  0  0  0  0  0  0  0  0  0  0
  130.7226   75.1380  228.2786 H   0  0  0  0  0  0  0  0  0  0  0  0
  133.4442   78.3642  227.5515 H   0  0  0  0  0  0  0  0  0  0  0  0
  134.8328   76.8990  226.1351 H   0  0  0  0  0  0  0  0  0  0  0  0
  1  2  2  0
  2  3  1  0
  3  4  1  0
  4  5  1  0
  5  6  2  0
  5  7  1  0
  7  8  1  0
  8  9  1  0
  9 10  1  0
 10 11  1  0
 11 12  1  0
 12 13  2  0
 13 14  1  0
 14 15  1  0
 15 16  2  0
 16 17  1  0
 17 18  2  0
 18 19  1  0
 19 20  2  0
  2 21  1  0
 21 22  2  0
 22 23  1  0
 23 24  2  0
 24 25  1  0
 25 26  2  0
 26 27  1  0
 26 28  1  0
 28 29  2  0
 29 30  1  0
 30 31  2  0
 11  7  1  0
 20 12  1  0
 31 21  1  0
 20 15  1  0
 30 24  1  0
  3 32  1  0
  4 33  1  0
  4 34  1  0
  8 35  1  0
  8 36  1  0
  9 37  1  0
  9 38  1  0
 10 39  1  0
 10 40  1  0
 11 41  1  6
 13 42  1  0
 14 43  1  0
 16 44  1  0
 17 45  1  0
 18 46  1  0
 19 47  1  0
 22 48  1  0
 23 49  1  0
 25 50  1  0
 28 51  1  0
 29 52  1  0
M  END
>  <smiles>  (13) 
O=C(NCC(=O)N1CCC[C@@H]1c1c[nH]c2ccccc12)c1ccc2cc(Cl)ccc2n1

>  <score_type>  (13) 
oracle

>  <origin>  (13) 
autodockgpu

>  <m_score__min__energy>  (13) 
-9.6999999999999993

>  <m_primary>  (13) 
energy

>  <rmsd>  (13) 
8.440156991710891

>  <m_score__min__rmsd>  (13) 
8.440156991710891

>  <meeko>  (13) 
{"free_energy": -8.9, "intermolecular_energy": -10.39, "internal_energy": -1.58, "cluster_size": 10, "cluster_id": 1, "rank_in_cluster": 4}

>  <energy>  (13) 
-9.41

>  <cluster_rmsd>  (13) 
0.46

>  <cluster>  (13) 
2

$$$$

     RDKit          3D

 52 56  0  0  0  0  0  0  0  0999 V2000
  136.9880   71.7300  221.2960 O   0  0  0  0  0  0  0  0  0  0  0  0
  137.2320   72.4670  222.2930 C   0  0  0  0  0  0  0  0  0  0  0  0
  136.5990   72.2660  223.5630 N   0  0  0  0  0  0  0  0  0  0  0  0
  135.6400   71.2000  223.7830 C   0  0  0  0  0  0  0  0  0  0  0  0
  136.3790   70.0080  224.2390 C   0  0  0  0  0  0  0  0  0  0  0  0
  136.1760   69.6280  225.4370 O   0  0  0  0  0  0  0  0  0  0  0  0
  137.2720   69.3260  223.3690 N   0  0  0  0  0  0  0  0  0  0  0  0
  136.8680   68.4430  222.2790 C   0  0  0  0  0  0  0  0  0  0  0  0
  138.1110   67.7300  221.8450 C   0  0  0  0  0  0  0  0  0  0  0  0
  139.2740   68.5740  222.3670 C   0  0  0  0  0  0  0  0  0  0  0  0
  138.7000   69.4200  223.4550 C   0  0  2  0  0  0  0  0  0  0  0  0
  139.2230   69.1090  224.7890 C   0  0  0  0  0  0  0  0  0  0  0  0
  139.2070   67.8340  225.3600 C   0  0  0  0  0  0  0  0  0  0  0  0
  139.7510   67.8980  226.5620 N   0  0  0  0  0  0  0  0  0  0  0  0
  140.1420   69.1430  226.8500 C   0  0  0  0  0  0  0  0  0  0  0  0
  140.7490   69.7440  227.9350 C   0  0  0  0  0  0  0  0  0  0  0  0
  141.0340   71.0880  227.9400 C   0  0  0  0  0  0  0  0  0  0  0  0
  140.7050   71.8570  226.8270 C   0  0  0  0  0  0  0  0  0  0  0  0
  140.0980   71.2360  225.7480 C   0  0  0  0  0  0  0  0  0  0  0  0
  139.8160   69.9030  225.7460 C   0  0  0  0  0  0  0  0  0  0  0  0
  138.1900   73.5670  222.1520 C   0  0  0  0  0  0  0  0  0  0  0  0
  139.4950   73.3050  221.7910 C   0  0  0  0  0  0  0  0  0  0  0  0
  140.4350   74.3010  221.6450 C   0  0  0  0  0  0  0  0  0  0  0  0
  140.0680   75.6160  221.8680 C   0  0  0  0  0  0  0  0  0  0  0  0
  141.0000   76.6140  221.7240 C   0  0  0  0  0  0  0  0  0  0  0  0
  140.6180   77.9240  221.9500 C   0  0  0  0  0  0  0  0  0  0  0  0
  141.8390   79.1580  221.7550 Cl  0  0  0  0  0  0  0  0  0  0  0  0
  139.3290   78.1930  222.3070 C   0  0  0  0  0  0  0  0  0  0  0  0
  138.3990   77.1810  222.4490 C   0  0  0  0  0  0  0  0  0  0  0  0
  138.7550   75.8560  222.2290 C   0  0  0  0  0  0  0  0  0  0  0  0
  137.8580   74.8530  222.3630 N   0  0  0  0  0  0  0  0  0  0  0  0
  136.8680   72.9360  224.3390 H   0  0  0  0  0  0  0  0  0  0  0  0
  134.9131   71.5045  224.5504 H   0  0  0  0  0  0  0  0  0  0  0  0
  135.0950   70.9789  222.8534 H   0  0  0  0  0  0  0  0  0  0  0  0
  136.1159   67.7212  222.6303 H   0  0  0  0  0  0  0  0  0  0  0  0
  136.4158   69.0066  221.4497 H   0  0  0  0  0  0  0  0  0  0  0  0
  138.1451   66.7196  222.2786 H   0  0  0  0  0  0  0  0  0  0  0  0
  138.1520   67.6130  220.7520 H   0  0  0  0  0  0  0  0  0  0  0  0
  140.0703   67.9269  222.7635 H   0  0  0  0  0  0  0  0  0  0  0  0
  139.7229   69.1853  221.5702 H   0  0  0  0  0  0  0  0  0  0  0  0
  139.0149   70.4633  223.3054 H   0  0  0  0  0  0  0  0  0  0  0  0
  138.8069   66.9255  224.8861 H   0  0  0  0  0  0  0  0  0  0  0  0
  139.8660   67.0770  227.2120 H   0  0  0  0  0  0  0  0  0  0  0  0
  141.0095   69.1345  228.8128 H   0  0  0  0  0  0  0  0  0  0  0  0
  141.5165   71.5511  228.8133 H   0  0  0  0  0  0  0  0  0  0  0  0
  140.9226   72.9350  226.8050 H   0  0  0  0  0  0  0  0  0  0  0  0
  139.8355   71.8376  224.8653 H   0  0  0  0  0  0  0  0  0  0  0  0
  139.7962   72.2621  221.6131 H   0  0  0  0  0  0  0  0  0  0  0  0
  141.4666   74.0535  221.3542 H   0  0  0  0  0  0  0  0  0  0  0  0
  142.0338   76.3755  221.4336 H   0  0  0  0  0  0  0  0  0  0  0  0
  139.0244   79.2349  222.4851 H   0  0  0  0  0  0  0  0  0  0  0  0
  137.3668   77.4267  222.7390 H   0  0  0  0  0  0  0  0  0  0  0  0
  1  2  2  0
  2  3  1  0
  3  4  1  0
  4  5  1  0
  5  6  2  0
  5  7  1  0
  7  8  1  0
  8  9  1  0
  9 10  1  0
 10 11  1  0
 11 12  1  0
 12 13  2  0
 13 14  1  0
 14 15  1  0
 15 16  2  0
 16 17  1  0
 17 18  2  0
 18 19  1  0
 19 20  2  0
  2 21  1  0
 21 22  2  0
 22 23  1  0
 23 24  2  0
 24 25  1  0
 25 26  2  0
 26 27  1  0
 26 28  1  0
 28 29  2  0
 29 30  1  0
 30 31  2  0
 11  7  1  0
 20 12  1  0
 31 21  1  0
 20 15  1  0
 30 24  1  0
  3 32  1  0
  4 33  1  0
  4 34  1  0
  8 35  1  0
  8 36  1  0
  9 37  1  0
  9 38  1  0
 10 39  1  0
 10 40  1  0
 11 41  1  6
 13 42  1  0
 14 43  1  0
 16 44  1  0
 17 45  1  0
 18 46  1  0
 19 47  1  0
 22 48  1  0
 23 49  1  0
 25 50  1  0
 28 51  1  0
 29 52  1  0
M  END
>  <smiles>  (14) 
O=C(NCC(=O)N1CCC[C@@H]1c1c[nH]c2ccccc12)c1ccc2cc(Cl)ccc2n1

>  <score_type>  (14) 
oracle

>  <origin>  (14) 
autodockgpu

>  <m_score__min__energy>  (14) 
-9.6999999999999993

>  <m_primary>  (14) 
energy

>  <rmsd>  (14) 
7.506385870293534

>  <m_score__min__rmsd>  (14) 
7.506385870293534

>  <meeko>  (14) 
{"free_energy": -8.53, "intermolecular_energy": -10.02, "internal_energy": -2.07, "cluster_size": 1, "cluster_id": 5, "rank_in_cluster": 1}

>  <energy>  (14) 
-9.4

>  <cluster_rmsd>  (14) 
0.48

>  <cluster>  (14) 
2

$$$$

     RDKit          3D

 52 56  0  0  0  0  0  0  0  0999 V2000
  139.7900   72.0500  220.7360 O   0  0  0  0  0  0  0  0  0  0  0  0
  139.7460   72.5190  221.9090 C   0  0  0  0  0  0  0  0  0  0  0  0
  139.5910   73.9220  222.1630 N   0  0  0  0  0  0  0  0  0  0  0  0
  139.4740   74.8880  221.0880 C   0  0  0  0  0  0  0  0  0  0  0  0
  140.2910   76.0650  221.4400 C   0  0  0  0  0  0  0  0  0  0  0  0
  140.4070   76.3370  222.6780 O   0  0  0  0  0  0  0  0  0  0  0  0
  140.9150   76.8480  220.4310 N   0  0  0  0  0  0  0  0  0  0  0  0
  142.1060   76.4570  219.6840 C   0  0  0  0  0  0  0  0  0  0  0  0
  142.5660   77.6890  218.9680 C   0  0  0  0  0  0  0  0  0  0  0  0
  141.3550   78.6230  218.9360 C   0  0  0  0  0  0  0  0  0  0  0  0
  140.4460   78.1380  220.0160 C   0  0  2  0  0  0  0  0  0  0  0  0
  140.2840   79.0810  221.1260 C   0  0  0  0  0  0  0  0  0  0  0  0
  139.0600   79.6260  221.5210 C   0  0  0  0  0  0  0  0  0  0  0  0
  139.2640   80.4340  222.5470 N   0  0  0  0  0  0  0  0  0  0  0  0
  140.5570   80.4750  222.8800 C   0  0  0  0  0  0  0  0  0  0  0  0
  141.2900   81.1360  223.8460 C   0  0  0  0  0  0  0  0  0  0  0  0
  142.6510   80.9740  223.9450 C   0  0  0  0  0  0  0  0  0  0  0  0
  143.3010   80.1240  223.0540 C   0  0  0  0  0  0  0  0  0  0  0  0
  142.5480   79.4690  222.0940 C   0  0  0  0  0  0  0  0  0  0  0  0
  141.1990   79.6320  221.9980 C   0  0  0  0  0  0  0  0  0  0  0  0
  139.8570   71.6070  223.0500 C   0  0  0  0  0  0  0  0  0  0  0  0
  139.4300   70.3010  222.9360 C   0  0  0  0  0  0  0  0  0  0  0  0
  139.5120   69.4040  223.9780 C   0  0  0  0  0  0  0  0  0  0  0  0
  140.0400   69.8170  225.1880 C   0  0  0  0  0  0  0  0  0  0  0  0
  140.1250   68.9270  226.2290 C   0  0  0  0  0  0  0  0  0  0  0  0
  140.6540   69.3550  227.4330 C   0  0  0  0  0  0  0  0  0  0  0  0
  140.7410   68.1870  228.7290 Cl  0  0  0  0  0  0  0  0  0  0  0  0
  141.0800   70.6450  227.5560 C   0  0  0  0  0  0  0  0  0  0  0  0
  140.9900   71.5330  226.5010 C   0  0  0  0  0  0  0  0  0  0  0  0
  140.4620   71.1310  225.2800 C   0  0  0  0  0  0  0  0  0  0  0  0
  140.3670   71.9850  224.2370 N   0  0  0  0  0  0  0  0  0  0  0  0
  139.5650   74.2200  223.1790 H   0  0  0  0  0  0  0  0  0  0  0  0
  139.8399   74.4472  220.1489 H   0  0  0  0  0  0  0  0  0  0  0  0
  138.4226   75.1806  220.9507 H   0  0  0  0  0  0  0  0  0  0  0  0
  142.8876   76.0994  220.3705 H   0  0  0  0  0  0  0  0  0  0  0  0
  141.8906   75.6388  218.9811 H   0  0  0  0  0  0  0  0  0  0  0  0
  143.3995   78.1595  219.5102 H   0  0  0  0  0  0  0  0  0  0  0  0
  142.9295   77.4593  217.9555 H   0  0  0  0  0  0  0  0  0  0  0  0
  141.6647   79.6602  219.1316 H   0  0  0  0  0  0  0  0  0  0  0  0
  140.8605   78.6151  217.9535 H   0  0  0  0  0  0  0  0  0  0  0  0
  139.4248   78.0529  219.6161 H   0  0  0  0  0  0  0  0  0  0  0  0
  138.0859   79.4170  221.0546 H   0  0  0  0  0  0  0  0  0  0  0  0
  138.5080   80.9760  223.0410 H   0  0  0  0  0  0  0  0  0  0  0  0
  140.7741   81.8054  224.5501 H   0  0  0  0  0  0  0  0  0  0  0  0
  143.2203   81.5095  224.7191 H   0  0  0  0  0  0  0  0  0  0  0  0
  144.3895   79.9760  223.1115 H   0  0  0  0  0  0  0  0  0  0  0  0
  143.0550   78.7961  221.3868 H   0  0  0  0  0  0  0  0  0  0  0  0
  139.0084   69.9631  221.9778 H   0  0  0  0  0  0  0  0  0  0  0  0
  139.1611   68.3695  223.8492 H   0  0  0  0  0  0  0  0  0  0  0  0
  139.7781   67.8902  226.1078 H   0  0  0  0  0  0  0  0  0  0  0  0
  141.5031   70.9848  228.5129 H   0  0  0  0  0  0  0  0  0  0  0  0
  141.3397   72.5681  226.6289 H   0  0  0  0  0  0  0  0  0  0  0  0
  1  2  2  0
  2  3  1  0
  3  4  1  0
  4  5  1  0
  5  6  2  0
  5  7  1  0
  7  8  1  0
  8  9  1  0
  9 10  1  0
 10 11  1  0
 11 12  1  0
 12 13  2  0
 13 14  1  0
 14 15  1  0
 15 16  2  0
 16 17  1  0
 17 18  2  0
 18 19  1  0
 19 20  2  0
  2 21  1  0
 21 22  2  0
 22 23  1  0
 23 24  2  0
 24 25  1  0
 25 26  2  0
 26 27  1  0
 26 28  1  0
 28 29  2  0
 29 30  1  0
 30 31  2  0
 11  7  1  0
 20 12  1  0
 31 21  1  0
 20 15  1  0
 30 24  1  0
  3 32  1  0
  4 33  1  0
  4 34  1  0
  8 35  1  0
  8 36  1  0
  9 37  1  0
  9 38  1  0
 10 39  1  0
 10 40  1  0
 11 41  1  6
 13 42  1  0
 14 43  1  0
 16 44  1  0
 17 45  1  0
 18 46  1  0
 19 47  1  0
 22 48  1  0
 23 49  1  0
 25 50  1  0
 28 51  1  0
 29 52  1  0
M  END
>  <smiles>  (15) 
O=C(NCC(=O)N1CCC[C@@H]1c1c[nH]c2ccccc12)c1ccc2cc(Cl)ccc2n1

>  <score_type>  (15) 
oracle

>  <origin>  (15) 
autodockgpu

>  <m_score__min__energy>  (15) 
-9.6999999999999993

>  <m_primary>  (15) 
energy

>  <rmsd>  (15) 
1.987838824276689

>  <m_score__min__rmsd>  (15) 
1.987838824276689

>  <meeko>  (15) 
{"free_energy": -9.42, "intermolecular_energy": -10.91, "internal_energy": -2.05, "cluster_size": 23, "cluster_id": 2, "rank_in_cluster": 2}

>  <energy>  (15) 
-9.39

>  <cluster_rmsd>  (15) 
0.43

>  <cluster>  (15) 
2

$$$$

     RDKit          3D

 52 56  0  0  0  0  0  0  0  0999 V2000
  138.6390   72.2270  220.8480 O   0  0  0  0  0  0  0  0  0  0  0  0
  139.6170   72.3870  221.6330 C   0  0  0  0  0  0  0  0  0  0  0  0
  140.6410   73.3590  221.3860 N   0  0  0  0  0  0  0  0  0  0  0  0
  140.6160   74.2220  220.2210 C   0  0  0  0  0  0  0  0  0  0  0  0
  141.8520   75.0280  220.2220 C   0  0  0  0  0  0  0  0  0  0  0  0
  142.8390   74.5690  220.8820 O   0  0  0  0  0  0  0  0  0  0  0  0
  141.9210   76.2580  219.5130 N   0  0  0  0  0  0  0  0  0  0  0  0
  143.0330   76.6750  218.6660 C   0  0  0  0  0  0  0  0  0  0  0  0
  142.8120   78.1290  218.3820 C   0  0  0  0  0  0  0  0  0  0  0  0
  141.3320   78.3840  218.6690 C   0  0  0  0  0  0  0  0  0  0  0  0
  140.8920   77.2570  219.5440 C   0  0  2  0  0  0  0  0  0  0  0  0
  140.5230   77.6680  220.9020 C   0  0  0  0  0  0  0  0  0  0  0  0
  139.4210   77.1690  221.6010 C   0  0  0  0  0  0  0  0  0  0  0  0
  139.3740   77.7430  222.7900 N   0  0  0  0  0  0  0  0  0  0  0  0
  140.3810   78.6070  222.9500 C   0  0  0  0  0  0  0  0  0  0  0  0
  140.7870   79.4450  223.9690 C   0  0  0  0  0  0  0  0  0  0  0  0
  141.8990   80.2420  223.8360 C   0  0  0  0  0  0  0  0  0  0  0  0
  142.6290   80.2010  222.6510 C   0  0  0  0  0  0  0  0  0  0  0  0
  142.2040   79.3520  221.6410 C   0  0  0  0  0  0  0  0  0  0  0  0
  141.1020   78.5640  221.7750 C   0  0  0  0  0  0  0  0  0  0  0  0
  139.7150   71.5530  222.8340 C   0  0  0  0  0  0  0  0  0  0  0  0
  139.1600   70.2910  222.8470 C   0  0  0  0  0  0  0  0  0  0  0  0
  139.2230   69.4680  223.9490 C   0  0  0  0  0  0  0  0  0  0  0  0
  139.8640   69.9140  225.0910 C   0  0  0  0  0  0  0  0  0  0  0  0
  139.9310   69.0980  226.1930 C   0  0  0  0  0  0  0  0  0  0  0  0
  140.5760   69.5580  227.3280 C   0  0  0  0  0  0  0  0  0  0  0  0
  140.6340   68.4840  228.7040 Cl  0  0  0  0  0  0  0  0  0  0  0  0
  141.1280   70.8050  227.3240 C   0  0  0  0  0  0  0  0  0  0  0  0
  141.0550   71.6180  226.2090 C   0  0  0  0  0  0  0  0  0  0  0  0
  140.4140   71.1820  225.0560 C   0  0  0  0  0  0  0  0  0  0  0  0
  140.3330   71.9640  223.9560 N   0  0  0  0  0  0  0  0  0  0  0  0
  141.4220   73.4190  222.1000 H   0  0  0  0  0  0  0  0  0  0  0  0
  140.5688   73.6127  219.3064 H   0  0  0  0  0  0  0  0  0  0  0  0
  139.7331   74.8775  220.2507 H   0  0  0  0  0  0  0  0  0  0  0  0
  143.9888   76.5288  219.1904 H   0  0  0  0  0  0  0  0  0  0  0  0
  143.0767   76.0851  217.7386 H   0  0  0  0  0  0  0  0  0  0  0  0
  143.4424   78.7483  219.0371 H   0  0  0  0  0  0  0  0  0  0  0  0
  143.0756   78.3858  217.3454 H   0  0  0  0  0  0  0  0  0  0  0  0
  141.2016   79.3456  219.1870 H   0  0  0  0  0  0  0  0  0  0  0  0
  140.7409   78.4345  217.7427 H   0  0  0  0  0  0  0  0  0  0  0  0
  139.9536   76.8389  219.1507 H   0  0  0  0  0  0  0  0  0  0  0  0
  138.7089   76.4206  221.2231 H   0  0  0  0  0  0  0  0  0  0  0  0
  138.6410   77.5470  223.5200 H   0  0  0  0  0  0  0  0  0  0  0  0
  140.2099   79.4756  224.9049 H   0  0  0  0  0  0  0  0  0  0  0  0
  142.2089   80.9052  224.6571 H   0  0  0  0  0  0  0  0  0  0  0  0
  143.5230   80.8283  222.5193 H   0  0  0  0  0  0  0  0  0  0  0  0
  142.7752   79.3138  220.7017 H   0  0  0  0  0  0  0  0  0  0  0  0
  138.6479   69.9282  221.9436 H   0  0  0  0  0  0  0  0  0  0  0  0
  138.7686   68.4666  223.9217 H   0  0  0  0  0  0  0  0  0  0  0  0
  139.4795   68.0951  226.1743 H   0  0  0  0  0  0  0  0  0  0  0  0
  141.6412   71.1707  228.2256 H   0  0  0  0  0  0  0  0  0  0  0  0
  141.5086   72.6198  226.2345 H   0  0  0  0  0  0  0  0  0  0  0  0
  1  2  2  0
  2  3  1  0
  3  4  1  0
  4  5  1  0
  5  6  2  0
  5  7  1  0
  7  8  1  0
  8  9  1  0
  9 10  1  0
 10 11  1  0
 11 12  1  0
 12 13  2  0
 13 14  1  0
 14 15  1  0
 15 16  2  0
 16 17  1  0
 17 18  2  0
 18 19  1  0
 19 20  2  0
  2 21  1  0
 21 22  2  0
 22 23  1  0
 23 24  2  0
 24 25  1  0
 25 26  2  0
 26 27  1  0
 26 28  1  0
 28 29  2  0
 29 30  1  0
 30 31  2  0
 11  7  1  0
 20 12  1  0
 31 21  1  0
 20 15  1  0
 30 24  1  0
  3 32  1  0
  4 33  1  0
  4 34  1  0
  8 35  1  0
  8 36  1  0
  9 37  1  0
  9 38  1  0
 10 39  1  0
 10 40  1  0
 11 41  1  6
 13 42  1  0
 14 43  1  0
 16 44  1  0
 17 45  1  0
 18 46  1  0
 19 47  1  0
 22 48  1  0
 23 49  1  0
 25 50  1  0
 28 51  1  0
 29 52  1  0
M  END
>  <smiles>  (16) 
O=C(NCC(=O)N1CCC[C@@H]1c1c[nH]c2ccccc12)c1ccc2cc(Cl)ccc2n1

>  <score_type>  (16) 
oracle

>  <origin>  (16) 
autodockgpu

>  <m_score__min__energy>  (16) 
-9.6999999999999993

>  <m_primary>  (16) 
energy

>  <rmsd>  (16) 
2.273911360219336

>  <m_score__min__rmsd>  (16) 
2.273911360219336

>  <meeko>  (16) 
{"free_energy": -8.54, "intermolecular_energy": -10.04, "internal_energy": -2.17, "cluster_size": 23, "cluster_id": 2, "rank_in_cluster": 21}

>  <energy>  (16) 
-9.38

>  <cluster_rmsd>  (16) 
0.54

>  <cluster>  (16) 
2

$$$$

     RDKit          3D

 52 56  0  0  0  0  0  0  0  0999 V2000
  133.4690   70.0130  226.6680 O   0  0  0  0  0  0  0  0  0  0  0  0
  133.8940   71.1170  226.2220 C   0  0  0  0  0  0  0  0  0  0  0  0
  134.9890   71.1960  225.3000 N   0  0  0  0  0  0  0  0  0  0  0  0
  135.6750   70.0120  224.8200 C   0  0  0  0  0  0  0  0  0  0  0  0
  136.3660   70.3620  223.5640 C   0  0  0  0  0  0  0  0  0  0  0  0
  136.1140   71.5070  223.0680 O   0  0  0  0  0  0  0  0  0  0  0  0
  137.2680   69.4510  222.9500 N   0  0  0  0  0  0  0  0  0  0  0  0
  136.9090   68.1310  222.4430 C   0  0  0  0  0  0  0  0  0  0  0  0
  138.2040   67.4280  222.1710 C   0  0  0  0  0  0  0  0  0  0  0  0
  139.2570   68.5320  222.0690 C   0  0  0  0  0  0  0  0  0  0  0  0
  138.6630   69.7200  222.7510 C   0  0  2  0  0  0  0  0  0  0  0  0
  139.3600   70.1110  223.9790 C   0  0  0  0  0  0  0  0  0  0  0  0
  139.9590   71.3580  224.1790 C   0  0  0  0  0  0  0  0  0  0  0  0
  140.4960   71.3850  225.3860 N   0  0  0  0  0  0  0  0  0  0  0  0
  140.3000   70.2300  226.0280 C   0  0  0  0  0  0  0  0  0  0  0  0
  140.6410   69.7420  227.2740 C   0  0  0  0  0  0  0  0  0  0  0  0
  140.2890   68.4720  227.6640 C   0  0  0  0  0  0  0  0  0  0  0  0
  139.5740   67.6640  226.7840 C   0  0  0  0  0  0  0  0  0  0  0  0
  139.2400   68.1720  225.5400 C   0  0  0  0  0  0  0  0  0  0  0  0
  139.5910   69.4310  225.1560 C   0  0  0  0  0  0  0  0  0  0  0  0
  133.2530   72.3600  226.6600 C   0  0  0  0  0  0  0  0  0  0  0  0
  132.0290   72.3210  227.2940 C   0  0  0  0  0  0  0  0  0  0  0  0
  131.3840   73.4590  227.7240 C   0  0  0  0  0  0  0  0  0  0  0  0
  131.9760   74.6920  227.5170 C   0  0  0  0  0  0  0  0  0  0  0  0
  131.3380   75.8300  227.9440 C   0  0  0  0  0  0  0  0  0  0  0  0
  131.9420   77.0560  227.7290 C   0  0  0  0  0  0  0  0  0  0  0  0
  131.0920   78.4750  228.2890 Cl  0  0  0  0  0  0  0  0  0  0  0  0
  133.1520   77.1040  227.1020 C   0  0  0  0  0  0  0  0  0  0  0  0
  133.7860   75.9530  226.6770 C   0  0  0  0  0  0  0  0  0  0  0  0
  133.2020   74.7080  226.8790 C   0  0  0  0  0  0  0  0  0  0  0  0
  133.8080   73.5700  226.4690 N   0  0  0  0  0  0  0  0  0  0  0  0
  135.2740   72.1660  224.9840 H   0  0  0  0  0  0  0  0  0  0  0  0
  136.4082   69.6765  225.5682 H   0  0  0  0  0  0  0  0  0  0  0  0
  134.9557   69.1982  224.6460 H   0  0  0  0  0  0  0  0  0  0  0  0
  136.3245   67.5790  223.1938 H   0  0  0  0  0  0  0  0  0  0  0  0
  136.2903   68.2018  221.5363 H   0  0  0  0  0  0  0  0  0  0  0  0
  138.4476   66.7397  222.9938 H   0  0  0  0  0  0  0  0  0  0  0  0
  138.1552   66.8256  221.2519 H   0  0  0  0  0  0  0  0  0  0  0  0
  140.1852   68.2246  222.5729 H   0  0  0  0  0  0  0  0  0  0  0  0
  139.5157   68.7514  221.0226 H   0  0  0  0  0  0  0  0  0  0  0  0
  138.7851   70.6046  222.1087 H   0  0  0  0  0  0  0  0  0  0  0  0
  139.9799   72.1821  223.4507 H   0  0  0  0  0  0  0  0  0  0  0  0
  141.0110   72.2090  225.7930 H   0  0  0  0  0  0  0  0  0  0  0  0
  141.2054   70.3822  227.9679 H   0  0  0  0  0  0  0  0  0  0  0  0
  140.5689   68.0982  228.6599 H   0  0  0  0  0  0  0  0  0  0  0  0
  139.2806   66.6434  227.0710 H   0  0  0  0  0  0  0  0  0  0  0  0
  138.6739   67.5396  224.8403 H   0  0  0  0  0  0  0  0  0  0  0  0
  131.5504   71.3450  227.4624 H   0  0  0  0  0  0  0  0  0  0  0  0
  130.4082   73.3884  228.2268 H   0  0  0  0  0  0  0  0  0  0  0  0
  130.3626   75.7682  228.4488 H   0  0  0  0  0  0  0  0  0  0  0  0
  133.6325   78.0787  226.9314 H   0  0  0  0  0  0  0  0  0  0  0  0
  134.7619   76.0222  226.1741 H   0  0  0  0  0  0  0  0  0  0  0  0
  1  2  2  0
  2  3  1  0
  3  4  1  0
  4  5  1  0
  5  6  2  0
  5  7  1  0
  7  8  1  0
  8  9  1  0
  9 10  1  0
 10 11  1  0
 11 12  1  0
 12 13  2  0
 13 14  1  0
 14 15  1  0
 15 16  2  0
 16 17  1  0
 17 18  2  0
 18 19  1  0
 19 20  2  0
  2 21  1  0
 21 22  2  0
 22 23  1  0
 23 24  2  0
 24 25  1  0
 25 26  2  0
 26 27  1  0
 26 28  1  0
 28 29  2  0
 29 30  1  0
 30 31  2  0
 11  7  1  0
 20 12  1  0
 31 21  1  0
 20 15  1  0
 30 24  1  0
  3 32  1  0
  4 33  1  0
  4 34  1  0
  8 35  1  0
  8 36  1  0
  9 37  1  0
  9 38  1  0
 10 39  1  0
 10 40  1  0
 11 41  1  6
 13 42  1  0
 14 43  1  0
 16 44  1  0
 17 45  1  0
 18 46  1  0
 19 47  1  0
 22 48  1  0
 23 49  1  0
 25 50  1  0
 28 51  1  0
 29 52  1  0
M  END
>  <smiles>  (17) 
O=C(NCC(=O)N1CCC[C@@H]1c1c[nH]c2ccccc12)c1ccc2cc(Cl)ccc2n1

>  <score_type>  (17) 
oracle

>  <origin>  (17) 
autodockgpu

>  <m_score__min__energy>  (17) 
-9.6999999999999993

>  <m_primary>  (17) 
energy

>  <rmsd>  (17) 
8.61234695327098

>  <m_score__min__rmsd>  (17) 
8.61234695327098

>  <meeko>  (17) 
{"free_energy": -8.67, "intermolecular_energy": -10.16, "internal_energy": -2.3, "cluster_size": 10, "cluster_id": 1, "rank_in_cluster": 7}

>  <energy>  (17) 
-9.37

>  <cluster_rmsd>  (17) 
0.52

>  <cluster>  (17) 
2

$$$$

     RDKit          3D

 52 56  0  0  0  0  0  0  0  0999 V2000
  139.9710   72.4700  220.8650 O   0  0  0  0  0  0  0  0  0  0  0  0
  139.7630   72.8600  222.0490 C   0  0  0  0  0  0  0  0  0  0  0  0
  139.4160   74.2170  222.3550 N   0  0  0  0  0  0  0  0  0  0  0  0
  139.2800   75.2260  221.3220 C   0  0  0  0  0  0  0  0  0  0  0  0
  138.3930   76.2880  221.8350 C   0  0  0  0  0  0  0  0  0  0  0  0
  137.8970   76.1140  222.9940 O   0  0  0  0  0  0  0  0  0  0  0  0
  138.1160   77.4450  221.0570 N   0  0  0  0  0  0  0  0  0  0  0  0
  137.3000   77.4640  219.8470 C   0  0  0  0  0  0  0  0  0  0  0  0
  137.5330   78.8020  219.2140 C   0  0  0  0  0  0  0  0  0  0  0  0
  138.0920   79.6910  220.3260 C   0  0  0  0  0  0  0  0  0  0  0  0
  138.6110   78.7550  221.3670 C   0  0  2  0  0  0  0  0  0  0  0  0
  140.0670   78.8000  221.5350 C   0  0  0  0  0  0  0  0  0  0  0  0
  140.9630   77.9900  220.8350 C   0  0  0  0  0  0  0  0  0  0  0  0
  142.1930   78.2820  221.2200 N   0  0  0  0  0  0  0  0  0  0  0  0
  142.1930   79.2470  222.1440 C   0  0  0  0  0  0  0  0  0  0  0  0
  143.1740   79.9060  222.8580 C   0  0  0  0  0  0  0  0  0  0  0  0
  142.8580   80.8850  223.7690 C   0  0  0  0  0  0  0  0  0  0  0  0
  141.5210   81.2170  223.9740 C   0  0  0  0  0  0  0  0  0  0  0  0
  140.5520   80.5450  223.2470 C   0  0  0  0  0  0  0  0  0  0  0  0
  140.8690   79.5750  222.3440 C   0  0  0  0  0  0  0  0  0  0  0  0
  139.8800   71.9000  223.1500 C   0  0  0  0  0  0  0  0  0  0  0  0
  139.4930   70.5890  222.9690 C   0  0  0  0  0  0  0  0  0  0  0  0
  139.5820   69.6480  223.9700 C   0  0  0  0  0  0  0  0  0  0  0  0
  140.0760   70.0200  225.2070 C   0  0  0  0  0  0  0  0  0  0  0  0
  140.1680   69.0860  226.2090 C   0  0  0  0  0  0  0  0  0  0  0  0
  140.6640   69.4730  227.4410 C   0  0  0  0  0  0  0  0  0  0  0  0
  140.7600   68.2500  228.6840 Cl  0  0  0  0  0  0  0  0  0  0  0  0
  141.0490   70.7670  227.6300 C   0  0  0  0  0  0  0  0  0  0  0  0
  140.9530   71.6990  226.6140 C   0  0  0  0  0  0  0  0  0  0  0  0
  140.4580   71.3390  225.3670 C   0  0  0  0  0  0  0  0  0  0  0  0
  140.3580   72.2370  224.3620 N   0  0  0  0  0  0  0  0  0  0  0  0
  139.2610   74.4490  223.3770 H   0  0  0  0  0  0  0  0  0  0  0  0
  140.2666   75.6481  221.0805 H   0  0  0  0  0  0  0  0  0  0  0  0
  138.8565   74.7828  220.4087 H   0  0  0  0  0  0  0  0  0  0  0  0
  137.6095   76.6589  219.1644 H   0  0  0  0  0  0  0  0  0  0  0  0
  136.2357   77.3058  220.0757 H   0  0  0  0  0  0  0  0  0  0  0  0
  138.2570   78.7163  218.3903 H   0  0  0  0  0  0  0  0  0  0  0  0
  136.6081   79.2171  218.7871 H   0  0  0  0  0  0  0  0  0  0  0  0
  138.9045   80.3239  219.9395 H   0  0  0  0  0  0  0  0  0  0  0  0
  137.3238   80.3655  220.7322 H   0  0  0  0  0  0  0  0  0  0  0  0
  138.2403   79.0708  222.3533 H   0  0  0  0  0  0  0  0  0  0  0  0
  140.6898   77.2326  220.0855 H   0  0  0  0  0  0  0  0  0  0  0  0
  143.0620   77.8170  220.8480 H   0  0  0  0  0  0  0  0  0  0  0  0
  144.2293   79.6421  222.6943 H   0  0  0  0  0  0  0  0  0  0  0  0
  143.6517   81.4004  224.3298 H   0  0  0  0  0  0  0  0  0  0  0  0
  141.2404   81.9963  224.6978 H   0  0  0  0  0  0  0  0  0  0  0  0
  139.4940   80.8024  223.4035 H   0  0  0  0  0  0  0  0  0  0  0  0
  139.0986   70.2837  221.9886 H   0  0  0  0  0  0  0  0  0  0  0  0
  139.2635   68.6110  223.7878 H   0  0  0  0  0  0  0  0  0  0  0  0
  139.8524   68.0467  226.0350 H   0  0  0  0  0  0  0  0  0  0  0  0
  141.4434   71.0751  228.6095 H   0  0  0  0  0  0  0  0  0  0  0  0
  141.2718   72.7362  226.7946 H   0  0  0  0  0  0  0  0  0  0  0  0
  1  2  2  0
  2  3  1  0
  3  4  1  0
  4  5  1  0
  5  6  2  0
  5  7  1  0
  7  8  1  0
  8  9  1  0
  9 10  1  0
 10 11  1  0
 11 12  1  0
 12 13  2  0
 13 14  1  0
 14 15  1  0
 15 16  2  0
 16 17  1  0
 17 18  2  0
 18 19  1  0
 19 20  2  0
  2 21  1  0
 21 22  2  0
 22 23  1  0
 23 24  2  0
 24 25  1  0
 25 26  2  0
 26 27  1  0
 26 28  1  0
 28 29  2  0
 29 30  1  0
 30 31  2  0
 11  7  1  0
 20 12  1  0
 31 21  1  0
 20 15  1  0
 30 24  1  0
  3 32  1  0
  4 33  1  0
  4 34  1  0
  8 35  1  0
  8 36  1  0
  9 37  1  0
  9 38  1  0
 10 39  1  0
 10 40  1  0
 11 41  1  1
 13 42  1  0
 14 43  1  0
 16 44  1  0
 17 45  1  0
 18 46  1  0
 19 47  1  0
 22 48  1  0
 23 49  1  0
 25 50  1  0
 28 51  1  0
 29 52  1  0
M  END
>  <smiles>  (18) 
O=C(NCC(=O)N1CCC[C@@H]1c1c[nH]c2ccccc12)c1ccc2cc(Cl)ccc2n1

>  <score_type>  (18) 
oracle

>  <origin>  (18) 
autodockgpu

>  <m_score__min__energy>  (18) 
-9.6999999999999993

>  <m_primary>  (18) 
energy

>  <rmsd>  (18) 
2.5635865535870623

>  <m_score__min__rmsd>  (18) 
2.5635865535870623

>  <meeko>  (18) 
{"free_energy": -9.12, "intermolecular_energy": -10.61, "internal_energy": -1.94, "cluster_size": 23, "cluster_id": 2, "rank_in_cluster": 13}

>  <energy>  (18) 
-9.36

>  <cluster_rmsd>  (18) 
0.45

>  <cluster>  (18) 
2

$$$$

     RDKit          3D

 52 56  0  0  0  0  0  0  0  0999 V2000
  137.9050   71.0520  221.3840 O   0  0  0  0  0  0  0  0  0  0  0  0
  138.4750   71.6410  222.3460 C   0  0  0  0  0  0  0  0  0  0  0  0
  138.6950   73.0580  222.3500 N   0  0  0  0  0  0  0  0  0  0  0  0
  138.2730   73.9030  221.2490 C   0  0  0  0  0  0  0  0  0  0  0  0
  138.8690   75.2380  221.4440 C   0  0  0  0  0  0  0  0  0  0  0  0
  139.8860   75.3100  222.2070 O   0  0  0  0  0  0  0  0  0  0  0  0
  138.3220   76.3820  220.8020 N   0  0  0  0  0  0  0  0  0  0  0  0
  137.4600   76.3490  219.6240 C   0  0  0  0  0  0  0  0  0  0  0  0
  137.3810   77.7610  219.1320 C   0  0  0  0  0  0  0  0  0  0  0  0
  137.8010   78.6340  220.3150 C   0  0  0  0  0  0  0  0  0  0  0  0
  138.5520   77.7300  221.2350 C   0  0  2  0  0  0  0  0  0  0  0  0
  139.9740   78.0620  221.3660 C   0  0  0  0  0  0  0  0  0  0  0  0
  140.9910   77.4680  220.6150 C   0  0  0  0  0  0  0  0  0  0  0  0
  142.1500   77.9910  220.9770 N   0  0  0  0  0  0  0  0  0  0  0  0
  141.9870   78.9110  221.9310 C   0  0  0  0  0  0  0  0  0  0  0  0
  142.8390   79.7340  222.6400 C   0  0  0  0  0  0  0  0  0  0  0  0
  142.3630   80.6050  223.5920 C   0  0  0  0  0  0  0  0  0  0  0  0
  140.9950   80.6560  223.8420 C   0  0  0  0  0  0  0  0  0  0  0  0
  140.1570   79.8230  223.1200 C   0  0  0  0  0  0  0  0  0  0  0  0
  140.6320   78.9610  222.1780 C   0  0  0  0  0  0  0  0  0  0  0  0
  138.9310   70.8570  223.4970 C   0  0  0  0  0  0  0  0  0  0  0  0
  138.7030   69.4980  223.5420 C   0  0  0  0  0  0  0  0  0  0  0  0
  139.1100   68.7150  224.5990 C   0  0  0  0  0  0  0  0  0  0  0  0
  139.7710   69.3040  225.6620 C   0  0  0  0  0  0  0  0  0  0  0  0
  140.1800   68.5290  226.7190 C   0  0  0  0  0  0  0  0  0  0  0  0
  140.8400   69.1330  227.7750 C   0  0  0  0  0  0  0  0  0  0  0  0
  141.3390   68.1060  229.0970 Cl  0  0  0  0  0  0  0  0  0  0  0  0
  141.0700   70.4770  227.7400 C   0  0  0  0  0  0  0  0  0  0  0  0
  140.6540   71.2470  226.6700 C   0  0  0  0  0  0  0  0  0  0  0  0
  139.9890   70.6680  225.5970 C   0  0  0  0  0  0  0  0  0  0  0  0
  139.5760   71.4060  224.5420 N   0  0  0  0  0  0  0  0  0  0  0  0
  139.1810   73.4610  223.2000 H   0  0  0  0  0  0  0  0  0  0  0  0
  138.6190   73.4753  220.2964 H   0  0  0  0  0  0  0  0  0  0  0  0
  137.1757   73.9749  221.2216 H   0  0  0  0  0  0  0  0  0  0  0  0
  137.8941   75.6983  218.8506 H   0  0  0  0  0  0  0  0  0  0  0  0
  136.4638   75.9493  219.8643 H   0  0  0  0  0  0  0  0  0  0  0  0
  138.0644   77.9104  218.2831 H   0  0  0  0  0  0  0  0  0  0  0  0
  136.3698   78.0128  218.7797 H   0  0  0  0  0  0  0  0  0  0  0  0
  138.4462   79.4573  219.9745 H   0  0  0  0  0  0  0  0  0  0  0  0
  136.9324   79.0903  220.8124 H   0  0  0  0  0  0  0  0  0  0  0  0
  138.1734   77.8630  222.2592 H   0  0  0  0  0  0  0  0  0  0  0  0
  140.8506   76.6921  219.8480 H   0  0  0  0  0  0  0  0  0  0  0  0
  143.0810   77.7200  220.5670 H   0  0  0  0  0  0  0  0  0  0  0  0
  143.9198   79.6923  222.4396 H   0  0  0  0  0  0  0  0  0  0  0  0
  143.0553   81.2535  224.1490 H   0  0  0  0  0  0  0  0  0  0  0  0
  140.5877   81.3439  224.5976 H   0  0  0  0  0  0  0  0  0  0  0  0
  139.0746   79.8583  223.3129 H   0  0  0  0  0  0  0  0  0  0  0  0
  138.1763   69.0214  222.7021 H   0  0  0  0  0  0  0  0  0  0  0  0
  138.9117   67.6330  224.5982 H   0  0  0  0  0  0  0  0  0  0  0  0
  139.9864   67.4462  226.7264 H   0  0  0  0  0  0  0  0  0  0  0  0
  141.5961   70.9568  228.5785 H   0  0  0  0  0  0  0  0  0  0  0  0
  140.8517   72.3291  226.6684 H   0  0  0  0  0  0  0  0  0  0  0  0
  1  2  2  0
  2  3  1  0
  3  4  1  0
  4  5  1  0
  5  6  2  0
  5  7  1  0
  7  8  1  0
  8  9  1  0
  9 10  1  0
 10 11  1  0
 11 12  1  0
 12 13  2  0
 13 14  1  0
 14 15  1  0
 15 16  2  0
 16 17  1  0
 17 18  2  0
 18 19  1  0
 19 20  2  0
  2 21  1  0
 21 22  2  0
 22 23  1  0
 23 24  2  0
 24 25  1  0
 25 26  2  0
 26 27  1  0
 26 28  1  0
 28 29  2  0
 29 30  1  0
 30 31  2  0
 11  7  1  0
 20 12  1  0
 31 21  1  0
 20 15  1  0
 30 24  1  0
  3 32  1  0
  4 33  1  0
  4 34  1  0
  8 35  1  0
  8 36  1  0
  9 37  1  0
  9 38  1  0
 10 39  1  0
 10 40  1  0
 11 41  1  1
 13 42  1  0
 14 43  1  0
 16 44  1  0
 17 45  1  0
 18 46  1  0
 19 47  1  0
 22 48  1  0
 23 49  1  0
 25 50  1  0
 28 51  1  0
 29 52  1  0
M  END
>  <smiles>  (19) 
O=C(NCC(=O)N1CCC[C@@H]1c1c[nH]c2ccccc12)c1ccc2cc(Cl)ccc2n1

>  <score_type>  (19) 
oracle

>  <origin>  (19) 
autodockgpu

>  <m_score__min__energy>  (19) 
-9.6999999999999993

>  <m_primary>  (19) 
energy

>  <rmsd>  (19) 
1.9655009279740234

>  <m_score__min__rmsd>  (19) 
1.9655009279740234

>  <meeko>  (19) 
{"free_energy": -9.07, "intermolecular_energy": -10.57, "internal_energy": -1.95, "cluster_size": 23, "cluster_id": 2, "rank_in_cluster": 14}

>  <energy>  (19) 
-9.28

>  <cluster_rmsd>  (19) 
0.52

>  <cluster>  (19) 
2

$$$$

     RDKit          3D

 52 56  0  0  0  0  0  0  0  0999 V2000
  139.5160   72.5280  220.4520 O   0  0  0  0  0  0  0  0  0  0  0  0
  140.1650   72.8300  221.4940 C   0  0  0  0  0  0  0  0  0  0  0  0
  140.9700   74.0140  221.5730 N   0  0  0  0  0  0  0  0  0  0  0  0
  141.0860   74.9390  220.4630 C   0  0  0  0  0  0  0  0  0  0  0  0
  140.2980   76.1430  220.7860 C   0  0  0  0  0  0  0  0  0  0  0  0
  140.7960   77.2660  220.4510 O   0  0  0  0  0  0  0  0  0  0  0  0
  139.0420   76.0380  221.4430 N   0  0  0  0  0  0  0  0  0  0  0  0
  137.8870   75.3070  220.9300 C   0  0  0  0  0  0  0  0  0  0  0  0
  136.7270   75.7170  221.7840 C   0  0  0  0  0  0  0  0  0  0  0  0
  137.3400   76.2930  223.0610 C   0  0  0  0  0  0  0  0  0  0  0  0
  138.7480   76.6450  222.7090 C   0  0  2  0  0  0  0  0  0  0  0  0
  139.0270   78.0830  222.7410 C   0  0  0  0  0  0  0  0  0  0  0  0
  138.0680   79.0740  222.5190 C   0  0  0  0  0  0  0  0  0  0  0  0
  138.6460   80.2580  222.6200 N   0  0  0  0  0  0  0  0  0  0  0  0
  139.9470   80.1380  222.9000 C   0  0  0  0  0  0  0  0  0  0  0  0
  140.9810   81.0290  223.1050 C   0  0  0  0  0  0  0  0  0  0  0  0
  142.2550   80.5930  223.3830 C   0  0  0  0  0  0  0  0  0  0  0  0
  142.5030   79.2250  223.4610 C   0  0  0  0  0  0  0  0  0  0  0  0
  141.4510   78.3480  223.2540 C   0  0  0  0  0  0  0  0  0  0  0  0
  140.1900   78.7830  222.9770 C   0  0  0  0  0  0  0  0  0  0  0  0
  140.1000   71.9460  222.6600 C   0  0  0  0  0  0  0  0  0  0  0  0
  139.4520   70.7320  222.5720 C   0  0  0  0  0  0  0  0  0  0  0  0
  139.3610   69.8650  223.6380 C   0  0  0  0  0  0  0  0  0  0  0  0
  139.9370   70.2140  224.8470 C   0  0  0  0  0  0  0  0  0  0  0  0
  139.8510   69.3540  225.9120 C   0  0  0  0  0  0  0  0  0  0  0  0
  140.4310   69.7170  227.1140 C   0  0  0  0  0  0  0  0  0  0  0  0
  140.2940   68.5900  228.4420 Cl  0  0  0  0  0  0  0  0  0  0  0  0
  141.0740   70.9160  227.2110 C   0  0  0  0  0  0  0  0  0  0  0  0
  141.1550   71.7750  226.1310 C   0  0  0  0  0  0  0  0  0  0  0  0
  140.5810   71.4360  224.9120 C   0  0  0  0  0  0  0  0  0  0  0  0
  140.6520   72.2630  223.8450 N   0  0  0  0  0  0  0  0  0  0  0  0
  141.4780   74.1820  222.4880 H   0  0  0  0  0  0  0  0  0  0  0  0
  142.1410   75.2126  220.3143 H   0  0  0  0  0  0  0  0  0  0  0  0
  140.7111   74.4746  219.5390 H   0  0  0  0  0  0  0  0  0  0  0  0
  137.7014   75.5742  219.8792 H   0  0  0  0  0  0  0  0  0  0  0  0
  138.0496   74.2197  220.9660 H   0  0  0  0  0  0  0  0  0  0  0  0
  136.1226   76.4792  221.2705 H   0  0  0  0  0  0  0  0  0  0  0  0
  136.0601   74.8691  221.9991 H   0  0  0  0  0  0  0  0  0  0  0  0
  136.7888   77.1896  223.3807 H   0  0  0  0  0  0  0  0  0  0  0  0
  137.2965   75.5744  223.8927 H   0  0  0  0  0  0  0  0  0  0  0  0
  139.4236   76.2469  223.4804 H   0  0  0  0  0  0  0  0  0  0  0  0
  137.0053   78.8976  222.2965 H   0  0  0  0  0  0  0  0  0  0  0  0
  138.1490   81.1790  222.4980 H   0  0  0  0  0  0  0  0  0  0  0  0
  140.7819   82.1092  223.0448 H   0  0  0  0  0  0  0  0  0  0  0  0
  143.0685   81.3161  223.5419 H   0  0  0  0  0  0  0  0  0  0  0  0
  143.5127   78.8488  223.6823 H   0  0  0  0  0  0  0  0  0  0  0  0
  141.6397   77.2660  223.3152 H   0  0  0  0  0  0  0  0  0  0  0  0
  138.9909   70.4456  221.6153 H   0  0  0  0  0  0  0  0  0  0  0  0
  138.8357   68.9046  223.5296 H   0  0  0  0  0  0  0  0  0  0  0  0
  139.3291   68.3909  225.8118 H   0  0  0  0  0  0  0  0  0  0  0  0
  141.5367   71.2047  228.1663 H   0  0  0  0  0  0  0  0  0  0  0  0
  141.6790   72.7363  226.2377 H   0  0  0  0  0  0  0  0  0  0  0  0
  1  2  2  0
  2  3  1  0
  3  4  1  0
  4  5  1  0
  5  6  2  0
  5  7  1  0
  7  8  1  0
  8  9  1  0
  9 10  1  0
 10 11  1  0
 11 12  1  0
 12 13  2  0
 13 14  1  0
 14 15  1  0
 15 16  2  0
 16 17  1  0
 17 18  2  0
 18 19  1  0
 19 20  2  0
  2 21  1  0
 21 22  2  0
 22 23  1  0
 23 24  2  0
 24 25  1  0
 25 26  2  0
 26 27  1  0
 26 28  1  0
 28 29  2  0
 29 30  1  0
 30 31  2  0
 11  7  1  0
 20 12  1  0
 31 21  1  0
 20 15  1  0
 30 24  1  0
  3 32  1  0
  4 33  1  0
  4 34  1  0
  8 35  1  0
  8 36  1  0
  9 37  1  0
  9 38  1  0
 10 39  1  0
 10 40  1  0
 11 41  1  1
 13 42  1  0
 14 43  1  0
 16 44  1  0
 17 45  1  0
 18 46  1  0
 19 47  1  0
 22 48  1  0
 23 49  1  0
 25 50  1  0
 28 51  1  0
 29 52  1  0
M  END
>  <smiles>  (20) 
O=C(NCC(=O)N1CCC[C@@H]1c1c[nH]c2ccccc12)c1ccc2cc(Cl)ccc2n1

>  <score_type>  (20) 
oracle

>  <origin>  (20) 
autodockgpu

>  <m_score__min__energy>  (20) 
-9.6999999999999993

>  <m_primary>  (20) 
energy

>  <rmsd>  (20) 
3.14476046075357

>  <m_score__min__rmsd>  (20) 
3.14476046075357

>  <meeko>  (20) 
{"free_energy": -8.32, "intermolecular_energy": -9.81, "internal_energy": -2.04, "cluster_size": 23, "cluster_id": 2, "rank_in_cluster": 23}

>  <energy>  (20) 
-9.23

>  <cluster_rmsd>  (20) 
0.63

>  <cluster>  (20) 
2

$$$$

     RDKit          3D

 52 56  0  0  0  0  0  0  0  0999 V2000
  133.4320   69.7740  226.2970 O   0  0  0  0  0  0  0  0  0  0  0  0
  133.6940   70.8550  225.6970 C   0  0  0  0  0  0  0  0  0  0  0  0
  134.4610   70.8880  224.4860 N   0  0  0  0  0  0  0  0  0  0  0  0
  134.9820   69.6810  223.8740 C   0  0  0  0  0  0  0  0  0  0  0  0
  136.4460   69.6690  224.0610 C   0  0  0  0  0  0  0  0  0  0  0  0
  136.9180   70.4380  224.9580 O   0  0  0  0  0  0  0  0  0  0  0  0
  137.2750   68.8310  223.2660 N   0  0  0  0  0  0  0  0  0  0  0  0
  136.7930   67.8260  222.3250 C   0  0  0  0  0  0  0  0  0  0  0  0
  137.9870   67.0010  221.9560 C   0  0  0  0  0  0  0  0  0  0  0  0
  139.2040   67.8540  222.3160 C   0  0  0  0  0  0  0  0  0  0  0  0
  138.7080   68.8690  223.2920 C   0  0  2  0  0  0  0  0  0  0  0  0
  139.2680   68.7220  224.6390 C   0  0  0  0  0  0  0  0  0  0  0  0
  139.3060   67.5180  225.3460 C   0  0  0  0  0  0  0  0  0  0  0  0
  139.8730   67.7310  226.5210 N   0  0  0  0  0  0  0  0  0  0  0  0
  140.2280   69.0110  226.6610 C   0  0  0  0  0  0  0  0  0  0  0  0
  140.8370   69.7450  227.6600 C   0  0  0  0  0  0  0  0  0  0  0  0
  141.0770   71.0900  227.5110 C   0  0  0  0  0  0  0  0  0  0  0  0
  140.7000   71.7220  226.3290 C   0  0  0  0  0  0  0  0  0  0  0  0
  140.0910   70.9680  225.3390 C   0  0  0  0  0  0  0  0  0  0  0  0
  139.8540   69.6350  225.4900 C   0  0  0  0  0  0  0  0  0  0  0  0
  133.2030   72.1190  226.2520 C   0  0  0  0  0  0  0  0  0  0  0  0
  132.0930   72.1310  227.0700 C   0  0  0  0  0  0  0  0  0  0  0  0
  131.5900   73.2900  227.6160 C   0  0  0  0  0  0  0  0  0  0  0  0
  132.2130   74.4950  227.3400 C   0  0  0  0  0  0  0  0  0  0  0  0
  131.7170   75.6540  227.8820 C   0  0  0  0  0  0  0  0  0  0  0  0
  132.3510   76.8500  227.5960 C   0  0  0  0  0  0  0  0  0  0  0  0
  131.6820   78.2980  228.3080 Cl  0  0  0  0  0  0  0  0  0  0  0  0
  133.4490   76.8490  226.7880 C   0  0  0  0  0  0  0  0  0  0  0  0
  133.9400   75.6760  226.2480 C   0  0  0  0  0  0  0  0  0  0  0  0
  133.3240   74.4600  226.5170 C   0  0  0  0  0  0  0  0  0  0  0  0
  133.7910   73.3020  225.9980 N   0  0  0  0  0  0  0  0  0  0  0  0
  134.6290   71.8420  224.0560 H   0  0  0  0  0  0  0  0  0  0  0  0
  134.5372   68.7971  224.3545 H   0  0  0  0  0  0  0  0  0  0  0  0
  134.7338   69.6585  222.8026 H   0  0  0  0  0  0  0  0  0  0  0  0
  136.0248   67.1966  222.7980 H   0  0  0  0  0  0  0  0  0  0  0  0
  136.3341   68.2899  221.4394 H   0  0  0  0  0  0  0  0  0  0  0  0
  137.9950   66.0606  222.5266 H   0  0  0  0  0  0  0  0  0  0  0  0
  137.9808   66.7305  220.8898 H   0  0  0  0  0  0  0  0  0  0  0  0
  139.9872   67.2318  222.7737 H   0  0  0  0  0  0  0  0  0  0  0  0
  139.6473   68.3266  221.4271 H   0  0  0  0  0  0  0  0  0  0  0  0
  139.0604   69.8654  222.9871 H   0  0  0  0  0  0  0  0  0  0  0  0
  138.9263   66.5510  224.9843 H   0  0  0  0  0  0  0  0  0  0  0  0
  140.0280   66.9900  227.2530 H   0  0  0  0  0  0  0  0  0  0  0  0
  141.1356   69.2436  228.5925 H   0  0  0  0  0  0  0  0  0  0  0  0
  141.5616   71.6610  228.3167 H   0  0  0  0  0  0  0  0  0  0  0  0
  140.8818   72.7972  226.1843 H   0  0  0  0  0  0  0  0  0  0  0  0
  139.7897   71.4606  224.4027 H   0  0  0  0  0  0  0  0  0  0  0  0
  131.5907   71.1785  227.2946 H   0  0  0  0  0  0  0  0  0  0  0  0
  130.7023   73.2591  228.2648 H   0  0  0  0  0  0  0  0  0  0  0  0
  130.8304   75.6325  228.5328 H   0  0  0  0  0  0  0  0  0  0  0  0
  133.9535   77.8000  226.5618 H   0  0  0  0  0  0  0  0  0  0  0  0
  134.8274   75.7050  225.5987 H   0  0  0  0  0  0  0  0  0  0  0  0
  1  2  2  0
  2  3  1  0
  3  4  1  0
  4  5  1  0
  5  6  2  0
  5  7  1  0
  7  8  1  0
  8  9  1  0
  9 10  1  0
 10 11  1  0
 11 12  1  0
 12 13  2  0
 13 14  1  0
 14 15  1  0
 15 16  2  0
 16 17  1  0
 17 18  2  0
 18 19  1  0
 19 20  2  0
  2 21  1  0
 21 22  2  0
 22 23  1  0
 23 24  2  0
 24 25  1  0
 25 26  2  0
 26 27  1  0
 26 28  1  0
 28 29  2  0
 29 30  1  0
 30 31  2  0
 11  7  1  0
 20 12  1  0
 31 21  1  0
 20 15  1  0
 30 24  1  0
  3 32  1  0
  4 33  1  0
  4 34  1  0
  8 35  1  0
  8 36  1  0
  9 37  1  0
  9 38  1  0
 10 39  1  0
 10 40  1  0
 11 41  1  6
 13 42  1  0
 14 43  1  0
 16 44  1  0
 17 45  1  0
 18 46  1  0
 19 47  1  0
 22 48  1  0
 23 49  1  0
 25 50  1  0
 28 51  1  0
 29 52  1  0
M  END
>  <smiles>  (21) 
O=C(NCC(=O)N1CCC[C@@H]1c1c[nH]c2ccccc12)c1ccc2cc(Cl)ccc2n1

>  <score_type>  (21) 
oracle

>  <origin>  (21) 
autodockgpu

>  <m_score__min__energy>  (21) 
-9.6999999999999993

>  <m_primary>  (21) 
energy

>  <rmsd>  (21) 
8.698627991635647

>  <m_score__min__rmsd>  (21) 
8.698627991635647

>  <meeko>  (21) 
{"free_energy": -9.09, "intermolecular_energy": -10.58, "internal_energy": -1.64, "cluster_size": 10, "cluster_id": 1, "rank_in_cluster": 3}

>  <energy>  (21) 
-9.21

>  <cluster_rmsd>  (21) 
1.35

>  <cluster>  (21) 
2

$$$$

     RDKit          3D

 52 56  0  0  0  0  0  0  0  0999 V2000
  140.9140   72.2750  221.2180 O   0  0  0  0  0  0  0  0  0  0  0  0
  140.1430   72.5100  222.1920 C   0  0  0  0  0  0  0  0  0  0  0  0
  139.2690   73.6460  222.2160 N   0  0  0  0  0  0  0  0  0  0  0  0
  139.2150   74.5970  221.1220 C   0  0  0  0  0  0  0  0  0  0  0  0
  139.9300   75.8170  221.5420 C   0  0  0  0  0  0  0  0  0  0  0  0
  139.7410   76.2140  222.7360 O   0  0  0  0  0  0  0  0  0  0  0  0
  140.7880   76.5060  220.6410 N   0  0  0  0  0  0  0  0  0  0  0  0
  142.0290   75.9700  220.0920 C   0  0  0  0  0  0  0  0  0  0  0  0
  142.7310   77.1290  219.4540 C   0  0  0  0  0  0  0  0  0  0  0  0
  141.6530   78.1900  219.2300 C   0  0  0  0  0  0  0  0  0  0  0  0
  140.5370   77.8310  220.1540 C   0  0  2  0  0  0  0  0  0  0  0  0
  140.3130   78.8090  221.2230 C   0  0  0  0  0  0  0  0  0  0  0  0
  139.0560   79.2970  221.5880 C   0  0  0  0  0  0  0  0  0  0  0  0
  139.2040   80.1570  222.5810 N   0  0  0  0  0  0  0  0  0  0  0  0
  140.4900   80.2880  222.9190 C   0  0  0  0  0  0  0  0  0  0  0  0
  141.1750   81.0310  223.8590 C   0  0  0  0  0  0  0  0  0  0  0  0
  142.5420   80.9530  223.9720 C   0  0  0  0  0  0  0  0  0  0  0  0
  143.2480   80.1060  223.1210 C   0  0  0  0  0  0  0  0  0  0  0  0
  142.5420   79.3690  222.1850 C   0  0  0  0  0  0  0  0  0  0  0  0
  141.1860   79.4490  222.0750 C   0  0  0  0  0  0  0  0  0  0  0  0
  140.1380   71.5950  223.3360 C   0  0  0  0  0  0  0  0  0  0  0  0
  139.6300   70.3200  223.2010 C   0  0  0  0  0  0  0  0  0  0  0  0
  139.6010   69.4230  224.2450 C   0  0  0  0  0  0  0  0  0  0  0  0
  140.0960   69.8030  225.4800 C   0  0  0  0  0  0  0  0  0  0  0  0
  140.0710   68.9120  226.5230 C   0  0  0  0  0  0  0  0  0  0  0  0
  140.5700   69.3070  227.7520 C   0  0  0  0  0  0  0  0  0  0  0  0
  140.5150   68.1400  229.0500 Cl  0  0  0  0  0  0  0  0  0  0  0  0
  141.0740   70.5660  227.8950 C   0  0  0  0  0  0  0  0  0  0  0  0
  141.0950   71.4550  226.8380 C   0  0  0  0  0  0  0  0  0  0  0  0
  140.6000   71.0860  225.5930 C   0  0  0  0  0  0  0  0  0  0  0  0
  140.6130   71.9420  224.5460 N   0  0  0  0  0  0  0  0  0  0  0  0
  138.6600   73.7590  223.0760 H   0  0  0  0  0  0  0  0  0  0  0  0
  139.6984   74.1691  220.2314 H   0  0  0  0  0  0  0  0  0  0  0  0
  138.1700   74.8335  220.8728 H   0  0  0  0  0  0  0  0  0  0  0  0
  142.6485   75.5419  220.8939 H   0  0  0  0  0  0  0  0  0  0  0  0
  141.8352   75.1664  219.3662 H   0  0  0  0  0  0  0  0  0  0  0  0
  143.5174   77.5151  220.1192 H   0  0  0  0  0  0  0  0  0  0  0  0
  143.2199   76.8402  218.5119 H   0  0  0  0  0  0  0  0  0  0  0  0
  142.0432   79.1901  219.4698 H   0  0  0  0  0  0  0  0  0  0  0  0
  141.3204   78.2168  218.1818 H   0  0  0  0  0  0  0  0  0  0  0  0
  139.5874   77.8514  219.5992 H   0  0  0  0  0  0  0  0  0  0  0  0
  138.0997   79.0123  221.1250 H   0  0  0  0  0  0  0  0  0  0  0  0
  138.4130   80.6740  223.0470 H   0  0  0  0  0  0  0  0  0  0  0  0
  140.6156   81.6986  224.5308 H   0  0  0  0  0  0  0  0  0  0  0  0
  143.0729   81.5527  224.7260 H   0  0  0  0  0  0  0  0  0  0  0  0
  144.3427   80.0243  223.1909 H   0  0  0  0  0  0  0  0  0  0  0  0
  143.0928   78.6982  221.5093 H   0  0  0  0  0  0  0  0  0  0  0  0
  139.2335   70.0083  222.2234 H   0  0  0  0  0  0  0  0  0  0  0  0
  139.1883   68.4139  224.0988 H   0  0  0  0  0  0  0  0  0  0  0  0
  139.6612   67.9006  226.3847 H   0  0  0  0  0  0  0  0  0  0  0  0
  141.4717   70.8798  228.8714 H   0  0  0  0  0  0  0  0  0  0  0  0
  141.5074   72.4644  226.9831 H   0  0  0  0  0  0  0  0  0  0  0  0
  1  2  2  0
  2  3  1  0
  3  4  1  0
  4  5  1  0
  5  6  2  0
  5  7  1  0
  7  8  1  0
  8  9  1  0
  9 10  1  0
 10 11  1  0
 11 12  1  0
 12 13  2  0
 13 14  1  0
 14 15  1  0
 15 16  2  0
 16 17  1  0
 17 18  2  0
 18 19  1  0
 19 20  2  0
  2 21  1  0
 21 22  2  0
 22 23  1  0
 23 24  2  0
 24 25  1  0
 25 26  2  0
 26 27  1  0
 26 28  1  0
 28 29  2  0
 29 30  1  0
 30 31  2  0
 11  7  1  0
 20 12  1  0
 31 21  1  0
 20 15  1  0
 30 24  1  0
  3 32  1  0
  4 33  1  0
  4 34  1  0
  8 35  1  0
  8 36  1  0
  9 37  1  0
  9 38  1  0
 10 39  1  0
 10 40  1  0
 11 41  1  6
 13 42  1  0
 14 43  1  0
 16 44  1  0
 17 45  1  0
 18 46  1  0
 19 47  1  0
 22 48  1  0
 23 49  1  0
 25 50  1  0
 28 51  1  0
 29 52  1  0
M  END
>  <smiles>  (22) 
O=C(NCC(=O)N1CCC[C@@H]1c1c[nH]c2ccccc12)c1ccc2cc(Cl)ccc2n1

>  <score_type>  (22) 
oracle

>  <origin>  (22) 
autodockgpu

>  <m_score__min__energy>  (22) 
-9.6999999999999993

>  <m_primary>  (22) 
energy

>  <rmsd>  (22) 
1.9480055923385402

>  <m_score__min__rmsd>  (22) 
1.9480055923385402

>  <meeko>  (22) 
{"free_energy": -9.49, "intermolecular_energy": -10.99, "internal_energy": -1.59, "cluster_size": 23, "cluster_id": 2, "rank_in_cluster": 1}

>  <energy>  (22) 
-9.18

>  <cluster_rmsd>  (22) 
0.52

>  <cluster>  (22) 
2

$$$$

     RDKit          3D

 52 56  0  0  0  0  0  0  0  0999 V2000
  139.2560   71.9960  220.8560 O   0  0  0  0  0  0  0  0  0  0  0  0
  139.4190   72.4680  222.0170 C   0  0  0  0  0  0  0  0  0  0  0  0
  139.3820   73.8770  222.2790 N   0  0  0  0  0  0  0  0  0  0  0  0
  139.1510   74.8480  221.2260 C   0  0  0  0  0  0  0  0  0  0  0  0
  138.5270   76.0390  221.8310 C   0  0  0  0  0  0  0  0  0  0  0  0
  138.3180   76.0050  223.0870 O   0  0  0  0  0  0  0  0  0  0  0  0
  138.1800   77.1650  221.0350 N   0  0  0  0  0  0  0  0  0  0  0  0
  137.3600   77.1170  219.8300 C   0  0  0  0  0  0  0  0  0  0  0  0
  137.5130   78.4550  219.1740 C   0  0  0  0  0  0  0  0  0  0  0  0
  138.0250   79.3930  220.2680 C   0  0  0  0  0  0  0  0  0  0  0  0
  138.6010   78.5060  221.3210 C   0  0  2  0  0  0  0  0  0  0  0  0
  140.0520   78.6370  221.4810 C   0  0  0  0  0  0  0  0  0  0  0  0
  140.9910   77.8720  220.7850 C   0  0  0  0  0  0  0  0  0  0  0  0
  142.2040   78.2390  221.1600 N   0  0  0  0  0  0  0  0  0  0  0  0
  142.1530   79.2130  222.0730 C   0  0  0  0  0  0  0  0  0  0  0  0
  143.0970   79.9360  222.7750 C   0  0  0  0  0  0  0  0  0  0  0  0
  142.7280   80.9060  223.6760 C   0  0  0  0  0  0  0  0  0  0  0  0
  141.3760   81.1630  223.8840 C   0  0  0  0  0  0  0  0  0  0  0  0
  140.4440   80.4270  223.1700 C   0  0  0  0  0  0  0  0  0  0  0  0
  140.8130   79.4670  222.2770 C   0  0  0  0  0  0  0  0  0  0  0  0
  139.6570   71.5520  223.1360 C   0  0  0  0  0  0  0  0  0  0  0  0
  139.3540   70.2130  223.0100 C   0  0  0  0  0  0  0  0  0  0  0  0
  139.5570   69.3110  224.0300 C   0  0  0  0  0  0  0  0  0  0  0  0
  140.0840   69.7530  225.2310 C   0  0  0  0  0  0  0  0  0  0  0  0
  140.2900   68.8590  226.2510 C   0  0  0  0  0  0  0  0  0  0  0  0
  140.8170   69.3160  227.4450 C   0  0  0  0  0  0  0  0  0  0  0  0
  141.0600   68.1410  228.7140 Cl  0  0  0  0  0  0  0  0  0  0  0  0
  141.1200   70.6390  227.5790 C   0  0  0  0  0  0  0  0  0  0  0  0
  140.9100   71.5310  226.5450 C   0  0  0  0  0  0  0  0  0  0  0  0
  140.3810   71.1000  225.3350 C   0  0  0  0  0  0  0  0  0  0  0  0
  140.1680   71.9580  224.3120 N   0  0  0  0  0  0  0  0  0  0  0  0
  139.5300   74.1780  223.2840 H   0  0  0  0  0  0  0  0  0  0  0  0
  140.1071   75.1250  220.7578 H   0  0  0  0  0  0  0  0  0  0  0  0
  138.4930   74.4235  220.4534 H   0  0  0  0  0  0  0  0  0  0  0  0
  137.7125   76.3197  219.1591 H   0  0  0  0  0  0  0  0  0  0  0  0
  136.3075   76.9019  220.0667 H   0  0  0  0  0  0  0  0  0  0  0  0
  138.2371   78.3971  218.3479 H   0  0  0  0  0  0  0  0  0  0  0  0
  136.5639   78.8092  218.7454 H   0  0  0  0  0  0  0  0  0  0  0  0
  138.7982   80.0647  219.8668 H   0  0  0  0  0  0  0  0  0  0  0  0
  137.2213   80.0293  220.6671 H   0  0  0  0  0  0  0  0  0  0  0  0
  138.2174   78.8163  222.3041 H   0  0  0  0  0  0  0  0  0  0  0  0
  140.7587   77.0915  220.0455 H   0  0  0  0  0  0  0  0  0  0  0  0
  143.0970   77.8210  220.7890 H   0  0  0  0  0  0  0  0  0  0  0  0
  144.1652   79.7316  222.6099 H   0  0  0  0  0  0  0  0  0  0  0  0
  143.4929   81.4731  224.2268 H   0  0  0  0  0  0  0  0  0  0  0  0
  141.0543   81.9338  224.5998 H   0  0  0  0  0  0  0  0  0  0  0  0
  139.3736   80.6240  223.3292 H   0  0  0  0  0  0  0  0  0  0  0  0
  138.9346   69.8520  222.0593 H   0  0  0  0  0  0  0  0  0  0  0  0
  139.3029   68.2497  223.8919 H   0  0  0  0  0  0  0  0  0  0  0  0
  140.0400   67.7957  226.1212 H   0  0  0  0  0  0  0  0  0  0  0  0
  141.5396   71.0029  228.5285 H   0  0  0  0  0  0  0  0  0  0  0  0
  141.1641   72.5925  226.6812 H   0  0  0  0  0  0  0  0  0  0  0  0
  1  2  2  0
  2  3  1  0
  3  4  1  0
  4  5  1  0
  5  6  2  0
  5  7  1  0
  7  8  1  0
  8  9  1  0
  9 10  1  0
 10 11  1  0
 11 12  1  0
 12 13  2  0
 13 14  1  0
 14 15  1  0
 15 16  2  0
 16 17  1  0
 17 18  2  0
 18 19  1  0
 19 20  2  0
  2 21  1  0
 21 22  2  0
 22 23  1  0
 23 24  2  0
 24 25  1  0
 25 26  2  0
 26 27  1  0
 26 28  1  0
 28 29  2  0
 29 30  1  0
 30 31  2  0
 11  7  1  0
 20 12  1  0
 31 21  1  0
 20 15  1  0
 30 24  1  0
  3 32  1  0
  4 33  1  0
  4 34  1  0
  8 35  1  0
  8 36  1  0
  9 37  1  0
  9 38  1  0
 10 39  1  0
 10 40  1  0
 11 41  1  1
 13 42  1  0
 14 43  1  0
 16 44  1  0
 17 45  1  0
 18 46  1  0
 19 47  1  0
 22 48  1  0
 23 49  1  0
 25 50  1  0
 28 51  1  0
 29 52  1  0
M  END
>  <smiles>  (23) 
O=C(NCC(=O)N1CCC[C@@H]1c1c[nH]c2ccccc12)c1ccc2cc(Cl)ccc2n1

>  <score_type>  (23) 
oracle

>  <origin>  (23) 
autodockgpu

>  <m_score__min__energy>  (23) 
-9.6999999999999993

>  <m_primary>  (23) 
energy

>  <rmsd>  (23) 
2.3452085844907384

>  <m_score__min__rmsd>  (23) 
2.3452085844907384

>  <meeko>  (23) 
{"free_energy": -9.05, "intermolecular_energy": -10.54, "internal_energy": -2.04, "cluster_size": 23, "cluster_id": 2, "rank_in_cluster": 15}

>  <energy>  (23) 
-9.12

>  <cluster_rmsd>  (23) 
1.73

>  <cluster>  (23) 
2

$$$$

     RDKit          3D

 52 56  0  0  0  0  0  0  0  0999 V2000
  139.5460   72.2630  220.6200 O   0  0  0  0  0  0  0  0  0  0  0  0
  139.4470   72.7190  221.7950 C   0  0  0  0  0  0  0  0  0  0  0  0
  139.1310   74.0930  222.0550 N   0  0  0  0  0  0  0  0  0  0  0  0
  138.9030   75.0450  220.9840 C   0  0  0  0  0  0  0  0  0  0  0  0
  139.8520   76.1610  221.1550 C   0  0  0  0  0  0  0  0  0  0  0  0
  139.4760   77.1300  221.8900 O   0  0  0  0  0  0  0  0  0  0  0  0
  141.1240   76.1400  220.5210 N   0  0  0  0  0  0  0  0  0  0  0  0
  142.1330   75.1010  220.7020 C   0  0  0  0  0  0  0  0  0  0  0  0
  143.3920   75.6400  220.0960 C   0  0  0  0  0  0  0  0  0  0  0  0
  142.9490   76.7640  219.1580 C   0  0  0  0  0  0  0  0  0  0  0  0
  141.5810   77.1520  219.6130 C   0  0  2  0  0  0  0  0  0  0  0  0
  141.5000   78.5070  220.1660 C   0  0  0  0  0  0  0  0  0  0  0  0
  141.2710   79.6540  219.4020 C   0  0  0  0  0  0  0  0  0  0  0  0
  141.2560   80.7050  220.2030 N   0  0  0  0  0  0  0  0  0  0  0  0
  141.4600   80.3460  221.4730 C   0  0  0  0  0  0  0  0  0  0  0  0
  141.5370   81.0260  222.6730 C   0  0  0  0  0  0  0  0  0  0  0  0
  141.7650   80.3630  223.8550 C   0  0  0  0  0  0  0  0  0  0  0  0
  141.9200   78.9790  223.8410 C   0  0  0  0  0  0  0  0  0  0  0  0
  141.8380   78.3160  222.6270 C   0  0  0  0  0  0  0  0  0  0  0  0
  141.6120   78.9760  221.4570 C   0  0  0  0  0  0  0  0  0  0  0  0
  139.6630   71.8210  222.9320 C   0  0  0  0  0  0  0  0  0  0  0  0
  139.3460   70.4830  222.8260 C   0  0  0  0  0  0  0  0  0  0  0  0
  139.5290   69.5970  223.8650 C   0  0  0  0  0  0  0  0  0  0  0  0
  140.0490   70.0540  225.0620 C   0  0  0  0  0  0  0  0  0  0  0  0
  140.2340   69.1760  226.1000 C   0  0  0  0  0  0  0  0  0  0  0  0
  140.7540   69.6490  227.2920 C   0  0  0  0  0  0  0  0  0  0  0  0
  140.9710   68.4930  228.5840 Cl  0  0  0  0  0  0  0  0  0  0  0  0
  141.0710   70.9700  227.4060 C   0  0  0  0  0  0  0  0  0  0  0  0
  140.8810   71.8460  226.3540 C   0  0  0  0  0  0  0  0  0  0  0  0
  140.3590   71.3990  225.1460 C   0  0  0  0  0  0  0  0  0  0  0  0
  140.1670   72.2420  224.1060 N   0  0  0  0  0  0  0  0  0  0  0  0
  139.0710   74.3820  223.0730 H   0  0  0  0  0  0  0  0  0  0  0  0
  139.0697   74.5592  220.0112 H   0  0  0  0  0  0  0  0  0  0  0  0
  137.8679   75.4158  221.0169 H   0  0  0  0  0  0  0  0  0  0  0  0
  142.2816   74.8945  221.7722 H   0  0  0  0  0  0  0  0  0  0  0  0
  141.8290   74.1564  220.2273 H   0  0  0  0  0  0  0  0  0  0  0  0
  144.0572   76.0331  220.8789 H   0  0  0  0  0  0  0  0  0  0  0  0
  143.9520   74.8596  219.5599 H   0  0  0  0  0  0  0  0  0  0  0  0
  143.6358   77.6200  219.2335 H   0  0  0  0  0  0  0  0  0  0  0  0
  142.9515   76.4409  218.1065 H   0  0  0  0  0  0  0  0  0  0  0  0
  140.9113   77.2026  218.7419 H   0  0  0  0  0  0  0  0  0  0  0  0
  141.1267   79.6783  218.3118 H   0  0  0  0  0  0  0  0  0  0  0  0
  141.1010   81.6970  219.8850 H   0  0  0  0  0  0  0  0  0  0  0  0
  141.4135   82.1190  222.6826 H   0  0  0  0  0  0  0  0  0  0  0  0
  141.8244   80.9195  224.8020 H   0  0  0  0  0  0  0  0  0  0  0  0
  142.1035   78.4244  224.7731 H   0  0  0  0  0  0  0  0  0  0  0  0
  141.9592   77.2229  222.6075 H   0  0  0  0  0  0  0  0  0  0  0  0
  138.9321   70.1098  221.8777 H   0  0  0  0  0  0  0  0  0  0  0  0
  139.2640   68.5363  223.7435 H   0  0  0  0  0  0  0  0  0  0  0  0
  139.9732   68.1134  225.9865 H   0  0  0  0  0  0  0  0  0  0  0  0
  141.4858   71.3457  228.3530 H   0  0  0  0  0  0  0  0  0  0  0  0
  141.1454   72.9070  226.4740 H   0  0  0  0  0  0  0  0  0  0  0  0
  1  2  2  0
  2  3  1  0
  3  4  1  0
  4  5  1  0
  5  6  2  0
  5  7  1  0
  7  8  1  0
  8  9  1  0
  9 10  1  0
 10 11  1  0
 11 12  1  0
 12 13  2  0
 13 14  1  0
 14 15  1  0
 15 16  2  0
 16 17  1  0
 17 18  2  0
 18 19  1  0
 19 20  2  0
  2 21  1  0
 21 22  2  0
 22 23  1  0
 23 24  2  0
 24 25  1  0
 25 26  2  0
 26 27  1  0
 26 28  1  0
 28 29  2  0
 29 30  1  0
 30 31  2  0
 11  7  1  0
 20 12  1  0
 31 21  1  0
 20 15  1  0
 30 24  1  0
  3 32  1  0
  4 33  1  0
  4 34  1  0
  8 35  1  0
  8 36  1  0
  9 37  1  0
  9 38  1  0
 10 39  1  0
 10 40  1  0
 11 41  1  6
 13 42  1  0
 14 43  1  0
 16 44  1  0
 17 45  1  0
 18 46  1  0
 19 47  1  0
 22 48  1  0
 23 49  1  0
 25 50  1  0
 28 51  1  0
 29 52  1  0
M  END
>  <smiles>  (24) 
O=C(NCC(=O)N1CCC[C@@H]1c1c[nH]c2ccccc12)c1ccc2cc(Cl)ccc2n1

>  <score_type>  (24) 
oracle

>  <origin>  (24) 
autodockgpu

>  <m_score__min__energy>  (24) 
-9.6999999999999993

>  <m_primary>  (24) 
energy

>  <rmsd>  (24) 
2.1745324573621216

>  <m_score__min__rmsd>  (24) 
2.1745324573621216

>  <meeko>  (24) 
{"free_energy": -9.21, "intermolecular_energy": -10.7, "internal_energy": -1.6, "cluster_size": 23, "cluster_id": 2, "rank_in_cluster": 11}

>  <energy>  (24) 
-9.07

>  <cluster_rmsd>  (24) 
1.83

>  <cluster>  (24) 
2

$$$$

     RDKit          3D

 52 56  0  0  0  0  0  0  0  0999 V2000
  139.8340   72.3120  220.7180 O   0  0  0  0  0  0  0  0  0  0  0  0
  139.7800   72.7630  221.8970 C   0  0  0  0  0  0  0  0  0  0  0  0
  139.6150   74.1600  222.1720 N   0  0  0  0  0  0  0  0  0  0  0  0
  139.4980   75.1430  221.1110 C   0  0  0  0  0  0  0  0  0  0  0  0
  140.5860   76.1260  221.2760 C   0  0  0  0  0  0  0  0  0  0  0  0
  140.9060   76.4360  222.4690 O   0  0  0  0  0  0  0  0  0  0  0  0
  141.2360   76.6910  220.1450 N   0  0  0  0  0  0  0  0  0  0  0  0
  140.6190   77.6170  219.2020 C   0  0  0  0  0  0  0  0  0  0  0  0
  141.5560   77.7020  218.0360 C   0  0  0  0  0  0  0  0  0  0  0  0
  142.9050   77.2040  218.5560 C   0  0  0  0  0  0  0  0  0  0  0  0
  142.5970   76.4160  219.7850 C   0  0  2  0  0  0  0  0  0  0  0  0
  142.8870   74.9840  219.6630 C   0  0  0  0  0  0  0  0  0  0  0  0
  141.9900   74.0430  219.1520 C   0  0  0  0  0  0  0  0  0  0  0  0
  142.5610   72.8510  219.1800 N   0  0  0  0  0  0  0  0  0  0  0  0
  143.7980   72.9190  219.6800 C   0  0  0  0  0  0  0  0  0  0  0  0
  144.7990   71.9990  219.9220 C   0  0  0  0  0  0  0  0  0  0  0  0
  146.0040   72.3810  220.4620 C   0  0  0  0  0  0  0  0  0  0  0  0
  146.2170   73.7220  220.7690 C   0  0  0  0  0  0  0  0  0  0  0  0
  145.2010   74.6300  220.5170 C   0  0  0  0  0  0  0  0  0  0  0  0
  144.0070   74.2480  219.9820 C   0  0  0  0  0  0  0  0  0  0  0  0
  139.8900   71.8340  223.0250 C   0  0  0  0  0  0  0  0  0  0  0  0
  139.4950   70.5210  222.8810 C   0  0  0  0  0  0  0  0  0  0  0  0
  139.5770   69.6080  223.9080 C   0  0  0  0  0  0  0  0  0  0  0  0
  140.0730   70.0120  225.1350 C   0  0  0  0  0  0  0  0  0  0  0  0
  140.1580   69.1060  226.1630 C   0  0  0  0  0  0  0  0  0  0  0  0
  140.6560   69.5250  227.3840 C   0  0  0  0  0  0  0  0  0  0  0  0
  140.7440   68.3380  228.6610 Cl  0  0  0  0  0  0  0  0  0  0  0  0
  141.0490   70.8230  227.5360 C   0  0  0  0  0  0  0  0  0  0  0  0
  140.9590   71.7260  226.4940 C   0  0  0  0  0  0  0  0  0  0  0  0
  140.4630   71.3330  225.2570 C   0  0  0  0  0  0  0  0  0  0  0  0
  140.3690   72.2030  224.2270 N   0  0  0  0  0  0  0  0  0  0  0  0
  139.5820   74.4430  223.1920 H   0  0  0  0  0  0  0  0  0  0  0  0
  139.5875   74.6483  220.1326 H   0  0  0  0  0  0  0  0  0  0  0  0
  138.5201   75.6442  221.1615 H   0  0  0  0  0  0  0  0  0  0  0  0
  139.6390   77.2367  218.8782 H   0  0  0  0  0  0  0  0  0  0  0  0
  140.4508   78.6041  219.6573 H   0  0  0  0  0  0  0  0  0  0  0  0
  141.2028   77.0643  217.2122 H   0  0  0  0  0  0  0  0  0  0  0  0
  141.6245   78.7269  217.6425 H   0  0  0  0  0  0  0  0  0  0  0  0
  143.3945   76.5671  217.8045 H   0  0  0  0  0  0  0  0  0  0  0  0
  143.5911   78.0370  218.7687 H   0  0  0  0  0  0  0  0  0  0  0  0
  143.2698   76.7333  220.5953 H   0  0  0  0  0  0  0  0  0  0  0  0
  140.9752   74.2584  218.7863 H   0  0  0  0  0  0  0  0  0  0  0  0
  142.1030   71.9610  218.8510 H   0  0  0  0  0  0  0  0  0  0  0  0
  144.6288   70.9400  219.6779 H   0  0  0  0  0  0  0  0  0  0  0  0
  146.7909   71.6356  220.6494 H   0  0  0  0  0  0  0  0  0  0  0  0
  147.1719   74.0539  221.2026 H   0  0  0  0  0  0  0  0  0  0  0  0
  145.3630   75.6914  220.7560 H   0  0  0  0  0  0  0  0  0  0  0  0
  139.0995   70.1906  221.9092 H   0  0  0  0  0  0  0  0  0  0  0  0
  139.2517   68.5684  223.7549 H   0  0  0  0  0  0  0  0  0  0  0  0
  139.8356   68.0643  226.0183 H   0  0  0  0  0  0  0  0  0  0  0  0
  141.4449   71.1567  228.5065 H   0  0  0  0  0  0  0  0  0  0  0  0
  141.2832   72.7662  226.6453 H   0  0  0  0  0  0  0  0  0  0  0  0
  1  2  2  0
  2  3  1  0
  3  4  1  0
  4  5  1  0
  5  6  2  0
  5  7  1  0
  7  8  1  0
  8  9  1  0
  9 10  1  0
 10 11  1  0
 11 12  1  0
 12 13  2  0
 13 14  1  0
 14 15  1  0
 15 16  2  0
 16 17  1  0
 17 18  2  0
 18 19  1  0
 19 20  2  0
  2 21  1  0
 21 22  2  0
 22 23  1  0
 23 24  2  0
 24 25  1  0
 25 26  2  0
 26 27  1  0
 26 28  1  0
 28 29  2  0
 29 30  1  0
 30 31  2  0
 11  7  1  0
 20 12  1  0
 31 21  1  0
 20 15  1  0
 30 24  1  0
  3 32  1  0
  4 33  1  0
  4 34  1  0
  8 35  1  0
  8 36  1  0
  9 37  1  0
  9 38  1  0
 10 39  1  0
 10 40  1  0
 11 41  1  1
 13 42  1  0
 14 43  1  0
 16 44  1  0
 17 45  1  0
 18 46  1  0
 19 47  1  0
 22 48  1  0
 23 49  1  0
 25 50  1  0
 28 51  1  0
 29 52  1  0
M  END
>  <smiles>  (25) 
O=C(NCC(=O)N1CCC[C@@H]1c1c[nH]c2ccccc12)c1ccc2cc(Cl)ccc2n1

>  <score_type>  (25) 
oracle

>  <origin>  (25) 
autodockgpu

>  <m_score__min__energy>  (25) 
-9.6999999999999993

>  <m_primary>  (25) 
energy

>  <rmsd>  (25) 
1.941839340291493

>  <m_score__min__rmsd>  (25) 
1.941839340291493

>  <meeko>  (25) 
{"free_energy": -8.86, "intermolecular_energy": -10.36, "internal_energy": -2.18, "cluster_size": 11, "cluster_id": 3, "rank_in_cluster": 6}

>  <energy>  (25) 
-9.05

>  <cluster_rmsd>  (25) 
1.71

>  <cluster>  (25) 
2

$$$$

     RDKit          3D

 52 56  0  0  0  0  0  0  0  0999 V2000
  140.7500   72.4820  220.8040 O   0  0  0  0  0  0  0  0  0  0  0  0
  140.2100   72.8540  221.8840 C   0  0  0  0  0  0  0  0  0  0  0  0
  139.6210   74.1520  222.0340 N   0  0  0  0  0  0  0  0  0  0  0  0
  139.6080   75.1190  220.9530 C   0  0  0  0  0  0  0  0  0  0  0  0
  140.6980   76.0850  221.1900 C   0  0  0  0  0  0  0  0  0  0  0  0
  141.0300   76.2930  222.4010 O   0  0  0  0  0  0  0  0  0  0  0  0
  141.3370   76.7440  220.1050 N   0  0  0  0  0  0  0  0  0  0  0  0
  140.7050   77.7300  219.2350 C   0  0  0  0  0  0  0  0  0  0  0  0
  141.6370   77.9170  218.0780 C   0  0  0  0  0  0  0  0  0  0  0  0
  142.9950   77.4010  218.5570 C   0  0  0  0  0  0  0  0  0  0  0  0
  142.7010   76.5170  219.7240 C   0  0  2  0  0  0  0  0  0  0  0  0
  143.0110   75.1030  219.4920 C   0  0  0  0  0  0  0  0  0  0  0  0
  142.2020   74.2320  218.7600 C   0  0  0  0  0  0  0  0  0  0  0  0
  142.7670   73.0370  218.7420 N   0  0  0  0  0  0  0  0  0  0  0  0
  143.9190   73.0380  219.4200 C   0  0  0  0  0  0  0  0  0  0  0  0
  144.8780   72.0860  219.7050 C   0  0  0  0  0  0  0  0  0  0  0  0
  145.9900   72.3950  220.4510 C   0  0  0  0  0  0  0  0  0  0  0  0
  146.1510   73.6930  220.9270 C   0  0  0  0  0  0  0  0  0  0  0  0
  145.1780   74.6340  220.6290 C   0  0  0  0  0  0  0  0  0  0  0  0
  144.0770   74.3250  219.8900 C   0  0  0  0  0  0  0  0  0  0  0  0
  140.1820   71.9340  223.0240 C   0  0  0  0  0  0  0  0  0  0  0  0
  139.6530   70.6690  222.8800 C   0  0  0  0  0  0  0  0  0  0  0  0
  139.6020   69.7670  223.9190 C   0  0  0  0  0  0  0  0  0  0  0  0
  140.0970   70.1320  225.1580 C   0  0  0  0  0  0  0  0  0  0  0  0
  140.0500   69.2370  226.1970 C   0  0  0  0  0  0  0  0  0  0  0  0
  140.5490   69.6170  227.4310 C   0  0  0  0  0  0  0  0  0  0  0  0
  140.4660   68.4450  228.7220 Cl  0  0  0  0  0  0  0  0  0  0  0  0
  141.0740   70.8670  227.5830 C   0  0  0  0  0  0  0  0  0  0  0  0
  141.1170   71.7600  226.5300 C   0  0  0  0  0  0  0  0  0  0  0  0
  140.6230   71.4050  225.2800 C   0  0  0  0  0  0  0  0  0  0  0  0
  140.6570   72.2660  224.2390 N   0  0  0  0  0  0  0  0  0  0  0  0
  139.1920   74.3730  222.9780 H   0  0  0  0  0  0  0  0  0  0  0  0
  139.7659   74.6068  219.9924 H   0  0  0  0  0  0  0  0  0  0  0  0
  138.6390   75.6384  220.9175 H   0  0  0  0  0  0  0  0  0  0  0  0
  139.7297   77.3612  218.8845 H   0  0  0  0  0  0  0  0  0  0  0  0
  140.5244   78.6773  219.7641 H   0  0  0  0  0  0  0  0  0  0  0  0
  141.2911   77.3384  217.2088 H   0  0  0  0  0  0  0  0  0  0  0  0
  141.6893   78.9697  217.7631 H   0  0  0  0  0  0  0  0  0  0  0  0
  143.4920   76.8302  217.7588 H   0  0  0  0  0  0  0  0  0  0  0  0
  143.6695   78.2255  218.8313 H   0  0  0  0  0  0  0  0  0  0  0  0
  143.3706   76.7813  220.5558 H   0  0  0  0  0  0  0  0  0  0  0  0
  141.2498   74.4968  218.2770 H   0  0  0  0  0  0  0  0  0  0  0  0
  142.3660   72.1930  218.2570 H   0  0  0  0  0  0  0  0  0  0  0  0
  144.7493   71.0608  219.3277 H   0  0  0  0  0  0  0  0  0  0  0  0
  146.7446   71.6250  220.6695 H   0  0  0  0  0  0  0  0  0  0  0  0
  147.0316   73.9662  221.5269 H   0  0  0  0  0  0  0  0  0  0  0  0
  145.2990   75.6621  221.0010 H   0  0  0  0  0  0  0  0  0  0  0  0
  139.2569   70.3692  221.8985 H   0  0  0  0  0  0  0  0  0  0  0  0
  139.1720   68.7663  223.7654 H   0  0  0  0  0  0  0  0  0  0  0  0
  139.6227   68.2338  226.0517 H   0  0  0  0  0  0  0  0  0  0  0  0
  141.4708   71.1697  228.5633 H   0  0  0  0  0  0  0  0  0  0  0  0
  141.5461   72.7614  226.6820 H   0  0  0  0  0  0  0  0  0  0  0  0
  1  2  2  0
  2  3  1  0
  3  4  1  0
  4  5  1  0
  5  6  2  0
  5  7  1  0
  7  8  1  0
  8  9  1  0
  9 10  1  0
 10 11  1  0
 11 12  1  0
 12 13  2  0
 13 14  1  0
 14 15  1  0
 15 16  2  0
 16 17  1  0
 17 18  2  0
 18 19  1  0
 19 20  2  0
  2 21  1  0
 21 22  2  0
 22 23  1  0
 23 24  2  0
 24 25  1  0
 25 26  2  0
 26 27  1  0
 26 28  1  0
 28 29  2  0
 29 30  1  0
 30 31  2  0
 11  7  1  0
 20 12  1  0
 31 21  1  0
 20 15  1  0
 30 24  1  0
  3 32  1  0
  4 33  1  0
  4 34  1  0
  8 35  1  0
  8 36  1  0
  9 37  1  0
  9 38  1  0
 10 39  1  0
 10 40  1  0
 11 41  1  1
 13 42  1  0
 14 43  1  0
 16 44  1  0
 17 45  1  0
 18 46  1  0
 19 47  1  0
 22 48  1  0
 23 49  1  0
 25 50  1  0
 28 51  1  0
 29 52  1  0
M  END
>  <smiles>  (26) 
O=C(NCC(=O)N1CCC[C@@H]1c1c[nH]c2ccccc12)c1ccc2cc(Cl)ccc2n1

>  <score_type>  (26) 
oracle

>  <origin>  (26) 
autodockgpu

>  <m_score__min__energy>  (26) 
-9.6999999999999993

>  <m_primary>  (26) 
energy

>  <rmsd>  (26) 
2.0527956268680363

>  <m_score__min__rmsd>  (26) 
2.0527956268680363

>  <meeko>  (26) 
{"free_energy": -8.95, "intermolecular_energy": -10.44, "internal_energy": -1.98, "cluster_size": 11, "cluster_id": 3, "rank_in_cluster": 3}

>  <energy>  (26) 
-9.01

>  <cluster_rmsd>  (26) 
0.66

>  <cluster>  (26) 
2

$$$$

     RDKit          3D

 52 56  0  0  0  0  0  0  0  0999 V2000
  139.8250   72.0520  220.7570 O   0  0  0  0  0  0  0  0  0  0  0  0
  139.7710   72.5240  221.9280 C   0  0  0  0  0  0  0  0  0  0  0  0
  139.6080   73.9260  222.1790 N   0  0  0  0  0  0  0  0  0  0  0  0
  139.4940   74.8900  221.1020 C   0  0  0  0  0  0  0  0  0  0  0  0
  140.3160   76.0640  221.4500 C   0  0  0  0  0  0  0  0  0  0  0  0
  140.4420   76.3330  222.6880 O   0  0  0  0  0  0  0  0  0  0  0  0
  140.9320   76.8490  220.4380 N   0  0  0  0  0  0  0  0  0  0  0  0
  142.1230   76.4630  219.6880 C   0  0  0  0  0  0  0  0  0  0  0  0
  142.5750   77.6960  218.9690 C   0  0  0  0  0  0  0  0  0  0  0  0
  141.3590   78.6240  218.9400 C   0  0  0  0  0  0  0  0  0  0  0  0
  140.4550   78.1370  220.0230 C   0  0  2  0  0  0  0  0  0  0  0  0
  140.2940   79.0810  221.1330 C   0  0  0  0  0  0  0  0  0  0  0  0
  139.0700   79.6280  221.5250 C   0  0  0  0  0  0  0  0  0  0  0  0
  139.2730   80.4360  222.5520 N   0  0  0  0  0  0  0  0  0  0  0  0
  140.5650   80.4740  222.8870 C   0  0  0  0  0  0  0  0  0  0  0  0
  141.2970   81.1350  223.8540 C   0  0  0  0  0  0  0  0  0  0  0  0
  142.6580   80.9690  223.9560 C   0  0  0  0  0  0  0  0  0  0  0  0
  143.3080   80.1180  223.0670 C   0  0  0  0  0  0  0  0  0  0  0  0
  142.5560   79.4640  222.1050 C   0  0  0  0  0  0  0  0  0  0  0  0
  141.2070   79.6300  222.0060 C   0  0  0  0  0  0  0  0  0  0  0  0
  139.8780   71.6140  223.0720 C   0  0  0  0  0  0  0  0  0  0  0  0
  139.4570   70.3060  222.9570 C   0  0  0  0  0  0  0  0  0  0  0  0
  139.5360   69.4110  224.0010 C   0  0  0  0  0  0  0  0  0  0  0  0
  140.0540   69.8280  225.2130 C   0  0  0  0  0  0  0  0  0  0  0  0
  140.1360   68.9400  226.2570 C   0  0  0  0  0  0  0  0  0  0  0  0
  140.6570   69.3720  227.4630 C   0  0  0  0  0  0  0  0  0  0  0  0
  140.7400   68.2070  228.7620 Cl  0  0  0  0  0  0  0  0  0  0  0  0
  141.0760   70.6640  227.5870 C   0  0  0  0  0  0  0  0  0  0  0  0
  140.9900   71.5500  226.5290 C   0  0  0  0  0  0  0  0  0  0  0  0
  140.4710   71.1430  225.3060 C   0  0  0  0  0  0  0  0  0  0  0  0
  140.3790   71.9960  224.2610 N   0  0  0  0  0  0  0  0  0  0  0  0
  139.5740   74.2260  223.1950 H   0  0  0  0  0  0  0  0  0  0  0  0
  139.8570   74.4455  220.1636 H   0  0  0  0  0  0  0  0  0  0  0  0
  138.4436   75.1868  220.9654 H   0  0  0  0  0  0  0  0  0  0  0  0
  142.9083   76.1102  220.3727 H   0  0  0  0  0  0  0  0  0  0  0  0
  141.9095   75.6429  218.9867 H   0  0  0  0  0  0  0  0  0  0  0  0
  143.4080   78.1712  219.5078 H   0  0  0  0  0  0  0  0  0  0  0  0
  142.9366   77.4669  217.9557 H   0  0  0  0  0  0  0  0  0  0  0  0
  141.6644   79.6629  219.1333 H   0  0  0  0  0  0  0  0  0  0  0  0
  140.8615   78.6117  217.9590 H   0  0  0  0  0  0  0  0  0  0  0  0
  139.4326   78.0474  219.6271 H   0  0  0  0  0  0  0  0  0  0  0  0
  138.0967   79.4206  221.0562 H   0  0  0  0  0  0  0  0  0  0  0  0
  138.5160   80.9790  223.0440 H   0  0  0  0  0  0  0  0  0  0  0  0
  140.7813   81.8069  224.5558 H   0  0  0  0  0  0  0  0  0  0  0  0
  143.2268   81.5028  224.7315 H   0  0  0  0  0  0  0  0  0  0  0  0
  144.3961   79.9679  223.1271 H   0  0  0  0  0  0  0  0  0  0  0  0
  143.0633   78.7899  221.3992 H   0  0  0  0  0  0  0  0  0  0  0  0
  139.0430   69.9649  221.9966 H   0  0  0  0  0  0  0  0  0  0  0  0
  139.1903   68.3748  223.8717 H   0  0  0  0  0  0  0  0  0  0  0  0
  139.7929   67.9019  226.1361 H   0  0  0  0  0  0  0  0  0  0  0  0
  141.4900   71.0075  228.5465 H   0  0  0  0  0  0  0  0  0  0  0  0
  141.3356   72.5865  226.6566 H   0  0  0  0  0  0  0  0  0  0  0  0
  1  2  2  0
  2  3  1  0
  3  4  1  0
  4  5  1  0
  5  6  2  0
  5  7  1  0
  7  8  1  0
  8  9  1  0
  9 10  1  0
 10 11  1  0
 11 12  1  0
 12 13  2  0
 13 14  1  0
 14 15  1  0
 15 16  2  0
 16 17  1  0
 17 18  2  0
 18 19  1  0
 19 20  2  0
  2 21  1  0
 21 22  2  0
 22 23  1  0
 23 24  2  0
 24 25  1  0
 25 26  2  0
 26 27  1  0
 26 28  1  0
 28 29  2  0
 29 30  1  0
 30 31  2  0
 11  7  1  0
 20 12  1  0
 31 21  1  0
 20 15  1  0
 30 24  1  0
  3 32  1  0
  4 33  1  0
  4 34  1  0
  8 35  1  0
  8 36  1  0
  9 37  1  0
  9 38  1  0
 10 39  1  0
 10 40  1  0
 11 41  1  6
 13 42  1  0
 14 43  1  0
 16 44  1  0
 17 45  1  0
 18 46  1  0
 19 47  1  0
 22 48  1  0
 23 49  1  0
 25 50  1  0
 28 51  1  0
 29 52  1  0
M  END
>  <smiles>  (27) 
O=C(NCC(=O)N1CCC[C@@H]1c1c[nH]c2ccccc12)c1ccc2cc(Cl)ccc2n1

>  <score_type>  (27) 
oracle

>  <origin>  (27) 
autodockgpu

>  <m_score__min__energy>  (27) 
-9.6999999999999993

>  <m_primary>  (27) 
energy

>  <rmsd>  (27) 
1.9955469332350215

>  <m_score__min__rmsd>  (27) 
1.9955469332350215

>  <meeko>  (27) 
{"free_energy": -9.41, "intermolecular_energy": -10.91, "internal_energy": -2.05, "cluster_size": 23, "cluster_id": 2, "rank_in_cluster": 3}

>  <energy>  (27) 
-9.01

>  <cluster_rmsd>  (27) 
0.88

>  <cluster>  (27) 
2

$$$$

     RDKit          3D

 52 56  0  0  0  0  0  0  0  0999 V2000
  133.1390   69.9330  226.4690 O   0  0  0  0  0  0  0  0  0  0  0  0
  133.7520   71.0120  226.2310 C   0  0  0  0  0  0  0  0  0  0  0  0
  135.0100   71.0380  225.5440 N   0  0  0  0  0  0  0  0  0  0  0  0
  135.6560   69.8260  225.0790 C   0  0  0  0  0  0  0  0  0  0  0  0
  136.6900   70.2070  224.0980 C   0  0  0  0  0  0  0  0  0  0  0  0
  136.9250   71.4510  223.9620 O   0  0  0  0  0  0  0  0  0  0  0  0
  137.3830   69.2180  223.3480 N   0  0  0  0  0  0  0  0  0  0  0  0
  136.7580   68.2760  222.4250 C   0  0  0  0  0  0  0  0  0  0  0  0
  137.8050   67.2530  222.1080 C   0  0  0  0  0  0  0  0  0  0  0  0
  139.1400   67.9050  222.4710 C   0  0  0  0  0  0  0  0  0  0  0  0
  138.8030   69.0190  223.4060 C   0  0  2  0  0  0  0  0  0  0  0  0
  139.3060   68.8260  224.7690 C   0  0  0  0  0  0  0  0  0  0  0  0
  139.3180   67.5970  225.4340 C   0  0  0  0  0  0  0  0  0  0  0  0
  139.8350   67.7690  226.6380 N   0  0  0  0  0  0  0  0  0  0  0  0
  140.1790   69.0440  226.8390 C   0  0  0  0  0  0  0  0  0  0  0  0
  140.7430   69.7430  227.8870 C   0  0  0  0  0  0  0  0  0  0  0  0
  140.9850   71.0930  227.7970 C   0  0  0  0  0  0  0  0  0  0  0  0
  140.6550   71.7660  226.6230 C   0  0  0  0  0  0  0  0  0  0  0  0
  140.0910   71.0460  225.5830 C   0  0  0  0  0  0  0  0  0  0  0  0
  139.8520   69.7080  225.6760 C   0  0  0  0  0  0  0  0  0  0  0  0
  133.1650   72.2810  226.6690 C   0  0  0  0  0  0  0  0  0  0  0  0
  131.9560   72.2910  227.3320 C   0  0  0  0  0  0  0  0  0  0  0  0
  131.3600   73.4550  227.7640 C   0  0  0  0  0  0  0  0  0  0  0  0
  131.9890   74.6650  227.5300 C   0  0  0  0  0  0  0  0  0  0  0  0
  131.4010   75.8280  227.9590 C   0  0  0  0  0  0  0  0  0  0  0  0
  132.0420   77.0300  227.7170 C   0  0  0  0  0  0  0  0  0  0  0  0
  131.2550   78.4840  228.2810 Cl  0  0  0  0  0  0  0  0  0  0  0  0
  133.2380   77.0300  227.0620 C   0  0  0  0  0  0  0  0  0  0  0  0
  133.8220   75.8530  226.6350 C   0  0  0  0  0  0  0  0  0  0  0  0
  133.2000   74.6310  226.8640 C   0  0  0  0  0  0  0  0  0  0  0  0
  133.7570   73.4700  226.4530 N   0  0  0  0  0  0  0  0  0  0  0  0
  135.4480   71.9910  225.3920 H   0  0  0  0  0  0  0  0  0  0  0  0
  136.1212   69.3022  225.9271 H   0  0  0  0  0  0  0  0  0  0  0  0
  134.9187   69.1543  224.6151 H   0  0  0  0  0  0  0  0  0  0  0  0
  135.8873   67.7981  222.8978 H   0  0  0  0  0  0  0  0  0  0  0  0
  136.3991   68.7805  221.5158 H   0  0  0  0  0  0  0  0  0  0  0  0
  137.6467   66.3434  222.7060 H   0  0  0  0  0  0  0  0  0  0  0  0
  137.7731   66.9521  221.0504 H   0  0  0  0  0  0  0  0  0  0  0  0
  139.8012   67.1770  222.9639 H   0  0  0  0  0  0  0  0  0  0  0  0
  139.6703   68.2694  221.5788 H   0  0  0  0  0  0  0  0  0  0  0  0
  139.3226   69.9323  223.0807 H   0  0  0  0  0  0  0  0  0  0  0  0
  138.9564   66.6430  225.0228 H   0  0  0  0  0  0  0  0  0  0  0  0
  139.9610   67.0020  227.3490 H   0  0  0  0  0  0  0  0  0  0  0  0
  141.0040   69.2091  228.8126 H   0  0  0  0  0  0  0  0  0  0  0  0
  141.4340   71.6355  228.6421 H   0  0  0  0  0  0  0  0  0  0  0  0
  140.8384   72.8461  226.5240 H   0  0  0  0  0  0  0  0  0  0  0  0
  139.8278   71.5709  224.6528 H   0  0  0  0  0  0  0  0  0  0  0  0
  131.4487   71.3338  227.5229 H   0  0  0  0  0  0  0  0  0  0  0  0
  130.3942   73.4231  228.2895 H   0  0  0  0  0  0  0  0  0  0  0  0
  130.4360   75.8052  228.4866 H   0  0  0  0  0  0  0  0  0  0  0  0
  133.7477   77.9857  226.8699 H   0  0  0  0  0  0  0  0  0  0  0  0
  134.7877   75.8831  226.1092 H   0  0  0  0  0  0  0  0  0  0  0  0
  1  2  2  0
  2  3  1  0
  3  4  1  0
  4  5  1  0
  5  6  2  0
  5  7  1  0
  7  8  1  0
  8  9  1  0
  9 10  1  0
 10 11  1  0
 11 12  1  0
 12 13  2  0
 13 14  1  0
 14 15  1  0
 15 16  2  0
 16 17  1  0
 17 18  2  0
 18 19  1  0
 19 20  2  0
  2 21  1  0
 21 22  2  0
 22 23  1  0
 23 24  2  0
 24 25  1  0
 25 26  2  0
 26 27  1  0
 26 28  1  0
 28 29  2  0
 29 30  1  0
 30 31  2  0
 11  7  1  0
 20 12  1  0
 31 21  1  0
 20 15  1  0
 30 24  1  0
  3 32  1  0
  4 33  1  0
  4 34  1  0
  8 35  1  0
  8 36  1  0
  9 37  1  0
  9 38  1  0
 10 39  1  0
 10 40  1  0
 11 41  1  6
 13 42  1  0
 14 43  1  0
 16 44  1  0
 17 45  1  0
 18 46  1  0
 19 47  1  0
 22 48  1  0
 23 49  1  0
 25 50  1  0
 28 51  1  0
 29 52  1  0
M  END
>  <smiles>  (28) 
O=C(NCC(=O)N1CCC[C@@H]1c1c[nH]c2ccccc12)c1ccc2cc(Cl)ccc2n1

>  <score_type>  (28) 
oracle

>  <origin>  (28) 
autodockgpu

>  <m_score__min__energy>  (28) 
-9.6999999999999993

>  <m_primary>  (28) 
energy

>  <rmsd>  (28) 
8.795547354621435

>  <m_score__min__rmsd>  (28) 
8.795547354621435

>  <meeko>  (28) 
{"free_energy": -9.57, "intermolecular_energy": -11.06, "internal_energy": -2.27, "cluster_size": 10, "cluster_id": 1, "rank_in_cluster": 2}

>  <energy>  (28) 
-8.68

>  <cluster_rmsd>  (28) 
0.77

>  <cluster>  (28) 
2

$$$$

     RDKit          3D

 52 56  0  0  0  0  0  0  0  0999 V2000
  139.5710   70.9080  220.8980 O   0  0  0  0  0  0  0  0  0  0  0  0
  139.3350   71.6080  221.9240 C   0  0  0  0  0  0  0  0  0  0  0  0
  138.6500   72.8650  221.8480 N   0  0  0  0  0  0  0  0  0  0  0  0
  138.1830   73.4110  220.5880 C   0  0  0  0  0  0  0  0  0  0  0  0
  139.1980   74.3630  220.0980 C   0  0  0  0  0  0  0  0  0  0  0  0
  139.6730   74.1520  218.9360 O   0  0  0  0  0  0  0  0  0  0  0  0
  139.6150   75.4600  220.9000 N   0  0  0  0  0  0  0  0  0  0  0  0
  138.8710   76.7040  221.0690 C   0  0  0  0  0  0  0  0  0  0  0  0
  139.8130   77.6610  221.7330 C   0  0  0  0  0  0  0  0  0  0  0  0
  140.9030   76.7930  222.3640 C   0  0  0  0  0  0  0  0  0  0  0  0
  140.8360   75.4820  221.6520 C   0  0  2  0  0  0  0  0  0  0  0  0
  142.0220   75.1840  220.8430 C   0  0  0  0  0  0  0  0  0  0  0  0
  142.7000   76.1270  220.0680 C   0  0  0  0  0  0  0  0  0  0  0  0
  143.7180   75.5340  219.4680 N   0  0  0  0  0  0  0  0  0  0  0  0
  143.7780   74.2380  219.7880 C   0  0  0  0  0  0  0  0  0  0  0  0
  144.6160   73.1930  219.4510 C   0  0  0  0  0  0  0  0  0  0  0  0
  144.4190   71.9300  219.9540 C   0  0  0  0  0  0  0  0  0  0  0  0
  143.3530   71.7010  220.8210 C   0  0  0  0  0  0  0  0  0  0  0  0
  142.5250   72.7620  221.1460 C   0  0  0  0  0  0  0  0  0  0  0  0
  142.7220   74.0140  220.6460 C   0  0  0  0  0  0  0  0  0  0  0  0
  139.7740   71.1260  223.2360 C   0  0  0  0  0  0  0  0  0  0  0  0
  140.5720   71.9190  224.0330 C   0  0  0  0  0  0  0  0  0  0  0  0
  141.0130   71.5130  225.2730 C   0  0  0  0  0  0  0  0  0  0  0  0
  140.6470   70.2660  225.7470 C   0  0  0  0  0  0  0  0  0  0  0  0
  141.0820   69.8570  226.9830 C   0  0  0  0  0  0  0  0  0  0  0  0
  140.7090   68.6070  227.4430 C   0  0  0  0  0  0  0  0  0  0  0  0
  141.2880   68.1290  229.0200 Cl  0  0  0  0  0  0  0  0  0  0  0  0
  139.9190   67.8150  226.6620 C   0  0  0  0  0  0  0  0  0  0  0  0
  139.4870   68.2370  225.4190 C   0  0  0  0  0  0  0  0  0  0  0  0
  139.8470   69.4880  224.9310 C   0  0  0  0  0  0  0  0  0  0  0  0
  139.4320   69.9170  223.7190 N   0  0  0  0  0  0  0  0  0  0  0  0
  138.4990   73.3800  222.7620 H   0  0  0  0  0  0  0  0  0  0  0  0
  138.0485   72.6001  219.8570 H   0  0  0  0  0  0  0  0  0  0  0  0
  137.2179   73.9202  220.7271 H   0  0  0  0  0  0  0  0  0  0  0  0
  138.5542   77.0958  220.0912 H   0  0  0  0  0  0  0  0  0  0  0  0
  137.9618   76.5516  221.6691 H   0  0  0  0  0  0  0  0  0  0  0  0
  140.2492   78.3470  220.9920 H   0  0  0  0  0  0  0  0  0  0  0  0
  139.3013   78.2817  222.4833 H   0  0  0  0  0  0  0  0  0  0  0  0
  141.8911   77.2557  222.2241 H   0  0  0  0  0  0  0  0  0  0  0  0
  140.7529   76.6755  223.4474 H   0  0  0  0  0  0  0  0  0  0  0  0
  140.8331   74.6680  222.3919 H   0  0  0  0  0  0  0  0  0  0  0  0
  142.4312   77.1893  219.9723 H   0  0  0  0  0  0  0  0  0  0  0  0
  144.3960   76.0170  218.8230 H   0  0  0  0  0  0  0  0  0  0  0  0
  145.4575   73.3757  218.7665 H   0  0  0  0  0  0  0  0  0  0  0  0
  145.0955   71.1086  219.6753 H   0  0  0  0  0  0  0  0  0  0  0  0
  143.1730   70.6992  221.2382 H   0  0  0  0  0  0  0  0  0  0  0  0
  141.6810   72.5886  221.8298 H   0  0  0  0  0  0  0  0  0  0  0  0
  140.8674   72.9126  223.6650 H   0  0  0  0  0  0  0  0  0  0  0  0
  141.6496   72.1734  225.8801 H   0  0  0  0  0  0  0  0  0  0  0  0
  141.7167   70.5124  227.5975 H   0  0  0  0  0  0  0  0  0  0  0  0
  139.6203   66.8218  227.0286 H   0  0  0  0  0  0  0  0  0  0  0  0
  138.8522   67.5767  224.8099 H   0  0  0  0  0  0  0  0  0  0  0  0
  1  2  2  0
  2  3  1  0
  3  4  1  0
  4  5  1  0
  5  6  2  0
  5  7  1  0
  7  8  1  0
  8  9  1  0
  9 10  1  0
 10 11  1  0
 11 12  1  0
 12 13  2  0
 13 14  1  0
 14 15  1  0
 15 16  2  0
 16 17  1  0
 17 18  2  0
 18 19  1  0
 19 20  2  0
  2 21  1  0
 21 22  2  0
 22 23  1  0
 23 24  2  0
 24 25  1  0
 25 26  2  0
 26 27  1  0
 26 28  1  0
 28 29  2  0
 29 30  1  0
 30 31  2  0
 11  7  1  0
 20 12  1  0
 31 21  1  0
 20 15  1  0
 30 24  1  0
  3 32  1  0
  4 33  1  0
  4 34  1  0
  8 35  1  0
  8 36  1  0
  9 37  1  0
  9 38  1  0
 10 39  1  0
 10 40  1  0
 11 41  1  1
 13 42  1  0
 14 43  1  0
 16 44  1  0
 17 45  1  0
 18 46  1  0
 19 47  1  0
 22 48  1  0
 23 49  1  0
 25 50  1  0
 28 51  1  0
 29 52  1  0
M  END
>  <smiles>  (29) 
O=C(NCC(=O)N1CCC[C@@H]1c1c[nH]c2ccccc12)c1ccc2cc(Cl)ccc2n1

>  <score_type>  (29) 
oracle

>  <origin>  (29) 
autodockgpu

>  <m_score__min__energy>  (29) 
-9.6999999999999993

>  <m_primary>  (29) 
energy

>  <rmsd>  (29) 
3.148573079257975

>  <m_score__min__rmsd>  (29) 
3.148573079257975

>  <meeko>  (29) 
{"free_energy": -8.24, "intermolecular_energy": -9.73, "internal_energy": -2.13, "cluster_size": 11, "cluster_id": 3, "rank_in_cluster": 8}

>  <energy>  (29) 
-8.67

>  <cluster_rmsd>  (29) 
0.78

>  <cluster>  (29) 
2

$$$$

     RDKit          3D

 52 56  0  0  0  0  0  0  0  0999 V2000
  138.9760   71.4940  220.8910 O   0  0  0  0  0  0  0  0  0  0  0  0
  139.2630   72.0490  221.9900 C   0  0  0  0  0  0  0  0  0  0  0  0
  139.3380   73.4740  222.1280 N   0  0  0  0  0  0  0  0  0  0  0  0
  139.0870   74.3680  221.0140 C   0  0  0  0  0  0  0  0  0  0  0  0
  139.6440   75.6900  221.3550 C   0  0  0  0  0  0  0  0  0  0  0  0
  140.0900   75.8400  222.5370 O   0  0  0  0  0  0  0  0  0  0  0  0
  139.6740   76.7380  220.3950 N   0  0  0  0  0  0  0  0  0  0  0  0
  140.3700   76.6800  219.1130 C   0  0  0  0  0  0  0  0  0  0  0  0
  140.3820   78.0820  218.5870 C   0  0  0  0  0  0  0  0  0  0  0  0
  139.2730   78.8150  219.3440 C   0  0  0  0  0  0  0  0  0  0  0  0
  139.0150   78.0000  220.5680 C   0  0  2  0  0  0  0  0  0  0  0  0
  139.3760   78.6760  221.8190 C   0  0  0  0  0  0  0  0  0  0  0  0
  138.4660   78.9890  222.8310 C   0  0  0  0  0  0  0  0  0  0  0  0
  139.1130   79.5900  223.8150 N   0  0  0  0  0  0  0  0  0  0  0  0
  140.4140   79.7060  223.5370 C   0  0  0  0  0  0  0  0  0  0  0  0
  141.5040   80.2360  224.1980 C   0  0  0  0  0  0  0  0  0  0  0  0
  142.7600   80.2090  223.6400 C   0  0  0  0  0  0  0  0  0  0  0  0
  142.9340   79.6350  222.3840 C   0  0  0  0  0  0  0  0  0  0  0  0
  141.8280   79.1080  221.7370 C   0  0  0  0  0  0  0  0  0  0  0  0
  140.5850   79.1370  222.2930 C   0  0  0  0  0  0  0  0  0  0  0  0
  139.5300   71.2140  223.1640 C   0  0  0  0  0  0  0  0  0  0  0  0
  139.2240   69.8700  223.1420 C   0  0  0  0  0  0  0  0  0  0  0  0
  139.4550   69.0420  224.2180 C   0  0  0  0  0  0  0  0  0  0  0  0
  140.0130   69.5680  225.3700 C   0  0  0  0  0  0  0  0  0  0  0  0
  140.2460   68.7480  226.4450 C   0  0  0  0  0  0  0  0  0  0  0  0
  140.8050   69.2880  227.5900 C   0  0  0  0  0  0  0  0  0  0  0  0
  141.0820   68.2050  228.9320 Cl  0  0  0  0  0  0  0  0  0  0  0  0
  141.1120   70.6160  227.6210 C   0  0  0  0  0  0  0  0  0  0  0  0
  140.8730   71.4330  226.5320 C   0  0  0  0  0  0  0  0  0  0  0  0
  140.3130   70.9180  225.3700 C   0  0  0  0  0  0  0  0  0  0  0  0
  140.0730   71.7020  224.2950 N   0  0  0  0  0  0  0  0  0  0  0  0
  139.5860   73.8450  223.0890 H   0  0  0  0  0  0  0  0  0  0  0  0
  139.5745   73.9803  220.1073 H   0  0  0  0  0  0  0  0  0  0  0  0
  138.0065   74.4466  220.8236 H   0  0  0  0  0  0  0  0  0  0  0  0
  141.3983   76.3151  219.2524 H   0  0  0  0  0  0  0  0  0  0  0  0
  139.8719   75.9915  218.4145 H   0  0  0  0  0  0  0  0  0  0  0  0
  141.3560   78.5558  218.7791 H   0  0  0  0  0  0  0  0  0  0  0  0
  140.2196   78.1101  217.4994 H   0  0  0  0  0  0  0  0  0  0  0  0
  139.6012   79.8281  219.6195 H   0  0  0  0  0  0  0  0  0  0  0  0
  138.3666   78.9259  218.7307 H   0  0  0  0  0  0  0  0  0  0  0  0
  137.9316   77.8437  220.6762 H   0  0  0  0  0  0  0  0  0  0  0  0
  137.3879   78.7713  222.8125 H   0  0  0  0  0  0  0  0  0  0  0  0
  138.6640   79.9330  224.7040 H   0  0  0  0  0  0  0  0  0  0  0  0
  141.3647   80.6888  225.1907 H   0  0  0  0  0  0  0  0  0  0  0  0
  143.6178   80.6362  224.1800 H   0  0  0  0  0  0  0  0  0  0  0  0
  143.9284   79.6005  221.9151 H   0  0  0  0  0  0  0  0  0  0  0  0
  141.9577   78.6524  220.7442 H   0  0  0  0  0  0  0  0  0  0  0  0
  138.7788   69.4431  222.2312 H   0  0  0  0  0  0  0  0  0  0  0  0
  139.1987   67.9737  224.1623 H   0  0  0  0  0  0  0  0  0  0  0  0
  139.9926   67.6786  226.3976 H   0  0  0  0  0  0  0  0  0  0  0  0
  141.5584   71.0455  228.5300 H   0  0  0  0  0  0  0  0  0  0  0  0
  141.1288   72.5015  226.5862 H   0  0  0  0  0  0  0  0  0  0  0  0
  1  2  2  0
  2  3  1  0
  3  4  1  0
  4  5  1  0
  5  6  2  0
  5  7  1  0
  7  8  1  0
  8  9  1  0
  9 10  1  0
 10 11  1  0
 11 12  1  0
 12 13  2  0
 13 14  1  0
 14 15  1  0
 15 16  2  0
 16 17  1  0
 17 18  2  0
 18 19  1  0
 19 20  2  0
  2 21  1  0
 21 22  2  0
 22 23  1  0
 23 24  2  0
 24 25  1  0
 25 26  2  0
 26 27  1  0
 26 28  1  0
 28 29  2  0
 29 30  1  0
 30 31  2  0
 11  7  1  0
 20 12  1  0
 31 21  1  0
 20 15  1  0
 30 24  1  0
  3 32  1  0
  4 33  1  0
  4 34  1  0
  8 35  1  0
  8 36  1  0
  9 37  1  0
  9 38  1  0
 10 39  1  0
 10 40  1  0
 11 41  1  1
 13 42  1  0
 14 43  1  0
 16 44  1  0
 17 45  1  0
 18 46  1  0
 19 47  1  0
 22 48  1  0
 23 49  1  0
 25 50  1  0
 28 51  1  0
 29 52  1  0
M  END
>  <smiles>  (30) 
O=C(NCC(=O)N1CCC[C@@H]1c1c[nH]c2ccccc12)c1ccc2cc(Cl)ccc2n1

>  <score_type>  (30) 
oracle

>  <origin>  (30) 
autodockgpu

>  <m_score__min__energy>  (30) 
-9.6999999999999993

>  <m_primary>  (30) 
energy

>  <rmsd>  (30) 
1.7095167112356693

>  <m_score__min__rmsd>  (30) 
1.7095167112356693

>  <meeko>  (30) 
{"free_energy": -8.47, "intermolecular_energy": -9.97, "internal_energy": -2.26, "cluster_size": 23, "cluster_id": 2, "rank_in_cluster": 22}

>  <energy>  (30) 
-8.58

>  <cluster_rmsd>  (30) 
0.78

>  <cluster>  (30) 
2

$$$$

     RDKit          3D

 52 56  0  0  0  0  0  0  0  0999 V2000
  139.5710   71.5530  220.8190 O   0  0  0  0  0  0  0  0  0  0  0  0
  139.7370   72.0940  221.9490 C   0  0  0  0  0  0  0  0  0  0  0  0
  139.8130   73.5170  222.1090 N   0  0  0  0  0  0  0  0  0  0  0  0
  139.7020   74.4240  220.9820 C   0  0  0  0  0  0  0  0  0  0  0  0
  140.8200   75.3830  221.0550 C   0  0  0  0  0  0  0  0  0  0  0  0
  141.0940   75.8610  222.2030 O   0  0  0  0  0  0  0  0  0  0  0  0
  141.5470   75.7470  219.8890 N   0  0  0  0  0  0  0  0  0  0  0  0
  140.9550   76.2790  218.6660 C   0  0  0  0  0  0  0  0  0  0  0  0
  142.0350   76.2270  217.6300 C   0  0  0  0  0  0  0  0  0  0  0  0
  143.3470   76.1230  218.4080 C   0  0  0  0  0  0  0  0  0  0  0  0
  142.9710   75.6330  219.7670 C   0  0  2  0  0  0  0  0  0  0  0  0
  143.4740   74.2910  220.0750 C   0  0  0  0  0  0  0  0  0  0  0  0
  144.6240   74.0380  220.8270 C   0  0  0  0  0  0  0  0  0  0  0  0
  144.7950   72.7300  220.9190 N   0  0  0  0  0  0  0  0  0  0  0  0
  143.8280   72.0710  220.2740 C   0  0  0  0  0  0  0  0  0  0  0  0
  143.5380   70.7370  220.0640 C   0  0  0  0  0  0  0  0  0  0  0  0
  142.4370   70.3530  219.3350 C   0  0  0  0  0  0  0  0  0  0  0  0
  141.6000   71.3290  218.8010 C   0  0  0  0  0  0  0  0  0  0  0  0
  141.9090   72.6610  219.0250 C   0  0  0  0  0  0  0  0  0  0  0  0
  143.0000   73.0390  219.7470 C   0  0  0  0  0  0  0  0  0  0  0  0
  139.8580   71.2470  223.1380 C   0  0  0  0  0  0  0  0  0  0  0  0
  139.4250   69.9380  223.1010 C   0  0  0  0  0  0  0  0  0  0  0  0
  139.5150   69.1000  224.1900 C   0  0  0  0  0  0  0  0  0  0  0  0
  140.0570   69.5780  225.3690 C   0  0  0  0  0  0  0  0  0  0  0  0
  140.1510   68.7470  226.4580 C   0  0  0  0  0  0  0  0  0  0  0  0
  140.6950   69.2390  227.6310 C   0  0  0  0  0  0  0  0  0  0  0  0
  140.7910   68.1450  228.9880 Cl  0  0  0  0  0  0  0  0  0  0  0  0
  141.1260   70.5330  227.6770 C   0  0  0  0  0  0  0  0  0  0  0  0
  141.0270   71.3600  226.5750 C   0  0  0  0  0  0  0  0  0  0  0  0
  140.4850   70.8930  225.3840 C   0  0  0  0  0  0  0  0  0  0  0  0
  140.3810   71.6880  224.2960 N   0  0  0  0  0  0  0  0  0  0  0  0
  139.9530   73.8770  223.0950 H   0  0  0  0  0  0  0  0  0  0  0  0
  139.7572   73.8577  220.0406 H   0  0  0  0  0  0  0  0  0  0  0  0
  138.7400   74.9564  221.0141 H   0  0  0  0  0  0  0  0  0  0  0  0
  140.0980   75.6628  218.3564 H   0  0  0  0  0  0  0  0  0  0  0  0
  140.5833   77.3042  218.8104 H   0  0  0  0  0  0  0  0  0  0  0  0
  141.9027   75.3486  216.9813 H   0  0  0  0  0  0  0  0  0  0  0  0
  142.0173   77.1135  216.9790 H   0  0  0  0  0  0  0  0  0  0  0  0
  144.0282   75.4116  217.9184 H   0  0  0  0  0  0  0  0  0  0  0  0
  143.8700   77.0896  218.4545 H   0  0  0  0  0  0  0  0  0  0  0  0
  143.4623   76.2595  220.5261 H   0  0  0  0  0  0  0  0  0  0  0  0
  145.2799   74.8019  221.2700 H   0  0  0  0  0  0  0  0  0  0  0  0
  145.5880   72.2660  221.4330 H   0  0  0  0  0  0  0  0  0  0  0  0
  144.2000   69.9675  220.4877 H   0  0  0  0  0  0  0  0  0  0  0  0
  142.2200   69.2865  219.1756 H   0  0  0  0  0  0  0  0  0  0  0  0
  140.7128   71.0488  218.2141 H   0  0  0  0  0  0  0  0  0  0  0  0
  141.2522   73.4378  218.6063 H   0  0  0  0  0  0  0  0  0  0  0  0
  138.9920   69.5493  222.1675 H   0  0  0  0  0  0  0  0  0  0  0  0
  139.1595   68.0612  224.1228 H   0  0  0  0  0  0  0  0  0  0  0  0
  139.7993   67.7064  226.3987 H   0  0  0  0  0  0  0  0  0  0  0  0
  141.5602   70.9247  228.6087 H   0  0  0  0  0  0  0  0  0  0  0  0
  141.3810   72.3994  226.6411 H   0  0  0  0  0  0  0  0  0  0  0  0
  1  2  2  0
  2  3  1  0
  3  4  1  0
  4  5  1  0
  5  6  2  0
  5  7  1  0
  7  8  1  0
  8  9  1  0
  9 10  1  0
 10 11  1  0
 11 12  1  0
 12 13  2  0
 13 14  1  0
 14 15  1  0
 15 16  2  0
 16 17  1  0
 17 18  2  0
 18 19  1  0
 19 20  2  0
  2 21  1  0
 21 22  2  0
 22 23  1  0
 23 24  2  0
 24 25  1  0
 25 26  2  0
 26 27  1  0
 26 28  1  0
 28 29  2  0
 29 30  1  0
 30 31  2  0
 11  7  1  0
 20 12  1  0
 31 21  1  0
 20 15  1  0
 30 24  1  0
  3 32  1  0
  4 33  1  0
  4 34  1  0
  8 35  1  0
  8 36  1  0
  9 37  1  0
  9 38  1  0
 10 39  1  0
 10 40  1  0
 11 41  1  1
 13 42  1  0
 14 43  1  0
 16 44  1  0
 17 45  1  0
 18 46  1  0
 19 47  1  0
 22 48  1  0
 23 49  1  0
 25 50  1  0
 28 51  1  0
 29 52  1  0
M  END
>  <smiles>  (31) 
O=C(NCC(=O)N1CCC[C@@H]1c1c[nH]c2ccccc12)c1ccc2cc(Cl)ccc2n1

>  <score_type>  (31) 
oracle

>  <origin>  (31) 
autodockgpu

>  <m_score__min__energy>  (31) 
-9.6999999999999993

>  <m_primary>  (31) 
energy

>  <rmsd>  (31) 
1.7852089615197542

>  <m_score__min__rmsd>  (31) 
1.7852089615197542

>  <meeko>  (31) 
{"free_energy": -8.12, "intermolecular_energy": -9.61, "internal_energy": -2.66, "cluster_size": 11, "cluster_id": 3, "rank_in_cluster": 11}

>  <energy>  (31) 
-8.54

>  <cluster_rmsd>  (31) 
1.44

>  <cluster>  (31) 
2

$$$$

     RDKit          3D

 52 56  0  0  0  0  0  0  0  0999 V2000
  140.9650   72.4230  220.8840 O   0  0  0  0  0  0  0  0  0  0  0  0
  140.2900   72.7530  221.9000 C   0  0  0  0  0  0  0  0  0  0  0  0
  139.5770   73.9950  221.9710 N   0  0  0  0  0  0  0  0  0  0  0  0
  139.5860   74.9500  220.8790 C   0  0  0  0  0  0  0  0  0  0  0  0
  140.6230   75.9590  221.1630 C   0  0  0  0  0  0  0  0  0  0  0  0
  140.8950   76.1780  222.3870 O   0  0  0  0  0  0  0  0  0  0  0  0
  141.2800   76.6480  220.1060 N   0  0  0  0  0  0  0  0  0  0  0  0
  140.6620   77.6600  219.2560 C   0  0  0  0  0  0  0  0  0  0  0  0
  141.6120   77.8780  218.1190 C   0  0  0  0  0  0  0  0  0  0  0  0
  142.9610   77.3450  218.6020 C   0  0  0  0  0  0  0  0  0  0  0  0
  142.6490   76.4300  219.7380 C   0  0  2  0  0  0  0  0  0  0  0  0
  142.9600   75.0220  219.4710 C   0  0  0  0  0  0  0  0  0  0  0  0
  142.1560   74.1710  218.7100 C   0  0  0  0  0  0  0  0  0  0  0  0
  142.7210   72.9770  218.6650 N   0  0  0  0  0  0  0  0  0  0  0  0
  143.8680   72.9600  219.3490 C   0  0  0  0  0  0  0  0  0  0  0  0
  144.8250   72.0000  219.6140 C   0  0  0  0  0  0  0  0  0  0  0  0
  145.9320   72.2880  220.3760 C   0  0  0  0  0  0  0  0  0  0  0  0
  146.0910   73.5730  220.8870 C   0  0  0  0  0  0  0  0  0  0  0  0
  145.1200   74.5210  220.6090 C   0  0  0  0  0  0  0  0  0  0  0  0
  144.0230   74.2330  219.8550 C   0  0  0  0  0  0  0  0  0  0  0  0
  140.2300   71.8430  223.0460 C   0  0  0  0  0  0  0  0  0  0  0  0
  139.6670   70.5920  222.9080 C   0  0  0  0  0  0  0  0  0  0  0  0
  139.5850   69.6990  223.9530 C   0  0  0  0  0  0  0  0  0  0  0  0
  140.0820   70.0600  225.1920 C   0  0  0  0  0  0  0  0  0  0  0  0
  140.0050   69.1740  226.2370 C   0  0  0  0  0  0  0  0  0  0  0  0
  140.5060   69.5490  227.4710 C   0  0  0  0  0  0  0  0  0  0  0  0
  140.3840   68.3880  228.7700 Cl  0  0  0  0  0  0  0  0  0  0  0  0
  141.0650   70.7840  227.6180 C   0  0  0  0  0  0  0  0  0  0  0  0
  141.1390   71.6680  226.5590 C   0  0  0  0  0  0  0  0  0  0  0  0
  140.6420   71.3190  225.3090 C   0  0  0  0  0  0  0  0  0  0  0  0
  140.7060   72.1700  224.2610 N   0  0  0  0  0  0  0  0  0  0  0  0
  139.0390   74.1840  222.8640 H   0  0  0  0  0  0  0  0  0  0  0  0
  139.8155   74.4347  219.9346 H   0  0  0  0  0  0  0  0  0  0  0  0
  138.6013   75.4310  220.7846 H   0  0  0  0  0  0  0  0  0  0  0  0
  139.6915   77.3034  218.8805 H   0  0  0  0  0  0  0  0  0  0  0  0
  140.4743   78.5920  219.8094 H   0  0  0  0  0  0  0  0  0  0  0  0
  141.2777   77.3260  217.2282 H   0  0  0  0  0  0  0  0  0  0  0  0
  141.6715   78.9394  217.8363 H   0  0  0  0  0  0  0  0  0  0  0  0
  143.4678   76.7957  217.7949 H   0  0  0  0  0  0  0  0  0  0  0  0
  143.6335   78.1595  218.9091 H   0  0  0  0  0  0  0  0  0  0  0  0
  143.3071   76.6703  220.5860 H   0  0  0  0  0  0  0  0  0  0  0  0
  141.2076   74.4489  218.2270 H   0  0  0  0  0  0  0  0  0  0  0  0
  142.3220   72.1460  218.1550 H   0  0  0  0  0  0  0  0  0  0  0  0
  144.6988   70.9857  219.2075 H   0  0  0  0  0  0  0  0  0  0  0  0
  146.6841   71.5116  220.5798 H   0  0  0  0  0  0  0  0  0  0  0  0
  146.9686   73.8301  221.4983 H   0  0  0  0  0  0  0  0  0  0  0  0
  145.2387   75.5385  221.0098 H   0  0  0  0  0  0  0  0  0  0  0  0
  139.2684   70.2962  221.9264 H   0  0  0  0  0  0  0  0  0  0  0  0
  139.1291   68.7091  223.8038 H   0  0  0  0  0  0  0  0  0  0  0  0
  139.5522   68.1815  226.0959 H   0  0  0  0  0  0  0  0  0  0  0  0
  141.4647   71.0821  228.5985 H   0  0  0  0  0  0  0  0  0  0  0  0
  141.5958   72.6577  226.7066 H   0  0  0  0  0  0  0  0  0  0  0  0
  1  2  2  0
  2  3  1  0
  3  4  1  0
  4  5  1  0
  5  6  2  0
  5  7  1  0
  7  8  1  0
  8  9  1  0
  9 10  1  0
 10 11  1  0
 11 12  1  0
 12 13  2  0
 13 14  1  0
 14 15  1  0
 15 16  2  0
 16 17  1  0
 17 18  2  0
 18 19  1  0
 19 20  2  0
  2 21  1  0
 21 22  2  0
 22 23  1  0
 23 24  2  0
 24 25  1  0
 25 26  2  0
 26 27  1  0
 26 28  1  0
 28 29  2  0
 29 30  1  0
 30 31  2  0
 11  7  1  0
 20 12  1  0
 31 21  1  0
 20 15  1  0
 30 24  1  0
  3 32  1  0
  4 33  1  0
  4 34  1  0
  8 35  1  0
  8 36  1  0
  9 37  1  0
  9 38  1  0
 10 39  1  0
 10 40  1  0
 11 41  1  1
 13 42  1  0
 14 43  1  0
 16 44  1  0
 17 45  1  0
 18 46  1  0
 19 47  1  0
 22 48  1  0
 23 49  1  0
 25 50  1  0
 28 51  1  0
 29 52  1  0
M  END
>  <smiles>  (32) 
O=C(NCC(=O)N1CCC[C@@H]1c1c[nH]c2ccccc12)c1ccc2cc(Cl)ccc2n1

>  <score_type>  (32) 
oracle

>  <origin>  (32) 
autodockgpu

>  <m_score__min__energy>  (32) 
-9.6999999999999993

>  <m_primary>  (32) 
energy

>  <rmsd>  (32) 
1.9991299505126416

>  <m_score__min__rmsd>  (32) 
1.9991299505126416

>  <meeko>  (32) 
{"free_energy": -8.93, "intermolecular_energy": -10.43, "internal_energy": -1.94, "cluster_size": 11, "cluster_id": 3, "rank_in_cluster": 5}

>  <energy>  (32) 
-8.47

>  <cluster_rmsd>  (32) 
0.99

>  <cluster>  (32) 
2

$$$$

     RDKit          3D

 52 56  0  0  0  0  0  0  0  0999 V2000
  133.2600   70.0920  226.5150 O   0  0  0  0  0  0  0  0  0  0  0  0
  133.7710   71.1880  226.1480 C   0  0  0  0  0  0  0  0  0  0  0  0
  134.9190   71.2440  225.2900 N   0  0  0  0  0  0  0  0  0  0  0  0
  135.5620   70.0450  224.7890 C   0  0  0  0  0  0  0  0  0  0  0  0
  136.4530   70.4340  223.6800 C   0  0  0  0  0  0  0  0  0  0  0  0
  136.4170   71.6520  223.3110 O   0  0  0  0  0  0  0  0  0  0  0  0
  137.3070   69.4800  223.0610 N   0  0  0  0  0  0  0  0  0  0  0  0
  136.8910   68.1590  222.5990 C   0  0  0  0  0  0  0  0  0  0  0  0
  138.1530   67.4090  222.3050 C   0  0  0  0  0  0  0  0  0  0  0  0
  139.2370   68.4760  222.1430 C   0  0  0  0  0  0  0  0  0  0  0  0
  138.7020   69.6980  222.8120 C   0  0  2  0  0  0  0  0  0  0  0  0
  139.4500   70.0960  224.0090 C   0  0  0  0  0  0  0  0  0  0  0  0
  140.0800   71.3330  224.1640 C   0  0  0  0  0  0  0  0  0  0  0  0
  140.6600   71.3710  225.3510 N   0  0  0  0  0  0  0  0  0  0  0  0
  140.4630   70.2310  226.0210 C   0  0  0  0  0  0  0  0  0  0  0  0
  140.8380   69.7590  227.2630 C   0  0  0  0  0  0  0  0  0  0  0  0
  140.4740   68.5030  227.6880 C   0  0  0  0  0  0  0  0  0  0  0  0
  139.7110   67.6950  226.8490 C   0  0  0  0  0  0  0  0  0  0  0  0
  139.3450   68.1880  225.6080 C   0  0  0  0  0  0  0  0  0  0  0  0
  139.7080   69.4330  225.1880 C   0  0  0  0  0  0  0  0  0  0  0  0
  133.1790   72.4450  226.6110 C   0  0  0  0  0  0  0  0  0  0  0  0
  131.9730   72.4370  227.2790 C   0  0  0  0  0  0  0  0  0  0  0  0
  131.3730   73.5900  227.7340 C   0  0  0  0  0  0  0  0  0  0  0  0
  131.9930   74.8070  227.5190 C   0  0  0  0  0  0  0  0  0  0  0  0
  131.4010   75.9590  227.9710 C   0  0  0  0  0  0  0  0  0  0  0  0
  132.0340   77.1690  227.7470 C   0  0  0  0  0  0  0  0  0  0  0  0
  131.2400   78.6080  228.3400 Cl  0  0  0  0  0  0  0  0  0  0  0  0
  133.2270   77.1880  227.0870 C   0  0  0  0  0  0  0  0  0  0  0  0
  133.8150   76.0210  226.6360 C   0  0  0  0  0  0  0  0  0  0  0  0
  133.2020   74.7920  226.8460 C   0  0  0  0  0  0  0  0  0  0  0  0
  133.7630   73.6410  226.4130 N   0  0  0  0  0  0  0  0  0  0  0  0
  135.2760   72.2090  225.0370 H   0  0  0  0  0  0  0  0  0  0  0  0
  136.1486   69.5733  225.5911 H   0  0  0  0  0  0  0  0  0  0  0  0
  134.8076   69.3254  224.4381 H   0  0  0  0  0  0  0  0  0  0  0  0
  136.3140   67.6445  223.3815 H   0  0  0  0  0  0  0  0  0  0  0  0
  136.2463   68.2272  221.7104 H   0  0  0  0  0  0  0  0  0  0  0  0
  138.4007   66.7331  223.1367 H   0  0  0  0  0  0  0  0  0  0  0  0
  138.0561   66.7868  221.4031 H   0  0  0  0  0  0  0  0  0  0  0  0
  140.1703   68.1514  222.6263 H   0  0  0  0  0  0  0  0  0  0  0  0
  139.4701   68.6613  221.0841 H   0  0  0  0  0  0  0  0  0  0  0  0
  138.8310   70.5618  222.1432 H   0  0  0  0  0  0  0  0  0  0  0  0
  140.0915   72.1430  223.4199 H   0  0  0  0  0  0  0  0  0  0  0  0
  141.2060   72.1900  225.7250 H   0  0  0  0  0  0  0  0  0  0  0  0
  141.4392   70.3997  227.9249 H   0  0  0  0  0  0  0  0  0  0  0  0
  140.7821   68.1405  228.6798 H   0  0  0  0  0  0  0  0  0  0  0  0
  139.4056   66.6867  227.1653 H   0  0  0  0  0  0  0  0  0  0  0  0
  138.7424   67.5551  224.9400 H   0  0  0  0  0  0  0  0  0  0  0  0
  131.4715   71.4740  227.4551 H   0  0  0  0  0  0  0  0  0  0  0  0
  130.4099   73.5432  228.2633 H   0  0  0  0  0  0  0  0  0  0  0  0
  130.4388   75.9215  228.5028 H   0  0  0  0  0  0  0  0  0  0  0  0
  133.7309   78.1497  226.9102 H   0  0  0  0  0  0  0  0  0  0  0  0
  134.7777   76.0659  226.1057 H   0  0  0  0  0  0  0  0  0  0  0  0
  1  2  2  0
  2  3  1  0
  3  4  1  0
  4  5  1  0
  5  6  2  0
  5  7  1  0
  7  8  1  0
  8  9  1  0
  9 10  1  0
 10 11  1  0
 11 12  1  0
 12 13  2  0
 13 14  1  0
 14 15  1  0
 15 16  2  0
 16 17  1  0
 17 18  2  0
 18 19  1  0
 19 20  2  0
  2 21  1  0
 21 22  2  0
 22 23  1  0
 23 24  2  0
 24 25  1  0
 25 26  2  0
 26 27  1  0
 26 28  1  0
 28 29  2  0
 29 30  1  0
 30 31  2  0
 11  7  1  0
 20 12  1  0
 31 21  1  0
 20 15  1  0
 30 24  1  0
  3 32  1  0
  4 33  1  0
  4 34  1  0
  8 35  1  0
  8 36  1  0
  9 37  1  0
  9 38  1  0
 10 39  1  0
 10 40  1  0
 11 41  1  6
 13 42  1  0
 14 43  1  0
 16 44  1  0
 17 45  1  0
 18 46  1  0
 19 47  1  0
 22 48  1  0
 23 49  1  0
 25 50  1  0
 28 51  1  0
 29 52  1  0
M  END
>  <smiles>  (33) 
O=C(NCC(=O)N1CCC[C@@H]1c1c[nH]c2ccccc12)c1ccc2cc(Cl)ccc2n1

>  <score_type>  (33) 
oracle

>  <origin>  (33) 
autodockgpu

>  <m_score__min__energy>  (33) 
-9.6999999999999993

>  <m_primary>  (33) 
energy

>  <rmsd>  (33) 
8.65151057376168

>  <m_score__min__rmsd>  (33) 
8.65151057376168

>  <meeko>  (33) 
{"free_energy": -8.72, "intermolecular_energy": -10.22, "internal_energy": -2.31, "cluster_size": 10, "cluster_id": 1, "rank_in_cluster": 6}

>  <energy>  (33) 
-8.32

>  <cluster_rmsd>  (33) 
1.48

>  <cluster>  (33) 
2

$$$$

     RDKit          3D

 52 56  0  0  0  0  0  0  0  0999 V2000
  139.6910   71.9180  220.7300 O   0  0  0  0  0  0  0  0  0  0  0  0
  139.6890   72.4080  221.8960 C   0  0  0  0  0  0  0  0  0  0  0  0
  139.5660   73.8170  222.1300 N   0  0  0  0  0  0  0  0  0  0  0  0
  139.4340   74.7680  221.0430 C   0  0  0  0  0  0  0  0  0  0  0  0
  140.1150   76.0140  221.4400 C   0  0  0  0  0  0  0  0  0  0  0  0
  140.1750   76.2660  222.6870 O   0  0  0  0  0  0  0  0  0  0  0  0
  140.6740   76.8830  220.4640 N   0  0  0  0  0  0  0  0  0  0  0  0
  141.7890   76.5480  219.5850 C   0  0  0  0  0  0  0  0  0  0  0  0
  142.2210   77.8370  218.9570 C   0  0  0  0  0  0  0  0  0  0  0  0
  141.0360   78.7910  219.1190 C   0  0  0  0  0  0  0  0  0  0  0  0
  140.2050   78.2160  220.2190 C   0  0  2  0  0  0  0  0  0  0  0  0
  140.1600   79.0470  221.4260 C   0  0  0  0  0  0  0  0  0  0  0  0
  138.9810   79.4450  222.0610 C   0  0  0  0  0  0  0  0  0  0  0  0
  139.2910   80.1800  223.1140 N   0  0  0  0  0  0  0  0  0  0  0  0
  140.6150   80.3100  223.2400 C   0  0  0  0  0  0  0  0  0  0  0  0
  141.4460   80.9530  224.1360 C   0  0  0  0  0  0  0  0  0  0  0  0
  142.8130   80.9060  224.0010 C   0  0  0  0  0  0  0  0  0  0  0  0
  143.3680   80.1940  222.9410 C   0  0  0  0  0  0  0  0  0  0  0  0
  142.5170   79.5550  222.0540 C   0  0  0  0  0  0  0  0  0  0  0  0
  141.1630   79.6040  222.1900 C   0  0  0  0  0  0  0  0  0  0  0  0
  139.8180   71.5130  223.0480 C   0  0  0  0  0  0  0  0  0  0  0  0
  139.4110   70.1990  222.9530 C   0  0  0  0  0  0  0  0  0  0  0  0
  139.5100   69.3170  224.0060 C   0  0  0  0  0  0  0  0  0  0  0  0
  140.0350   69.7540  225.2090 C   0  0  0  0  0  0  0  0  0  0  0  0
  140.1380   68.8800  226.2610 C   0  0  0  0  0  0  0  0  0  0  0  0
  140.6640   69.3320  227.4580 C   0  0  0  0  0  0  0  0  0  0  0  0
  140.7730   68.1830  228.7690 Cl  0  0  0  0  0  0  0  0  0  0  0  0
  141.0700   70.6300  227.5620 C   0  0  0  0  0  0  0  0  0  0  0  0
  140.9630   71.5020  226.4960 C   0  0  0  0  0  0  0  0  0  0  0  0
  140.4370   71.0750  225.2820 C   0  0  0  0  0  0  0  0  0  0  0  0
  140.3260   71.9140  224.2280 N   0  0  0  0  0  0  0  0  0  0  0  0
  139.5760   74.1320  223.1420 H   0  0  0  0  0  0  0  0  0  0  0  0
  139.9003   74.3617  220.1333 H   0  0  0  0  0  0  0  0  0  0  0  0
  138.3718   74.9637  220.8345 H   0  0  0  0  0  0  0  0  0  0  0  0
  142.6146   76.1098  220.1649 H   0  0  0  0  0  0  0  0  0  0  0  0
  141.4954   75.8083  218.8257 H   0  0  0  0  0  0  0  0  0  0  0  0
  143.1082   78.2360  219.4706 H   0  0  0  0  0  0  0  0  0  0  0  0
  142.4943   77.7033  217.8999 H   0  0  0  0  0  0  0  0  0  0  0  0
  141.3876   79.7976  219.3894 H   0  0  0  0  0  0  0  0  0  0  0  0
  140.4629   78.8905  218.1854 H   0  0  0  0  0  0  0  0  0  0  0  0
  139.1524   78.1885  219.9009 H   0  0  0  0  0  0  0  0  0  0  0  0
  137.9615   79.1884  221.7372 H   0  0  0  0  0  0  0  0  0  0  0  0
  138.5890   80.6090  223.7720 H   0  0  0  0  0  0  0  0  0  0  0  0
  141.0055   81.5135  224.9737 H   0  0  0  0  0  0  0  0  0  0  0  0
  143.4613   81.4251  224.7223 H   0  0  0  0  0  0  0  0  0  0  0  0
  144.4589   80.1400  222.8106 H   0  0  0  0  0  0  0  0  0  0  0  0
  142.9483   78.9907  221.2140 H   0  0  0  0  0  0  0  0  0  0  0  0
  138.9917   69.8420  222.0008 H   0  0  0  0  0  0  0  0  0  0  0  0
  139.1750   68.2755  223.8917 H   0  0  0  0  0  0  0  0  0  0  0  0
  139.8076   67.8362  226.1546 H   0  0  0  0  0  0  0  0  0  0  0  0
  141.4906   70.9892  228.5128 H   0  0  0  0  0  0  0  0  0  0  0  0
  141.2971   72.5440  226.6087 H   0  0  0  0  0  0  0  0  0  0  0  0
  1  2  2  0
  2  3  1  0
  3  4  1  0
  4  5  1  0
  5  6  2  0
  5  7  1  0
  7  8  1  0
  8  9  1  0
  9 10  1  0
 10 11  1  0
 11 12  1  0
 12 13  2  0
 13 14  1  0
 14 15  1  0
 15 16  2  0
 16 17  1  0
 17 18  2  0
 18 19  1  0
 19 20  2  0
  2 21  1  0
 21 22  2  0
 22 23  1  0
 23 24  2  0
 24 25  1  0
 25 26  2  0
 26 27  1  0
 26 28  1  0
 28 29  2  0
 29 30  1  0
 30 31  2  0
 11  7  1  0
 20 12  1  0
 31 21  1  0
 20 15  1  0
 30 24  1  0
  3 32  1  0
  4 33  1  0
  4 34  1  0
  8 35  1  0
  8 36  1  0
  9 37  1  0
  9 38  1  0
 10 39  1  0
 10 40  1  0
 11 41  1  6
 13 42  1  0
 14 43  1  0
 16 44  1  0
 17 45  1  0
 18 46  1  0
 19 47  1  0
 22 48  1  0
 23 49  1  0
 25 50  1  0
 28 51  1  0
 29 52  1  0
M  END
>  <smiles>  (34) 
O=C(NCC(=O)N1CCC[C@@H]1c1c[nH]c2ccccc12)c1ccc2cc(Cl)ccc2n1

>  <score_type>  (34) 
oracle

>  <origin>  (34) 
autodockgpu

>  <m_score__min__energy>  (34) 
-9.6999999999999993

>  <m_primary>  (34) 
energy

>  <rmsd>  (34) 
1.9222644151363597

>  <m_score__min__rmsd>  (34) 
1.9222644151363597

>  <meeko>  (34) 
{"free_energy": -9.28, "intermolecular_energy": -10.77, "internal_energy": -2.1, "cluster_size": 23, "cluster_id": 2, "rank_in_cluster": 9}

>  <energy>  (34) 
-8.97

>  <cluster_rmsd>  (34) 
0.0

>  <cluster>  (34) 
3

$$$$

     RDKit          3D

 52 56  0  0  0  0  0  0  0  0999 V2000
  139.8250   72.0740  220.7150 O   0  0  0  0  0  0  0  0  0  0  0  0
  139.7720   72.5360  221.8910 C   0  0  0  0  0  0  0  0  0  0  0  0
  139.6080   73.9360  222.1520 N   0  0  0  0  0  0  0  0  0  0  0  0
  139.4930   74.9090  221.0830 C   0  0  0  0  0  0  0  0  0  0  0  0
  140.3240   76.0760  221.4350 C   0  0  0  0  0  0  0  0  0  0  0  0
  140.4570   76.3360  222.6740 O   0  0  0  0  0  0  0  0  0  0  0  0
  140.9420   76.8630  220.4250 N   0  0  0  0  0  0  0  0  0  0  0  0
  142.1320   76.4760  219.6730 C   0  0  0  0  0  0  0  0  0  0  0  0
  142.5860   77.7110  218.9570 C   0  0  0  0  0  0  0  0  0  0  0  0
  141.3720   78.6410  218.9320 C   0  0  0  0  0  0  0  0  0  0  0  0
  140.4670   78.1520  220.0140 C   0  0  2  0  0  0  0  0  0  0  0  0
  140.3080   79.0930  221.1270 C   0  0  0  0  0  0  0  0  0  0  0  0
  139.0870   79.6510  221.5130 C   0  0  0  0  0  0  0  0  0  0  0  0
  139.2910   80.4530  222.5440 N   0  0  0  0  0  0  0  0  0  0  0  0
  140.5820   80.4760  222.8890 C   0  0  0  0  0  0  0  0  0  0  0  0
  141.3140   81.1250  223.8630 C   0  0  0  0  0  0  0  0  0  0  0  0
  142.6720   80.9450  223.9740 C   0  0  0  0  0  0  0  0  0  0  0  0
  143.3190   80.0900  223.0860 C   0  0  0  0  0  0  0  0  0  0  0  0
  142.5670   79.4480  222.1160 C   0  0  0  0  0  0  0  0  0  0  0  0
  141.2210   79.6290  222.0090 C   0  0  0  0  0  0  0  0  0  0  0  0
  139.8800   71.6170  223.0270 C   0  0  0  0  0  0  0  0  0  0  0  0
  139.4700   70.3070  222.8980 C   0  0  0  0  0  0  0  0  0  0  0  0
  139.5500   69.4040  223.9350 C   0  0  0  0  0  0  0  0  0  0  0  0
  140.0580   69.8140  225.1540 C   0  0  0  0  0  0  0  0  0  0  0  0
  140.1410   68.9180  226.1900 C   0  0  0  0  0  0  0  0  0  0  0  0
  140.6520   69.3440  227.4030 C   0  0  0  0  0  0  0  0  0  0  0  0
  140.7360   68.1680  228.6920 Cl  0  0  0  0  0  0  0  0  0  0  0  0
  141.0600   70.6380  227.5400 C   0  0  0  0  0  0  0  0  0  0  0  0
  140.9720   71.5320  226.4900 C   0  0  0  0  0  0  0  0  0  0  0  0
  140.4640   71.1320  225.2600 C   0  0  0  0  0  0  0  0  0  0  0  0
  140.3710   71.9930  224.2220 N   0  0  0  0  0  0  0  0  0  0  0  0
  139.5740   74.2280  223.1700 H   0  0  0  0  0  0  0  0  0  0  0  0
  139.8477   74.4696  220.1390 H   0  0  0  0  0  0  0  0  0  0  0  0
  138.4435   75.2128  220.9551 H   0  0  0  0  0  0  0  0  0  0  0  0
  142.9170   76.1196  220.3562 H   0  0  0  0  0  0  0  0  0  0  0  0
  141.9166   75.6581  218.9697 H   0  0  0  0  0  0  0  0  0  0  0  0
  143.4203   78.1830  219.4966 H   0  0  0  0  0  0  0  0  0  0  0  0
  142.9464   77.4844  217.9427 H   0  0  0  0  0  0  0  0  0  0  0  0
  141.6795   79.6786  219.1288 H   0  0  0  0  0  0  0  0  0  0  0  0
  140.8740   78.6328  217.9512 H   0  0  0  0  0  0  0  0  0  0  0  0
  139.4444   78.0651  219.6180 H   0  0  0  0  0  0  0  0  0  0  0  0
  138.1148   79.4552  221.0370 H   0  0  0  0  0  0  0  0  0  0  0  0
  138.5370   81.0020  223.0330 H   0  0  0  0  0  0  0  0  0  0  0  0
  140.8003   81.7994  224.5640 H   0  0  0  0  0  0  0  0  0  0  0  0
  143.2410   81.4703  224.7552 H   0  0  0  0  0  0  0  0  0  0  0  0
  144.4049   79.9277  223.1533 H   0  0  0  0  0  0  0  0  0  0  0  0
  143.0719   78.7715  221.4107 H   0  0  0  0  0  0  0  0  0  0  0  0
  139.0645   69.9709  221.9323 H   0  0  0  0  0  0  0  0  0  0  0  0
  139.2129   68.3664  223.7948 H   0  0  0  0  0  0  0  0  0  0  0  0
  139.8068   67.8783  226.0582 H   0  0  0  0  0  0  0  0  0  0  0  0
  141.4668   70.9764  228.5044 H   0  0  0  0  0  0  0  0  0  0  0  0
  141.3073   72.5704  226.6292 H   0  0  0  0  0  0  0  0  0  0  0  0
  1  2  2  0
  2  3  1  0
  3  4  1  0
  4  5  1  0
  5  6  2  0
  5  7  1  0
  7  8  1  0
  8  9  1  0
  9 10  1  0
 10 11  1  0
 11 12  1  0
 12 13  2  0
 13 14  1  0
 14 15  1  0
 15 16  2  0
 16 17  1  0
 17 18  2  0
 18 19  1  0
 19 20  2  0
  2 21  1  0
 21 22  2  0
 22 23  1  0
 23 24  2  0
 24 25  1  0
 25 26  2  0
 26 27  1  0
 26 28  1  0
 28 29  2  0
 29 30  1  0
 30 31  2  0
 11  7  1  0
 20 12  1  0
 31 21  1  0
 20 15  1  0
 30 24  1  0
  3 32  1  0
  4 33  1  0
  4 34  1  0
  8 35  1  0
  8 36  1  0
  9 37  1  0
  9 38  1  0
 10 39  1  0
 10 40  1  0
 11 41  1  6
 13 42  1  0
 14 43  1  0
 16 44  1  0
 17 45  1  0
 18 46  1  0
 19 47  1  0
 22 48  1  0
 23 49  1  0
 25 50  1  0
 28 51  1  0
 29 52  1  0
M  END
>  <smiles>  (35) 
O=C(NCC(=O)N1CCC[C@@H]1c1c[nH]c2ccccc12)c1ccc2cc(Cl)ccc2n1

>  <score_type>  (35) 
oracle

>  <origin>  (35) 
autodockgpu

>  <m_score__min__energy>  (35) 
-9.6999999999999993

>  <m_primary>  (35) 
energy

>  <rmsd>  (35) 
2.0045048158534353

>  <m_score__min__rmsd>  (35) 
2.0045048158534353

>  <meeko>  (35) 
{"free_energy": -9.4, "intermolecular_energy": -10.89, "internal_energy": -2.04, "cluster_size": 23, "cluster_id": 2, "rank_in_cluster": 4}

>  <energy>  (35) 
-8.97

>  <cluster_rmsd>  (35) 
0.2

>  <cluster>  (35) 
3

$$$$

     RDKit          3D

 52 56  0  0  0  0  0  0  0  0999 V2000
  140.0490   72.1080  220.6680 O   0  0  0  0  0  0  0  0  0  0  0  0
  139.8520   72.5600  221.8320 C   0  0  0  0  0  0  0  0  0  0  0  0
  139.5390   73.9390  222.0720 N   0  0  0  0  0  0  0  0  0  0  0  0
  139.4270   74.9000  220.9910 C   0  0  0  0  0  0  0  0  0  0  0  0
  140.3120   76.0380  221.2990 C   0  0  0  0  0  0  0  0  0  0  0  0
  140.3340   76.4420  222.5060 O   0  0  0  0  0  0  0  0  0  0  0  0
  141.0990   76.6460  220.2830 N   0  0  0  0  0  0  0  0  0  0  0  0
  140.6080   77.6230  219.3160 C   0  0  0  0  0  0  0  0  0  0  0  0
  141.6790   77.7480  218.2770 C   0  0  0  0  0  0  0  0  0  0  0  0
  142.9510   77.2090  218.9310 C   0  0  0  0  0  0  0  0  0  0  0  0
  142.4910   76.3700  220.0760 C   0  0  2  0  0  0  0  0  0  0  0  0
  142.7820   74.9410  219.9220 C   0  0  0  0  0  0  0  0  0  0  0  0
  141.8500   73.9910  219.4990 C   0  0  0  0  0  0  0  0  0  0  0  0
  142.4330   72.8060  219.4680 N   0  0  0  0  0  0  0  0  0  0  0  0
  143.7120   72.8860  219.8440 C   0  0  0  0  0  0  0  0  0  0  0  0
  144.7410   71.9770  219.9850 C   0  0  0  0  0  0  0  0  0  0  0  0
  145.9890   72.3710  220.4050 C   0  0  0  0  0  0  0  0  0  0  0  0
  146.2180   73.7130  220.6930 C   0  0  0  0  0  0  0  0  0  0  0  0
  145.1720   74.6100  220.5440 C   0  0  0  0  0  0  0  0  0  0  0  0
  143.9360   74.2170  220.1280 C   0  0  0  0  0  0  0  0  0  0  0  0
  139.9470   71.6520  222.9780 C   0  0  0  0  0  0  0  0  0  0  0  0
  139.5370   70.3410  222.8580 C   0  0  0  0  0  0  0  0  0  0  0  0
  139.6040   69.4470  223.9030 C   0  0  0  0  0  0  0  0  0  0  0  0
  140.0990   69.8690  225.1240 C   0  0  0  0  0  0  0  0  0  0  0  0
  140.1700   68.9830  226.1700 C   0  0  0  0  0  0  0  0  0  0  0  0
  140.6670   69.4200  227.3850 C   0  0  0  0  0  0  0  0  0  0  0  0
  140.7360   68.2570  228.6850 Cl  0  0  0  0  0  0  0  0  0  0  0  0
  141.0750   70.7150  227.5130 C   0  0  0  0  0  0  0  0  0  0  0  0
  141.0000   71.5990  226.4540 C   0  0  0  0  0  0  0  0  0  0  0  0
  140.5050   71.1880  225.2230 C   0  0  0  0  0  0  0  0  0  0  0  0
  140.4250   72.0390  224.1750 N   0  0  0  0  0  0  0  0  0  0  0  0
  139.3910   74.2230  223.0820 H   0  0  0  0  0  0  0  0  0  0  0  0
  139.7349   74.4335  220.0436 H   0  0  0  0  0  0  0  0  0  0  0  0
  138.3863   75.2418  220.8902 H   0  0  0  0  0  0  0  0  0  0  0  0
  139.6712   77.2713  218.8591 H   0  0  0  0  0  0  0  0  0  0  0  0
  140.3943   78.5907  219.7934 H   0  0  0  0  0  0  0  0  0  0  0  0
  141.4227   77.1532  217.3879 H   0  0  0  0  0  0  0  0  0  0  0  0
  141.8026   78.7888  217.9430 H   0  0  0  0  0  0  0  0  0  0  0  0
  143.5225   76.6005  218.2147 H   0  0  0  0  0  0  0  0  0  0  0  0
  143.6130   78.0222  219.2633 H   0  0  0  0  0  0  0  0  0  0  0  0
  143.0639   76.6414  220.9750 H   0  0  0  0  0  0  0  0  0  0  0  0
  140.8020   74.1959  219.2348 H   0  0  0  0  0  0  0  0  0  0  0  0
  141.9540   71.9120  219.1830 H   0  0  0  0  0  0  0  0  0  0  0  0
  144.5587   70.9165  219.7568 H   0  0  0  0  0  0  0  0  0  0  0  0
  146.7980   71.6335  220.5123 H   0  0  0  0  0  0  0  0  0  0  0  0
  147.2074   74.0544  221.0314 H   0  0  0  0  0  0  0  0  0  0  0  0
  145.3455   75.6727  220.7688 H   0  0  0  0  0  0  0  0  0  0  0  0
  139.1415   69.9964  221.8911 H   0  0  0  0  0  0  0  0  0  0  0  0
  139.2676   68.4084  223.7685 H   0  0  0  0  0  0  0  0  0  0  0  0
  139.8371   67.9422  226.0442 H   0  0  0  0  0  0  0  0  0  0  0  0
  141.4716   71.0625  228.4784 H   0  0  0  0  0  0  0  0  0  0  0  0
  141.3355   72.6381  226.5869 H   0  0  0  0  0  0  0  0  0  0  0  0
  1  2  2  0
  2  3  1  0
  3  4  1  0
  4  5  1  0
  5  6  2  0
  5  7  1  0
  7  8  1  0
  8  9  1  0
  9 10  1  0
 10 11  1  0
 11 12  1  0
 12 13  2  0
 13 14  1  0
 14 15  1  0
 15 16  2  0
 16 17  1  0
 17 18  2  0
 18 19  1  0
 19 20  2  0
  2 21  1  0
 21 22  2  0
 22 23  1  0
 23 24  2  0
 24 25  1  0
 25 26  2  0
 26 27  1  0
 26 28  1  0
 28 29  2  0
 29 30  1  0
 30 31  2  0
 11  7  1  0
 20 12  1  0
 31 21  1  0
 20 15  1  0
 30 24  1  0
  3 32  1  0
  4 33  1  0
  4 34  1  0
  8 35  1  0
  8 36  1  0
  9 37  1  0
  9 38  1  0
 10 39  1  0
 10 40  1  0
 11 41  1  1
 13 42  1  0
 14 43  1  0
 16 44  1  0
 17 45  1  0
 18 46  1  0
 19 47  1  0
 22 48  1  0
 23 49  1  0
 25 50  1  0
 28 51  1  0
 29 52  1  0
M  END
>  <smiles>  (36) 
O=C(NCC(=O)N1CCC[C@@H]1c1c[nH]c2ccccc12)c1ccc2cc(Cl)ccc2n1

>  <score_type>  (36) 
oracle

>  <origin>  (36) 
autodockgpu

>  <m_score__min__energy>  (36) 
-9.6999999999999993

>  <m_primary>  (36) 
energy

>  <rmsd>  (36) 
1.8998129699624073

>  <m_score__min__rmsd>  (36) 
1.8998129699624073

>  <meeko>  (36) 
{"free_energy": -8.97, "intermolecular_energy": -10.46, "internal_energy": -2.22, "cluster_size": 11, "cluster_id": 3, "rank_in_cluster": 2}

>  <energy>  (36) 
-8.95

>  <cluster_rmsd>  (36) 
0.3

>  <cluster>  (36) 
3

$$$$

     RDKit          3D

 52 56  0  0  0  0  0  0  0  0999 V2000
  139.9170   72.3290  220.6630 O   0  0  0  0  0  0  0  0  0  0  0  0
  139.8210   72.7950  221.8340 C   0  0  0  0  0  0  0  0  0  0  0  0
  139.6160   74.1920  222.0830 N   0  0  0  0  0  0  0  0  0  0  0  0
  139.5060   75.1560  221.0040 C   0  0  0  0  0  0  0  0  0  0  0  0
  138.8640   76.3710  221.5420 C   0  0  0  0  0  0  0  0  0  0  0  0
  137.6120   76.4950  221.3490 O   0  0  0  0  0  0  0  0  0  0  0  0
  139.6240   77.3490  222.2400 N   0  0  0  0  0  0  0  0  0  0  0  0
  139.0630   78.4060  223.0750 C   0  0  0  0  0  0  0  0  0  0  0  0
  140.1880   79.3560  223.3490 C   0  0  0  0  0  0  0  0  0  0  0  0
  141.4690   78.5670  223.0710 C   0  0  0  0  0  0  0  0  0  0  0  0
  141.0560   77.4210  222.2090 C   0  0  2  0  0  0  0  0  0  0  0  0
  141.6050   77.4710  220.8500 C   0  0  0  0  0  0  0  0  0  0  0  0
  141.5040   78.5770  220.0030 C   0  0  0  0  0  0  0  0  0  0  0  0
  142.1010   78.2940  218.8580 N   0  0  0  0  0  0  0  0  0  0  0  0
  142.6080   77.0580  218.8710 C   0  0  0  0  0  0  0  0  0  0  0  0
  143.3080   76.2870  217.9640 C   0  0  0  0  0  0  0  0  0  0  0  0
  143.7070   75.0090  218.2720 C   0  0  0  0  0  0  0  0  0  0  0  0
  143.3990   74.4830  219.5240 C   0  0  0  0  0  0  0  0  0  0  0  0
  142.6970   75.2730  220.4200 C   0  0  0  0  0  0  0  0  0  0  0  0
  142.3020   76.5390  220.1110 C   0  0  0  0  0  0  0  0  0  0  0  0
  139.9220   71.8860  222.9780 C   0  0  0  0  0  0  0  0  0  0  0  0
  139.4990   70.5780  222.8620 C   0  0  0  0  0  0  0  0  0  0  0  0
  139.5710   69.6830  223.9060 C   0  0  0  0  0  0  0  0  0  0  0  0
  140.0850   70.1000  225.1210 C   0  0  0  0  0  0  0  0  0  0  0  0
  140.1600   69.2120  226.1650 C   0  0  0  0  0  0  0  0  0  0  0  0
  140.6760   69.6440  227.3740 C   0  0  0  0  0  0  0  0  0  0  0  0
  140.7510   68.4790  228.6730 Cl  0  0  0  0  0  0  0  0  0  0  0  0
  141.0970   70.9350  227.4980 C   0  0  0  0  0  0  0  0  0  0  0  0
  141.0170   71.8210  226.4400 C   0  0  0  0  0  0  0  0  0  0  0  0
  140.5030   71.4150  225.2150 C   0  0  0  0  0  0  0  0  0  0  0  0
  140.4170   72.2670  224.1690 N   0  0  0  0  0  0  0  0  0  0  0  0
  139.5480   74.4890  223.0980 H   0  0  0  0  0  0  0  0  0  0  0  0
  140.5069   75.4017  220.6194 H   0  0  0  0  0  0  0  0  0  0  0  0
  138.9076   74.7405  220.1798 H   0  0  0  0  0  0  0  0  0  0  0  0
  138.2486   78.9208  222.5442 H   0  0  0  0  0  0  0  0  0  0  0  0
  138.6405   78.0021  224.0069 H   0  0  0  0  0  0  0  0  0  0  0  0
  140.1233   80.2299  222.6841 H   0  0  0  0  0  0  0  0  0  0  0  0
  140.1589   79.7347  224.3813 H   0  0  0  0  0  0  0  0  0  0  0  0
  142.2019   79.1975  222.5463 H   0  0  0  0  0  0  0  0  0  0  0  0
  141.9461   78.2250  224.0013 H   0  0  0  0  0  0  0  0  0  0  0  0
  141.4851   76.4924  222.6134 H   0  0  0  0  0  0  0  0  0  0  0  0
  141.0087   79.5280  220.2486 H   0  0  0  0  0  0  0  0  0  0  0  0
  142.1720   78.9550  218.0410 H   0  0  0  0  0  0  0  0  0  0  0  0
  143.5508   76.7043  216.9756 H   0  0  0  0  0  0  0  0  0  0  0  0
  144.2635   74.4080  217.5378 H   0  0  0  0  0  0  0  0  0  0  0  0
  143.7064   73.4624  219.7958 H   0  0  0  0  0  0  0  0  0  0  0  0
  142.4512   74.8649  221.4115 H   0  0  0  0  0  0  0  0  0  0  0  0
  139.0890   70.2374  221.8998 H   0  0  0  0  0  0  0  0  0  0  0  0
  139.2236   68.6475  223.7754 H   0  0  0  0  0  0  0  0  0  0  0  0
  139.8157   68.1745  226.0426 H   0  0  0  0  0  0  0  0  0  0  0  0
  141.5083   71.2781  228.4588 H   0  0  0  0  0  0  0  0  0  0  0  0
  141.3635   72.8570  226.5693 H   0  0  0  0  0  0  0  0  0  0  0  0
  1  2  2  0
  2  3  1  0
  3  4  1  0
  4  5  1  0
  5  6  2  0
  5  7  1  0
  7  8  1  0
  8  9  1  0
  9 10  1  0
 10 11  1  0
 11 12  1  0
 12 13  2  0
 13 14  1  0
 14 15  1  0
 15 16  2  0
 16 17  1  0
 17 18  2  0
 18 19  1  0
 19 20  2  0
  2 21  1  0
 21 22  2  0
 22 23  1  0
 23 24  2  0
 24 25  1  0
 25 26  2  0
 26 27  1  0
 26 28  1  0
 28 29  2  0
 29 30  1  0
 30 31  2  0
 11  7  1  0
 20 12  1  0
 31 21  1  0
 20 15  1  0
 30 24  1  0
  3 32  1  0
  4 33  1  0
  4 34  1  0
  8 35  1  0
  8 36  1  0
  9 37  1  0
  9 38  1  0
 10 39  1  0
 10 40  1  0
 11 41  1  1
 13 42  1  0
 14 43  1  0
 16 44  1  0
 17 45  1  0
 18 46  1  0
 19 47  1  0
 22 48  1  0
 23 49  1  0
 25 50  1  0
 28 51  1  0
 29 52  1  0
M  END
>  <smiles>  (37) 
O=C(NCC(=O)N1CCC[C@@H]1c1c[nH]c2ccccc12)c1ccc2cc(Cl)ccc2n1

>  <score_type>  (37) 
oracle

>  <origin>  (37) 
autodockgpu

>  <m_score__min__energy>  (37) 
-9.6999999999999993

>  <m_primary>  (37) 
energy

>  <rmsd>  (37) 
3.2553657363285224

>  <m_score__min__rmsd>  (37) 
3.2553657363285224

>  <meeko>  (37) 
{"free_energy": -8.85, "intermolecular_energy": -10.34, "internal_energy": -1.71, "cluster_size": 1, "cluster_id": 4, "rank_in_cluster": 1}

>  <energy>  (37) 
-8.95

>  <cluster_rmsd>  (37) 
0.21

>  <cluster>  (37) 
3

$$$$

     RDKit          3D

 52 56  0  0  0  0  0  0  0  0999 V2000
  138.9110   71.9420  220.8000 O   0  0  0  0  0  0  0  0  0  0  0  0
  139.5880   72.3400  221.7890 C   0  0  0  0  0  0  0  0  0  0  0  0
  140.2440   73.6150  221.8020 N   0  0  0  0  0  0  0  0  0  0  0  0
  140.1670   74.5290  220.6780 C   0  0  0  0  0  0  0  0  0  0  0  0
  140.7680   75.8110  221.0890 C   0  0  0  0  0  0  0  0  0  0  0  0
  140.8830   76.0190  222.3400 O   0  0  0  0  0  0  0  0  0  0  0  0
  141.1950   76.7610  220.1210 N   0  0  0  0  0  0  0  0  0  0  0  0
  142.3840   76.6280  219.2860 C   0  0  0  0  0  0  0  0  0  0  0  0
  142.5970   77.9700  218.6560 C   0  0  0  0  0  0  0  0  0  0  0  0
  141.2530   78.6920  218.7640 C   0  0  0  0  0  0  0  0  0  0  0  0
  140.5010   77.9840  219.8410 C   0  0  2  0  0  0  0  0  0  0  0  0
  140.2620   78.8010  221.0350 C   0  0  0  0  0  0  0  0  0  0  0  0
  138.9940   79.1170  221.5280 C   0  0  0  0  0  0  0  0  0  0  0  0
  139.1300   79.8630  222.6100 N   0  0  0  0  0  0  0  0  0  0  0  0
  140.4190   80.0780  222.8890 C   0  0  0  0  0  0  0  0  0  0  0  0
  141.0970   80.7670  223.8760 C   0  0  0  0  0  0  0  0  0  0  0  0
  142.4700   80.8100  223.9010 C   0  0  0  0  0  0  0  0  0  0  0  0
  143.1900   80.1430  222.9140 C   0  0  0  0  0  0  0  0  0  0  0  0
  142.4920   79.4570  221.9340 C   0  0  0  0  0  0  0  0  0  0  0  0
  141.1300   79.4170  221.9100 C   0  0  0  0  0  0  0  0  0  0  0  0
  139.7140   71.4750  222.9650 C   0  0  0  0  0  0  0  0  0  0  0  0
  139.2320   70.1840  222.9290 C   0  0  0  0  0  0  0  0  0  0  0  0
  139.3240   69.3300  224.0060 C   0  0  0  0  0  0  0  0  0  0  0  0
  139.9190   69.7740  225.1730 C   0  0  0  0  0  0  0  0  0  0  0  0
  140.0150   68.9280  226.2490 C   0  0  0  0  0  0  0  0  0  0  0  0
  140.6120   69.3870  227.4090 C   0  0  0  0  0  0  0  0  0  0  0  0
  140.7100   68.2740  228.7520 Cl  0  0  0  0  0  0  0  0  0  0  0  0
  141.0920   70.6630  227.4550 C   0  0  0  0  0  0  0  0  0  0  0  0
  140.9910   71.5060  226.3650 C   0  0  0  0  0  0  0  0  0  0  0  0
  140.3950   71.0730  225.1870 C   0  0  0  0  0  0  0  0  0  0  0  0
  140.2880   71.8840  224.1110 N   0  0  0  0  0  0  0  0  0  0  0  0
  140.7890   73.8610  222.6760 H   0  0  0  0  0  0  0  0  0  0  0  0
  140.7203   74.1151  219.8221 H   0  0  0  0  0  0  0  0  0  0  0  0
  139.1191   74.6777  220.3784 H   0  0  0  0  0  0  0  0  0  0  0  0
  143.2537   76.3516  219.9002 H   0  0  0  0  0  0  0  0  0  0  0  0
  142.2581   75.8416  218.5272 H   0  0  0  0  0  0  0  0  0  0  0  0
  143.3771   78.5278  219.1948 H   0  0  0  0  0  0  0  0  0  0  0  0
  142.9291   77.8814  217.6111 H   0  0  0  0  0  0  0  0  0  0  0  0
  141.4051   79.7478  219.0326 H   0  0  0  0  0  0  0  0  0  0  0  0
  140.7061   78.6778  217.8097 H   0  0  0  0  0  0  0  0  0  0  0  0
  139.4834   77.7637  219.4860 H   0  0  0  0  0  0  0  0  0  0  0  0
  138.0382   78.7970  221.0874 H   0  0  0  0  0  0  0  0  0  0  0  0
  138.3300   80.2410  223.1810 H   0  0  0  0  0  0  0  0  0  0  0  0
  140.5266   81.2913  224.6569 H   0  0  0  0  0  0  0  0  0  0  0  0
  142.9946   81.3655  224.6924 H   0  0  0  0  0  0  0  0  0  0  0  0
  144.2899   80.1604  222.9124 H   0  0  0  0  0  0  0  0  0  0  0  0
  143.0545   78.9280  221.1506 H   0  0  0  0  0  0  0  0  0  0  0  0
  138.7560   69.8222  222.0057 H   0  0  0  0  0  0  0  0  0  0  0  0
  138.9285   68.3058  223.9386 H   0  0  0  0  0  0  0  0  0  0  0  0
  139.6236   67.9017  226.1899 H   0  0  0  0  0  0  0  0  0  0  0  0
  141.5683   71.0276  228.3770 H   0  0  0  0  0  0  0  0  0  0  0  0
  141.3865   72.5304  226.4305 H   0  0  0  0  0  0  0  0  0  0  0  0
  1  2  2  0
  2  3  1  0
  3  4  1  0
  4  5  1  0
  5  6  2  0
  5  7  1  0
  7  8  1  0
  8  9  1  0
  9 10  1  0
 10 11  1  0
 11 12  1  0
 12 13  2  0
 13 14  1  0
 14 15  1  0
 15 16  2  0
 16 17  1  0
 17 18  2  0
 18 19  1  0
 19 20  2  0
  2 21  1  0
 21 22  2  0
 22 23  1  0
 23 24  2  0
 24 25  1  0
 25 26  2  0
 26 27  1  0
 26 28  1  0
 28 29  2  0
 29 30  1  0
 30 31  2  0
 11  7  1  0
 20 12  1  0
 31 21  1  0
 20 15  1  0
 30 24  1  0
  3 32  1  0
  4 33  1  0
  4 34  1  0
  8 35  1  0
  8 36  1  0
  9 37  1  0
  9 38  1  0
 10 39  1  0
 10 40  1  0
 11 41  1  6
 13 42  1  0
 14 43  1  0
 16 44  1  0
 17 45  1  0
 18 46  1  0
 19 47  1  0
 22 48  1  0
 23 49  1  0
 25 50  1  0
 28 51  1  0
 29 52  1  0
M  END
>  <smiles>  (38) 
O=C(NCC(=O)N1CCC[C@@H]1c1c[nH]c2ccccc12)c1ccc2cc(Cl)ccc2n1

>  <score_type>  (38) 
oracle

>  <origin>  (38) 
autodockgpu

>  <m_score__min__energy>  (38) 
-9.6999999999999993

>  <m_primary>  (38) 
energy

>  <rmsd>  (38) 
2.0573452980595768

>  <m_score__min__rmsd>  (38) 
2.0573452980595768

>  <meeko>  (38) 
{"free_energy": -8.67, "intermolecular_energy": -10.16, "internal_energy": -2.26, "cluster_size": 23, "cluster_id": 2, "rank_in_cluster": 19}

>  <energy>  (38) 
-8.93

>  <cluster_rmsd>  (38) 
0.34

>  <cluster>  (38) 
3

$$$$

     RDKit          3D

 52 56  0  0  0  0  0  0  0  0999 V2000
  139.4640   71.9980  220.7610 O   0  0  0  0  0  0  0  0  0  0  0  0
  139.5500   72.4730  221.9290 C   0  0  0  0  0  0  0  0  0  0  0  0
  139.5040   73.8830  222.1840 N   0  0  0  0  0  0  0  0  0  0  0  0
  139.3550   74.8520  221.1150 C   0  0  0  0  0  0  0  0  0  0  0  0
  140.4540   75.8290  221.2270 C   0  0  0  0  0  0  0  0  0  0  0  0
  141.1440   75.8000  222.2960 O   0  0  0  0  0  0  0  0  0  0  0  0
  140.7170   76.7540  220.1800 N   0  0  0  0  0  0  0  0  0  0  0  0
  141.7820   76.6180  219.1910 C   0  0  0  0  0  0  0  0  0  0  0  0
  141.8700   77.9420  218.4970 C   0  0  0  0  0  0  0  0  0  0  0  0
  140.5360   78.6390  218.7690 C   0  0  0  0  0  0  0  0  0  0  0  0
  139.9600   77.9520  219.9630 C   0  0  2  0  0  0  0  0  0  0  0  0
  139.8680   78.8040  221.1520 C   0  0  0  0  0  0  0  0  0  0  0  0
  138.6670   79.1700  221.7640 C   0  0  0  0  0  0  0  0  0  0  0  0
  138.9350   79.9370  222.8060 N   0  0  0  0  0  0  0  0  0  0  0  0
  140.2510   80.1180  222.9460 C   0  0  0  0  0  0  0  0  0  0  0  0
  141.0460   80.8090  223.8400 C   0  0  0  0  0  0  0  0  0  0  0  0
  142.4150   80.8100  223.7240 C   0  0  0  0  0  0  0  0  0  0  0  0
  143.0110   80.0990  222.6850 C   0  0  0  0  0  0  0  0  0  0  0  0
  142.1960   79.4120  221.8010 C   0  0  0  0  0  0  0  0  0  0  0  0
  140.8390   79.4130  221.9180 C   0  0  0  0  0  0  0  0  0  0  0  0
  139.7030   71.5590  223.0640 C   0  0  0  0  0  0  0  0  0  0  0  0
  139.2880   70.2480  222.9580 C   0  0  0  0  0  0  0  0  0  0  0  0
  139.4080   69.3490  223.9940 C   0  0  0  0  0  0  0  0  0  0  0  0
  139.9630   69.7650  225.1910 C   0  0  0  0  0  0  0  0  0  0  0  0
  140.0870   68.8730  226.2270 C   0  0  0  0  0  0  0  0  0  0  0  0
  140.6430   69.3040  227.4170 C   0  0  0  0  0  0  0  0  0  0  0  0
  140.7780   68.1340  228.7070 Cl  0  0  0  0  0  0  0  0  0  0  0  0
  141.0570   70.5990  227.5320 C   0  0  0  0  0  0  0  0  0  0  0  0
  140.9280   71.4890  226.4830 C   0  0  0  0  0  0  0  0  0  0  0  0
  140.3720   71.0830  225.2750 C   0  0  0  0  0  0  0  0  0  0  0  0
  140.2390   71.9400  224.2380 N   0  0  0  0  0  0  0  0  0  0  0  0
  139.5840   74.1850  223.1960 H   0  0  0  0  0  0  0  0  0  0  0  0
  139.4057   74.3435  220.1409 H   0  0  0  0  0  0  0  0  0  0  0  0
  138.3829   75.3606  221.1940 H   0  0  0  0  0  0  0  0  0  0  0  0
  142.7355   76.3813  219.6858 H   0  0  0  0  0  0  0  0  0  0  0  0
  141.5726   75.8037  218.4818 H   0  0  0  0  0  0  0  0  0  0  0  0
  142.7027   78.5343  218.9042 H   0  0  0  0  0  0  0  0  0  0  0  0
  142.0554   77.8248  217.4191 H   0  0  0  0  0  0  0  0  0  0  0  0
  140.6966   79.7064  218.9805 H   0  0  0  0  0  0  0  0  0  0  0  0
  139.8621   78.5808  217.9015 H   0  0  0  0  0  0  0  0  0  0  0  0
  138.9089   77.6978  219.7617 H   0  0  0  0  0  0  0  0  0  0  0  0
  137.6622   78.8689  221.4327 H   0  0  0  0  0  0  0  0  0  0  0  0
  138.2080   80.3530  223.4460 H   0  0  0  0  0  0  0  0  0  0  0  0
  140.5738   81.3692  224.6605 H   0  0  0  0  0  0  0  0  0  0  0  0
  143.0336   81.3662  224.4437 H   0  0  0  0  0  0  0  0  0  0  0  0
  144.1048   80.0836  222.5693 H   0  0  0  0  0  0  0  0  0  0  0  0
  142.6592   78.8476  220.9783 H   0  0  0  0  0  0  0  0  0  0  0  0
  138.8446   69.9079  222.0105 H   0  0  0  0  0  0  0  0  0  0  0  0
  139.0661   68.3107  223.8712 H   0  0  0  0  0  0  0  0  0  0  0  0
  139.7495   67.8324  226.1122 H   0  0  0  0  0  0  0  0  0  0  0  0
  141.5020   70.9411  228.4780 H   0  0  0  0  0  0  0  0  0  0  0  0
  141.2682   72.5280  226.6047 H   0  0  0  0  0  0  0  0  0  0  0  0
  1  2  2  0
  2  3  1  0
  3  4  1  0
  4  5  1  0
  5  6  2  0
  5  7  1  0
  7  8  1  0
  8  9  1  0
  9 10  1  0
 10 11  1  0
 11 12  1  0
 12 13  2  0
 13 14  1  0
 14 15  1  0
 15 16  2  0
 16 17  1  0
 17 18  2  0
 18 19  1  0
 19 20  2  0
  2 21  1  0
 21 22  2  0
 22 23  1  0
 23 24  2  0
 24 25  1  0
 25 26  2  0
 26 27  1  0
 26 28  1  0
 28 29  2  0
 29 30  1  0
 30 31  2  0
 11  7  1  0
 20 12  1  0
 31 21  1  0
 20 15  1  0
 30 24  1  0
  3 32  1  0
  4 33  1  0
  4 34  1  0
  8 35  1  0
  8 36  1  0
  9 37  1  0
  9 38  1  0
 10 39  1  0
 10 40  1  0
 11 41  1  6
 13 42  1  0
 14 43  1  0
 16 44  1  0
 17 45  1  0
 18 46  1  0
 19 47  1  0
 22 48  1  0
 23 49  1  0
 25 50  1  0
 28 51  1  0
 29 52  1  0
M  END
>  <smiles>  (39) 
O=C(NCC(=O)N1CCC[C@@H]1c1c[nH]c2ccccc12)c1ccc2cc(Cl)ccc2n1

>  <score_type>  (39) 
oracle

>  <origin>  (39) 
autodockgpu

>  <m_score__min__energy>  (39) 
-9.6999999999999993

>  <m_primary>  (39) 
energy

>  <rmsd>  (39) 
1.8401927964093758

>  <m_score__min__rmsd>  (39) 
1.8401927964093758

>  <meeko>  (39) 
{"free_energy": -9.01, "intermolecular_energy": -10.51, "internal_energy": -1.99, "cluster_size": 23, "cluster_id": 2, "rank_in_cluster": 16}

>  <energy>  (39) 
-8.86

>  <cluster_rmsd>  (39) 
0.11

>  <cluster>  (39) 
3

$$$$

     RDKit          3D

 52 56  0  0  0  0  0  0  0  0999 V2000
  139.4570   71.9100  220.7670 O   0  0  0  0  0  0  0  0  0  0  0  0
  139.5430   72.3980  221.9290 C   0  0  0  0  0  0  0  0  0  0  0  0
  139.4750   73.8090  222.1710 N   0  0  0  0  0  0  0  0  0  0  0  0
  139.3020   74.7650  221.0940 C   0  0  0  0  0  0  0  0  0  0  0  0
  139.9880   76.0140  221.4760 C   0  0  0  0  0  0  0  0  0  0  0  0
  139.8640   76.3920  222.6850 O   0  0  0  0  0  0  0  0  0  0  0  0
  140.7470   76.7490  220.5250 N   0  0  0  0  0  0  0  0  0  0  0  0
  141.9470   76.2600  219.8540 C   0  0  0  0  0  0  0  0  0  0  0  0
  142.5640   77.4540  219.1930 C   0  0  0  0  0  0  0  0  0  0  0  0
  141.4470   78.4930  219.0950 C   0  0  0  0  0  0  0  0  0  0  0  0
  140.4250   78.0810  220.1020 C   0  0  2  0  0  0  0  0  0  0  0  0
  140.2720   79.0220  221.2150 C   0  0  0  0  0  0  0  0  0  0  0  0
  139.0480   79.5470  221.6370 C   0  0  0  0  0  0  0  0  0  0  0  0
  139.2610   80.3590  222.6580 N   0  0  0  0  0  0  0  0  0  0  0  0
  140.5600   80.4210  222.9630 C   0  0  0  0  0  0  0  0  0  0  0  0
  141.3030   81.0950  223.9120 C   0  0  0  0  0  0  0  0  0  0  0  0
  142.6690   80.9550  223.9810 C   0  0  0  0  0  0  0  0  0  0  0  0
  143.3130   80.1150  223.0770 C   0  0  0  0  0  0  0  0  0  0  0  0
  142.5500   79.4470  222.1330 C   0  0  0  0  0  0  0  0  0  0  0  0
  141.1960   79.5890  222.0660 C   0  0  0  0  0  0  0  0  0  0  0  0
  139.7200   71.4980  223.0720 C   0  0  0  0  0  0  0  0  0  0  0  0
  139.3750   70.1670  222.9640 C   0  0  0  0  0  0  0  0  0  0  0  0
  139.5200   69.2800  224.0070 C   0  0  0  0  0  0  0  0  0  0  0  0
  140.0290   69.7290  225.2130 C   0  0  0  0  0  0  0  0  0  0  0  0
  140.1780   68.8490  226.2560 C   0  0  0  0  0  0  0  0  0  0  0  0
  140.6880   69.3130  227.4550 C   0  0  0  0  0  0  0  0  0  0  0  0
  140.8560   68.1570  228.7530 Cl  0  0  0  0  0  0  0  0  0  0  0  0
  141.0320   70.6280  227.5710 C   0  0  0  0  0  0  0  0  0  0  0  0
  140.8790   71.5050  226.5140 C   0  0  0  0  0  0  0  0  0  0  0  0
  140.3680   71.0670  225.2980 C   0  0  0  0  0  0  0  0  0  0  0  0
  140.2130   71.9110  224.2540 N   0  0  0  0  0  0  0  0  0  0  0  0
  139.5580   74.1230  223.1790 H   0  0  0  0  0  0  0  0  0  0  0  0
  139.7412   74.3666  220.1675 H   0  0  0  0  0  0  0  0  0  0  0  0
  138.2325   74.9550  220.9209 H   0  0  0  0  0  0  0  0  0  0  0  0
  142.6439   75.8251  220.5855 H   0  0  0  0  0  0  0  0  0  0  0  0
  141.7086   75.4727  219.1237 H   0  0  0  0  0  0  0  0  0  0  0  0
  143.3963   77.8411  219.7992 H   0  0  0  0  0  0  0  0  0  0  0  0
  142.9753   77.2043  218.2038 H   0  0  0  0  0  0  0  0  0  0  0  0
  141.8339   79.4958  219.3290 H   0  0  0  0  0  0  0  0  0  0  0  0
  141.0231   78.5400  218.0811 H   0  0  0  0  0  0  0  0  0  0  0  0
  139.4303   78.0942  219.6326 H   0  0  0  0  0  0  0  0  0  0  0  0
  138.0675   79.3215  221.1923 H   0  0  0  0  0  0  0  0  0  0  0  0
  138.5070   80.8890  223.1680 H   0  0  0  0  0  0  0  0  0  0  0  0
  140.7920   81.7568  224.6267 H   0  0  0  0  0  0  0  0  0  0  0  0
  143.2464   81.5006  224.7419 H   0  0  0  0  0  0  0  0  0  0  0  0
  144.4047   79.9843  223.1114 H   0  0  0  0  0  0  0  0  0  0  0  0
  143.0524   78.7816  221.4155 H   0  0  0  0  0  0  0  0  0  0  0  0
  138.9691   69.8007  222.0095 H   0  0  0  0  0  0  0  0  0  0  0  0
  139.2341   68.2251  223.8829 H   0  0  0  0  0  0  0  0  0  0  0  0
  139.8963   67.7920  226.1401 H   0  0  0  0  0  0  0  0  0  0  0  0
  141.4389   70.9973  228.5239 H   0  0  0  0  0  0  0  0  0  0  0  0
  141.1645   72.5602  226.6363 H   0  0  0  0  0  0  0  0  0  0  0  0
  1  2  2  0
  2  3  1  0
  3  4  1  0
  4  5  1  0
  5  6  2  0
  5  7  1  0
  7  8  1  0
  8  9  1  0
  9 10  1  0
 10 11  1  0
 11 12  1  0
 12 13  2  0
 13 14  1  0
 14 15  1  0
 15 16  2  0
 16 17  1  0
 17 18  2  0
 18 19  1  0
 19 20  2  0
  2 21  1  0
 21 22  2  0
 22 23  1  0
 23 24  2  0
 24 25  1  0
 25 26  2  0
 26 27  1  0
 26 28  1  0
 28 29  2  0
 29 30  1  0
 30 31  2  0
 11  7  1  0
 20 12  1  0
 31 21  1  0
 20 15  1  0
 30 24  1  0
  3 32  1  0
  4 33  1  0
  4 34  1  0
  8 35  1  0
  8 36  1  0
  9 37  1  0
  9 38  1  0
 10 39  1  0
 10 40  1  0
 11 41  1  6
 13 42  1  0
 14 43  1  0
 16 44  1  0
 17 45  1  0
 18 46  1  0
 19 47  1  0
 22 48  1  0
 23 49  1  0
 25 50  1  0
 28 51  1  0
 29 52  1  0
M  END
>  <smiles>  (40) 
O=C(NCC(=O)N1CCC[C@@H]1c1c[nH]c2ccccc12)c1ccc2cc(Cl)ccc2n1

>  <score_type>  (40) 
oracle

>  <origin>  (40) 
autodockgpu

>  <m_score__min__energy>  (40) 
-9.6999999999999993

>  <m_primary>  (40) 
energy

>  <rmsd>  (40) 
1.9108939199098336

>  <m_score__min__rmsd>  (40) 
1.9108939199098336

>  <meeko>  (40) 
{"free_energy": -9.36, "intermolecular_energy": -10.85, "internal_energy": -2.03, "cluster_size": 23, "cluster_id": 2, "rank_in_cluster": 8}

>  <energy>  (40) 
-8.81

>  <cluster_rmsd>  (40) 
0.17

>  <cluster>  (40) 
3

$$$$

     RDKit          3D

 52 56  0  0  0  0  0  0  0  0999 V2000
  141.1850   72.8320  221.2000 O   0  0  0  0  0  0  0  0  0  0  0  0
  140.2990   72.9520  222.0930 C   0  0  0  0  0  0  0  0  0  0  0  0
  139.3360   74.0140  222.0740 N   0  0  0  0  0  0  0  0  0  0  0  0
  139.3190   75.0170  221.0260 C   0  0  0  0  0  0  0  0  0  0  0  0
  140.4880   75.8960  221.2150 C   0  0  0  0  0  0  0  0  0  0  0  0
  141.0990   75.8100  222.3290 O   0  0  0  0  0  0  0  0  0  0  0  0
  140.8990   76.7930  220.1920 N   0  0  0  0  0  0  0  0  0  0  0  0
  142.0490   76.5940  219.3170 C   0  0  0  0  0  0  0  0  0  0  0  0
  142.2700   77.9030  218.6230 C   0  0  0  0  0  0  0  0  0  0  0  0
  140.9520   78.6660  218.7540 C   0  0  0  0  0  0  0  0  0  0  0  0
  140.2260   78.0230  219.8890 C   0  0  2  0  0  0  0  0  0  0  0  0
  140.0570   78.8950  221.0560 C   0  0  0  0  0  0  0  0  0  0  0  0
  138.8190   79.3090  221.5530 C   0  0  0  0  0  0  0  0  0  0  0  0
  139.0180   80.0810  222.6070 N   0  0  0  0  0  0  0  0  0  0  0  0
  140.3220   80.2210  222.8630 C   0  0  0  0  0  0  0  0  0  0  0  0
  141.0570   80.8980  223.8170 C   0  0  0  0  0  0  0  0  0  0  0  0
  142.4300   80.8520  223.8250 C   0  0  0  0  0  0  0  0  0  0  0  0
  143.0920   80.1060  222.8520 C   0  0  0  0  0  0  0  0  0  0  0  0
  142.3370   79.4340  221.9050 C   0  0  0  0  0  0  0  0  0  0  0  0
  140.9750   79.4820  221.9000 C   0  0  0  0  0  0  0  0  0  0  0  0
  140.2490   71.9790  223.1880 C   0  0  0  0  0  0  0  0  0  0  0  0
  139.7070   70.7290  222.9770 C   0  0  0  0  0  0  0  0  0  0  0  0
  139.6350   69.7780  223.9710 C   0  0  0  0  0  0  0  0  0  0  0  0
  140.1220   70.0780  225.2310 C   0  0  0  0  0  0  0  0  0  0  0  0
  140.0540   69.1340  226.2260 C   0  0  0  0  0  0  0  0  0  0  0  0
  140.5440   69.4490  227.4800 C   0  0  0  0  0  0  0  0  0  0  0  0
  140.4350   68.2170  228.7130 Cl  0  0  0  0  0  0  0  0  0  0  0  0
  141.0820   70.6830  227.6980 C   0  0  0  0  0  0  0  0  0  0  0  0
  141.1450   71.6260  226.6900 C   0  0  0  0  0  0  0  0  0  0  0  0
  140.6610   71.3370  225.4200 C   0  0  0  0  0  0  0  0  0  0  0  0
  140.7150   72.2470  224.4210 N   0  0  0  0  0  0  0  0  0  0  0  0
  138.6320   74.0320  222.8660 H   0  0  0  0  0  0  0  0  0  0  0  0
  139.3746   74.5290  220.0417 H   0  0  0  0  0  0  0  0  0  0  0  0
  138.3894   75.6031  221.0741 H   0  0  0  0  0  0  0  0  0  0  0  0
  142.9357   76.3197  219.9073 H   0  0  0  0  0  0  0  0  0  0  0  0
  141.8724   75.7809  218.5975 H   0  0  0  0  0  0  0  0  0  0  0  0
  143.0860   78.4606  219.1060 H   0  0  0  0  0  0  0  0  0  0  0  0
  142.5556   77.7621  217.5701 H   0  0  0  0  0  0  0  0  0  0  0  0
  141.1428   79.7271  218.9723 H   0  0  0  0  0  0  0  0  0  0  0  0
  140.3664   78.6290  217.8235 H   0  0  0  0  0  0  0  0  0  0  0  0
  139.1894   77.8160  219.5847 H   0  0  0  0  0  0  0  0  0  0  0  0
  137.8385   79.0369  221.1353 H   0  0  0  0  0  0  0  0  0  0  0  0
  138.2520   80.5290  223.1740 H   0  0  0  0  0  0  0  0  0  0  0  0
  140.5326   81.4853  224.5852 H   0  0  0  0  0  0  0  0  0  0  0  0
  143.0003   81.3980  224.5909 H   0  0  0  0  0  0  0  0  0  0  0  0
  144.1906   80.0519  222.8363 H   0  0  0  0  0  0  0  0  0  0  0  0
  142.8525   78.8435  221.1333 H   0  0  0  0  0  0  0  0  0  0  0  0
  139.3178   70.4820  221.9783 H   0  0  0  0  0  0  0  0  0  0  0  0
  139.1952   68.7909  223.7654 H   0  0  0  0  0  0  0  0  0  0  0  0
  139.6171   68.1440  226.0287 H   0  0  0  0  0  0  0  0  0  0  0  0
  141.4733   70.9324  228.6953 H   0  0  0  0  0  0  0  0  0  0  0  0
  141.5823   72.6144  226.8948 H   0  0  0  0  0  0  0  0  0  0  0  0
  1  2  2  0
  2  3  1  0
  3  4  1  0
  4  5  1  0
  5  6  2  0
  5  7  1  0
  7  8  1  0
  8  9  1  0
  9 10  1  0
 10 11  1  0
 11 12  1  0
 12 13  2  0
 13 14  1  0
 14 15  1  0
 15 16  2  0
 16 17  1  0
 17 18  2  0
 18 19  1  0
 19 20  2  0
  2 21  1  0
 21 22  2  0
 22 23  1  0
 23 24  2  0
 24 25  1  0
 25 26  2  0
 26 27  1  0
 26 28  1  0
 28 29  2  0
 29 30  1  0
 30 31  2  0
 11  7  1  0
 20 12  1  0
 31 21  1  0
 20 15  1  0
 30 24  1  0
  3 32  1  0
  4 33  1  0
  4 34  1  0
  8 35  1  0
  8 36  1  0
  9 37  1  0
  9 38  1  0
 10 39  1  0
 10 40  1  0
 11 41  1  6
 13 42  1  0
 14 43  1  0
 16 44  1  0
 17 45  1  0
 18 46  1  0
 19 47  1  0
 22 48  1  0
 23 49  1  0
 25 50  1  0
 28 51  1  0
 29 52  1  0
M  END
>  <smiles>  (41) 
O=C(NCC(=O)N1CCC[C@@H]1c1c[nH]c2ccccc12)c1ccc2cc(Cl)ccc2n1

>  <score_type>  (41) 
oracle

>  <origin>  (41) 
autodockgpu

>  <m_score__min__energy>  (41) 
-9.6999999999999993

>  <m_primary>  (41) 
energy

>  <rmsd>  (41) 
2.054232008112749

>  <m_score__min__rmsd>  (41) 
2.054232008112749

>  <meeko>  (41) 
{"free_energy": -9.18, "intermolecular_energy": -10.67, "internal_energy": -1.54, "cluster_size": 23, "cluster_id": 2, "rank_in_cluster": 12}

>  <energy>  (41) 
-8.24

>  <cluster_rmsd>  (41) 
1.67

>  <cluster>  (41) 
3

$$$$

     RDKit          3D

 52 56  0  0  0  0  0  0  0  0999 V2000
  139.5570   71.5020  220.8420 O   0  0  0  0  0  0  0  0  0  0  0  0
  139.7170   72.0520  221.9680 C   0  0  0  0  0  0  0  0  0  0  0  0
  139.7980   73.4760  222.1170 N   0  0  0  0  0  0  0  0  0  0  0  0
  139.7000   74.3730  220.9820 C   0  0  0  0  0  0  0  0  0  0  0  0
  140.8010   75.3510  221.0760 C   0  0  0  0  0  0  0  0  0  0  0  0
  141.0540   75.8250  222.2300 O   0  0  0  0  0  0  0  0  0  0  0  0
  141.5350   75.7360  219.9210 N   0  0  0  0  0  0  0  0  0  0  0  0
  140.9490   76.2820  218.7000 C   0  0  0  0  0  0  0  0  0  0  0  0
  142.0380   76.2520  217.6730 C   0  0  0  0  0  0  0  0  0  0  0  0
  143.3450   76.1460  218.4610 C   0  0  0  0  0  0  0  0  0  0  0  0
  142.9610   75.6340  219.8090 C   0  0  2  0  0  0  0  0  0  0  0  0
  143.4710   74.2920  220.1040 C   0  0  0  0  0  0  0  0  0  0  0  0
  144.6290   74.0370  220.8430 C   0  0  0  0  0  0  0  0  0  0  0  0
  144.8050   72.7300  220.9230 N   0  0  0  0  0  0  0  0  0  0  0  0
  143.8340   72.0720  220.2830 C   0  0  0  0  0  0  0  0  0  0  0  0
  143.5460   70.7390  220.0660 C   0  0  0  0  0  0  0  0  0  0  0  0
  142.4410   70.3560  219.3440 C   0  0  0  0  0  0  0  0  0  0  0  0
  141.5960   71.3330  218.8250 C   0  0  0  0  0  0  0  0  0  0  0  0
  141.9020   72.6650  219.0550 C   0  0  0  0  0  0  0  0  0  0  0  0
  142.9990   73.0410  219.7700 C   0  0  0  0  0  0  0  0  0  0  0  0
  139.8250   71.2140  223.1650 C   0  0  0  0  0  0  0  0  0  0  0  0
  139.3690   69.9130  223.1420 C   0  0  0  0  0  0  0  0  0  0  0  0
  139.4460   69.0840  224.2390 C   0  0  0  0  0  0  0  0  0  0  0  0
  139.9990   69.5630  225.4130 C   0  0  0  0  0  0  0  0  0  0  0  0
  140.0790   68.7420  226.5090 C   0  0  0  0  0  0  0  0  0  0  0  0
  140.6340   69.2360  227.6760 C   0  0  0  0  0  0  0  0  0  0  0  0
  140.7130   68.1530  229.0450 Cl  0  0  0  0  0  0  0  0  0  0  0  0
  141.0870   70.5220  227.7090 C   0  0  0  0  0  0  0  0  0  0  0  0
  141.0020   71.3400  226.5990 C   0  0  0  0  0  0  0  0  0  0  0  0
  140.4490   70.8710  225.4140 C   0  0  0  0  0  0  0  0  0  0  0  0
  140.3580   71.6580  224.3190 N   0  0  0  0  0  0  0  0  0  0  0  0
  139.9330   73.8440  223.1010 H   0  0  0  0  0  0  0  0  0  0  0  0
  139.7875   73.8015  220.0462 H   0  0  0  0  0  0  0  0  0  0  0  0
  138.7290   74.8898  220.9866 H   0  0  0  0  0  0  0  0  0  0  0  0
  140.0989   75.6646  218.3743 H   0  0  0  0  0  0  0  0  0  0  0  0
  140.5689   77.3024  218.8558 H   0  0  0  0  0  0  0  0  0  0  0  0
  141.9173   75.3819  217.0109 H   0  0  0  0  0  0  0  0  0  0  0  0
  142.0196   77.1475  217.0345 H   0  0  0  0  0  0  0  0  0  0  0  0
  144.0354   75.4465  217.9670 H   0  0  0  0  0  0  0  0  0  0  0  0
  143.8608   77.1154  218.5258 H   0  0  0  0  0  0  0  0  0  0  0  0
  143.4419   76.2537  220.5802 H   0  0  0  0  0  0  0  0  0  0  0  0
  145.2866   74.7996  221.2858 H   0  0  0  0  0  0  0  0  0  0  0  0
  145.6040   72.2640  221.4270 H   0  0  0  0  0  0  0  0  0  0  0  0
  144.2139   69.9687  220.4790 H   0  0  0  0  0  0  0  0  0  0  0  0
  142.2268   69.2899  219.1782 H   0  0  0  0  0  0  0  0  0  0  0  0
  140.7043   71.0537  218.2446 H   0  0  0  0  0  0  0  0  0  0  0  0
  141.2388   73.4424  218.6478 H   0  0  0  0  0  0  0  0  0  0  0  0
  138.9274   69.5228  222.2132 H   0  0  0  0  0  0  0  0  0  0  0  0
  139.0715   68.0513  224.1822 H   0  0  0  0  0  0  0  0  0  0  0  0
  139.7079   67.7076  226.4608 H   0  0  0  0  0  0  0  0  0  0  0  0
  141.5283   70.9152  228.6367 H   0  0  0  0  0  0  0  0  0  0  0  0
  141.3759   72.3730  226.6540 H   0  0  0  0  0  0  0  0  0  0  0  0
  1  2  2  0
  2  3  1  0
  3  4  1  0
  4  5  1  0
  5  6  2  0
  5  7  1  0
  7  8  1  0
  8  9  1  0
  9 10  1  0
 10 11  1  0
 11 12  1  0
 12 13  2  0
 13 14  1  0
 14 15  1  0
 15 16  2  0
 16 17  1  0
 17 18  2  0
 18 19  1  0
 19 20  2  0
  2 21  1  0
 21 22  2  0
 22 23  1  0
 23 24  2  0
 24 25  1  0
 25 26  2  0
 26 27  1  0
 26 28  1  0
 28 29  2  0
 29 30  1  0
 30 31  2  0
 11  7  1  0
 20 12  1  0
 31 21  1  0
 20 15  1  0
 30 24  1  0
  3 32  1  0
  4 33  1  0
  4 34  1  0
  8 35  1  0
  8 36  1  0
  9 37  1  0
  9 38  1  0
 10 39  1  0
 10 40  1  0
 11 41  1  1
 13 42  1  0
 14 43  1  0
 16 44  1  0
 17 45  1  0
 18 46  1  0
 19 47  1  0
 22 48  1  0
 23 49  1  0
 25 50  1  0
 28 51  1  0
 29 52  1  0
M  END
>  <smiles>  (42) 
O=C(NCC(=O)N1CCC[C@@H]1c1c[nH]c2ccccc12)c1ccc2cc(Cl)ccc2n1

>  <score_type>  (42) 
oracle

>  <origin>  (42) 
autodockgpu

>  <m_score__min__energy>  (42) 
-9.6999999999999993

>  <m_primary>  (42) 
energy

>  <rmsd>  (42) 
1.770180176223433

>  <m_score__min__rmsd>  (42) 
1.770180176223433

>  <meeko>  (42) 
{"free_energy": -8.16, "intermolecular_energy": -9.65, "internal_energy": -2.65, "cluster_size": 11, "cluster_id": 3, "rank_in_cluster": 9}

>  <energy>  (42) 
-8.16

>  <cluster_rmsd>  (42) 
1.43

>  <cluster>  (42) 
3

$$$$

     RDKit          3D

 52 56  0  0  0  0  0  0  0  0999 V2000
  141.5250   80.2590  220.0360 O   0  0  0  0  0  0  0  0  0  0  0  0
  140.9350   79.1870  219.7190 C   0  0  0  0  0  0  0  0  0  0  0  0
  139.5080   79.1100  219.5960 N   0  0  0  0  0  0  0  0  0  0  0  0
  138.6540   80.2600  219.8270 C   0  0  0  0  0  0  0  0  0  0  0  0
  137.5860   79.8550  220.7610 C   0  0  0  0  0  0  0  0  0  0  0  0
  136.7120   79.0420  220.3190 O   0  0  0  0  0  0  0  0  0  0  0  0
  137.5490   80.3600  222.0890 N   0  0  0  0  0  0  0  0  0  0  0  0
  137.0250   81.6670  222.4740 C   0  0  0  0  0  0  0  0  0  0  0  0
  137.4620   81.8850  223.8890 C   0  0  0  0  0  0  0  0  0  0  0  0
  137.8060   80.4970  224.4320 C   0  0  0  0  0  0  0  0  0  0  0  0
  138.0310   79.6400  223.2320 C   0  0  2  0  0  0  0  0  0  0  0  0
  139.4130   79.1740  223.0840 C   0  0  0  0  0  0  0  0  0  0  0  0
  139.7680   77.8730  222.7220 C   0  0  0  0  0  0  0  0  0  0  0  0
  141.0860   77.7860  222.6790 N   0  0  0  0  0  0  0  0  0  0  0  0
  141.6570   78.9530  222.9880 C   0  0  0  0  0  0  0  0  0  0  0  0
  142.9600   79.4000  223.0900 C   0  0  0  0  0  0  0  0  0  0  0  0
  143.2440   80.6980  223.4410 C   0  0  0  0  0  0  0  0  0  0  0  0
  142.1970   81.5780  223.6980 C   0  0  0  0  0  0  0  0  0  0  0  0
  140.8970   81.1110  223.5890 C   0  0  0  0  0  0  0  0  0  0  0  0
  140.6180   79.8240  223.2420 C   0  0  0  0  0  0  0  0  0  0  0  0
  141.7270   77.9800  219.4690 C   0  0  0  0  0  0  0  0  0  0  0  0
  142.5780   77.9240  218.3860 C   0  0  0  0  0  0  0  0  0  0  0  0
  143.3440   76.8140  218.1050 C   0  0  0  0  0  0  0  0  0  0  0  0
  143.2650   75.7100  218.9350 C   0  0  0  0  0  0  0  0  0  0  0  0
  144.0270   74.6010  218.6610 C   0  0  0  0  0  0  0  0  0  0  0  0
  143.9360   73.5040  219.4990 C   0  0  0  0  0  0  0  0  0  0  0  0
  144.9240   72.1170  219.1100 Cl  0  0  0  0  0  0  0  0  0  0  0  0
  143.0970   73.5510  220.5740 C   0  0  0  0  0  0  0  0  0  0  0  0
  142.3350   74.6720  220.8400 C   0  0  0  0  0  0  0  0  0  0  0  0
  142.4050   75.7880  220.0150 C   0  0  0  0  0  0  0  0  0  0  0  0
  141.6680   76.8940  220.2610 N   0  0  0  0  0  0  0  0  0  0  0  0
  139.1050   78.1680  219.3260 H   0  0  0  0  0  0  0  0  0  0  0  0
  139.2422   81.0796  220.2654 H   0  0  0  0  0  0  0  0  0  0  0  0
  138.2198   80.6099  218.8788 H   0  0  0  0  0  0  0  0  0  0  0  0
  137.4364   82.4512  221.8216 H   0  0  0  0  0  0  0  0  0  0  0  0
  135.9298   81.7063  222.3795 H   0  0  0  0  0  0  0  0  0  0  0  0
  138.3453   82.5397  223.9215 H   0  0  0  0  0  0  0  0  0  0  0  0
  136.6778   82.3728  224.4865 H   0  0  0  0  0  0  0  0  0  0  0  0
  138.7160   80.5408  225.0484 H   0  0  0  0  0  0  0  0  0  0  0  0
  137.0032   80.0998  225.0705 H   0  0  0  0  0  0  0  0  0  0  0  0
  137.4676   78.7023  223.3474 H   0  0  0  0  0  0  0  0  0  0  0  0
  139.0654   77.0542  222.5076 H   0  0  0  0  0  0  0  0  0  0  0  0
  141.6200   76.9130  222.4310 H   0  0  0  0  0  0  0  0  0  0  0  0
  143.7866   78.7034  222.8863 H   0  0  0  0  0  0  0  0  0  0  0  0
  144.2874   81.0376  223.5179 H   0  0  0  0  0  0  0  0  0  0  0  0
  142.3971   82.6218  223.9816 H   0  0  0  0  0  0  0  0  0  0  0  0
  140.0643   81.8014  223.7890 H   0  0  0  0  0  0  0  0  0  0  0  0
  142.6480   78.7979  217.7216 H   0  0  0  0  0  0  0  0  0  0  0  0
  144.0110   76.8056  217.2304 H   0  0  0  0  0  0  0  0  0  0  0  0
  144.6985   74.5851  217.7899 H   0  0  0  0  0  0  0  0  0  0  0  0
  143.0261   72.6796  221.2415 H   0  0  0  0  0  0  0  0  0  0  0  0
  141.6663   74.6814  221.7134 H   0  0  0  0  0  0  0  0  0  0  0  0
  1  2  2  0
  2  3  1  0
  3  4  1  0
  4  5  1  0
  5  6  2  0
  5  7  1  0
  7  8  1  0
  8  9  1  0
  9 10  1  0
 10 11  1  0
 11 12  1  0
 12 13  2  0
 13 14  1  0
 14 15  1  0
 15 16  2  0
 16 17  1  0
 17 18  2  0
 18 19  1  0
 19 20  2  0
  2 21  1  0
 21 22  2  0
 22 23  1  0
 23 24  2  0
 24 25  1  0
 25 26  2  0
 26 27  1  0
 26 28  1  0
 28 29  2  0
 29 30  1  0
 30 31  2  0
 11  7  1  0
 20 12  1  0
 31 21  1  0
 20 15  1  0
 30 24  1  0
  3 32  1  0
  4 33  1  0
  4 34  1  0
  8 35  1  0
  8 36  1  0
  9 37  1  0
  9 38  1  0
 10 39  1  0
 10 40  1  0
 11 41  1  1
 13 42  1  0
 14 43  1  0
 16 44  1  0
 17 45  1  0
 18 46  1  0
 19 47  1  0
 22 48  1  0
 23 49  1  0
 25 50  1  0
 28 51  1  0
 29 52  1  0
M  END
>  <smiles>  (43) 
O=C(NCC(=O)N1CCC[C@@H]1c1c[nH]c2ccccc12)c1ccc2cc(Cl)ccc2n1

>  <score_type>  (43) 
oracle

>  <origin>  (43) 
autodockgpu

>  <m_score__min__energy>  (43) 
-9.6999999999999993

>  <m_primary>  (43) 
energy

>  <rmsd>  (43) 
8.45226554075157

>  <m_score__min__rmsd>  (43) 
8.45226554075157

>  <meeko>  (43) 
{"free_energy": -7.19, "intermolecular_energy": -8.68, "internal_energy": -3.26, "cluster_size": 4, "cluster_id": 6, "rank_in_cluster": 1}

>  <energy>  (43) 
-8.14

>  <cluster_rmsd>  (43) 
0.94

>  <cluster>  (43) 
3

$$$$

     RDKit          3D

 52 56  0  0  0  0  0  0  0  0999 V2000
  133.4400   70.2140  226.6330 O   0  0  0  0  0  0  0  0  0  0  0  0
  133.7990   71.3160  226.1290 C   0  0  0  0  0  0  0  0  0  0  0  0
  134.7880   71.3940  225.0940 N   0  0  0  0  0  0  0  0  0  0  0  0
  135.4350   70.2110  224.5590 C   0  0  0  0  0  0  0  0  0  0  0  0
  136.6610   70.6380  223.8590 C   0  0  0  0  0  0  0  0  0  0  0  0
  136.9230   71.8840  223.8620 O   0  0  0  0  0  0  0  0  0  0  0  0
  137.5010   69.6890  223.2150 N   0  0  0  0  0  0  0  0  0  0  0  0
  137.0670   68.3870  222.7200 C   0  0  0  0  0  0  0  0  0  0  0  0
  138.3190   67.6280  222.4050 C   0  0  0  0  0  0  0  0  0  0  0  0
  139.4170   68.6830  222.2680 C   0  0  0  0  0  0  0  0  0  0  0  0
  138.8990   69.8950  222.9690 C   0  0  2  0  0  0  0  0  0  0  0  0
  139.6530   70.2530  224.1750 C   0  0  0  0  0  0  0  0  0  0  0  0
  140.3030   71.4760  224.3600 C   0  0  0  0  0  0  0  0  0  0  0  0
  140.8830   71.4750  225.5470 N   0  0  0  0  0  0  0  0  0  0  0  0
  140.6690   70.3230  226.1880 C   0  0  0  0  0  0  0  0  0  0  0  0
  141.0380   69.8150  227.4180 C   0  0  0  0  0  0  0  0  0  0  0  0
  140.6550   68.5550  227.8130 C   0  0  0  0  0  0  0  0  0  0  0  0
  139.8800   67.7790  226.9550 C   0  0  0  0  0  0  0  0  0  0  0  0
  139.5210   68.3080  225.7260 C   0  0  0  0  0  0  0  0  0  0  0  0
  139.9020   69.5570  225.3380 C   0  0  0  0  0  0  0  0  0  0  0  0
  133.1920   72.5570  226.6150 C   0  0  0  0  0  0  0  0  0  0  0  0
  131.9730   72.5250  227.2590 C   0  0  0  0  0  0  0  0  0  0  0  0
  131.3590   73.6630  227.7340 C   0  0  0  0  0  0  0  0  0  0  0  0
  131.9780   74.8880  227.5640 C   0  0  0  0  0  0  0  0  0  0  0  0
  131.3710   76.0250  228.0360 C   0  0  0  0  0  0  0  0  0  0  0  0
  132.0020   77.2430  227.8580 C   0  0  0  0  0  0  0  0  0  0  0  0
  131.1910   78.6610  228.4750 Cl  0  0  0  0  0  0  0  0  0  0  0  0
  133.2080   77.2850  227.2230 C   0  0  0  0  0  0  0  0  0  0  0  0
  133.8100   76.1340  226.7520 C   0  0  0  0  0  0  0  0  0  0  0  0
  133.1990   74.8970  226.9160 C   0  0  0  0  0  0  0  0  0  0  0  0
  133.7740   73.7610  226.4620 N   0  0  0  0  0  0  0  0  0  0  0  0
  135.0240   72.3620  224.7350 H   0  0  0  0  0  0  0  0  0  0  0  0
  135.6932   69.5241  225.3785 H   0  0  0  0  0  0  0  0  0  0  0  0
  134.7610   69.6885  223.8642 H   0  0  0  0  0  0  0  0  0  0  0  0
  136.4839   67.8602  223.4898 H   0  0  0  0  0  0  0  0  0  0  0  0
  136.4222   68.4867  221.8344 H   0  0  0  0  0  0  0  0  0  0  0  0
  138.5586   66.9281  223.2191 H   0  0  0  0  0  0  0  0  0  0  0  0
  138.2124   67.0305  221.4876 H   0  0  0  0  0  0  0  0  0  0  0  0
  140.3465   68.3335  222.7413 H   0  0  0  0  0  0  0  0  0  0  0  0
  139.6517   68.8917  221.2138 H   0  0  0  0  0  0  0  0  0  0  0  0
  139.0392   70.7733  222.3218 H   0  0  0  0  0  0  0  0  0  0  0  0
  140.3277   72.3038  223.6361 H   0  0  0  0  0  0  0  0  0  0  0  0
  141.4420   72.2780  225.9400 H   0  0  0  0  0  0  0  0  0  0  0  0
  141.6498   70.4300  228.0944 H   0  0  0  0  0  0  0  0  0  0  0  0
  140.9574   68.1643  228.7958 H   0  0  0  0  0  0  0  0  0  0  0  0
  139.5598   66.7679  227.2467 H   0  0  0  0  0  0  0  0  0  0  0  0
  138.9095   67.7008  225.0424 H   0  0  0  0  0  0  0  0  0  0  0  0
  131.4727   71.5554  227.3985 H   0  0  0  0  0  0  0  0  0  0  0  0
  130.3862   73.5980  228.2433 H   0  0  0  0  0  0  0  0  0  0  0  0
  130.3987   75.9685  228.5474 H   0  0  0  0  0  0  0  0  0  0  0  0
  133.7109   78.2532  227.0831 H   0  0  0  0  0  0  0  0  0  0  0  0
  134.7826   76.1976  226.2421 H   0  0  0  0  0  0  0  0  0  0  0  0
  1  2  2  0
  2  3  1  0
  3  4  1  0
  4  5  1  0
  5  6  2  0
  5  7  1  0
  7  8  1  0
  8  9  1  0
  9 10  1  0
 10 11  1  0
 11 12  1  0
 12 13  2  0
 13 14  1  0
 14 15  1  0
 15 16  2  0
 16 17  1  0
 17 18  2  0
 18 19  1  0
 19 20  2  0
  2 21  1  0
 21 22  2  0
 22 23  1  0
 23 24  2  0
 24 25  1  0
 25 26  2  0
 26 27  1  0
 26 28  1  0
 28 29  2  0
 29 30  1  0
 30 31  2  0
 11  7  1  0
 20 12  1  0
 31 21  1  0
 20 15  1  0
 30 24  1  0
  3 32  1  0
  4 33  1  0
  4 34  1  0
  8 35  1  0
  8 36  1  0
  9 37  1  0
  9 38  1  0
 10 39  1  0
 10 40  1  0
 11 41  1  6
 13 42  1  0
 14 43  1  0
 16 44  1  0
 17 45  1  0
 18 46  1  0
 19 47  1  0
 22 48  1  0
 23 49  1  0
 25 50  1  0
 28 51  1  0
 29 52  1  0
M  END
>  <smiles>  (44) 
O=C(NCC(=O)N1CCC[C@@H]1c1c[nH]c2ccccc12)c1ccc2cc(Cl)ccc2n1

>  <score_type>  (44) 
oracle

>  <origin>  (44) 
autodockgpu

>  <m_score__min__energy>  (44) 
-9.6999999999999993

>  <m_primary>  (44) 
energy

>  <rmsd>  (44) 
8.596833242231982

>  <m_score__min__rmsd>  (44) 
8.596833242231982

>  <meeko>  (44) 
{"free_energy": -8.83, "intermolecular_energy": -10.32, "internal_energy": -2.25, "cluster_size": 10, "cluster_id": 1, "rank_in_cluster": 5}

>  <energy>  (44) 
-8.12

>  <cluster_rmsd>  (44) 
1.43

>  <cluster>  (44) 
3

$$$$

     RDKit          3D

 52 56  0  0  0  0  0  0  0  0999 V2000
  141.7790   80.3220  219.5200 O   0  0  0  0  0  0  0  0  0  0  0  0
  141.1310   79.2410  219.6090 C   0  0  0  0  0  0  0  0  0  0  0  0
  139.7120   79.2180  219.8130 N   0  0  0  0  0  0  0  0  0  0  0  0
  138.9330   80.4360  219.9280 C   0  0  0  0  0  0  0  0  0  0  0  0
  137.7130   80.1280  220.6970 C   0  0  0  0  0  0  0  0  0  0  0  0
  136.7790   79.5230  220.0780 O   0  0  0  0  0  0  0  0  0  0  0  0
  137.6010   80.4950  222.0660 N   0  0  0  0  0  0  0  0  0  0  0  0
  137.0690   81.7640  222.5510 C   0  0  0  0  0  0  0  0  0  0  0  0
  137.4220   81.8300  224.0050 C   0  0  0  0  0  0  0  0  0  0  0  0
  137.7160   80.3880  224.4220 C   0  0  0  0  0  0  0  0  0  0  0  0
  138.0040   79.6530  223.1550 C   0  0  2  0  0  0  0  0  0  0  0  0
  139.3870   79.1810  223.0420 C   0  0  0  0  0  0  0  0  0  0  0  0
  139.7440   77.8750  222.7000 C   0  0  0  0  0  0  0  0  0  0  0  0
  141.0630   77.7820  222.6860 N   0  0  0  0  0  0  0  0  0  0  0  0
  141.6320   78.9500  222.9990 C   0  0  0  0  0  0  0  0  0  0  0  0
  142.9340   79.3920  223.1250 C   0  0  0  0  0  0  0  0  0  0  0  0
  143.2160   80.6920  223.4720 C   0  0  0  0  0  0  0  0  0  0  0  0
  142.1660   81.5790  223.6970 C   0  0  0  0  0  0  0  0  0  0  0  0
  140.8680   81.1160  223.5640 C   0  0  0  0  0  0  0  0  0  0  0  0
  140.5910   79.8270  223.2210 C   0  0  0  0  0  0  0  0  0  0  0  0
  141.8450   77.9670  219.5020 C   0  0  0  0  0  0  0  0  0  0  0  0
  142.8610   77.8170  218.5810 C   0  0  0  0  0  0  0  0  0  0  0  0
  143.5630   76.6410  218.4400 C   0  0  0  0  0  0  0  0  0  0  0  0
  143.2470   75.5630  219.2470 C   0  0  0  0  0  0  0  0  0  0  0  0
  143.9440   74.3880  219.1130 C   0  0  0  0  0  0  0  0  0  0  0  0
  143.6160   73.3190  219.9260 C   0  0  0  0  0  0  0  0  0  0  0  0
  144.5300   71.8450  219.7170 Cl  0  0  0  0  0  0  0  0  0  0  0  0
  142.6140   73.4570  220.8410 C   0  0  0  0  0  0  0  0  0  0  0  0
  141.9180   74.6440  220.9680 C   0  0  0  0  0  0  0  0  0  0  0  0
  142.2260   75.7350  220.1640 C   0  0  0  0  0  0  0  0  0  0  0  0
  141.5570   76.9040  220.2760 N   0  0  0  0  0  0  0  0  0  0  0  0
  139.2560   78.2640  219.8750 H   0  0  0  0  0  0  0  0  0  0  0  0
  139.5193   81.2057  220.4513 H   0  0  0  0  0  0  0  0  0  0  0  0
  138.6690   80.8154  218.9298 H   0  0  0  0  0  0  0  0  0  0  0  0
  137.5275   82.6034  222.0077 H   0  0  0  0  0  0  0  0  0  0  0  0
  135.9820   81.8309  222.3965 H   0  0  0  0  0  0  0  0  0  0  0  0
  138.3093   82.4622  224.1565 H   0  0  0  0  0  0  0  0  0  0  0  0
  136.6090   82.2690  224.6020 H   0  0  0  0  0  0  0  0  0  0  0  0
  138.5872   80.3525  225.0927 H   0  0  0  0  0  0  0  0  0  0  0  0
  136.8711   79.9423  224.9674 H   0  0  0  0  0  0  0  0  0  0  0  0
  137.4243   78.7183  223.1397 H   0  0  0  0  0  0  0  0  0  0  0  0
  139.0426   77.0572  222.4784 H   0  0  0  0  0  0  0  0  0  0  0  0
  141.5990   76.9050  222.4580 H   0  0  0  0  0  0  0  0  0  0  0  0
  143.7617   78.6904  222.9442 H   0  0  0  0  0  0  0  0  0  0  0  0
  144.2588   81.0278  223.5708 H   0  0  0  0  0  0  0  0  0  0  0  0
  142.3638   82.6249  223.9744 H   0  0  0  0  0  0  0  0  0  0  0  0
  140.0339   81.8110  223.7409 H   0  0  0  0  0  0  0  0  0  0  0  0
  143.1200   78.6689  217.9350 H   0  0  0  0  0  0  0  0  0  0  0  0
  144.3667   76.5596  217.6934 H   0  0  0  0  0  0  0  0  0  0  0  0
  144.7507   74.2984  218.3706 H   0  0  0  0  0  0  0  0  0  0  0  0
  142.3551   72.6075  221.4900 H   0  0  0  0  0  0  0  0  0  0  0  0
  141.1125   74.7262  221.7126 H   0  0  0  0  0  0  0  0  0  0  0  0
  1  2  2  0
  2  3  1  0
  3  4  1  0
  4  5  1  0
  5  6  2  0
  5  7  1  0
  7  8  1  0
  8  9  1  0
  9 10  1  0
 10 11  1  0
 11 12  1  0
 12 13  2  0
 13 14  1  0
 14 15  1  0
 15 16  2  0
 16 17  1  0
 17 18  2  0
 18 19  1  0
 19 20  2  0
  2 21  1  0
 21 22  2  0
 22 23  1  0
 23 24  2  0
 24 25  1  0
 25 26  2  0
 26 27  1  0
 26 28  1  0
 28 29  2  0
 29 30  1  0
 30 31  2  0
 11  7  1  0
 20 12  1  0
 31 21  1  0
 20 15  1  0
 30 24  1  0
  3 32  1  0
  4 33  1  0
  4 34  1  0
  8 35  1  0
  8 36  1  0
  9 37  1  0
  9 38  1  0
 10 39  1  0
 10 40  1  0
 11 41  1  1
 13 42  1  0
 14 43  1  0
 16 44  1  0
 17 45  1  0
 18 46  1  0
 19 47  1  0
 22 48  1  0
 23 49  1  0
 25 50  1  0
 28 51  1  0
 29 52  1  0
M  END
>  <smiles>  (45) 
O=C(NCC(=O)N1CCC[C@@H]1c1c[nH]c2ccccc12)c1ccc2cc(Cl)ccc2n1

>  <score_type>  (45) 
oracle

>  <origin>  (45) 
autodockgpu

>  <m_score__min__energy>  (45) 
-9.6999999999999993

>  <m_primary>  (45) 
energy

>  <rmsd>  (45) 
8.37819541319638

>  <m_score__min__rmsd>  (45) 
8.37819541319638

>  <meeko>  (45) 
{"free_energy": -7.12, "intermolecular_energy": -8.61, "internal_energy": -3.31, "cluster_size": 4, "cluster_id": 6, "rank_in_cluster": 3}

>  <energy>  (45) 
-8.85

>  <cluster_rmsd>  (45) 
0.0

>  <cluster>  (45) 
4

$$$$

     RDKit          3D

 52 56  0  0  0  0  0  0  0  0999 V2000
  140.6980   72.5360  220.8750 O   0  0  0  0  0  0  0  0  0  0  0  0
  140.1610   72.8870  221.9640 C   0  0  0  0  0  0  0  0  0  0  0  0
  139.5620   74.1780  222.1370 N   0  0  0  0  0  0  0  0  0  0  0  0
  139.5350   75.1610  221.0710 C   0  0  0  0  0  0  0  0  0  0  0  0
  140.6010   76.1460  221.3300 C   0  0  0  0  0  0  0  0  0  0  0  0
  141.0570   76.2020  222.5170 O   0  0  0  0  0  0  0  0  0  0  0  0
  141.0850   76.9870  220.2920 N   0  0  0  0  0  0  0  0  0  0  0  0
  142.2540   76.7070  219.4640 C   0  0  0  0  0  0  0  0  0  0  0  0
  142.5560   77.9790  218.7340 C   0  0  0  0  0  0  0  0  0  0  0  0
  141.2690   78.8020  218.7920 C   0  0  0  0  0  0  0  0  0  0  0  0
  140.4780   78.2330  219.9230 C   0  0  2  0  0  0  0  0  0  0  0  0
  140.3080   79.1520  221.0520 C   0  0  0  0  0  0  0  0  0  0  0  0
  139.0830   79.6970  221.4430 C   0  0  0  0  0  0  0  0  0  0  0  0
  139.2780   80.4800  222.4900 N   0  0  0  0  0  0  0  0  0  0  0  0
  140.5670   80.5030  222.8410 C   0  0  0  0  0  0  0  0  0  0  0  0
  141.2910   81.1380  223.8310 C   0  0  0  0  0  0  0  0  0  0  0  0
  142.6490   80.9620  223.9450 C   0  0  0  0  0  0  0  0  0  0  0  0
  143.3050   80.1280  223.0440 C   0  0  0  0  0  0  0  0  0  0  0  0
  142.5610   79.5000  222.0590 C   0  0  0  0  0  0  0  0  0  0  0  0
  141.2140   79.6760  221.9480 C   0  0  0  0  0  0  0  0  0  0  0  0
  140.1470   71.9500  223.0900 C   0  0  0  0  0  0  0  0  0  0  0  0
  139.6260   70.6830  222.9300 C   0  0  0  0  0  0  0  0  0  0  0  0
  139.5880   69.7650  223.9560 C   0  0  0  0  0  0  0  0  0  0  0  0
  140.0890   70.1150  225.1970 C   0  0  0  0  0  0  0  0  0  0  0  0
  140.0550   69.2040  226.2230 C   0  0  0  0  0  0  0  0  0  0  0  0
  140.5590   69.5690  227.4580 C   0  0  0  0  0  0  0  0  0  0  0  0
  140.4930   68.3770  228.7330 Cl  0  0  0  0  0  0  0  0  0  0  0  0
  141.0770   70.8200  227.6270 C   0  0  0  0  0  0  0  0  0  0  0  0
  141.1060   71.7290  226.5870 C   0  0  0  0  0  0  0  0  0  0  0  0
  140.6070   71.3900  225.3350 C   0  0  0  0  0  0  0  0  0  0  0  0
  140.6280   72.2670  224.3060 N   0  0  0  0  0  0  0  0  0  0  0  0
  139.1370   74.3810  223.0860 H   0  0  0  0  0  0  0  0  0  0  0  0
  139.7104   74.6672  220.1038 H   0  0  0  0  0  0  0  0  0  0  0  0
  138.5551   75.6597  221.0368 H   0  0  0  0  0  0  0  0  0  0  0  0
  143.1076   76.4156  220.0937 H   0  0  0  0  0  0  0  0  0  0  0  0
  142.0650   75.8772  218.7670 H   0  0  0  0  0  0  0  0  0  0  0  0
  143.3789   78.5180  219.2261 H   0  0  0  0  0  0  0  0  0  0  0  0
  142.8708   77.7884  217.6974 H   0  0  0  0  0  0  0  0  0  0  0  0
  141.4989   79.8613  218.9792 H   0  0  0  0  0  0  0  0  0  0  0  0
  140.7136   78.7557  217.8436 H   0  0  0  0  0  0  0  0  0  0  0  0
  139.4440   78.0608  219.5895 H   0  0  0  0  0  0  0  0  0  0  0  0
  138.1140   79.5059  220.9587 H   0  0  0  0  0  0  0  0  0  0  0  0
  138.5190   81.0160  222.9850 H   0  0  0  0  0  0  0  0  0  0  0  0
  140.7707   81.7971  224.5416 H   0  0  0  0  0  0  0  0  0  0  0  0
  143.2115   81.4744  224.7394 H   0  0  0  0  0  0  0  0  0  0  0  0
  144.3916   79.9710  223.1129 H   0  0  0  0  0  0  0  0  0  0  0  0
  143.0729   78.8389  221.3443 H   0  0  0  0  0  0  0  0  0  0  0  0
  139.2261   70.3951  221.9466 H   0  0  0  0  0  0  0  0  0  0  0  0
  139.1636   68.7638  223.7903 H   0  0  0  0  0  0  0  0  0  0  0  0
  139.6338   68.2001  226.0656 H   0  0  0  0  0  0  0  0  0  0  0  0
  141.4788   71.1100  228.6091 H   0  0  0  0  0  0  0  0  0  0  0  0
  141.5284   72.7313  226.7516 H   0  0  0  0  0  0  0  0  0  0  0  0
  1  2  2  0
  2  3  1  0
  3  4  1  0
  4  5  1  0
  5  6  2  0
  5  7  1  0
  7  8  1  0
  8  9  1  0
  9 10  1  0
 10 11  1  0
 11 12  1  0
 12 13  2  0
 13 14  1  0
 14 15  1  0
 15 16  2  0
 16 17  1  0
 17 18  2  0
 18 19  1  0
 19 20  2  0
  2 21  1  0
 21 22  2  0
 22 23  1  0
 23 24  2  0
 24 25  1  0
 25 26  2  0
 26 27  1  0
 26 28  1  0
 28 29  2  0
 29 30  1  0
 30 31  2  0
 11  7  1  0
 20 12  1  0
 31 21  1  0
 20 15  1  0
 30 24  1  0
  3 32  1  0
  4 33  1  0
  4 34  1  0
  8 35  1  0
  8 36  1  0
  9 37  1  0
  9 38  1  0
 10 39  1  0
 10 40  1  0
 11 41  1  6
 13 42  1  0
 14 43  1  0
 16 44  1  0
 17 45  1  0
 18 46  1  0
 19 47  1  0
 22 48  1  0
 23 49  1  0
 25 50  1  0
 28 51  1  0
 29 52  1  0
M  END
>  <smiles>  (46) 
O=C(NCC(=O)N1CCC[C@@H]1c1c[nH]c2ccccc12)c1ccc2cc(Cl)ccc2n1

>  <score_type>  (46) 
oracle

>  <origin>  (46) 
autodockgpu

>  <m_score__min__energy>  (46) 
-9.6999999999999993

>  <m_primary>  (46) 
energy

>  <rmsd>  (46) 
2.156668326853618

>  <m_score__min__rmsd>  (46) 
2.156668326853618

>  <meeko>  (46) 
{"free_energy": -9.38, "intermolecular_energy": -10.87, "internal_energy": -1.67, "cluster_size": 23, "cluster_id": 2, "rank_in_cluster": 6}

>  <energy>  (46) 
-8.53

>  <cluster_rmsd>  (46) 
0.0

>  <cluster>  (46) 
5

$$$$

     RDKit          3D

 52 56  0  0  0  0  0  0  0  0999 V2000
  141.4350   80.2330  219.5130 O   0  0  0  0  0  0  0  0  0  0  0  0
  140.8690   79.1070  219.6130 C   0  0  0  0  0  0  0  0  0  0  0  0
  139.4560   78.9800  219.8180 N   0  0  0  0  0  0  0  0  0  0  0  0
  138.5870   80.1370  219.9220 C   0  0  0  0  0  0  0  0  0  0  0  0
  137.5020   79.8100  220.8660 C   0  0  0  0  0  0  0  0  0  0  0  0
  136.5750   79.0500  220.4380 O   0  0  0  0  0  0  0  0  0  0  0  0
  137.5060   80.3280  222.1900 N   0  0  0  0  0  0  0  0  0  0  0  0
  136.9920   81.6370  222.5780 C   0  0  0  0  0  0  0  0  0  0  0  0
  137.4730   81.8700  223.9770 C   0  0  0  0  0  0  0  0  0  0  0  0
  137.8360   80.4880  224.5230 C   0  0  0  0  0  0  0  0  0  0  0  0
  138.0250   79.6190  223.3240 C   0  0  2  0  0  0  0  0  0  0  0  0
  139.4030   79.1540  223.1370 C   0  0  0  0  0  0  0  0  0  0  0  0
  139.7470   77.8570  222.7510 C   0  0  0  0  0  0  0  0  0  0  0  0
  141.0640   77.7700  222.6750 N   0  0  0  0  0  0  0  0  0  0  0  0
  141.6430   78.9330  222.9850 C   0  0  0  0  0  0  0  0  0  0  0  0
  142.9490   79.3770  223.0600 C   0  0  0  0  0  0  0  0  0  0  0  0
  143.2430   80.6700  223.4200 C   0  0  0  0  0  0  0  0  0  0  0  0
  142.2030   81.5480  223.7130 C   0  0  0  0  0  0  0  0  0  0  0  0
  140.9000   81.0840  223.6300 C   0  0  0  0  0  0  0  0  0  0  0  0
  140.6120   79.8010  223.2740 C   0  0  0  0  0  0  0  0  0  0  0  0
  141.6780   77.8890  219.5180 C   0  0  0  0  0  0  0  0  0  0  0  0
  142.7560   77.8400  218.6600 C   0  0  0  0  0  0  0  0  0  0  0  0
  143.5480   76.7200  218.5320 C   0  0  0  0  0  0  0  0  0  0  0  0
  143.2600   75.5980  219.2880 C   0  0  0  0  0  0  0  0  0  0  0  0
  144.0460   74.4790  219.1660 C   0  0  0  0  0  0  0  0  0  0  0  0
  143.7450   73.3640  219.9280 C   0  0  0  0  0  0  0  0  0  0  0  0
  144.7730   71.9650  219.7370 Cl  0  0  0  0  0  0  0  0  0  0  0  0
  142.6800   73.4040  220.7800 C   0  0  0  0  0  0  0  0  0  0  0  0
  141.8960   74.5350  220.8950 C   0  0  0  0  0  0  0  0  0  0  0  0
  142.1740   75.6690  220.1420 C   0  0  0  0  0  0  0  0  0  0  0  0
  141.4180   76.7850  220.2420 N   0  0  0  0  0  0  0  0  0  0  0  0
  139.0740   77.9940  219.8890 H   0  0  0  0  0  0  0  0  0  0  0  0
  139.1581   81.0002  220.2944 H   0  0  0  0  0  0  0  0  0  0  0  0
  138.1712   80.3919  218.9360 H   0  0  0  0  0  0  0  0  0  0  0  0
  137.3812   82.4154  221.9052 H   0  0  0  0  0  0  0  0  0  0  0  0
  135.8943   81.6734  222.5176 H   0  0  0  0  0  0  0  0  0  0  0  0
  138.3559   82.5261  223.9752 H   0  0  0  0  0  0  0  0  0  0  0  0
  136.7071   82.3629  224.5938 H   0  0  0  0  0  0  0  0  0  0  0  0
  138.7647   80.5391  225.1103 H   0  0  0  0  0  0  0  0  0  0  0  0
  137.0543   80.0961  225.1903 H   0  0  0  0  0  0  0  0  0  0  0  0
  137.4675   78.6814  223.4658 H   0  0  0  0  0  0  0  0  0  0  0  0
  139.0385   77.0414  222.5441 H   0  0  0  0  0  0  0  0  0  0  0  0
  141.5910   76.8990  222.4030 H   0  0  0  0  0  0  0  0  0  0  0  0
  143.7693   78.6821  222.8270 H   0  0  0  0  0  0  0  0  0  0  0  0
  144.2884   81.0077  223.4761 H   0  0  0  0  0  0  0  0  0  0  0  0
  142.4113   82.5881  224.0042 H   0  0  0  0  0  0  0  0  0  0  0  0
  140.0731   81.7725  223.8585 H   0  0  0  0  0  0  0  0  0  0  0  0
  142.9925   78.7279  218.0553 H   0  0  0  0  0  0  0  0  0  0  0  0
  144.4000   76.7180  217.8363 H   0  0  0  0  0  0  0  0  0  0  0  0
  144.9009   74.4690  218.4739 H   0  0  0  0  0  0  0  0  0  0  0  0
  142.4413   72.5182  221.3870 H   0  0  0  0  0  0  0  0  0  0  0  0
  141.0430   74.5381  221.5896 H   0  0  0  0  0  0  0  0  0  0  0  0
  1  2  2  0
  2  3  1  0
  3  4  1  0
  4  5  1  0
  5  6  2  0
  5  7  1  0
  7  8  1  0
  8  9  1  0
  9 10  1  0
 10 11  1  0
 11 12  1  0
 12 13  2  0
 13 14  1  0
 14 15  1  0
 15 16  2  0
 16 17  1  0
 17 18  2  0
 18 19  1  0
 19 20  2  0
  2 21  1  0
 21 22  2  0
 22 23  1  0
 23 24  2  0
 24 25  1  0
 25 26  2  0
 26 27  1  0
 26 28  1  0
 28 29  2  0
 29 30  1  0
 30 31  2  0
 11  7  1  0
 20 12  1  0
 31 21  1  0
 20 15  1  0
 30 24  1  0
  3 32  1  0
  4 33  1  0
  4 34  1  0
  8 35  1  0
  8 36  1  0
  9 37  1  0
  9 38  1  0
 10 39  1  0
 10 40  1  0
 11 41  1  1
 13 42  1  0
 14 43  1  0
 16 44  1  0
 17 45  1  0
 18 46  1  0
 19 47  1  0
 22 48  1  0
 23 49  1  0
 25 50  1  0
 28 51  1  0
 29 52  1  0
M  END
>  <smiles>  (47) 
O=C(NCC(=O)N1CCC[C@@H]1c1c[nH]c2ccccc12)c1ccc2cc(Cl)ccc2n1

>  <score_type>  (47) 
oracle

>  <origin>  (47) 
autodockgpu

>  <m_score__min__energy>  (47) 
-9.6999999999999993

>  <m_primary>  (47) 
energy

>  <rmsd>  (47) 
8.321911446478941

>  <m_score__min__rmsd>  (47) 
8.321911446478941

>  <meeko>  (47) 
{"free_energy": -7.15, "intermolecular_energy": -8.64, "internal_energy": -3.36, "cluster_size": 4, "cluster_id": 6, "rank_in_cluster": 2}

>  <energy>  (47) 
-7.19

>  <cluster_rmsd>  (47) 
0.0

>  <cluster>  (47) 
6

$$$$

     RDKit          3D

 52 56  0  0  0  0  0  0  0  0999 V2000
  138.9830   71.9640  220.7560 O   0  0  0  0  0  0  0  0  0  0  0  0
  139.6260   72.3720  221.7640 C   0  0  0  0  0  0  0  0  0  0  0  0
  140.2490   73.6620  221.8000 N   0  0  0  0  0  0  0  0  0  0  0  0
  140.1780   74.5810  220.6800 C   0  0  0  0  0  0  0  0  0  0  0  0
  140.7780   75.8610  221.1000 C   0  0  0  0  0  0  0  0  0  0  0  0
  140.8770   76.0680  222.3520 O   0  0  0  0  0  0  0  0  0  0  0  0
  141.2210   76.8090  220.1380 N   0  0  0  0  0  0  0  0  0  0  0  0
  142.4080   76.6630  219.3030 C   0  0  0  0  0  0  0  0  0  0  0  0
  142.6430   78.0050  218.6810 C   0  0  0  0  0  0  0  0  0  0  0  0
  141.3110   78.7480  218.7920 C   0  0  0  0  0  0  0  0  0  0  0  0
  140.5470   78.0460  219.8650 C   0  0  2  0  0  0  0  0  0  0  0  0
  140.3190   78.8590  221.0630 C   0  0  0  0  0  0  0  0  0  0  0  0
  139.0560   79.1900  221.5590 C   0  0  0  0  0  0  0  0  0  0  0  0
  139.2030   79.9280  222.6450 N   0  0  0  0  0  0  0  0  0  0  0  0
  140.4950   80.1230  222.9250 C   0  0  0  0  0  0  0  0  0  0  0  0
  141.1820   80.7970  223.9150 C   0  0  0  0  0  0  0  0  0  0  0  0
  142.5560   80.8200  223.9400 C   0  0  0  0  0  0  0  0  0  0  0  0
  143.2670   80.1500  222.9480 C   0  0  0  0  0  0  0  0  0  0  0  0
  142.5580   79.4790  221.9650 C   0  0  0  0  0  0  0  0  0  0  0  0
  141.1960   79.4580  221.9420 C   0  0  0  0  0  0  0  0  0  0  0  0
  139.7440   71.5020  222.9380 C   0  0  0  0  0  0  0  0  0  0  0  0
  139.2660   70.2100  222.8920 C   0  0  0  0  0  0  0  0  0  0  0  0
  139.3510   69.3520  223.9660 C   0  0  0  0  0  0  0  0  0  0  0  0
  139.9370   69.7930  225.1400 C   0  0  0  0  0  0  0  0  0  0  0  0
  140.0260   68.9430  226.2130 C   0  0  0  0  0  0  0  0  0  0  0  0
  140.6130   69.3980  227.3800 C   0  0  0  0  0  0  0  0  0  0  0  0
  140.7020   68.2800  228.7190 Cl  0  0  0  0  0  0  0  0  0  0  0  0
  141.0900   70.6750  227.4350 C   0  0  0  0  0  0  0  0  0  0  0  0
  140.9950   71.5220  226.3480 C   0  0  0  0  0  0  0  0  0  0  0  0
  140.4100   71.0920  225.1630 C   0  0  0  0  0  0  0  0  0  0  0  0
  140.3090   71.9070  224.0900 N   0  0  0  0  0  0  0  0  0  0  0  0
  140.7670   73.9150  222.6900 H   0  0  0  0  0  0  0  0  0  0  0  0
  140.7352   74.1707  219.8249 H   0  0  0  0  0  0  0  0  0  0  0  0
  139.1316   74.7317  220.3760 H   0  0  0  0  0  0  0  0  0  0  0  0
  143.2728   76.3692  219.9161 H   0  0  0  0  0  0  0  0  0  0  0  0
  142.2698   75.8836  218.5392 H   0  0  0  0  0  0  0  0  0  0  0  0
  143.4315   78.5470  219.2236 H   0  0  0  0  0  0  0  0  0  0  0  0
  142.9744   77.9170  217.6358 H   0  0  0  0  0  0  0  0  0  0  0  0
  141.4799   79.7997  219.0664 H   0  0  0  0  0  0  0  0  0  0  0  0
  140.7646   78.7481  217.8373 H   0  0  0  0  0  0  0  0  0  0  0  0
  139.5262   77.8446  219.5082 H   0  0  0  0  0  0  0  0  0  0  0  0
  138.0955   78.8859  221.1175 H   0  0  0  0  0  0  0  0  0  0  0  0
  138.4080   80.3140  223.2180 H   0  0  0  0  0  0  0  0  0  0  0  0
  140.6191   81.3255  224.6984 H   0  0  0  0  0  0  0  0  0  0  0  0
  143.0884   81.3621  224.7354 H   0  0  0  0  0  0  0  0  0  0  0  0
  144.3670   80.1534  222.9448 H   0  0  0  0  0  0  0  0  0  0  0  0
  143.1123   78.9463  221.1782 H   0  0  0  0  0  0  0  0  0  0  0  0
  138.7993   69.8508  221.9629 H   0  0  0  0  0  0  0  0  0  0  0  0
  138.9575   68.3275  223.8917 H   0  0  0  0  0  0  0  0  0  0  0  0
  139.6369   67.9163  226.1465 H   0  0  0  0  0  0  0  0  0  0  0  0
  141.5588   71.0368  228.3620 H   0  0  0  0  0  0  0  0  0  0  0  0
  141.3864   72.5474  226.4211 H   0  0  0  0  0  0  0  0  0  0  0  0
  1  2  2  0
  2  3  1  0
  3  4  1  0
  4  5  1  0
  5  6  2  0
  5  7  1  0
  7  8  1  0
  8  9  1  0
  9 10  1  0
 10 11  1  0
 11 12  1  0
 12 13  2  0
 13 14  1  0
 14 15  1  0
 15 16  2  0
 16 17  1  0
 17 18  2  0
 18 19  1  0
 19 20  2  0
  2 21  1  0
 21 22  2  0
 22 23  1  0
 23 24  2  0
 24 25  1  0
 25 26  2  0
 26 27  1  0
 26 28  1  0
 28 29  2  0
 29 30  1  0
 30 31  2  0
 11  7  1  0
 20 12  1  0
 31 21  1  0
 20 15  1  0
 30 24  1  0
  3 32  1  0
  4 33  1  0
  4 34  1  0
  8 35  1  0
  8 36  1  0
  9 37  1  0
  9 38  1  0
 10 39  1  0
 10 40  1  0
 11 41  1  6
 13 42  1  0
 14 43  1  0
 16 44  1  0
 17 45  1  0
 18 46  1  0
 19 47  1  0
 22 48  1  0
 23 49  1  0
 25 50  1  0
 28 51  1  0
 29 52  1  0
M  END
>  <smiles>  (48) 
O=C(NCC(=O)N1CCC[C@@H]1c1c[nH]c2ccccc12)c1ccc2cc(Cl)ccc2n1

>  <score_type>  (48) 
oracle

>  <origin>  (48) 
autodockgpu

>  <m_score__min__energy>  (48) 
-9.6999999999999993

>  <m_primary>  (48) 
energy

>  <rmsd>  (48) 
2.0895543270497843

>  <m_score__min__rmsd>  (48) 
2.0895543270497843

>  <meeko>  (48) 
{"free_energy": -8.68, "intermolecular_energy": -10.17, "internal_energy": -2.27, "cluster_size": 23, "cluster_id": 2, "rank_in_cluster": 18}

>  <energy>  (48) 
-7.15

>  <cluster_rmsd>  (48) 
0.3

>  <cluster>  (48) 
6

$$$$

     RDKit          3D

 52 56  0  0  0  0  0  0  0  0999 V2000
  133.6080   70.0460  226.7910 O   0  0  0  0  0  0  0  0  0  0  0  0
  133.9620   71.1340  226.2560 C   0  0  0  0  0  0  0  0  0  0  0  0
  134.9870   71.1930  225.2550 N   0  0  0  0  0  0  0  0  0  0  0  0
  135.6800   70.0050  224.7950 C   0  0  0  0  0  0  0  0  0  0  0  0
  136.3390   70.3270  223.5150 C   0  0  0  0  0  0  0  0  0  0  0  0
  136.0460   71.4450  222.9820 O   0  0  0  0  0  0  0  0  0  0  0  0
  137.2570   69.4200  222.9190 N   0  0  0  0  0  0  0  0  0  0  0  0
  136.9160   68.0920  222.4200 C   0  0  0  0  0  0  0  0  0  0  0  0
  138.2200   67.3990  222.1680 C   0  0  0  0  0  0  0  0  0  0  0  0
  139.2640   68.5120  222.0670 C   0  0  0  0  0  0  0  0  0  0  0  0
  138.6510   69.7000  222.7320 C   0  0  2  0  0  0  0  0  0  0  0  0
  139.3310   70.1090  223.9640 C   0  0  0  0  0  0  0  0  0  0  0  0
  139.8860   71.3740  224.1710 C   0  0  0  0  0  0  0  0  0  0  0  0
  140.4190   71.4140  225.3800 N   0  0  0  0  0  0  0  0  0  0  0  0
  140.2620   70.2490  226.0160 C   0  0  0  0  0  0  0  0  0  0  0  0
  140.6170   69.7670  227.2600 C   0  0  0  0  0  0  0  0  0  0  0  0
  140.3080   68.4830  227.6420 C   0  0  0  0  0  0  0  0  0  0  0  0
  139.6230   67.6560  226.7570 C   0  0  0  0  0  0  0  0  0  0  0  0
  139.2750   68.1590  225.5140 C   0  0  0  0  0  0  0  0  0  0  0  0
  139.5830   69.4310  225.1370 C   0  0  0  0  0  0  0  0  0  0  0  0
  133.3090   72.3800  226.6670 C   0  0  0  0  0  0  0  0  0  0  0  0
  132.0840   72.3440  227.2980 C   0  0  0  0  0  0  0  0  0  0  0  0
  131.4280   73.4850  227.7030 C   0  0  0  0  0  0  0  0  0  0  0  0
  132.0110   74.7180  227.4740 C   0  0  0  0  0  0  0  0  0  0  0  0
  131.3620   75.8590  227.8770 C   0  0  0  0  0  0  0  0  0  0  0  0
  131.9570   77.0850  227.6410 C   0  0  0  0  0  0  0  0  0  0  0  0
  131.0940   78.5080  228.1700 Cl  0  0  0  0  0  0  0  0  0  0  0  0
  133.1700   77.1320  227.0170 C   0  0  0  0  0  0  0  0  0  0  0  0
  133.8140   75.9770  226.6160 C   0  0  0  0  0  0  0  0  0  0  0  0
  133.2390   74.7310  226.8400 C   0  0  0  0  0  0  0  0  0  0  0  0
  133.8560   73.5910  226.4550 N   0  0  0  0  0  0  0  0  0  0  0  0
  135.2160   72.1510  224.8650 H   0  0  0  0  0  0  0  0  0  0  0  0
  136.4336   69.7020  225.5368 H   0  0  0  0  0  0  0  0  0  0  0  0
  134.9690   69.1766  224.6603 H   0  0  0  0  0  0  0  0  0  0  0  0
  136.3288   67.5411  223.1695 H   0  0  0  0  0  0  0  0  0  0  0  0
  136.3064   68.1489  221.5061 H   0  0  0  0  0  0  0  0  0  0  0  0
  138.4613   66.7204  222.9995 H   0  0  0  0  0  0  0  0  0  0  0  0
  138.1864   66.7881  221.2539 H   0  0  0  0  0  0  0  0  0  0  0  0
  140.1896   68.2181  222.5835 H   0  0  0  0  0  0  0  0  0  0  0  0
  139.5323   68.7244  221.0216 H   0  0  0  0  0  0  0  0  0  0  0  0
  138.7714   70.5795  222.0824 H   0  0  0  0  0  0  0  0  0  0  0  0
  139.8804   72.2016  223.4464 H   0  0  0  0  0  0  0  0  0  0  0  0
  140.9040   72.2530  225.7920 H   0  0  0  0  0  0  0  0  0  0  0  0
  141.1573   70.4226  227.9587 H   0  0  0  0  0  0  0  0  0  0  0  0
  140.5991   68.1134  228.6363 H   0  0  0  0  0  0  0  0  0  0  0  0
  139.3634   66.6248  227.0384 H   0  0  0  0  0  0  0  0  0  0  0  0
  138.7330   67.5109  224.8096 H   0  0  0  0  0  0  0  0  0  0  0  0
  131.6130   71.3677  227.4849 H   0  0  0  0  0  0  0  0  0  0  0  0
  130.4507   73.4165  228.2033 H   0  0  0  0  0  0  0  0  0  0  0  0
  130.3852   75.7989  228.3792 H   0  0  0  0  0  0  0  0  0  0  0  0
  133.6436   78.1071  226.8299 H   0  0  0  0  0  0  0  0  0  0  0  0
  134.7909   76.0440  226.1148 H   0  0  0  0  0  0  0  0  0  0  0  0
  1  2  2  0
  2  3  1  0
  3  4  1  0
  4  5  1  0
  5  6  2  0
  5  7  1  0
  7  8  1  0
  8  9  1  0
  9 10  1  0
 10 11  1  0
 11 12  1  0
 12 13  2  0
 13 14  1  0
 14 15  1  0
 15 16  2  0
 16 17  1  0
 17 18  2  0
 18 19  1  0
 19 20  2  0
  2 21  1  0
 21 22  2  0
 22 23  1  0
 23 24  2  0
 24 25  1  0
 25 26  2  0
 26 27  1  0
 26 28  1  0
 28 29  2  0
 29 30  1  0
 30 31  2  0
 11  7  1  0
 20 12  1  0
 31 21  1  0
 20 15  1  0
 30 24  1  0
  3 32  1  0
  4 33  1  0
  4 34  1  0
  8 35  1  0
  8 36  1  0
  9 37  1  0
  9 38  1  0
 10 39  1  0
 10 40  1  0
 11 41  1  6
 13 42  1  0
 14 43  1  0
 16 44  1  0
 17 45  1  0
 18 46  1  0
 19 47  1  0
 22 48  1  0
 23 49  1  0
 25 50  1  0
 28 51  1  0
 29 52  1  0
M  END
>  <smiles>  (49) 
O=C(NCC(=O)N1CCC[C@@H]1c1c[nH]c2ccccc12)c1ccc2cc(Cl)ccc2n1

>  <score_type>  (49) 
oracle

>  <origin>  (49) 
autodockgpu

>  <m_score__min__energy>  (49) 
-9.6999999999999993

>  <m_primary>  (49) 
energy

>  <rmsd>  (49) 
8.611287527735902

>  <m_score__min__rmsd>  (49) 
8.611287527735902

>  <meeko>  (49) 
{"free_energy": -8.63, "intermolecular_energy": -10.12, "internal_energy": -2.29, "cluster_size": 10, "cluster_id": 1, "rank_in_cluster": 8}

>  <energy>  (49) 
-7.12

>  <cluster_rmsd>  (49) 
0.33

>  <cluster>  (49) 
6

$$$$

     RDKit          3D

 52 56  0  0  0  0  0  0  0  0999 V2000
  133.3180   70.0750  226.7920 O   0  0  0  0  0  0  0  0  0  0  0  0
  133.7640   71.1430  226.2830 C   0  0  0  0  0  0  0  0  0  0  0  0
  134.8170   71.1410  225.3100 N   0  0  0  0  0  0  0  0  0  0  0  0
  135.4340   69.9120  224.8480 C   0  0  0  0  0  0  0  0  0  0  0  0
  136.7020   70.2610  224.1790 C   0  0  0  0  0  0  0  0  0  0  0  0
  137.1200   71.4550  224.3230 O   0  0  0  0  0  0  0  0  0  0  0  0
  137.4120   69.2970  223.4130 N   0  0  0  0  0  0  0  0  0  0  0  0
  136.8030   68.3650  222.4690 C   0  0  0  0  0  0  0  0  0  0  0  0
  137.8650   67.3630  222.1370 C   0  0  0  0  0  0  0  0  0  0  0  0
  139.1900   68.0240  222.5210 C   0  0  0  0  0  0  0  0  0  0  0  0
  138.8330   69.1150  223.4760 C   0  0  2  0  0  0  0  0  0  0  0  0
  139.3320   68.9000  224.8370 C   0  0  0  0  0  0  0  0  0  0  0  0
  139.3280   67.6650  225.4890 C   0  0  0  0  0  0  0  0  0  0  0  0
  139.8440   67.8170  226.6960 N   0  0  0  0  0  0  0  0  0  0  0  0
  140.2030   69.0860  226.9110 C   0  0  0  0  0  0  0  0  0  0  0  0
  140.7720   69.7670  227.9680 C   0  0  0  0  0  0  0  0  0  0  0  0
  141.0300   71.1150  227.8930 C   0  0  0  0  0  0  0  0  0  0  0  0
  140.7110   71.8040  226.7260 C   0  0  0  0  0  0  0  0  0  0  0  0
  140.1410   71.1020  225.6770 C   0  0  0  0  0  0  0  0  0  0  0  0
  139.8860   69.7670  225.7550 C   0  0  0  0  0  0  0  0  0  0  0  0
  133.1920   72.4270  226.6970 C   0  0  0  0  0  0  0  0  0  0  0  0
  131.9780   72.4650  227.3490 C   0  0  0  0  0  0  0  0  0  0  0  0
  131.3960   73.6450  227.7580 C   0  0  0  0  0  0  0  0  0  0  0  0
  132.0460   74.8410  227.5110 C   0  0  0  0  0  0  0  0  0  0  0  0
  131.4720   76.0200  227.9170 C   0  0  0  0  0  0  0  0  0  0  0  0
  132.1330   77.2080  227.6630 C   0  0  0  0  0  0  0  0  0  0  0  0
  131.3630   78.6820  228.1980 Cl  0  0  0  0  0  0  0  0  0  0  0  0
  133.3350   77.1800  227.0190 C   0  0  0  0  0  0  0  0  0  0  0  0
  133.9040   75.9880  226.6140 C   0  0  0  0  0  0  0  0  0  0  0  0
  133.2620   74.7790  226.8560 C   0  0  0  0  0  0  0  0  0  0  0  0
  133.8040   73.6030  226.4680 N   0  0  0  0  0  0  0  0  0  0  0  0
  135.1240   72.0860  224.9400 H   0  0  0  0  0  0  0  0  0  0  0  0
  135.6334   69.2500  225.7036 H   0  0  0  0  0  0  0  0  0  0  0  0
  134.7652   69.3882  224.1492 H   0  0  0  0  0  0  0  0  0  0  0  0
  135.9370   67.8663  222.9287 H   0  0  0  0  0  0  0  0  0  0  0  0
  136.4406   68.8822  221.5683 H   0  0  0  0  0  0  0  0  0  0  0  0
  137.7152   66.4392  222.7150 H   0  0  0  0  0  0  0  0  0  0  0  0
  137.8429   67.0844  221.0731 H   0  0  0  0  0  0  0  0  0  0  0  0
  139.8573   67.2946  223.0034 H   0  0  0  0  0  0  0  0  0  0  0  0
  139.7214   68.4125  221.6397 H   0  0  0  0  0  0  0  0  0  0  0  0
  139.3413   70.0423  223.1730 H   0  0  0  0  0  0  0  0  0  0  0  0
  138.9560   66.7199  225.0667 H   0  0  0  0  0  0  0  0  0  0  0  0
  139.9600   67.0410  227.3990 H   0  0  0  0  0  0  0  0  0  0  0  0
  141.0240   69.2202  228.8886 H   0  0  0  0  0  0  0  0  0  0  0  0
  141.4831   71.6431  228.7449 H   0  0  0  0  0  0  0  0  0  0  0  0
  140.9075   72.8828  226.6390 H   0  0  0  0  0  0  0  0  0  0  0  0
  139.8864   71.6399  224.7519 H   0  0  0  0  0  0  0  0  0  0  0  0
  131.4547   71.5186  227.5501 H   0  0  0  0  0  0  0  0  0  0  0  0
  130.4252   73.6362  228.2752 H   0  0  0  0  0  0  0  0  0  0  0  0
  130.5021   76.0199  228.4359 H   0  0  0  0  0  0  0  0  0  0  0  0
  133.8615   78.1247  226.8182 H   0  0  0  0  0  0  0  0  0  0  0  0
  134.8740   75.9957  226.0953 H   0  0  0  0  0  0  0  0  0  0  0  0
  1  2  2  0
  2  3  1  0
  3  4  1  0
  4  5  1  0
  5  6  2  0
  5  7  1  0
  7  8  1  0
  8  9  1  0
  9 10  1  0
 10 11  1  0
 11 12  1  0
 12 13  2  0
 13 14  1  0
 14 15  1  0
 15 16  2  0
 16 17  1  0
 17 18  2  0
 18 19  1  0
 19 20  2  0
  2 21  1  0
 21 22  2  0
 22 23  1  0
 23 24  2  0
 24 25  1  0
 25 26  2  0
 26 27  1  0
 26 28  1  0
 28 29  2  0
 29 30  1  0
 30 31  2  0
 11  7  1  0
 20 12  1  0
 31 21  1  0
 20 15  1  0
 30 24  1  0
  3 32  1  0
  4 33  1  0
  4 34  1  0
  8 35  1  0
  8 36  1  0
  9 37  1  0
  9 38  1  0
 10 39  1  0
 10 40  1  0
 11 41  1  6
 13 42  1  0
 14 43  1  0
 16 44  1  0
 17 45  1  0
 18 46  1  0
 19 47  1  0
 22 48  1  0
 23 49  1  0
 25 50  1  0
 28 51  1  0
 29 52  1  0
M  END
>  <smiles>  (50) 
O=C(NCC(=O)N1CCC[C@@H]1c1c[nH]c2ccccc12)c1ccc2cc(Cl)ccc2n1

>  <score_type>  (50) 
oracle

>  <origin>  (50) 
autodockgpu

>  <m_score__min__energy>  (50) 
-9.6999999999999993

>  <m_primary>  (50) 
energy

>  <rmsd>  (50) 
8.783394649664888

>  <m_score__min__rmsd>  (50) 
8.783394649664888

>  <meeko>  (50) 
{"free_energy": -9.7, "intermolecular_energy": -11.19, "internal_energy": -2.2, "cluster_size": 10, "cluster_id": 1, "rank_in_cluster": 1}

>  <energy>  (50) 
-7.06

>  <cluster_rmsd>  (50) 
0.72

>  <cluster>  (50) 
6

$$$$
