
     RDKit          3D

 55 58  0  0  0  0  0  0  0  0999 V2000
  142.5450   80.0240  221.7610 N   0  0  0  0  0  0  0  0  0  0  0  0
  141.8890   80.2730  223.3490 S   0  0  0  0  0  0  0  0  0  0  0  0
  142.1080   81.7060  223.6960 O   0  0  0  0  0  0  0  0  0  0  0  0
  142.5740   79.3890  224.3540 O   0  0  0  0  0  0  0  0  0  0  0  0
  140.1700   79.9370  223.3860 C   0  0  0  0  0  0  0  0  0  0  0  0
  139.3280   80.8430  223.9950 C   0  0  0  0  0  0  0  0  0  0  0  0
  137.9880   80.5610  224.0130 C   0  0  0  0  0  0  0  0  0  0  0  0
  137.4890   79.4100  223.4410 C   0  0  0  0  0  0  0  0  0  0  0  0
  138.3170   78.4720  222.8170 C   0  0  0  0  0  0  0  0  0  0  0  0
  137.7520   77.2670  222.2250 C   0  0  0  0  0  0  0  0  0  0  0  0
  138.0480   76.8100  221.0360 C   0  0  0  0  0  0  0  0  0  0  0  0
  139.4560   76.7180  220.5960 C   0  0  0  0  0  0  0  0  0  0  0  0
  140.1080   75.5790  220.8770 N   0  0  0  0  0  0  0  0  0  0  0  0
  141.3940   75.4150  220.5320 C   0  0  0  0  0  0  0  0  0  0  0  0
  142.1080   74.2630  220.7970 C   0  0  0  0  0  0  0  0  0  0  0  0
  143.4260   74.1280  220.4300 C   0  0  0  0  0  0  0  0  0  0  0  0
  144.2420   72.6150  220.8180 Cl  0  0  0  0  0  0  0  0  0  0  0  0
  144.0740   75.1590  219.7750 C   0  0  0  0  0  0  0  0  0  0  0  0
  143.3480   76.2980  219.5180 C   0  0  0  0  0  0  0  0  0  0  0  0
  142.0290   76.4510  219.8790 C   0  0  0  0  0  0  0  0  0  0  0  0
  141.3310   77.6060  219.6070 C   0  0  0  0  0  0  0  0  0  0  0  0
  141.9380   78.5450  219.0050 O   0  0  0  0  0  0  0  0  0  0  0  0
  140.0200   77.7640  219.9620 N   0  0  0  0  0  0  0  0  0  0  0  0
  139.3900   78.9800  219.6560 C   0  0  0  0  0  0  0  0  0  0  0  0
  139.9410   80.2670  220.0840 C   0  0  0  0  0  0  0  0  0  0  0  0
  140.6540   81.0360  219.0050 C   0  0  0  0  0  0  0  0  0  0  0  0
  141.3080   82.2390  219.6050 C   0  0  0  0  0  0  0  0  0  0  0  0
  140.7560   82.5050  220.9610 C   0  0  0  0  0  0  0  0  0  0  0  0
  139.2560   82.3960  221.0670 C   0  0  0  0  0  0  0  0  0  0  0  0
  138.7210   81.1520  220.4350 C   0  0  0  0  0  0  0  0  0  0  0  0
  139.6570   78.7730  222.8100 C   0  0  0  0  0  0  0  0  0  0  0  0
  141.9190   79.3590  221.2590 H   0  0  0  0  0  0  0  0  0  0  0  0
  143.5120   79.6760  221.8850 H   0  0  0  0  0  0  0  0  0  0  0  0
  139.7202   81.7635  224.4521 H   0  0  0  0  0  0  0  0  0  0  0  0
  137.2954   81.2675  224.4938 H   0  0  0  0  0  0  0  0  0  0  0  0
  136.4054   79.2239  223.4767 H   0  0  0  0  0  0  0  0  0  0  0  0
  137.0227   76.6997  222.8220 H   0  0  0  0  0  0  0  0  0  0  0  0
  137.2426   76.4915  220.3579 H   0  0  0  0  0  0  0  0  0  0  0  0
  141.6088   73.4312  221.3156 H   0  0  0  0  0  0  0  0  0  0  0  0
  145.1278   75.0715  219.4718 H   0  0  0  0  0  0  0  0  0  0  0  0
  143.8468   77.1289  218.9976 H   0  0  0  0  0  0  0  0  0  0  0  0
  139.3209   79.0238  218.5591 H   0  0  0  0  0  0  0  0  0  0  0  0
  138.4644   78.9164  220.2469 H   0  0  0  0  0  0  0  0  0  0  0  0
  140.6555   80.0562  220.8934 H   0  0  0  0  0  0  0  0  0  0  0  0
  141.4184   80.3953  218.5412 H   0  0  0  0  0  0  0  0  0  0  0  0
  139.9306   81.3534  218.2395 H   0  0  0  0  0  0  0  0  0  0  0  0
  142.3910   82.0625  219.6824 H   0  0  0  0  0  0  0  0  0  0  0  0
  141.1129   83.1101  218.9622 H   0  0  0  0  0  0  0  0  0  0  0  0
  141.2016   81.7815  221.6596 H   0  0  0  0  0  0  0  0  0  0  0  0
  141.0075   83.5494  221.1976 H   0  0  0  0  0  0  0  0  0  0  0  0
  138.9776   82.3976  222.1312 H   0  0  0  0  0  0  0  0  0  0  0  0
  138.8224   83.2533  220.5312 H   0  0  0  0  0  0  0  0  0  0  0  0
  138.0604   80.6241  221.1385 H   0  0  0  0  0  0  0  0  0  0  0  0
  138.1335   81.3881  219.5355 H   0  0  0  0  0  0  0  0  0  0  0  0
  140.3539   78.0691  222.3316 H   0  0  0  0  0  0  0  0  0  0  0  0
  1  2  1  0
  2  3  2  0
  2  4  2  0
  2  5  1  0
  5  6  2  0
  6  7  1  0
  7  8  2  0
  8  9  1  0
  9 10  1  0
 10 11  2  0
 11 12  1  0
 12 13  2  0
 13 14  1  0
 14 15  2  0
 15 16  1  0
 16 17  1  0
 16 18  2  0
 18 19  1  0
 19 20  2  0
 20 21  1  0
 21 22  2  0
 21 23  1  0
 23 24  1  0
 24 25  1  0
 25 26  1  0
 26 27  1  0
 27 28  1  0
 28 29  1  0
 29 30  1  0
  9 31  2  0
 31  5  1  0
 23 12  1  0
 30 25  1  0
 20 14  1  0
  1 32  1  0
  1 33  1  0
  6 34  1  0
  7 35  1  0
  8 36  1  0
 10 37  1  0
 11 38  1  0
 15 39  1  0
 18 40  1  0
 19 41  1  0
 24 42  1  0
 24 43  1  0
 25 44  1  0
 26 45  1  0
 26 46  1  0
 27 47  1  0
 27 48  1  0
 28 49  1  0
 28 50  1  0
 29 51  1  0
 29 52  1  0
 30 53  1  0
 30 54  1  0
 31 55  1  0
M  END
>  <smiles>  (1) 
NS(=O)(=O)c1cccc(/C=C/c2nc3cc(Cl)ccc3c(=O)n2CC2CCCCC2)c1

>  <score_type>  (1) 
oracle

>  <origin>  (1) 
autodockgpu

>  <m_score__min__energy>  (1) 
-8.9600000000000009

>  <m_primary>  (1) 
energy

>  <rmsd>  (1) 
6.575440689622649

>  <m_score__min__rmsd>  (1) 
6.575440689622649

>  <meeko>  (1) 
{"free_energy": -6.27, "intermolecular_energy": -8.36, "internal_energy": -3.15, "cluster_size": 1, "cluster_id": 20, "rank_in_cluster": 1}

>  <energy>  (1) 
-8.96

>  <cluster_rmsd>  (1) 
0.0

>  <cluster>  (1) 
1

$$$$

     RDKit          3D

 55 58  0  0  0  0  0  0  0  0999 V2000
  146.2800   73.3950  218.9540 N   0  0  0  0  0  0  0  0  0  0  0  0
  145.0530   73.2140  220.1700 S   0  0  0  0  0  0  0  0  0  0  0  0
  145.7270   73.3160  221.4940 O   0  0  0  0  0  0  0  0  0  0  0  0
  144.3690   71.8810  220.0420 O   0  0  0  0  0  0  0  0  0  0  0  0
  143.8460   74.4780  220.0480 C   0  0  0  0  0  0  0  0  0  0  0  0
  144.0100   75.4660  219.1000 C   0  0  0  0  0  0  0  0  0  0  0  0
  143.0550   76.4440  219.0230 C   0  0  0  0  0  0  0  0  0  0  0  0
  141.9610   76.4480  219.8620 C   0  0  0  0  0  0  0  0  0  0  0  0
  141.7670   75.4610  220.8330 C   0  0  0  0  0  0  0  0  0  0  0  0
  140.5990   75.5000  221.7010 C   0  0  0  0  0  0  0  0  0  0  0  0
  139.3630   75.3530  221.2980 C   0  0  0  0  0  0  0  0  0  0  0  0
  138.2640   76.0790  221.9690 C   0  0  0  0  0  0  0  0  0  0  0  0
  137.3970   75.3430  222.6830 N   0  0  0  0  0  0  0  0  0  0  0  0
  136.3580   75.9160  223.3100 C   0  0  0  0  0  0  0  0  0  0  0  0
  135.4400   75.2040  224.0560 C   0  0  0  0  0  0  0  0  0  0  0  0
  134.3840   75.8210  224.6860 C   0  0  0  0  0  0  0  0  0  0  0  0
  133.2720   74.8170  225.6130 Cl  0  0  0  0  0  0  0  0  0  0  0  0
  134.2200   77.1910  224.5850 C   0  0  0  0  0  0  0  0  0  0  0  0
  135.1440   77.8840  223.8380 C   0  0  0  0  0  0  0  0  0  0  0  0
  136.2050   77.2820  223.2010 C   0  0  0  0  0  0  0  0  0  0  0  0
  137.1120   78.0050  222.4600 C   0  0  0  0  0  0  0  0  0  0  0  0
  136.9490   79.2620  222.3740 O   0  0  0  0  0  0  0  0  0  0  0  0
  138.1690   77.4140  221.8250 N   0  0  0  0  0  0  0  0  0  0  0  0
  139.0370   78.2280  221.0810 C   0  0  0  0  0  0  0  0  0  0  0  0
  140.3140   78.6950  221.6210 C   0  0  0  0  0  0  0  0  0  0  0  0
  140.6790   80.1050  221.2430 C   0  0  0  0  0  0  0  0  0  0  0  0
  142.0660   80.4000  221.7130 C   0  0  0  0  0  0  0  0  0  0  0  0
  142.5040   79.3820  222.7060 C   0  0  0  0  0  0  0  0  0  0  0  0
  141.4710   79.0290  223.7470 C   0  0  0  0  0  0  0  0  0  0  0  0
  140.1260   78.7520  223.1560 C   0  0  0  0  0  0  0  0  0  0  0  0
  142.7360   74.4890  220.8950 C   0  0  0  0  0  0  0  0  0  0  0  0
  147.0240   74.0110  219.3450 H   0  0  0  0  0  0  0  0  0  0  0  0
  145.8160   73.7810  218.1120 H   0  0  0  0  0  0  0  0  0  0  0  0
  144.8803   75.4683  218.4272 H   0  0  0  0  0  0  0  0  0  0  0  0
  143.1629   77.2438  218.2756 H   0  0  0  0  0  0  0  0  0  0  0  0
  141.2176   77.2529  219.7644 H   0  0  0  0  0  0  0  0  0  0  0  0
  140.7681   75.6653  222.7753 H   0  0  0  0  0  0  0  0  0  0  0  0
  139.1400   74.6842  220.4536 H   0  0  0  0  0  0  0  0  0  0  0  0
  135.5561   74.1141  224.1491 H   0  0  0  0  0  0  0  0  0  0  0  0
  133.3843   77.7054  225.0821 H   0  0  0  0  0  0  0  0  0  0  0  0
  135.0291   78.9740  223.7451 H   0  0  0  0  0  0  0  0  0  0  0  0
  139.2763   77.6672  220.1654 H   0  0  0  0  0  0  0  0  0  0  0  0
  138.4641   79.1635  220.9997 H   0  0  0  0  0  0  0  0  0  0  0  0
  141.0913   78.0181  221.2368 H   0  0  0  0  0  0  0  0  0  0  0  0
  140.6302   80.2165  220.1497 H   0  0  0  0  0  0  0  0  0  0  0  0
  139.9741   80.8063  221.7133 H   0  0  0  0  0  0  0  0  0  0  0  0
  142.7512   80.3855  220.8526 H   0  0  0  0  0  0  0  0  0  0  0  0
  142.0784   81.3916  222.1890 H   0  0  0  0  0  0  0  0  0  0  0  0
  142.7684   78.4638  222.1610 H   0  0  0  0  0  0  0  0  0  0  0  0
  143.3526   79.8238  223.2489 H   0  0  0  0  0  0  0  0  0  0  0  0
  141.8088   78.1327  224.2879 H   0  0  0  0  0  0  0  0  0  0  0  0
  141.3667   79.8945  224.4178 H   0  0  0  0  0  0  0  0  0  0  0  0
  139.7407   77.7904  223.5261 H   0  0  0  0  0  0  0  0  0  0  0  0
  139.4039   79.5331  223.4360 H   0  0  0  0  0  0  0  0  0  0  0  0
  142.6333   73.6877  221.6415 H   0  0  0  0  0  0  0  0  0  0  0  0
  1  2  1  0
  2  3  2  0
  2  4  2  0
  2  5  1  0
  5  6  2  0
  6  7  1  0
  7  8  2  0
  8  9  1  0
  9 10  1  0
 10 11  2  0
 11 12  1  0
 12 13  2  0
 13 14  1  0
 14 15  2  0
 15 16  1  0
 16 17  1  0
 16 18  2  0
 18 19  1  0
 19 20  2  0
 20 21  1  0
 21 22  2  0
 21 23  1  0
 23 24  1  0
 24 25  1  0
 25 26  1  0
 26 27  1  0
 27 28  1  0
 28 29  1  0
 29 30  1  0
  9 31  2  0
 31  5  1  0
 23 12  1  0
 30 25  1  0
 20 14  1  0
  1 32  1  0
  1 33  1  0
  6 34  1  0
  7 35  1  0
  8 36  1  0
 10 37  1  0
 11 38  1  0
 15 39  1  0
 18 40  1  0
 19 41  1  0
 24 42  1  0
 24 43  1  0
 25 44  1  0
 26 45  1  0
 26 46  1  0
 27 47  1  0
 27 48  1  0
 28 49  1  0
 28 50  1  0
 29 51  1  0
 29 52  1  0
 30 53  1  0
 30 54  1  0
 31 55  1  0
M  END
>  <smiles>  (2) 
NS(=O)(=O)c1cccc(/C=C/c2nc3cc(Cl)ccc3c(=O)n2CC2CCCCC2)c1

>  <score_type>  (2) 
oracle

>  <origin>  (2) 
autodockgpu

>  <m_score__min__energy>  (2) 
-8.9600000000000009

>  <m_primary>  (2) 
energy

>  <rmsd>  (2) 
6.600528255093883

>  <m_score__min__rmsd>  (2) 
6.600528255093883

>  <meeko>  (2) 
{"free_energy": -7.81, "intermolecular_energy": -9.9, "internal_energy": -1.8, "cluster_size": 2, "cluster_id": 11, "rank_in_cluster": 2}

>  <energy>  (2) 
-8.86

>  <cluster_rmsd>  (2) 
0.13

>  <cluster>  (2) 
1

$$$$

     RDKit          3D

 55 58  0  0  0  0  0  0  0  0999 V2000
  142.9280   79.7960  217.4860 N   0  0  0  0  0  0  0  0  0  0  0  0
  141.9620   81.2040  217.7980 S   0  0  0  0  0  0  0  0  0  0  0  0
  140.6350   80.9780  217.1580 O   0  0  0  0  0  0  0  0  0  0  0  0
  142.6080   82.4330  217.2200 O   0  0  0  0  0  0  0  0  0  0  0  0
  141.7290   81.4470  219.5170 C   0  0  0  0  0  0  0  0  0  0  0  0
  141.0510   82.5700  219.9450 C   0  0  0  0  0  0  0  0  0  0  0  0
  140.8800   82.7400  221.2920 C   0  0  0  0  0  0  0  0  0  0  0  0
  141.3670   81.8220  222.1990 C   0  0  0  0  0  0  0  0  0  0  0  0
  142.0570   80.6760  221.7970 C   0  0  0  0  0  0  0  0  0  0  0  0
  142.5560   79.7300  222.7860 C   0  0  0  0  0  0  0  0  0  0  0  0
  141.8050   78.9540  223.5230 C   0  0  0  0  0  0  0  0  0  0  0  0
  140.3320   79.0590  223.4640 C   0  0  0  0  0  0  0  0  0  0  0  0
  139.7670   80.0690  224.1430 N   0  0  0  0  0  0  0  0  0  0  0  0
  138.4350   80.2300  224.1610 C   0  0  0  0  0  0  0  0  0  0  0  0
  137.8060   81.2520  224.8440 C   0  0  0  0  0  0  0  0  0  0  0  0
  136.4370   81.3900  224.8420 C   0  0  0  0  0  0  0  0  0  0  0  0
  135.7380   82.7310  225.7470 Cl  0  0  0  0  0  0  0  0  0  0  0  0
  135.6500   80.4920  224.1430 C   0  0  0  0  0  0  0  0  0  0  0  0
  136.2930   79.4810  223.4690 C   0  0  0  0  0  0  0  0  0  0  0  0
  137.6610   79.3290  223.4600 C   0  0  0  0  0  0  0  0  0  0  0  0
  138.2740   78.3040  222.7750 C   0  0  0  0  0  0  0  0  0  0  0  0
  137.5400   77.4870  222.1380 O   0  0  0  0  0  0  0  0  0  0  0  0
  139.6320   78.1470  222.7620 N   0  0  0  0  0  0  0  0  0  0  0  0
  140.1700   77.0670  222.0470 C   0  0  0  0  0  0  0  0  0  0  0  0
  140.4210   77.1380  220.6070 C   0  0  0  0  0  0  0  0  0  0  0  0
  139.8820   78.3710  219.9340 C   0  0  0  0  0  0  0  0  0  0  0  0
  140.0560   78.2440  218.4550 C   0  0  0  0  0  0  0  0  0  0  0  0
  141.0160   77.1520  218.1390 C   0  0  0  0  0  0  0  0  0  0  0  0
  142.2570   77.1340  218.9950 C   0  0  0  0  0  0  0  0  0  0  0  0
  141.9560   77.2640  220.4530 C   0  0  0  0  0  0  0  0  0  0  0  0
  142.2180   80.5220  220.4410 C   0  0  0  0  0  0  0  0  0  0  0  0
  143.8870   79.9820  217.8470 H   0  0  0  0  0  0  0  0  0  0  0  0
  142.8910   79.6230  216.4650 H   0  0  0  0  0  0  0  0  0  0  0  0
  140.6603   83.3053  219.2262 H   0  0  0  0  0  0  0  0  0  0  0  0
  140.3431   83.6271  221.6591 H   0  0  0  0  0  0  0  0  0  0  0  0
  141.2069   81.9980  223.2730 H   0  0  0  0  0  0  0  0  0  0  0  0
  143.6454   79.6636  222.9229 H   0  0  0  0  0  0  0  0  0  0  0  0
  142.2732   78.2172  224.1922 H   0  0  0  0  0  0  0  0  0  0  0  0
  138.4159   81.9755  225.4049 H   0  0  0  0  0  0  0  0  0  0  0  0
  134.5539   80.5833  224.1272 H   0  0  0  0  0  0  0  0  0  0  0  0
  135.6834   78.7569  222.9085 H   0  0  0  0  0  0  0  0  0  0  0  0
  141.1377   76.8379  222.5172 H   0  0  0  0  0  0  0  0  0  0  0  0
  139.3592   76.3258  222.1037 H   0  0  0  0  0  0  0  0  0  0  0  0
  139.9432   76.2564  220.1548 H   0  0  0  0  0  0  0  0  0  0  0  0
  138.8132   78.4807  220.1700 H   0  0  0  0  0  0  0  0  0  0  0  0
  140.4281   79.2553  220.2942 H   0  0  0  0  0  0  0  0  0  0  0  0
  139.0836   78.0169  217.9936 H   0  0  0  0  0  0  0  0  0  0  0  0
  140.4495   79.1917  218.0587 H   0  0  0  0  0  0  0  0  0  0  0  0
  140.4964   76.1912  218.2693 H   0  0  0  0  0  0  0  0  0  0  0  0
  141.3542   77.3260  217.1068 H   0  0  0  0  0  0  0  0  0  0  0  0
  142.7852   76.1836  218.8284 H   0  0  0  0  0  0  0  0  0  0  0  0
  142.8722   77.9986  218.7052 H   0  0  0  0  0  0  0  0  0  0  0  0
  142.4597   76.4646  221.0162 H   0  0  0  0  0  0  0  0  0  0  0  0
  142.3137   78.2275  220.8450 H   0  0  0  0  0  0  0  0  0  0  0  0
  142.7529   79.6356  220.0693 H   0  0  0  0  0  0  0  0  0  0  0  0
  1  2  1  0
  2  3  2  0
  2  4  2  0
  2  5  1  0
  5  6  2  0
  6  7  1  0
  7  8  2  0
  8  9  1  0
  9 10  1  0
 10 11  2  0
 11 12  1  0
 12 13  2  0
 13 14  1  0
 14 15  2  0
 15 16  1  0
 16 17  1  0
 16 18  2  0
 18 19  1  0
 19 20  2  0
 20 21  1  0
 21 22  2  0
 21 23  1  0
 23 24  1  0
 24 25  1  0
 25 26  1  0
 26 27  1  0
 27 28  1  0
 28 29  1  0
 29 30  1  0
  9 31  2  0
 31  5  1  0
 23 12  1  0
 30 25  1  0
 20 14  1  0
  1 32  1  0
  1 33  1  0
  6 34  1  0
  7 35  1  0
  8 36  1  0
 10 37  1  0
 11 38  1  0
 15 39  1  0
 18 40  1  0
 19 41  1  0
 24 42  1  0
 24 43  1  0
 25 44  1  0
 26 45  1  0
 26 46  1  0
 27 47  1  0
 27 48  1  0
 28 49  1  0
 28 50  1  0
 29 51  1  0
 29 52  1  0
 30 53  1  0
 30 54  1  0
 31 55  1  0
M  END
>  <smiles>  (3) 
NS(=O)(=O)c1cccc(/C=C/c2nc3cc(Cl)ccc3c(=O)n2CC2CCCCC2)c1

>  <score_type>  (3) 
oracle

>  <origin>  (3) 
autodockgpu

>  <m_score__min__energy>  (3) 
-8.9600000000000009

>  <m_primary>  (3) 
energy

>  <rmsd>  (3) 
3.9243780585356265

>  <m_score__min__rmsd>  (3) 
3.9243780585356265

>  <meeko>  (3) 
{"free_energy": -6.99, "intermolecular_energy": -9.08, "internal_energy": -2.87, "cluster_size": 5, "cluster_id": 17, "rank_in_cluster": 4}

>  <energy>  (3) 
-8.71

>  <cluster_rmsd>  (3) 
1.05

>  <cluster>  (3) 
1

$$$$

     RDKit          3D

 55 58  0  0  0  0  0  0  0  0999 V2000
  146.0560   73.4060  218.9100 N   0  0  0  0  0  0  0  0  0  0  0  0
  145.1010   73.3820  220.3590 S   0  0  0  0  0  0  0  0  0  0  0  0
  146.0000   73.7620  221.4850 O   0  0  0  0  0  0  0  0  0  0  0  0
  144.5280   72.0120  220.5980 O   0  0  0  0  0  0  0  0  0  0  0  0
  143.7840   74.5340  220.2720 C   0  0  0  0  0  0  0  0  0  0  0  0
  144.0360   75.7980  219.7840 C   0  0  0  0  0  0  0  0  0  0  0  0
  142.9930   76.6830  219.7250 C   0  0  0  0  0  0  0  0  0  0  0  0
  141.7260   76.3270  220.1380 C   0  0  0  0  0  0  0  0  0  0  0  0
  141.4390   75.0540  220.6380 C   0  0  0  0  0  0  0  0  0  0  0  0
  140.0880   74.7170  221.0650 C   0  0  0  0  0  0  0  0  0  0  0  0
  139.0060   75.3510  220.6930 C   0  0  0  0  0  0  0  0  0  0  0  0
  137.9750   75.7210  221.6850 C   0  0  0  0  0  0  0  0  0  0  0  0
  137.3170   74.7150  222.2820 N   0  0  0  0  0  0  0  0  0  0  0  0
  136.3510   74.9580  223.1820 C   0  0  0  0  0  0  0  0  0  0  0  0
  135.6470   73.9580  223.8230 C   0  0  0  0  0  0  0  0  0  0  0  0
  134.6620   74.2420  224.7410 C   0  0  0  0  0  0  0  0  0  0  0  0
  133.8250   72.8900  225.5010 Cl  0  0  0  0  0  0  0  0  0  0  0  0
  134.3530   75.5550  225.0450 C   0  0  0  0  0  0  0  0  0  0  0  0
  135.0650   76.5370  224.3970 C   0  0  0  0  0  0  0  0  0  0  0  0
  136.0530   76.2720  223.4760 C   0  0  0  0  0  0  0  0  0  0  0  0
  136.7460   77.2790  222.8450 C   0  0  0  0  0  0  0  0  0  0  0  0
  136.4530   78.4800  223.1330 O   0  0  0  0  0  0  0  0  0  0  0  0
  137.7290   77.0220  221.9300 N   0  0  0  0  0  0  0  0  0  0  0  0
  138.3760   78.1110  221.3250 C   0  0  0  0  0  0  0  0  0  0  0  0
  139.5080   78.7890  221.9570 C   0  0  0  0  0  0  0  0  0  0  0  0
  139.1310   79.7960  223.0100 C   0  0  0  0  0  0  0  0  0  0  0  0
  140.3550   80.5290  223.4540 C   0  0  0  0  0  0  0  0  0  0  0  0
  141.5800   79.8060  223.0150 C   0  0  0  0  0  0  0  0  0  0  0  0
  141.5420   78.3140  223.2250 C   0  0  0  0  0  0  0  0  0  0  0  0
  140.2720   77.6930  222.7390 C   0  0  0  0  0  0  0  0  0  0  0  0
  142.4990   74.1810  220.6890 C   0  0  0  0  0  0  0  0  0  0  0  0
  146.9740   73.8410  219.1420 H   0  0  0  0  0  0  0  0  0  0  0  0
  145.5130   73.9290  218.1990 H   0  0  0  0  0  0  0  0  0  0  0  0
  145.0441   76.0870  219.4521 H   0  0  0  0  0  0  0  0  0  0  0  0
  143.1690   77.6985  219.3405 H   0  0  0  0  0  0  0  0  0  0  0  0
  140.9161   77.0684  220.0717 H   0  0  0  0  0  0  0  0  0  0  0  0
  139.9686   73.8659  221.7515 H   0  0  0  0  0  0  0  0  0  0  0  0
  138.8624   75.6107  219.6338 H   0  0  0  0  0  0  0  0  0  0  0  0
  135.8795   72.9075  223.5940 H   0  0  0  0  0  0  0  0  0  0  0  0
  133.5693   75.8040  225.7756 H   0  0  0  0  0  0  0  0  0  0  0  0
  134.8332   77.5876  224.6263 H   0  0  0  0  0  0  0  0  0  0  0  0
  138.7376   77.7516  220.3503 H   0  0  0  0  0  0  0  0  0  0  0  0
  137.5970   78.8871  221.3531 H   0  0  0  0  0  0  0  0  0  0  0  0
  140.0569   79.3085  221.1577 H   0  0  0  0  0  0  0  0  0  0  0  0
  138.4063   80.5104  222.5923 H   0  0  0  0  0  0  0  0  0  0  0  0
  138.6796   79.2786  223.8694 H   0  0  0  0  0  0  0  0  0  0  0  0
  140.3526   81.5378  223.0154 H   0  0  0  0  0  0  0  0  0  0  0  0
  140.3533   80.5946  224.5520 H   0  0  0  0  0  0  0  0  0  0  0  0
  141.7240   79.9970  221.9413 H   0  0  0  0  0  0  0  0  0  0  0  0
  142.4037   80.1857  223.6373 H   0  0  0  0  0  0  0  0  0  0  0  0
  142.3849   77.8611  222.6824 H   0  0  0  0  0  0  0  0  0  0  0  0
  141.6077   78.1300  224.3075 H   0  0  0  0  0  0  0  0  0  0  0  0
  140.4952   76.8424  222.0782 H   0  0  0  0  0  0  0  0  0  0  0  0
  139.6705   77.3162  223.5793 H   0  0  0  0  0  0  0  0  0  0  0  0
  142.3286   73.1645  221.0733 H   0  0  0  0  0  0  0  0  0  0  0  0
  1  2  1  0
  2  3  2  0
  2  4  2  0
  2  5  1  0
  5  6  2  0
  6  7  1  0
  7  8  2  0
  8  9  1  0
  9 10  1  0
 10 11  2  0
 11 12  1  0
 12 13  2  0
 13 14  1  0
 14 15  2  0
 15 16  1  0
 16 17  1  0
 16 18  2  0
 18 19  1  0
 19 20  2  0
 20 21  1  0
 21 22  2  0
 21 23  1  0
 23 24  1  0
 24 25  1  0
 25 26  1  0
 26 27  1  0
 27 28  1  0
 28 29  1  0
 29 30  1  0
  9 31  2  0
 31  5  1  0
 23 12  1  0
 30 25  1  0
 20 14  1  0
  1 32  1  0
  1 33  1  0
  6 34  1  0
  7 35  1  0
  8 36  1  0
 10 37  1  0
 11 38  1  0
 15 39  1  0
 18 40  1  0
 19 41  1  0
 24 42  1  0
 24 43  1  0
 25 44  1  0
 26 45  1  0
 26 46  1  0
 27 47  1  0
 27 48  1  0
 28 49  1  0
 28 50  1  0
 29 51  1  0
 29 52  1  0
 30 53  1  0
 30 54  1  0
 31 55  1  0
M  END
>  <smiles>  (4) 
NS(=O)(=O)c1cccc(/C=C/c2nc3cc(Cl)ccc3c(=O)n2CC2CCCCC2)c1

>  <score_type>  (4) 
oracle

>  <origin>  (4) 
autodockgpu

>  <m_score__min__energy>  (4) 
-8.9600000000000009

>  <m_primary>  (4) 
energy

>  <rmsd>  (4) 
7.5275676955078135

>  <m_score__min__rmsd>  (4) 
7.5275676955078135

>  <meeko>  (4) 
{"free_energy": -7.93, "intermolecular_energy": -10.02, "internal_energy": -1.83, "cluster_size": 2, "cluster_id": 11, "rank_in_cluster": 1}

>  <energy>  (4) 
-8.58

>  <cluster_rmsd>  (4) 
1.29

>  <cluster>  (4) 
1

$$$$

     RDKit          3D

 55 58  0  0  0  0  0  0  0  0999 V2000
  143.3120   81.1140  217.4630 N   0  0  0  0  0  0  0  0  0  0  0  0
  141.6740   81.1410  218.0370 S   0  0  0  0  0  0  0  0  0  0  0  0
  141.0970   79.7910  217.7840 O   0  0  0  0  0  0  0  0  0  0  0  0
  140.8720   82.1870  217.3140 O   0  0  0  0  0  0  0  0  0  0  0  0
  141.6090   81.4720  219.7560 C   0  0  0  0  0  0  0  0  0  0  0  0
  141.0280   82.6460  220.1870 C   0  0  0  0  0  0  0  0  0  0  0  0
  140.9880   82.8850  221.5340 C   0  0  0  0  0  0  0  0  0  0  0  0
  141.5090   81.9850  222.4390 C   0  0  0  0  0  0  0  0  0  0  0  0
  142.1040   80.7870  222.0340 C   0  0  0  0  0  0  0  0  0  0  0  0
  142.6440   79.8600  223.0200 C   0  0  0  0  0  0  0  0  0  0  0  0
  142.0250   78.7980  223.4650 C   0  0  0  0  0  0  0  0  0  0  0  0
  140.5800   78.6120  223.2150 C   0  0  0  0  0  0  0  0  0  0  0  0
  139.7580   79.5760  223.6590 N   0  0  0  0  0  0  0  0  0  0  0  0
  138.4290   79.4820  223.4930 C   0  0  0  0  0  0  0  0  0  0  0  0
  137.5420   80.4460  223.9300 C   0  0  0  0  0  0  0  0  0  0  0  0
  136.1850   80.3180  223.7440 C   0  0  0  0  0  0  0  0  0  0  0  0
  135.1430   81.6080  224.3410 Cl  0  0  0  0  0  0  0  0  0  0  0  0
  135.6740   79.2040  223.1030 C   0  0  0  0  0  0  0  0  0  0  0  0
  136.5710   78.2550  222.6750 C   0  0  0  0  0  0  0  0  0  0  0  0
  137.9320   78.3660  222.8530 C   0  0  0  0  0  0  0  0  0  0  0  0
  138.8030   77.3970  222.4110 C   0  0  0  0  0  0  0  0  0  0  0  0
  138.3200   76.3790  221.8250 O   0  0  0  0  0  0  0  0  0  0  0  0
  140.1550   77.5010  222.5840 N   0  0  0  0  0  0  0  0  0  0  0  0
  140.9690   76.4580  222.1140 C   0  0  0  0  0  0  0  0  0  0  0  0
  141.3190   76.3270  220.6990 C   0  0  0  0  0  0  0  0  0  0  0  0
  142.2170   77.4130  220.1700 C   0  0  0  0  0  0  0  0  0  0  0  0
  142.3620   77.2570  218.6910 C   0  0  0  0  0  0  0  0  0  0  0  0
  141.9040   75.9070  218.2650 C   0  0  0  0  0  0  0  0  0  0  0  0
  142.3780   74.7740  219.1380 C   0  0  0  0  0  0  0  0  0  0  0  0
  142.1770   75.0440  220.5950 C   0  0  0  0  0  0  0  0  0  0  0  0
  142.1350   80.5650  220.6780 C   0  0  0  0  0  0  0  0  0  0  0  0
  143.2890   81.2560  216.4300 H   0  0  0  0  0  0  0  0  0  0  0  0
  143.7200   80.2070  217.7520 H   0  0  0  0  0  0  0  0  0  0  0  0
  140.6096   83.3681  219.4703 H   0  0  0  0  0  0  0  0  0  0  0  0
  140.5304   83.8150  221.9023 H   0  0  0  0  0  0  0  0  0  0  0  0
  141.4547   82.2169  223.5129 H   0  0  0  0  0  0  0  0  0  0  0  0
  143.6472   80.0694  223.4197 H   0  0  0  0  0  0  0  0  0  0  0  0
  142.5836   78.0371  224.0297 H   0  0  0  0  0  0  0  0  0  0  0  0
  137.9307   81.3396  224.4402 H   0  0  0  0  0  0  0  0  0  0  0  0
  134.5926   79.0825  222.9422 H   0  0  0  0  0  0  0  0  0  0  0  0
  136.1822   77.3616  222.1645 H   0  0  0  0  0  0  0  0  0  0  0  0
  141.9201   76.5390  222.6606 H   0  0  0  0  0  0  0  0  0  0  0  0
  140.3329   75.5757  222.2781 H   0  0  0  0  0  0  0  0  0  0  0  0
  140.3763   76.3460  220.1324 H   0  0  0  0  0  0  0  0  0  0  0  0
  141.7767   78.3957  220.3944 H   0  0  0  0  0  0  0  0  0  0  0  0
  143.2054   77.3389  220.6470 H   0  0  0  0  0  0  0  0  0  0  0  0
  141.7554   78.0222  218.1845 H   0  0  0  0  0  0  0  0  0  0  0  0
  143.4219   77.3759  218.4216 H   0  0  0  0  0  0  0  0  0  0  0  0
  140.8040   75.9027  218.2662 H   0  0  0  0  0  0  0  0  0  0  0  0
  142.3378   75.7329  217.2693 H   0  0  0  0  0  0  0  0  0  0  0  0
  141.8201   73.8651  218.8684 H   0  0  0  0  0  0  0  0  0  0  0  0
  143.4582   74.6540  218.9686 H   0  0  0  0  0  0  0  0  0  0  0  0
  141.6540   74.1996  221.0677 H   0  0  0  0  0  0  0  0  0  0  0  0
  143.1412   75.1719  221.1088 H   0  0  0  0  0  0  0  0  0  0  0  0
  142.5920   79.6367  220.3046 H   0  0  0  0  0  0  0  0  0  0  0  0
  1  2  1  0
  2  3  2  0
  2  4  2  0
  2  5  1  0
  5  6  2  0
  6  7  1  0
  7  8  2  0
  8  9  1  0
  9 10  1  0
 10 11  2  0
 11 12  1  0
 12 13  2  0
 13 14  1  0
 14 15  2  0
 15 16  1  0
 16 17  1  0
 16 18  2  0
 18 19  1  0
 19 20  2  0
 20 21  1  0
 21 22  2  0
 21 23  1  0
 23 24  1  0
 24 25  1  0
 25 26  1  0
 26 27  1  0
 27 28  1  0
 28 29  1  0
 29 30  1  0
  9 31  2  0
 31  5  1  0
 23 12  1  0
 30 25  1  0
 20 14  1  0
  1 32  1  0
  1 33  1  0
  6 34  1  0
  7 35  1  0
  8 36  1  0
 10 37  1  0
 11 38  1  0
 15 39  1  0
 18 40  1  0
 19 41  1  0
 24 42  1  0
 24 43  1  0
 25 44  1  0
 26 45  1  0
 26 46  1  0
 27 47  1  0
 27 48  1  0
 28 49  1  0
 28 50  1  0
 29 51  1  0
 29 52  1  0
 30 53  1  0
 30 54  1  0
 31 55  1  0
M  END
>  <smiles>  (5) 
NS(=O)(=O)c1cccc(/C=C/c2nc3cc(Cl)ccc3c(=O)n2CC2CCCCC2)c1

>  <score_type>  (5) 
oracle

>  <origin>  (5) 
autodockgpu

>  <m_score__min__energy>  (5) 
-8.9600000000000009

>  <m_primary>  (5) 
energy

>  <rmsd>  (5) 
3.87665461798165

>  <m_score__min__rmsd>  (5) 
3.87665461798165

>  <meeko>  (5) 
{"free_energy": -7.07, "intermolecular_energy": -9.15, "internal_energy": -2.34, "cluster_size": 5, "cluster_id": 17, "rank_in_cluster": 3}

>  <energy>  (5) 
-8.53

>  <cluster_rmsd>  (5) 
1.15

>  <cluster>  (5) 
1

$$$$

     RDKit          3D

 55 58  0  0  0  0  0  0  0  0999 V2000
  146.3630   73.4320  219.1140 N   0  0  0  0  0  0  0  0  0  0  0  0
  145.2600   73.3100  220.4480 S   0  0  0  0  0  0  0  0  0  0  0  0
  146.0000   73.7290  221.6710 O   0  0  0  0  0  0  0  0  0  0  0  0
  144.7660   71.8980  220.6040 O   0  0  0  0  0  0  0  0  0  0  0  0
  143.8800   74.3670  220.2300 C   0  0  0  0  0  0  0  0  0  0  0  0
  144.0870   75.6420  219.7470 C   0  0  0  0  0  0  0  0  0  0  0  0
  142.9950   76.4510  219.5850 C   0  0  0  0  0  0  0  0  0  0  0  0
  141.7240   76.0120  219.8910 C   0  0  0  0  0  0  0  0  0  0  0  0
  141.4820   74.7270  220.3810 C   0  0  0  0  0  0  0  0  0  0  0  0
  140.1240   74.3000  220.6940 C   0  0  0  0  0  0  0  0  0  0  0  0
  139.4840   74.5940  221.7950 C   0  0  0  0  0  0  0  0  0  0  0  0
  139.3420   76.0000  222.2280 C   0  0  0  0  0  0  0  0  0  0  0  0
  140.4760   76.6780  222.4690 N   0  0  0  0  0  0  0  0  0  0  0  0
  140.4420   77.9540  222.8840 C   0  0  0  0  0  0  0  0  0  0  0  0
  141.5780   78.6940  223.1450 C   0  0  0  0  0  0  0  0  0  0  0  0
  141.5090   80.0010  223.5700 C   0  0  0  0  0  0  0  0  0  0  0  0
  143.0220   80.8530  223.8740 Cl  0  0  0  0  0  0  0  0  0  0  0  0
  140.2800   80.6100  223.7460 C   0  0  0  0  0  0  0  0  0  0  0  0
  139.1600   79.8580  223.4820 C   0  0  0  0  0  0  0  0  0  0  0  0
  139.2100   78.5500  223.0560 C   0  0  0  0  0  0  0  0  0  0  0  0
  138.0690   77.8250  222.8000 C   0  0  0  0  0  0  0  0  0  0  0  0
  136.9460   78.3960  222.9660 O   0  0  0  0  0  0  0  0  0  0  0  0
  138.1110   76.5260  222.3770 N   0  0  0  0  0  0  0  0  0  0  0  0
  136.8980   75.8590  222.1520 C   0  0  0  0  0  0  0  0  0  0  0  0
  136.1850   75.1650  223.2250 C   0  0  0  0  0  0  0  0  0  0  0  0
  135.2940   76.0430  224.0610 C   0  0  0  0  0  0  0  0  0  0  0  0
  134.7610   75.2540  225.2130 C   0  0  0  0  0  0  0  0  0  0  0  0
  134.9580   73.7980  224.9780 C   0  0  0  0  0  0  0  0  0  0  0  0
  134.6140   73.3290  223.5880 C   0  0  0  0  0  0  0  0  0  0  0  0
  135.2070   74.1940  222.5220 C   0  0  0  0  0  0  0  0  0  0  0  0
  142.5900   73.9290  220.5380 C   0  0  0  0  0  0  0  0  0  0  0  0
  147.1320   74.0770  219.3950 H   0  0  0  0  0  0  0  0  0  0  0  0
  145.8170   73.7630  218.2980 H   0  0  0  0  0  0  0  0  0  0  0  0
  145.0981   75.9977  219.4997 H   0  0  0  0  0  0  0  0  0  0  0  0
  143.1341   77.4730  219.2026 H   0  0  0  0  0  0  0  0  0  0  0  0
  140.8745   76.6953  219.7446 H   0  0  0  0  0  0  0  0  0  0  0  0
  139.5989   73.6848  219.9484 H   0  0  0  0  0  0  0  0  0  0  0  0
  139.0476   73.7887  222.4041 H   0  0  0  0  0  0  0  0  0  0  0  0
  142.5644   78.2264  223.0096 H   0  0  0  0  0  0  0  0  0  0  0  0
  140.2018   81.6540  224.0836 H   0  0  0  0  0  0  0  0  0  0  0  0
  138.1735   80.3253  223.6181 H   0  0  0  0  0  0  0  0  0  0  0  0
  136.2011   76.6123  221.7559 H   0  0  0  0  0  0  0  0  0  0  0  0
  137.2087   75.0261  221.5042 H   0  0  0  0  0  0  0  0  0  0  0  0
  136.9485   74.7194  223.8796 H   0  0  0  0  0  0  0  0  0  0  0  0
  135.8721   76.8993  224.4386 H   0  0  0  0  0  0  0  0  0  0  0  0
  134.4576   76.4090  223.4474 H   0  0  0  0  0  0  0  0  0  0  0  0
  135.2915   75.5483  226.1306 H   0  0  0  0  0  0  0  0  0  0  0  0
  133.6849   75.4568  225.3177 H   0  0  0  0  0  0  0  0  0  0  0  0
  136.0154   73.5611  225.1670 H   0  0  0  0  0  0  0  0  0  0  0  0
  134.2678   73.2787  225.6592 H   0  0  0  0  0  0  0  0  0  0  0  0
  134.9915   72.3038  223.4593 H   0  0  0  0  0  0  0  0  0  0  0  0
  133.5200   73.3768  223.4832 H   0  0  0  0  0  0  0  0  0  0  0  0
  135.7480   73.5758  221.7904 H   0  0  0  0  0  0  0  0  0  0  0  0
  134.4240   74.7460  221.9814 H   0  0  0  0  0  0  0  0  0  0  0  0
  142.4557   72.9065  220.9208 H   0  0  0  0  0  0  0  0  0  0  0  0
  1  2  1  0
  2  3  2  0
  2  4  2  0
  2  5  1  0
  5  6  2  0
  6  7  1  0
  7  8  2  0
  8  9  1  0
  9 10  1  0
 10 11  2  0
 11 12  1  0
 12 13  2  0
 13 14  1  0
 14 15  2  0
 15 16  1  0
 16 17  1  0
 16 18  2  0
 18 19  1  0
 19 20  2  0
 20 21  1  0
 21 22  2  0
 21 23  1  0
 23 24  1  0
 24 25  1  0
 25 26  1  0
 26 27  1  0
 27 28  1  0
 28 29  1  0
 29 30  1  0
  9 31  2  0
 31  5  1  0
 23 12  1  0
 30 25  1  0
 20 14  1  0
  1 32  1  0
  1 33  1  0
  6 34  1  0
  7 35  1  0
  8 36  1  0
 10 37  1  0
 11 38  1  0
 15 39  1  0
 18 40  1  0
 19 41  1  0
 24 42  1  0
 24 43  1  0
 25 44  1  0
 26 45  1  0
 26 46  1  0
 27 47  1  0
 27 48  1  0
 28 49  1  0
 28 50  1  0
 29 51  1  0
 29 52  1  0
 30 53  1  0
 30 54  1  0
 31 55  1  0
M  END
>  <smiles>  (6) 
NS(=O)(=O)c1cccc(/C=C/c2nc3cc(Cl)ccc3c(=O)n2CC2CCCCC2)c1

>  <score_type>  (6) 
oracle

>  <origin>  (6) 
autodockgpu

>  <m_score__min__energy>  (6) 
-8.9600000000000009

>  <m_primary>  (6) 
energy

>  <rmsd>  (6) 
6.410445804977447

>  <m_score__min__rmsd>  (6) 
6.410445804977447

>  <meeko>  (6) 
{"free_energy": -8.86, "intermolecular_energy": -10.94, "internal_energy": -1.52, "cluster_size": 7, "cluster_id": 1, "rank_in_cluster": 2}

>  <energy>  (6) 
-8.2

>  <cluster_rmsd>  (6) 
1.0

>  <cluster>  (6) 
1

$$$$

     RDKit          3D

 55 58  0  0  0  0  0  0  0  0999 V2000
  143.5650   79.7380  222.7500 N   0  0  0  0  0  0  0  0  0  0  0  0
  142.0960   80.6440  222.9410 S   0  0  0  0  0  0  0  0  0  0  0  0
  142.0160   81.5990  221.8000 O   0  0  0  0  0  0  0  0  0  0  0  0
  142.0990   81.3960  224.2430 O   0  0  0  0  0  0  0  0  0  0  0  0
  140.6930   79.5950  222.9020 C   0  0  0  0  0  0  0  0  0  0  0  0
  139.5240   80.0250  223.4930 C   0  0  0  0  0  0  0  0  0  0  0  0
  138.4400   79.1900  223.4510 C   0  0  0  0  0  0  0  0  0  0  0  0
  138.5080   77.9560  222.8380 C   0  0  0  0  0  0  0  0  0  0  0  0
  139.6770   77.4920  222.2310 C   0  0  0  0  0  0  0  0  0  0  0  0
  139.7100   76.1830  221.5940 C   0  0  0  0  0  0  0  0  0  0  0  0
  140.7420   75.3790  221.5900 C   0  0  0  0  0  0  0  0  0  0  0  0
  140.5520   73.9140  221.5840 C   0  0  0  0  0  0  0  0  0  0  0  0
  139.6370   73.4160  222.4310 N   0  0  0  0  0  0  0  0  0  0  0  0
  139.4120   72.0950  222.5070 C   0  0  0  0  0  0  0  0  0  0  0  0
  138.4830   71.5350  223.3600 C   0  0  0  0  0  0  0  0  0  0  0  0
  138.2760   70.1750  223.4140 C   0  0  0  0  0  0  0  0  0  0  0  0
  137.0650   69.5660  224.5400 Cl  0  0  0  0  0  0  0  0  0  0  0  0
  139.0070   69.3290  222.6000 C   0  0  0  0  0  0  0  0  0  0  0  0
  139.9280   69.9050  221.7560 C   0  0  0  0  0  0  0  0  0  0  0  0
  140.1470   71.2620  221.6900 C   0  0  0  0  0  0  0  0  0  0  0  0
  141.0770   71.8060  220.8340 C   0  0  0  0  0  0  0  0  0  0  0  0
  141.7420   71.0180  220.0920 O   0  0  0  0  0  0  0  0  0  0  0  0
  141.3000   73.1530  220.7620 N   0  0  0  0  0  0  0  0  0  0  0  0
  142.2780   73.6200  219.8700 C   0  0  0  0  0  0  0  0  0  0  0  0
  143.6550   73.1260  219.9020 C   0  0  0  0  0  0  0  0  0  0  0  0
  144.2340   72.7880  218.5550 C   0  0  0  0  0  0  0  0  0  0  0  0
  145.5700   72.1440  218.7390 C   0  0  0  0  0  0  0  0  0  0  0  0
  146.0690   72.3720  220.1220 C   0  0  0  0  0  0  0  0  0  0  0  0
  145.8930   73.7790  220.6340 C   0  0  0  0  0  0  0  0  0  0  0  0
  144.5170   74.3120  220.3970 C   0  0  0  0  0  0  0  0  0  0  0  0
  140.7540   78.3450  222.2840 C   0  0  0  0  0  0  0  0  0  0  0  0
  144.0910   80.1510  221.9510 H   0  0  0  0  0  0  0  0  0  0  0  0
  143.2940   78.7490  222.6050 H   0  0  0  0  0  0  0  0  0  0  0  0
  139.4642   81.0081  223.9829 H   0  0  0  0  0  0  0  0  0  0  0  0
  137.4955   79.5095  223.9155 H   0  0  0  0  0  0  0  0  0  0  0  0
  137.6127   77.3170  222.8270 H   0  0  0  0  0  0  0  0  0  0  0  0
  138.7994   75.8450  221.0777 H   0  0  0  0  0  0  0  0  0  0  0  0
  141.7594   75.7972  221.5911 H   0  0  0  0  0  0  0  0  0  0  0  0
  137.8921   72.1928  224.0143 H   0  0  0  0  0  0  0  0  0  0  0  0
  138.8580   68.2395  222.6264 H   0  0  0  0  0  0  0  0  0  0  0  0
  140.5190   69.2480  221.1010 H   0  0  0  0  0  0  0  0  0  0  0  0
  141.8986   73.4096  218.8591 H   0  0  0  0  0  0  0  0  0  0  0  0
  142.4001   74.6661  220.1876 H   0  0  0  0  0  0  0  0  0  0  0  0
  143.6542   72.2160  220.5200 H   0  0  0  0  0  0  0  0  0  0  0  0
  143.5611   72.0945  218.0293 H   0  0  0  0  0  0  0  0  0  0  0  0
  144.3467   73.7071  217.9613 H   0  0  0  0  0  0  0  0  0  0  0  0
  145.4789   71.0625  218.5602 H   0  0  0  0  0  0  0  0  0  0  0  0
  146.2809   72.5862  218.0255 H   0  0  0  0  0  0  0  0  0  0  0  0
  145.5286   71.6921  220.7971 H   0  0  0  0  0  0  0  0  0  0  0  0
  147.1528   72.1859  220.0946 H   0  0  0  0  0  0  0  0  0  0  0  0
  146.0919   73.7871  221.7158 H   0  0  0  0  0  0  0  0  0  0  0  0
  146.5971   74.4222  220.0857 H   0  0  0  0  0  0  0  0  0  0  0  0
  144.1020   74.7171  221.3317 H   0  0  0  0  0  0  0  0  0  0  0  0
  144.5316   75.1246  219.6558 H   0  0  0  0  0  0  0  0  0  0  0  0
  141.7009   78.0300  221.8212 H   0  0  0  0  0  0  0  0  0  0  0  0
  1  2  1  0
  2  3  2  0
  2  4  2  0
  2  5  1  0
  5  6  2  0
  6  7  1  0
  7  8  2  0
  8  9  1  0
  9 10  1  0
 10 11  2  0
 11 12  1  0
 12 13  2  0
 13 14  1  0
 14 15  2  0
 15 16  1  0
 16 17  1  0
 16 18  2  0
 18 19  1  0
 19 20  2  0
 20 21  1  0
 21 22  2  0
 21 23  1  0
 23 24  1  0
 24 25  1  0
 25 26  1  0
 26 27  1  0
 27 28  1  0
 28 29  1  0
 29 30  1  0
  9 31  2  0
 31  5  1  0
 23 12  1  0
 30 25  1  0
 20 14  1  0
  1 32  1  0
  1 33  1  0
  6 34  1  0
  7 35  1  0
  8 36  1  0
 10 37  1  0
 11 38  1  0
 15 39  1  0
 18 40  1  0
 19 41  1  0
 24 42  1  0
 24 43  1  0
 25 44  1  0
 26 45  1  0
 26 46  1  0
 27 47  1  0
 27 48  1  0
 28 49  1  0
 28 50  1  0
 29 51  1  0
 29 52  1  0
 30 53  1  0
 30 54  1  0
 31 55  1  0
M  END
>  <smiles>  (7) 
NS(=O)(=O)c1cccc(/C=C/c2nc3cc(Cl)ccc3c(=O)n2CC2CCCCC2)c1

>  <score_type>  (7) 
oracle

>  <origin>  (7) 
autodockgpu

>  <m_score__min__energy>  (7) 
-8.9600000000000009

>  <m_primary>  (7) 
energy

>  <rmsd>  (7) 
8.986554905378696

>  <m_score__min__rmsd>  (7) 
8.986554905378696

>  <meeko>  (7) 
{"free_energy": -8.25, "intermolecular_energy": -10.34, "internal_energy": -1.13, "cluster_size": 1, "cluster_id": 5, "rank_in_cluster": 1}

>  <energy>  (7) 
-7.94

>  <cluster_rmsd>  (7) 
0.59

>  <cluster>  (7) 
1

$$$$

     RDKit          3D

 55 58  0  0  0  0  0  0  0  0999 V2000
  144.9060   82.6270  215.3050 N   0  0  0  0  0  0  0  0  0  0  0  0
  143.9220   83.2750  216.5800 S   0  0  0  0  0  0  0  0  0  0  0  0
  143.3290   84.5460  216.0750 O   0  0  0  0  0  0  0  0  0  0  0  0
  144.7490   83.5450  217.8070 O   0  0  0  0  0  0  0  0  0  0  0  0
  142.6270   82.1750  217.0060 C   0  0  0  0  0  0  0  0  0  0  0  0
  141.3230   82.5750  216.8100 C   0  0  0  0  0  0  0  0  0  0  0  0
  140.3260   81.6990  217.1500 C   0  0  0  0  0  0  0  0  0  0  0  0
  140.6110   80.4550  217.6720 C   0  0  0  0  0  0  0  0  0  0  0  0
  141.9220   80.0210  217.8830 C   0  0  0  0  0  0  0  0  0  0  0  0
  142.1830   78.6990  218.4370 C   0  0  0  0  0  0  0  0  0  0  0  0
  142.1290   78.3990  219.7080 C   0  0  0  0  0  0  0  0  0  0  0  0
  142.1120   76.9870  220.1460 C   0  0  0  0  0  0  0  0  0  0  0  0
  143.0970   76.1980  219.6890 N   0  0  0  0  0  0  0  0  0  0  0  0
  143.1510   74.8980  220.0200 C   0  0  0  0  0  0  0  0  0  0  0  0
  144.1420   74.0460  219.5760 C   0  0  0  0  0  0  0  0  0  0  0  0
  144.1680   72.7170  219.9340 C   0  0  0  0  0  0  0  0  0  0  0  0
  145.4800   71.7180  219.3110 Cl  0  0  0  0  0  0  0  0  0  0  0  0
  143.1860   72.2010  220.7590 C   0  0  0  0  0  0  0  0  0  0  0  0
  142.2060   73.0650  221.1910 C   0  0  0  0  0  0  0  0  0  0  0  0
  142.1650   74.3960  220.8430 C   0  0  0  0  0  0  0  0  0  0  0  0
  141.1700   75.2330  221.2930 C   0  0  0  0  0  0  0  0  0  0  0  0
  140.2740   74.7460  222.0500 O   0  0  0  0  0  0  0  0  0  0  0  0
  141.1230   76.5560  220.9520 N   0  0  0  0  0  0  0  0  0  0  0  0
  140.0640   77.3340  221.4460 C   0  0  0  0  0  0  0  0  0  0  0  0
  140.2940   78.5750  222.1850 C   0  0  0  0  0  0  0  0  0  0  0  0
  139.1520   79.0050  223.0650 C   0  0  0  0  0  0  0  0  0  0  0  0
  139.4440   80.3580  223.6290 C   0  0  0  0  0  0  0  0  0  0  0  0
  140.8840   80.6890  223.4610 C   0  0  0  0  0  0  0  0  0  0  0  0
  141.8350   79.5690  223.8000 C   0  0  0  0  0  0  0  0  0  0  0  0
  141.4420   78.2690  223.1770 C   0  0  0  0  0  0  0  0  0  0  0  0
  142.9080   80.9130  217.5350 C   0  0  0  0  0  0  0  0  0  0  0  0
  144.5750   81.6580  215.1110 H   0  0  0  0  0  0  0  0  0  0  0  0
  145.8890   82.6760  215.6270 H   0  0  0  0  0  0  0  0  0  0  0  0
  141.0899   83.5662  216.3938 H   0  0  0  0  0  0  0  0  0  0  0  0
  139.2765   81.9942  217.0035 H   0  0  0  0  0  0  0  0  0  0  0  0
  139.7795   79.7829  217.9305 H   0  0  0  0  0  0  0  0  0  0  0  0
  142.4447   77.8944  217.7341 H   0  0  0  0  0  0  0  0  0  0  0  0
  142.0959   79.2033  220.4576 H   0  0  0  0  0  0  0  0  0  0  0  0
  144.9317   74.4392  218.9189 H   0  0  0  0  0  0  0  0  0  0  0  0
  143.1880   71.1424  221.0581 H   0  0  0  0  0  0  0  0  0  0  0  0
  141.4156   72.6722  221.8475 H   0  0  0  0  0  0  0  0  0  0  0  0
  139.4476   77.6034  220.5757 H   0  0  0  0  0  0  0  0  0  0  0  0
  139.6376   76.6793  222.2203 H   0  0  0  0  0  0  0  0  0  0  0  0
  140.4749   79.3626  221.4387 H   0  0  0  0  0  0  0  0  0  0  0  0
  138.2266   79.0463  222.4718 H   0  0  0  0  0  0  0  0  0  0  0  0
  139.0277   78.2831  223.8857 H   0  0  0  0  0  0  0  0  0  0  0  0
  138.8356   81.1089  223.1036 H   0  0  0  0  0  0  0  0  0  0  0  0
  139.2003   80.3580  224.7017 H   0  0  0  0  0  0  0  0  0  0  0  0
  141.0496   80.9723  222.4111 H   0  0  0  0  0  0  0  0  0  0  0  0
  141.0990   81.5024  224.1696 H   0  0  0  0  0  0  0  0  0  0  0  0
  142.8395   79.8405  223.4433 H   0  0  0  0  0  0  0  0  0  0  0  0
  141.8130   79.4340  224.8915 H   0  0  0  0  0  0  0  0  0  0  0  0
  142.2979   77.8319  222.6419 H   0  0  0  0  0  0  0  0  0  0  0  0
  141.1196   77.5472  223.9419 H   0  0  0  0  0  0  0  0  0  0  0  0
  143.9590   80.6219  217.6786 H   0  0  0  0  0  0  0  0  0  0  0  0
  1  2  1  0
  2  3  2  0
  2  4  2  0
  2  5  1  0
  5  6  2  0
  6  7  1  0
  7  8  2  0
  8  9  1  0
  9 10  1  0
 10 11  2  0
 11 12  1  0
 12 13  2  0
 13 14  1  0
 14 15  2  0
 15 16  1  0
 16 17  1  0
 16 18  2  0
 18 19  1  0
 19 20  2  0
 20 21  1  0
 21 22  2  0
 21 23  1  0
 23 24  1  0
 24 25  1  0
 25 26  1  0
 26 27  1  0
 27 28  1  0
 28 29  1  0
 29 30  1  0
  9 31  2  0
 31  5  1  0
 23 12  1  0
 30 25  1  0
 20 14  1  0
  1 32  1  0
  1 33  1  0
  6 34  1  0
  7 35  1  0
  8 36  1  0
 10 37  1  0
 11 38  1  0
 15 39  1  0
 18 40  1  0
 19 41  1  0
 24 42  1  0
 24 43  1  0
 25 44  1  0
 26 45  1  0
 26 46  1  0
 27 47  1  0
 27 48  1  0
 28 49  1  0
 28 50  1  0
 29 51  1  0
 29 52  1  0
 30 53  1  0
 30 54  1  0
 31 55  1  0
M  END
>  <smiles>  (8) 
NS(=O)(=O)c1cccc(/C=C/c2nc3cc(Cl)ccc3c(=O)n2CC2CCCCC2)c1

>  <score_type>  (8) 
oracle

>  <origin>  (8) 
autodockgpu

>  <m_score__min__energy>  (8) 
-8.9600000000000009

>  <m_primary>  (8) 
energy

>  <rmsd>  (8) 
7.779234866747681

>  <m_score__min__rmsd>  (8) 
7.779234866747681

>  <meeko>  (8) 
{"free_energy": -8.22, "intermolecular_energy": -10.31, "internal_energy": -1.35, "cluster_size": 2, "cluster_id": 7, "rank_in_cluster": 1}

>  <energy>  (8) 
-8.91

>  <cluster_rmsd>  (8) 
0.0

>  <cluster>  (8) 
2

$$$$

     RDKit          3D

 55 58  0  0  0  0  0  0  0  0999 V2000
  139.3330   67.3520  226.3270 N   0  0  0  0  0  0  0  0  0  0  0  0
  140.0720   68.9230  226.3500 S   0  0  0  0  0  0  0  0  0  0  0  0
  141.5340   68.7250  226.1390 O   0  0  0  0  0  0  0  0  0  0  0  0
  139.8310   69.6060  227.6680 O   0  0  0  0  0  0  0  0  0  0  0  0
  139.4460   69.9390  225.0680 C   0  0  0  0  0  0  0  0  0  0  0  0
  138.0830   69.9860  224.8610 C   0  0  0  0  0  0  0  0  0  0  0  0
  137.6150   70.7860  223.8530 C   0  0  0  0  0  0  0  0  0  0  0  0
  138.4730   71.5260  223.0670 C   0  0  0  0  0  0  0  0  0  0  0  0
  139.8580   71.5000  223.2530 C   0  0  0  0  0  0  0  0  0  0  0  0
  140.7320   72.2960  222.4010 C   0  0  0  0  0  0  0  0  0  0  0  0
  140.3360   72.9870  221.3640 C   0  0  0  0  0  0  0  0  0  0  0  0
  140.7690   74.3890  221.1860 C   0  0  0  0  0  0  0  0  0  0  0  0
  140.2170   75.3030  222.0010 N   0  0  0  0  0  0  0  0  0  0  0  0
  140.5370   76.6030  221.8990 C   0  0  0  0  0  0  0  0  0  0  0  0
  139.9980   77.5800  222.7120 C   0  0  0  0  0  0  0  0  0  0  0  0
  140.3480   78.9040  222.5810 C   0  0  0  0  0  0  0  0  0  0  0  0
  139.5990   80.0690  223.6720 Cl  0  0  0  0  0  0  0  0  0  0  0  0
  141.2610   79.2890  221.6170 C   0  0  0  0  0  0  0  0  0  0  0  0
  141.7870   78.3030  220.8160 C   0  0  0  0  0  0  0  0  0  0  0  0
  141.4500   76.9740  220.9330 C   0  0  0  0  0  0  0  0  0  0  0  0
  141.9950   76.0110  220.1150 C   0  0  0  0  0  0  0  0  0  0  0  0
  142.8320   76.3780  219.2340 O   0  0  0  0  0  0  0  0  0  0  0  0
  141.6640   74.6890  220.2260 N   0  0  0  0  0  0  0  0  0  0  0  0
  142.2600   73.7780  219.3410 C   0  0  0  0  0  0  0  0  0  0  0  0
  143.6300   73.2990  219.5270 C   0  0  0  0  0  0  0  0  0  0  0  0
  144.2970   73.7740  220.7890 C   0  0  0  0  0  0  0  0  0  0  0  0
  145.7320   73.3580  220.7780 C   0  0  0  0  0  0  0  0  0  0  0  0
  145.9590   72.3130  219.7430 C   0  0  0  0  0  0  0  0  0  0  0  0
  144.9130   71.2270  219.7000 C   0  0  0  0  0  0  0  0  0  0  0  0
  143.5200   71.7670  219.7120 C   0  0  0  0  0  0  0  0  0  0  0  0
  140.3080   70.6920  224.2680 C   0  0  0  0  0  0  0  0  0  0  0  0
  138.3060   67.4860  226.2090 H   0  0  0  0  0  0  0  0  0  0  0  0
  139.5950   66.8820  227.2120 H   0  0  0  0  0  0  0  0  0  0  0  0
  137.3937   69.3993  225.4860 H   0  0  0  0  0  0  0  0  0  0  0  0
  136.5323   70.8395  223.6664 H   0  0  0  0  0  0  0  0  0  0  0  0
  138.0543   72.1564  222.2687 H   0  0  0  0  0  0  0  0  0  0  0  0
  141.8036   72.3171  222.6484 H   0  0  0  0  0  0  0  0  0  0  0  0
  139.6753   72.5212  220.6180 H   0  0  0  0  0  0  0  0  0  0  0  0
  139.2698   77.2923  223.4846 H   0  0  0  0  0  0  0  0  0  0  0  0
  141.5549   80.3420  221.4956 H   0  0  0  0  0  0  0  0  0  0  0  0
  142.5140   78.5912  220.0424 H   0  0  0  0  0  0  0  0  0  0  0  0
  141.6187   72.8843  219.3412 H   0  0  0  0  0  0  0  0  0  0  0  0
  142.3468   74.3737  218.4204 H   0  0  0  0  0  0  0  0  0  0  0  0
  144.2137   73.6583  218.6666 H   0  0  0  0  0  0  0  0  0  0  0  0
  144.2331   74.8706  220.8476 H   0  0  0  0  0  0  0  0  0  0  0  0
  143.7925   73.3314  221.6605 H   0  0  0  0  0  0  0  0  0  0  0  0
  146.3615   74.2321  220.5552 H   0  0  0  0  0  0  0  0  0  0  0  0
  145.9930   72.9472  221.7645 H   0  0  0  0  0  0  0  0  0  0  0  0
  145.9820   72.8050  218.7594 H   0  0  0  0  0  0  0  0  0  0  0  0
  146.9068   71.8196  220.0040 H   0  0  0  0  0  0  0  0  0  0  0  0
  145.0543   70.6385  218.7815 H   0  0  0  0  0  0  0  0  0  0  0  0
  145.0377   70.6098  220.6019 H   0  0  0  0  0  0  0  0  0  0  0  0
  142.9369   71.3276  218.8893 H   0  0  0  0  0  0  0  0  0  0  0  0
  143.0102   71.5200  220.6549 H   0  0  0  0  0  0  0  0  0  0  0  0
  141.3899   70.6357  224.4584 H   0  0  0  0  0  0  0  0  0  0  0  0
  1  2  1  0
  2  3  2  0
  2  4  2  0
  2  5  1  0
  5  6  2  0
  6  7  1  0
  7  8  2  0
  8  9  1  0
  9 10  1  0
 10 11  2  0
 11 12  1  0
 12 13  2  0
 13 14  1  0
 14 15  2  0
 15 16  1  0
 16 17  1  0
 16 18  2  0
 18 19  1  0
 19 20  2  0
 20 21  1  0
 21 22  2  0
 21 23  1  0
 23 24  1  0
 24 25  1  0
 25 26  1  0
 26 27  1  0
 27 28  1  0
 28 29  1  0
 29 30  1  0
  9 31  2  0
 31  5  1  0
 23 12  1  0
 30 25  1  0
 20 14  1  0
  1 32  1  0
  1 33  1  0
  6 34  1  0
  7 35  1  0
  8 36  1  0
 10 37  1  0
 11 38  1  0
 15 39  1  0
 18 40  1  0
 19 41  1  0
 24 42  1  0
 24 43  1  0
 25 44  1  0
 26 45  1  0
 26 46  1  0
 27 47  1  0
 27 48  1  0
 28 49  1  0
 28 50  1  0
 29 51  1  0
 29 52  1  0
 30 53  1  0
 30 54  1  0
 31 55  1  0
M  END
>  <smiles>  (9) 
NS(=O)(=O)c1cccc(/C=C/c2nc3cc(Cl)ccc3c(=O)n2CC2CCCCC2)c1

>  <score_type>  (9) 
oracle

>  <origin>  (9) 
autodockgpu

>  <m_score__min__energy>  (9) 
-8.9600000000000009

>  <m_primary>  (9) 
energy

>  <rmsd>  (9) 
5.336214337574738

>  <m_score__min__rmsd>  (9) 
5.336214337574738

>  <meeko>  (9) 
{"free_energy": -8.91, "intermolecular_energy": -11.0, "internal_energy": -1.44, "cluster_size": 2, "cluster_id": 2, "rank_in_cluster": 1}

>  <energy>  (9) 
-8.34

>  <cluster_rmsd>  (9) 
1.15

>  <cluster>  (9) 
2

$$$$

     RDKit          3D

 55 58  0  0  0  0  0  0  0  0999 V2000
  132.6650   74.5410  227.6050 N   0  0  0  0  0  0  0  0  0  0  0  0
  133.5100   74.0490  226.1700 S   0  0  0  0  0  0  0  0  0  0  0  0
  134.7510   74.8700  226.0870 O   0  0  0  0  0  0  0  0  0  0  0  0
  132.6620   74.2730  224.9490 O   0  0  0  0  0  0  0  0  0  0  0  0
  133.9540   72.3560  226.2430 C   0  0  0  0  0  0  0  0  0  0  0  0
  133.9800   71.7270  227.4700 C   0  0  0  0  0  0  0  0  0  0  0  0
  134.3300   70.4030  227.5040 C   0  0  0  0  0  0  0  0  0  0  0  0
  134.6460   69.7150  226.3520 C   0  0  0  0  0  0  0  0  0  0  0  0
  134.6290   70.3240  225.0940 C   0  0  0  0  0  0  0  0  0  0  0  0
  134.9700   69.5630  223.9000 C   0  0  0  0  0  0  0  0  0  0  0  0
  136.0170   69.7840  223.1480 C   0  0  0  0  0  0  0  0  0  0  0  0
  137.3180   70.1340  223.7550 C   0  0  0  0  0  0  0  0  0  0  0  0
  137.7230   69.3890  224.7960 N   0  0  0  0  0  0  0  0  0  0  0  0
  138.8820   69.6470  225.4210 C   0  0  0  0  0  0  0  0  0  0  0  0
  139.3420   68.9100  226.4940 C   0  0  0  0  0  0  0  0  0  0  0  0
  140.5360   69.2020  227.1140 C   0  0  0  0  0  0  0  0  0  0  0  0
  141.0290   68.1970  228.4750 Cl  0  0  0  0  0  0  0  0  0  0  0  0
  141.3120   70.2550  226.6650 C   0  0  0  0  0  0  0  0  0  0  0  0
  140.8380   70.9770  225.5960 C   0  0  0  0  0  0  0  0  0  0  0  0
  139.6470   70.7000  224.9640 C   0  0  0  0  0  0  0  0  0  0  0  0
  139.2010   71.4440  223.8960 C   0  0  0  0  0  0  0  0  0  0  0  0
  139.9230   72.4080  223.4940 O   0  0  0  0  0  0  0  0  0  0  0  0
  138.0190   71.1740  223.2640 N   0  0  0  0  0  0  0  0  0  0  0  0
  137.6360   71.9920  222.1900 C   0  0  0  0  0  0  0  0  0  0  0  0
  137.0220   73.3040  222.3970 C   0  0  0  0  0  0  0  0  0  0  0  0
  137.4280   74.3530  221.3980 C   0  0  0  0  0  0  0  0  0  0  0  0
  136.8690   75.6750  221.8140 C   0  0  0  0  0  0  0  0  0  0  0  0
  135.8060   75.4880  222.8390 C   0  0  0  0  0  0  0  0  0  0  0  0
  134.8320   74.3770  222.5440 C   0  0  0  0  0  0  0  0  0  0  0  0
  135.5090   73.1060  222.1430 C   0  0  0  0  0  0  0  0  0  0  0  0
  134.2760   71.6520  225.0810 C   0  0  0  0  0  0  0  0  0  0  0  0
  132.8420   73.8220  228.3390 H   0  0  0  0  0  0  0  0  0  0  0  0
  131.6670   74.6410  227.3490 H   0  0  0  0  0  0  0  0  0  0  0  0
  133.7277   72.2711  228.3921 H   0  0  0  0  0  0  0  0  0  0  0  0
  134.3595   69.8782  228.4703 H   0  0  0  0  0  0  0  0  0  0  0  0
  134.9204   68.6523  226.4251 H   0  0  0  0  0  0  0  0  0  0  0  0
  134.2978   68.7423  223.6094 H   0  0  0  0  0  0  0  0  0  0  0  0
  135.9283   69.7087  222.0542 H   0  0  0  0  0  0  0  0  0  0  0  0
  138.7387   68.0675  226.8632 H   0  0  0  0  0  0  0  0  0  0  0  0
  142.2701   70.5046  227.1442 H   0  0  0  0  0  0  0  0  0  0  0  0
  141.4413   71.8194  225.2265 H   0  0  0  0  0  0  0  0  0  0  0  0
  138.5454   72.1675  221.5966 H   0  0  0  0  0  0  0  0  0  0  0  0
  136.8106   71.4176  221.7442 H   0  0  0  0  0  0  0  0  0  0  0  0
  137.3206   73.6426  223.4001 H   0  0  0  0  0  0  0  0  0  0  0  0
  138.5254   74.4150  221.3560 H   0  0  0  0  0  0  0  0  0  0  0  0
  137.0393   74.0852  220.4044 H   0  0  0  0  0  0  0  0  0  0  0  0
  137.6751   76.2930  222.2361 H   0  0  0  0  0  0  0  0  0  0  0  0
  136.4338   76.1718  220.9343 H   0  0  0  0  0  0  0  0  0  0  0  0
  136.2929   75.2698  223.8010 H   0  0  0  0  0  0  0  0  0  0  0  0
  135.2198   76.4187  222.8504 H   0  0  0  0  0  0  0  0  0  0  0  0
  134.2321   74.1865  223.4461 H   0  0  0  0  0  0  0  0  0  0  0  0
  134.2060   74.7002  221.6992 H   0  0  0  0  0  0  0  0  0  0  0  0
  135.1303   72.2686  222.7474 H   0  0  0  0  0  0  0  0  0  0  0  0
  135.3142   72.8724  221.0859 H   0  0  0  0  0  0  0  0  0  0  0  0
  134.2459   72.1813  224.1172 H   0  0  0  0  0  0  0  0  0  0  0  0
  1  2  1  0
  2  3  2  0
  2  4  2  0
  2  5  1  0
  5  6  2  0
  6  7  1  0
  7  8  2  0
  8  9  1  0
  9 10  1  0
 10 11  2  0
 11 12  1  0
 12 13  2  0
 13 14  1  0
 14 15  2  0
 15 16  1  0
 16 17  1  0
 16 18  2  0
 18 19  1  0
 19 20  2  0
 20 21  1  0
 21 22  2  0
 21 23  1  0
 23 24  1  0
 24 25  1  0
 25 26  1  0
 26 27  1  0
 27 28  1  0
 28 29  1  0
 29 30  1  0
  9 31  2  0
 31  5  1  0
 23 12  1  0
 30 25  1  0
 20 14  1  0
  1 32  1  0
  1 33  1  0
  6 34  1  0
  7 35  1  0
  8 36  1  0
 10 37  1  0
 11 38  1  0
 15 39  1  0
 18 40  1  0
 19 41  1  0
 24 42  1  0
 24 43  1  0
 25 44  1  0
 26 45  1  0
 26 46  1  0
 27 47  1  0
 27 48  1  0
 28 49  1  0
 28 50  1  0
 29 51  1  0
 29 52  1  0
 30 53  1  0
 30 54  1  0
 31 55  1  0
M  END
>  <smiles>  (10) 
NS(=O)(=O)c1cccc(/C=C/c2nc3cc(Cl)ccc3c(=O)n2CC2CCCCC2)c1

>  <score_type>  (10) 
oracle

>  <origin>  (10) 
autodockgpu

>  <m_score__min__energy>  (10) 
-8.9600000000000009

>  <m_primary>  (10) 
energy

>  <rmsd>  (10) 
9.702696192241042

>  <m_score__min__rmsd>  (10) 
9.702696192241042

>  <meeko>  (10) 
{"free_energy": -7.6, "intermolecular_energy": -9.69, "internal_energy": -2.41, "cluster_size": 6, "cluster_id": 10, "rank_in_cluster": 6}

>  <energy>  (10) 
-8.82

>  <cluster_rmsd>  (10) 
0.0

>  <cluster>  (10) 
3

$$$$

     RDKit          3D

 55 58  0  0  0  0  0  0  0  0999 V2000
  146.0350   72.6570  221.6390 N   0  0  0  0  0  0  0  0  0  0  0  0
  145.4800   72.6830  219.9950 S   0  0  0  0  0  0  0  0  0  0  0  0
  145.3440   71.2660  219.5530 O   0  0  0  0  0  0  0  0  0  0  0  0
  146.4590   73.4050  219.1120 O   0  0  0  0  0  0  0  0  0  0  0  0
  143.9200   73.4690  219.8630 C   0  0  0  0  0  0  0  0  0  0  0  0
  143.6750   74.2850  218.7790 C   0  0  0  0  0  0  0  0  0  0  0  0
  142.4490   74.8900  218.6960 C   0  0  0  0  0  0  0  0  0  0  0  0
  141.4850   74.6940  219.6620 C   0  0  0  0  0  0  0  0  0  0  0  0
  141.7030   73.8730  220.7720 C   0  0  0  0  0  0  0  0  0  0  0  0
  140.6590   73.6910  221.7720 C   0  0  0  0  0  0  0  0  0  0  0  0
  139.5130   74.3210  221.7780 C   0  0  0  0  0  0  0  0  0  0  0  0
  139.4380   75.7390  222.1900 C   0  0  0  0  0  0  0  0  0  0  0  0
  140.6020   76.3900  222.3430 N   0  0  0  0  0  0  0  0  0  0  0  0
  140.6300   77.6740  222.7320 C   0  0  0  0  0  0  0  0  0  0  0  0
  141.8000   78.3860  222.9030 C   0  0  0  0  0  0  0  0  0  0  0  0
  141.7940   79.7030  223.3040 C   0  0  0  0  0  0  0  0  0  0  0  0
  143.3450   80.5180  223.4910 Cl  0  0  0  0  0  0  0  0  0  0  0  0
  140.5960   80.3490  223.5470 C   0  0  0  0  0  0  0  0  0  0  0  0
  139.4410   79.6240  223.3710 C   0  0  0  0  0  0  0  0  0  0  0  0
  139.4280   78.3070  222.9710 C   0  0  0  0  0  0  0  0  0  0  0  0
  138.2540   77.6090  222.8050 C   0  0  0  0  0  0  0  0  0  0  0  0
  137.1600   78.2150  223.0320 O   0  0  0  0  0  0  0  0  0  0  0  0
  138.2340   76.3020  222.4070 N   0  0  0  0  0  0  0  0  0  0  0  0
  136.9910   75.6650  222.2760 C   0  0  0  0  0  0  0  0  0  0  0  0
  136.1280   75.4060  223.4290 C   0  0  0  0  0  0  0  0  0  0  0  0
  134.8640   76.2210  223.4650 C   0  0  0  0  0  0  0  0  0  0  0  0
  134.1600   75.9860  224.7630 C   0  0  0  0  0  0  0  0  0  0  0  0
  134.7050   74.7760  225.4350 C   0  0  0  0  0  0  0  0  0  0  0  0
  134.9170   73.5900  224.5290 C   0  0  0  0  0  0  0  0  0  0  0  0
  135.6330   73.9480  223.2660 C   0  0  0  0  0  0  0  0  0  0  0  0
  142.9380   73.2760  220.8370 C   0  0  0  0  0  0  0  0  0  0  0  0
  146.9350   72.1320  221.6620 H   0  0  0  0  0  0  0  0  0  0  0  0
  145.2840   72.2230  222.2050 H   0  0  0  0  0  0  0  0  0  0  0  0
  144.4401   74.4451  218.0051 H   0  0  0  0  0  0  0  0  0  0  0  0
  142.2289   75.5459  217.8408 H   0  0  0  0  0  0  0  0  0  0  0  0
  140.5139   75.1996  219.5558 H   0  0  0  0  0  0  0  0  0  0  0  0
  140.8487   72.9707  222.5814 H   0  0  0  0  0  0  0  0  0  0  0  0
  138.5978   73.7918  221.4742 H   0  0  0  0  0  0  0  0  0  0  0  0
  142.7625   77.8881  222.7139 H   0  0  0  0  0  0  0  0  0  0  0  0
  140.5680   81.4007  223.8682 H   0  0  0  0  0  0  0  0  0  0  0  0
  138.4784   80.1218  223.5595 H   0  0  0  0  0  0  0  0  0  0  0  0
  136.4008   76.2810  221.5816 H   0  0  0  0  0  0  0  0  0  0  0  0
  137.2827   74.6488  221.9724 H   0  0  0  0  0  0  0  0  0  0  0  0
  136.7179   75.6366  224.3284 H   0  0  0  0  0  0  0  0  0  0  0  0
  135.1124   77.2884  223.3699 H   0  0  0  0  0  0  0  0  0  0  0  0
  134.2100   75.9228  222.6323 H   0  0  0  0  0  0  0  0  0  0  0  0
  134.3029   76.8592  225.4165 H   0  0  0  0  0  0  0  0  0  0  0  0
  133.0886   75.8336  224.5661 H   0  0  0  0  0  0  0  0  0  0  0  0
  135.6737   75.0411  225.8837 H   0  0  0  0  0  0  0  0  0  0  0  0
  133.9525   74.4684  226.1760 H   0  0  0  0  0  0  0  0  0  0  0  0
  135.5104   72.8370  225.0684 H   0  0  0  0  0  0  0  0  0  0  0  0
  133.9254   73.2040  224.2503 H   0  0  0  0  0  0  0  0  0  0  0  0
  136.4878   73.2732  223.1112 H   0  0  0  0  0  0  0  0  0  0  0  0
  134.9679   73.8525  222.3951 H   0  0  0  0  0  0  0  0  0  0  0  0
  143.1628   72.6195  221.6905 H   0  0  0  0  0  0  0  0  0  0  0  0
  1  2  1  0
  2  3  2  0
  2  4  2  0
  2  5  1  0
  5  6  2  0
  6  7  1  0
  7  8  2  0
  8  9  1  0
  9 10  1  0
 10 11  2  0
 11 12  1  0
 12 13  2  0
 13 14  1  0
 14 15  2  0
 15 16  1  0
 16 17  1  0
 16 18  2  0
 18 19  1  0
 19 20  2  0
 20 21  1  0
 21 22  2  0
 21 23  1  0
 23 24  1  0
 24 25  1  0
 25 26  1  0
 26 27  1  0
 27 28  1  0
 28 29  1  0
 29 30  1  0
  9 31  2  0
 31  5  1  0
 23 12  1  0
 30 25  1  0
 20 14  1  0
  1 32  1  0
  1 33  1  0
  6 34  1  0
  7 35  1  0
  8 36  1  0
 10 37  1  0
 11 38  1  0
 15 39  1  0
 18 40  1  0
 19 41  1  0
 24 42  1  0
 24 43  1  0
 25 44  1  0
 26 45  1  0
 26 46  1  0
 27 47  1  0
 27 48  1  0
 28 49  1  0
 28 50  1  0
 29 51  1  0
 29 52  1  0
 30 53  1  0
 30 54  1  0
 31 55  1  0
M  END
>  <smiles>  (11) 
NS(=O)(=O)c1cccc(/C=C/c2nc3cc(Cl)ccc3c(=O)n2CC2CCCCC2)c1

>  <score_type>  (11) 
oracle

>  <origin>  (11) 
autodockgpu

>  <m_score__min__energy>  (11) 
-8.9600000000000009

>  <m_primary>  (11) 
energy

>  <rmsd>  (11) 
6.505958285458411

>  <m_score__min__rmsd>  (11) 
6.505958285458411

>  <meeko>  (11) 
{"free_energy": -8.58, "intermolecular_energy": -10.66, "internal_energy": -1.4, "cluster_size": 7, "cluster_id": 1, "rank_in_cluster": 4}

>  <energy>  (11) 
-8.72

>  <cluster_rmsd>  (11) 
1.13

>  <cluster>  (11) 
3

$$$$

     RDKit          3D

 55 58  0  0  0  0  0  0  0  0999 V2000
  132.3710   73.6200  227.8430 N   0  0  0  0  0  0  0  0  0  0  0  0
  132.5370   74.9520  226.7420 S   0  0  0  0  0  0  0  0  0  0  0  0
  132.8860   76.1520  227.5530 O   0  0  0  0  0  0  0  0  0  0  0  0
  131.2540   75.1910  225.9960 O   0  0  0  0  0  0  0  0  0  0  0  0
  133.8160   74.6600  225.5810 C   0  0  0  0  0  0  0  0  0  0  0  0
  134.6870   75.6860  225.2780 C   0  0  0  0  0  0  0  0  0  0  0  0
  135.6790   75.4360  224.3680 C   0  0  0  0  0  0  0  0  0  0  0  0
  135.8100   74.2010  223.7700 C   0  0  0  0  0  0  0  0  0  0  0  0
  134.9440   73.1420  224.0560 C   0  0  0  0  0  0  0  0  0  0  0  0
  135.1150   71.8510  223.4020 C   0  0  0  0  0  0  0  0  0  0  0  0
  136.1360   71.5220  222.6550 C   0  0  0  0  0  0  0  0  0  0  0  0
  137.4850   71.3910  223.2430 C   0  0  0  0  0  0  0  0  0  0  0  0
  137.6240   70.5240  224.2580 N   0  0  0  0  0  0  0  0  0  0  0  0
  138.8100   70.3540  224.8640 C   0  0  0  0  0  0  0  0  0  0  0  0
  139.0040   69.4750  225.9110 C   0  0  0  0  0  0  0  0  0  0  0  0
  140.2320   69.3250  226.5120 C   0  0  0  0  0  0  0  0  0  0  0  0
  140.3690   68.1750  227.8410 Cl  0  0  0  0  0  0  0  0  0  0  0  0
  141.3160   70.0620  226.0710 C   0  0  0  0  0  0  0  0  0  0  0  0
  141.1040   70.9320  225.0270 C   0  0  0  0  0  0  0  0  0  0  0  0
  139.8820   71.0950  224.4150 C   0  0  0  0  0  0  0  0  0  0  0  0
  139.7040   71.9750  223.3720 C   0  0  0  0  0  0  0  0  0  0  0  0
  140.7070   72.6470  222.9770 O   0  0  0  0  0  0  0  0  0  0  0  0
  138.4930   72.1420  222.7590 N   0  0  0  0  0  0  0  0  0  0  0  0
  138.4000   73.0710  221.7120 C   0  0  0  0  0  0  0  0  0  0  0  0
  138.6010   74.5040  221.9280 C   0  0  0  0  0  0  0  0  0  0  0  0
  139.9050   75.0430  221.4050 C   0  0  0  0  0  0  0  0  0  0  0  0
  140.0590   76.4670  221.8330 C   0  0  0  0  0  0  0  0  0  0  0  0
  138.7550   77.0110  222.3000 C   0  0  0  0  0  0  0  0  0  0  0  0
  137.5760   76.6650  221.4270 C   0  0  0  0  0  0  0  0  0  0  0  0
  137.5270   75.2150  221.0690 C   0  0  0  0  0  0  0  0  0  0  0  0
  133.9550   73.4120  224.9710 C   0  0  0  0  0  0  0  0  0  0  0  0
  131.9660   73.9900  228.7300 H   0  0  0  0  0  0  0  0  0  0  0  0
  133.3110   73.2010  227.9550 H   0  0  0  0  0  0  0  0  0  0  0  0
  134.5877   76.6735  225.7524 H   0  0  0  0  0  0  0  0  0  0  0  0
  136.3863   76.2376  224.1087 H   0  0  0  0  0  0  0  0  0  0  0  0
  136.6219   74.0440  223.0447 H   0  0  0  0  0  0  0  0  0  0  0  0
  134.3267   71.0978  223.5477 H   0  0  0  0  0  0  0  0  0  0  0  0
  135.9896   71.3412  221.5799 H   0  0  0  0  0  0  0  0  0  0  0  0
  138.1538   68.8789  226.2741 H   0  0  0  0  0  0  0  0  0  0  0  0
  142.3072   69.9567  226.5362 H   0  0  0  0  0  0  0  0  0  0  0  0
  141.9540   71.5276  224.6628 H   0  0  0  0  0  0  0  0  0  0  0  0
  139.1440   72.7652  220.9618 H   0  0  0  0  0  0  0  0  0  0  0  0
  137.3316   73.0234  221.4547 H   0  0  0  0  0  0  0  0  0  0  0  0
  138.5643   74.6717  223.0145 H   0  0  0  0  0  0  0  0  0  0  0  0
  140.7369   74.4464  221.8075 H   0  0  0  0  0  0  0  0  0  0  0  0
  139.9130   74.9858  220.3065 H   0  0  0  0  0  0  0  0  0  0  0  0
  140.7897   76.5221  222.6534 H   0  0  0  0  0  0  0  0  0  0  0  0
  140.4081   77.0619  220.9761 H   0  0  0  0  0  0  0  0  0  0  0  0
  138.5613   76.6167  223.3085 H   0  0  0  0  0  0  0  0  0  0  0  0
  138.8492   78.1066  222.2727 H   0  0  0  0  0  0  0  0  0  0  0  0
  136.6522   76.9259  221.9642 H   0  0  0  0  0  0  0  0  0  0  0  0
  137.6782   77.2341  220.4912 H   0  0  0  0  0  0  0  0  0  0  0  0
  136.5313   74.8037  221.2915 H   0  0  0  0  0  0  0  0  0  0  0  0
  137.7193   75.0673  219.9961 H   0  0  0  0  0  0  0  0  0  0  0  0
  133.2451   72.6136  225.2330 H   0  0  0  0  0  0  0  0  0  0  0  0
  1  2  1  0
  2  3  2  0
  2  4  2  0
  2  5  1  0
  5  6  2  0
  6  7  1  0
  7  8  2  0
  8  9  1  0
  9 10  1  0
 10 11  2  0
 11 12  1  0
 12 13  2  0
 13 14  1  0
 14 15  2  0
 15 16  1  0
 16 17  1  0
 16 18  2  0
 18 19  1  0
 19 20  2  0
 20 21  1  0
 21 22  2  0
 21 23  1  0
 23 24  1  0
 24 25  1  0
 25 26  1  0
 26 27  1  0
 27 28  1  0
 28 29  1  0
 29 30  1  0
  9 31  2  0
 31  5  1  0
 23 12  1  0
 30 25  1  0
 20 14  1  0
  1 32  1  0
  1 33  1  0
  6 34  1  0
  7 35  1  0
  8 36  1  0
 10 37  1  0
 11 38  1  0
 15 39  1  0
 18 40  1  0
 19 41  1  0
 24 42  1  0
 24 43  1  0
 25 44  1  0
 26 45  1  0
 26 46  1  0
 27 47  1  0
 27 48  1  0
 28 49  1  0
 28 50  1  0
 29 51  1  0
 29 52  1  0
 30 53  1  0
 30 54  1  0
 31 55  1  0
M  END
>  <smiles>  (12) 
NS(=O)(=O)c1cccc(/C=C/c2nc3cc(Cl)ccc3c(=O)n2CC2CCCCC2)c1

>  <score_type>  (12) 
oracle

>  <origin>  (12) 
autodockgpu

>  <m_score__min__energy>  (12) 
-8.9600000000000009

>  <m_primary>  (12) 
energy

>  <rmsd>  (12) 
9.100511687396919

>  <m_score__min__rmsd>  (12) 
9.100511687396919

>  <meeko>  (12) 
{"free_energy": -7.79, "intermolecular_energy": -9.87, "internal_energy": -1.89, "cluster_size": 6, "cluster_id": 10, "rank_in_cluster": 3}

>  <energy>  (12) 
-8.6

>  <cluster_rmsd>  (12) 
1.22

>  <cluster>  (12) 
3

$$$$

     RDKit          3D

 55 58  0  0  0  0  0  0  0  0999 V2000
  141.4510   68.8610  226.1590 N   0  0  0  0  0  0  0  0  0  0  0  0
  139.7180   68.7880  226.2330 S   0  0  0  0  0  0  0  0  0  0  0  0
  139.3140   69.2740  227.5830 O   0  0  0  0  0  0  0  0  0  0  0  0
  139.2330   67.3800  226.0270 O   0  0  0  0  0  0  0  0  0  0  0  0
  138.9860   69.8170  225.0180 C   0  0  0  0  0  0  0  0  0  0  0  0
  137.6490   69.6520  224.7230 C   0  0  0  0  0  0  0  0  0  0  0  0
  137.0980   70.4660  223.7700 C   0  0  0  0  0  0  0  0  0  0  0  0
  137.8490   71.4240  223.1230 C   0  0  0  0  0  0  0  0  0  0  0  0
  139.2050   71.6160  223.4000 C   0  0  0  0  0  0  0  0  0  0  0  0
  139.9650   72.6390  222.6940 C   0  0  0  0  0  0  0  0  0  0  0  0
  139.4740   73.4420  221.7870 C   0  0  0  0  0  0  0  0  0  0  0  0
  139.2480   74.8710  222.0910 C   0  0  0  0  0  0  0  0  0  0  0  0
  140.3380   75.6290  222.2880 N   0  0  0  0  0  0  0  0  0  0  0  0
  140.2280   76.9330  222.5870 C   0  0  0  0  0  0  0  0  0  0  0  0
  141.3170   77.7550  222.7990 C   0  0  0  0  0  0  0  0  0  0  0  0
  141.1690   79.0880  223.1050 C   0  0  0  0  0  0  0  0  0  0  0  0
  142.6270   80.0460  223.3550 Cl  0  0  0  0  0  0  0  0  0  0  0  0
  139.9060   79.6410  223.2080 C   0  0  0  0  0  0  0  0  0  0  0  0
  138.8330   78.8080  222.9940 C   0  0  0  0  0  0  0  0  0  0  0  0
  138.9620   77.4720  222.6870 C   0  0  0  0  0  0  0  0  0  0  0  0
  137.8670   76.6650  222.4790 C   0  0  0  0  0  0  0  0  0  0  0  0
  136.7120   77.1860  222.5770 O   0  0  0  0  0  0  0  0  0  0  0  0
  137.9880   75.3380  222.1740 N   0  0  0  0  0  0  0  0  0  0  0  0
  136.8160   74.5880  221.9910 C   0  0  0  0  0  0  0  0  0  0  0  0
  136.0570   74.0500  223.1210 C   0  0  0  0  0  0  0  0  0  0  0  0
  135.3540   75.0840  223.9570 C   0  0  0  0  0  0  0  0  0  0  0  0
  134.7610   74.4270  225.1610 C   0  0  0  0  0  0  0  0  0  0  0  0
  134.7190   72.9510  224.9770 C   0  0  0  0  0  0  0  0  0  0  0  0
  134.2400   72.4960  223.6220 C   0  0  0  0  0  0  0  0  0  0  0  0
  134.9070   73.2210  222.4990 C   0  0  0  0  0  0  0  0  0  0  0  0
  139.7400   70.7900  224.3580 C   0  0  0  0  0  0  0  0  0  0  0  0
  141.7680   68.1540  225.4620 H   0  0  0  0  0  0  0  0  0  0  0  0
  141.8020   68.6900  227.1180 H   0  0  0  0  0  0  0  0  0  0  0  0
  137.0443   68.8904  225.2372 H   0  0  0  0  0  0  0  0  0  0  0  0
  136.0339   70.3532  223.5153 H   0  0  0  0  0  0  0  0  0  0  0  0
  137.3654   72.0573  222.3647 H   0  0  0  0  0  0  0  0  0  0  0  0
  141.0314   72.7434  222.9428 H   0  0  0  0  0  0  0  0  0  0  0  0
  139.2268   73.0511  220.7889 H   0  0  0  0  0  0  0  0  0  0  0  0
  142.3297   77.3328  222.7211 H   0  0  0  0  0  0  0  0  0  0  0  0
  139.7652   80.7045  223.4513 H   0  0  0  0  0  0  0  0  0  0  0  0
  137.8203   79.2304  223.0721 H   0  0  0  0  0  0  0  0  0  0  0  0
  136.1216   75.2326  221.4322 H   0  0  0  0  0  0  0  0  0  0  0  0
  137.1979   73.6742  221.5123 H   0  0  0  0  0  0  0  0  0  0  0  0
  136.7727   73.5125  223.7604 H   0  0  0  0  0  0  0  0  0  0  0  0
  136.0751   75.8514  224.2751 H   0  0  0  0  0  0  0  0  0  0  0  0
  134.5562   75.5559  223.3647 H   0  0  0  0  0  0  0  0  0  0  0  0
  135.3737   74.6653  226.0429 H   0  0  0  0  0  0  0  0  0  0  0  0
  133.7355   74.7989  225.3024 H   0  0  0  0  0  0  0  0  0  0  0  0
  135.7349   72.5580  225.1305 H   0  0  0  0  0  0  0  0  0  0  0  0
  133.9906   72.5686  225.7073 H   0  0  0  0  0  0  0  0  0  0  0  0
  134.4476   71.4207  223.5186 H   0  0  0  0  0  0  0  0  0  0  0  0
  133.1629   72.7112  223.5619 H   0  0  0  0  0  0  0  0  0  0  0  0
  135.3098   72.5020  221.7705 H   0  0  0  0  0  0  0  0  0  0  0  0
  134.1939   73.8706  221.9703 H   0  0  0  0  0  0  0  0  0  0  0  0
  140.8039   70.8990  224.6156 H   0  0  0  0  0  0  0  0  0  0  0  0
  1  2  1  0
  2  3  2  0
  2  4  2  0
  2  5  1  0
  5  6  2  0
  6  7  1  0
  7  8  2  0
  8  9  1  0
  9 10  1  0
 10 11  2  0
 11 12  1  0
 12 13  2  0
 13 14  1  0
 14 15  2  0
 15 16  1  0
 16 17  1  0
 16 18  2  0
 18 19  1  0
 19 20  2  0
 20 21  1  0
 21 22  2  0
 21 23  1  0
 23 24  1  0
 24 25  1  0
 25 26  1  0
 26 27  1  0
 27 28  1  0
 28 29  1  0
 29 30  1  0
  9 31  2  0
 31  5  1  0
 23 12  1  0
 30 25  1  0
 20 14  1  0
  1 32  1  0
  1 33  1  0
  6 34  1  0
  7 35  1  0
  8 36  1  0
 10 37  1  0
 11 38  1  0
 15 39  1  0
 18 40  1  0
 19 41  1  0
 24 42  1  0
 24 43  1  0
 25 44  1  0
 26 45  1  0
 26 46  1  0
 27 47  1  0
 27 48  1  0
 28 49  1  0
 28 50  1  0
 29 51  1  0
 29 52  1  0
 30 53  1  0
 30 54  1  0
 31 55  1  0
M  END
>  <smiles>  (13) 
NS(=O)(=O)c1cccc(/C=C/c2nc3cc(Cl)ccc3c(=O)n2CC2CCCCC2)c1

>  <score_type>  (13) 
oracle

>  <origin>  (13) 
autodockgpu

>  <m_score__min__energy>  (13) 
-8.9600000000000009

>  <m_primary>  (13) 
energy

>  <rmsd>  (13) 
6.6614445645462474

>  <m_score__min__rmsd>  (13) 
6.6614445645462474

>  <meeko>  (13) 
{"free_energy": -7.84, "intermolecular_energy": -9.93, "internal_energy": -1.85, "cluster_size": 1, "cluster_id": 14, "rank_in_cluster": 1}

>  <energy>  (13) 
-8.54

>  <cluster_rmsd>  (13) 
1.17

>  <cluster>  (13) 
3

$$$$

     RDKit          3D

 55 58  0  0  0  0  0  0  0  0999 V2000
  139.5800   72.1020  228.7140 N   0  0  0  0  0  0  0  0  0  0  0  0
  140.8750   71.5540  227.6960 S   0  0  0  0  0  0  0  0  0  0  0  0
  141.5200   70.4020  228.3870 O   0  0  0  0  0  0  0  0  0  0  0  0
  141.8810   72.6500  227.4750 O   0  0  0  0  0  0  0  0  0  0  0  0
  140.2770   71.0180  226.1390 C   0  0  0  0  0  0  0  0  0  0  0  0
  139.6910   69.7740  226.0430 C   0  0  0  0  0  0  0  0  0  0  0  0
  139.2310   69.3750  224.8170 C   0  0  0  0  0  0  0  0  0  0  0  0
  139.3450   70.1880  223.7080 C   0  0  0  0  0  0  0  0  0  0  0  0
  139.9330   71.4540  223.7730 C   0  0  0  0  0  0  0  0  0  0  0  0
  140.0350   72.2830  222.5800 C   0  0  0  0  0  0  0  0  0  0  0  0
  139.0260   72.8650  221.9860 C   0  0  0  0  0  0  0  0  0  0  0  0
  138.8550   74.3310  222.0610 C   0  0  0  0  0  0  0  0  0  0  0  0
  139.9630   75.0620  222.2630 N   0  0  0  0  0  0  0  0  0  0  0  0
  139.9000   76.3990  222.3630 C   0  0  0  0  0  0  0  0  0  0  0  0
  141.0090   77.1950  222.5700 C   0  0  0  0  0  0  0  0  0  0  0  0
  140.9100   78.5630  222.6680 C   0  0  0  0  0  0  0  0  0  0  0  0
  142.3900   79.4830  222.9330 Cl  0  0  0  0  0  0  0  0  0  0  0  0
  139.6770   79.1800  222.5580 C   0  0  0  0  0  0  0  0  0  0  0  0
  138.5840   78.3720  222.3520 C   0  0  0  0  0  0  0  0  0  0  0  0
  138.6650   77.0020  222.2510 C   0  0  0  0  0  0  0  0  0  0  0  0
  137.5500   76.2220  222.0450 C   0  0  0  0  0  0  0  0  0  0  0  0
  136.4230   76.8010  221.9460 O   0  0  0  0  0  0  0  0  0  0  0  0
  137.6230   74.8610  221.9440 N   0  0  0  0  0  0  0  0  0  0  0  0
  136.4330   74.1430  221.7460 C   0  0  0  0  0  0  0  0  0  0  0  0
  135.6380   73.6370  222.8650 C   0  0  0  0  0  0  0  0  0  0  0  0
  136.1880   72.3990  223.5190 C   0  0  0  0  0  0  0  0  0  0  0  0
  135.2080   71.8940  224.5270 C   0  0  0  0  0  0  0  0  0  0  0  0
  134.1980   72.9420  224.8370 C   0  0  0  0  0  0  0  0  0  0  0  0
  134.7630   74.3250  225.0400 C   0  0  0  0  0  0  0  0  0  0  0  0
  135.7270   74.7190  223.9690 C   0  0  0  0  0  0  0  0  0  0  0  0
  140.3890   71.8360  225.0120 C   0  0  0  0  0  0  0  0  0  0  0  0
  139.8520   73.0310  229.1010 H   0  0  0  0  0  0  0  0  0  0  0  0
  139.4340   71.3750  229.4360 H   0  0  0  0  0  0  0  0  0  0  0  0
  139.5960   69.1223  226.9240 H   0  0  0  0  0  0  0  0  0  0  0  0
  138.7608   68.3859  224.7138 H   0  0  0  0  0  0  0  0  0  0  0  0
  138.9609   69.8282  222.7421 H   0  0  0  0  0  0  0  0  0  0  0  0
  141.0351   72.4305  222.1464 H   0  0  0  0  0  0  0  0  0  0  0  0
  138.2988   72.2587  221.4261 H   0  0  0  0  0  0  0  0  0  0  0  0
  141.9982   76.7222  222.6589 H   0  0  0  0  0  0  0  0  0  0  0  0
  139.5751   80.2727  222.6323 H   0  0  0  0  0  0  0  0  0  0  0  0
  137.5946   78.8445  222.2634 H   0  0  0  0  0  0  0  0  0  0  0  0
  135.7679   74.8023  221.1689 H   0  0  0  0  0  0  0  0  0  0  0  0
  136.7977   73.2142  221.2830 H   0  0  0  0  0  0  0  0  0  0  0  0
  134.6378   73.4076  222.4688 H   0  0  0  0  0  0  0  0  0  0  0  0
  136.3605   71.6262  222.7554 H   0  0  0  0  0  0  0  0  0  0  0  0
  137.1386   72.6382  224.0181 H   0  0  0  0  0  0  0  0  0  0  0  0
  134.6979   71.0066  224.1240 H   0  0  0  0  0  0  0  0  0  0  0  0
  135.7469   71.6329  225.4497 H   0  0  0  0  0  0  0  0  0  0  0  0
  133.4817   72.9841  224.0032 H   0  0  0  0  0  0  0  0  0  0  0  0
  133.7358   72.6533  225.7925 H   0  0  0  0  0  0  0  0  0  0  0  0
  133.9325   75.0463  225.0482 H   0  0  0  0  0  0  0  0  0  0  0  0
  135.3105   74.3225  225.9941 H   0  0  0  0  0  0  0  0  0  0  0  0
  135.4549   75.7024  223.5580 H   0  0  0  0  0  0  0  0  0  0  0  0
  136.7498   74.7928  224.3670 H   0  0  0  0  0  0  0  0  0  0  0  0
  140.8604   72.8239  225.1205 H   0  0  0  0  0  0  0  0  0  0  0  0
  1  2  1  0
  2  3  2  0
  2  4  2  0
  2  5  1  0
  5  6  2  0
  6  7  1  0
  7  8  2  0
  8  9  1  0
  9 10  1  0
 10 11  2  0
 11 12  1  0
 12 13  2  0
 13 14  1  0
 14 15  2  0
 15 16  1  0
 16 17  1  0
 16 18  2  0
 18 19  1  0
 19 20  2  0
 20 21  1  0
 21 22  2  0
 21 23  1  0
 23 24  1  0
 24 25  1  0
 25 26  1  0
 26 27  1  0
 27 28  1  0
 28 29  1  0
 29 30  1  0
  9 31  2  0
 31  5  1  0
 23 12  1  0
 30 25  1  0
 20 14  1  0
  1 32  1  0
  1 33  1  0
  6 34  1  0
  7 35  1  0
  8 36  1  0
 10 37  1  0
 11 38  1  0
 15 39  1  0
 18 40  1  0
 19 41  1  0
 24 42  1  0
 24 43  1  0
 25 44  1  0
 26 45  1  0
 26 46  1  0
 27 47  1  0
 27 48  1  0
 28 49  1  0
 28 50  1  0
 29 51  1  0
 29 52  1  0
 30 53  1  0
 30 54  1  0
 31 55  1  0
M  END
>  <smiles>  (14) 
NS(=O)(=O)c1cccc(/C=C/c2nc3cc(Cl)ccc3c(=O)n2CC2CCCCC2)c1

>  <score_type>  (14) 
oracle

>  <origin>  (14) 
autodockgpu

>  <m_score__min__energy>  (14) 
-8.9600000000000009

>  <m_primary>  (14) 
energy

>  <rmsd>  (14) 
6.927226022051297

>  <m_score__min__rmsd>  (14) 
6.927226022051297

>  <meeko>  (14) 
{"free_energy": -8.53, "intermolecular_energy": -10.62, "internal_energy": -1.72, "cluster_size": 5, "cluster_id": 4, "rank_in_cluster": 1}

>  <energy>  (14) 
-8.5

>  <cluster_rmsd>  (14) 
1.26

>  <cluster>  (14) 
3

$$$$

     RDKit          3D

 55 58  0  0  0  0  0  0  0  0999 V2000
  141.4930   68.4260  226.4630 N   0  0  0  0  0  0  0  0  0  0  0  0
  139.8010   68.6200  226.1260 S   0  0  0  0  0  0  0  0  0  0  0  0
  139.2540   69.5580  227.1470 O   0  0  0  0  0  0  0  0  0  0  0  0
  139.0870   67.3000  226.2050 O   0  0  0  0  0  0  0  0  0  0  0  0
  139.5450   69.3030  224.5330 C   0  0  0  0  0  0  0  0  0  0  0  0
  138.9810   68.5140  223.5540 C   0  0  0  0  0  0  0  0  0  0  0  0
  138.7890   69.0670  222.3160 C   0  0  0  0  0  0  0  0  0  0  0  0
  139.1450   70.3730  222.0510 C   0  0  0  0  0  0  0  0  0  0  0  0
  139.7190   71.1980  223.0220 C   0  0  0  0  0  0  0  0  0  0  0  0
  140.0830   72.5720  222.7030 C   0  0  0  0  0  0  0  0  0  0  0  0
  140.2440   73.0390  221.4920 C   0  0  0  0  0  0  0  0  0  0  0  0
  140.7050   74.4270  221.2790 C   0  0  0  0  0  0  0  0  0  0  0  0
  140.1760   75.3720  222.0730 N   0  0  0  0  0  0  0  0  0  0  0  0
  140.5230   76.6620  221.9380 C   0  0  0  0  0  0  0  0  0  0  0  0
  140.0090   77.6700  222.7280 C   0  0  0  0  0  0  0  0  0  0  0  0
  140.3850   78.9830  222.5630 C   0  0  0  0  0  0  0  0  0  0  0  0
  139.6660   80.1890  223.6270 Cl  0  0  0  0  0  0  0  0  0  0  0  0
  141.3030   79.3240  221.5870 C   0  0  0  0  0  0  0  0  0  0  0  0
  141.8050   78.3080  220.8090 C   0  0  0  0  0  0  0  0  0  0  0  0
  141.4390   76.9890  220.9600 C   0  0  0  0  0  0  0  0  0  0  0  0
  141.9610   75.9950  220.1640 C   0  0  0  0  0  0  0  0  0  0  0  0
  142.8030   76.3230  219.2710 O   0  0  0  0  0  0  0  0  0  0  0  0
  141.6030   74.6840  220.3080 N   0  0  0  0  0  0  0  0  0  0  0  0
  142.1750   73.7390  219.4440 C   0  0  0  0  0  0  0  0  0  0  0  0
  143.5600   73.2910  219.5930 C   0  0  0  0  0  0  0  0  0  0  0  0
  144.2460   73.7710  220.8430 C   0  0  0  0  0  0  0  0  0  0  0  0
  145.6900   73.3890  220.7940 C   0  0  0  0  0  0  0  0  0  0  0  0
  145.9170   72.3580  219.7450 C   0  0  0  0  0  0  0  0  0  0  0  0
  144.8960   71.2490  219.7170 C   0  0  0  0  0  0  0  0  0  0  0  0
  143.4910   71.7550  219.7670 C   0  0  0  0  0  0  0  0  0  0  0  0
  139.9030   70.6240  224.2570 C   0  0  0  0  0  0  0  0  0  0  0  0
  141.8180   67.5650  225.9730 H   0  0  0  0  0  0  0  0  0  0  0  0
  141.5940   68.3850  227.4930 H   0  0  0  0  0  0  0  0  0  0  0  0
  138.6940   67.4724  223.7606 H   0  0  0  0  0  0  0  0  0  0  0  0
  138.3419   68.4575  221.5169 H   0  0  0  0  0  0  0  0  0  0  0  0
  138.9716   70.7781  221.0431 H   0  0  0  0  0  0  0  0  0  0  0  0
  140.2334   73.2675  223.5419 H   0  0  0  0  0  0  0  0  0  0  0  0
  140.0348   72.3941  220.6258 H   0  0  0  0  0  0  0  0  0  0  0  0
  139.2789   77.4168  223.5108 H   0  0  0  0  0  0  0  0  0  0  0  0
  141.6192   80.3671  221.4389 H   0  0  0  0  0  0  0  0  0  0  0  0
  142.5356   78.5612  220.0267 H   0  0  0  0  0  0  0  0  0  0  0  0
  141.5499   72.8368  219.5170 H   0  0  0  0  0  0  0  0  0  0  0  0
  142.2110   74.2884  218.4917 H   0  0  0  0  0  0  0  0  0  0  0  0
  144.1139   73.6713  218.7221 H   0  0  0  0  0  0  0  0  0  0  0  0
  144.1579   74.8652  220.9130 H   0  0  0  0  0  0  0  0  0  0  0  0
  143.7732   73.3093  221.7223 H   0  0  0  0  0  0  0  0  0  0  0  0
  146.2932   74.2796  220.5639 H   0  0  0  0  0  0  0  0  0  0  0  0
  145.9839   72.9763  221.7704 H   0  0  0  0  0  0  0  0  0  0  0  0
  145.9058   72.8583  218.7654 H   0  0  0  0  0  0  0  0  0  0  0  0
  146.8819   71.8847  219.9796 H   0  0  0  0  0  0  0  0  0  0  0  0
  145.0291   70.6719  218.7900 H   0  0  0  0  0  0  0  0  0  0  0  0
  145.0566   70.6279  220.6105 H   0  0  0  0  0  0  0  0  0  0  0  0
  142.8990   71.3085  218.9545 H   0  0  0  0  0  0  0  0  0  0  0  0
  143.0100   71.4879  220.7195 H   0  0  0  0  0  0  0  0  0  0  0  0
  140.3499   71.2291  225.0596 H   0  0  0  0  0  0  0  0  0  0  0  0
  1  2  1  0
  2  3  2  0
  2  4  2  0
  2  5  1  0
  5  6  2  0
  6  7  1  0
  7  8  2  0
  8  9  1  0
  9 10  1  0
 10 11  2  0
 11 12  1  0
 12 13  2  0
 13 14  1  0
 14 15  2  0
 15 16  1  0
 16 17  1  0
 16 18  2  0
 18 19  1  0
 19 20  2  0
 20 21  1  0
 21 22  2  0
 21 23  1  0
 23 24  1  0
 24 25  1  0
 25 26  1  0
 26 27  1  0
 27 28  1  0
 28 29  1  0
 29 30  1  0
  9 31  2  0
 31  5  1  0
 23 12  1  0
 30 25  1  0
 20 14  1  0
  1 32  1  0
  1 33  1  0
  6 34  1  0
  7 35  1  0
  8 36  1  0
 10 37  1  0
 11 38  1  0
 15 39  1  0
 18 40  1  0
 19 41  1  0
 24 42  1  0
 24 43  1  0
 25 44  1  0
 26 45  1  0
 26 46  1  0
 27 47  1  0
 27 48  1  0
 28 49  1  0
 28 50  1  0
 29 51  1  0
 29 52  1  0
 30 53  1  0
 30 54  1  0
 31 55  1  0
M  END
>  <smiles>  (15) 
NS(=O)(=O)c1cccc(/C=C/c2nc3cc(Cl)ccc3c(=O)n2CC2CCCCC2)c1

>  <score_type>  (15) 
oracle

>  <origin>  (15) 
autodockgpu

>  <m_score__min__energy>  (15) 
-8.9600000000000009

>  <m_primary>  (15) 
energy

>  <rmsd>  (15) 
5.295741109627457

>  <m_score__min__rmsd>  (15) 
5.295741109627457

>  <meeko>  (15) 
{"free_energy": -8.34, "intermolecular_energy": -10.42, "internal_energy": -1.38, "cluster_size": 2, "cluster_id": 2, "rank_in_cluster": 2}

>  <energy>  (15) 
-7.99

>  <cluster_rmsd>  (15) 
1.34

>  <cluster>  (15) 
3

$$$$

     RDKit          3D

 55 58  0  0  0  0  0  0  0  0999 V2000
  146.0800   73.0900  221.6060 N   0  0  0  0  0  0  0  0  0  0  0  0
  145.1160   72.8990  220.1750 S   0  0  0  0  0  0  0  0  0  0  0  0
  144.5470   71.5230  220.2080 O   0  0  0  0  0  0  0  0  0  0  0  0
  145.9540   73.0810  218.9400 O   0  0  0  0  0  0  0  0  0  0  0  0
  143.8000   74.0560  220.1360 C   0  0  0  0  0  0  0  0  0  0  0  0
  144.0630   75.3500  219.7410 C   0  0  0  0  0  0  0  0  0  0  0  0
  143.0210   76.2380  219.7180 C   0  0  0  0  0  0  0  0  0  0  0  0
  141.7450   75.8560  220.0770 C   0  0  0  0  0  0  0  0  0  0  0  0
  141.4470   74.5520  220.4820 C   0  0  0  0  0  0  0  0  0  0  0  0
  140.0870   74.1880  220.8550 C   0  0  0  0  0  0  0  0  0  0  0  0
  139.5030   74.5270  221.9750 C   0  0  0  0  0  0  0  0  0  0  0  0
  139.3590   75.9500  222.3450 C   0  0  0  0  0  0  0  0  0  0  0  0
  140.4900   76.6370  222.5700 N   0  0  0  0  0  0  0  0  0  0  0  0
  140.4540   77.9300  222.9300 C   0  0  0  0  0  0  0  0  0  0  0  0
  141.5880   78.6790  223.1730 C   0  0  0  0  0  0  0  0  0  0  0  0
  141.5160   80.0030  223.5400 C   0  0  0  0  0  0  0  0  0  0  0  0
  143.0260   80.8650  223.8250 Cl  0  0  0  0  0  0  0  0  0  0  0  0
  140.2860   80.6200  223.6750 C   0  0  0  0  0  0  0  0  0  0  0  0
  139.1670   79.8590  223.4290 C   0  0  0  0  0  0  0  0  0  0  0  0
  139.2210   78.5340  223.0610 C   0  0  0  0  0  0  0  0  0  0  0  0
  138.0810   77.8000  222.8220 C   0  0  0  0  0  0  0  0  0  0  0  0
  136.9580   78.3790  222.9500 O   0  0  0  0  0  0  0  0  0  0  0  0
  138.1270   76.4830  222.4560 N   0  0  0  0  0  0  0  0  0  0  0  0
  136.9150   75.8090  222.2460 C   0  0  0  0  0  0  0  0  0  0  0  0
  136.1160   75.2860  223.3550 C   0  0  0  0  0  0  0  0  0  0  0  0
  135.0980   76.2470  223.9050 C   0  0  0  0  0  0  0  0  0  0  0  0
  134.4720   75.6580  225.1280 C   0  0  0  0  0  0  0  0  0  0  0  0
  134.7600   74.2010  225.2060 C   0  0  0  0  0  0  0  0  0  0  0  0
  134.5980   73.4540  223.9060 C   0  0  0  0  0  0  0  0  0  0  0  0
  135.2680   74.1370  222.7590 C   0  0  0  0  0  0  0  0  0  0  0  0
  142.5060   73.6770  220.4990 C   0  0  0  0  0  0  0  0  0  0  0  0
  146.2330   72.1430  222.0140 H   0  0  0  0  0  0  0  0  0  0  0  0
  145.5670   73.7370  222.2320 H   0  0  0  0  0  0  0  0  0  0  0  0
  145.0785   75.6597  219.4532 H   0  0  0  0  0  0  0  0  0  0  0  0
  143.2051   77.2769  219.4070 H   0  0  0  0  0  0  0  0  0  0  0  0
  140.9366   76.6012  220.0434 H   0  0  0  0  0  0  0  0  0  0  0  0
  139.5080   73.5830  220.1417 H   0  0  0  0  0  0  0  0  0  0  0  0
  139.1161   73.7466  222.6467 H   0  0  0  0  0  0  0  0  0  0  0  0
  142.5752   78.2047  223.0705 H   0  0  0  0  0  0  0  0  0  0  0  0
  140.2056   81.6773  223.9675 H   0  0  0  0  0  0  0  0  0  0  0  0
  138.1797   80.3331  223.5315 H   0  0  0  0  0  0  0  0  0  0  0  0
  136.2642   76.5084  221.7007 H   0  0  0  0  0  0  0  0  0  0  0  0
  137.2471   74.8872  221.7459 H   0  0  0  0  0  0  0  0  0  0  0  0
  136.8187   75.0233  224.1595 H   0  0  0  0  0  0  0  0  0  0  0  0
  135.5910   77.1953  224.1651 H   0  0  0  0  0  0  0  0  0  0  0  0
  134.3222   76.4347  223.1481 H   0  0  0  0  0  0  0  0  0  0  0  0
  134.8795   76.1565  226.0199 H   0  0  0  0  0  0  0  0  0  0  0  0
  133.3830   75.8048  225.0780 H   0  0  0  0  0  0  0  0  0  0  0  0
  135.7986   74.0752  225.5459 H   0  0  0  0  0  0  0  0  0  0  0  0
  134.0213   73.7761  225.9015 H   0  0  0  0  0  0  0  0  0  0  0  0
  135.0336   72.4504  224.0206 H   0  0  0  0  0  0  0  0  0  0  0  0
  133.5220   73.4085  223.6819 H   0  0  0  0  0  0  0  0  0  0  0  0
  135.9153   73.4280  222.2221 H   0  0  0  0  0  0  0  0  0  0  0  0
  134.5276   74.5237  222.0433 H   0  0  0  0  0  0  0  0  0  0  0  0
  142.3276   72.6373  220.8107 H   0  0  0  0  0  0  0  0  0  0  0  0
  1  2  1  0
  2  3  2  0
  2  4  2  0
  2  5  1  0
  5  6  2  0
  6  7  1  0
  7  8  2  0
  8  9  1  0
  9 10  1  0
 10 11  2  0
 11 12  1  0
 12 13  2  0
 13 14  1  0
 14 15  2  0
 15 16  1  0
 16 17  1  0
 16 18  2  0
 18 19  1  0
 19 20  2  0
 20 21  1  0
 21 22  2  0
 21 23  1  0
 23 24  1  0
 24 25  1  0
 25 26  1  0
 26 27  1  0
 27 28  1  0
 28 29  1  0
 29 30  1  0
  9 31  2  0
 31  5  1  0
 23 12  1  0
 30 25  1  0
 20 14  1  0
  1 32  1  0
  1 33  1  0
  6 34  1  0
  7 35  1  0
  8 36  1  0
 10 37  1  0
 11 38  1  0
 15 39  1  0
 18 40  1  0
 19 41  1  0
 24 42  1  0
 24 43  1  0
 25 44  1  0
 26 45  1  0
 26 46  1  0
 27 47  1  0
 27 48  1  0
 28 49  1  0
 28 50  1  0
 29 51  1  0
 29 52  1  0
 30 53  1  0
 30 54  1  0
 31 55  1  0
M  END
>  <smiles>  (16) 
NS(=O)(=O)c1cccc(/C=C/c2nc3cc(Cl)ccc3c(=O)n2CC2CCCCC2)c1

>  <score_type>  (16) 
oracle

>  <origin>  (16) 
autodockgpu

>  <m_score__min__energy>  (16) 
-8.9600000000000009

>  <m_primary>  (16) 
energy

>  <rmsd>  (16) 
6.473454745598962

>  <m_score__min__rmsd>  (16) 
6.473454745598962

>  <meeko>  (16) 
{"free_energy": -8.71, "intermolecular_energy": -10.8, "internal_energy": -1.45, "cluster_size": 7, "cluster_id": 1, "rank_in_cluster": 3}

>  <energy>  (16) 
-8.53

>  <cluster_rmsd>  (16) 
0.0

>  <cluster>  (16) 
4

$$$$

     RDKit          3D

 55 58  0  0  0  0  0  0  0  0999 V2000
  145.9810   73.4330  218.5480 N   0  0  0  0  0  0  0  0  0  0  0  0
  145.6510   72.4240  219.9220 S   0  0  0  0  0  0  0  0  0  0  0  0
  146.2950   73.0630  221.1030 O   0  0  0  0  0  0  0  0  0  0  0  0
  146.2090   71.0430  219.7160 O   0  0  0  0  0  0  0  0  0  0  0  0
  143.9280   72.2950  220.2160 C   0  0  0  0  0  0  0  0  0  0  0  0
  143.3050   71.0840  219.9990 C   0  0  0  0  0  0  0  0  0  0  0  0
  141.9590   71.0050  220.2350 C   0  0  0  0  0  0  0  0  0  0  0  0
  141.2420   72.0980  220.6770 C   0  0  0  0  0  0  0  0  0  0  0  0
  141.8450   73.3380  220.9050 C   0  0  0  0  0  0  0  0  0  0  0  0
  141.0540   74.4690  221.3710 C   0  0  0  0  0  0  0  0  0  0  0  0
  141.4360   75.7180  221.3210 C   0  0  0  0  0  0  0  0  0  0  0  0
  141.8020   76.3410  220.0320 C   0  0  0  0  0  0  0  0  0  0  0  0
  142.4760   75.5770  219.1580 N   0  0  0  0  0  0  0  0  0  0  0  0
  142.8650   76.0650  217.9690 C   0  0  0  0  0  0  0  0  0  0  0  0
  143.5600   75.3210  217.0370 C   0  0  0  0  0  0  0  0  0  0  0  0
  143.9450   75.8520  215.8280 C   0  0  0  0  0  0  0  0  0  0  0  0
  144.8280   74.8140  214.7110 Cl  0  0  0  0  0  0  0  0  0  0  0  0
  143.6360   77.1640  215.5160 C   0  0  0  0  0  0  0  0  0  0  0  0
  142.9430   77.8900  216.4560 C   0  0  0  0  0  0  0  0  0  0  0  0
  142.5510   77.3750  217.6710 C   0  0  0  0  0  0  0  0  0  0  0  0
  141.8590   78.1290  218.5900 C   0  0  0  0  0  0  0  0  0  0  0  0
  141.5820   79.3330  218.2910 O   0  0  0  0  0  0  0  0  0  0  0  0
  141.4660   77.6240  219.7980 N   0  0  0  0  0  0  0  0  0  0  0  0
  140.7750   78.4690  220.6800 C   0  0  0  0  0  0  0  0  0  0  0  0
  141.4520   79.1710  221.7700 C   0  0  0  0  0  0  0  0  0  0  0  0
  141.0410   80.6070  221.9460 C   0  0  0  0  0  0  0  0  0  0  0  0
  141.9170   81.2510  222.9720 C   0  0  0  0  0  0  0  0  0  0  0  0
  142.6470   80.2160  223.7510 C   0  0  0  0  0  0  0  0  0  0  0  0
  141.8080   79.0400  224.1840 C   0  0  0  0  0  0  0  0  0  0  0  0
  140.9800   78.4810  223.0730 C   0  0  0  0  0  0  0  0  0  0  0  0
  143.1960   73.3970  220.6630 C   0  0  0  0  0  0  0  0  0  0  0  0
  146.8960   73.9030  218.7130 H   0  0  0  0  0  0  0  0  0  0  0  0
  145.1840   74.0890  218.4560 H   0  0  0  0  0  0  0  0  0  0  0  0
  143.8717   70.2093  219.6474 H   0  0  0  0  0  0  0  0  0  0  0  0
  141.4381   70.0505  220.0689 H   0  0  0  0  0  0  0  0  0  0  0  0
  140.1620   71.9899  220.8555 H   0  0  0  0  0  0  0  0  0  0  0  0
  140.0621   74.2562  221.7963 H   0  0  0  0  0  0  0  0  0  0  0  0
  141.4855   76.3105  222.2465 H   0  0  0  0  0  0  0  0  0  0  0  0
  143.8127   74.2755  217.2673 H   0  0  0  0  0  0  0  0  0  0  0  0
  143.9328   77.6085  214.5546 H   0  0  0  0  0  0  0  0  0  0  0  0
  142.6890   78.9351  216.2254 H   0  0  0  0  0  0  0  0  0  0  0  0
  140.3053   79.2455  220.0583 H   0  0  0  0  0  0  0  0  0  0  0  0
  140.1336   77.7603  221.2244 H   0  0  0  0  0  0  0  0  0  0  0  0
  142.5292   79.1408  221.5492 H   0  0  0  0  0  0  0  0  0  0  0  0
  141.1449   81.1386  220.9886 H   0  0  0  0  0  0  0  0  0  0  0  0
  139.9929   80.6517  222.2768 H   0  0  0  0  0  0  0  0  0  0  0  0
  142.6436   81.9061  222.4691 H   0  0  0  0  0  0  0  0  0  0  0  0
  141.2906   81.8396  223.6584 H   0  0  0  0  0  0  0  0  0  0  0  0
  143.4711   79.8374  223.1285 H   0  0  0  0  0  0  0  0  0  0  0  0
  142.9895   80.7077  224.6734 H   0  0  0  0  0  0  0  0  0  0  0  0
  142.4760   78.2496  224.5568 H   0  0  0  0  0  0  0  0  0  0  0  0
  141.1194   79.3935  224.9656 H   0  0  0  0  0  0  0  0  0  0  0  0
  141.1287   77.3935  223.0005 H   0  0  0  0  0  0  0  0  0  0  0  0
  139.9096   78.6627  223.2495 H   0  0  0  0  0  0  0  0  0  0  0  0
  143.7215   74.3492  220.8277 H   0  0  0  0  0  0  0  0  0  0  0  0
  1  2  1  0
  2  3  2  0
  2  4  2  0
  2  5  1  0
  5  6  2  0
  6  7  1  0
  7  8  2  0
  8  9  1  0
  9 10  1  0
 10 11  2  0
 11 12  1  0
 12 13  2  0
 13 14  1  0
 14 15  2  0
 15 16  1  0
 16 17  1  0
 16 18  2  0
 18 19  1  0
 19 20  2  0
 20 21  1  0
 21 22  2  0
 21 23  1  0
 23 24  1  0
 24 25  1  0
 25 26  1  0
 26 27  1  0
 27 28  1  0
 28 29  1  0
 29 30  1  0
  9 31  2  0
 31  5  1  0
 23 12  1  0
 30 25  1  0
 20 14  1  0
  1 32  1  0
  1 33  1  0
  6 34  1  0
  7 35  1  0
  8 36  1  0
 10 37  1  0
 11 38  1  0
 15 39  1  0
 18 40  1  0
 19 41  1  0
 24 42  1  0
 24 43  1  0
 25 44  1  0
 26 45  1  0
 26 46  1  0
 27 47  1  0
 27 48  1  0
 28 49  1  0
 28 50  1  0
 29 51  1  0
 29 52  1  0
 30 53  1  0
 30 54  1  0
 31 55  1  0
M  END
>  <smiles>  (17) 
NS(=O)(=O)c1cccc(/C=C/c2nc3cc(Cl)ccc3c(=O)n2CC2CCCCC2)c1

>  <score_type>  (17) 
oracle

>  <origin>  (17) 
autodockgpu

>  <m_score__min__energy>  (17) 
-8.9600000000000009

>  <m_primary>  (17) 
energy

>  <rmsd>  (17) 
6.948144582800864

>  <m_score__min__rmsd>  (17) 
6.948144582800864

>  <meeko>  (17) 
{"free_energy": -8.23, "intermolecular_energy": -10.32, "internal_energy": -1.6, "cluster_size": 1, "cluster_id": 6, "rank_in_cluster": 1}

>  <energy>  (17) 
-8.12

>  <cluster_rmsd>  (17) 
1.96

>  <cluster>  (17) 
4

$$$$

     RDKit          3D

 55 58  0  0  0  0  0  0  0  0999 V2000
  143.3050   80.9370  217.4810 N   0  0  0  0  0  0  0  0  0  0  0  0
  141.7840   81.5760  218.0200 S   0  0  0  0  0  0  0  0  0  0  0  0
  140.7200   80.6620  217.5170 O   0  0  0  0  0  0  0  0  0  0  0  0
  141.5670   82.9630  217.4810 O   0  0  0  0  0  0  0  0  0  0  0  0
  141.7030   81.6340  219.7690 C   0  0  0  0  0  0  0  0  0  0  0  0
  141.1980   82.7640  220.3750 C   0  0  0  0  0  0  0  0  0  0  0  0
  141.1440   82.7890  221.7430 C   0  0  0  0  0  0  0  0  0  0  0  0
  141.5780   81.7190  222.4970 C   0  0  0  0  0  0  0  0  0  0  0  0
  142.0950   80.5600  221.9130 C   0  0  0  0  0  0  0  0  0  0  0  0
  142.5440   79.4510  222.7440 C   0  0  0  0  0  0  0  0  0  0  0  0
  141.7740   78.7520  223.5370 C   0  0  0  0  0  0  0  0  0  0  0  0
  140.3040   78.8830  223.4620 C   0  0  0  0  0  0  0  0  0  0  0  0
  139.7490   79.9040  224.1340 N   0  0  0  0  0  0  0  0  0  0  0  0
  138.4190   80.0880  224.1370 C   0  0  0  0  0  0  0  0  0  0  0  0
  137.8010   81.1220  224.8120 C   0  0  0  0  0  0  0  0  0  0  0  0
  136.4350   81.2820  224.7950 C   0  0  0  0  0  0  0  0  0  0  0  0
  135.7500   82.6370  225.6910 Cl  0  0  0  0  0  0  0  0  0  0  0  0
  135.6400   80.3970  224.0890 C   0  0  0  0  0  0  0  0  0  0  0  0
  136.2730   79.3740  223.4240 C   0  0  0  0  0  0  0  0  0  0  0  0
  137.6380   79.1980  223.4300 C   0  0  0  0  0  0  0  0  0  0  0  0
  138.2400   78.1630  222.7520 C   0  0  0  0  0  0  0  0  0  0  0  0
  137.4990   77.3570  222.1090 O   0  0  0  0  0  0  0  0  0  0  0  0
  139.5950   77.9820  222.7540 N   0  0  0  0  0  0  0  0  0  0  0  0
  140.1220   76.8910  222.0460 C   0  0  0  0  0  0  0  0  0  0  0  0
  141.0620   77.0670  220.9390 C   0  0  0  0  0  0  0  0  0  0  0  0
  141.7380   75.8040  220.4800 C   0  0  0  0  0  0  0  0  0  0  0  0
  142.7850   76.1420  219.4690 C   0  0  0  0  0  0  0  0  0  0  0  0
  142.5880   77.5270  218.9620 C   0  0  0  0  0  0  0  0  0  0  0  0
  141.1590   77.8840  218.6380 C   0  0  0  0  0  0  0  0  0  0  0  0
  140.2070   77.5010  219.7250 C   0  0  0  0  0  0  0  0  0  0  0  0
  142.1410   80.5550  220.5400 C   0  0  0  0  0  0  0  0  0  0  0  0
  143.6710   81.5710  216.7390 H   0  0  0  0  0  0  0  0  0  0  0  0
  143.1290   79.9690  217.1550 H   0  0  0  0  0  0  0  0  0  0  0  0
  140.8490   83.6195  219.7781 H   0  0  0  0  0  0  0  0  0  0  0  0
  140.7465   83.6803  222.2506 H   0  0  0  0  0  0  0  0  0  0  0  0
  141.5151   81.7801  223.5935 H   0  0  0  0  0  0  0  0  0  0  0  0
  143.6096   79.1815  222.7014 H   0  0  0  0  0  0  0  0  0  0  0  0
  142.2240   78.0613  224.2653 H   0  0  0  0  0  0  0  0  0  0  0  0
  138.4171   81.8362  225.3780 H   0  0  0  0  0  0  0  0  0  0  0  0
  134.5459   80.5074  224.0609 H   0  0  0  0  0  0  0  0  0  0  0  0
  135.6571   78.6595  222.8581 H   0  0  0  0  0  0  0  0  0  0  0  0
  140.6343   76.2608  222.7879 H   0  0  0  0  0  0  0  0  0  0  0  0
  139.2323   76.4965  221.5333 H   0  0  0  0  0  0  0  0  0  0  0  0
  141.8342   77.7704  221.2839 H   0  0  0  0  0  0  0  0  0  0  0  0
  142.2065   75.3046  221.3409 H   0  0  0  0  0  0  0  0  0  0  0  0
  140.9938   75.1317  220.0282 H   0  0  0  0  0  0  0  0  0  0  0  0
  143.7781   76.0646  219.9358 H   0  0  0  0  0  0  0  0  0  0  0  0
  142.7078   75.4391  218.6264 H   0  0  0  0  0  0  0  0  0  0  0  0
  142.9502   78.2271  219.7292 H   0  0  0  0  0  0  0  0  0  0  0  0
  143.1460   77.5932  218.0164 H   0  0  0  0  0  0  0  0  0  0  0  0
  141.0949   78.9709  218.4811 H   0  0  0  0  0  0  0  0  0  0  0  0
  140.8738   77.3246  217.7348 H   0  0  0  0  0  0  0  0  0  0  0  0
  139.5755   78.3603  219.9949 H   0  0  0  0  0  0  0  0  0  0  0  0
  139.5442   76.6860  219.3988 H   0  0  0  0  0  0  0  0  0  0  0  0
  142.5384   79.6663  220.0278 H   0  0  0  0  0  0  0  0  0  0  0  0
  1  2  1  0
  2  3  2  0
  2  4  2  0
  2  5  1  0
  5  6  2  0
  6  7  1  0
  7  8  2  0
  8  9  1  0
  9 10  1  0
 10 11  2  0
 11 12  1  0
 12 13  2  0
 13 14  1  0
 14 15  2  0
 15 16  1  0
 16 17  1  0
 16 18  2  0
 18 19  1  0
 19 20  2  0
 20 21  1  0
 21 22  2  0
 21 23  1  0
 23 24  1  0
 24 25  1  0
 25 26  1  0
 26 27  1  0
 27 28  1  0
 28 29  1  0
 29 30  1  0
  9 31  2  0
 31  5  1  0
 23 12  1  0
 30 25  1  0
 20 14  1  0
  1 32  1  0
  1 33  1  0
  6 34  1  0
  7 35  1  0
  8 36  1  0
 10 37  1  0
 11 38  1  0
 15 39  1  0
 18 40  1  0
 19 41  1  0
 24 42  1  0
 24 43  1  0
 25 44  1  0
 26 45  1  0
 26 46  1  0
 27 47  1  0
 27 48  1  0
 28 49  1  0
 28 50  1  0
 29 51  1  0
 29 52  1  0
 30 53  1  0
 30 54  1  0
 31 55  1  0
M  END
>  <smiles>  (18) 
NS(=O)(=O)c1cccc(/C=C/c2nc3cc(Cl)ccc3c(=O)n2CC2CCCCC2)c1

>  <score_type>  (18) 
oracle

>  <origin>  (18) 
autodockgpu

>  <m_score__min__energy>  (18) 
-8.9600000000000009

>  <m_primary>  (18) 
energy

>  <rmsd>  (18) 
4.426690647635752

>  <m_score__min__rmsd>  (18) 
4.426690647635752

>  <meeko>  (18) 
{"free_energy": -7.1, "intermolecular_energy": -9.18, "internal_energy": -2.58, "cluster_size": 5, "cluster_id": 17, "rank_in_cluster": 2}

>  <energy>  (18) 
-8.1

>  <cluster_rmsd>  (18) 
0.79

>  <cluster>  (18) 
4

$$$$

     RDKit          3D

 55 58  0  0  0  0  0  0  0  0999 V2000
  146.3370   73.3900  218.7780 N   0  0  0  0  0  0  0  0  0  0  0  0
  145.4170   72.9210  220.1730 S   0  0  0  0  0  0  0  0  0  0  0  0
  146.2790   73.1480  221.3670 O   0  0  0  0  0  0  0  0  0  0  0  0
  145.0250   71.4710  220.0910 O   0  0  0  0  0  0  0  0  0  0  0  0
  143.9640   73.8870  220.3310 C   0  0  0  0  0  0  0  0  0  0  0  0
  144.0010   75.2110  219.9480 C   0  0  0  0  0  0  0  0  0  0  0  0
  142.8550   75.9490  220.0790 C   0  0  0  0  0  0  0  0  0  0  0  0
  141.6960   75.3910  220.5770 C   0  0  0  0  0  0  0  0  0  0  0  0
  141.6270   74.0530  220.9740 C   0  0  0  0  0  0  0  0  0  0  0  0
  140.3840   73.5010  221.4960 C   0  0  0  0  0  0  0  0  0  0  0  0
  140.2960   72.4170  222.2240 C   0  0  0  0  0  0  0  0  0  0  0  0
  138.9880   71.9670  222.7450 C   0  0  0  0  0  0  0  0  0  0  0  0
  137.8930   72.5090  222.1880 N   0  0  0  0  0  0  0  0  0  0  0  0
  136.6650   72.1740  222.6110 C   0  0  0  0  0  0  0  0  0  0  0  0
  135.5090   72.7020  222.0720 C   0  0  0  0  0  0  0  0  0  0  0  0
  134.2640   72.3370  222.5290 C   0  0  0  0  0  0  0  0  0  0  0  0
  132.8540   73.0730  221.7690 Cl  0  0  0  0  0  0  0  0  0  0  0  0
  134.1430   71.4160  223.5540 C   0  0  0  0  0  0  0  0  0  0  0  0
  135.3050   70.9010  224.0790 C   0  0  0  0  0  0  0  0  0  0  0  0
  136.5580   71.2550  223.6340 C   0  0  0  0  0  0  0  0  0  0  0  0
  137.7010   70.7190  224.1820 C   0  0  0  0  0  0  0  0  0  0  0  0
  137.5770   69.8760  225.1230 O   0  0  0  0  0  0  0  0  0  0  0  0
  138.9490   71.0660  223.7450 N   0  0  0  0  0  0  0  0  0  0  0  0
  140.0600   70.4800  224.3700 C   0  0  0  0  0  0  0  0  0  0  0  0
  140.2240   70.4870  225.8240 C   0  0  0  0  0  0  0  0  0  0  0  0
  141.0270   69.3390  226.3730 C   0  0  0  0  0  0  0  0  0  0  0  0
  140.9790   69.3710  227.8660 C   0  0  0  0  0  0  0  0  0  0  0  0
  140.4900   70.6940  228.3400 C   0  0  0  0  0  0  0  0  0  0  0  0
  141.0930   71.8810  227.6330 C   0  0  0  0  0  0  0  0  0  0  0  0
  141.0810   71.7350  226.1450 C   0  0  0  0  0  0  0  0  0  0  0  0
  142.7870   73.3300  220.8350 C   0  0  0  0  0  0  0  0  0  0  0  0
  147.0860   74.0420  219.0960 H   0  0  0  0  0  0  0  0  0  0  0  0
  145.6730   73.8120  218.1050 H   0  0  0  0  0  0  0  0  0  0  0  0
  144.9225   75.6605  219.5496 H   0  0  0  0  0  0  0  0  0  0  0  0
  142.8587   77.0079  219.7812 H   0  0  0  0  0  0  0  0  0  0  0  0
  140.7974   76.0193  220.6644 H   0  0  0  0  0  0  0  0  0  0  0  0
  139.4511   74.0344  221.2611 H   0  0  0  0  0  0  0  0  0  0  0  0
  141.2025   71.8363  222.4499 H   0  0  0  0  0  0  0  0  0  0  0  0
  135.5855   73.4345  221.2549 H   0  0  0  0  0  0  0  0  0  0  0  0
  133.1576   71.1081  223.9336 H   0  0  0  0  0  0  0  0  0  0  0  0
  135.2289   70.1687  224.8963 H   0  0  0  0  0  0  0  0  0  0  0  0
  140.0634   69.4232  224.0647 H   0  0  0  0  0  0  0  0  0  0  0  0
  140.8816   71.1335  224.0414 H   0  0  0  0  0  0  0  0  0  0  0  0
  139.2149   70.4470  226.2600 H   0  0  0  0  0  0  0  0  0  0  0  0
  140.6046   68.3896  226.0122 H   0  0  0  0  0  0  0  0  0  0  0  0
  142.0706   69.4255  226.0363 H   0  0  0  0  0  0  0  0  0  0  0  0
  140.2993   68.5837  228.2239 H   0  0  0  0  0  0  0  0  0  0  0  0
  141.9922   69.2026  228.2597 H   0  0  0  0  0  0  0  0  0  0  0  0
  139.4000   70.7275  228.1962 H   0  0  0  0  0  0  0  0  0  0  0  0
  140.7913   70.7758  229.3948 H   0  0  0  0  0  0  0  0  0  0  0  0
  140.5192   72.7799  227.9028 H   0  0  0  0  0  0  0  0  0  0  0  0
  142.1434   71.9577  227.9504 H   0  0  0  0  0  0  0  0  0  0  0  0
  140.6377   72.6282  225.6806 H   0  0  0  0  0  0  0  0  0  0  0  0
  142.1022   71.6239  225.7515 H   0  0  0  0  0  0  0  0  0  0  0  0
  142.7885   72.2710  221.1324 H   0  0  0  0  0  0  0  0  0  0  0  0
  1  2  1  0
  2  3  2  0
  2  4  2  0
  2  5  1  0
  5  6  2  0
  6  7  1  0
  7  8  2  0
  8  9  1  0
  9 10  1  0
 10 11  2  0
 11 12  1  0
 12 13  2  0
 13 14  1  0
 14 15  2  0
 15 16  1  0
 16 17  1  0
 16 18  2  0
 18 19  1  0
 19 20  2  0
 20 21  1  0
 21 22  2  0
 21 23  1  0
 23 24  1  0
 24 25  1  0
 25 26  1  0
 26 27  1  0
 27 28  1  0
 28 29  1  0
 29 30  1  0
  9 31  2  0
 31  5  1  0
 23 12  1  0
 30 25  1  0
 20 14  1  0
  1 32  1  0
  1 33  1  0
  6 34  1  0
  7 35  1  0
  8 36  1  0
 10 37  1  0
 11 38  1  0
 15 39  1  0
 18 40  1  0
 19 41  1  0
 24 42  1  0
 24 43  1  0
 25 44  1  0
 26 45  1  0
 26 46  1  0
 27 47  1  0
 27 48  1  0
 28 49  1  0
 28 50  1  0
 29 51  1  0
 29 52  1  0
 30 53  1  0
 30 54  1  0
 31 55  1  0
M  END
>  <smiles>  (19) 
NS(=O)(=O)c1cccc(/C=C/c2nc3cc(Cl)ccc3c(=O)n2CC2CCCCC2)c1

>  <score_type>  (19) 
oracle

>  <origin>  (19) 
autodockgpu

>  <m_score__min__energy>  (19) 
-8.9600000000000009

>  <m_primary>  (19) 
energy

>  <rmsd>  (19) 
11.083892809229358

>  <m_score__min__rmsd>  (19) 
11.083892809229358

>  <meeko>  (19) 
{"free_energy": -8.82, "intermolecular_energy": -10.91, "internal_energy": -1.18, "cluster_size": 6, "cluster_id": 3, "rank_in_cluster": 1}

>  <energy>  (19) 
-7.95

>  <cluster_rmsd>  (19) 
1.07

>  <cluster>  (19) 
4

$$$$

     RDKit          3D

 55 58  0  0  0  0  0  0  0  0999 V2000
  143.3400   81.6460  215.2110 N   0  0  0  0  0  0  0  0  0  0  0  0
  143.2200   82.8750  216.4300 S   0  0  0  0  0  0  0  0  0  0  0  0
  142.4520   84.0080  215.8400 O   0  0  0  0  0  0  0  0  0  0  0  0
  144.5860   83.3440  216.8510 O   0  0  0  0  0  0  0  0  0  0  0  0
  142.3680   82.2880  217.8440 C   0  0  0  0  0  0  0  0  0  0  0  0
  141.5440   83.1530  218.5320 C   0  0  0  0  0  0  0  0  0  0  0  0
  140.8880   82.6740  219.6330 C   0  0  0  0  0  0  0  0  0  0  0  0
  141.0410   81.3670  220.0480 C   0  0  0  0  0  0  0  0  0  0  0  0
  141.8690   80.4670  219.3720 C   0  0  0  0  0  0  0  0  0  0  0  0
  142.0050   79.0940  219.8410 C   0  0  0  0  0  0  0  0  0  0  0  0
  141.6100   78.0370  219.1810 C   0  0  0  0  0  0  0  0  0  0  0  0
  141.7630   76.6870  219.7640 C   0  0  0  0  0  0  0  0  0  0  0  0
  142.7800   75.9400  219.3060 N   0  0  0  0  0  0  0  0  0  0  0  0
  142.9840   74.6950  219.7650 C   0  0  0  0  0  0  0  0  0  0  0  0
  144.0140   73.8870  219.3270 C   0  0  0  0  0  0  0  0  0  0  0  0
  144.1950   72.6150  219.8180 C   0  0  0  0  0  0  0  0  0  0  0  0
  145.5430   71.6690  219.1890 Cl  0  0  0  0  0  0  0  0  0  0  0  0
  143.3350   72.1120  220.7770 C   0  0  0  0  0  0  0  0  0  0  0  0
  142.3150   72.9300  221.2020 C   0  0  0  0  0  0  0  0  0  0  0  0
  142.1190   74.2050  220.7220 C   0  0  0  0  0  0  0  0  0  0  0  0
  141.0880   74.9990  221.1680 C   0  0  0  0  0  0  0  0  0  0  0  0
  140.3050   74.5240  222.0490 O   0  0  0  0  0  0  0  0  0  0  0  0
  140.8870   76.2660  220.6960 N   0  0  0  0  0  0  0  0  0  0  0  0
  139.8020   76.9990  221.1980 C   0  0  0  0  0  0  0  0  0  0  0  0
  139.9890   78.1960  222.0190 C   0  0  0  0  0  0  0  0  0  0  0  0
  138.8710   78.4790  222.9850 C   0  0  0  0  0  0  0  0  0  0  0  0
  139.1020   79.8040  223.6360 C   0  0  0  0  0  0  0  0  0  0  0  0
  140.5060   80.2470  223.4230 C   0  0  0  0  0  0  0  0  0  0  0  0
  141.5460   79.1740  223.6280 C   0  0  0  0  0  0  0  0  0  0  0  0
  141.2060   77.8990  222.9270 C   0  0  0  0  0  0  0  0  0  0  0  0
  142.5180   80.9670  218.2700 C   0  0  0  0  0  0  0  0  0  0  0  0
  143.0200   80.7480  215.6330 H   0  0  0  0  0  0  0  0  0  0  0  0
  144.3250   81.6300  214.8920 H   0  0  0  0  0  0  0  0  0  0  0  0
  141.4179   84.1960  218.2059 H   0  0  0  0  0  0  0  0  0  0  0  0
  140.2249   83.3447  220.1990 H   0  0  0  0  0  0  0  0  0  0  0  0
  140.4943   81.0229  220.9384 H   0  0  0  0  0  0  0  0  0  0  0  0
  142.4747   78.9353  220.8229 H   0  0  0  0  0  0  0  0  0  0  0  0
  141.1602   78.1529  218.1839 H   0  0  0  0  0  0  0  0  0  0  0  0
  144.7085   74.2706  218.5651 H   0  0  0  0  0  0  0  0  0  0  0  0
  143.4620   71.0978  221.1836 H   0  0  0  0  0  0  0  0  0  0  0  0
  141.6206   72.5462  221.9639 H   0  0  0  0  0  0  0  0  0  0  0  0
  139.2123   77.3137  220.3244 H   0  0  0  0  0  0  0  0  0  0  0  0
  139.3584   76.2933  221.9157 H   0  0  0  0  0  0  0  0  0  0  0  0
  140.0763   79.0469  221.3273 H   0  0  0  0  0  0  0  0  0  0  0  0
  137.9138   78.4980  222.4433 H   0  0  0  0  0  0  0  0  0  0  0  0
  138.8407   77.6922  223.7531 H   0  0  0  0  0  0  0  0  0  0  0  0
  138.4173   80.5465  223.2003 H   0  0  0  0  0  0  0  0  0  0  0  0
  138.9172   79.7086  224.7162 H   0  0  0  0  0  0  0  0  0  0  0  0
  140.5951   80.6172  222.3910 H   0  0  0  0  0  0  0  0  0  0  0  0
  140.7050   81.0197  224.1801 H   0  0  0  0  0  0  0  0  0  0  0  0
  142.5097   79.5402  223.2443 H   0  0  0  0  0  0  0  0  0  0  0  0
  141.5923   78.9582  224.7056 H   0  0  0  0  0  0  0  0  0  0  0  0
  142.0586   77.5628  222.3188 H   0  0  0  0  0  0  0  0  0  0  0  0
  140.9733   77.1026  223.6492 H   0  0  0  0  0  0  0  0  0  0  0  0
  143.1823   80.3004  217.7004 H   0  0  0  0  0  0  0  0  0  0  0  0
  1  2  1  0
  2  3  2  0
  2  4  2  0
  2  5  1  0
  5  6  2  0
  6  7  1  0
  7  8  2  0
  8  9  1  0
  9 10  1  0
 10 11  2  0
 11 12  1  0
 12 13  2  0
 13 14  1  0
 14 15  2  0
 15 16  1  0
 16 17  1  0
 16 18  2  0
 18 19  1  0
 19 20  2  0
 20 21  1  0
 21 22  2  0
 21 23  1  0
 23 24  1  0
 24 25  1  0
 25 26  1  0
 26 27  1  0
 27 28  1  0
 28 29  1  0
 29 30  1  0
  9 31  2  0
 31  5  1  0
 23 12  1  0
 30 25  1  0
 20 14  1  0
  1 32  1  0
  1 33  1  0
  6 34  1  0
  7 35  1  0
  8 36  1  0
 10 37  1  0
 11 38  1  0
 15 39  1  0
 18 40  1  0
 19 41  1  0
 24 42  1  0
 24 43  1  0
 25 44  1  0
 26 45  1  0
 26 46  1  0
 27 47  1  0
 27 48  1  0
 28 49  1  0
 28 50  1  0
 29 51  1  0
 29 52  1  0
 30 53  1  0
 30 54  1  0
 31 55  1  0
M  END
>  <smiles>  (20) 
NS(=O)(=O)c1cccc(/C=C/c2nc3cc(Cl)ccc3c(=O)n2CC2CCCCC2)c1

>  <score_type>  (20) 
oracle

>  <origin>  (20) 
autodockgpu

>  <m_score__min__energy>  (20) 
-8.9600000000000009

>  <m_primary>  (20) 
energy

>  <rmsd>  (20) 
7.76217880401067

>  <m_score__min__rmsd>  (20) 
7.76217880401067

>  <meeko>  (20) 
{"free_energy": -7.96, "intermolecular_energy": -10.05, "internal_energy": -1.66, "cluster_size": 2, "cluster_id": 7, "rank_in_cluster": 2}

>  <energy>  (20) 
-7.85

>  <cluster_rmsd>  (20) 
1.24

>  <cluster>  (20) 
4

$$$$

     RDKit          3D

 55 58  0  0  0  0  0  0  0  0999 V2000
  142.2710   78.7050  221.5650 N   0  0  0  0  0  0  0  0  0  0  0  0
  141.1290   78.1950  222.7690 S   0  0  0  0  0  0  0  0  0  0  0  0
  140.1670   79.3150  222.9660 O   0  0  0  0  0  0  0  0  0  0  0  0
  141.8250   77.8810  224.0650 O   0  0  0  0  0  0  0  0  0  0  0  0
  140.2470   76.7740  222.2470 C   0  0  0  0  0  0  0  0  0  0  0  0
  138.8700   76.7830  222.3170 C   0  0  0  0  0  0  0  0  0  0  0  0
  138.2000   75.6620  221.9050 C   0  0  0  0  0  0  0  0  0  0  0  0
  138.8740   74.5570  221.4310 C   0  0  0  0  0  0  0  0  0  0  0  0
  140.2690   74.5180  221.3470 C   0  0  0  0  0  0  0  0  0  0  0  0
  140.9450   73.3310  220.8410 C   0  0  0  0  0  0  0  0  0  0  0  0
  141.9240   72.7120  221.4500 C   0  0  0  0  0  0  0  0  0  0  0  0
  143.0290   72.1120  220.6750 C   0  0  0  0  0  0  0  0  0  0  0  0
  143.0210   70.7760  220.5390 N   0  0  0  0  0  0  0  0  0  0  0  0
  143.9950   70.1430  219.8680 C   0  0  0  0  0  0  0  0  0  0  0  0
  144.0310   68.7730  219.7010 C   0  0  0  0  0  0  0  0  0  0  0  0
  145.0450   68.1550  219.0060 C   0  0  0  0  0  0  0  0  0  0  0  0
  144.9930   66.4000  218.8530 Cl  0  0  0  0  0  0  0  0  0  0  0  0
  146.0650   68.9060  218.4510 C   0  0  0  0  0  0  0  0  0  0  0  0
  146.0130   70.2690  218.6270 C   0  0  0  0  0  0  0  0  0  0  0  0
  145.0060   70.9040  219.3190 C   0  0  0  0  0  0  0  0  0  0  0  0
  144.9840   72.2710  219.4770 C   0  0  0  0  0  0  0  0  0  0  0  0
  145.9270   72.9490  218.9630 O   0  0  0  0  0  0  0  0  0  0  0  0
  143.9870   72.9080  220.1630 N   0  0  0  0  0  0  0  0  0  0  0  0
  144.0520   74.3040  220.2860 C   0  0  0  0  0  0  0  0  0  0  0  0
  143.1490   75.1890  219.5500 C   0  0  0  0  0  0  0  0  0  0  0  0
  143.6590   76.5910  219.3580 C   0  0  0  0  0  0  0  0  0  0  0  0
  142.5840   77.4300  218.7460 C   0  0  0  0  0  0  0  0  0  0  0  0
  141.5110   76.5660  218.1830 C   0  0  0  0  0  0  0  0  0  0  0  0
  142.0030   75.3760  217.4000 C   0  0  0  0  0  0  0  0  0  0  0  0
  143.0720   74.6150  218.1150 C   0  0  0  0  0  0  0  0  0  0  0  0
  140.9230   75.6510  221.7660 C   0  0  0  0  0  0  0  0  0  0  0  0
  142.7520   77.8540  221.2030 H   0  0  0  0  0  0  0  0  0  0  0  0
  142.9080   79.3840  222.0200 H   0  0  0  0  0  0  0  0  0  0  0  0
  138.3267   77.6629  222.6920 H   0  0  0  0  0  0  0  0  0  0  0  0
  137.1012   75.6430  221.9533 H   0  0  0  0  0  0  0  0  0  0  0  0
  138.2961   73.6783  221.1087 H   0  0  0  0  0  0  0  0  0  0  0  0
  140.6077   72.9251  219.8759 H   0  0  0  0  0  0  0  0  0  0  0  0
  141.9240   72.6379  222.5475 H   0  0  0  0  0  0  0  0  0  0  0  0
  143.2279   68.1593  220.1350 H   0  0  0  0  0  0  0  0  0  0  0  0
  146.8849   68.4323  217.8913 H   0  0  0  0  0  0  0  0  0  0  0  0
  146.8162   70.8827  218.1932 H   0  0  0  0  0  0  0  0  0  0  0  0
  143.9003   74.5267  221.3525 H   0  0  0  0  0  0  0  0  0  0  0  0
  145.0250   74.5318  219.8262 H   0  0  0  0  0  0  0  0  0  0  0  0
  142.2102   75.2344  220.1215 H   0  0  0  0  0  0  0  0  0  0  0  0
  143.9452   77.0142  220.3322 H   0  0  0  0  0  0  0  0  0  0  0  0
  144.5361   76.5756  218.6944 H   0  0  0  0  0  0  0  0  0  0  0  0
  142.1539   78.0870  219.5163 H   0  0  0  0  0  0  0  0  0  0  0  0
  143.0192   78.0334  217.9357 H   0  0  0  0  0  0  0  0  0  0  0  0
  140.8965   76.1964  219.0171 H   0  0  0  0  0  0  0  0  0  0  0  0
  140.9495   77.1922  217.4741 H   0  0  0  0  0  0  0  0  0  0  0  0
  141.1542   74.7010  217.2158 H   0  0  0  0  0  0  0  0  0  0  0  0
  142.4355   75.7526  216.4613 H   0  0  0  0  0  0  0  0  0  0  0  0
  142.8170   73.5455  218.1486 H   0  0  0  0  0  0  0  0  0  0  0  0
  144.0383   74.7142  217.5988 H   0  0  0  0  0  0  0  0  0  0  0  0
  142.0218   75.6744  221.7208 H   0  0  0  0  0  0  0  0  0  0  0  0
  1  2  1  0
  2  3  2  0
  2  4  2  0
  2  5  1  0
  5  6  2  0
  6  7  1  0
  7  8  2  0
  8  9  1  0
  9 10  1  0
 10 11  2  0
 11 12  1  0
 12 13  2  0
 13 14  1  0
 14 15  2  0
 15 16  1  0
 16 17  1  0
 16 18  2  0
 18 19  1  0
 19 20  2  0
 20 21  1  0
 21 22  2  0
 21 23  1  0
 23 24  1  0
 24 25  1  0
 25 26  1  0
 26 27  1  0
 27 28  1  0
 28 29  1  0
 29 30  1  0
  9 31  2  0
 31  5  1  0
 23 12  1  0
 30 25  1  0
 20 14  1  0
  1 32  1  0
  1 33  1  0
  6 34  1  0
  7 35  1  0
  8 36  1  0
 10 37  1  0
 11 38  1  0
 15 39  1  0
 18 40  1  0
 19 41  1  0
 24 42  1  0
 24 43  1  0
 25 44  1  0
 26 45  1  0
 26 46  1  0
 27 47  1  0
 27 48  1  0
 28 49  1  0
 28 50  1  0
 29 51  1  0
 29 52  1  0
 30 53  1  0
 30 54  1  0
 31 55  1  0
M  END
>  <smiles>  (21) 
NS(=O)(=O)c1cccc(/C=C/c2nc3cc(Cl)ccc3c(=O)n2CC2CCCCC2)c1

>  <score_type>  (21) 
oracle

>  <origin>  (21) 
autodockgpu

>  <m_score__min__energy>  (21) 
-8.9600000000000009

>  <m_primary>  (21) 
energy

>  <rmsd>  (21) 
9.453570587898378

>  <m_score__min__rmsd>  (21) 
9.453570587898378

>  <meeko>  (21) 
{"free_energy": -7.55, "intermolecular_energy": -9.64, "internal_energy": -2.14, "cluster_size": 2, "cluster_id": 15, "rank_in_cluster": 2}

>  <energy>  (21) 
-8.25

>  <cluster_rmsd>  (21) 
0.0

>  <cluster>  (21) 
5

$$$$

     RDKit          3D

 55 58  0  0  0  0  0  0  0  0999 V2000
  146.2870   73.3790  219.1610 N   0  0  0  0  0  0  0  0  0  0  0  0
  145.2970   73.7670  220.5330 S   0  0  0  0  0  0  0  0  0  0  0  0
  145.0740   75.2400  220.5120 O   0  0  0  0  0  0  0  0  0  0  0  0
  145.9780   73.3680  221.8120 O   0  0  0  0  0  0  0  0  0  0  0  0
  143.7450   72.9580  220.4450 C   0  0  0  0  0  0  0  0  0  0  0  0
  143.7150   71.6020  220.1940 C   0  0  0  0  0  0  0  0  0  0  0  0
  142.4920   70.9900  220.1300 C   0  0  0  0  0  0  0  0  0  0  0  0
  141.3240   71.6990  220.3110 C   0  0  0  0  0  0  0  0  0  0  0  0
  141.3210   73.0730  220.5670 C   0  0  0  0  0  0  0  0  0  0  0  0
  140.0660   73.7880  220.7510 C   0  0  0  0  0  0  0  0  0  0  0  0
  139.5990   74.1930  221.9040 C   0  0  0  0  0  0  0  0  0  0  0  0
  139.4790   75.6350  222.2010 C   0  0  0  0  0  0  0  0  0  0  0  0
  140.6200   76.3060  222.4270 N   0  0  0  0  0  0  0  0  0  0  0  0
  140.6050   77.6150  222.7220 C   0  0  0  0  0  0  0  0  0  0  0  0
  141.7500   78.3490  222.9620 C   0  0  0  0  0  0  0  0  0  0  0  0
  141.7000   79.6900  223.2630 C   0  0  0  0  0  0  0  0  0  0  0  0
  143.2220   80.5310  223.5520 Cl  0  0  0  0  0  0  0  0  0  0  0  0
  140.4820   80.3420  223.3310 C   0  0  0  0  0  0  0  0  0  0  0  0
  139.3530   79.5960  223.0890 C   0  0  0  0  0  0  0  0  0  0  0  0
  139.3840   78.2530  222.7870 C   0  0  0  0  0  0  0  0  0  0  0  0
  138.2340   77.5350  222.5500 C   0  0  0  0  0  0  0  0  0  0  0  0
  137.1220   78.1450  222.6160 O   0  0  0  0  0  0  0  0  0  0  0  0
  138.2580   76.2020  222.2490 N   0  0  0  0  0  0  0  0  0  0  0  0
  137.0360   75.5460  222.0350 C   0  0  0  0  0  0  0  0  0  0  0  0
  136.2340   75.0220  223.1410 C   0  0  0  0  0  0  0  0  0  0  0  0
  135.4210   76.0540  223.8730 C   0  0  0  0  0  0  0  0  0  0  0  0
  134.7850   75.4260  225.0710 C   0  0  0  0  0  0  0  0  0  0  0  0
  134.8370   73.9420  224.9650 C   0  0  0  0  0  0  0  0  0  0  0  0
  134.4760   73.3910  223.6090 C   0  0  0  0  0  0  0  0  0  0  0  0
  135.1760   74.0970  222.4930 C   0  0  0  0  0  0  0  0  0  0  0  0
  142.5580   73.6700  220.6270 C   0  0  0  0  0  0  0  0  0  0  0  0
  146.9270   74.1850  218.9930 H   0  0  0  0  0  0  0  0  0  0  0  0
  145.6460   73.1830  218.3710 H   0  0  0  0  0  0  0  0  0  0  0  0
  144.6439   71.0307  220.0499 H   0  0  0  0  0  0  0  0  0  0  0  0
  142.4405   69.9096  219.9299 H   0  0  0  0  0  0  0  0  0  0  0  0
  140.3634   71.1664  220.2521 H   0  0  0  0  0  0  0  0  0  0  0  0
  139.4663   74.0035  219.8544 H   0  0  0  0  0  0  0  0  0  0  0  0
  139.2931   73.4535  222.6587 H   0  0  0  0  0  0  0  0  0  0  0  0
  142.7278   77.8478  222.9111 H   0  0  0  0  0  0  0  0  0  0  0  0
  140.4193   81.4141  223.5691 H   0  0  0  0  0  0  0  0  0  0  0  0
  138.3752   80.0974  223.1392 H   0  0  0  0  0  0  0  0  0  0  0  0
  136.3929   76.2597  221.4992 H   0  0  0  0  0  0  0  0  0  0  0  0
  137.3540   74.6255  221.5235 H   0  0  0  0  0  0  0  0  0  0  0  0
  136.9337   74.5598  223.8529 H   0  0  0  0  0  0  0  0  0  0  0  0
  136.0761   76.8771  224.1943 H   0  0  0  0  0  0  0  0  0  0  0  0
  134.6399   76.4476  223.2059 H   0  0  0  0  0  0  0  0  0  0  0  0
  135.3229   75.7443  225.9762 H   0  0  0  0  0  0  0  0  0  0  0  0
  133.7335   75.7443  225.1262 H   0  0  0  0  0  0  0  0  0  0  0  0
  135.8605   73.6177  225.2045 H   0  0  0  0  0  0  0  0  0  0  0  0
  134.0832   73.5553  225.6666 H   0  0  0  0  0  0  0  0  0  0  0  0
  134.7497   72.3260  223.5779 H   0  0  0  0  0  0  0  0  0  0  0  0
  133.3950   73.5382  223.4683 H   0  0  0  0  0  0  0  0  0  0  0  0
  135.6657   73.3671  221.8316 H   0  0  0  0  0  0  0  0  0  0  0  0
  134.4650   74.6763  221.8857 H   0  0  0  0  0  0  0  0  0  0  0  0
  142.6146   74.7503  220.8261 H   0  0  0  0  0  0  0  0  0  0  0  0
  1  2  1  0
  2  3  2  0
  2  4  2  0
  2  5  1  0
  5  6  2  0
  6  7  1  0
  7  8  2  0
  8  9  1  0
  9 10  1  0
 10 11  2  0
 11 12  1  0
 12 13  2  0
 13 14  1  0
 14 15  2  0
 15 16  1  0
 16 17  1  0
 16 18  2  0
 18 19  1  0
 19 20  2  0
 20 21  1  0
 21 22  2  0
 21 23  1  0
 23 24  1  0
 24 25  1  0
 25 26  1  0
 26 27  1  0
 27 28  1  0
 28 29  1  0
 29 30  1  0
  9 31  2  0
 31  5  1  0
 23 12  1  0
 30 25  1  0
 20 14  1  0
  1 32  1  0
  1 33  1  0
  6 34  1  0
  7 35  1  0
  8 36  1  0
 10 37  1  0
 11 38  1  0
 15 39  1  0
 18 40  1  0
 19 41  1  0
 24 42  1  0
 24 43  1  0
 25 44  1  0
 26 45  1  0
 26 46  1  0
 27 47  1  0
 27 48  1  0
 28 49  1  0
 28 50  1  0
 29 51  1  0
 29 52  1  0
 30 53  1  0
 30 54  1  0
 31 55  1  0
M  END
>  <smiles>  (22) 
NS(=O)(=O)c1cccc(/C=C/c2nc3cc(Cl)ccc3c(=O)n2CC2CCCCC2)c1

>  <score_type>  (22) 
oracle

>  <origin>  (22) 
autodockgpu

>  <m_score__min__energy>  (22) 
-8.9600000000000009

>  <m_primary>  (22) 
energy

>  <rmsd>  (22) 
6.350066836960626

>  <m_score__min__rmsd>  (22) 
6.350066836960626

>  <meeko>  (22) 
{"free_energy": -8.2, "intermolecular_energy": -10.29, "internal_energy": -1.31, "cluster_size": 7, "cluster_id": 1, "rank_in_cluster": 6}

>  <energy>  (22) 
-8.23

>  <cluster_rmsd>  (22) 
0.0

>  <cluster>  (22) 
6

$$$$

     RDKit          3D

 55 58  0  0  0  0  0  0  0  0999 V2000
  144.7160   71.5310  220.1960 N   0  0  0  0  0  0  0  0  0  0  0  0
  145.2340   73.1880  220.1700 S   0  0  0  0  0  0  0  0  0  0  0  0
  146.0540   73.3730  218.9390 O   0  0  0  0  0  0  0  0  0  0  0  0
  146.0550   73.5090  221.3880 O   0  0  0  0  0  0  0  0  0  0  0  0
  143.8660   74.2810  220.1100 C   0  0  0  0  0  0  0  0  0  0  0  0
  144.0660   75.5740  219.6780 C   0  0  0  0  0  0  0  0  0  0  0  0
  142.9840   76.4120  219.6390 C   0  0  0  0  0  0  0  0  0  0  0  0
  141.7300   75.9820  220.0190 C   0  0  0  0  0  0  0  0  0  0  0  0
  141.4950   74.6770  220.4620 C   0  0  0  0  0  0  0  0  0  0  0  0
  140.1560   74.2610  220.8560 C   0  0  0  0  0  0  0  0  0  0  0  0
  139.5590   74.6150  221.9640 C   0  0  0  0  0  0  0  0  0  0  0  0
  139.4340   76.0430  222.3260 C   0  0  0  0  0  0  0  0  0  0  0  0
  140.5730   76.7070  222.5810 N   0  0  0  0  0  0  0  0  0  0  0  0
  140.5540   78.0010  222.9350 C   0  0  0  0  0  0  0  0  0  0  0  0
  141.6960   78.7270  223.2080 C   0  0  0  0  0  0  0  0  0  0  0  0
  141.6420   80.0540  223.5690 C   0  0  0  0  0  0  0  0  0  0  0  0
  143.1610   80.8850  223.8950 Cl  0  0  0  0  0  0  0  0  0  0  0  0
  140.4210   80.6970  223.6670 C   0  0  0  0  0  0  0  0  0  0  0  0
  139.2950   79.9590  223.3920 C   0  0  0  0  0  0  0  0  0  0  0  0
  139.3300   78.6310  223.0290 C   0  0  0  0  0  0  0  0  0  0  0  0
  138.1830   77.9210  222.7610 C   0  0  0  0  0  0  0  0  0  0  0  0
  137.0690   78.5230  222.8540 O   0  0  0  0  0  0  0  0  0  0  0  0
  138.2110   76.6020  222.4000 N   0  0  0  0  0  0  0  0  0  0  0  0
  136.9920   75.9520  222.1570 C   0  0  0  0  0  0  0  0  0  0  0  0
  136.2200   75.3260  223.2310 C   0  0  0  0  0  0  0  0  0  0  0  0
  135.2760   76.2500  223.9500 C   0  0  0  0  0  0  0  0  0  0  0  0
  134.6790   75.5370  225.1190 C   0  0  0  0  0  0  0  0  0  0  0  0
  134.8990   74.0700  224.9980 C   0  0  0  0  0  0  0  0  0  0  0  0
  134.6420   73.5030  223.6250 C   0  0  0  0  0  0  0  0  0  0  0  0
  135.2920   74.2990  222.5400 C   0  0  0  0  0  0  0  0  0  0  0  0
  142.5940   73.8520  220.4940 C   0  0  0  0  0  0  0  0  0  0  0  0
  143.7450   71.4960  219.8180 H   0  0  0  0  0  0  0  0  0  0  0  0
  144.7960   71.2040  221.1750 H   0  0  0  0  0  0  0  0  0  0  0  0
  145.0641   75.9222  219.3738 H   0  0  0  0  0  0  0  0  0  0  0  0
  143.1176   77.4491  219.2977 H   0  0  0  0  0  0  0  0  0  0  0  0
  140.8879   76.6882  219.9720 H   0  0  0  0  0  0  0  0  0  0  0  0
  139.6060   73.5997  220.1703 H   0  0  0  0  0  0  0  0  0  0  0  0
  139.1466   73.8445  222.6320 H   0  0  0  0  0  0  0  0  0  0  0  0
  142.6754   78.2316  223.1350 H   0  0  0  0  0  0  0  0  0  0  0  0
  140.3542   81.7569  223.9537 H   0  0  0  0  0  0  0  0  0  0  0  0
  138.3156   80.4543  223.4655 H   0  0  0  0  0  0  0  0  0  0  0  0
  136.3298   76.7008  221.6978 H   0  0  0  0  0  0  0  0  0  0  0  0
  137.3083   75.0823  221.5624 H   0  0  0  0  0  0  0  0  0  0  0  0
  136.9454   74.9339  223.9591 H   0  0  0  0  0  0  0  0  0  0  0  0
  135.8257   77.1355  224.3017 H   0  0  0  0  0  0  0  0  0  0  0  0
  134.4761   76.5651  223.2638 H   0  0  0  0  0  0  0  0  0  0  0  0
  135.1507   75.8994  226.0443 H   0  0  0  0  0  0  0  0  0  0  0  0
  133.5973   75.7353  225.1441 H   0  0  0  0  0  0  0  0  0  0  0  0
  135.9446   73.8576  225.2656 H   0  0  0  0  0  0  0  0  0  0  0  0
  134.1726   73.5915  225.6714 H   0  0  0  0  0  0  0  0  0  0  0  0
  135.0332   72.4755  223.5900 H   0  0  0  0  0  0  0  0  0  0  0  0
  133.5560   73.5316  223.4523 H   0  0  0  0  0  0  0  0  0  0  0  0
  135.8797   73.6380  221.8860 H   0  0  0  0  0  0  0  0  0  0  0  0
  134.5392   74.8047  221.9175 H   0  0  0  0  0  0  0  0  0  0  0  0
  142.4665   72.8141  220.8352 H   0  0  0  0  0  0  0  0  0  0  0  0
  1  2  1  0
  2  3  2  0
  2  4  2  0
  2  5  1  0
  5  6  2  0
  6  7  1  0
  7  8  2  0
  8  9  1  0
  9 10  1  0
 10 11  2  0
 11 12  1  0
 12 13  2  0
 13 14  1  0
 14 15  2  0
 15 16  1  0
 16 17  1  0
 16 18  2  0
 18 19  1  0
 19 20  2  0
 20 21  1  0
 21 22  2  0
 21 23  1  0
 23 24  1  0
 24 25  1  0
 25 26  1  0
 26 27  1  0
 27 28  1  0
 28 29  1  0
 29 30  1  0
  9 31  2  0
 31  5  1  0
 23 12  1  0
 30 25  1  0
 20 14  1  0
  1 32  1  0
  1 33  1  0
  6 34  1  0
  7 35  1  0
  8 36  1  0
 10 37  1  0
 11 38  1  0
 15 39  1  0
 18 40  1  0
 19 41  1  0
 24 42  1  0
 24 43  1  0
 25 44  1  0
 26 45  1  0
 26 46  1  0
 27 47  1  0
 27 48  1  0
 28 49  1  0
 28 50  1  0
 29 51  1  0
 29 52  1  0
 30 53  1  0
 30 54  1  0
 31 55  1  0
M  END
>  <smiles>  (23) 
NS(=O)(=O)c1cccc(/C=C/c2nc3cc(Cl)ccc3c(=O)n2CC2CCCCC2)c1

>  <score_type>  (23) 
oracle

>  <origin>  (23) 
autodockgpu

>  <m_score__min__energy>  (23) 
-8.9600000000000009

>  <m_primary>  (23) 
energy

>  <rmsd>  (23) 
6.36521203509018

>  <m_score__min__rmsd>  (23) 
6.36521203509018

>  <meeko>  (23) 
{"free_energy": -8.53, "intermolecular_energy": -10.62, "internal_energy": -1.49, "cluster_size": 7, "cluster_id": 1, "rank_in_cluster": 5}

>  <energy>  (23) 
-8.22

>  <cluster_rmsd>  (23) 
0.0

>  <cluster>  (23) 
7

$$$$

     RDKit          3D

 55 58  0  0  0  0  0  0  0  0999 V2000
  135.8290   74.8040  224.5800 N   0  0  0  0  0  0  0  0  0  0  0  0
  134.3340   74.3540  225.3410 S   0  0  0  0  0  0  0  0  0  0  0  0
  133.2460   74.6080  224.3550 O   0  0  0  0  0  0  0  0  0  0  0  0
  134.1030   75.1680  226.5840 O   0  0  0  0  0  0  0  0  0  0  0  0
  134.3260   72.6560  225.7710 C   0  0  0  0  0  0  0  0  0  0  0  0
  133.6860   72.2660  226.9290 C   0  0  0  0  0  0  0  0  0  0  0  0
  133.6920   70.9340  227.2460 C   0  0  0  0  0  0  0  0  0  0  0  0
  134.3150   70.0060  226.4390 C   0  0  0  0  0  0  0  0  0  0  0  0
  134.9720   70.3700  225.2600 C   0  0  0  0  0  0  0  0  0  0  0  0
  135.6200   69.3610  224.4340 C   0  0  0  0  0  0  0  0  0  0  0  0
  136.9130   69.2350  224.2850 C   0  0  0  0  0  0  0  0  0  0  0  0
  137.7170   70.3440  223.7300 C   0  0  0  0  0  0  0  0  0  0  0  0
  137.0530   71.2980  223.0590 N   0  0  0  0  0  0  0  0  0  0  0  0
  137.7030   72.3330  222.5040 C   0  0  0  0  0  0  0  0  0  0  0  0
  137.0670   73.3390  221.8050 C   0  0  0  0  0  0  0  0  0  0  0  0
  137.7640   74.3870  221.2490 C   0  0  0  0  0  0  0  0  0  0  0  0
  136.8520   75.6170  220.3770 Cl  0  0  0  0  0  0  0  0  0  0  0  0
  139.1390   74.4540  221.3810 C   0  0  0  0  0  0  0  0  0  0  0  0
  139.7560   73.4440  222.0810 C   0  0  0  0  0  0  0  0  0  0  0  0
  139.0750   72.3890  222.6440 C   0  0  0  0  0  0  0  0  0  0  0  0
  139.7230   71.3930  223.3380 C   0  0  0  0  0  0  0  0  0  0  0  0
  140.9860   71.4670  223.4520 O   0  0  0  0  0  0  0  0  0  0  0  0
  139.0530   70.3420  223.9000 N   0  0  0  0  0  0  0  0  0  0  0  0
  139.7960   69.3650  224.5790 C   0  0  0  0  0  0  0  0  0  0  0  0
  139.8590   69.3160  226.0400 C   0  0  0  0  0  0  0  0  0  0  0  0
  140.8110   68.2910  226.5950 C   0  0  0  0  0  0  0  0  0  0  0  0
  140.6580   68.2280  228.0810 C   0  0  0  0  0  0  0  0  0  0  0  0
  139.9170   69.4190  228.5760 C   0  0  0  0  0  0  0  0  0  0  0  0
  140.3500   70.7300  227.9710 C   0  0  0  0  0  0  0  0  0  0  0  0
  140.4630   70.6710  226.4820 C   0  0  0  0  0  0  0  0  0  0  0  0
  134.9550   71.7110  224.9590 C   0  0  0  0  0  0  0  0  0  0  0  0
  136.3220   73.9270  224.3060 H   0  0  0  0  0  0  0  0  0  0  0  0
  136.3520   75.3830  225.2610 H   0  0  0  0  0  0  0  0  0  0  0  0
  133.1868   73.0015  227.5770 H   0  0  0  0  0  0  0  0  0  0  0  0
  133.1889   70.5971  228.1644 H   0  0  0  0  0  0  0  0  0  0  0  0
  134.2945   68.9459  226.7320 H   0  0  0  0  0  0  0  0  0  0  0  0
  134.9739   68.6522  223.8954 H   0  0  0  0  0  0  0  0  0  0  0  0
  137.4064   68.2957  224.5752 H   0  0  0  0  0  0  0  0  0  0  0  0
  135.9737   73.3019  221.6893 H   0  0  0  0  0  0  0  0  0  0  0  0
  139.7160   75.2821  220.9435 H   0  0  0  0  0  0  0  0  0  0  0  0
  140.8493   73.4812  222.1968 H   0  0  0  0  0  0  0  0  0  0  0  0
  139.3955   68.3930  224.2552 H   0  0  0  0  0  0  0  0  0  0  0  0
  140.8289   69.6328  224.3118 H   0  0  0  0  0  0  0  0  0  0  0  0
  138.8453   69.0803  226.3961 H   0  0  0  0  0  0  0  0  0  0  0  0
  140.5850   67.3062  226.1603 H   0  0  0  0  0  0  0  0  0  0  0  0
  141.8439   68.5726  226.3425 H   0  0  0  0  0  0  0  0  0  0  0  0
  140.1023   67.3176  228.3500 H   0  0  0  0  0  0  0  0  0  0  0  0
  141.6564   68.2112  228.5425 H   0  0  0  0  0  0  0  0  0  0  0  0
  138.8496   69.2751  228.3525 H   0  0  0  0  0  0  0  0  0  0  0  0
  140.1295   69.4900  229.6529 H   0  0  0  0  0  0  0  0  0  0  0  0
  139.6118   71.5009  228.2372 H   0  0  0  0  0  0  0  0  0  0  0  0
  141.3477   70.9656  228.3699 H   0  0  0  0  0  0  0  0  0  0  0  0
  139.9034   71.5014  226.0267 H   0  0  0  0  0  0  0  0  0  0  0  0
  141.5119   70.7581  226.1624 H   0  0  0  0  0  0  0  0  0  0  0  0
  135.4570   72.0529  224.0419 H   0  0  0  0  0  0  0  0  0  0  0  0
  1  2  1  0
  2  3  2  0
  2  4  2  0
  2  5  1  0
  5  6  2  0
  6  7  1  0
  7  8  2  0
  8  9  1  0
  9 10  1  0
 10 11  2  0
 11 12  1  0
 12 13  2  0
 13 14  1  0
 14 15  2  0
 15 16  1  0
 16 17  1  0
 16 18  2  0
 18 19  1  0
 19 20  2  0
 20 21  1  0
 21 22  2  0
 21 23  1  0
 23 24  1  0
 24 25  1  0
 25 26  1  0
 26 27  1  0
 27 28  1  0
 28 29  1  0
 29 30  1  0
  9 31  2  0
 31  5  1  0
 23 12  1  0
 30 25  1  0
 20 14  1  0
  1 32  1  0
  1 33  1  0
  6 34  1  0
  7 35  1  0
  8 36  1  0
 10 37  1  0
 11 38  1  0
 15 39  1  0
 18 40  1  0
 19 41  1  0
 24 42  1  0
 24 43  1  0
 25 44  1  0
 26 45  1  0
 26 46  1  0
 27 47  1  0
 27 48  1  0
 28 49  1  0
 28 50  1  0
 29 51  1  0
 29 52  1  0
 30 53  1  0
 30 54  1  0
 31 55  1  0
M  END
>  <smiles>  (24) 
NS(=O)(=O)c1cccc(/C=C/c2nc3cc(Cl)ccc3c(=O)n2CC2CCCCC2)c1

>  <score_type>  (24) 
oracle

>  <origin>  (24) 
autodockgpu

>  <m_score__min__energy>  (24) 
-8.9600000000000009

>  <m_primary>  (24) 
energy

>  <rmsd>  (24) 
10.25962737864606

>  <m_score__min__rmsd>  (24) 
10.25962737864606

>  <meeko>  (24) 
{"free_energy": -7.96, "intermolecular_energy": -10.04, "internal_energy": -1.95, "cluster_size": 3, "cluster_id": 9, "rank_in_cluster": 2}

>  <energy>  (24) 
-7.96

>  <cluster_rmsd>  (24) 
1.04

>  <cluster>  (24) 
7

$$$$

     RDKit          3D

 55 58  0  0  0  0  0  0  0  0999 V2000
  145.9920   73.3930  218.5410 N   0  0  0  0  0  0  0  0  0  0  0  0
  145.3710   72.5840  219.9460 S   0  0  0  0  0  0  0  0  0  0  0  0
  146.3280   72.8390  221.0590 O   0  0  0  0  0  0  0  0  0  0  0  0
  145.2490   71.1060  219.7010 O   0  0  0  0  0  0  0  0  0  0  0  0
  143.7980   73.2110  220.3970 C   0  0  0  0  0  0  0  0  0  0  0  0
  143.4860   74.5170  220.0830 C   0  0  0  0  0  0  0  0  0  0  0  0
  142.2520   74.9860  220.4440 C   0  0  0  0  0  0  0  0  0  0  0  0
  141.3430   74.1830  221.1000 C   0  0  0  0  0  0  0  0  0  0  0  0
  141.6290   72.8560  221.4320 C   0  0  0  0  0  0  0  0  0  0  0  0
  140.6420   72.0400  222.1270 C   0  0  0  0  0  0  0  0  0  0  0  0
  139.4760   71.7030  221.6410 C   0  0  0  0  0  0  0  0  0  0  0  0
  138.2550   71.8280  222.4630 C   0  0  0  0  0  0  0  0  0  0  0  0
  137.5540   72.9660  222.3400 N   0  0  0  0  0  0  0  0  0  0  0  0
  136.4420   73.1750  223.0620 C   0  0  0  0  0  0  0  0  0  0  0  0
  135.6860   74.3270  222.9720 C   0  0  0  0  0  0  0  0  0  0  0  0
  134.5510   74.5090  223.7270 C   0  0  0  0  0  0  0  0  0  0  0  0
  133.6610   76.0180  223.5330 Cl  0  0  0  0  0  0  0  0  0  0  0  0
  134.1360   73.5250  224.6050 C   0  0  0  0  0  0  0  0  0  0  0  0
  134.9000   72.3850  224.6820 C   0  0  0  0  0  0  0  0  0  0  0  0
  136.0380   72.1860  223.9350 C   0  0  0  0  0  0  0  0  0  0  0  0
  136.7810   71.0310  224.0360 C   0  0  0  0  0  0  0  0  0  0  0  0
  136.3890   70.1360  224.8470 O   0  0  0  0  0  0  0  0  0  0  0  0
  137.9120   70.8270  223.2960 N   0  0  0  0  0  0  0  0  0  0  0  0
  138.6150   69.6250  223.4730 C   0  0  0  0  0  0  0  0  0  0  0  0
  139.5840   69.4470  224.5550 C   0  0  0  0  0  0  0  0  0  0  0  0
  139.8940   70.6950  225.3350 C   0  0  0  0  0  0  0  0  0  0  0  0
  141.0100   70.4180  226.2900 C   0  0  0  0  0  0  0  0  0  0  0  0
  141.2080   68.9510  226.4430 C   0  0  0  0  0  0  0  0  0  0  0  0
  139.9370   68.1540  226.5980 C   0  0  0  0  0  0  0  0  0  0  0  0
  138.9000   68.5170  225.5850 C   0  0  0  0  0  0  0  0  0  0  0  0
  142.8720   72.4040  221.0620 C   0  0  0  0  0  0  0  0  0  0  0  0
  146.8820   73.8630  218.8120 H   0  0  0  0  0  0  0  0  0  0  0  0
  145.2560   74.0460  218.2180 H   0  0  0  0  0  0  0  0  0  0  0  0
  144.2066   75.1618  219.5586 H   0  0  0  0  0  0  0  0  0  0  0  0
  141.9797   76.0248  220.2060 H   0  0  0  0  0  0  0  0  0  0  0  0
  140.3618   74.6001  221.3705 H   0  0  0  0  0  0  0  0  0  0  0  0
  140.8967   71.6810  223.1351 H   0  0  0  0  0  0  0  0  0  0  0  0
  139.4036   71.3231  220.6112 H   0  0  0  0  0  0  0  0  0  0  0  0
  136.0000   75.1204  222.2778 H   0  0  0  0  0  0  0  0  0  0  0  0
  133.2307   73.6494  225.2174 H   0  0  0  0  0  0  0  0  0  0  0  0
  134.5856   71.5916  225.3761 H   0  0  0  0  0  0  0  0  0  0  0  0
  137.8555   68.8407  223.6073 H   0  0  0  0  0  0  0  0  0  0  0  0
  139.2572   69.5987  222.5803 H   0  0  0  0  0  0  0  0  0  0  0  0
  140.5145   69.0841  224.0940 H   0  0  0  0  0  0  0  0  0  0  0  0
  140.1933   71.4958  224.6428 H   0  0  0  0  0  0  0  0  0  0  0  0
  139.0009   71.0105  225.8944 H   0  0  0  0  0  0  0  0  0  0  0  0
  141.9362   70.8710  225.9067 H   0  0  0  0  0  0  0  0  0  0  0  0
  140.7569   70.8486  227.2701 H   0  0  0  0  0  0  0  0  0  0  0  0
  141.7366   68.5822  225.5516 H   0  0  0  0  0  0  0  0  0  0  0  0
  141.7769   68.8108  227.3739 H   0  0  0  0  0  0  0  0  0  0  0  0
  140.1762   67.0859  226.4892 H   0  0  0  0  0  0  0  0  0  0  0  0
  139.5231   68.3796  227.5919 H   0  0  0  0  0  0  0  0  0  0  0  0
  138.5250   67.6111  225.0862 H   0  0  0  0  0  0  0  0  0  0  0  0
  138.0438   69.0181  226.0602 H   0  0  0  0  0  0  0  0  0  0  0  0
  143.1491   71.3661  221.2985 H   0  0  0  0  0  0  0  0  0  0  0  0
  1  2  1  0
  2  3  2  0
  2  4  2  0
  2  5  1  0
  5  6  2  0
  6  7  1  0
  7  8  2  0
  8  9  1  0
  9 10  1  0
 10 11  2  0
 11 12  1  0
 12 13  2  0
 13 14  1  0
 14 15  2  0
 15 16  1  0
 16 17  1  0
 16 18  2  0
 18 19  1  0
 19 20  2  0
 20 21  1  0
 21 22  2  0
 21 23  1  0
 23 24  1  0
 24 25  1  0
 25 26  1  0
 26 27  1  0
 27 28  1  0
 28 29  1  0
 29 30  1  0
  9 31  2  0
 31  5  1  0
 23 12  1  0
 30 25  1  0
 20 14  1  0
  1 32  1  0
  1 33  1  0
  6 34  1  0
  7 35  1  0
  8 36  1  0
 10 37  1  0
 11 38  1  0
 15 39  1  0
 18 40  1  0
 19 41  1  0
 24 42  1  0
 24 43  1  0
 25 44  1  0
 26 45  1  0
 26 46  1  0
 27 47  1  0
 27 48  1  0
 28 49  1  0
 28 50  1  0
 29 51  1  0
 29 52  1  0
 30 53  1  0
 30 54  1  0
 31 55  1  0
M  END
>  <smiles>  (25) 
NS(=O)(=O)c1cccc(/C=C/c2nc3cc(Cl)ccc3c(=O)n2CC2CCCCC2)c1

>  <score_type>  (25) 
oracle

>  <origin>  (25) 
autodockgpu

>  <m_score__min__energy>  (25) 
-8.9600000000000009

>  <m_primary>  (25) 
energy

>  <rmsd>  (25) 
10.00428741289909

>  <m_score__min__rmsd>  (25) 
10.00428741289909

>  <meeko>  (25) 
{"free_energy": -7.99, "intermolecular_energy": -10.08, "internal_energy": -1.5, "cluster_size": 6, "cluster_id": 3, "rank_in_cluster": 6}

>  <energy>  (25) 
-8.21

>  <cluster_rmsd>  (25) 
0.0

>  <cluster>  (25) 
8

$$$$

     RDKit          3D

 55 58  0  0  0  0  0  0  0  0999 V2000
  143.2320   77.1170  219.8010 N   0  0  0  0  0  0  0  0  0  0  0  0
  141.9940   78.3190  219.6120 S   0  0  0  0  0  0  0  0  0  0  0  0
  140.9030   77.7050  218.8040 O   0  0  0  0  0  0  0  0  0  0  0  0
  142.5330   79.5340  218.9090 O   0  0  0  0  0  0  0  0  0  0  0  0
  141.3420   78.8100  221.1630 C   0  0  0  0  0  0  0  0  0  0  0  0
  142.1650   79.4690  222.0520 C   0  0  0  0  0  0  0  0  0  0  0  0
  141.6360   79.8430  223.2580 C   0  0  0  0  0  0  0  0  0  0  0  0
  140.3220   79.5740  223.5800 C   0  0  0  0  0  0  0  0  0  0  0  0
  139.4640   78.9080  222.7010 C   0  0  0  0  0  0  0  0  0  0  0  0
  138.0830   78.6410  223.0780 C   0  0  0  0  0  0  0  0  0  0  0  0
  137.0810   79.4550  222.8690 C   0  0  0  0  0  0  0  0  0  0  0  0
  136.8990   80.6540  223.7130 C   0  0  0  0  0  0  0  0  0  0  0  0
  136.5350   80.4490  224.9890 N   0  0  0  0  0  0  0  0  0  0  0  0
  136.3290   81.4790  225.8240 C   0  0  0  0  0  0  0  0  0  0  0  0
  135.9550   81.3210  227.1430 C   0  0  0  0  0  0  0  0  0  0  0  0
  135.7510   82.4000  227.9720 C   0  0  0  0  0  0  0  0  0  0  0  0
  135.2760   82.0840  229.6400 Cl  0  0  0  0  0  0  0  0  0  0  0  0
  135.9210   83.6860  227.4930 C   0  0  0  0  0  0  0  0  0  0  0  0
  136.2940   83.8250  226.1770 C   0  0  0  0  0  0  0  0  0  0  0  0
  136.5020   82.7570  225.3330 C   0  0  0  0  0  0  0  0  0  0  0  0
  136.8750   82.9310  224.0200 C   0  0  0  0  0  0  0  0  0  0  0  0
  137.0270   84.1170  223.5920 O   0  0  0  0  0  0  0  0  0  0  0  0
  137.0830   81.8750  223.1770 N   0  0  0  0  0  0  0  0  0  0  0  0
  137.4480   82.1460  221.8490 C   0  0  0  0  0  0  0  0  0  0  0  0
  138.8480   82.1910  221.4250 C   0  0  0  0  0  0  0  0  0  0  0  0
  139.0870   81.7760  219.9990 C   0  0  0  0  0  0  0  0  0  0  0  0
  140.5580   81.7060  219.7440 C   0  0  0  0  0  0  0  0  0  0  0  0
  141.3040   82.4090  220.8220 C   0  0  0  0  0  0  0  0  0  0  0  0
  140.7260   83.7410  221.2270 C   0  0  0  0  0  0  0  0  0  0  0  0
  139.2500   83.6850  221.4570 C   0  0  0  0  0  0  0  0  0  0  0  0
  140.0130   78.5400  221.4960 C   0  0  0  0  0  0  0  0  0  0  0  0
  143.4090   77.0010  220.8220 H   0  0  0  0  0  0  0  0  0  0  0  0
  144.0570   77.4460  219.2680 H   0  0  0  0  0  0  0  0  0  0  0  0
  143.2133   79.6872  221.8000 H   0  0  0  0  0  0  0  0  0  0  0  0
  142.2720   80.3689  223.9853 H   0  0  0  0  0  0  0  0  0  0  0  0
  139.9375   79.8939  224.5597 H   0  0  0  0  0  0  0  0  0  0  0  0
  137.8666   77.6840  223.5753 H   0  0  0  0  0  0  0  0  0  0  0  0
  136.3678   79.2453  222.0582 H   0  0  0  0  0  0  0  0  0  0  0  0
  135.8163   80.3054  227.5422 H   0  0  0  0  0  0  0  0  0  0  0  0
  135.7641   84.5625  228.1388 H   0  0  0  0  0  0  0  0  0  0  0  0
  136.4333   84.8406  225.7782 H   0  0  0  0  0  0  0  0  0  0  0  0
  136.9639   81.3742  221.2326 H   0  0  0  0  0  0  0  0  0  0  0  0
  137.1367   83.1946  221.7324 H   0  0  0  0  0  0  0  0  0  0  0  0
  139.4047   81.5092  222.0848 H   0  0  0  0  0  0  0  0  0  0  0  0
  138.6364   80.7880  219.8235 H   0  0  0  0  0  0  0  0  0  0  0  0
  138.6303   82.5112  219.3201 H   0  0  0  0  0  0  0  0  0  0  0  0
  140.8712   80.6519  219.7142 H   0  0  0  0  0  0  0  0  0  0  0  0
  140.7774   82.1922  218.7820 H   0  0  0  0  0  0  0  0  0  0  0  0
  141.3177   81.7583  221.7088 H   0  0  0  0  0  0  0  0  0  0  0  0
  142.3065   82.6164  220.4196 H   0  0  0  0  0  0  0  0  0  0  0  0
  141.2146   84.0683  222.1566 H   0  0  0  0  0  0  0  0  0  0  0  0
  140.9066   84.4456  220.4018 H   0  0  0  0  0  0  0  0  0  0  0  0
  139.0025   84.1227  222.4353 H   0  0  0  0  0  0  0  0  0  0  0  0
  138.7091   84.2555  220.6876 H   0  0  0  0  0  0  0  0  0  0  0  0
  139.3814   78.0126  220.7660 H   0  0  0  0  0  0  0  0  0  0  0  0
  1  2  1  0
  2  3  2  0
  2  4  2  0
  2  5  1  0
  5  6  2  0
  6  7  1  0
  7  8  2  0
  8  9  1  0
  9 10  1  0
 10 11  2  0
 11 12  1  0
 12 13  2  0
 13 14  1  0
 14 15  2  0
 15 16  1  0
 16 17  1  0
 16 18  2  0
 18 19  1  0
 19 20  2  0
 20 21  1  0
 21 22  2  0
 21 23  1  0
 23 24  1  0
 24 25  1  0
 25 26  1  0
 26 27  1  0
 27 28  1  0
 28 29  1  0
 29 30  1  0
  9 31  2  0
 31  5  1  0
 23 12  1  0
 30 25  1  0
 20 14  1  0
  1 32  1  0
  1 33  1  0
  6 34  1  0
  7 35  1  0
  8 36  1  0
 10 37  1  0
 11 38  1  0
 15 39  1  0
 18 40  1  0
 19 41  1  0
 24 42  1  0
 24 43  1  0
 25 44  1  0
 26 45  1  0
 26 46  1  0
 27 47  1  0
 27 48  1  0
 28 49  1  0
 28 50  1  0
 29 51  1  0
 29 52  1  0
 30 53  1  0
 30 54  1  0
 31 55  1  0
M  END
>  <smiles>  (26) 
NS(=O)(=O)c1cccc(/C=C/c2nc3cc(Cl)ccc3c(=O)n2CC2CCCCC2)c1

>  <score_type>  (26) 
oracle

>  <origin>  (26) 
autodockgpu

>  <m_score__min__energy>  (26) 
-8.9600000000000009

>  <m_primary>  (26) 
energy

>  <rmsd>  (26) 
6.906847912803336

>  <m_score__min__rmsd>  (26) 
6.906847912803336

>  <meeko>  (26) 
{"free_energy": -6.71, "intermolecular_energy": -8.79, "internal_energy": -2.6, "cluster_size": 1, "cluster_id": 19, "rank_in_cluster": 1}

>  <energy>  (26) 
-8.03

>  <cluster_rmsd>  (26) 
0.0

>  <cluster>  (26) 
9

$$$$

     RDKit          3D

 55 58  0  0  0  0  0  0  0  0999 V2000
  132.3450   74.0210  227.9730 N   0  0  0  0  0  0  0  0  0  0  0  0
  133.1590   73.8410  226.4510 S   0  0  0  0  0  0  0  0  0  0  0  0
  134.3120   74.7850  226.4540 O   0  0  0  0  0  0  0  0  0  0  0  0
  132.2350   74.1620  225.3100 O   0  0  0  0  0  0  0  0  0  0  0  0
  133.7630   72.2100  226.2430 C   0  0  0  0  0  0  0  0  0  0  0  0
  133.8560   71.3880  227.3470 C   0  0  0  0  0  0  0  0  0  0  0  0
  134.3310   70.1170  227.1620 C   0  0  0  0  0  0  0  0  0  0  0  0
  134.7060   69.6660  225.9140 C   0  0  0  0  0  0  0  0  0  0  0  0
  134.6240   70.4740  224.7770 C   0  0  0  0  0  0  0  0  0  0  0  0
  135.0300   69.9610  223.4750 C   0  0  0  0  0  0  0  0  0  0  0  0
  136.0140   70.4390  222.7580 C   0  0  0  0  0  0  0  0  0  0  0  0
  137.3510   70.6360  223.3550 C   0  0  0  0  0  0  0  0  0  0  0  0
  137.6970   69.8130  224.3560 N   0  0  0  0  0  0  0  0  0  0  0  0
  138.8850   69.9310  224.9700 C   0  0  0  0  0  0  0  0  0  0  0  0
  139.2880   69.1100  226.0040 C   0  0  0  0  0  0  0  0  0  0  0  0
  140.5130   69.2580  226.6110 C   0  0  0  0  0  0  0  0  0  0  0  0
  140.9260   68.1540  227.9220 Cl  0  0  0  0  0  0  0  0  0  0  0  0
  141.3810   70.2490  226.1910 C   0  0  0  0  0  0  0  0  0  0  0  0
  140.9640   71.0580  225.1600 C   0  0  0  0  0  0  0  0  0  0  0  0
  139.7420   70.9240  224.5410 C   0  0  0  0  0  0  0  0  0  0  0  0
  139.3550   71.7510  223.5110 C   0  0  0  0  0  0  0  0  0  0  0  0
  140.1610   72.6570  223.1350 O   0  0  0  0  0  0  0  0  0  0  0  0
  138.1430   71.6230  222.8920 N   0  0  0  0  0  0  0  0  0  0  0  0
  137.8250   72.5190  221.8590 C   0  0  0  0  0  0  0  0  0  0  0  0
  137.3540   73.8770  222.1300 C   0  0  0  0  0  0  0  0  0  0  0  0
  136.7800   74.5930  220.9380 C   0  0  0  0  0  0  0  0  0  0  0  0
  136.4920   76.0130  221.3050 C   0  0  0  0  0  0  0  0  0  0  0  0
  136.5030   76.1780  222.7840 C   0  0  0  0  0  0  0  0  0  0  0  0
  135.7800   75.0970  223.5460 C   0  0  0  0  0  0  0  0  0  0  0  0
  136.1520   73.7220  223.0930 C   0  0  0  0  0  0  0  0  0  0  0  0
  134.1450   71.7450  224.9830 C   0  0  0  0  0  0  0  0  0  0  0  0
  133.0030   74.4890  228.6320 H   0  0  0  0  0  0  0  0  0  0  0  0
  132.0540   73.0740  228.2750 H   0  0  0  0  0  0  0  0  0  0  0  0
  133.5579   71.7425  228.3448 H   0  0  0  0  0  0  0  0  0  0  0  0
  134.4151   69.4421  228.0265 H   0  0  0  0  0  0  0  0  0  0  0  0
  135.0817   68.6374  225.8103 H   0  0  0  0  0  0  0  0  0  0  0  0
  134.4677   69.1091  223.0650 H   0  0  0  0  0  0  0  0  0  0  0  0
  135.8447   70.6964  221.7020 H   0  0  0  0  0  0  0  0  0  0  0  0
  138.6109   68.3159  226.3518 H   0  0  0  0  0  0  0  0  0  0  0  0
  142.3655   70.3848  226.6626 H   0  0  0  0  0  0  0  0  0  0  0  0
  141.6412   71.8522  224.8126 H   0  0  0  0  0  0  0  0  0  0  0  0
  138.7357   72.6243  221.2511 H   0  0  0  0  0  0  0  0  0  0  0  0
  136.9359   72.0505  221.4117 H   0  0  0  0  0  0  0  0  0  0  0  0
  138.2189   74.4486  222.4978 H   0  0  0  0  0  0  0  0  0  0  0  0
  137.5041   74.5672  220.1103 H   0  0  0  0  0  0  0  0  0  0  0  0
  135.8492   74.0979  220.6243 H   0  0  0  0  0  0  0  0  0  0  0  0
  137.2592   76.6649  220.8617 H   0  0  0  0  0  0  0  0  0  0  0  0
  135.4975   76.2862  220.9224 H   0  0  0  0  0  0  0  0  0  0  0  0
  137.5506   76.1907  223.1191 H   0  0  0  0  0  0  0  0  0  0  0  0
  135.9685   77.1160  222.9949 H   0  0  0  0  0  0  0  0  0  0  0  0
  136.0268   75.1942  224.6135 H   0  0  0  0  0  0  0  0  0  0  0  0
  134.7030   75.2262  223.3631 H   0  0  0  0  0  0  0  0  0  0  0  0
  136.4363   73.1029  223.9567 H   0  0  0  0  0  0  0  0  0  0  0  0
  135.3058   73.2298  222.5913 H   0  0  0  0  0  0  0  0  0  0  0  0
  134.0590   72.4232  224.1212 H   0  0  0  0  0  0  0  0  0  0  0  0
  1  2  1  0
  2  3  2  0
  2  4  2  0
  2  5  1  0
  5  6  2  0
  6  7  1  0
  7  8  2  0
  8  9  1  0
  9 10  1  0
 10 11  2  0
 11 12  1  0
 12 13  2  0
 13 14  1  0
 14 15  2  0
 15 16  1  0
 16 17  1  0
 16 18  2  0
 18 19  1  0
 19 20  2  0
 20 21  1  0
 21 22  2  0
 21 23  1  0
 23 24  1  0
 24 25  1  0
 25 26  1  0
 26 27  1  0
 27 28  1  0
 28 29  1  0
 29 30  1  0
  9 31  2  0
 31  5  1  0
 23 12  1  0
 30 25  1  0
 20 14  1  0
  1 32  1  0
  1 33  1  0
  6 34  1  0
  7 35  1  0
  8 36  1  0
 10 37  1  0
 11 38  1  0
 15 39  1  0
 18 40  1  0
 19 41  1  0
 24 42  1  0
 24 43  1  0
 25 44  1  0
 26 45  1  0
 26 46  1  0
 27 47  1  0
 27 48  1  0
 28 49  1  0
 28 50  1  0
 29 51  1  0
 29 52  1  0
 30 53  1  0
 30 54  1  0
 31 55  1  0
M  END
>  <smiles>  (27) 
NS(=O)(=O)c1cccc(/C=C/c2nc3cc(Cl)ccc3c(=O)n2CC2CCCCC2)c1

>  <score_type>  (27) 
oracle

>  <origin>  (27) 
autodockgpu

>  <m_score__min__energy>  (27) 
-8.9600000000000009

>  <m_primary>  (27) 
energy

>  <rmsd>  (27) 
9.399227191081913

>  <m_score__min__rmsd>  (27) 
9.399227191081913

>  <meeko>  (27) 
{"free_energy": -7.98, "intermolecular_energy": -10.07, "internal_energy": -2.18, "cluster_size": 6, "cluster_id": 10, "rank_in_cluster": 1}

>  <energy>  (27) 
-7.96

>  <cluster_rmsd>  (27) 
1.71

>  <cluster>  (27) 
9

$$$$

     RDKit          3D

 55 58  0  0  0  0  0  0  0  0999 V2000
  135.9560   81.3910  230.5880 N   0  0  0  0  0  0  0  0  0  0  0  0
  134.7460   81.9790  229.4920 S   0  0  0  0  0  0  0  0  0  0  0  0
  134.1010   83.1570  230.1390 O   0  0  0  0  0  0  0  0  0  0  0  0
  133.7170   80.9180  229.2130 O   0  0  0  0  0  0  0  0  0  0  0  0
  135.4560   82.4860  227.9730 C   0  0  0  0  0  0  0  0  0  0  0  0
  135.4280   83.8230  227.6370 C   0  0  0  0  0  0  0  0  0  0  0  0
  135.9880   84.1960  226.4450 C   0  0  0  0  0  0  0  0  0  0  0  0
  136.5660   83.2710  225.6020 C   0  0  0  0  0  0  0  0  0  0  0  0
  136.6100   81.9090  225.9130 C   0  0  0  0  0  0  0  0  0  0  0  0
  137.2280   80.9620  224.9960 C   0  0  0  0  0  0  0  0  0  0  0  0
  136.7890   80.6900  223.7940 C   0  0  0  0  0  0  0  0  0  0  0  0
  136.9760   79.3450  223.2120 C   0  0  0  0  0  0  0  0  0  0  0  0
  136.1130   78.3910  223.5970 N   0  0  0  0  0  0  0  0  0  0  0  0
  136.2190   77.1360  223.1340 C   0  0  0  0  0  0  0  0  0  0  0  0
  135.3580   76.1200  223.4980 C   0  0  0  0  0  0  0  0  0  0  0  0
  135.4940   74.8430  223.0050 C   0  0  0  0  0  0  0  0  0  0  0  0
  134.3390   73.6230  223.5360 Cl  0  0  0  0  0  0  0  0  0  0  0  0
  136.5140   74.5460  222.1190 C   0  0  0  0  0  0  0  0  0  0  0  0
  137.3620   75.5700  221.7670 C   0  0  0  0  0  0  0  0  0  0  0  0
  137.2400   76.8530  222.2510 C   0  0  0  0  0  0  0  0  0  0  0  0
  138.1070   77.8550  221.8780 C   0  0  0  0  0  0  0  0  0  0  0  0
  139.0390   77.5690  221.0640 O   0  0  0  0  0  0  0  0  0  0  0  0
  137.9920   79.1310  222.3540 N   0  0  0  0  0  0  0  0  0  0  0  0
  138.9280   80.0860  221.9310 C   0  0  0  0  0  0  0  0  0  0  0  0
  140.3270   80.0410  222.3560 C   0  0  0  0  0  0  0  0  0  0  0  0
  140.8430   81.3180  222.9620 C   0  0  0  0  0  0  0  0  0  0  0  0
  142.3130   81.1960  223.1980 C   0  0  0  0  0  0  0  0  0  0  0  0
  142.7330   79.7710  223.1200 C   0  0  0  0  0  0  0  0  0  0  0  0
  141.8260   78.8040  223.8370 C   0  0  0  0  0  0  0  0  0  0  0  0
  140.3820   79.0220  223.5190 C   0  0  0  0  0  0  0  0  0  0  0  0
  136.0420   81.5540  227.1130 C   0  0  0  0  0  0  0  0  0  0  0  0
  136.8850   81.7090  230.2360 H   0  0  0  0  0  0  0  0  0  0  0  0
  135.8540   80.3610  230.6270 H   0  0  0  0  0  0  0  0  0  0  0  0
  134.9700   84.5665  228.3059 H   0  0  0  0  0  0  0  0  0  0  0  0
  135.9766   85.2566  226.1535 H   0  0  0  0  0  0  0  0  0  0  0  0
  137.0064   83.6156  224.6548 H   0  0  0  0  0  0  0  0  0  0  0  0
  138.1311   80.4361  225.3393 H   0  0  0  0  0  0  0  0  0  0  0  0
  136.2761   81.4696  223.2116 H   0  0  0  0  0  0  0  0  0  0  0  0
  134.5409   76.3376  224.2015 H   0  0  0  0  0  0  0  0  0  0  0  0
  136.6417   73.5319  221.7125 H   0  0  0  0  0  0  0  0  0  0  0  0
  138.1790   75.3529  221.0632 H   0  0  0  0  0  0  0  0  0  0  0  0
  138.9384   80.0413  220.8320 H   0  0  0  0  0  0  0  0  0  0  0  0
  138.5656   80.9995  222.4252 H   0  0  0  0  0  0  0  0  0  0  0  0
  140.9253   79.8124  221.4617 H   0  0  0  0  0  0  0  0  0  0  0  0
  140.6497   82.1548  222.2747 H   0  0  0  0  0  0  0  0  0  0  0  0
  140.3314   81.5044  223.9178 H   0  0  0  0  0  0  0  0  0  0  0  0
  142.8523   81.7754  222.4341 H   0  0  0  0  0  0  0  0  0  0  0  0
  142.5473   81.5832  224.2006 H   0  0  0  0  0  0  0  0  0  0  0  0
  142.7700   79.4829  222.0591 H   0  0  0  0  0  0  0  0  0  0  0  0
  143.7101   79.7085  223.6213 H   0  0  0  0  0  0  0  0  0  0  0  0
  142.1003   77.7802  223.5426 H   0  0  0  0  0  0  0  0  0  0  0  0
  141.9560   78.9659  224.9172 H   0  0  0  0  0  0  0  0  0  0  0  0
  139.9145   78.0742  223.2139 H   0  0  0  0  0  0  0  0  0  0  0  0
  139.8376   79.3977  224.3979 H   0  0  0  0  0  0  0  0  0  0  0  0
  136.0491   80.4943  227.4080 H   0  0  0  0  0  0  0  0  0  0  0  0
  1  2  1  0
  2  3  2  0
  2  4  2  0
  2  5  1  0
  5  6  2  0
  6  7  1  0
  7  8  2  0
  8  9  1  0
  9 10  1  0
 10 11  2  0
 11 12  1  0
 12 13  2  0
 13 14  1  0
 14 15  2  0
 15 16  1  0
 16 17  1  0
 16 18  2  0
 18 19  1  0
 19 20  2  0
 20 21  1  0
 21 22  2  0
 21 23  1  0
 23 24  1  0
 24 25  1  0
 25 26  1  0
 26 27  1  0
 27 28  1  0
 28 29  1  0
 29 30  1  0
  9 31  2  0
 31  5  1  0
 23 12  1  0
 30 25  1  0
 20 14  1  0
  1 32  1  0
  1 33  1  0
  6 34  1  0
  7 35  1  0
  8 36  1  0
 10 37  1  0
 11 38  1  0
 15 39  1  0
 18 40  1  0
 19 41  1  0
 24 42  1  0
 24 43  1  0
 25 44  1  0
 26 45  1  0
 26 46  1  0
 27 47  1  0
 27 48  1  0
 28 49  1  0
 28 50  1  0
 29 51  1  0
 29 52  1  0
 30 53  1  0
 30 54  1  0
 31 55  1  0
M  END
>  <smiles>  (28) 
NS(=O)(=O)c1cccc(/C=C/c2nc3cc(Cl)ccc3c(=O)n2CC2CCCCC2)c1

>  <score_type>  (28) 
oracle

>  <origin>  (28) 
autodockgpu

>  <m_score__min__energy>  (28) 
-8.9600000000000009

>  <m_primary>  (28) 
energy

>  <rmsd>  (28) 
6.843698223947204

>  <m_score__min__rmsd>  (28) 
6.843698223947204

>  <meeko>  (28) 
{"free_energy": -7.92, "intermolecular_energy": -10.01, "internal_energy": -1.34, "cluster_size": 1, "cluster_id": 12, "rank_in_cluster": 1}

>  <energy>  (28) 
-7.73

>  <cluster_rmsd>  (28) 
1.63

>  <cluster>  (28) 
9

$$$$

     RDKit          3D

 55 58  0  0  0  0  0  0  0  0999 V2000
  132.4270   74.4110  227.5800 N   0  0  0  0  0  0  0  0  0  0  0  0
  133.3870   74.0910  226.1690 S   0  0  0  0  0  0  0  0  0  0  0  0
  134.6040   74.9450  226.2630 O   0  0  0  0  0  0  0  0  0  0  0  0
  132.6220   74.4210  224.9180 O   0  0  0  0  0  0  0  0  0  0  0  0
  133.8770   72.4110  226.1020 C   0  0  0  0  0  0  0  0  0  0  0  0
  133.9400   71.6880  227.2740 C   0  0  0  0  0  0  0  0  0  0  0  0
  134.3250   70.3760  227.1990 C   0  0  0  0  0  0  0  0  0  0  0  0
  134.6410   69.7890  225.9920 C   0  0  0  0  0  0  0  0  0  0  0  0
  134.5870   70.4950  224.7870 C   0  0  0  0  0  0  0  0  0  0  0  0
  134.9290   69.8400  223.5310 C   0  0  0  0  0  0  0  0  0  0  0  0
  135.9760   70.1250  222.8010 C   0  0  0  0  0  0  0  0  0  0  0  0
  137.2730   70.4350  223.4380 C   0  0  0  0  0  0  0  0  0  0  0  0
  137.6150   69.7010  224.5090 N   0  0  0  0  0  0  0  0  0  0  0  0
  138.7660   69.9250  225.1620 C   0  0  0  0  0  0  0  0  0  0  0  0
  139.1630   69.1980  226.2670 C   0  0  0  0  0  0  0  0  0  0  0  0
  140.3500   69.4540  226.9140 C   0  0  0  0  0  0  0  0  0  0  0  0
  140.7580   68.4660  228.3150 Cl  0  0  0  0  0  0  0  0  0  0  0  0
  141.1840   70.4600  226.4620 C   0  0  0  0  0  0  0  0  0  0  0  0
  140.7730   71.1730  225.3600 C   0  0  0  0  0  0  0  0  0  0  0  0
  139.5900   70.9310  224.7010 C   0  0  0  0  0  0  0  0  0  0  0  0
  139.2080   71.6640  223.6000 C   0  0  0  0  0  0  0  0  0  0  0  0
  139.9830   72.5850  223.1960 O   0  0  0  0  0  0  0  0  0  0  0  0
  138.0340   71.4290  222.9410 N   0  0  0  0  0  0  0  0  0  0  0  0
  137.7180   72.2340  221.8360 C   0  0  0  0  0  0  0  0  0  0  0  0
  137.3600   73.6450  221.9820 C   0  0  0  0  0  0  0  0  0  0  0  0
  136.9580   74.3280  220.7040 C   0  0  0  0  0  0  0  0  0  0  0  0
  136.7800   75.7900  220.9590 C   0  0  0  0  0  0  0  0  0  0  0  0
  136.6850   76.0530  222.4200 C   0  0  0  0  0  0  0  0  0  0  0  0
  135.8000   75.0960  223.1780 C   0  0  0  0  0  0  0  0  0  0  0  0
  136.0740   73.6650  222.8420 C   0  0  0  0  0  0  0  0  0  0  0  0
  134.1990   71.8100  224.8830 C   0  0  0  0  0  0  0  0  0  0  0  0
  132.7480   73.7680  228.3350 H   0  0  0  0  0  0  0  0  0  0  0  0
  131.4370   74.2770  227.3090 H   0  0  0  0  0  0  0  0  0  0  0  0
  133.6887   72.1508  228.2398 H   0  0  0  0  0  0  0  0  0  0  0  0
  134.3834   69.7781  228.1205 H   0  0  0  0  0  0  0  0  0  0  0  0
  134.9451   68.7320  225.9770 H   0  0  0  0  0  0  0  0  0  0  0  0
  134.2569   69.0474  223.1703 H   0  0  0  0  0  0  0  0  0  0  0  0
  135.8906   70.1341  221.7044 H   0  0  0  0  0  0  0  0  0  0  0  0
  138.5129   68.3928  226.6398 H   0  0  0  0  0  0  0  0  0  0  0  0
  142.1377   70.6812  226.9635 H   0  0  0  0  0  0  0  0  0  0  0  0
  141.4234   71.9777  224.9866 H   0  0  0  0  0  0  0  0  0  0  0  0
  138.5957   72.2060  221.1736 H   0  0  0  0  0  0  0  0  0  0  0  0
  136.7728   71.7905  221.4898 H   0  0  0  0  0  0  0  0  0  0  0  0
  138.2430   74.1593  222.3892 H   0  0  0  0  0  0  0  0  0  0  0  0
  137.7416   74.1801  219.9463 H   0  0  0  0  0  0  0  0  0  0  0  0
  136.0124   73.9001  220.3396 H   0  0  0  0  0  0  0  0  0  0  0  0
  137.6408   76.3373  220.5473 H   0  0  0  0  0  0  0  0  0  0  0  0
  135.8516   76.1266  220.4744 H   0  0  0  0  0  0  0  0  0  0  0  0
  137.6977   75.9926  222.8452 H   0  0  0  0  0  0  0  0  0  0  0  0
  136.2284   77.0480  222.5267 H   0  0  0  0  0  0  0  0  0  0  0  0
  135.9658   75.2421  224.2556 H   0  0  0  0  0  0  0  0  0  0  0  0
  134.7594   75.3101  222.8930 H   0  0  0  0  0  0  0  0  0  0  0  0
  136.2252   73.0823  223.7626 H   0  0  0  0  0  0  0  0  0  0  0  0
  135.2286   73.2190  222.2976 H   0  0  0  0  0  0  0  0  0  0  0  0
  134.1398   72.4123  223.9645 H   0  0  0  0  0  0  0  0  0  0  0  0
  1  2  1  0
  2  3  2  0
  2  4  2  0
  2  5  1  0
  5  6  2  0
  6  7  1  0
  7  8  2  0
  8  9  1  0
  9 10  1  0
 10 11  2  0
 11 12  1  0
 12 13  2  0
 13 14  1  0
 14 15  2  0
 15 16  1  0
 16 17  1  0
 16 18  2  0
 18 19  1  0
 19 20  2  0
 20 21  1  0
 21 22  2  0
 21 23  1  0
 23 24  1  0
 24 25  1  0
 25 26  1  0
 26 27  1  0
 27 28  1  0
 28 29  1  0
 29 30  1  0
  9 31  2  0
 31  5  1  0
 23 12  1  0
 30 25  1  0
 20 14  1  0
  1 32  1  0
  1 33  1  0
  6 34  1  0
  7 35  1  0
  8 36  1  0
 10 37  1  0
 11 38  1  0
 15 39  1  0
 18 40  1  0
 19 41  1  0
 24 42  1  0
 24 43  1  0
 25 44  1  0
 26 45  1  0
 26 46  1  0
 27 47  1  0
 27 48  1  0
 28 49  1  0
 28 50  1  0
 29 51  1  0
 29 52  1  0
 30 53  1  0
 30 54  1  0
 31 55  1  0
M  END
>  <smiles>  (29) 
NS(=O)(=O)c1cccc(/C=C/c2nc3cc(Cl)ccc3c(=O)n2CC2CCCCC2)c1

>  <score_type>  (29) 
oracle

>  <origin>  (29) 
autodockgpu

>  <m_score__min__energy>  (29) 
-8.9600000000000009

>  <m_primary>  (29) 
energy

>  <rmsd>  (29) 
9.34914014048374

>  <m_score__min__rmsd>  (29) 
9.34914014048374

>  <meeko>  (29) 
{"free_energy": -7.72, "intermolecular_energy": -9.81, "internal_energy": -2.3, "cluster_size": 6, "cluster_id": 10, "rank_in_cluster": 4}

>  <energy>  (29) 
-7.98

>  <cluster_rmsd>  (29) 
0.0

>  <cluster>  (29) 
10

$$$$

     RDKit          3D

 55 58  0  0  0  0  0  0  0  0999 V2000
  141.0500   72.0780  228.1610 N   0  0  0  0  0  0  0  0  0  0  0  0
  140.4120   70.4960  227.8380 S   0  0  0  0  0  0  0  0  0  0  0  0
  139.2080   70.3240  228.6980 O   0  0  0  0  0  0  0  0  0  0  0  0
  141.4290   69.4360  228.1580 O   0  0  0  0  0  0  0  0  0  0  0  0
  139.9390   70.3320  226.1590 C   0  0  0  0  0  0  0  0  0  0  0  0
  139.0050   69.3760  225.8220 C   0  0  0  0  0  0  0  0  0  0  0  0
  138.6490   69.2640  224.5040 C   0  0  0  0  0  0  0  0  0  0  0  0
  139.2020   70.0800  223.5400 C   0  0  0  0  0  0  0  0  0  0  0  0
  140.1510   71.0580  223.8500 C   0  0  0  0  0  0  0  0  0  0  0  0
  140.7130   71.9010  222.8030 C   0  0  0  0  0  0  0  0  0  0  0  0
  140.0220   72.4620  221.8450 C   0  0  0  0  0  0  0  0  0  0  0  0
  139.5470   73.8550  221.9790 C   0  0  0  0  0  0  0  0  0  0  0  0
  140.4780   74.7960  222.1990 N   0  0  0  0  0  0  0  0  0  0  0  0
  140.1360   76.0850  222.3520 C   0  0  0  0  0  0  0  0  0  0  0  0
  141.0550   77.0900  222.5790 C   0  0  0  0  0  0  0  0  0  0  0  0
  140.6710   78.4020  222.7320 C   0  0  0  0  0  0  0  0  0  0  0  0
  141.9270   79.6040  223.0180 Cl  0  0  0  0  0  0  0  0  0  0  0  0
  139.3340   78.7470  222.6590 C   0  0  0  0  0  0  0  0  0  0  0  0
  138.4320   77.7330  222.4320 C   0  0  0  0  0  0  0  0  0  0  0  0
  138.7990   76.4160  222.2770 C   0  0  0  0  0  0  0  0  0  0  0  0
  137.8710   75.4250  222.0510 C   0  0  0  0  0  0  0  0  0  0  0  0
  136.6460   75.7550  221.9860 O   0  0  0  0  0  0  0  0  0  0  0  0
  138.2280   74.1150  221.8950 N   0  0  0  0  0  0  0  0  0  0  0  0
  137.2140   73.1690  221.6820 C   0  0  0  0  0  0  0  0  0  0  0  0
  136.6240   72.4040  222.7800 C   0  0  0  0  0  0  0  0  0  0  0  0
  135.4850   73.0900  223.4850 C   0  0  0  0  0  0  0  0  0  0  0  0
  135.0850   72.2860  224.6790 C   0  0  0  0  0  0  0  0  0  0  0  0
  135.6570   70.9150  224.5950 C   0  0  0  0  0  0  0  0  0  0  0  0
  135.5400   70.2630  223.2400 C   0  0  0  0  0  0  0  0  0  0  0  0
  135.9710   71.1630  222.1270 C   0  0  0  0  0  0  0  0  0  0  0  0
  140.4950   71.1550  225.1770 C   0  0  0  0  0  0  0  0  0  0  0  0
  140.3250   72.6120  228.6860 H   0  0  0  0  0  0  0  0  0  0  0  0
  141.2980   72.4970  227.2460 H   0  0  0  0  0  0  0  0  0  0  0  0
  138.5595   68.7235  226.5874 H   0  0  0  0  0  0  0  0  0  0  0  0
  137.9069   68.5077  224.2087 H   0  0  0  0  0  0  0  0  0  0  0  0
  138.8862   69.9573  222.4935 H   0  0  0  0  0  0  0  0  0  0  0  0
  141.7984   72.0786  222.8196 H   0  0  0  0  0  0  0  0  0  0  0  0
  139.7925   71.8926  220.9322 H   0  0  0  0  0  0  0  0  0  0  0  0
  142.1232   76.8346  222.6391 H   0  0  0  0  0  0  0  0  0  0  0  0
  139.0048   79.7899  222.7776 H   0  0  0  0  0  0  0  0  0  0  0  0
  137.3637   77.9881  222.3714 H   0  0  0  0  0  0  0  0  0  0  0  0
  136.3844   73.7096  221.2029 H   0  0  0  0  0  0  0  0  0  0  0  0
  137.7422   72.3885  221.1148 H   0  0  0  0  0  0  0  0  0  0  0  0
  137.4269   72.2211  223.5093 H   0  0  0  0  0  0  0  0  0  0  0  0
  135.8032   74.0925  223.8073 H   0  0  0  0  0  0  0  0  0  0  0  0
  134.6295   73.1808  222.7995 H   0  0  0  0  0  0  0  0  0  0  0  0
  135.4569   72.7790  225.5893 H   0  0  0  0  0  0  0  0  0  0  0  0
  133.9878   72.2141  224.7101 H   0  0  0  0  0  0  0  0  0  0  0  0
  136.7240   70.9728  224.8560 H   0  0  0  0  0  0  0  0  0  0  0  0
  135.0735   70.2928  225.2895 H   0  0  0  0  0  0  0  0  0  0  0  0
  136.1703   69.3616  223.2277 H   0  0  0  0  0  0  0  0  0  0  0  0
  134.4793   70.0202  223.0789 H   0  0  0  0  0  0  0  0  0  0  0  0
  136.6989   70.6470  221.4836 H   0  0  0  0  0  0  0  0  0  0  0  0
  135.1144   71.4525  221.5006 H   0  0  0  0  0  0  0  0  0  0  0  0
  141.2367   71.9098  225.4773 H   0  0  0  0  0  0  0  0  0  0  0  0
  1  2  1  0
  2  3  2  0
  2  4  2  0
  2  5  1  0
  5  6  2  0
  6  7  1  0
  7  8  2  0
  8  9  1  0
  9 10  1  0
 10 11  2  0
 11 12  1  0
 12 13  2  0
 13 14  1  0
 14 15  2  0
 15 16  1  0
 16 17  1  0
 16 18  2  0
 18 19  1  0
 19 20  2  0
 20 21  1  0
 21 22  2  0
 21 23  1  0
 23 24  1  0
 24 25  1  0
 25 26  1  0
 26 27  1  0
 27 28  1  0
 28 29  1  0
 29 30  1  0
  9 31  2  0
 31  5  1  0
 23 12  1  0
 30 25  1  0
 20 14  1  0
  1 32  1  0
  1 33  1  0
  6 34  1  0
  7 35  1  0
  8 36  1  0
 10 37  1  0
 11 38  1  0
 15 39  1  0
 18 40  1  0
 19 41  1  0
 24 42  1  0
 24 43  1  0
 25 44  1  0
 26 45  1  0
 26 46  1  0
 27 47  1  0
 27 48  1  0
 28 49  1  0
 28 50  1  0
 29 51  1  0
 29 52  1  0
 30 53  1  0
 30 54  1  0
 31 55  1  0
M  END
>  <smiles>  (30) 
NS(=O)(=O)c1cccc(/C=C/c2nc3cc(Cl)ccc3c(=O)n2CC2CCCCC2)c1

>  <score_type>  (30) 
oracle

>  <origin>  (30) 
autodockgpu

>  <m_score__min__energy>  (30) 
-8.9600000000000009

>  <m_primary>  (30) 
energy

>  <rmsd>  (30) 
6.952133437715866

>  <m_score__min__rmsd>  (30) 
6.952133437715866

>  <meeko>  (30) 
{"free_energy": -7.95, "intermolecular_energy": -10.03, "internal_energy": -2.07, "cluster_size": 5, "cluster_id": 4, "rank_in_cluster": 4}

>  <energy>  (30) 
-7.82

>  <cluster_rmsd>  (30) 
0.46

>  <cluster>  (30) 
10

$$$$

     RDKit          3D

 55 58  0  0  0  0  0  0  0  0999 V2000
  146.1530   71.3260  219.8260 N   0  0  0  0  0  0  0  0  0  0  0  0
  145.9230   73.0390  219.6650 S   0  0  0  0  0  0  0  0  0  0  0  0
  146.1970   73.3880  218.2420 O   0  0  0  0  0  0  0  0  0  0  0  0
  146.8610   73.7910  220.5680 O   0  0  0  0  0  0  0  0  0  0  0  0
  144.2780   73.4990  220.0550 C   0  0  0  0  0  0  0  0  0  0  0  0
  143.8740   74.7950  219.8140 C   0  0  0  0  0  0  0  0  0  0  0  0
  142.5850   75.1330  220.1270 C   0  0  0  0  0  0  0  0  0  0  0  0
  141.7120   74.2120  220.6660 C   0  0  0  0  0  0  0  0  0  0  0  0
  142.0910   72.8910  220.9220 C   0  0  0  0  0  0  0  0  0  0  0  0
  141.1400   71.9470  221.4930 C   0  0  0  0  0  0  0  0  0  0  0  0
  140.6630   72.0110  222.7090 C   0  0  0  0  0  0  0  0  0  0  0  0
  139.2150   71.8480  222.9560 C   0  0  0  0  0  0  0  0  0  0  0  0
  138.3900   72.6880  222.3110 N   0  0  0  0  0  0  0  0  0  0  0  0
  137.0610   72.6250  222.4890 C   0  0  0  0  0  0  0  0  0  0  0  0
  136.1720   73.4660  221.8500 C   0  0  0  0  0  0  0  0  0  0  0  0
  134.8140   73.3750  222.0550 C   0  0  0  0  0  0  0  0  0  0  0  0
  133.7690   74.4970  221.1880 Cl  0  0  0  0  0  0  0  0  0  0  0  0
  134.3050   72.4230  222.9200 C   0  0  0  0  0  0  0  0  0  0  0  0
  135.2050   71.5950  223.5480 C   0  0  0  0  0  0  0  0  0  0  0  0
  136.5660   71.6720  223.3550 C   0  0  0  0  0  0  0  0  0  0  0  0
  137.4400   70.8270  223.9990 C   0  0  0  0  0  0  0  0  0  0  0  0
  136.9600   69.9580  224.7910 O   0  0  0  0  0  0  0  0  0  0  0  0
  138.7920   70.8980  223.8120 N   0  0  0  0  0  0  0  0  0  0  0  0
  139.6100   70.0050  224.5210 C   0  0  0  0  0  0  0  0  0  0  0  0
  139.9430   70.2120  225.9300 C   0  0  0  0  0  0  0  0  0  0  0  0
  140.7700   69.1180  226.5490 C   0  0  0  0  0  0  0  0  0  0  0  0
  140.8980   69.3650  228.0180 C   0  0  0  0  0  0  0  0  0  0  0  0
  140.5080   70.7630  228.3430 C   0  0  0  0  0  0  0  0  0  0  0  0
  141.0580   71.8080  227.4060 C   0  0  0  0  0  0  0  0  0  0  0  0
  140.8680   71.4520  225.9670 C   0  0  0  0  0  0  0  0  0  0  0  0
  143.3890   72.5710  220.6020 C   0  0  0  0  0  0  0  0  0  0  0  0
  145.2340   70.9040  220.0770 H   0  0  0  0  0  0  0  0  0  0  0  0
  146.8870   71.1860  220.5430 H   0  0  0  0  0  0  0  0  0  0  0  0
  144.5658   75.5341  219.3837 H   0  0  0  0  0  0  0  0  0  0  0  0
  142.2384   76.1609  219.9447 H   0  0  0  0  0  0  0  0  0  0  0  0
  140.6847   74.5266  220.9021 H   0  0  0  0  0  0  0  0  0  0  0  0
  140.7978   71.1193  220.8544 H   0  0  0  0  0  0  0  0  0  0  0  0
  141.3445   72.1875  223.5542 H   0  0  0  0  0  0  0  0  0  0  0  0
  136.5592   74.2290  221.1587 H   0  0  0  0  0  0  0  0  0  0  0  0
  133.2233   72.3321  223.0982 H   0  0  0  0  0  0  0  0  0  0  0  0
  134.8181   70.8323  224.2398 H   0  0  0  0  0  0  0  0  0  0  0  0
  139.1178   69.0230  224.4618 H   0  0  0  0  0  0  0  0  0  0  0  0
  140.5845   70.1444  224.0301 H   0  0  0  0  0  0  0  0  0  0  0  0
  138.9910   70.2817  226.4766 H   0  0  0  0  0  0  0  0  0  0  0  0
  140.2801   68.1475  226.3811 H   0  0  0  0  0  0  0  0  0  0  0  0
  141.7692   69.1070  226.0892 H   0  0  0  0  0  0  0  0  0  0  0  0
  140.2413   68.6696  228.5613 H   0  0  0  0  0  0  0  0  0  0  0  0
  141.9447   69.2071  228.3172 H   0  0  0  0  0  0  0  0  0  0  0  0
  139.4101   70.8261  228.3191 H   0  0  0  0  0  0  0  0  0  0  0  0
  140.9344   70.9806  229.3334 H   0  0  0  0  0  0  0  0  0  0  0  0
  140.5458   72.7614  227.6029 H   0  0  0  0  0  0  0  0  0  0  0  0
  142.1401   71.8811  227.5894 H   0  0  0  0  0  0  0  0  0  0  0  0
  140.4001   72.2894  225.4286 H   0  0  0  0  0  0  0  0  0  0  0  0
  141.8326   71.2387  225.4831 H   0  0  0  0  0  0  0  0  0  0  0  0
  143.7410   71.5448  220.7837 H   0  0  0  0  0  0  0  0  0  0  0  0
  1  2  1  0
  2  3  2  0
  2  4  2  0
  2  5  1  0
  5  6  2  0
  6  7  1  0
  7  8  2  0
  8  9  1  0
  9 10  1  0
 10 11  2  0
 11 12  1  0
 12 13  2  0
 13 14  1  0
 14 15  2  0
 15 16  1  0
 16 17  1  0
 16 18  2  0
 18 19  1  0
 19 20  2  0
 20 21  1  0
 21 22  2  0
 21 23  1  0
 23 24  1  0
 24 25  1  0
 25 26  1  0
 26 27  1  0
 27 28  1  0
 28 29  1  0
 29 30  1  0
  9 31  2  0
 31  5  1  0
 23 12  1  0
 30 25  1  0
 20 14  1  0
  1 32  1  0
  1 33  1  0
  6 34  1  0
  7 35  1  0
  8 36  1  0
 10 37  1  0
 11 38  1  0
 15 39  1  0
 18 40  1  0
 19 41  1  0
 24 42  1  0
 24 43  1  0
 25 44  1  0
 26 45  1  0
 26 46  1  0
 27 47  1  0
 27 48  1  0
 28 49  1  0
 28 50  1  0
 29 51  1  0
 29 52  1  0
 30 53  1  0
 30 54  1  0
 31 55  1  0
M  END
>  <smiles>  (31) 
NS(=O)(=O)c1cccc(/C=C/c2nc3cc(Cl)ccc3c(=O)n2CC2CCCCC2)c1

>  <score_type>  (31) 
oracle

>  <origin>  (31) 
autodockgpu

>  <m_score__min__energy>  (31) 
-8.9600000000000009

>  <m_primary>  (31) 
energy

>  <rmsd>  (31) 
10.835842109595553

>  <m_score__min__rmsd>  (31) 
10.835842109595553

>  <meeko>  (31) 
{"free_energy": -8.5, "intermolecular_energy": -10.58, "internal_energy": -1.25, "cluster_size": 6, "cluster_id": 3, "rank_in_cluster": 5}

>  <energy>  (31) 
-7.79

>  <cluster_rmsd>  (31) 
1.79

>  <cluster>  (31) 
10

$$$$

     RDKit          3D

 55 58  0  0  0  0  0  0  0  0999 V2000
  132.6920   74.4630  227.5860 N   0  0  0  0  0  0  0  0  0  0  0  0
  133.5070   74.0650  226.1060 S   0  0  0  0  0  0  0  0  0  0  0  0
  134.7460   74.8910  226.0490 O   0  0  0  0  0  0  0  0  0  0  0  0
  132.6340   74.3640  224.9190 O   0  0  0  0  0  0  0  0  0  0  0  0
  133.9540   72.3710  226.0610 C   0  0  0  0  0  0  0  0  0  0  0  0
  133.9460   71.6500  227.2370 C   0  0  0  0  0  0  0  0  0  0  0  0
  134.2980   70.3280  227.1790 C   0  0  0  0  0  0  0  0  0  0  0  0
  134.6500   69.7300  225.9880 C   0  0  0  0  0  0  0  0  0  0  0  0
  134.6680   70.4340  224.7810 C   0  0  0  0  0  0  0  0  0  0  0  0
  135.0460   69.7660  223.5420 C   0  0  0  0  0  0  0  0  0  0  0  0
  136.1730   69.1320  223.3500 C   0  0  0  0  0  0  0  0  0  0  0  0
  137.4250   69.6220  223.9640 C   0  0  0  0  0  0  0  0  0  0  0  0
  137.8950   68.9350  225.0170 N   0  0  0  0  0  0  0  0  0  0  0  0
  139.0150   69.3190  225.6480 C   0  0  0  0  0  0  0  0  0  0  0  0
  139.5390   68.6460  226.7340 C   0  0  0  0  0  0  0  0  0  0  0  0
  140.6900   69.0670  227.3600 C   0  0  0  0  0  0  0  0  0  0  0  0
  141.2710   68.1340  228.7380 Cl  0  0  0  0  0  0  0  0  0  0  0  0
  141.3570   70.1890  226.9050 C   0  0  0  0  0  0  0  0  0  0  0  0
  140.8210   70.8470  225.8230 C   0  0  0  0  0  0  0  0  0  0  0  0
  139.6710   70.4400  225.1850 C   0  0  0  0  0  0  0  0  0  0  0  0
  139.1610   71.1210  224.1030 C   0  0  0  0  0  0  0  0  0  0  0  0
  139.7830   72.1510  223.6960 O   0  0  0  0  0  0  0  0  0  0  0  0
  138.0190   70.7230  223.4650 N   0  0  0  0  0  0  0  0  0  0  0  0
  137.5640   71.4850  222.3780 C   0  0  0  0  0  0  0  0  0  0  0  0
  136.9200   72.7860  222.5600 C   0  0  0  0  0  0  0  0  0  0  0  0
  137.6350   73.9390  221.9100 C   0  0  0  0  0  0  0  0  0  0  0  0
  136.9740   75.2190  222.3070 C   0  0  0  0  0  0  0  0  0  0  0  0
  135.6330   74.9490  222.8920 C   0  0  0  0  0  0  0  0  0  0  0  0
  134.8060   73.9370  222.1400 C   0  0  0  0  0  0  0  0  0  0  0  0
  135.5740   72.7000  221.8020 C   0  0  0  0  0  0  0  0  0  0  0  0
  134.3110   71.7580  224.8590 C   0  0  0  0  0  0  0  0  0  0  0  0
  132.8760   73.6950  228.2660 H   0  0  0  0  0  0  0  0  0  0  0  0
  131.6900   74.5870  227.3550 H   0  0  0  0  0  0  0  0  0  0  0  0
  133.6659   72.1218  228.1904 H   0  0  0  0  0  0  0  0  0  0  0  0
  134.2999   69.7305  228.1026 H   0  0  0  0  0  0  0  0  0  0  0  0
  134.9254   68.6650  225.9877 H   0  0  0  0  0  0  0  0  0  0  0  0
  134.3304   69.7976  222.7072 H   0  0  0  0  0  0  0  0  0  0  0  0
  136.1897   68.2262  222.7262 H   0  0  0  0  0  0  0  0  0  0  0  0
  139.0228   67.7498  227.1086 H   0  0  0  0  0  0  0  0  0  0  0  0
  142.2797   70.5414  227.3891 H   0  0  0  0  0  0  0  0  0  0  0  0
  141.3370   71.7434  225.4485 H   0  0  0  0  0  0  0  0  0  0  0  0
  138.4405   71.6620  221.7374 H   0  0  0  0  0  0  0  0  0  0  0  0
  136.7374   70.8693  221.9936 H   0  0  0  0  0  0  0  0  0  0  0  0
  136.8729   72.9707  223.6434 H   0  0  0  0  0  0  0  0  0  0  0  0
  138.6852   73.9512  222.2371 H   0  0  0  0  0  0  0  0  0  0  0  0
  137.5942   73.8277  220.8164 H   0  0  0  0  0  0  0  0  0  0  0  0
  137.5981   75.7334  223.0526 H   0  0  0  0  0  0  0  0  0  0  0  0
  136.8540   75.8510  221.4147 H   0  0  0  0  0  0  0  0  0  0  0  0
  135.7757   74.5794  223.9182 H   0  0  0  0  0  0  0  0  0  0  0  0
  135.0784   75.8978  222.8449 H   0  0  0  0  0  0  0  0  0  0  0  0
  133.9429   73.6564  222.7615 H   0  0  0  0  0  0  0  0  0  0  0  0
  134.4924   74.4019  221.1937 H   0  0  0  0  0  0  0  0  0  0  0  0
  135.0154   71.8084  222.1228 H   0  0  0  0  0  0  0  0  0  0  0  0
  135.7373   72.6219  220.7170 H   0  0  0  0  0  0  0  0  0  0  0  0
  134.3063   72.3590  223.9377 H   0  0  0  0  0  0  0  0  0  0  0  0
  1  2  1  0
  2  3  2  0
  2  4  2  0
  2  5  1  0
  5  6  2  0
  6  7  1  0
  7  8  2  0
  8  9  1  0
  9 10  1  0
 10 11  2  0
 11 12  1  0
 12 13  2  0
 13 14  1  0
 14 15  2  0
 15 16  1  0
 16 17  1  0
 16 18  2  0
 18 19  1  0
 19 20  2  0
 20 21  1  0
 21 22  2  0
 21 23  1  0
 23 24  1  0
 24 25  1  0
 25 26  1  0
 26 27  1  0
 27 28  1  0
 28 29  1  0
 29 30  1  0
  9 31  2  0
 31  5  1  0
 23 12  1  0
 30 25  1  0
 20 14  1  0
  1 32  1  0
  1 33  1  0
  6 34  1  0
  7 35  1  0
  8 36  1  0
 10 37  1  0
 11 38  1  0
 15 39  1  0
 18 40  1  0
 19 41  1  0
 24 42  1  0
 24 43  1  0
 25 44  1  0
 26 45  1  0
 26 46  1  0
 27 47  1  0
 27 48  1  0
 28 49  1  0
 28 50  1  0
 29 51  1  0
 29 52  1  0
 30 53  1  0
 30 54  1  0
 31 55  1  0
M  END
>  <smiles>  (32) 
NS(=O)(=O)c1cccc(/C=C/c2nc3cc(Cl)ccc3c(=O)n2CC2CCCCC2)c1

>  <score_type>  (32) 
oracle

>  <origin>  (32) 
autodockgpu

>  <m_score__min__energy>  (32) 
-8.9600000000000009

>  <m_primary>  (32) 
energy

>  <rmsd>  (32) 
10.00118588445761

>  <m_score__min__rmsd>  (32) 
10.00118588445761

>  <meeko>  (32) 
{"free_energy": -7.65, "intermolecular_energy": -9.74, "internal_energy": -2.48, "cluster_size": 6, "cluster_id": 10, "rank_in_cluster": 5}

>  <energy>  (32) 
-7.72

>  <cluster_rmsd>  (32) 
0.46

>  <cluster>  (32) 
10

$$$$

     RDKit          3D

 55 58  0  0  0  0  0  0  0  0999 V2000
  146.7620   69.6430  218.1890 N   0  0  0  0  0  0  0  0  0  0  0  0
  145.2170   69.5200  218.9710 S   0  0  0  0  0  0  0  0  0  0  0  0
  145.3560   68.5150  220.0630 O   0  0  0  0  0  0  0  0  0  0  0  0
  144.1600   69.0780  217.9970 O   0  0  0  0  0  0  0  0  0  0  0  0
  144.7330   71.0530  219.6680 C   0  0  0  0  0  0  0  0  0  0  0  0
  145.6990   72.0050  219.9180 C   0  0  0  0  0  0  0  0  0  0  0  0
  145.2990   73.1950  220.4630 C   0  0  0  0  0  0  0  0  0  0  0  0
  143.9740   73.4420  220.7550 C   0  0  0  0  0  0  0  0  0  0  0  0
  142.9730   72.4980  220.5140 C   0  0  0  0  0  0  0  0  0  0  0  0
  141.5840   72.7950  220.8370 C   0  0  0  0  0  0  0  0  0  0  0  0
  140.6170   71.9140  220.8620 C   0  0  0  0  0  0  0  0  0  0  0  0
  140.3140   71.1670  222.1000 C   0  0  0  0  0  0  0  0  0  0  0  0
  140.6480   71.7530  223.2610 N   0  0  0  0  0  0  0  0  0  0  0  0
  140.4260   71.1390  224.4340 C   0  0  0  0  0  0  0  0  0  0  0  0
  140.7510   71.7000  225.6530 C   0  0  0  0  0  0  0  0  0  0  0  0
  140.5110   71.0430  226.8380 C   0  0  0  0  0  0  0  0  0  0  0  0
  140.9650   71.8500  228.3370 Cl  0  0  0  0  0  0  0  0  0  0  0  0
  139.9290   69.7890  226.8310 C   0  0  0  0  0  0  0  0  0  0  0  0
  139.6120   69.2470  225.6080 C   0  0  0  0  0  0  0  0  0  0  0  0
  139.8450   69.8890  224.4130 C   0  0  0  0  0  0  0  0  0  0  0  0
  139.5160   69.3170  223.2050 C   0  0  0  0  0  0  0  0  0  0  0  0
  138.9820   68.1650  223.2130 O   0  0  0  0  0  0  0  0  0  0  0  0
  139.7440   69.9490  222.0150 N   0  0  0  0  0  0  0  0  0  0  0  0
  139.3890   69.2870  220.8300 C   0  0  0  0  0  0  0  0  0  0  0  0
  140.2880   68.3370  220.1740 C   0  0  0  0  0  0  0  0  0  0  0  0
  139.8030   66.9130  220.1670 C   0  0  0  0  0  0  0  0  0  0  0  0
  140.8770   66.0270  219.6230 C   0  0  0  0  0  0  0  0  0  0  0  0
  141.9120   66.8370  218.9260 C   0  0  0  0  0  0  0  0  0  0  0  0
  141.3690   67.9160  218.0240 C   0  0  0  0  0  0  0  0  0  0  0  0
  140.3060   68.7370  218.6800 C   0  0  0  0  0  0  0  0  0  0  0  0
  143.3930   71.3090  219.9670 C   0  0  0  0  0  0  0  0  0  0  0  0
  146.7980   68.9180  217.4420 H   0  0  0  0  0  0  0  0  0  0  0  0
  147.4830   69.5250  218.9230 H   0  0  0  0  0  0  0  0  0  0  0  0
  146.7573   71.8140  219.6867 H   0  0  0  0  0  0  0  0  0  0  0  0
  146.0502   73.9708  220.6725 H   0  0  0  0  0  0  0  0  0  0  0  0
  143.6967   74.4129  221.1914 H   0  0  0  0  0  0  0  0  0  0  0  0
  141.3291   73.8376  221.0778 H   0  0  0  0  0  0  0  0  0  0  0  0
  140.0248   71.7280  219.9538 H   0  0  0  0  0  0  0  0  0  0  0  0
  141.2136   72.6977  225.6775 H   0  0  0  0  0  0  0  0  0  0  0  0
  139.7276   69.2466  227.7666 H   0  0  0  0  0  0  0  0  0  0  0  0
  139.1486   68.2497  225.5832 H   0  0  0  0  0  0  0  0  0  0  0  0
  138.4645   68.7336  221.0514 H   0  0  0  0  0  0  0  0  0  0  0  0
  139.3563   70.1132  220.1045 H   0  0  0  0  0  0  0  0  0  0  0  0
  141.2453   68.3771  220.7144 H   0  0  0  0  0  0  0  0  0  0  0  0
  139.5567   66.6038  221.1935 H   0  0  0  0  0  0  0  0  0  0  0  0
  138.9053   66.8330  219.5364 H   0  0  0  0  0  0  0  0  0  0  0  0
  141.3455   65.4746  220.4509 H   0  0  0  0  0  0  0  0  0  0  0  0
  140.4304   65.3234  218.9050 H   0  0  0  0  0  0  0  0  0  0  0  0
  142.5438   67.3149  219.6892 H   0  0  0  0  0  0  0  0  0  0  0  0
  142.4652   66.1412  218.2781 H   0  0  0  0  0  0  0  0  0  0  0  0
  142.1962   68.5798  217.7323 H   0  0  0  0  0  0  0  0  0  0  0  0
  140.9159   67.4223  217.1517 H   0  0  0  0  0  0  0  0  0  0  0  0
  140.5376   69.8075  218.5777 H   0  0  0  0  0  0  0  0  0  0  0  0
  139.3262   68.5590  218.2127 H   0  0  0  0  0  0  0  0  0  0  0  0
  142.6456   70.5298  219.7568 H   0  0  0  0  0  0  0  0  0  0  0  0
  1  2  1  0
  2  3  2  0
  2  4  2  0
  2  5  1  0
  5  6  2  0
  6  7  1  0
  7  8  2  0
  8  9  1  0
  9 10  1  0
 10 11  2  0
 11 12  1  0
 12 13  2  0
 13 14  1  0
 14 15  2  0
 15 16  1  0
 16 17  1  0
 16 18  2  0
 18 19  1  0
 19 20  2  0
 20 21  1  0
 21 22  2  0
 21 23  1  0
 23 24  1  0
 24 25  1  0
 25 26  1  0
 26 27  1  0
 27 28  1  0
 28 29  1  0
 29 30  1  0
  9 31  2  0
 31  5  1  0
 23 12  1  0
 30 25  1  0
 20 14  1  0
  1 32  1  0
  1 33  1  0
  6 34  1  0
  7 35  1  0
  8 36  1  0
 10 37  1  0
 11 38  1  0
 15 39  1  0
 18 40  1  0
 19 41  1  0
 24 42  1  0
 24 43  1  0
 25 44  1  0
 26 45  1  0
 26 46  1  0
 27 47  1  0
 27 48  1  0
 28 49  1  0
 28 50  1  0
 29 51  1  0
 29 52  1  0
 30 53  1  0
 30 54  1  0
 31 55  1  0
M  END
>  <smiles>  (33) 
NS(=O)(=O)c1cccc(/C=C/c2nc3cc(Cl)ccc3c(=O)n2CC2CCCCC2)c1

>  <score_type>  (33) 
oracle

>  <origin>  (33) 
autodockgpu

>  <m_score__min__energy>  (33) 
-8.9600000000000009

>  <m_primary>  (33) 
energy

>  <rmsd>  (33) 
11.063766977763743

>  <m_score__min__rmsd>  (33) 
11.063766977763743

>  <meeko>  (33) 
{"free_energy": -7.61, "intermolecular_energy": -9.7, "internal_energy": -1.99, "cluster_size": 1, "cluster_id": 16, "rank_in_cluster": 1}

>  <energy>  (33) 
-7.65

>  <cluster_rmsd>  (33) 
0.92

>  <cluster>  (33) 
10

$$$$

     RDKit          3D

 55 58  0  0  0  0  0  0  0  0999 V2000
  146.1160   73.3990  218.3670 N   0  0  0  0  0  0  0  0  0  0  0  0
  145.5910   72.6600  219.8480 S   0  0  0  0  0  0  0  0  0  0  0  0
  146.5580   73.0620  220.9070 O   0  0  0  0  0  0  0  0  0  0  0  0
  145.5650   71.1620  219.7160 O   0  0  0  0  0  0  0  0  0  0  0  0
  143.9910   73.2120  220.3020 C   0  0  0  0  0  0  0  0  0  0  0  0
  143.6500   74.5270  220.0690 C   0  0  0  0  0  0  0  0  0  0  0  0
  142.3950   74.9370  220.4310 C   0  0  0  0  0  0  0  0  0  0  0  0
  141.4950   74.0680  221.0100 C   0  0  0  0  0  0  0  0  0  0  0  0
  141.8110   72.7300  221.2590 C   0  0  0  0  0  0  0  0  0  0  0  0
  140.8330   71.8420  221.8740 C   0  0  0  0  0  0  0  0  0  0  0  0
  139.8520   72.2320  222.6460 C   0  0  0  0  0  0  0  0  0  0  0  0
  138.7500   71.3070  222.9850 C   0  0  0  0  0  0  0  0  0  0  0  0
  137.5810   71.4980  222.3540 N   0  0  0  0  0  0  0  0  0  0  0  0
  136.5200   70.7170  222.6120 C   0  0  0  0  0  0  0  0  0  0  0  0
  135.2980   70.8730  221.9900 C   0  0  0  0  0  0  0  0  0  0  0  0
  134.2290   70.0550  222.2790 C   0  0  0  0  0  0  0  0  0  0  0  0
  132.7140   70.3420  221.4260 Cl  0  0  0  0  0  0  0  0  0  0  0  0
  134.3620   69.0430  223.2120 C   0  0  0  0  0  0  0  0  0  0  0  0
  135.5870   68.9030  223.8210 C   0  0  0  0  0  0  0  0  0  0  0  0
  136.6650   69.7110  223.5450 C   0  0  0  0  0  0  0  0  0  0  0  0
  137.8780   69.5440  224.1730 C   0  0  0  0  0  0  0  0  0  0  0  0
  137.9860   68.6110  225.0290 O   0  0  0  0  0  0  0  0  0  0  0  0
  138.9540   70.3430  223.9040 N   0  0  0  0  0  0  0  0  0  0  0  0
  140.1490   70.1090  224.6010 C   0  0  0  0  0  0  0  0  0  0  0  0
  140.3280   70.5260  225.9920 C   0  0  0  0  0  0  0  0  0  0  0  0
  140.9210   69.4780  226.8930 C   0  0  0  0  0  0  0  0  0  0  0  0
  140.8970   69.9670  228.3050 C   0  0  0  0  0  0  0  0  0  0  0  0
  140.6560   71.4350  228.3400 C   0  0  0  0  0  0  0  0  0  0  0  0
  141.4510   72.2300  227.3360 C   0  0  0  0  0  0  0  0  0  0  0  0
  141.3960   71.6460  225.9620 C   0  0  0  0  0  0  0  0  0  0  0  0
  143.0750   72.3370  220.8890 C   0  0  0  0  0  0  0  0  0  0  0  0
  147.0450   73.8360  218.5430 H   0  0  0  0  0  0  0  0  0  0  0  0
  145.3810   74.0750  218.0900 H   0  0  0  0  0  0  0  0  0  0  0  0
  144.3636   75.2249  219.6068 H   0  0  0  0  0  0  0  0  0  0  0  0
  142.0985   75.9818  220.2562 H   0  0  0  0  0  0  0  0  0  0  0  0
  140.4968   74.4397  221.2846 H   0  0  0  0  0  0  0  0  0  0  0  0
  140.9267   70.7644  221.6742 H   0  0  0  0  0  0  0  0  0  0  0  0
  139.8469   73.2566  223.0462 H   0  0  0  0  0  0  0  0  0  0  0  0
  135.1749   71.6718  221.2438 H   0  0  0  0  0  0  0  0  0  0  0  0
  133.5217   68.3768  223.4572 H   0  0  0  0  0  0  0  0  0  0  0  0
  135.7109   68.1040  224.5669 H   0  0  0  0  0  0  0  0  0  0  0  0
  140.3086   69.0208  224.5825 H   0  0  0  0  0  0  0  0  0  0  0  0
  140.8582   70.7614  224.0705 H   0  0  0  0  0  0  0  0  0  0  0  0
  139.3324   70.7933  226.3759 H   0  0  0  0  0  0  0  0  0  0  0  0
  140.3330   68.5516  226.8153 H   0  0  0  0  0  0  0  0  0  0  0  0
  141.9596   69.2781  226.5907 H   0  0  0  0  0  0  0  0  0  0  0  0
  140.0927   69.4542  228.8528 H   0  0  0  0  0  0  0  0  0  0  0  0
  141.8688   69.7530  228.7739 H   0  0  0  0  0  0  0  0  0  0  0  0
  139.5875   71.6111  228.1471 H   0  0  0  0  0  0  0  0  0  0  0  0
  140.9800   71.7785  229.3335 H   0  0  0  0  0  0  0  0  0  0  0  0
  141.0485   73.2531  227.2996 H   0  0  0  0  0  0  0  0  0  0  0  0
  142.5021   72.2167  227.6600 H   0  0  0  0  0  0  0  0  0  0  0  0
  141.1125   72.4196  225.2332 H   0  0  0  0  0  0  0  0  0  0  0  0
  142.3768   71.2469  225.6642 H   0  0  0  0  0  0  0  0  0  0  0  0
  143.3764   71.2933  221.0620 H   0  0  0  0  0  0  0  0  0  0  0  0
  1  2  1  0
  2  3  2  0
  2  4  2  0
  2  5  1  0
  5  6  2  0
  6  7  1  0
  7  8  2  0
  8  9  1  0
  9 10  1  0
 10 11  2  0
 11 12  1  0
 12 13  2  0
 13 14  1  0
 14 15  2  0
 15 16  1  0
 16 17  1  0
 16 18  2  0
 18 19  1  0
 19 20  2  0
 20 21  1  0
 21 22  2  0
 21 23  1  0
 23 24  1  0
 24 25  1  0
 25 26  1  0
 26 27  1  0
 27 28  1  0
 28 29  1  0
 29 30  1  0
  9 31  2  0
 31  5  1  0
 23 12  1  0
 30 25  1  0
 20 14  1  0
  1 32  1  0
  1 33  1  0
  6 34  1  0
  7 35  1  0
  8 36  1  0
 10 37  1  0
 11 38  1  0
 15 39  1  0
 18 40  1  0
 19 41  1  0
 24 42  1  0
 24 43  1  0
 25 44  1  0
 26 45  1  0
 26 46  1  0
 27 47  1  0
 27 48  1  0
 28 49  1  0
 28 50  1  0
 29 51  1  0
 29 52  1  0
 30 53  1  0
 30 54  1  0
 31 55  1  0
M  END
>  <smiles>  (34) 
NS(=O)(=O)c1cccc(/C=C/c2nc3cc(Cl)ccc3c(=O)n2CC2CCCCC2)c1

>  <score_type>  (34) 
oracle

>  <origin>  (34) 
autodockgpu

>  <m_score__min__energy>  (34) 
-8.9600000000000009

>  <m_primary>  (34) 
energy

>  <rmsd>  (34) 
11.937424770104796

>  <m_score__min__rmsd>  (34) 
11.937424770104796

>  <meeko>  (34) 
{"free_energy": -8.72, "intermolecular_energy": -10.81, "internal_energy": -1.27, "cluster_size": 6, "cluster_id": 3, "rank_in_cluster": 2}

>  <energy>  (34) 
-7.6

>  <cluster_rmsd>  (34) 
0.73

>  <cluster>  (34) 
10

$$$$

     RDKit          3D

 55 58  0  0  0  0  0  0  0  0999 V2000
  142.9390   79.9150  217.5180 N   0  0  0  0  0  0  0  0  0  0  0  0
  141.8710   81.2260  217.9130 S   0  0  0  0  0  0  0  0  0  0  0  0
  140.5290   80.8810  217.3650 O   0  0  0  0  0  0  0  0  0  0  0  0
  142.3590   82.5130  217.3080 O   0  0  0  0  0  0  0  0  0  0  0  0
  141.7380   81.4360  219.6480 C   0  0  0  0  0  0  0  0  0  0  0  0
  141.1750   82.5960  220.1360 C   0  0  0  0  0  0  0  0  0  0  0  0
  141.0820   82.7400  221.4950 C   0  0  0  0  0  0  0  0  0  0  0  0
  141.5330   81.7600  222.3530 C   0  0  0  0  0  0  0  0  0  0  0  0
  142.1080   80.5740  221.8890 C   0  0  0  0  0  0  0  0  0  0  0  0
  142.5740   79.5620  222.8280 C   0  0  0  0  0  0  0  0  0  0  0  0
  141.7970   78.7430  223.4890 C   0  0  0  0  0  0  0  0  0  0  0  0
  140.3280   78.8920  223.4330 C   0  0  0  0  0  0  0  0  0  0  0  0
  139.8010   79.9580  224.0570 N   0  0  0  0  0  0  0  0  0  0  0  0
  138.4750   80.1630  224.0740 C   0  0  0  0  0  0  0  0  0  0  0  0
  137.8850   81.2420  224.7010 C   0  0  0  0  0  0  0  0  0  0  0  0
  136.5210   81.4230  224.7000 C   0  0  0  0  0  0  0  0  0  0  0  0
  135.8730   82.8360  225.5310 Cl  0  0  0  0  0  0  0  0  0  0  0  0
  135.7000   80.5130  224.0590 C   0  0  0  0  0  0  0  0  0  0  0  0
  136.3050   79.4450  223.4400 C   0  0  0  0  0  0  0  0  0  0  0  0
  137.6670   79.2480  223.4310 C   0  0  0  0  0  0  0  0  0  0  0  0
  138.2410   78.1670  222.8020 C   0  0  0  0  0  0  0  0  0  0  0  0
  137.4760   77.3380  222.2180 O   0  0  0  0  0  0  0  0  0  0  0  0
  139.5930   77.9660  222.7890 N   0  0  0  0  0  0  0  0  0  0  0  0
  140.0900   76.8290  222.1340 C   0  0  0  0  0  0  0  0  0  0  0  0
  141.0790   76.9240  221.0600 C   0  0  0  0  0  0  0  0  0  0  0  0
  141.7300   75.6200  220.6850 C   0  0  0  0  0  0  0  0  0  0  0  0
  142.8280   75.8790  219.7050 C   0  0  0  0  0  0  0  0  0  0  0  0
  142.6980   77.2450  219.1300 C   0  0  0  0  0  0  0  0  0  0  0  0
  141.2970   77.6320  218.7320 C   0  0  0  0  0  0  0  0  0  0  0  0
  140.2890   77.3290  219.7930 C   0  0  0  0  0  0  0  0  0  0  0  0
  142.1930   80.4480  220.5230 C   0  0  0  0  0  0  0  0  0  0  0  0
  143.8830   80.1520  217.8900 H   0  0  0  0  0  0  0  0  0  0  0  0
  142.9110   79.8020  216.4890 H   0  0  0  0  0  0  0  0  0  0  0  0
  140.8121   83.3807  219.4559 H   0  0  0  0  0  0  0  0  0  0  0  0
  140.6382   83.6568  221.9103 H   0  0  0  0  0  0  0  0  0  0  0  0
  141.4372   81.9166  223.4376 H   0  0  0  0  0  0  0  0  0  0  0  0
  143.6585   79.4807  222.9932 H   0  0  0  0  0  0  0  0  0  0  0  0
  142.2409   77.9368  224.0914 H   0  0  0  0  0  0  0  0  0  0  0  0
  138.5222   81.9766  225.2151 H   0  0  0  0  0  0  0  0  0  0  0  0
  134.6073   80.6388  224.0451 H   0  0  0  0  0  0  0  0  0  0  0  0
  135.6680   78.7104  222.9257 H   0  0  0  0  0  0  0  0  0  0  0  0
  140.5412   76.1972  222.9132 H   0  0  0  0  0  0  0  0  0  0  0  0
  139.2013   76.4637  221.5984 H   0  0  0  0  0  0  0  0  0  0  0  0
  141.8598   77.6174  221.4059 H   0  0  0  0  0  0  0  0  0  0  0  0
  142.1460   75.1448  221.5856 H   0  0  0  0  0  0  0  0  0  0  0  0
  140.9824   74.9522  220.2322 H   0  0  0  0  0  0  0  0  0  0  0  0
  143.7981   75.7916  220.2161 H   0  0  0  0  0  0  0  0  0  0  0  0
  142.7617   75.1415  218.8915 H   0  0  0  0  0  0  0  0  0  0  0  0
  143.0526   77.9673  219.8801 H   0  0  0  0  0  0  0  0  0  0  0  0
  143.2952   77.2505  218.2063 H   0  0  0  0  0  0  0  0  0  0  0  0
  141.2760   78.7122  218.5255 H   0  0  0  0  0  0  0  0  0  0  0  0
  141.0301   77.0414  217.8432 H   0  0  0  0  0  0  0  0  0  0  0  0
  139.6760   78.2191  219.9977 H   0  0  0  0  0  0  0  0  0  0  0  0
  139.6131   76.5214  219.4752 H   0  0  0  0  0  0  0  0  0  0  0  0
  142.6367   79.5333  220.1030 H   0  0  0  0  0  0  0  0  0  0  0  0
  1  2  1  0
  2  3  2  0
  2  4  2  0
  2  5  1  0
  5  6  2  0
  6  7  1  0
  7  8  2  0
  8  9  1  0
  9 10  1  0
 10 11  2  0
 11 12  1  0
 12 13  2  0
 13 14  1  0
 14 15  2  0
 15 16  1  0
 16 17  1  0
 16 18  2  0
 18 19  1  0
 19 20  2  0
 20 21  1  0
 21 22  2  0
 21 23  1  0
 23 24  1  0
 24 25  1  0
 25 26  1  0
 26 27  1  0
 27 28  1  0
 28 29  1  0
 29 30  1  0
  9 31  2  0
 31  5  1  0
 23 12  1  0
 30 25  1  0
 20 14  1  0
  1 32  1  0
  1 33  1  0
  6 34  1  0
  7 35  1  0
  8 36  1  0
 10 37  1  0
 11 38  1  0
 15 39  1  0
 18 40  1  0
 19 41  1  0
 24 42  1  0
 24 43  1  0
 25 44  1  0
 26 45  1  0
 26 46  1  0
 27 47  1  0
 27 48  1  0
 28 49  1  0
 28 50  1  0
 29 51  1  0
 29 52  1  0
 30 53  1  0
 30 54  1  0
 31 55  1  0
M  END
>  <smiles>  (35) 
NS(=O)(=O)c1cccc(/C=C/c2nc3cc(Cl)ccc3c(=O)n2CC2CCCCC2)c1

>  <score_type>  (35) 
oracle

>  <origin>  (35) 
autodockgpu

>  <m_score__min__energy>  (35) 
-8.9600000000000009

>  <m_primary>  (35) 
energy

>  <rmsd>  (35) 
4.423850691763341

>  <m_score__min__rmsd>  (35) 
4.423850691763341

>  <meeko>  (35) 
{"free_energy": -7.47, "intermolecular_energy": -9.56, "internal_energy": -2.53, "cluster_size": 5, "cluster_id": 17, "rank_in_cluster": 1}

>  <energy>  (35) 
-7.93

>  <cluster_rmsd>  (35) 
0.0

>  <cluster>  (35) 
11

$$$$

     RDKit          3D

 55 58  0  0  0  0  0  0  0  0999 V2000
  132.6130   74.4530  227.5880 N   0  0  0  0  0  0  0  0  0  0  0  0
  133.4730   74.0430  226.1370 S   0  0  0  0  0  0  0  0  0  0  0  0
  134.6990   74.8890  226.1000 O   0  0  0  0  0  0  0  0  0  0  0  0
  132.6280   74.3090  224.9230 O   0  0  0  0  0  0  0  0  0  0  0  0
  133.9470   72.3570  226.1340 C   0  0  0  0  0  0  0  0  0  0  0  0
  133.9450   71.6620  227.3250 C   0  0  0  0  0  0  0  0  0  0  0  0
  134.3190   70.3450  227.3000 C   0  0  0  0  0  0  0  0  0  0  0  0
  134.6860   69.7260  226.1240 C   0  0  0  0  0  0  0  0  0  0  0  0
  134.6990   70.4030  224.9010 C   0  0  0  0  0  0  0  0  0  0  0  0
  135.0940   69.7140  223.6800 C   0  0  0  0  0  0  0  0  0  0  0  0
  136.1190   70.0410  222.9360 C   0  0  0  0  0  0  0  0  0  0  0  0
  137.4330   70.3250  223.5520 C   0  0  0  0  0  0  0  0  0  0  0  0
  137.7900   69.5650  224.5990 N   0  0  0  0  0  0  0  0  0  0  0  0
  138.9570   69.7640  225.2320 C   0  0  0  0  0  0  0  0  0  0  0  0
  139.3690   69.0110  226.3120 C   0  0  0  0  0  0  0  0  0  0  0  0
  140.5720   69.2410  226.9390 C   0  0  0  0  0  0  0  0  0  0  0  0
  141.0000   68.2200  228.3100 Cl  0  0  0  0  0  0  0  0  0  0  0  0
  141.4070   70.2490  226.4900 C   0  0  0  0  0  0  0  0  0  0  0  0
  140.9800   70.9890  225.4120 C   0  0  0  0  0  0  0  0  0  0  0  0
  139.7800   70.7720  224.7740 C   0  0  0  0  0  0  0  0  0  0  0  0
  139.3830   71.5320  223.6980 C   0  0  0  0  0  0  0  0  0  0  0  0
  140.1580   72.4540  223.2960 O   0  0  0  0  0  0  0  0  0  0  0  0
  138.1920   71.3220  223.0590 N   0  0  0  0  0  0  0  0  0  0  0  0
  137.8620   72.1530  221.9780 C   0  0  0  0  0  0  0  0  0  0  0  0
  137.5020   73.5590  222.1630 C   0  0  0  0  0  0  0  0  0  0  0  0
  137.3490   74.3430  220.8880 C   0  0  0  0  0  0  0  0  0  0  0  0
  137.1480   75.7870  221.2170 C   0  0  0  0  0  0  0  0  0  0  0  0
  136.7920   75.9470  222.6530 C   0  0  0  0  0  0  0  0  0  0  0  0
  135.7710   74.9630  223.1640 C   0  0  0  0  0  0  0  0  0  0  0  0
  136.0810   73.5530  222.7760 C   0  0  0  0  0  0  0  0  0  0  0  0
  134.3210   71.7230  224.9470 C   0  0  0  0  0  0  0  0  0  0  0  0
  132.9090   75.4100  227.8740 H   0  0  0  0  0  0  0  0  0  0  0  0
  132.8330   73.7210  228.2870 H   0  0  0  0  0  0  0  0  0  0  0  0
  133.6520   72.1505  228.2660 H   0  0  0  0  0  0  0  0  0  0  0  0
  134.3268   69.7692  228.2372 H   0  0  0  0  0  0  0  0  0  0  0  0
  134.9779   68.6657  226.1489 H   0  0  0  0  0  0  0  0  0  0  0  0
  134.4855   68.8554  223.3599 H   0  0  0  0  0  0  0  0  0  0  0  0
  136.0026   70.1052  221.8441 H   0  0  0  0  0  0  0  0  0  0  0  0
  138.7182   68.2050  226.6819 H   0  0  0  0  0  0  0  0  0  0  0  0
  142.3733   70.4504  226.9756 H   0  0  0  0  0  0  0  0  0  0  0  0
  141.6304   71.7949  225.0411 H   0  0  0  0  0  0  0  0  0  0  0  0
  138.7325   72.1439  221.3056 H   0  0  0  0  0  0  0  0  0  0  0  0
  136.9143   71.7155  221.6311 H   0  0  0  0  0  0  0  0  0  0  0  0
  138.3029   74.0183  222.7610 H   0  0  0  0  0  0  0  0  0  0  0  0
  138.2553   74.2285  220.2752 H   0  0  0  0  0  0  0  0  0  0  0  0
  136.4799   73.9685  220.3272 H   0  0  0  0  0  0  0  0  0  0  0  0
  138.0770   76.3386  221.0102 H   0  0  0  0  0  0  0  0  0  0  0  0
  136.3280   76.1829  220.5998 H   0  0  0  0  0  0  0  0  0  0  0  0
  137.7094   75.8286  223.2483 H   0  0  0  0  0  0  0  0  0  0  0  0
  136.3374   76.9439  222.7504 H   0  0  0  0  0  0  0  0  0  0  0  0
  135.7400   75.0268  224.2617 H   0  0  0  0  0  0  0  0  0  0  0  0
  134.8029   75.2256  222.7126 H   0  0  0  0  0  0  0  0  0  0  0  0
  136.0538   72.9019  223.6622 H   0  0  0  0  0  0  0  0  0  0  0  0
  135.3425   73.1708  222.0559 H   0  0  0  0  0  0  0  0  0  0  0  0
  134.3126   72.3032  224.0125 H   0  0  0  0  0  0  0  0  0  0  0  0
  1  2  1  0
  2  3  2  0
  2  4  2  0
  2  5  1  0
  5  6  2  0
  6  7  1  0
  7  8  2  0
  8  9  1  0
  9 10  1  0
 10 11  2  0
 11 12  1  0
 12 13  2  0
 13 14  1  0
 14 15  2  0
 15 16  1  0
 16 17  1  0
 16 18  2  0
 18 19  1  0
 19 20  2  0
 20 21  1  0
 21 22  2  0
 21 23  1  0
 23 24  1  0
 24 25  1  0
 25 26  1  0
 26 27  1  0
 27 28  1  0
 28 29  1  0
 29 30  1  0
  9 31  2  0
 31  5  1  0
 23 12  1  0
 30 25  1  0
 20 14  1  0
  1 32  1  0
  1 33  1  0
  6 34  1  0
  7 35  1  0
  8 36  1  0
 10 37  1  0
 11 38  1  0
 15 39  1  0
 18 40  1  0
 19 41  1  0
 24 42  1  0
 24 43  1  0
 25 44  1  0
 26 45  1  0
 26 46  1  0
 27 47  1  0
 27 48  1  0
 28 49  1  0
 28 50  1  0
 29 51  1  0
 29 52  1  0
 30 53  1  0
 30 54  1  0
 31 55  1  0
M  END
>  <smiles>  (36) 
NS(=O)(=O)c1cccc(/C=C/c2nc3cc(Cl)ccc3c(=O)n2CC2CCCCC2)c1

>  <score_type>  (36) 
oracle

>  <origin>  (36) 
autodockgpu

>  <m_score__min__energy>  (36) 
-8.9600000000000009

>  <m_primary>  (36) 
energy

>  <rmsd>  (36) 
9.468045686717643

>  <m_score__min__rmsd>  (36) 
9.468045686717643

>  <meeko>  (36) 
{"free_energy": -7.82, "intermolecular_energy": -9.9, "internal_energy": -2.25, "cluster_size": 6, "cluster_id": 10, "rank_in_cluster": 2}

>  <energy>  (36) 
-7.81

>  <cluster_rmsd>  (36) 
0.93

>  <cluster>  (36) 
11

$$$$

     RDKit          3D

 55 58  0  0  0  0  0  0  0  0999 V2000
  145.1400   71.4350  220.0500 N   0  0  0  0  0  0  0  0  0  0  0  0
  145.4640   73.1380  219.9530 S   0  0  0  0  0  0  0  0  0  0  0  0
  145.9810   73.4100  218.5820 O   0  0  0  0  0  0  0  0  0  0  0  0
  146.4850   73.5460  220.9780 O   0  0  0  0  0  0  0  0  0  0  0  0
  144.0070   74.0770  220.2070 C   0  0  0  0  0  0  0  0  0  0  0  0
  143.9910   75.4000  219.8160 C   0  0  0  0  0  0  0  0  0  0  0  0
  142.8430   76.1150  220.0240 C   0  0  0  0  0  0  0  0  0  0  0  0
  141.7330   75.5390  220.6040 C   0  0  0  0  0  0  0  0  0  0  0  0
  141.7180   74.2020  221.0110 C   0  0  0  0  0  0  0  0  0  0  0  0
  140.5250   73.6280  221.6200 C   0  0  0  0  0  0  0  0  0  0  0  0
  140.4640   72.4440  222.1710 C   0  0  0  0  0  0  0  0  0  0  0  0
  139.1720   71.8970  222.6340 C   0  0  0  0  0  0  0  0  0  0  0  0
  138.0700   72.3100  221.9870 N   0  0  0  0  0  0  0  0  0  0  0  0
  136.8520   71.8800  222.3510 C   0  0  0  0  0  0  0  0  0  0  0  0
  135.6910   72.2750  221.7180 C   0  0  0  0  0  0  0  0  0  0  0  0
  134.4570   71.8150  222.1180 C   0  0  0  0  0  0  0  0  0  0  0  0
  133.0380   72.3840  221.2400 Cl  0  0  0  0  0  0  0  0  0  0  0  0
  134.3540   70.9330  223.1780 C   0  0  0  0  0  0  0  0  0  0  0  0
  135.5210   70.5510  223.7960 C   0  0  0  0  0  0  0  0  0  0  0  0
  136.7630   71.0010  223.4100 C   0  0  0  0  0  0  0  0  0  0  0  0
  137.9130   70.5980  224.0510 C   0  0  0  0  0  0  0  0  0  0  0  0
  137.8040   69.7880  225.0240 O   0  0  0  0  0  0  0  0  0  0  0  0
  139.1500   71.0410  223.6730 N   0  0  0  0  0  0  0  0  0  0  0  0
  140.2670   70.5880  224.3920 C   0  0  0  0  0  0  0  0  0  0  0  0
  140.3580   70.7210  225.8460 C   0  0  0  0  0  0  0  0  0  0  0  0
  140.9880   69.5480  226.5470 C   0  0  0  0  0  0  0  0  0  0  0  0
  140.8700   69.7340  228.0250 C   0  0  0  0  0  0  0  0  0  0  0  0
  140.5220   71.1450  228.3440 C   0  0  0  0  0  0  0  0  0  0  0  0
  141.2970   72.1780  227.5670 C   0  0  0  0  0  0  0  0  0  0  0  0
  141.3420   71.8870  226.1020 C   0  0  0  0  0  0  0  0  0  0  0  0
  142.8790   73.5000  220.7940 C   0  0  0  0  0  0  0  0  0  0  0  0
  144.5300   71.2750  220.8800 H   0  0  0  0  0  0  0  0  0  0  0  0
  146.0570   70.9560  220.1060 H   0  0  0  0  0  0  0  0  0  0  0  0
  144.8731   75.8653  219.3518 H   0  0  0  0  0  0  0  0  0  0  0  0
  142.8051   77.1720  219.7219 H   0  0  0  0  0  0  0  0  0  0  0  0
  140.8308   76.1508  220.7511 H   0  0  0  0  0  0  0  0  0  0  0  0
  139.6081   74.2358  221.6158 H   0  0  0  0  0  0  0  0  0  0  0  0
  141.3822   71.8502  222.2909 H   0  0  0  0  0  0  0  0  0  0  0  0
  135.7534   72.9754  220.8721 H   0  0  0  0  0  0  0  0  0  0  0  0
  133.3778   70.5525  223.5131 H   0  0  0  0  0  0  0  0  0  0  0  0
  135.4590   69.8503  224.6417 H   0  0  0  0  0  0  0  0  0  0  0  0
  140.3583   69.5136  224.1746 H   0  0  0  0  0  0  0  0  0  0  0  0
  141.0569   71.2716  224.0472 H   0  0  0  0  0  0  0  0  0  0  0  0
  139.3310   70.8418  226.2211 H   0  0  0  0  0  0  0  0  0  0  0  0
  140.4722   68.6227  226.2508 H   0  0  0  0  0  0  0  0  0  0  0  0
  142.0498   69.4790  226.2680 H   0  0  0  0  0  0  0  0  0  0  0  0
  140.0830   69.0702  228.4122 H   0  0  0  0  0  0  0  0  0  0  0  0
  141.8348   69.4897  228.4935 H   0  0  0  0  0  0  0  0  0  0  0  0
  139.4521   71.2897  228.1331 H   0  0  0  0  0  0  0  0  0  0  0  0
  140.7799   71.2959  229.4026 H   0  0  0  0  0  0  0  0  0  0  0  0
  140.8223   73.1590  227.7161 H   0  0  0  0  0  0  0  0  0  0  0  0
  142.3320   72.1648  227.9393 H   0  0  0  0  0  0  0  0  0  0  0  0
  141.0338   72.7747  225.5302 H   0  0  0  0  0  0  0  0  0  0  0  0
  142.3607   71.6200  225.7843 H   0  0  0  0  0  0  0  0  0  0  0  0
  142.9215   72.4426  221.0943 H   0  0  0  0  0  0  0  0  0  0  0  0
  1  2  1  0
  2  3  2  0
  2  4  2  0
  2  5  1  0
  5  6  2  0
  6  7  1  0
  7  8  2  0
  8  9  1  0
  9 10  1  0
 10 11  2  0
 11 12  1  0
 12 13  2  0
 13 14  1  0
 14 15  2  0
 15 16  1  0
 16 17  1  0
 16 18  2  0
 18 19  1  0
 19 20  2  0
 20 21  1  0
 21 22  2  0
 21 23  1  0
 23 24  1  0
 24 25  1  0
 25 26  1  0
 26 27  1  0
 27 28  1  0
 28 29  1  0
 29 30  1  0
  9 31  2  0
 31  5  1  0
 23 12  1  0
 30 25  1  0
 20 14  1  0
  1 32  1  0
  1 33  1  0
  6 34  1  0
  7 35  1  0
  8 36  1  0
 10 37  1  0
 11 38  1  0
 15 39  1  0
 18 40  1  0
 19 41  1  0
 24 42  1  0
 24 43  1  0
 25 44  1  0
 26 45  1  0
 26 46  1  0
 27 47  1  0
 27 48  1  0
 28 49  1  0
 28 50  1  0
 29 51  1  0
 29 52  1  0
 30 53  1  0
 30 54  1  0
 31 55  1  0
M  END
>  <smiles>  (37) 
NS(=O)(=O)c1cccc(/C=C/c2nc3cc(Cl)ccc3c(=O)n2CC2CCCCC2)c1

>  <score_type>  (37) 
oracle

>  <origin>  (37) 
autodockgpu

>  <m_score__min__energy>  (37) 
-8.9600000000000009

>  <m_primary>  (37) 
energy

>  <rmsd>  (37) 
11.129333184936314

>  <m_score__min__rmsd>  (37) 
11.129333184936314

>  <meeko>  (37) 
{"free_energy": -8.54, "intermolecular_energy": -10.63, "internal_energy": -1.15, "cluster_size": 6, "cluster_id": 3, "rank_in_cluster": 4}

>  <energy>  (37) 
-7.92

>  <cluster_rmsd>  (37) 
0.0

>  <cluster>  (37) 
12

$$$$

     RDKit          3D

 55 58  0  0  0  0  0  0  0  0999 V2000
  132.7700   74.3390  227.6100 N   0  0  0  0  0  0  0  0  0  0  0  0
  133.5030   73.9410  226.0880 S   0  0  0  0  0  0  0  0  0  0  0  0
  134.8300   74.6160  226.0490 O   0  0  0  0  0  0  0  0  0  0  0  0
  132.6500   74.4150  224.9440 O   0  0  0  0  0  0  0  0  0  0  0  0
  133.7420   72.2120  225.9310 C   0  0  0  0  0  0  0  0  0  0  0  0
  132.8950   71.3590  226.6060 C   0  0  0  0  0  0  0  0  0  0  0  0
  133.0990   70.0120  226.4690 C   0  0  0  0  0  0  0  0  0  0  0  0
  134.1170   69.5170  225.6820 C   0  0  0  0  0  0  0  0  0  0  0  0
  134.9920   70.3550  224.9860 C   0  0  0  0  0  0  0  0  0  0  0  0
  136.0560   69.7940  224.1650 C   0  0  0  0  0  0  0  0  0  0  0  0
  137.3150   70.1430  224.2330 C   0  0  0  0  0  0  0  0  0  0  0  0
  137.8190   71.2920  223.4530 C   0  0  0  0  0  0  0  0  0  0  0  0
  136.9140   71.9960  222.7540 N   0  0  0  0  0  0  0  0  0  0  0  0
  137.2840   73.0450  222.0030 C   0  0  0  0  0  0  0  0  0  0  0  0
  136.3930   73.8000  221.2670 C   0  0  0  0  0  0  0  0  0  0  0  0
  136.8060   74.8700  220.5070 C   0  0  0  0  0  0  0  0  0  0  0  0
  135.5840   75.7650  219.6060 Cl  0  0  0  0  0  0  0  0  0  0  0  0
  138.1440   75.2160  220.4640 C   0  0  0  0  0  0  0  0  0  0  0  0
  139.0170   74.4530  221.2040 C   0  0  0  0  0  0  0  0  0  0  0  0
  138.6220   73.3800  221.9690 C   0  0  0  0  0  0  0  0  0  0  0  0
  139.5220   72.6370  222.6980 C   0  0  0  0  0  0  0  0  0  0  0  0
  140.7480   72.9660  222.6500 O   0  0  0  0  0  0  0  0  0  0  0  0
  139.1370   71.5700  223.4610 N   0  0  0  0  0  0  0  0  0  0  0  0
  140.1240   70.8610  224.1610 C   0  0  0  0  0  0  0  0  0  0  0  0
  140.1110   70.7490  225.6200 C   0  0  0  0  0  0  0  0  0  0  0  0
  140.6440   69.4480  226.1560 C   0  0  0  0  0  0  0  0  0  0  0  0
  140.4220   69.3940  227.6330 C   0  0  0  0  0  0  0  0  0  0  0  0
  140.1020   70.7490  228.1580 C   0  0  0  0  0  0  0  0  0  0  0  0
  140.9710   71.8580  227.6200 C   0  0  0  0  0  0  0  0  0  0  0  0
  141.1150   71.8090  226.1330 C   0  0  0  0  0  0  0  0  0  0  0  0
  134.7710   71.7030  225.1360 C   0  0  0  0  0  0  0  0  0  0  0  0
  132.8440   73.5020  228.2270 H   0  0  0  0  0  0  0  0  0  0  0  0
  131.7950   74.6260  227.4100 H   0  0  0  0  0  0  0  0  0  0  0  0
  132.0808   71.7483  227.2349 H   0  0  0  0  0  0  0  0  0  0  0  0
  132.4370   69.3104  226.9977 H   0  0  0  0  0  0  0  0  0  0  0  0
  134.2445   68.4275  225.5994 H   0  0  0  0  0  0  0  0  0  0  0  0
  135.7808   69.0197  223.4338 H   0  0  0  0  0  0  0  0  0  0  0  0
  138.0041   69.5762  224.8763 H   0  0  0  0  0  0  0  0  0  0  0  0
  135.3246   73.5393  221.2887 H   0  0  0  0  0  0  0  0  0  0  0  0
  138.4960   76.0670  219.8624 H   0  0  0  0  0  0  0  0  0  0  0  0
  140.0854   74.7140  221.1830 H   0  0  0  0  0  0  0  0  0  0  0  0
  140.0974   69.8320  223.7730 H   0  0  0  0  0  0  0  0  0  0  0  0
  141.0188   71.4760  223.9847 H   0  0  0  0  0  0  0  0  0  0  0  0
  139.0640   70.8557  225.9400 H   0  0  0  0  0  0  0  0  0  0  0  0
  140.1190   68.6097  225.6747 H   0  0  0  0  0  0  0  0  0  0  0  0
  141.7206   69.3750  225.9424 H   0  0  0  0  0  0  0  0  0  0  0  0
  139.5847   68.7142  227.8493 H   0  0  0  0  0  0  0  0  0  0  0  0
  141.3390   69.0298  228.1191 H   0  0  0  0  0  0  0  0  0  0  0  0
  139.0573   70.9776  227.9006 H   0  0  0  0  0  0  0  0  0  0  0  0
  140.2841   70.7116  229.2422 H   0  0  0  0  0  0  0  0  0  0  0  0
  140.5224   72.8230  227.8984 H   0  0  0  0  0  0  0  0  0  0  0  0
  141.9738   71.7347  228.0549 H   0  0  0  0  0  0  0  0  0  0  0  0
  140.8828   72.7921  225.6977 H   0  0  0  0  0  0  0  0  0  0  0  0
  142.1443   71.5490  225.8450 H   0  0  0  0  0  0  0  0  0  0  0  0
  135.4304   72.4086  224.6093 H   0  0  0  0  0  0  0  0  0  0  0  0
  1  2  1  0
  2  3  2  0
  2  4  2  0
  2  5  1  0
  5  6  2  0
  6  7  1  0
  7  8  2  0
  8  9  1  0
  9 10  1  0
 10 11  2  0
 11 12  1  0
 12 13  2  0
 13 14  1  0
 14 15  2  0
 15 16  1  0
 16 17  1  0
 16 18  2  0
 18 19  1  0
 19 20  2  0
 20 21  1  0
 21 22  2  0
 21 23  1  0
 23 24  1  0
 24 25  1  0
 25 26  1  0
 26 27  1  0
 27 28  1  0
 28 29  1  0
 29 30  1  0
  9 31  2  0
 31  5  1  0
 23 12  1  0
 30 25  1  0
 20 14  1  0
  1 32  1  0
  1 33  1  0
  6 34  1  0
  7 35  1  0
  8 36  1  0
 10 37  1  0
 11 38  1  0
 15 39  1  0
 18 40  1  0
 19 41  1  0
 24 42  1  0
 24 43  1  0
 25 44  1  0
 26 45  1  0
 26 46  1  0
 27 47  1  0
 27 48  1  0
 28 49  1  0
 28 50  1  0
 29 51  1  0
 29 52  1  0
 30 53  1  0
 30 54  1  0
 31 55  1  0
M  END
>  <smiles>  (38) 
NS(=O)(=O)c1cccc(/C=C/c2nc3cc(Cl)ccc3c(=O)n2CC2CCCCC2)c1

>  <score_type>  (38) 
oracle

>  <origin>  (38) 
autodockgpu

>  <m_score__min__energy>  (38) 
-8.9600000000000009

>  <m_primary>  (38) 
energy

>  <rmsd>  (38) 
9.305094538115211

>  <m_score__min__rmsd>  (38) 
9.305094538115211

>  <meeko>  (38) 
{"free_energy": -8.03, "intermolecular_energy": -10.12, "internal_energy": -1.6, "cluster_size": 3, "cluster_id": 9, "rank_in_cluster": 1}

>  <energy>  (38) 
-7.85

>  <cluster_rmsd>  (38) 
0.0

>  <cluster>  (38) 
13

$$$$

     RDKit          3D

 55 58  0  0  0  0  0  0  0  0999 V2000
  145.9490   73.3280  218.7290 N   0  0  0  0  0  0  0  0  0  0  0  0
  145.1270   73.4440  220.2530 S   0  0  0  0  0  0  0  0  0  0  0  0
  146.0480   74.1340  221.1990 O   0  0  0  0  0  0  0  0  0  0  0  0
  144.7800   72.0780  220.7770 O   0  0  0  0  0  0  0  0  0  0  0  0
  143.6530   74.3810  220.1110 C   0  0  0  0  0  0  0  0  0  0  0  0
  143.7260   75.6640  219.6100 C   0  0  0  0  0  0  0  0  0  0  0  0
  142.5620   76.3780  219.5080 C   0  0  0  0  0  0  0  0  0  0  0  0
  141.3530   75.8390  219.8910 C   0  0  0  0  0  0  0  0  0  0  0  0
  141.2460   74.5430  220.4020 C   0  0  0  0  0  0  0  0  0  0  0  0
  139.9500   74.0090  220.7970 C   0  0  0  0  0  0  0  0  0  0  0  0
  139.2450   74.4330  221.8140 C   0  0  0  0  0  0  0  0  0  0  0  0
  139.1110   75.8800  222.0830 C   0  0  0  0  0  0  0  0  0  0  0  0
  140.2250   76.5370  222.4420 N   0  0  0  0  0  0  0  0  0  0  0  0
  140.1940   77.8490  222.7230 C   0  0  0  0  0  0  0  0  0  0  0  0
  141.3110   78.5690  223.0960 C   0  0  0  0  0  0  0  0  0  0  0  0
  141.2440   79.9140  223.3780 C   0  0  0  0  0  0  0  0  0  0  0  0
  142.7310   80.7370  223.8450 Cl  0  0  0  0  0  0  0  0  0  0  0  0
  140.0360   80.5830  223.2910 C   0  0  0  0  0  0  0  0  0  0  0  0
  138.9350   79.8500  222.9180 C   0  0  0  0  0  0  0  0  0  0  0  0
  138.9830   78.5040  222.6320 C   0  0  0  0  0  0  0  0  0  0  0  0
  137.8610   77.7990  222.2610 C   0  0  0  0  0  0  0  0  0  0  0  0
  136.7580   78.4250  222.1860 O   0  0  0  0  0  0  0  0  0  0  0  0
  137.9020   76.4630  221.9760 N   0  0  0  0  0  0  0  0  0  0  0  0
  136.7060   75.8220  221.6190 C   0  0  0  0  0  0  0  0  0  0  0  0
  135.8750   75.1290  222.6030 C   0  0  0  0  0  0  0  0  0  0  0  0
  136.2180   73.6780  222.8080 C   0  0  0  0  0  0  0  0  0  0  0  0
  135.1990   73.0510  223.7040 C   0  0  0  0  0  0  0  0  0  0  0  0
  134.4050   74.0990  224.3990 C   0  0  0  0  0  0  0  0  0  0  0  0
  135.2160   75.2430  224.9530 C   0  0  0  0  0  0  0  0  0  0  0  0
  136.1960   75.7890  223.9660 C   0  0  0  0  0  0  0  0  0  0  0  0
  142.4240   73.8420  220.4980 C   0  0  0  0  0  0  0  0  0  0  0  0
  146.2720   72.3440  218.6160 H   0  0  0  0  0  0  0  0  0  0  0  0
  146.7180   74.0220  218.7470 H   0  0  0  0  0  0  0  0  0  0  0  0
  144.6881   76.0996  219.3024 H   0  0  0  0  0  0  0  0  0  0  0  0
  142.5927   77.4037  219.1119 H   0  0  0  0  0  0  0  0  0  0  0  0
  140.4429   76.4487  219.7912 H   0  0  0  0  0  0  0  0  0  0  0  0
  139.5329   73.1880  220.1954 H   0  0  0  0  0  0  0  0  0  0  0  0
  138.7480   73.7069  222.4741 H   0  0  0  0  0  0  0  0  0  0  0  0
  142.2802   78.0540  223.1697 H   0  0  0  0  0  0  0  0  0  0  0  0
  139.9600   81.6580  223.5115 H   0  0  0  0  0  0  0  0  0  0  0  0
  137.9658   80.3650  222.8441 H   0  0  0  0  0  0  0  0  0  0  0  0
  136.0668   76.5934  221.1647 H   0  0  0  0  0  0  0  0  0  0  0  0
  137.0664   74.9912  220.9947 H   0  0  0  0  0  0  0  0  0  0  0  0
  134.8363   75.1952  222.2470 H   0  0  0  0  0  0  0  0  0  0  0  0
  136.2217   73.1607  221.8373 H   0  0  0  0  0  0  0  0  0  0  0  0
  137.2136   73.5964  223.2686 H   0  0  0  0  0  0  0  0  0  0  0  0
  134.5242   72.4242  223.1026 H   0  0  0  0  0  0  0  0  0  0  0  0
  135.7151   72.4366  224.4564 H   0  0  0  0  0  0  0  0  0  0  0  0
  133.6788   74.5099  223.6822 H   0  0  0  0  0  0  0  0  0  0  0  0
  133.9322   73.6079  225.2623 H   0  0  0  0  0  0  0  0  0  0  0  0
  134.5293   76.0495  225.2495 H   0  0  0  0  0  0  0  0  0  0  0  0
  135.7883   74.8588  225.8103 H   0  0  0  0  0  0  0  0  0  0  0  0
  136.0898   76.8814  223.8919 H   0  0  0  0  0  0  0  0  0  0  0  0
  137.2292   75.5723  224.2753 H   0  0  0  0  0  0  0  0  0  0  0  0
  142.3980   72.8165  220.8951 H   0  0  0  0  0  0  0  0  0  0  0  0
  1  2  1  0
  2  3  2  0
  2  4  2  0
  2  5  1  0
  5  6  2  0
  6  7  1  0
  7  8  2  0
  8  9  1  0
  9 10  1  0
 10 11  2  0
 11 12  1  0
 12 13  2  0
 13 14  1  0
 14 15  2  0
 15 16  1  0
 16 17  1  0
 16 18  2  0
 18 19  1  0
 19 20  2  0
 20 21  1  0
 21 22  2  0
 21 23  1  0
 23 24  1  0
 24 25  1  0
 25 26  1  0
 26 27  1  0
 27 28  1  0
 28 29  1  0
 29 30  1  0
  9 31  2  0
 31  5  1  0
 23 12  1  0
 30 25  1  0
 20 14  1  0
  1 32  1  0
  1 33  1  0
  6 34  1  0
  7 35  1  0
  8 36  1  0
 10 37  1  0
 11 38  1  0
 15 39  1  0
 18 40  1  0
 19 41  1  0
 24 42  1  0
 24 43  1  0
 25 44  1  0
 26 45  1  0
 26 46  1  0
 27 47  1  0
 27 48  1  0
 28 49  1  0
 28 50  1  0
 29 51  1  0
 29 52  1  0
 30 53  1  0
 30 54  1  0
 31 55  1  0
M  END
>  <smiles>  (39) 
NS(=O)(=O)c1cccc(/C=C/c2nc3cc(Cl)ccc3c(=O)n2CC2CCCCC2)c1

>  <score_type>  (39) 
oracle

>  <origin>  (39) 
autodockgpu

>  <m_score__min__energy>  (39) 
-8.9600000000000009

>  <m_primary>  (39) 
energy

>  <rmsd>  (39) 
6.09293056336944

>  <m_score__min__rmsd>  (39) 
6.09293056336944

>  <meeko>  (39) 
{"free_energy": -7.94, "intermolecular_energy": -10.03, "internal_energy": -1.6, "cluster_size": 7, "cluster_id": 1, "rank_in_cluster": 7}

>  <energy>  (39) 
-7.84

>  <cluster_rmsd>  (39) 
0.0

>  <cluster>  (39) 
14

$$$$

     RDKit          3D

 55 58  0  0  0  0  0  0  0  0999 V2000
  146.3550   73.4700  219.0270 N   0  0  0  0  0  0  0  0  0  0  0  0
  145.2730   73.2350  220.3650 S   0  0  0  0  0  0  0  0  0  0  0  0
  146.0230   73.5860  221.6040 O   0  0  0  0  0  0  0  0  0  0  0  0
  144.8090   71.8060  220.4310 O   0  0  0  0  0  0  0  0  0  0  0  0
  143.8690   74.2760  220.2370 C   0  0  0  0  0  0  0  0  0  0  0  0
  144.0350   75.5630  219.7710 C   0  0  0  0  0  0  0  0  0  0  0  0
  142.9250   76.3590  219.6800 C   0  0  0  0  0  0  0  0  0  0  0  0
  141.6770   75.8950  220.0400 C   0  0  0  0  0  0  0  0  0  0  0  0
  141.4770   74.5970  220.5160 C   0  0  0  0  0  0  0  0  0  0  0  0
  140.1430   74.1440  220.8870 C   0  0  0  0  0  0  0  0  0  0  0  0
  139.5040   74.5100  221.9670 C   0  0  0  0  0  0  0  0  0  0  0  0
  139.3620   75.9420  222.3060 C   0  0  0  0  0  0  0  0  0  0  0  0
  140.4920   76.6200  222.5610 N   0  0  0  0  0  0  0  0  0  0  0  0
  140.4570   77.9200  222.8950 C   0  0  0  0  0  0  0  0  0  0  0  0
  141.5900   78.6610  223.1660 C   0  0  0  0  0  0  0  0  0  0  0  0
  141.5200   79.9920  223.5070 C   0  0  0  0  0  0  0  0  0  0  0  0
  143.0280   80.8440  223.8320 Cl  0  0  0  0  0  0  0  0  0  0  0  0
  140.2930   80.6250  223.5850 C   0  0  0  0  0  0  0  0  0  0  0  0
  139.1750   79.8710  223.3120 C   0  0  0  0  0  0  0  0  0  0  0  0
  139.2270   78.5390  222.9700 C   0  0  0  0  0  0  0  0  0  0  0  0
  138.0890   77.8130  222.7030 C   0  0  0  0  0  0  0  0  0  0  0  0
  136.9680   78.4060  222.7790 O   0  0  0  0  0  0  0  0  0  0  0  0
  138.1330   76.4900  222.3620 N   0  0  0  0  0  0  0  0  0  0  0  0
  136.9220   75.8240  222.1200 C   0  0  0  0  0  0  0  0  0  0  0  0
  136.1840   75.1470  223.1850 C   0  0  0  0  0  0  0  0  0  0  0  0
  135.4100   76.0610  224.0960 C   0  0  0  0  0  0  0  0  0  0  0  0
  134.8430   75.2680  225.2280 C   0  0  0  0  0  0  0  0  0  0  0  0
  134.8920   73.8140  224.9180 C   0  0  0  0  0  0  0  0  0  0  0  0
  134.4570   73.4500  223.5210 C   0  0  0  0  0  0  0  0  0  0  0  0
  135.0930   74.3090  222.4760 C   0  0  0  0  0  0  0  0  0  0  0  0
  142.6030   73.8130  220.6000 C   0  0  0  0  0  0  0  0  0  0  0  0
  147.0990   74.1320  219.3330 H   0  0  0  0  0  0  0  0  0  0  0  0
  145.7850   73.8180  218.2350 H   0  0  0  0  0  0  0  0  0  0  0  0
  145.0277   75.9382  219.4816 H   0  0  0  0  0  0  0  0  0  0  0  0
  143.0306   77.3903  219.3121 H   0  0  0  0  0  0  0  0  0  0  0  0
  140.8119   76.5683  219.9494 H   0  0  0  0  0  0  0  0  0  0  0  0
  139.6362   73.4423  220.2083 H   0  0  0  0  0  0  0  0  0  0  0  0
  139.0686   73.7467  222.6287 H   0  0  0  0  0  0  0  0  0  0  0  0
  142.5747   78.1743  223.1077 H   0  0  0  0  0  0  0  0  0  0  0  0
  140.2140   81.6886  223.8545 H   0  0  0  0  0  0  0  0  0  0  0  0
  138.1901   80.3573  223.3700 H   0  0  0  0  0  0  0  0  0  0  0  0
  136.2365   76.5745  221.6994 H   0  0  0  0  0  0  0  0  0  0  0  0
  137.2436   74.9814  221.4902 H   0  0  0  0  0  0  0  0  0  0  0  0
  136.9240   74.5991  223.7869 H   0  0  0  0  0  0  0  0  0  0  0  0
  136.0800   76.8385  224.4917 H   0  0  0  0  0  0  0  0  0  0  0  0
  134.5924   76.5351  223.5332 H   0  0  0  0  0  0  0  0  0  0  0  0
  135.4292   75.4646  226.1378 H   0  0  0  0  0  0  0  0  0  0  0  0
  133.7951   75.5649  225.3822 H   0  0  0  0  0  0  0  0  0  0  0  0
  135.9278   73.4698  225.0544 H   0  0  0  0  0  0  0  0  0  0  0  0
  134.1795   73.3278  225.6006 H   0  0  0  0  0  0  0  0  0  0  0  0
  134.7305   72.4020  223.3292 H   0  0  0  0  0  0  0  0  0  0  0  0
  133.3695   73.6044  223.4610 H   0  0  0  0  0  0  0  0  0  0  0  0
  135.5464   73.6811  221.6949 H   0  0  0  0  0  0  0  0  0  0  0  0
  134.3481   74.9595  221.9945 H   0  0  0  0  0  0  0  0  0  0  0  0
  142.5026   72.7810  220.9674 H   0  0  0  0  0  0  0  0  0  0  0  0
  1  2  1  0
  2  3  2  0
  2  4  2  0
  2  5  1  0
  5  6  2  0
  6  7  1  0
  7  8  2  0
  8  9  1  0
  9 10  1  0
 10 11  2  0
 11 12  1  0
 12 13  2  0
 13 14  1  0
 14 15  2  0
 15 16  1  0
 16 17  1  0
 16 18  2  0
 18 19  1  0
 19 20  2  0
 20 21  1  0
 21 22  2  0
 21 23  1  0
 23 24  1  0
 24 25  1  0
 25 26  1  0
 26 27  1  0
 27 28  1  0
 28 29  1  0
 29 30  1  0
  9 31  2  0
 31  5  1  0
 23 12  1  0
 30 25  1  0
 20 14  1  0
  1 32  1  0
  1 33  1  0
  6 34  1  0
  7 35  1  0
  8 36  1  0
 10 37  1  0
 11 38  1  0
 15 39  1  0
 18 40  1  0
 19 41  1  0
 24 42  1  0
 24 43  1  0
 25 44  1  0
 26 45  1  0
 26 46  1  0
 27 47  1  0
 27 48  1  0
 28 49  1  0
 28 50  1  0
 29 51  1  0
 29 52  1  0
 30 53  1  0
 30 54  1  0
 31 55  1  0
M  END
>  <smiles>  (40) 
NS(=O)(=O)c1cccc(/C=C/c2nc3cc(Cl)ccc3c(=O)n2CC2CCCCC2)c1

>  <score_type>  (40) 
oracle

>  <origin>  (40) 
autodockgpu

>  <m_score__min__energy>  (40) 
-8.9600000000000009

>  <m_primary>  (40) 
energy

>  <rmsd>  (40) 
6.367177369613691

>  <m_score__min__rmsd>  (40) 
6.367177369613691

>  <meeko>  (40) 
{"free_energy": -8.96, "intermolecular_energy": -11.04, "internal_energy": -1.5, "cluster_size": 7, "cluster_id": 1, "rank_in_cluster": 1}

>  <energy>  (40) 
-7.82

>  <cluster_rmsd>  (40) 
0.0

>  <cluster>  (40) 
15

$$$$

     RDKit          3D

 55 58  0  0  0  0  0  0  0  0999 V2000
  146.3290   73.4200  218.9290 N   0  0  0  0  0  0  0  0  0  0  0  0
  145.3460   72.8210  220.2290 S   0  0  0  0  0  0  0  0  0  0  0  0
  146.1220   73.0040  221.4880 O   0  0  0  0  0  0  0  0  0  0  0  0
  145.0270   71.3650  220.0290 O   0  0  0  0  0  0  0  0  0  0  0  0
  143.8440   73.7130  220.3530 C   0  0  0  0  0  0  0  0  0  0  0  0
  143.7620   74.9630  219.7750 C   0  0  0  0  0  0  0  0  0  0  0  0
  142.5790   75.6430  219.8840 C   0  0  0  0  0  0  0  0  0  0  0  0
  141.4980   75.1010  220.5480 C   0  0  0  0  0  0  0  0  0  0  0  0
  141.5490   73.8380  221.1430 C   0  0  0  0  0  0  0  0  0  0  0  0
  140.3870   73.3000  221.8360 C   0  0  0  0  0  0  0  0  0  0  0  0
  140.4180   72.3080  222.6880 C   0  0  0  0  0  0  0  0  0  0  0  0
  139.2830   71.3660  222.7850 C   0  0  0  0  0  0  0  0  0  0  0  0
  138.2410   71.5830  221.9670 N   0  0  0  0  0  0  0  0  0  0  0  0
  137.1600   70.7890  222.0000 C   0  0  0  0  0  0  0  0  0  0  0  0
  136.0640   70.9710  221.1800 C   0  0  0  0  0  0  0  0  0  0  0  0
  134.9700   70.1380  221.2390 C   0  0  0  0  0  0  0  0  0  0  0  0
  133.6250   70.4610  220.1470 Cl  0  0  0  0  0  0  0  0  0  0  0  0
  134.9470   69.0840  222.1340 C   0  0  0  0  0  0  0  0  0  0  0  0
  136.0470   68.9190  222.9420 C   0  0  0  0  0  0  0  0  0  0  0  0
  137.1490   69.7420  222.8970 C   0  0  0  0  0  0  0  0  0  0  0  0
  138.2340   69.5480  223.7210 C   0  0  0  0  0  0  0  0  0  0  0  0
  138.2000   68.5770  224.5390 O   0  0  0  0  0  0  0  0  0  0  0  0
  139.3320   70.3610  223.6810 N   0  0  0  0  0  0  0  0  0  0  0  0
  140.3880   70.0980  224.5670 C   0  0  0  0  0  0  0  0  0  0  0  0
  140.3450   70.5120  225.9690 C   0  0  0  0  0  0  0  0  0  0  0  0
  140.7170   69.4390  226.9550 C   0  0  0  0  0  0  0  0  0  0  0  0
  140.4730   69.9350  228.3430 C   0  0  0  0  0  0  0  0  0  0  0  0
  140.3060   71.4140  228.3420 C   0  0  0  0  0  0  0  0  0  0  0  0
  141.3040   72.1620  227.4950 C   0  0  0  0  0  0  0  0  0  0  0  0
  141.4580   71.5750  226.1290 C   0  0  0  0  0  0  0  0  0  0  0  0
  142.7450   73.1710  221.0230 C   0  0  0  0  0  0  0  0  0  0  0  0
  147.0010   74.1090  219.3310 H   0  0  0  0  0  0  0  0  0  0  0  0
  145.6860   73.8250  218.2250 H   0  0  0  0  0  0  0  0  0  0  0  0
  144.6203   75.3995  219.2432 H   0  0  0  0  0  0  0  0  0  0  0  0
  142.4884   76.6421  219.4329 H   0  0  0  0  0  0  0  0  0  0  0  0
  140.5660   75.6819  220.6110 H   0  0  0  0  0  0  0  0  0  0  0  0
  139.4107   73.7620  221.6276 H   0  0  0  0  0  0  0  0  0  0  0  0
  141.2956   72.1737  223.3374 H   0  0  0  0  0  0  0  0  0  0  0  0
  136.0653   71.8034  220.4609 H   0  0  0  0  0  0  0  0  0  0  0  0
  134.0837   68.4052  222.1969 H   0  0  0  0  0  0  0  0  0  0  0  0
  136.0462   68.0867  223.6612 H   0  0  0  0  0  0  0  0  0  0  0  0
  140.5206   69.0060  224.5724 H   0  0  0  0  0  0  0  0  0  0  0  0
  141.1912   70.7322  224.1636 H   0  0  0  0  0  0  0  0  0  0  0  0
  139.3133   70.8326  226.1758 H   0  0  0  0  0  0  0  0  0  0  0  0
  140.1043   68.5439  226.7720 H   0  0  0  0  0  0  0  0  0  0  0  0
  141.7806   69.1843  226.8373 H   0  0  0  0  0  0  0  0  0  0  0  0
  139.5601   69.4672  228.7401 H   0  0  0  0  0  0  0  0  0  0  0  0
  141.3358   69.6731  228.9730 H   0  0  0  0  0  0  0  0  0  0  0  0
  139.2979   71.6444  227.9669 H   0  0  0  0  0  0  0  0  0  0  0  0
  140.4694   71.7449  229.3782 H   0  0  0  0  0  0  0  0  0  0  0  0
  140.9681   73.2046  227.3939 H   0  0  0  0  0  0  0  0  0  0  0  0
  142.2807   72.0954  227.9966 H   0  0  0  0  0  0  0  0  0  0  0  0
  141.3452   72.3588  225.3655 H   0  0  0  0  0  0  0  0  0  0  0  0
  142.4537   71.1247  226.0037 H   0  0  0  0  0  0  0  0  0  0  0  0
  142.8401   72.1714  221.4722 H   0  0  0  0  0  0  0  0  0  0  0  0
  1  2  1  0
  2  3  2  0
  2  4  2  0
  2  5  1  0
  5  6  2  0
  6  7  1  0
  7  8  2  0
  8  9  1  0
  9 10  1  0
 10 11  2  0
 11 12  1  0
 12 13  2  0
 13 14  1  0
 14 15  2  0
 15 16  1  0
 16 17  1  0
 16 18  2  0
 18 19  1  0
 19 20  2  0
 20 21  1  0
 21 22  2  0
 21 23  1  0
 23 24  1  0
 24 25  1  0
 25 26  1  0
 26 27  1  0
 27 28  1  0
 28 29  1  0
 29 30  1  0
  9 31  2  0
 31  5  1  0
 23 12  1  0
 30 25  1  0
 20 14  1  0
  1 32  1  0
  1 33  1  0
  6 34  1  0
  7 35  1  0
  8 36  1  0
 10 37  1  0
 11 38  1  0
 15 39  1  0
 18 40  1  0
 19 41  1  0
 24 42  1  0
 24 43  1  0
 25 44  1  0
 26 45  1  0
 26 46  1  0
 27 47  1  0
 27 48  1  0
 28 49  1  0
 28 50  1  0
 29 51  1  0
 29 52  1  0
 30 53  1  0
 30 54  1  0
 31 55  1  0
M  END
>  <smiles>  (41) 
NS(=O)(=O)c1cccc(/C=C/c2nc3cc(Cl)ccc3c(=O)n2CC2CCCCC2)c1

>  <score_type>  (41) 
oracle

>  <origin>  (41) 
autodockgpu

>  <m_score__min__energy>  (41) 
-8.9600000000000009

>  <m_primary>  (41) 
energy

>  <rmsd>  (41) 
11.755069891938964

>  <m_score__min__rmsd>  (41) 
11.755069891938964

>  <meeko>  (41) 
{"free_energy": -8.6, "intermolecular_energy": -10.69, "internal_energy": -1.25, "cluster_size": 6, "cluster_id": 3, "rank_in_cluster": 3}

>  <energy>  (41) 
-7.55

>  <cluster_rmsd>  (41) 
0.57

>  <cluster>  (41) 
15

$$$$

     RDKit          3D

 55 58  0  0  0  0  0  0  0  0999 V2000
  142.1850   78.7860  221.2930 N   0  0  0  0  0  0  0  0  0  0  0  0
  141.0370   78.3590  222.5230 S   0  0  0  0  0  0  0  0  0  0  0  0
  139.9790   79.4080  222.5200 O   0  0  0  0  0  0  0  0  0  0  0  0
  141.6980   78.2990  223.8720 O   0  0  0  0  0  0  0  0  0  0  0  0
  140.2980   76.8060  222.1910 C   0  0  0  0  0  0  0  0  0  0  0  0
  138.9220   76.7190  222.1500 C   0  0  0  0  0  0  0  0  0  0  0  0
  138.3650   75.4950  221.8890 C   0  0  0  0  0  0  0  0  0  0  0  0
  139.1490   74.3820  221.6720 C   0  0  0  0  0  0  0  0  0  0  0  0
  140.5440   74.4380  221.7060 C   0  0  0  0  0  0  0  0  0  0  0  0
  141.3380   73.2390  221.4720 C   0  0  0  0  0  0  0  0  0  0  0  0
  141.5010   72.6670  220.3070 C   0  0  0  0  0  0  0  0  0  0  0  0
  142.7890   72.0330  219.9560 C   0  0  0  0  0  0  0  0  0  0  0  0
  142.7930   70.6960  219.8290 N   0  0  0  0  0  0  0  0  0  0  0  0
  143.9220   70.0340  219.5310 C   0  0  0  0  0  0  0  0  0  0  0  0
  143.9780   68.6620  219.3890 C   0  0  0  0  0  0  0  0  0  0  0  0
  145.1520   68.0130  219.0820 C   0  0  0  0  0  0  0  0  0  0  0  0
  145.1120   66.2590  218.9240 Cl  0  0  0  0  0  0  0  0  0  0  0  0
  146.3190   68.7350  218.9070 C   0  0  0  0  0  0  0  0  0  0  0  0
  146.2440   70.1010  219.0520 C   0  0  0  0  0  0  0  0  0  0  0  0
  145.0790   70.7660  219.3580 C   0  0  0  0  0  0  0  0  0  0  0  0
  145.0380   72.1340  219.4960 C   0  0  0  0  0  0  0  0  0  0  0  0
  146.1170   72.7850  219.3330 O   0  0  0  0  0  0  0  0  0  0  0  0
  143.8840   72.8010  219.8000 N   0  0  0  0  0  0  0  0  0  0  0  0
  143.9380   74.1970  219.9350 C   0  0  0  0  0  0  0  0  0  0  0  0
  143.6800   75.0940  218.8080 C   0  0  0  0  0  0  0  0  0  0  0  0
  142.7300   74.5530  217.7760 C   0  0  0  0  0  0  0  0  0  0  0  0
  142.6830   75.4850  216.6090 C   0  0  0  0  0  0  0  0  0  0  0  0
  143.2720   76.8010  216.9740 C   0  0  0  0  0  0  0  0  0  0  0  0
  142.8420   77.3360  218.3170 C   0  0  0  0  0  0  0  0  0  0  0  0
  142.9370   76.3140  219.4030 C   0  0  0  0  0  0  0  0  0  0  0  0
  141.0840   75.6740  221.9700 C   0  0  0  0  0  0  0  0  0  0  0  0
  142.7290   77.9290  221.0550 H   0  0  0  0  0  0  0  0  0  0  0  0
  142.7640   79.5560  221.6730 H   0  0  0  0  0  0  0  0  0  0  0  0
  138.2920   77.6043  222.3214 H   0  0  0  0  0  0  0  0  0  0  0  0
  137.2699   75.3982  221.8518 H   0  0  0  0  0  0  0  0  0  0  0  0
  138.6599   73.4186  221.4654 H   0  0  0  0  0  0  0  0  0  0  0  0
  141.8371   72.7811  222.3388 H   0  0  0  0  0  0  0  0  0  0  0  0
  140.6730   72.6578  219.5829 H   0  0  0  0  0  0  0  0  0  0  0  0
  143.0597   68.0718  219.5249 H   0  0  0  0  0  0  0  0  0  0  0  0
  147.2686   68.2369  218.6618 H   0  0  0  0  0  0  0  0  0  0  0  0
  147.1621   70.6916  218.9164 H   0  0  0  0  0  0  0  0  0  0  0  0
  143.2055   74.4601  220.7123 H   0  0  0  0  0  0  0  0  0  0  0  0
  145.0069   74.3699  220.1288 H   0  0  0  0  0  0  0  0  0  0  0  0
  144.6488   75.2849  218.3232 H   0  0  0  0  0  0  0  0  0  0  0  0
  143.0753   73.5635  217.4420 H   0  0  0  0  0  0  0  0  0  0  0  0
  141.7251   74.4607  218.2137 H   0  0  0  0  0  0  0  0  0  0  0  0
  143.2539   75.0509  215.7750 H   0  0  0  0  0  0  0  0  0  0  0  0
  141.6343   75.6329  216.3118 H   0  0  0  0  0  0  0  0  0  0  0  0
  144.3669   76.6953  216.9824 H   0  0  0  0  0  0  0  0  0  0  0  0
  142.9110   77.5204  216.2242 H   0  0  0  0  0  0  0  0  0  0  0  0
  143.4862   78.1884  218.5788 H   0  0  0  0  0  0  0  0  0  0  0  0
  141.7865   77.6340  218.2331 H   0  0  0  0  0  0  0  0  0  0  0  0
  143.4996   76.7202  220.2566 H   0  0  0  0  0  0  0  0  0  0  0  0
  141.9378   76.0289  219.7640 H   0  0  0  0  0  0  0  0  0  0  0  0
  142.1787   75.7751  222.0086 H   0  0  0  0  0  0  0  0  0  0  0  0
  1  2  1  0
  2  3  2  0
  2  4  2  0
  2  5  1  0
  5  6  2  0
  6  7  1  0
  7  8  2  0
  8  9  1  0
  9 10  1  0
 10 11  2  0
 11 12  1  0
 12 13  2  0
 13 14  1  0
 14 15  2  0
 15 16  1  0
 16 17  1  0
 16 18  2  0
 18 19  1  0
 19 20  2  0
 20 21  1  0
 21 22  2  0
 21 23  1  0
 23 24  1  0
 24 25  1  0
 25 26  1  0
 26 27  1  0
 27 28  1  0
 28 29  1  0
 29 30  1  0
  9 31  2  0
 31  5  1  0
 23 12  1  0
 30 25  1  0
 20 14  1  0
  1 32  1  0
  1 33  1  0
  6 34  1  0
  7 35  1  0
  8 36  1  0
 10 37  1  0
 11 38  1  0
 15 39  1  0
 18 40  1  0
 19 41  1  0
 24 42  1  0
 24 43  1  0
 25 44  1  0
 26 45  1  0
 26 46  1  0
 27 47  1  0
 27 48  1  0
 28 49  1  0
 28 50  1  0
 29 51  1  0
 29 52  1  0
 30 53  1  0
 30 54  1  0
 31 55  1  0
M  END
>  <smiles>  (42) 
NS(=O)(=O)c1cccc(/C=C/c2nc3cc(Cl)ccc3c(=O)n2CC2CCCCC2)c1

>  <score_type>  (42) 
oracle

>  <origin>  (42) 
autodockgpu

>  <m_score__min__energy>  (42) 
-8.9600000000000009

>  <m_primary>  (42) 
energy

>  <rmsd>  (42) 
9.7521306370457

>  <m_score__min__rmsd>  (42) 
9.7521306370457

>  <meeko>  (42) 
{"free_energy": -7.82, "intermolecular_energy": -9.91, "internal_energy": -1.83, "cluster_size": 2, "cluster_id": 15, "rank_in_cluster": 1}

>  <energy>  (42) 
-7.61

>  <cluster_rmsd>  (42) 
0.0

>  <cluster>  (42) 
16

$$$$

     RDKit          3D

 55 58  0  0  0  0  0  0  0  0999 V2000
  141.8120   72.6770  227.4910 N   0  0  0  0  0  0  0  0  0  0  0  0
  140.7070   71.3520  227.6840 S   0  0  0  0  0  0  0  0  0  0  0  0
  139.5810   71.8380  228.5310 O   0  0  0  0  0  0  0  0  0  0  0  0
  141.3830   70.1850  228.3480 O   0  0  0  0  0  0  0  0  0  0  0  0
  140.0680   70.8270  226.1400 C   0  0  0  0  0  0  0  0  0  0  0  0
  139.1000   69.8450  226.1180 C   0  0  0  0  0  0  0  0  0  0  0  0
  138.6150   69.4500  224.9000 C   0  0  0  0  0  0  0  0  0  0  0  0
  139.0750   70.0110  223.7280 C   0  0  0  0  0  0  0  0  0  0  0  0
  140.0550   71.0070  223.7170 C   0  0  0  0  0  0  0  0  0  0  0  0
  140.5160   71.5760  222.4570 C   0  0  0  0  0  0  0  0  0  0  0  0
  139.7570   72.2120  221.6030 C   0  0  0  0  0  0  0  0  0  0  0  0
  139.3090   73.5930  221.8790 C   0  0  0  0  0  0  0  0  0  0  0  0
  140.2660   74.5180  222.0560 N   0  0  0  0  0  0  0  0  0  0  0  0
  139.9520   75.7940  222.3300 C   0  0  0  0  0  0  0  0  0  0  0  0
  140.8990   76.7810  222.5210 C   0  0  0  0  0  0  0  0  0  0  0  0
  140.5430   78.0800  222.8000 C   0  0  0  0  0  0  0  0  0  0  0  0
  141.8320   79.2600  223.0250 Cl  0  0  0  0  0  0  0  0  0  0  0  0
  139.2080   78.4290  222.8970 C   0  0  0  0  0  0  0  0  0  0  0  0
  138.2800   77.4330  222.7040 C   0  0  0  0  0  0  0  0  0  0  0  0
  138.6180   76.1290  222.4240 C   0  0  0  0  0  0  0  0  0  0  0  0
  137.6630   75.1560  222.2370 C   0  0  0  0  0  0  0  0  0  0  0  0
  136.4410   75.4900  222.3290 O   0  0  0  0  0  0  0  0  0  0  0  0
  137.9910   73.8580  221.9570 N   0  0  0  0  0  0  0  0  0  0  0  0
  136.9520   72.9290  221.7950 C   0  0  0  0  0  0  0  0  0  0  0  0
  136.3530   72.2300  222.9310 C   0  0  0  0  0  0  0  0  0  0  0  0
  135.1460   72.9060  223.5220 C   0  0  0  0  0  0  0  0  0  0  0  0
  134.7350   72.1870  224.7660 C   0  0  0  0  0  0  0  0  0  0  0  0
  135.3840   70.8490  224.8290 C   0  0  0  0  0  0  0  0  0  0  0  0
  135.3680   70.0770  223.5350 C   0  0  0  0  0  0  0  0  0  0  0  0
  135.8020   70.8990  222.3650 C   0  0  0  0  0  0  0  0  0  0  0  0
  140.5290   71.3910  224.9480 C   0  0  0  0  0  0  0  0  0  0  0  0
  142.5670   72.5660  228.2010 H   0  0  0  0  0  0  0  0  0  0  0  0
  141.2620   73.5480  227.5980 H   0  0  0  0  0  0  0  0  0  0  0  0
  138.7291   69.3932  227.0498 H   0  0  0  0  0  0  0  0  0  0  0  0
  137.8421   68.6686  224.8559 H   0  0  0  0  0  0  0  0  0  0  0  0
  138.6575   69.6638  222.7714 H   0  0  0  0  0  0  0  0  0  0  0  0
  141.5809   71.4621  222.2059 H   0  0  0  0  0  0  0  0  0  0  0  0
  139.4494   71.7149  220.6712 H   0  0  0  0  0  0  0  0  0  0  0  0
  141.9655   76.5216  222.4481 H   0  0  0  0  0  0  0  0  0  0  0  0
  138.9012   79.4616  223.1196 H   0  0  0  0  0  0  0  0  0  0  0  0
  137.2134   77.6918  222.7771 H   0  0  0  0  0  0  0  0  0  0  0  0
  136.1319   73.4679  221.2980 H   0  0  0  0  0  0  0  0  0  0  0  0
  137.4557   72.1105  221.2599 H   0  0  0  0  0  0  0  0  0  0  0  0
  137.1287   72.1601  223.7078 H   0  0  0  0  0  0  0  0  0  0  0  0
  135.3924   73.9500  223.7657 H   0  0  0  0  0  0  0  0  0  0  0  0
  134.3203   72.8855  222.7955 H   0  0  0  0  0  0  0  0  0  0  0  0
  135.0369   72.7782  225.6431 H   0  0  0  0  0  0  0  0  0  0  0  0
  133.6430   72.0545  224.7579 H   0  0  0  0  0  0  0  0  0  0  0  0
  136.4325   70.9911  225.1296 H   0  0  0  0  0  0  0  0  0  0  0  0
  134.8020   70.2564  225.5502 H   0  0  0  0  0  0  0  0  0  0  0  0
  136.0463   69.2163  223.6308 H   0  0  0  0  0  0  0  0  0  0  0  0
  134.3307   69.7605  223.3509 H   0  0  0  0  0  0  0  0  0  0  0  0
  136.5878   70.3726  221.8034 H   0  0  0  0  0  0  0  0  0  0  0  0
  134.9623   71.0806  221.6780 H   0  0  0  0  0  0  0  0  0  0  0  0
  141.3014   72.1727  224.9969 H   0  0  0  0  0  0  0  0  0  0  0  0
  1  2  1  0
  2  3  2  0
  2  4  2  0
  2  5  1  0
  5  6  2  0
  6  7  1  0
  7  8  2  0
  8  9  1  0
  9 10  1  0
 10 11  2  0
 11 12  1  0
 12 13  2  0
 13 14  1  0
 14 15  2  0
 15 16  1  0
 16 17  1  0
 16 18  2  0
 18 19  1  0
 19 20  2  0
 20 21  1  0
 21 22  2  0
 21 23  1  0
 23 24  1  0
 24 25  1  0
 25 26  1  0
 26 27  1  0
 27 28  1  0
 28 29  1  0
 29 30  1  0
  9 31  2  0
 31  5  1  0
 23 12  1  0
 30 25  1  0
 20 14  1  0
  1 32  1  0
  1 33  1  0
  6 34  1  0
  7 35  1  0
  8 36  1  0
 10 37  1  0
 11 38  1  0
 15 39  1  0
 18 40  1  0
 19 41  1  0
 24 42  1  0
 24 43  1  0
 25 44  1  0
 26 45  1  0
 26 46  1  0
 27 47  1  0
 27 48  1  0
 28 49  1  0
 28 50  1  0
 29 51  1  0
 29 52  1  0
 30 53  1  0
 30 54  1  0
 31 55  1  0
M  END
>  <smiles>  (43) 
NS(=O)(=O)c1cccc(/C=C/c2nc3cc(Cl)ccc3c(=O)n2CC2CCCCC2)c1

>  <score_type>  (43) 
oracle

>  <origin>  (43) 
autodockgpu

>  <m_score__min__energy>  (43) 
-8.9600000000000009

>  <m_primary>  (43) 
energy

>  <rmsd>  (43) 
7.260453112633274

>  <m_score__min__rmsd>  (43) 
7.260453112633274

>  <meeko>  (43) 
{"free_energy": -7.85, "intermolecular_energy": -9.94, "internal_energy": -2.14, "cluster_size": 5, "cluster_id": 4, "rank_in_cluster": 5}

>  <energy>  (43) 
-7.47

>  <cluster_rmsd>  (43) 
0.0

>  <cluster>  (43) 
17

$$$$

     RDKit          3D

 55 58  0  0  0  0  0  0  0  0999 V2000
  143.2240   78.9290  217.5110 N   0  0  0  0  0  0  0  0  0  0  0  0
  141.7210   78.9230  218.3800 S   0  0  0  0  0  0  0  0  0  0  0  0
  141.6770   77.6630  219.1730 O   0  0  0  0  0  0  0  0  0  0  0  0
  140.5560   78.9750  217.4310 O   0  0  0  0  0  0  0  0  0  0  0  0
  141.6150   80.2860  219.4750 C   0  0  0  0  0  0  0  0  0  0  0  0
  141.2490   81.5170  218.9720 C   0  0  0  0  0  0  0  0  0  0  0  0
  141.1720   82.5690  219.8440 C   0  0  0  0  0  0  0  0  0  0  0  0
  141.4490   82.4110  221.1860 C   0  0  0  0  0  0  0  0  0  0  0  0
  141.8220   81.1770  221.7260 C   0  0  0  0  0  0  0  0  0  0  0  0
  142.1070   81.0490  223.1490 C   0  0  0  0  0  0  0  0  0  0  0  0
  141.8050   80.0080  223.8800 C   0  0  0  0  0  0  0  0  0  0  0  0
  140.8920   78.9670  223.3640 C   0  0  0  0  0  0  0  0  0  0  0  0
  141.4570   77.8630  222.8510 N   0  0  0  0  0  0  0  0  0  0  0  0
  140.7050   76.8740  222.3420 C   0  0  0  0  0  0  0  0  0  0  0  0
  141.2380   75.7200  221.8030 C   0  0  0  0  0  0  0  0  0  0  0  0
  140.4380   74.7250  221.2890 C   0  0  0  0  0  0  0  0  0  0  0  0
  141.2230   73.2930  220.6260 Cl  0  0  0  0  0  0  0  0  0  0  0  0
  139.0620   74.8630  221.3040 C   0  0  0  0  0  0  0  0  0  0  0  0
  138.5500   76.0190  221.8440 C   0  0  0  0  0  0  0  0  0  0  0  0
  139.3340   77.0240  222.3620 C   0  0  0  0  0  0  0  0  0  0  0  0
  138.7880   78.1690  222.8960 C   0  0  0  0  0  0  0  0  0  0  0  0
  137.5230   78.2830  222.9030 O   0  0  0  0  0  0  0  0  0  0  0  0
  139.5610   79.1710  223.4130 N   0  0  0  0  0  0  0  0  0  0  0  0
  138.9200   80.3100  223.9250 C   0  0  0  0  0  0  0  0  0  0  0  0
  138.5520   81.4400  223.0730 C   0  0  0  0  0  0  0  0  0  0  0  0
  138.1940   81.0730  221.6580 C   0  0  0  0  0  0  0  0  0  0  0  0
  138.0020   82.3190  220.8570 C   0  0  0  0  0  0  0  0  0  0  0  0
  137.8540   83.4950  221.7560 C   0  0  0  0  0  0  0  0  0  0  0  0
  136.9450   83.2760  222.9390 C   0  0  0  0  0  0  0  0  0  0  0  0
  137.2350   82.0010  223.6620 C   0  0  0  0  0  0  0  0  0  0  0  0
  141.8940   80.1340  220.8340 C   0  0  0  0  0  0  0  0  0  0  0  0
  143.7640   79.7660  217.8170 H   0  0  0  0  0  0  0  0  0  0  0  0
  142.9910   78.9270  216.5020 H   0  0  0  0  0  0  0  0  0  0  0  0
  141.0259   81.6491  217.9030 H   0  0  0  0  0  0  0  0  0  0  0  0
  140.8832   83.5611  219.4668 H   0  0  0  0  0  0  0  0  0  0  0  0
  141.3740   83.2833  221.8519 H   0  0  0  0  0  0  0  0  0  0  0  0
  142.6136   81.8901  223.6449 H   0  0  0  0  0  0  0  0  0  0  0  0
  142.2342   79.9062  224.8877 H   0  0  0  0  0  0  0  0  0  0  0  0
  142.3304   75.5925  221.7839 H   0  0  0  0  0  0  0  0  0  0  0  0
  138.4039   74.0795  220.9002 H   0  0  0  0  0  0  0  0  0  0  0  0
  137.4576   76.1470  221.8629 H   0  0  0  0  0  0  0  0  0  0  0  0
  137.9868   79.9564  224.3878 H   0  0  0  0  0  0  0  0  0  0  0  0
  139.7010   80.7472  224.5644 H   0  0  0  0  0  0  0  0  0  0  0  0
  139.4185   82.1172  223.0492 H   0  0  0  0  0  0  0  0  0  0  0  0
  139.0050   80.4746  221.2175 H   0  0  0  0  0  0  0  0  0  0  0  0
  137.2636   80.4862  221.6543 H   0  0  0  0  0  0  0  0  0  0  0  0
  138.8750   82.4688  220.2047 H   0  0  0  0  0  0  0  0  0  0  0  0
  137.0903   82.2165  220.2501 H   0  0  0  0  0  0  0  0  0  0  0  0
  138.8510   83.7632  222.1355 H   0  0  0  0  0  0  0  0  0  0  0  0
  137.3911   84.2898  221.1526 H   0  0  0  0  0  0  0  0  0  0  0  0
  137.0716   84.1144  223.6398 H   0  0  0  0  0  0  0  0  0  0  0  0
  135.9146   83.2149  222.5589 H   0  0  0  0  0  0  0  0  0  0  0  0
  137.3543   82.1950  224.7382 H   0  0  0  0  0  0  0  0  0  0  0  0
  136.4112   81.2825  223.5393 H   0  0  0  0  0  0  0  0  0  0  0  0
  142.1830   79.1399  221.2059 H   0  0  0  0  0  0  0  0  0  0  0  0
  1  2  1  0
  2  3  2  0
  2  4  2  0
  2  5  1  0
  5  6  2  0
  6  7  1  0
  7  8  2  0
  8  9  1  0
  9 10  1  0
 10 11  2  0
 11 12  1  0
 12 13  2  0
 13 14  1  0
 14 15  2  0
 15 16  1  0
 16 17  1  0
 16 18  2  0
 18 19  1  0
 19 20  2  0
 20 21  1  0
 21 22  2  0
 21 23  1  0
 23 24  1  0
 24 25  1  0
 25 26  1  0
 26 27  1  0
 27 28  1  0
 28 29  1  0
 29 30  1  0
  9 31  2  0
 31  5  1  0
 23 12  1  0
 30 25  1  0
 20 14  1  0
  1 32  1  0
  1 33  1  0
  6 34  1  0
  7 35  1  0
  8 36  1  0
 10 37  1  0
 11 38  1  0
 15 39  1  0
 18 40  1  0
 19 41  1  0
 24 42  1  0
 24 43  1  0
 25 44  1  0
 26 45  1  0
 26 46  1  0
 27 47  1  0
 27 48  1  0
 28 49  1  0
 28 50  1  0
 29 51  1  0
 29 52  1  0
 30 53  1  0
 30 54  1  0
 31 55  1  0
M  END
>  <smiles>  (44) 
NS(=O)(=O)c1cccc(/C=C/c2nc3cc(Cl)ccc3c(=O)n2CC2CCCCC2)c1

>  <score_type>  (44) 
oracle

>  <origin>  (44) 
autodockgpu

>  <m_score__min__energy>  (44) 
-8.9600000000000009

>  <m_primary>  (44) 
energy

>  <rmsd>  (44) 
6.940717476460411

>  <m_score__min__rmsd>  (44) 
6.940717476460411

>  <meeko>  (44) 
{"free_energy": -6.83, "intermolecular_energy": -8.92, "internal_energy": -2.81, "cluster_size": 1, "cluster_id": 18, "rank_in_cluster": 1}

>  <energy>  (44) 
-7.1

>  <cluster_rmsd>  (44) 
0.47

>  <cluster>  (44) 
17

$$$$

     RDKit          3D

 55 58  0  0  0  0  0  0  0  0999 V2000
  135.6890   74.9600  224.7800 N   0  0  0  0  0  0  0  0  0  0  0  0
  134.2250   74.3680  225.5000 S   0  0  0  0  0  0  0  0  0  0  0  0
  133.1250   74.6120  224.5250 O   0  0  0  0  0  0  0  0  0  0  0  0
  133.9370   75.0850  226.7900 O   0  0  0  0  0  0  0  0  0  0  0  0
  134.3260   72.6490  225.8230 C   0  0  0  0  0  0  0  0  0  0  0  0
  133.7340   72.1500  226.9640 C   0  0  0  0  0  0  0  0  0  0  0  0
  133.8250   70.8040  227.1980 C   0  0  0  0  0  0  0  0  0  0  0  0
  134.4860   69.9670  226.3230 C   0  0  0  0  0  0  0  0  0  0  0  0
  135.0960   70.4420  225.1590 C   0  0  0  0  0  0  0  0  0  0  0  0
  135.7850   69.5270  224.2600 C   0  0  0  0  0  0  0  0  0  0  0  0
  137.0800   69.4910  224.0790 C   0  0  0  0  0  0  0  0  0  0  0  0
  137.7890   70.6490  223.4960 C   0  0  0  0  0  0  0  0  0  0  0  0
  137.0420   71.5510  222.8410 N   0  0  0  0  0  0  0  0  0  0  0  0
  137.6040   72.6250  222.2630 C   0  0  0  0  0  0  0  0  0  0  0  0
  136.8800   73.5800  221.5790 C   0  0  0  0  0  0  0  0  0  0  0  0
  137.4870   74.6700  220.9980 C   0  0  0  0  0  0  0  0  0  0  0  0
  136.4680   75.8290  220.1470 Cl  0  0  0  0  0  0  0  0  0  0  0  0
  138.8570   74.8330  221.0910 C   0  0  0  0  0  0  0  0  0  0  0  0
  139.5620   73.8720  221.7760 C   0  0  0  0  0  0  0  0  0  0  0  0
  138.9710   72.7760  222.3630 C   0  0  0  0  0  0  0  0  0  0  0  0
  139.7060   71.8320  223.0430 C   0  0  0  0  0  0  0  0  0  0  0  0
  140.9640   71.9930  223.1200 O   0  0  0  0  0  0  0  0  0  0  0  0
  139.1260   70.7410  223.6280 N   0  0  0  0  0  0  0  0  0  0  0  0
  139.9540   69.8210  224.2900 C   0  0  0  0  0  0  0  0  0  0  0  0
  140.3850   70.0230  225.6730 C   0  0  0  0  0  0  0  0  0  0  0  0
  140.3700   71.4540  226.1360 C   0  0  0  0  0  0  0  0  0  0  0  0
  140.9840   71.5420  227.4950 C   0  0  0  0  0  0  0  0  0  0  0  0
  141.0710   70.1910  228.1120 C   0  0  0  0  0  0  0  0  0  0  0  0
  139.8350   69.3430  227.9550 C   0  0  0  0  0  0  0  0  0  0  0  0
  139.3170   69.3300  226.5530 C   0  0  0  0  0  0  0  0  0  0  0  0
  134.9940   71.7950  224.9430 C   0  0  0  0  0  0  0  0  0  0  0  0
  135.4300   75.4710  223.9090 H   0  0  0  0  0  0  0  0  0  0  0  0
  136.3000   74.1400  224.6180 H   0  0  0  0  0  0  0  0  0  0  0  0
  133.2050   72.8128  227.6646 H   0  0  0  0  0  0  0  0  0  0  0  0
  133.3617   70.3816  228.1018 H   0  0  0  0  0  0  0  0  0  0  0  0
  134.5344   68.8915  226.5488 H   0  0  0  0  0  0  0  0  0  0  0  0
  135.1711   68.8133  223.6910 H   0  0  0  0  0  0  0  0  0  0  0  0
  137.6458   68.5914  224.3631 H   0  0  0  0  0  0  0  0  0  0  0  0
  135.7890   73.4671  221.4959 H   0  0  0  0  0  0  0  0  0  0  0  0
  139.3625   75.6971  220.6351 H   0  0  0  0  0  0  0  0  0  0  0  0
  140.6531   73.9844  221.8592 H   0  0  0  0  0  0  0  0  0  0  0  0
  139.4222   68.8583  224.2705 H   0  0  0  0  0  0  0  0  0  0  0  0
  140.8992   69.9201  223.7362 H   0  0  0  0  0  0  0  0  0  0  0  0
  141.4153   69.6444  225.7446 H   0  0  0  0  0  0  0  0  0  0  0  0
  140.9455   72.0735  225.4324 H   0  0  0  0  0  0  0  0  0  0  0  0
  139.3321   71.8160  226.1775 H   0  0  0  0  0  0  0  0  0  0  0  0
  141.9948   71.9674  227.4094 H   0  0  0  0  0  0  0  0  0  0  0  0
  140.3564   72.1849  228.1297 H   0  0  0  0  0  0  0  0  0  0  0  0
  141.9135   69.6568  227.6484 H   0  0  0  0  0  0  0  0  0  0  0  0
  141.2005   70.3521  229.1924 H   0  0  0  0  0  0  0  0  0  0  0  0
  140.0766   68.3113  228.2502 H   0  0  0  0  0  0  0  0  0  0  0  0
  139.0518   69.7769  228.5939 H   0  0  0  0  0  0  0  0  0  0  0  0
  139.1633   68.2942  226.2161 H   0  0  0  0  0  0  0  0  0  0  0  0
  138.3513   69.8524  226.4851 H   0  0  0  0  0  0  0  0  0  0  0  0
  135.4568   72.2224  224.0413 H   0  0  0  0  0  0  0  0  0  0  0  0
  1  2  1  0
  2  3  2  0
  2  4  2  0
  2  5  1  0
  5  6  2  0
  6  7  1  0
  7  8  2  0
  8  9  1  0
  9 10  1  0
 10 11  2  0
 11 12  1  0
 12 13  2  0
 13 14  1  0
 14 15  2  0
 15 16  1  0
 16 17  1  0
 16 18  2  0
 18 19  1  0
 19 20  2  0
 20 21  1  0
 21 22  2  0
 21 23  1  0
 23 24  1  0
 24 25  1  0
 25 26  1  0
 26 27  1  0
 27 28  1  0
 28 29  1  0
 29 30  1  0
  9 31  2  0
 31  5  1  0
 23 12  1  0
 30 25  1  0
 20 14  1  0
  1 32  1  0
  1 33  1  0
  6 34  1  0
  7 35  1  0
  8 36  1  0
 10 37  1  0
 11 38  1  0
 15 39  1  0
 18 40  1  0
 19 41  1  0
 24 42  1  0
 24 43  1  0
 25 44  1  0
 26 45  1  0
 26 46  1  0
 27 47  1  0
 27 48  1  0
 28 49  1  0
 28 50  1  0
 29 51  1  0
 29 52  1  0
 30 53  1  0
 30 54  1  0
 31 55  1  0
M  END
>  <smiles>  (45) 
NS(=O)(=O)c1cccc(/C=C/c2nc3cc(Cl)ccc3c(=O)n2CC2CCCCC2)c1

>  <score_type>  (45) 
oracle

>  <origin>  (45) 
autodockgpu

>  <m_score__min__energy>  (45) 
-8.9600000000000009

>  <m_primary>  (45) 
energy

>  <rmsd>  (45) 
9.172921266814392

>  <m_score__min__rmsd>  (45) 
9.172921266814392

>  <meeko>  (45) 
{"free_energy": -7.73, "intermolecular_energy": -9.82, "internal_energy": -2.03, "cluster_size": 3, "cluster_id": 9, "rank_in_cluster": 3}

>  <energy>  (45) 
-7.07

>  <cluster_rmsd>  (45) 
0.93

>  <cluster>  (45) 
17

$$$$

     RDKit          3D

 55 58  0  0  0  0  0  0  0  0999 V2000
  146.6880   73.6120  219.2660 N   0  0  0  0  0  0  0  0  0  0  0  0
  145.5020   72.9580  220.3520 S   0  0  0  0  0  0  0  0  0  0  0  0
  146.0800   73.0200  221.7240 O   0  0  0  0  0  0  0  0  0  0  0  0
  145.1790   71.5340  219.9950 O   0  0  0  0  0  0  0  0  0  0  0  0
  144.0230   73.8960  220.3170 C   0  0  0  0  0  0  0  0  0  0  0  0
  144.0380   75.1410  219.7250 C   0  0  0  0  0  0  0  0  0  0  0  0
  142.8720   75.8580  219.7090 C   0  0  0  0  0  0  0  0  0  0  0  0
  141.7130   75.3560  220.2630 C   0  0  0  0  0  0  0  0  0  0  0  0
  141.6660   74.0980  220.8700 C   0  0  0  0  0  0  0  0  0  0  0  0
  140.4230   73.6020  221.4460 C   0  0  0  0  0  0  0  0  0  0  0  0
  140.3430   72.6750  222.3650 C   0  0  0  0  0  0  0  0  0  0  0  0
  140.1910   71.2550  221.9870 C   0  0  0  0  0  0  0  0  0  0  0  0
  140.7920   70.8590  220.8540 N   0  0  0  0  0  0  0  0  0  0  0  0
  140.6920   69.5920  220.4240 C   0  0  0  0  0  0  0  0  0  0  0  0
  141.2920   69.1370  219.2670 C   0  0  0  0  0  0  0  0  0  0  0  0
  141.1690   67.8300  218.8530 C   0  0  0  0  0  0  0  0  0  0  0  0
  141.9760   67.3550  217.3610 Cl  0  0  0  0  0  0  0  0  0  0  0  0
  140.4310   66.9310  219.6020 C   0  0  0  0  0  0  0  0  0  0  0  0
  139.8400   67.4020  220.7510 C   0  0  0  0  0  0  0  0  0  0  0  0
  139.9530   68.7060  221.1790 C   0  0  0  0  0  0  0  0  0  0  0  0
  139.3490   69.1450  222.3360 C   0  0  0  0  0  0  0  0  0  0  0  0
  138.6730   68.3100  223.0130 O   0  0  0  0  0  0  0  0  0  0  0  0
  139.4570   70.4380  222.7670 N   0  0  0  0  0  0  0  0  0  0  0  0
  138.7970   70.8010  223.9510 C   0  0  0  0  0  0  0  0  0  0  0  0
  139.4200   70.6420  225.2650 C   0  0  0  0  0  0  0  0  0  0  0  0
  139.9070   69.2510  225.5670 C   0  0  0  0  0  0  0  0  0  0  0  0
  140.3640   69.1850  226.9880 C   0  0  0  0  0  0  0  0  0  0  0  0
  140.5490   70.5550  227.5370 C   0  0  0  0  0  0  0  0  0  0  0  0
  141.2590   71.5150  226.6160 C   0  0  0  0  0  0  0  0  0  0  0  0
  140.7110   71.4940  225.2260 C   0  0  0  0  0  0  0  0  0  0  0  0
  142.8460   73.3950  220.8770 C   0  0  0  0  0  0  0  0  0  0  0  0
  147.1060   74.4510  219.7210 H   0  0  0  0  0  0  0  0  0  0  0  0
  146.2020   73.8170  218.3750 H   0  0  0  0  0  0  0  0  0  0  0  0
  144.9586   75.5457  219.2792 H   0  0  0  0  0  0  0  0  0  0  0  0
  142.8592   76.8551  219.2447 H   0  0  0  0  0  0  0  0  0  0  0  0
  140.7974   75.9645  220.2260 H   0  0  0  0  0  0  0  0  0  0  0  0
  139.4822   74.0396  221.0808 H   0  0  0  0  0  0  0  0  0  0  0  0
  140.3893   72.9548  223.4278 H   0  0  0  0  0  0  0  0  0  0  0  0
  141.8841   69.8375  218.6598 H   0  0  0  0  0  0  0  0  0  0  0  0
  140.3213   65.8816  219.2910 H   0  0  0  0  0  0  0  0  0  0  0  0
  139.2474   66.7022  221.3585 H   0  0  0  0  0  0  0  0  0  0  0  0
  138.5534   71.8692  223.8528 H   0  0  0  0  0  0  0  0  0  0  0  0
  137.9778   70.0681  223.9932 H   0  0  0  0  0  0  0  0  0  0  0  0
  138.6619   70.9167  226.0132 H   0  0  0  0  0  0  0  0  0  0  0  0
  139.0883   68.5331  225.4107 H   0  0  0  0  0  0  0  0  0  0  0  0
  140.7442   69.0007  224.8989 H   0  0  0  0  0  0  0  0  0  0  0  0
  139.6100   68.6532  227.5870 H   0  0  0  0  0  0  0  0  0  0  0  0
  141.3248   68.6510  227.0295 H   0  0  0  0  0  0  0  0  0  0  0  0
  139.5557   70.9697  227.7638 H   0  0  0  0  0  0  0  0  0  0  0  0
  141.1883   70.4486  228.4258 H   0  0  0  0  0  0  0  0  0  0  0  0
  141.1542   72.5327  227.0201 H   0  0  0  0  0  0  0  0  0  0  0  0
  142.3130   71.2048  226.5619 H   0  0  0  0  0  0  0  0  0  0  0  0
  140.4792   72.5172  224.8952 H   0  0  0  0  0  0  0  0  0  0  0  0
  141.4414   71.0703  224.5210 H   0  0  0  0  0  0  0  0  0  0  0  0
  142.8645   72.3983  221.3420 H   0  0  0  0  0  0  0  0  0  0  0  0
  1  2  1  0
  2  3  2  0
  2  4  2  0
  2  5  1  0
  5  6  2  0
  6  7  1  0
  7  8  2  0
  8  9  1  0
  9 10  1  0
 10 11  2  0
 11 12  1  0
 12 13  2  0
 13 14  1  0
 14 15  2  0
 15 16  1  0
 16 17  1  0
 16 18  2  0
 18 19  1  0
 19 20  2  0
 20 21  1  0
 21 22  2  0
 21 23  1  0
 23 24  1  0
 24 25  1  0
 25 26  1  0
 26 27  1  0
 27 28  1  0
 28 29  1  0
 29 30  1  0
  9 31  2  0
 31  5  1  0
 23 12  1  0
 30 25  1  0
 20 14  1  0
  1 32  1  0
  1 33  1  0
  6 34  1  0
  7 35  1  0
  8 36  1  0
 10 37  1  0
 11 38  1  0
 15 39  1  0
 18 40  1  0
 19 41  1  0
 24 42  1  0
 24 43  1  0
 25 44  1  0
 26 45  1  0
 26 46  1  0
 27 47  1  0
 27 48  1  0
 28 49  1  0
 28 50  1  0
 29 51  1  0
 29 52  1  0
 30 53  1  0
 30 54  1  0
 31 55  1  0
M  END
>  <smiles>  (46) 
NS(=O)(=O)c1cccc(/C=C/c2nc3cc(Cl)ccc3c(=O)n2CC2CCCCC2)c1

>  <score_type>  (46) 
oracle

>  <origin>  (46) 
autodockgpu

>  <m_score__min__energy>  (46) 
-8.9600000000000009

>  <m_primary>  (46) 
energy

>  <rmsd>  (46) 
12.046837678532142

>  <m_score__min__rmsd>  (46) 
12.046837678532142

>  <meeko>  (46) 
{"free_energy": -8.21, "intermolecular_energy": -10.3, "internal_energy": -1.55, "cluster_size": 1, "cluster_id": 8, "rank_in_cluster": 1}

>  <energy>  (46) 
-6.99

>  <cluster_rmsd>  (46) 
0.46

>  <cluster>  (46) 
17

$$$$

     RDKit          3D

 55 58  0  0  0  0  0  0  0  0999 V2000
  144.4360   72.1910  220.9010 N   0  0  0  0  0  0  0  0  0  0  0  0
  145.2230   73.5300  220.1260 S   0  0  0  0  0  0  0  0  0  0  0  0
  146.2250   72.9640  219.1800 O   0  0  0  0  0  0  0  0  0  0  0  0
  145.9080   74.4050  221.1380 O   0  0  0  0  0  0  0  0  0  0  0  0
  144.0790   74.5040  219.2240 C   0  0  0  0  0  0  0  0  0  0  0  0
  143.6200   74.0390  218.0100 C   0  0  0  0  0  0  0  0  0  0  0  0
  142.7270   74.8160  217.3220 C   0  0  0  0  0  0  0  0  0  0  0  0
  142.2950   76.0260  217.8210 C   0  0  0  0  0  0  0  0  0  0  0  0
  142.7420   76.5250  219.0480 C   0  0  0  0  0  0  0  0  0  0  0  0
  142.2630   77.8090  219.5410 C   0  0  0  0  0  0  0  0  0  0  0  0
  141.3230   78.5230  218.9770 C   0  0  0  0  0  0  0  0  0  0  0  0
  141.5220   79.9660  218.7310 C   0  0  0  0  0  0  0  0  0  0  0  0
  142.2170   80.3050  217.6340 N   0  0  0  0  0  0  0  0  0  0  0  0
  142.4620   81.5920  217.3410 C   0  0  0  0  0  0  0  0  0  0  0  0
  143.1710   81.9920  216.2260 C   0  0  0  0  0  0  0  0  0  0  0  0
  143.4050   83.3200  215.9540 C   0  0  0  0  0  0  0  0  0  0  0  0
  144.3220   83.7190  214.5030 Cl  0  0  0  0  0  0  0  0  0  0  0  0
  142.9260   84.2980  216.8070 C   0  0  0  0  0  0  0  0  0  0  0  0
  142.2220   83.8810  217.9130 C   0  0  0  0  0  0  0  0  0  0  0  0
  141.9790   82.5580  218.1990 C   0  0  0  0  0  0  0  0  0  0  0  0
  141.2710   82.1750  219.3150 C   0  0  0  0  0  0  0  0  0  0  0  0
  140.8370   83.0820  220.0900 O   0  0  0  0  0  0  0  0  0  0  0  0
  141.0250   80.8610  219.6060 N   0  0  0  0  0  0  0  0  0  0  0  0
  140.3050   80.5620  220.7720 C   0  0  0  0  0  0  0  0  0  0  0  0
  140.9730   80.2550  222.0380 C   0  0  0  0  0  0  0  0  0  0  0  0
  140.9440   78.8030  222.4300 C   0  0  0  0  0  0  0  0  0  0  0  0
  141.5060   78.6500  223.8060 C   0  0  0  0  0  0  0  0  0  0  0  0
  142.2460   79.8790  224.2020 C   0  0  0  0  0  0  0  0  0  0  0  0
  143.1480   80.4460  223.1350 C   0  0  0  0  0  0  0  0  0  0  0  0
  142.4730   80.5540  221.8050 C   0  0  0  0  0  0  0  0  0  0  0  0
  143.6380   75.7310  219.7230 C   0  0  0  0  0  0  0  0  0  0  0  0
  145.0350   71.8890  221.6980 H   0  0  0  0  0  0  0  0  0  0  0  0
  144.3010   71.4610  220.1790 H   0  0  0  0  0  0  0  0  0  0  0  0
  143.9606   73.0739  217.6067 H   0  0  0  0  0  0  0  0  0  0  0  0
  142.3463   74.4673  216.3507 H   0  0  0  0  0  0  0  0  0  0  0  0
  141.5759   76.6176  217.2354 H   0  0  0  0  0  0  0  0  0  0  0  0
  142.7260   78.2081  220.4555 H   0  0  0  0  0  0  0  0  0  0  0  0
  140.3767   78.0450  218.6836 H   0  0  0  0  0  0  0  0  0  0  0  0
  143.5594   81.2281  215.5364 H   0  0  0  0  0  0  0  0  0  0  0  0
  143.1009   85.3658  216.6090 H   0  0  0  0  0  0  0  0  0  0  0  0
  141.8339   84.6444  218.6034 H   0  0  0  0  0  0  0  0  0  0  0  0
  139.6597   81.4312  220.9670 H   0  0  0  0  0  0  0  0  0  0  0  0
  139.8401   79.5985  220.5161 H   0  0  0  0  0  0  0  0  0  0  0  0
  140.4618   80.8369  222.8191 H   0  0  0  0  0  0  0  0  0  0  0  0
  139.9060   78.4393  222.4148 H   0  0  0  0  0  0  0  0  0  0  0  0
  141.5465   78.2181  221.7195 H   0  0  0  0  0  0  0  0  0  0  0  0
  140.6841   78.4767  224.5163 H   0  0  0  0  0  0  0  0  0  0  0  0
  142.1995   77.7962  223.8161 H   0  0  0  0  0  0  0  0  0  0  0  0
  141.5092   80.6498  224.4722 H   0  0  0  0  0  0  0  0  0  0  0  0
  142.8995   79.5906  225.0385 H   0  0  0  0  0  0  0  0  0  0  0  0
  143.4738   81.4494  223.4466 H   0  0  0  0  0  0  0  0  0  0  0  0
  143.9991   79.7587  223.0203 H   0  0  0  0  0  0  0  0  0  0  0  0
  142.5980   81.5684  221.3984 H   0  0  0  0  0  0  0  0  0  0  0  0
  142.9084   79.8471  221.0834 H   0  0  0  0  0  0  0  0  0  0  0  0
  144.0226   76.0757  220.6942 H   0  0  0  0  0  0  0  0  0  0  0  0
  1  2  1  0
  2  3  2  0
  2  4  2  0
  2  5  1  0
  5  6  2  0
  6  7  1  0
  7  8  2  0
  8  9  1  0
  9 10  1  0
 10 11  2  0
 11 12  1  0
 12 13  2  0
 13 14  1  0
 14 15  2  0
 15 16  1  0
 16 17  1  0
 16 18  2  0
 18 19  1  0
 19 20  2  0
 20 21  1  0
 21 22  2  0
 21 23  1  0
 23 24  1  0
 24 25  1  0
 25 26  1  0
 26 27  1  0
 27 28  1  0
 28 29  1  0
 29 30  1  0
  9 31  2  0
 31  5  1  0
 23 12  1  0
 30 25  1  0
 20 14  1  0
  1 32  1  0
  1 33  1  0
  6 34  1  0
  7 35  1  0
  8 36  1  0
 10 37  1  0
 11 38  1  0
 15 39  1  0
 18 40  1  0
 19 41  1  0
 24 42  1  0
 24 43  1  0
 25 44  1  0
 26 45  1  0
 26 46  1  0
 27 47  1  0
 27 48  1  0
 28 49  1  0
 28 50  1  0
 29 51  1  0
 29 52  1  0
 30 53  1  0
 30 54  1  0
 31 55  1  0
M  END
>  <smiles>  (47) 
NS(=O)(=O)c1cccc(/C=C/c2nc3cc(Cl)ccc3c(=O)n2CC2CCCCC2)c1

>  <score_type>  (47) 
oracle

>  <origin>  (47) 
autodockgpu

>  <m_score__min__energy>  (47) 
-8.9600000000000009

>  <m_primary>  (47) 
energy

>  <rmsd>  (47) 
5.96499887984499

>  <m_score__min__rmsd>  (47) 
5.96499887984499

>  <meeko>  (47) 
{"free_energy": -7.85, "intermolecular_energy": -9.94, "internal_energy": -1.56, "cluster_size": 1, "cluster_id": 13, "rank_in_cluster": 1}

>  <energy>  (47) 
-6.67

>  <cluster_rmsd>  (47) 
0.56

>  <cluster>  (47) 
17

$$$$

     RDKit          3D

 55 58  0  0  0  0  0  0  0  0999 V2000
  139.3040   67.2250  226.4100 N   0  0  0  0  0  0  0  0  0  0  0  0
  139.9180   68.8480  226.3910 S   0  0  0  0  0  0  0  0  0  0  0  0
  141.3820   68.7620  226.1260 O   0  0  0  0  0  0  0  0  0  0  0  0
  139.6740   69.5270  227.7100 O   0  0  0  0  0  0  0  0  0  0  0  0
  139.1680   69.7970  225.1240 C   0  0  0  0  0  0  0  0  0  0  0  0
  137.8490   69.5540  224.8030 C   0  0  0  0  0  0  0  0  0  0  0  0
  137.2820   70.3070  223.8100 C   0  0  0  0  0  0  0  0  0  0  0  0
  138.0000   71.2790  223.1470 C   0  0  0  0  0  0  0  0  0  0  0  0
  139.3380   71.5480  223.4480 C   0  0  0  0  0  0  0  0  0  0  0  0
  140.0640   72.5830  222.7250 C   0  0  0  0  0  0  0  0  0  0  0  0
  139.5420   73.3660  221.8170 C   0  0  0  0  0  0  0  0  0  0  0  0
  139.2910   74.7930  222.1110 C   0  0  0  0  0  0  0  0  0  0  0  0
  140.3670   75.5690  222.3170 N   0  0  0  0  0  0  0  0  0  0  0  0
  140.2340   76.8730  222.6080 C   0  0  0  0  0  0  0  0  0  0  0  0
  141.3070   77.7120  222.8280 C   0  0  0  0  0  0  0  0  0  0  0  0
  141.1360   79.0440  223.1240 C   0  0  0  0  0  0  0  0  0  0  0  0
  142.5760   80.0260  223.3860 Cl  0  0  0  0  0  0  0  0  0  0  0  0
  139.8630   79.5790  223.2090 C   0  0  0  0  0  0  0  0  0  0  0  0
  138.8060   78.7280  222.9870 C   0  0  0  0  0  0  0  0  0  0  0  0
  138.9590   77.3930  222.6890 C   0  0  0  0  0  0  0  0  0  0  0  0
  137.8780   76.5690  222.4720 C   0  0  0  0  0  0  0  0  0  0  0  0
  136.7150   77.0720  222.5540 O   0  0  0  0  0  0  0  0  0  0  0  0
  138.0230   75.2420  222.1760 N   0  0  0  0  0  0  0  0  0  0  0  0
  136.8650   74.4730  221.9830 C   0  0  0  0  0  0  0  0  0  0  0  0
  136.1100   73.9160  223.1060 C   0  0  0  0  0  0  0  0  0  0  0  0
  135.3340   74.9260  223.9060 C   0  0  0  0  0  0  0  0  0  0  0  0
  134.7490   74.2610  225.1090 C   0  0  0  0  0  0  0  0  0  0  0  0
  134.7890   72.7820  224.9530 C   0  0  0  0  0  0  0  0  0  0  0  0
  134.3660   72.2770  223.5970 C   0  0  0  0  0  0  0  0  0  0  0  0
  135.0200   73.0160  222.4750 C   0  0  0  0  0  0  0  0  0  0  0  0
  139.8890   70.7830  224.4480 C   0  0  0  0  0  0  0  0  0  0  0  0
  138.2650   67.2790  226.4590 H   0  0  0  0  0  0  0  0  0  0  0  0
  139.7370   66.7470  227.2210 H   0  0  0  0  0  0  0  0  0  0  0  0
  137.2707   68.7796  225.3282 H   0  0  0  0  0  0  0  0  0  0  0  0
  136.2312   70.1326  223.5355 H   0  0  0  0  0  0  0  0  0  0  0  0
  137.5044   71.8612  222.3562 H   0  0  0  0  0  0  0  0  0  0  0  0
  141.1303   72.7159  222.9601 H   0  0  0  0  0  0  0  0  0  0  0  0
  139.2877   72.9598  220.8269 H   0  0  0  0  0  0  0  0  0  0  0  0
  142.3268   77.3044  222.7649 H   0  0  0  0  0  0  0  0  0  0  0  0
  139.7030   80.6415  223.4445 H   0  0  0  0  0  0  0  0  0  0  0  0
  137.7860   79.1349  223.0508 H   0  0  0  0  0  0  0  0  0  0  0  0
  136.1624   75.1087  221.4242 H   0  0  0  0  0  0  0  0  0  0  0  0
  137.2650   73.5686  221.5013 H   0  0  0  0  0  0  0  0  0  0  0  0
  136.8383   73.4291  223.7712 H   0  0  0  0  0  0  0  0  0  0  0  0
  136.0059   75.7365  224.2248 H   0  0  0  0  0  0  0  0  0  0  0  0
  134.5261   75.3434  223.2870 H   0  0  0  0  0  0  0  0  0  0  0  0
  135.3278   74.5476  225.9994 H   0  0  0  0  0  0  0  0  0  0  0  0
  133.7023   74.5805  225.2206 H   0  0  0  0  0  0  0  0  0  0  0  0
  135.8204   72.4464  225.1365 H   0  0  0  0  0  0  0  0  0  0  0  0
  134.0650   72.3751  225.6743 H   0  0  0  0  0  0  0  0  0  0  0  0
  134.6323   71.2126  223.5194 H   0  0  0  0  0  0  0  0  0  0  0  0
  133.2807   72.4331  223.5088 H   0  0  0  0  0  0  0  0  0  0  0  0
  135.4769   72.3062  221.7697 H   0  0  0  0  0  0  0  0  0  0  0  0
  134.2861   73.6171  221.9181 H   0  0  0  0  0  0  0  0  0  0  0  0
  140.9392   70.9543  224.7267 H   0  0  0  0  0  0  0  0  0  0  0  0
  1  2  1  0
  2  3  2  0
  2  4  2  0
  2  5  1  0
  5  6  2  0
  6  7  1  0
  7  8  2  0
  8  9  1  0
  9 10  1  0
 10 11  2  0
 11 12  1  0
 12 13  2  0
 13 14  1  0
 14 15  2  0
 15 16  1  0
 16 17  1  0
 16 18  2  0
 18 19  1  0
 19 20  2  0
 20 21  1  0
 21 22  2  0
 21 23  1  0
 23 24  1  0
 24 25  1  0
 25 26  1  0
 26 27  1  0
 27 28  1  0
 28 29  1  0
 29 30  1  0
  9 31  2  0
 31  5  1  0
 23 12  1  0
 30 25  1  0
 20 14  1  0
  1 32  1  0
  1 33  1  0
  6 34  1  0
  7 35  1  0
  8 36  1  0
 10 37  1  0
 11 38  1  0
 15 39  1  0
 18 40  1  0
 19 41  1  0
 24 42  1  0
 24 43  1  0
 25 44  1  0
 26 45  1  0
 26 46  1  0
 27 47  1  0
 27 48  1  0
 28 49  1  0
 28 50  1  0
 29 51  1  0
 29 52  1  0
 30 53  1  0
 30 54  1  0
 31 55  1  0
M  END
>  <smiles>  (48) 
NS(=O)(=O)c1cccc(/C=C/c2nc3cc(Cl)ccc3c(=O)n2CC2CCCCC2)c1

>  <score_type>  (48) 
oracle

>  <origin>  (48) 
autodockgpu

>  <m_score__min__energy>  (48) 
-8.9600000000000009

>  <m_primary>  (48) 
energy

>  <rmsd>  (48) 
6.679071386768886

>  <m_score__min__rmsd>  (48) 
6.679071386768886

>  <meeko>  (48) 
{"free_energy": -8.12, "intermolecular_energy": -10.2, "internal_energy": -1.88, "cluster_size": 5, "cluster_id": 4, "rank_in_cluster": 2}

>  <energy>  (48) 
-6.83

>  <cluster_rmsd>  (48) 
0.0

>  <cluster>  (48) 
18

$$$$

     RDKit          3D

 55 58  0  0  0  0  0  0  0  0999 V2000
  143.0010   79.6370  217.5160 N   0  0  0  0  0  0  0  0  0  0  0  0
  142.1730   81.1570  217.6580 S   0  0  0  0  0  0  0  0  0  0  0  0
  140.8800   81.0220  216.9300 O   0  0  0  0  0  0  0  0  0  0  0  0
  142.9890   82.2670  217.0570 O   0  0  0  0  0  0  0  0  0  0  0  0
  141.8420   81.5460  219.3340 C   0  0  0  0  0  0  0  0  0  0  0  0
  141.2370   82.7490  219.6300 C   0  0  0  0  0  0  0  0  0  0  0  0
  140.9890   83.0340  220.9460 C   0  0  0  0  0  0  0  0  0  0  0  0
  141.3280   82.1500  221.9490 C   0  0  0  0  0  0  0  0  0  0  0  0
  141.9420   80.9240  221.6800 C   0  0  0  0  0  0  0  0  0  0  0  0
  142.2870   80.0170  222.7660 C   0  0  0  0  0  0  0  0  0  0  0  0
  141.5660   78.9910  223.1400 C   0  0  0  0  0  0  0  0  0  0  0  0
  140.0930   79.0950  223.2110 C   0  0  0  0  0  0  0  0  0  0  0  0
  139.5890   80.1300  223.9020 N   0  0  0  0  0  0  0  0  0  0  0  0
  138.2630   80.2930  224.0340 C   0  0  0  0  0  0  0  0  0  0  0  0
  137.6960   81.3390  224.7330 C   0  0  0  0  0  0  0  0  0  0  0  0
  136.3320   81.4770  224.8500 C   0  0  0  0  0  0  0  0  0  0  0  0
  135.7150   82.8500  225.7660 Cl  0  0  0  0  0  0  0  0  0  0  0  0
  135.4880   80.5550  224.2580 C   0  0  0  0  0  0  0  0  0  0  0  0
  136.0700   79.5200  223.5660 C   0  0  0  0  0  0  0  0  0  0  0  0
  137.4320   79.3660  223.4390 C   0  0  0  0  0  0  0  0  0  0  0  0
  137.9830   78.3180  222.7380 C   0  0  0  0  0  0  0  0  0  0  0  0
  137.1960   77.4780  222.2000 O   0  0  0  0  0  0  0  0  0  0  0  0
  139.3350   78.1600  222.6080 N   0  0  0  0  0  0  0  0  0  0  0  0
  139.8090   77.0530  221.8870 C   0  0  0  0  0  0  0  0  0  0  0  0
  140.2060   77.1570  220.4820 C   0  0  0  0  0  0  0  0  0  0  0  0
  139.8090   78.4420  219.8080 C   0  0  0  0  0  0  0  0  0  0  0  0
  140.1220   78.3530  218.3500 C   0  0  0  0  0  0  0  0  0  0  0  0
  141.0430   77.2150  218.0860 C   0  0  0  0  0  0  0  0  0  0  0  0
  142.1900   77.0920  219.0570 C   0  0  0  0  0  0  0  0  0  0  0  0
  141.7530   77.1920  220.4830 C   0  0  0  0  0  0  0  0  0  0  0  0
  142.1840   80.6560  220.3540 C   0  0  0  0  0  0  0  0  0  0  0  0
  143.9980   79.7940  217.7760 H   0  0  0  0  0  0  0  0  0  0  0  0
  142.8690   79.3110  216.5420 H   0  0  0  0  0  0  0  0  0  0  0  0
  140.9623   83.4572  218.8343 H   0  0  0  0  0  0  0  0  0  0  0  0
  140.5092   83.9883  221.2090 H   0  0  0  0  0  0  0  0  0  0  0  0
  141.1082   82.4184  222.9929 H   0  0  0  0  0  0  0  0  0  0  0  0
  143.2225   80.2085  223.3121 H   0  0  0  0  0  0  0  0  0  0  0  0
  142.0597   78.0440  223.4035 H   0  0  0  0  0  0  0  0  0  0  0  0
  138.3520   82.0824  225.2094 H   0  0  0  0  0  0  0  0  0  0  0  0
  134.3947   80.6464  224.3378 H   0  0  0  0  0  0  0  0  0  0  0  0
  135.4140   78.7768  223.0893 H   0  0  0  0  0  0  0  0  0  0  0  0
  140.6922   76.6862  222.4306 H   0  0  0  0  0  0  0  0  0  0  0  0
  138.9153   76.4143  221.8288 H   0  0  0  0  0  0  0  0  0  0  0  0
  139.7247   76.3224  219.9511 H   0  0  0  0  0  0  0  0  0  0  0  0
  138.7301   78.6092  219.9425 H   0  0  0  0  0  0  0  0  0  0  0  0
  140.3665   79.2790  220.2537 H   0  0  0  0  0  0  0  0  0  0  0  0
  139.1888   78.2021  217.7875 H   0  0  0  0  0  0  0  0  0  0  0  0
  140.6083   79.2869  218.0317 H   0  0  0  0  0  0  0  0  0  0  0  0
  140.4580   76.2844  218.1277 H   0  0  0  0  0  0  0  0  0  0  0  0
  141.4913   77.4017  217.0990 H   0  0  0  0  0  0  0  0  0  0  0  0
  142.6760   76.1169  218.9056 H   0  0  0  0  0  0  0  0  0  0  0  0
  142.8805   77.9258  218.8623 H   0  0  0  0  0  0  0  0  0  0  0  0
  142.1503   76.3445  221.0608 H   0  0  0  0  0  0  0  0  0  0  0  0
  142.1258   78.1179  220.9453 H   0  0  0  0  0  0  0  0  0  0  0  0
  142.6655   79.7040  220.0860 H   0  0  0  0  0  0  0  0  0  0  0  0
  1  2  1  0
  2  3  2  0
  2  4  2  0
  2  5  1  0
  5  6  2  0
  6  7  1  0
  7  8  2  0
  8  9  1  0
  9 10  1  0
 10 11  2  0
 11 12  1  0
 12 13  2  0
 13 14  1  0
 14 15  2  0
 15 16  1  0
 16 17  1  0
 16 18  2  0
 18 19  1  0
 19 20  2  0
 20 21  1  0
 21 22  2  0
 21 23  1  0
 23 24  1  0
 24 25  1  0
 25 26  1  0
 26 27  1  0
 27 28  1  0
 28 29  1  0
 29 30  1  0
  9 31  2  0
 31  5  1  0
 23 12  1  0
 30 25  1  0
 20 14  1  0
  1 32  1  0
  1 33  1  0
  6 34  1  0
  7 35  1  0
  8 36  1  0
 10 37  1  0
 11 38  1  0
 15 39  1  0
 18 40  1  0
 19 41  1  0
 24 42  1  0
 24 43  1  0
 25 44  1  0
 26 45  1  0
 26 46  1  0
 27 47  1  0
 27 48  1  0
 28 49  1  0
 28 50  1  0
 29 51  1  0
 29 52  1  0
 30 53  1  0
 30 54  1  0
 31 55  1  0
M  END
>  <smiles>  (49) 
NS(=O)(=O)c1cccc(/C=C/c2nc3cc(Cl)ccc3c(=O)n2CC2CCCCC2)c1

>  <score_type>  (49) 
oracle

>  <origin>  (49) 
autodockgpu

>  <m_score__min__energy>  (49) 
-8.9600000000000009

>  <m_primary>  (49) 
energy

>  <rmsd>  (49) 
4.024461676687191

>  <m_score__min__rmsd>  (49) 
4.024461676687191

>  <meeko>  (49) 
{"free_energy": -6.67, "intermolecular_energy": -8.75, "internal_energy": -2.75, "cluster_size": 5, "cluster_id": 17, "rank_in_cluster": 5}

>  <energy>  (49) 
-6.71

>  <cluster_rmsd>  (49) 
0.0

>  <cluster>  (49) 
19

$$$$

     RDKit          3D

 55 58  0  0  0  0  0  0  0  0999 V2000
  139.5330   71.7140  228.9820 N   0  0  0  0  0  0  0  0  0  0  0  0
  140.8250   71.2630  227.9130 S   0  0  0  0  0  0  0  0  0  0  0  0
  141.4730   70.0520  228.4930 O   0  0  0  0  0  0  0  0  0  0  0  0
  141.8290   72.3750  227.7900 O   0  0  0  0  0  0  0  0  0  0  0  0
  140.2210   70.8720  226.3160 C   0  0  0  0  0  0  0  0  0  0  0  0
  139.2490   69.9020  226.1910 C   0  0  0  0  0  0  0  0  0  0  0  0
  138.7910   69.6120  224.9330 C   0  0  0  0  0  0  0  0  0  0  0  0
  139.2810   70.2660  223.8230 C   0  0  0  0  0  0  0  0  0  0  0  0
  140.2650   71.2540  223.9170 C   0  0  0  0  0  0  0  0  0  0  0  0
  140.7580   71.9230  222.7200 C   0  0  0  0  0  0  0  0  0  0  0  0
  140.0000   72.4640  221.8020 C   0  0  0  0  0  0  0  0  0  0  0  0
  139.5280   73.8570  221.9430 C   0  0  0  0  0  0  0  0  0  0  0  0
  140.4630   74.7970  222.1530 N   0  0  0  0  0  0  0  0  0  0  0  0
  140.1250   76.0860  222.3120 C   0  0  0  0  0  0  0  0  0  0  0  0
  141.0480   77.0890  222.5300 C   0  0  0  0  0  0  0  0  0  0  0  0
  140.6670   78.4020  222.6890 C   0  0  0  0  0  0  0  0  0  0  0  0
  141.9280   79.6020  222.9620 Cl  0  0  0  0  0  0  0  0  0  0  0  0
  139.3290   78.7480  222.6320 C   0  0  0  0  0  0  0  0  0  0  0  0
  138.4240   77.7360  222.4140 C   0  0  0  0  0  0  0  0  0  0  0  0
  138.7870   76.4190  222.2530 C   0  0  0  0  0  0  0  0  0  0  0  0
  137.8550   75.4300  222.0360 C   0  0  0  0  0  0  0  0  0  0  0  0
  136.6300   75.7610  221.9860 O   0  0  0  0  0  0  0  0  0  0  0  0
  138.2090   74.1190  221.8750 N   0  0  0  0  0  0  0  0  0  0  0  0
  137.1910   73.1750  221.6720 C   0  0  0  0  0  0  0  0  0  0  0  0
  136.5490   72.4760  222.7850 C   0  0  0  0  0  0  0  0  0  0  0  0
  135.5650   73.3030  223.5660 C   0  0  0  0  0  0  0  0  0  0  0  0
  135.1110   72.5330  224.7640 C   0  0  0  0  0  0  0  0  0  0  0  0
  135.4630   71.0950  224.6180 C   0  0  0  0  0  0  0  0  0  0  0  0
  135.1790   70.5090  223.2590 C   0  0  0  0  0  0  0  0  0  0  0  0
  135.6830   71.3650  222.1430 C   0  0  0  0  0  0  0  0  0  0  0  0
  140.7120   71.5300  225.1870 C   0  0  0  0  0  0  0  0  0  0  0  0
  138.7390   71.0600  228.8150 H   0  0  0  0  0  0  0  0  0  0  0  0
  139.3080   72.7050  228.7820 H   0  0  0  0  0  0  0  0  0  0  0  0
  138.8539   69.3776  227.0736 H   0  0  0  0  0  0  0  0  0  0  0  0
  138.0163   68.8414  224.8060 H   0  0  0  0  0  0  0  0  0  0  0  0
  138.8849   70.0018  222.8314 H   0  0  0  0  0  0  0  0  0  0  0  0
  141.8475   71.9769  222.5783 H   0  0  0  0  0  0  0  0  0  0  0  0
  139.7114   71.8772  220.9175 H   0  0  0  0  0  0  0  0  0  0  0  0
  142.1165   76.8321  222.5779 H   0  0  0  0  0  0  0  0  0  0  0  0
  139.0020   79.7909  222.7561 H   0  0  0  0  0  0  0  0  0  0  0  0
  137.3554   77.9926  222.3659 H   0  0  0  0  0  0  0  0  0  0  0  0
  136.3879   73.6993  221.1333 H   0  0  0  0  0  0  0  0  0  0  0  0
  137.7295   72.3596  221.1670 H   0  0  0  0  0  0  0  0  0  0  0  0
  137.3517   72.1548  223.4651 H   0  0  0  0  0  0  0  0  0  0  0  0
  136.0467   74.2371  223.8908 H   0  0  0  0  0  0  0  0  0  0  0  0
  134.6985   73.5402  222.9313 H   0  0  0  0  0  0  0  0  0  0  0  0
  135.6011   72.9371  225.6621 H   0  0  0  0  0  0  0  0  0  0  0  0
  134.0188   72.6262  224.8562 H   0  0  0  0  0  0  0  0  0  0  0  0
  136.5385   70.9838  224.8205 H   0  0  0  0  0  0  0  0  0  0  0  0
  134.8280   70.5473  225.3299 H   0  0  0  0  0  0  0  0  0  0  0  0
  135.6636   69.5237  223.1928 H   0  0  0  0  0  0  0  0  0  0  0  0
  134.0868   70.4343  223.1520 H   0  0  0  0  0  0  0  0  0  0  0  0
  136.2907   70.7644  221.4502 H   0  0  0  0  0  0  0  0  0  0  0  0
  134.8491   71.7970  221.5704 H   0  0  0  0  0  0  0  0  0  0  0  0
  141.4869   72.2994  225.3190 H   0  0  0  0  0  0  0  0  0  0  0  0
  1  2  1  0
  2  3  2  0
  2  4  2  0
  2  5  1  0
  5  6  2  0
  6  7  1  0
  7  8  2  0
  8  9  1  0
  9 10  1  0
 10 11  2  0
 11 12  1  0
 12 13  2  0
 13 14  1  0
 14 15  2  0
 15 16  1  0
 16 17  1  0
 16 18  2  0
 18 19  1  0
 19 20  2  0
 20 21  1  0
 21 22  2  0
 21 23  1  0
 23 24  1  0
 24 25  1  0
 25 26  1  0
 26 27  1  0
 27 28  1  0
 28 29  1  0
 29 30  1  0
  9 31  2  0
 31  5  1  0
 23 12  1  0
 30 25  1  0
 20 14  1  0
  1 32  1  0
  1 33  1  0
  6 34  1  0
  7 35  1  0
  8 36  1  0
 10 37  1  0
 11 38  1  0
 15 39  1  0
 18 40  1  0
 19 41  1  0
 24 42  1  0
 24 43  1  0
 25 44  1  0
 26 45  1  0
 26 46  1  0
 27 47  1  0
 27 48  1  0
 28 49  1  0
 28 50  1  0
 29 51  1  0
 29 52  1  0
 30 53  1  0
 30 54  1  0
 31 55  1  0
M  END
>  <smiles>  (50) 
NS(=O)(=O)c1cccc(/C=C/c2nc3cc(Cl)ccc3c(=O)n2CC2CCCCC2)c1

>  <score_type>  (50) 
oracle

>  <origin>  (50) 
autodockgpu

>  <m_score__min__energy>  (50) 
-8.9600000000000009

>  <m_primary>  (50) 
energy

>  <rmsd>  (50) 
6.929557280740197

>  <m_score__min__rmsd>  (50) 
6.929557280740197

>  <meeko>  (50) 
{"free_energy": -8.1, "intermolecular_energy": -10.19, "internal_energy": -2.03, "cluster_size": 5, "cluster_id": 4, "rank_in_cluster": 3}

>  <energy>  (50) 
-6.27

>  <cluster_rmsd>  (50) 
0.0

>  <cluster>  (50) 
20

$$$$
