
     RDKit          3D

 46 49  0  0  0  0  0  0  0  0999 V2000
  133.6270   79.5400  225.3890 O   0  0  0  0  0  0  0  0  0  0  0  0
  134.7730   79.8750  224.9890 C   0  0  0  0  0  0  0  0  0  0  0  0
  135.3790   80.8920  225.7380 C   0  0  0  0  0  0  0  0  0  0  0  0
  134.7270   81.4590  226.8300 C   0  0  0  0  0  0  0  0  0  0  0  0
  135.3610   82.4540  227.5350 C   0  0  0  0  0  0  0  0  0  0  0  0
  134.5850   83.2010  228.9170 Cl  0  0  0  0  0  0  0  0  0  0  0  0
  136.6340   82.9090  227.1850 C   0  0  0  0  0  0  0  0  0  0  0  0
  137.2800   82.3400  226.0940 C   0  0  0  0  0  0  0  0  0  0  0  0
  136.6350   81.3410  225.3940 C   0  0  0  0  0  0  0  0  0  0  0  0
  137.2180   80.7610  224.3330 N   0  0  0  0  0  0  0  0  0  0  0  0
  136.6120   79.7870  223.6330 C   0  0  0  0  0  0  0  0  0  0  0  0
  137.3670   79.2200  222.5140 C   0  0  0  0  0  0  0  0  0  0  0  0
  138.6870   79.2370  222.5110 C   0  0  0  0  0  0  0  0  0  0  0  0
  139.5210   78.1360  222.0810 C   0  0  0  0  0  0  0  0  0  0  0  0
  140.6900   78.2690  221.3750 C   0  0  0  0  0  0  0  0  0  0  0  0
  141.4570   77.1790  220.9860 C   0  0  0  0  0  0  0  0  0  0  0  0
  141.0650   75.8950  221.3010 C   0  0  0  0  0  0  0  0  0  0  0  0
  139.8930   75.7360  222.0120 C   0  0  0  0  0  0  0  0  0  0  0  0
  139.4480   74.4660  222.3590 O   0  0  0  0  0  0  0  0  0  0  0  0
  139.1420   76.8290  222.3920 C   0  0  0  0  0  0  0  0  0  0  0  0
  135.3850   79.3140  223.9280 N   0  0  0  0  0  0  0  0  0  0  0  0
  134.6990   78.3020  223.1880 C   0  0  0  0  0  0  0  0  0  0  0  0
  134.9690   76.9130  223.6390 C   0  0  0  0  0  0  0  0  0  0  0  0
  134.4360   76.4570  224.8440 C   0  0  0  0  0  0  0  0  0  0  0  0
  134.6620   75.1640  225.3000 C   0  0  0  0  0  0  0  0  0  0  0  0
  135.4210   74.2850  224.5770 C   0  0  0  0  0  0  0  0  0  0  0  0
  135.9540   74.7040  223.3940 C   0  0  0  0  0  0  0  0  0  0  0  0
  136.7230   73.8240  222.6540 O   0  0  0  0  0  0  0  0  0  0  0  0
  135.7250   76.0050  222.9390 C   0  0  0  0  0  0  0  0  0  0  0  0
  133.7234   81.1170  227.1229 H   0  0  0  0  0  0  0  0  0  0  0  0
  137.1192   83.7075  227.7654 H   0  0  0  0  0  0  0  0  0  0  0  0
  138.2831   82.6784  225.7952 H   0  0  0  0  0  0  0  0  0  0  0  0
  136.8276   78.7743  221.6652 H   0  0  0  0  0  0  0  0  0  0  0  0
  139.1877   80.1522  222.8598 H   0  0  0  0  0  0  0  0  0  0  0  0
  141.0331   79.2791  221.1066 H   0  0  0  0  0  0  0  0  0  0  0  0
  142.3867   77.3413  220.4209 H   0  0  0  0  0  0  0  0  0  0  0  0
  141.6666   75.0262  220.9956 H   0  0  0  0  0  0  0  0  0  0  0  0
  138.7050   74.2550  222.9820 H   0  0  0  0  0  0  0  0  0  0  0  0
  138.2137   76.6652  222.9589 H   0  0  0  0  0  0  0  0  0  0  0  0
  133.6182   78.4867  223.2756 H   0  0  0  0  0  0  0  0  0  0  0  0
  135.0672   78.3700  222.1537 H   0  0  0  0  0  0  0  0  0  0  0  0
  133.8205   77.1386  225.4495 H   0  0  0  0  0  0  0  0  0  0  0  0
  134.2241   74.8425  226.2565 H   0  0  0  0  0  0  0  0  0  0  0  0
  135.5975   73.2625  224.9421 H   0  0  0  0  0  0  0  0  0  0  0  0
  137.6030   73.4780  223.0550 H   0  0  0  0  0  0  0  0  0  0  0  0
  136.1683   76.3146  221.9811 H   0  0  0  0  0  0  0  0  0  0  0  0
  1  2  2  0
  2  3  1  0
  3  4  2  0
  4  5  1  0
  5  6  1  0
  5  7  2  0
  7  8  1  0
  8  9  2  0
  9 10  1  0
 10 11  2  0
 11 12  1  0
 12 13  2  0
 13 14  1  0
 14 15  2  0
 15 16  1  0
 16 17  2  0
 17 18  1  0
 18 19  1  0
 18 20  2  0
 11 21  1  0
 21 22  1  0
 22 23  1  0
 23 24  2  0
 24 25  1  0
 25 26  2  0
 26 27  1  0
 27 28  1  0
 27 29  2  0
 21  2  1  0
 29 23  1  0
  9  3  1  0
 20 14  1  0
  4 30  1  0
  7 31  1  0
  8 32  1  0
 12 33  1  0
 13 34  1  0
 15 35  1  0
 16 36  1  0
 17 37  1  0
 19 38  1  0
 20 39  1  0
 22 40  1  0
 22 41  1  0
 24 42  1  0
 25 43  1  0
 26 44  1  0
 28 45  1  0
 29 46  1  0
M  END
>  <smiles>  (1) 
O=c1c2cc(Cl)ccc2nc(/C=C/c2cccc(O)c2)n1Cc1cccc(O)c1

>  <score_type>  (1) 
oracle

>  <origin>  (1) 
autodockgpu

>  <m_score__min__energy>  (1) 
-8.8100000000000005

>  <m_primary>  (1) 
energy

>  <rmsd>  (1) 
9.071569802244229

>  <m_score__min__rmsd>  (1) 
9.071569802244229

>  <meeko>  (1) 
{"free_energy": -6.38, "intermolecular_energy": -8.47, "internal_energy": -2.31, "cluster_size": 4, "cluster_id": 6, "rank_in_cluster": 1}

>  <energy>  (1) 
-8.81

>  <cluster_rmsd>  (1) 
0.0

>  <cluster>  (1) 
1

$$$$

     RDKit          3D

 46 49  0  0  0  0  0  0  0  0999 V2000
  137.6170   77.0870  222.2160 O   0  0  0  0  0  0  0  0  0  0  0  0
  138.3800   77.9560  222.7160 C   0  0  0  0  0  0  0  0  0  0  0  0
  137.7210   79.0520  223.2890 C   0  0  0  0  0  0  0  0  0  0  0  0
  136.3310   79.1310  223.2820 C   0  0  0  0  0  0  0  0  0  0  0  0
  135.7290   80.2250  223.8560 C   0  0  0  0  0  0  0  0  0  0  0  0
  133.9830   80.3750  223.8750 Cl  0  0  0  0  0  0  0  0  0  0  0  0
  136.4720   81.2530  224.4420 C   0  0  0  0  0  0  0  0  0  0  0  0
  137.8590   81.1690  224.4450 C   0  0  0  0  0  0  0  0  0  0  0  0
  138.4520   80.0660  223.8670 C   0  0  0  0  0  0  0  0  0  0  0  0
  139.7890   79.9390  223.8460 N   0  0  0  0  0  0  0  0  0  0  0  0
  140.3940   78.8760  223.2890 C   0  0  0  0  0  0  0  0  0  0  0  0
  141.8560   78.8470  223.3550 C   0  0  0  0  0  0  0  0  0  0  0  0
  142.5760   79.8350  222.8600 C   0  0  0  0  0  0  0  0  0  0  0  0
  142.0920   80.8040  221.9010 C   0  0  0  0  0  0  0  0  0  0  0  0
  141.5330   82.0140  222.2240 C   0  0  0  0  0  0  0  0  0  0  0  0
  141.0830   82.9120  221.2650 C   0  0  0  0  0  0  0  0  0  0  0  0
  141.1830   82.6140  219.9220 C   0  0  0  0  0  0  0  0  0  0  0  0
  141.7420   81.4020  219.5720 C   0  0  0  0  0  0  0  0  0  0  0  0
  141.8690   81.0470  218.2340 O   0  0  0  0  0  0  0  0  0  0  0  0
  142.1840   80.5200  220.5370 C   0  0  0  0  0  0  0  0  0  0  0  0
  139.7230   77.8590  222.7100 N   0  0  0  0  0  0  0  0  0  0  0  0
  140.3330   76.7300  222.0820 C   0  0  0  0  0  0  0  0  0  0  0  0
  140.9830   77.0200  220.7780 C   0  0  0  0  0  0  0  0  0  0  0  0
  142.1950   76.4090  220.4550 C   0  0  0  0  0  0  0  0  0  0  0  0
  142.8330   76.6520  219.2440 C   0  0  0  0  0  0  0  0  0  0  0  0
  142.2930   77.5020  218.3210 C   0  0  0  0  0  0  0  0  0  0  0  0
  141.1080   78.1120  218.6110 C   0  0  0  0  0  0  0  0  0  0  0  0
  140.5510   78.9750  217.6830 O   0  0  0  0  0  0  0  0  0  0  0  0
  140.4680   77.8680  219.8280 C   0  0  0  0  0  0  0  0  0  0  0  0
  135.7264   78.3333  222.8259 H   0  0  0  0  0  0  0  0  0  0  0  0
  135.9654   82.1178  224.8952 H   0  0  0  0  0  0  0  0  0  0  0  0
  138.4699   81.9638  224.8979 H   0  0  0  0  0  0  0  0  0  0  0  0
  142.3610   77.9896  223.8238 H   0  0  0  0  0  0  0  0  0  0  0  0
  143.6178   79.9288  223.2003 H   0  0  0  0  0  0  0  0  0  0  0  0
  141.4372   82.2842  223.2860 H   0  0  0  0  0  0  0  0  0  0  0  0
  140.6427   83.8698  221.5793 H   0  0  0  0  0  0  0  0  0  0  0  0
  140.8289   83.3191  219.1555 H   0  0  0  0  0  0  0  0  0  0  0  0
  142.2810   80.2140  217.8850 H   0  0  0  0  0  0  0  0  0  0  0  0
  142.6231   79.5621  220.2214 H   0  0  0  0  0  0  0  0  0  0  0  0
  141.0975   76.3301  222.7643 H   0  0  0  0  0  0  0  0  0  0  0  0
  139.5228   76.0159  221.8729 H   0  0  0  0  0  0  0  0  0  0  0  0
  142.6569   75.7184  221.1759 H   0  0  0  0  0  0  0  0  0  0  0  0
  143.7880   76.1518  219.0255 H   0  0  0  0  0  0  0  0  0  0  0  0
  142.8028   77.6904  217.3646 H   0  0  0  0  0  0  0  0  0  0  0  0
  140.6710   79.9860  217.8140 H   0  0  0  0  0  0  0  0  0  0  0  0
  139.5138   78.3749  220.0340 H   0  0  0  0  0  0  0  0  0  0  0  0
  1  2  2  0
  2  3  1  0
  3  4  2  0
  4  5  1  0
  5  6  1  0
  5  7  2  0
  7  8  1  0
  8  9  2  0
  9 10  1  0
 10 11  2  0
 11 12  1  0
 12 13  2  0
 13 14  1  0
 14 15  2  0
 15 16  1  0
 16 17  2  0
 17 18  1  0
 18 19  1  0
 18 20  2  0
 11 21  1  0
 21 22  1  0
 22 23  1  0
 23 24  2  0
 24 25  1  0
 25 26  2  0
 26 27  1  0
 27 28  1  0
 27 29  2  0
 21  2  1  0
 29 23  1  0
  9  3  1  0
 20 14  1  0
  4 30  1  0
  7 31  1  0
  8 32  1  0
 12 33  1  0
 13 34  1  0
 15 35  1  0
 16 36  1  0
 17 37  1  0
 19 38  1  0
 20 39  1  0
 22 40  1  0
 22 41  1  0
 24 42  1  0
 25 43  1  0
 26 44  1  0
 28 45  1  0
 29 46  1  0
M  END
>  <smiles>  (2) 
O=c1c2cc(Cl)ccc2nc(/C=C/c2cccc(O)c2)n1Cc1cccc(O)c1

>  <score_type>  (2) 
oracle

>  <origin>  (2) 
autodockgpu

>  <m_score__min__energy>  (2) 
-8.8100000000000005

>  <m_primary>  (2) 
energy

>  <rmsd>  (2) 
6.392364958168361

>  <m_score__min__rmsd>  (2) 
6.392364958168361

>  <meeko>  (2) 
{"free_energy": -5.31, "intermolecular_energy": -7.4, "internal_energy": -3.23, "cluster_size": 9, "cluster_id": 14, "rank_in_cluster": 9}

>  <energy>  (2) 
-8.39

>  <cluster_rmsd>  (2) 
1.47

>  <cluster>  (2) 
1

$$$$

     RDKit          3D

 46 49  0  0  0  0  0  0  0  0999 V2000
  136.4860   75.6980  221.7790 O   0  0  0  0  0  0  0  0  0  0  0  0
  137.6550   75.2520  221.9200 C   0  0  0  0  0  0  0  0  0  0  0  0
  138.6230   76.2280  222.1900 C   0  0  0  0  0  0  0  0  0  0  0  0
  138.2740   77.5720  222.2850 C   0  0  0  0  0  0  0  0  0  0  0  0
  139.2580   78.4940  222.5500 C   0  0  0  0  0  0  0  0  0  0  0  0
  138.8720   80.1980  222.6800 Cl  0  0  0  0  0  0  0  0  0  0  0  0
  140.5920   78.1180  222.7270 C   0  0  0  0  0  0  0  0  0  0  0  0
  140.9350   76.7750  222.6310 C   0  0  0  0  0  0  0  0  0  0  0  0
  139.9390   75.8590  222.3650 C   0  0  0  0  0  0  0  0  0  0  0  0
  140.2210   74.5500  222.2630 N   0  0  0  0  0  0  0  0  0  0  0  0
  139.2700   73.6360  222.0030 C   0  0  0  0  0  0  0  0  0  0  0  0
  139.7060   72.2400  221.9440 C   0  0  0  0  0  0  0  0  0  0  0  0
  140.6160   71.7780  222.7810 C   0  0  0  0  0  0  0  0  0  0  0  0
  140.3200   71.1070  224.0280 C   0  0  0  0  0  0  0  0  0  0  0  0
  140.7070   71.5520  225.2670 C   0  0  0  0  0  0  0  0  0  0  0  0
  140.3970   70.8700  226.4370 C   0  0  0  0  0  0  0  0  0  0  0  0
  139.6740   69.6970  226.3970 C   0  0  0  0  0  0  0  0  0  0  0  0
  139.2730   69.2310  225.1610 C   0  0  0  0  0  0  0  0  0  0  0  0
  138.5410   68.0540  225.0590 O   0  0  0  0  0  0  0  0  0  0  0  0
  139.5880   69.9190  224.0080 C   0  0  0  0  0  0  0  0  0  0  0  0
  137.9710   73.9470  221.8230 N   0  0  0  0  0  0  0  0  0  0  0  0
  136.9410   73.0060  221.5160 C   0  0  0  0  0  0  0  0  0  0  0  0
  136.3790   72.2930  222.6920 C   0  0  0  0  0  0  0  0  0  0  0  0
  135.6280   72.9950  223.6360 C   0  0  0  0  0  0  0  0  0  0  0  0
  135.0830   72.3650  224.7480 C   0  0  0  0  0  0  0  0  0  0  0  0
  135.2630   71.0270  224.9590 C   0  0  0  0  0  0  0  0  0  0  0  0
  135.9930   70.3160  224.0520 C   0  0  0  0  0  0  0  0  0  0  0  0
  136.1810   68.9600  224.2540 O   0  0  0  0  0  0  0  0  0  0  0  0
  136.5400   70.9510  222.9350 C   0  0  0  0  0  0  0  0  0  0  0  0
  137.2297   77.8904  222.1504 H   0  0  0  0  0  0  0  0  0  0  0  0
  141.3608   78.8755  222.9396 H   0  0  0  0  0  0  0  0  0  0  0  0
  141.9774   76.4498  222.7641 H   0  0  0  0  0  0  0  0  0  0  0  0
  139.2693   71.5666  221.1918 H   0  0  0  0  0  0  0  0  0  0  0  0
  141.6739   71.9127  222.5114 H   0  0  0  0  0  0  0  0  0  0  0  0
  141.2853   72.4852  225.3366 H   0  0  0  0  0  0  0  0  0  0  0  0
  140.7320   71.2702  227.4053 H   0  0  0  0  0  0  0  0  0  0  0  0
  139.4250   69.1508  227.3188 H   0  0  0  0  0  0  0  0  0  0  0  0
  137.9750   67.7810  224.2900 H   0  0  0  0  0  0  0  0  0  0  0  0
  139.2511   69.5181  223.0406 H   0  0  0  0  0  0  0  0  0  0  0  0
  136.1214   73.5456  221.0189 H   0  0  0  0  0  0  0  0  0  0  0  0
  137.4031   72.2373  220.8791 H   0  0  0  0  0  0  0  0  0  0  0  0
  135.4636   74.0736  223.4962 H   0  0  0  0  0  0  0  0  0  0  0  0
  134.4972   72.9527  225.4701 H   0  0  0  0  0  0  0  0  0  0  0  0
  134.8287   70.5339  225.8411 H   0  0  0  0  0  0  0  0  0  0  0  0
  136.7210   68.6530  225.0720 H   0  0  0  0  0  0  0  0  0  0  0  0
  137.1236   70.3518  222.2206 H   0  0  0  0  0  0  0  0  0  0  0  0
  1  2  2  0
  2  3  1  0
  3  4  2  0
  4  5  1  0
  5  6  1  0
  5  7  2  0
  7  8  1  0
  8  9  2  0
  9 10  1  0
 10 11  2  0
 11 12  1  0
 12 13  2  0
 13 14  1  0
 14 15  2  0
 15 16  1  0
 16 17  2  0
 17 18  1  0
 18 19  1  0
 18 20  2  0
 11 21  1  0
 21 22  1  0
 22 23  1  0
 23 24  2  0
 24 25  1  0
 25 26  2  0
 26 27  1  0
 27 28  1  0
 27 29  2  0
 21  2  1  0
 29 23  1  0
  9  3  1  0
 20 14  1  0
  4 30  1  0
  7 31  1  0
  8 32  1  0
 12 33  1  0
 13 34  1  0
 15 35  1  0
 16 36  1  0
 17 37  1  0
 19 38  1  0
 20 39  1  0
 22 40  1  0
 22 41  1  0
 24 42  1  0
 25 43  1  0
 26 44  1  0
 28 45  1  0
 29 46  1  0
M  END
>  <smiles>  (3) 
O=c1c2cc(Cl)ccc2nc(/C=C/c2cccc(O)c2)n1Cc1cccc(O)c1

>  <score_type>  (3) 
oracle

>  <origin>  (3) 
autodockgpu

>  <m_score__min__energy>  (3) 
-8.8100000000000005

>  <m_primary>  (3) 
energy

>  <rmsd>  (3) 
8.469907855445927

>  <m_score__min__rmsd>  (3) 
8.469907855445927

>  <meeko>  (3) 
{"free_energy": -6.02, "intermolecular_energy": -8.11, "internal_energy": -2.96, "cluster_size": 13, "cluster_id": 4, "rank_in_cluster": 6}

>  <energy>  (3) 
-8.36

>  <cluster_rmsd>  (3) 
1.09

>  <cluster>  (3) 
1

$$$$

     RDKit          3D

 46 49  0  0  0  0  0  0  0  0999 V2000
  136.3110   78.2430  222.4530 O   0  0  0  0  0  0  0  0  0  0  0  0
  136.9710   79.0830  223.1200 C   0  0  0  0  0  0  0  0  0  0  0  0
  138.3590   78.8980  223.0820 C   0  0  0  0  0  0  0  0  0  0  0  0
  138.9190   77.8540  222.3500 C   0  0  0  0  0  0  0  0  0  0  0  0
  140.2860   77.7110  222.3420 C   0  0  0  0  0  0  0  0  0  0  0  0
  141.0420   76.4140  221.4390 Cl  0  0  0  0  0  0  0  0  0  0  0  0
  141.1220   78.5820  223.0450 C   0  0  0  0  0  0  0  0  0  0  0  0
  140.5580   79.6230  223.7730 C   0  0  0  0  0  0  0  0  0  0  0  0
  139.1850   79.7570  223.7730 C   0  0  0  0  0  0  0  0  0  0  0  0
  138.5930   80.7460  224.4620 N   0  0  0  0  0  0  0  0  0  0  0  0
  137.2580   80.8990  224.4800 C   0  0  0  0  0  0  0  0  0  0  0  0
  136.7410   82.0330  225.2480 C   0  0  0  0  0  0  0  0  0  0  0  0
  137.0610   82.1930  226.5180 C   0  0  0  0  0  0  0  0  0  0  0  0
  136.1200   82.5180  227.5680 C   0  0  0  0  0  0  0  0  0  0  0  0
  135.3420   83.6480  227.6000 C   0  0  0  0  0  0  0  0  0  0  0  0
  134.4520   83.9150  228.6310 C   0  0  0  0  0  0  0  0  0  0  0  0
  134.3130   83.0360  229.6850 C   0  0  0  0  0  0  0  0  0  0  0  0
  135.0850   81.8920  229.6740 C   0  0  0  0  0  0  0  0  0  0  0  0
  134.9880   80.9700  230.7100 O   0  0  0  0  0  0  0  0  0  0  0  0
  135.9650   81.6410  228.6430 C   0  0  0  0  0  0  0  0  0  0  0  0
  136.4080   80.0860  223.8210 N   0  0  0  0  0  0  0  0  0  0  0  0
  134.9840   80.2010  223.8440 C   0  0  0  0  0  0  0  0  0  0  0  0
  134.3190   79.4730  224.9550 C   0  0  0  0  0  0  0  0  0  0  0  0
  133.9040   78.1540  224.7700 C   0  0  0  0  0  0  0  0  0  0  0  0
  133.2810   77.4370  225.7850 C   0  0  0  0  0  0  0  0  0  0  0  0
  133.0520   78.0020  227.0090 C   0  0  0  0  0  0  0  0  0  0  0  0
  133.4490   79.2900  227.2170 C   0  0  0  0  0  0  0  0  0  0  0  0
  133.2230   79.8720  228.4510 O   0  0  0  0  0  0  0  0  0  0  0  0
  134.0740   80.0090  226.1950 C   0  0  0  0  0  0  0  0  0  0  0  0
  138.2794   77.1569  221.7888 H   0  0  0  0  0  0  0  0  0  0  0  0
  142.2133   78.4456  223.0226 H   0  0  0  0  0  0  0  0  0  0  0  0
  141.1918   80.3238  224.3361 H   0  0  0  0  0  0  0  0  0  0  0  0
  136.0769   82.7614  224.7598 H   0  0  0  0  0  0  0  0  0  0  0  0
  138.1176   82.0707  226.7983 H   0  0  0  0  0  0  0  0  0  0  0  0
  135.4272   84.3712  226.7755 H   0  0  0  0  0  0  0  0  0  0  0  0
  133.8517   84.8364  228.6074 H   0  0  0  0  0  0  0  0  0  0  0  0
  133.6106   83.2400  230.5066 H   0  0  0  0  0  0  0  0  0  0  0  0
  135.7450   80.5580  231.2010 H   0  0  0  0  0  0  0  0  0  0  0  0
  136.5648   80.7193  228.6682 H   0  0  0  0  0  0  0  0  0  0  0  0
  134.7280   81.2672  223.9316 H   0  0  0  0  0  0  0  0  0  0  0  0
  134.6209   79.7431  222.9121 H   0  0  0  0  0  0  0  0  0  0  0  0
  134.0739   77.6695  223.7972 H   0  0  0  0  0  0  0  0  0  0  0  0
  132.9673   76.3989  225.6007 H   0  0  0  0  0  0  0  0  0  0  0  0
  132.5583   77.4301  227.8085 H   0  0  0  0  0  0  0  0  0  0  0  0
  133.9750   79.8590  229.1500 H   0  0  0  0  0  0  0  0  0  0  0  0
  134.3822   81.0464  226.3918 H   0  0  0  0  0  0  0  0  0  0  0  0
  1  2  2  0
  2  3  1  0
  3  4  2  0
  4  5  1  0
  5  6  1  0
  5  7  2  0
  7  8  1  0
  8  9  2  0
  9 10  1  0
 10 11  2  0
 11 12  1  0
 12 13  2  0
 13 14  1  0
 14 15  2  0
 15 16  1  0
 16 17  2  0
 17 18  1  0
 18 19  1  0
 18 20  2  0
 11 21  1  0
 21 22  1  0
 22 23  1  0
 23 24  2  0
 24 25  1  0
 25 26  2  0
 26 27  1  0
 27 28  1  0
 27 29  2  0
 21  2  1  0
 29 23  1  0
  9  3  1  0
 20 14  1  0
  4 30  1  0
  7 31  1  0
  8 32  1  0
 12 33  1  0
 13 34  1  0
 15 35  1  0
 16 36  1  0
 17 37  1  0
 19 38  1  0
 20 39  1  0
 22 40  1  0
 22 41  1  0
 24 42  1  0
 25 43  1  0
 26 44  1  0
 28 45  1  0
 29 46  1  0
M  END
>  <smiles>  (4) 
O=c1c2cc(Cl)ccc2nc(/C=C/c2cccc(O)c2)n1Cc1cccc(O)c1

>  <score_type>  (4) 
oracle

>  <origin>  (4) 
autodockgpu

>  <m_score__min__energy>  (4) 
-8.8100000000000005

>  <m_primary>  (4) 
energy

>  <rmsd>  (4) 
7.364355155629525

>  <m_score__min__rmsd>  (4) 
7.364355155629525

>  <meeko>  (4) 
{"free_energy": -6.76, "intermolecular_energy": -8.85, "internal_energy": -2.14, "cluster_size": 3, "cluster_id": 5, "rank_in_cluster": 1}

>  <energy>  (4) 
-8.33

>  <cluster_rmsd>  (4) 
1.6

>  <cluster>  (4) 
1

$$$$

     RDKit          3D

 46 49  0  0  0  0  0  0  0  0999 V2000
  138.9000   68.2070  223.8670 O   0  0  0  0  0  0  0  0  0  0  0  0
  139.3570   69.3790  223.8120 C   0  0  0  0  0  0  0  0  0  0  0  0
  139.9280   69.8400  225.0050 C   0  0  0  0  0  0  0  0  0  0  0  0
  139.9650   69.0300  226.1370 C   0  0  0  0  0  0  0  0  0  0  0  0
  140.5350   69.5260  227.2860 C   0  0  0  0  0  0  0  0  0  0  0  0
  140.6060   68.5490  228.7380 Cl  0  0  0  0  0  0  0  0  0  0  0  0
  141.0750   70.8120  227.3440 C   0  0  0  0  0  0  0  0  0  0  0  0
  141.0360   71.6160  226.2120 C   0  0  0  0  0  0  0  0  0  0  0  0
  140.4620   71.1080  225.0640 C   0  0  0  0  0  0  0  0  0  0  0  0
  140.4010   71.8460  223.9440 N   0  0  0  0  0  0  0  0  0  0  0  0
  139.8460   71.3780  222.8130 C   0  0  0  0  0  0  0  0  0  0  0  0
  139.8670   72.2740  221.6560 C   0  0  0  0  0  0  0  0  0  0  0  0
  140.8080   73.1900  221.5260 C   0  0  0  0  0  0  0  0  0  0  0  0
  142.1280   72.9420  220.9910 C   0  0  0  0  0  0  0  0  0  0  0  0
  143.0970   73.8980  220.8230 C   0  0  0  0  0  0  0  0  0  0  0  0
  144.3540   73.6090  220.3050 C   0  0  0  0  0  0  0  0  0  0  0  0
  144.6810   72.3220  219.9320 C   0  0  0  0  0  0  0  0  0  0  0  0
  143.7220   71.3430  220.0930 C   0  0  0  0  0  0  0  0  0  0  0  0
  143.9950   70.0270  219.7360 O   0  0  0  0  0  0  0  0  0  0  0  0
  142.4790   71.6450  220.6090 C   0  0  0  0  0  0  0  0  0  0  0  0
  139.3110   70.1450  222.7050 N   0  0  0  0  0  0  0  0  0  0  0  0
  138.6870   69.6260  221.5290 C   0  0  0  0  0  0  0  0  0  0  0  0
  139.4500   68.5520  220.8430 C   0  0  0  0  0  0  0  0  0  0  0  0
  138.9020   67.2740  220.7310 C   0  0  0  0  0  0  0  0  0  0  0  0
  139.5820   66.2420  220.0940 C   0  0  0  0  0  0  0  0  0  0  0  0
  140.8200   66.4440  219.5520 C   0  0  0  0  0  0  0  0  0  0  0  0
  141.3800   67.6850  219.6470 C   0  0  0  0  0  0  0  0  0  0  0  0
  142.6330   67.9010  219.1020 O   0  0  0  0  0  0  0  0  0  0  0  0
  140.6940   68.7200  220.2880 C   0  0  0  0  0  0  0  0  0  0  0  0
  139.5464   68.0131  226.1126 H   0  0  0  0  0  0  0  0  0  0  0  0
  141.5262   71.1844  228.2755 H   0  0  0  0  0  0  0  0  0  0  0  0
  141.4528   72.6338  226.2300 H   0  0  0  0  0  0  0  0  0  0  0  0
  139.0882   72.1827  220.8846 H   0  0  0  0  0  0  0  0  0  0  0  0
  140.5712   74.2150  221.8475 H   0  0  0  0  0  0  0  0  0  0  0  0
  142.8702   74.9354  221.1098 H   0  0  0  0  0  0  0  0  0  0  0  0
  145.0949   74.4141  220.1915 H   0  0  0  0  0  0  0  0  0  0  0  0
  145.6728   72.0841  219.5201 H   0  0  0  0  0  0  0  0  0  0  0  0
  143.8950   69.6330  218.8300 H   0  0  0  0  0  0  0  0  0  0  0  0
  141.7400   70.8382  220.7234 H   0  0  0  0  0  0  0  0  0  0  0  0
  137.7048   69.2204  221.8131 H   0  0  0  0  0  0  0  0  0  0  0  0
  138.6210   70.4626  220.8178 H   0  0  0  0  0  0  0  0  0  0  0  0
  137.9071   67.0779  221.1573 H   0  0  0  0  0  0  0  0  0  0  0  0
  139.1163   65.2478  220.0253 H   0  0  0  0  0  0  0  0  0  0  0  0
  141.3539   65.6238  219.0498 H   0  0  0  0  0  0  0  0  0  0  0  0
  143.3280   68.4200  219.6500 H   0  0  0  0  0  0  0  0  0  0  0  0
  141.1703   69.7096  220.3503 H   0  0  0  0  0  0  0  0  0  0  0  0
  1  2  2  0
  2  3  1  0
  3  4  2  0
  4  5  1  0
  5  6  1  0
  5  7  2  0
  7  8  1  0
  8  9  2  0
  9 10  1  0
 10 11  2  0
 11 12  1  0
 12 13  2  0
 13 14  1  0
 14 15  2  0
 15 16  1  0
 16 17  2  0
 17 18  1  0
 18 19  1  0
 18 20  2  0
 11 21  1  0
 21 22  1  0
 22 23  1  0
 23 24  2  0
 24 25  1  0
 25 26  2  0
 26 27  1  0
 27 28  1  0
 27 29  2  0
 21  2  1  0
 29 23  1  0
  9  3  1  0
 20 14  1  0
  4 30  1  0
  7 31  1  0
  8 32  1  0
 12 33  1  0
 13 34  1  0
 15 35  1  0
 16 36  1  0
 17 37  1  0
 19 38  1  0
 20 39  1  0
 22 40  1  0
 22 41  1  0
 24 42  1  0
 25 43  1  0
 26 44  1  0
 28 45  1  0
 29 46  1  0
M  END
>  <smiles>  (5) 
O=c1c2cc(Cl)ccc2nc(/C=C/c2cccc(O)c2)n1Cc1cccc(O)c1

>  <score_type>  (5) 
oracle

>  <origin>  (5) 
autodockgpu

>  <m_score__min__energy>  (5) 
-8.8100000000000005

>  <m_primary>  (5) 
energy

>  <rmsd>  (5) 
11.914733396095635

>  <m_score__min__rmsd>  (5) 
11.914733396095635

>  <meeko>  (5) 
{"free_energy": -5.93, "intermolecular_energy": -8.02, "internal_energy": -2.68, "cluster_size": 2, "cluster_id": 10, "rank_in_cluster": 2}

>  <energy>  (5) 
-8.31

>  <cluster_rmsd>  (5) 
1.44

>  <cluster>  (5) 
1

$$$$

     RDKit          3D

 46 49  0  0  0  0  0  0  0  0999 V2000
  142.8570   74.8380  220.0690 O   0  0  0  0  0  0  0  0  0  0  0  0
  141.9060   74.4280  220.7860 C   0  0  0  0  0  0  0  0  0  0  0  0
  141.0560   75.4340  221.2620 C   0  0  0  0  0  0  0  0  0  0  0  0
  141.2850   76.7700  220.9430 C   0  0  0  0  0  0  0  0  0  0  0  0
  140.4240   77.7230  221.4340 C   0  0  0  0  0  0  0  0  0  0  0  0
  140.6660   79.4180  221.0620 Cl  0  0  0  0  0  0  0  0  0  0  0  0
  139.3340   77.3870  222.2390 C   0  0  0  0  0  0  0  0  0  0  0  0
  139.1110   76.0520  222.5560 C   0  0  0  0  0  0  0  0  0  0  0  0
  139.9800   75.1040  222.0570 C   0  0  0  0  0  0  0  0  0  0  0  0
  139.8070   73.8020  222.3340 N   0  0  0  0  0  0  0  0  0  0  0  0
  140.6390   72.8570  221.8630 C   0  0  0  0  0  0  0  0  0  0  0  0
  140.3230   71.4730  222.2170 C   0  0  0  0  0  0  0  0  0  0  0  0
  139.4960   71.2000  223.2080 C   0  0  0  0  0  0  0  0  0  0  0  0
  139.9060   70.7340  224.5150 C   0  0  0  0  0  0  0  0  0  0  0  0
  140.6680   71.4540  225.3990 C   0  0  0  0  0  0  0  0  0  0  0  0
  141.0350   70.9620  226.6460 C   0  0  0  0  0  0  0  0  0  0  0  0
  140.6390   69.7040  227.0490 C   0  0  0  0  0  0  0  0  0  0  0  0
  139.8710   68.9610  226.1760 C   0  0  0  0  0  0  0  0  0  0  0  0
  139.4420   67.6860  226.5280 O   0  0  0  0  0  0  0  0  0  0  0  0
  139.5140   69.4630  224.9410 C   0  0  0  0  0  0  0  0  0  0  0  0
  141.7050   73.1300  221.0830 N   0  0  0  0  0  0  0  0  0  0  0  0
  142.6260   72.1550  220.5900 C   0  0  0  0  0  0  0  0  0  0  0  0
  144.0290   72.6290  220.4730 C   0  0  0  0  0  0  0  0  0  0  0  0
  144.5710   72.8920  219.2150 C   0  0  0  0  0  0  0  0  0  0  0  0
  145.8780   73.3400  219.0620 C   0  0  0  0  0  0  0  0  0  0  0  0
  146.6840   73.5410  220.1470 C   0  0  0  0  0  0  0  0  0  0  0  0
  146.1800   73.2930  221.3900 C   0  0  0  0  0  0  0  0  0  0  0  0
  146.9870   73.4940  222.4960 O   0  0  0  0  0  0  0  0  0  0  0  0
  144.8660   72.8430  221.5400 C   0  0  0  0  0  0  0  0  0  0  0  0
  142.1380   77.0573  220.3106 H   0  0  0  0  0  0  0  0  0  0  0  0
  138.6598   78.1692  222.6179 H   0  0  0  0  0  0  0  0  0  0  0  0
  138.2614   75.7584  223.1900 H   0  0  0  0  0  0  0  0  0  0  0  0
  140.7809   70.6494  221.6495 H   0  0  0  0  0  0  0  0  0  0  0  0
  138.4194   71.3362  223.0280 H   0  0  0  0  0  0  0  0  0  0  0  0
  141.0022   72.4613  225.1096 H   0  0  0  0  0  0  0  0  0  0  0  0
  141.6470   71.5818  227.3177 H   0  0  0  0  0  0  0  0  0  0  0  0
  140.9258   69.3061  228.0336 H   0  0  0  0  0  0  0  0  0  0  0  0
  139.8940   67.0690  227.1600 H   0  0  0  0  0  0  0  0  0  0  0  0
  138.9012   68.8423  224.2708 H   0  0  0  0  0  0  0  0  0  0  0  0
  142.6114   71.2934  221.2737 H   0  0  0  0  0  0  0  0  0  0  0  0
  142.2969   71.9045  219.5707 H   0  0  0  0  0  0  0  0  0  0  0  0
  143.9482   72.7410  218.3210 H   0  0  0  0  0  0  0  0  0  0  0  0
  146.2692   73.5356  218.0527 H   0  0  0  0  0  0  0  0  0  0  0  0
  147.7177   73.8954  220.0207 H   0  0  0  0  0  0  0  0  0  0  0  0
  146.5450   73.6780  223.4040 H   0  0  0  0  0  0  0  0  0  0  0  0
  144.4864   72.6523  222.5547 H   0  0  0  0  0  0  0  0  0  0  0  0
  1  2  2  0
  2  3  1  0
  3  4  2  0
  4  5  1  0
  5  6  1  0
  5  7  2  0
  7  8  1  0
  8  9  2  0
  9 10  1  0
 10 11  2  0
 11 12  1  0
 12 13  2  0
 13 14  1  0
 14 15  2  0
 15 16  1  0
 16 17  2  0
 17 18  1  0
 18 19  1  0
 18 20  2  0
 11 21  1  0
 21 22  1  0
 22 23  1  0
 23 24  2  0
 24 25  1  0
 25 26  2  0
 26 27  1  0
 27 28  1  0
 27 29  2  0
 21  2  1  0
 29 23  1  0
  9  3  1  0
 20 14  1  0
  4 30  1  0
  7 31  1  0
  8 32  1  0
 12 33  1  0
 13 34  1  0
 15 35  1  0
 16 36  1  0
 17 37  1  0
 19 38  1  0
 20 39  1  0
 22 40  1  0
 22 41  1  0
 24 42  1  0
 25 43  1  0
 26 44  1  0
 28 45  1  0
 29 46  1  0
M  END
>  <smiles>  (6) 
O=c1c2cc(Cl)ccc2nc(/C=C/c2cccc(O)c2)n1Cc1cccc(O)c1

>  <score_type>  (6) 
oracle

>  <origin>  (6) 
autodockgpu

>  <m_score__min__energy>  (6) 
-8.8100000000000005

>  <m_primary>  (6) 
energy

>  <rmsd>  (6) 
8.17463752953679

>  <m_score__min__rmsd>  (6) 
8.17463752953679

>  <meeko>  (6) 
{"free_energy": -8.33, "intermolecular_energy": -10.42, "internal_energy": -0.53, "cluster_size": 9, "cluster_id": 1, "rank_in_cluster": 4}

>  <energy>  (6) 
-8.26

>  <cluster_rmsd>  (6) 
1.39

>  <cluster>  (6) 
1

$$$$

     RDKit          3D

 46 49  0  0  0  0  0  0  0  0999 V2000
  136.4380   76.1670  222.3810 O   0  0  0  0  0  0  0  0  0  0  0  0
  137.5380   75.5620  222.2790 C   0  0  0  0  0  0  0  0  0  0  0  0
  138.6680   76.3760  222.4260 C   0  0  0  0  0  0  0  0  0  0  0  0
  138.5370   77.7420  222.6640 C   0  0  0  0  0  0  0  0  0  0  0  0
  139.6740   78.5020  222.8010 C   0  0  0  0  0  0  0  0  0  0  0  0
  139.5650   80.2250  223.1010 Cl  0  0  0  0  0  0  0  0  0  0  0  0
  140.9500   77.9410  222.7080 C   0  0  0  0  0  0  0  0  0  0  0  0
  141.0760   76.5780  222.4700 C   0  0  0  0  0  0  0  0  0  0  0  0
  139.9270   75.8250  222.3350 C   0  0  0  0  0  0  0  0  0  0  0  0
  139.9960   74.5040  222.1040 N   0  0  0  0  0  0  0  0  0  0  0  0
  138.8940   73.7470  221.9680 C   0  0  0  0  0  0  0  0  0  0  0  0
  139.1080   72.3170  221.7460 C   0  0  0  0  0  0  0  0  0  0  0  0
  140.1110   71.6840  222.3250 C   0  0  0  0  0  0  0  0  0  0  0  0
  140.0480   71.0660  223.6310 C   0  0  0  0  0  0  0  0  0  0  0  0
  140.3840   71.6870  224.8070 C   0  0  0  0  0  0  0  0  0  0  0  0
  140.3060   71.0490  226.0390 C   0  0  0  0  0  0  0  0  0  0  0  0
  139.8790   69.7410  226.1280 C   0  0  0  0  0  0  0  0  0  0  0  0
  139.5350   69.0960  224.9570 C   0  0  0  0  0  0  0  0  0  0  0  0
  139.0970   67.7770  224.9840 O   0  0  0  0  0  0  0  0  0  0  0  0
  139.6180   69.7430  223.7410 C   0  0  0  0  0  0  0  0  0  0  0  0
  137.6420   74.2400  222.0470 N   0  0  0  0  0  0  0  0  0  0  0  0
  136.4490   73.4710  221.8770 C   0  0  0  0  0  0  0  0  0  0  0  0
  135.8320   72.9930  223.1410 C   0  0  0  0  0  0  0  0  0  0  0  0
  135.8120   71.6290  223.4320 C   0  0  0  0  0  0  0  0  0  0  0  0
  135.2460   71.1420  224.6050 C   0  0  0  0  0  0  0  0  0  0  0  0
  134.6870   71.9880  225.5210 C   0  0  0  0  0  0  0  0  0  0  0  0
  134.6940   73.3280  225.2620 C   0  0  0  0  0  0  0  0  0  0  0  0
  134.1300   74.1930  226.1820 O   0  0  0  0  0  0  0  0  0  0  0  0
  135.2620   73.8140  224.0830 C   0  0  0  0  0  0  0  0  0  0  0  0
  137.5418   78.2042  222.7409 H   0  0  0  0  0  0  0  0  0  0  0  0
  141.8445   78.5710  222.8219 H   0  0  0  0  0  0  0  0  0  0  0  0
  142.0683   76.1098  222.3910 H   0  0  0  0  0  0  0  0  0  0  0  0
  138.4237   71.7618  221.0876 H   0  0  0  0  0  0  0  0  0  0  0  0
  141.0619   71.6221  221.7755 H   0  0  0  0  0  0  0  0  0  0  0  0
  140.7287   72.7310  224.7735 H   0  0  0  0  0  0  0  0  0  0  0  0
  140.5878   71.5930  226.9526 H   0  0  0  0  0  0  0  0  0  0  0  0
  139.8146   69.2288  227.0993 H   0  0  0  0  0  0  0  0  0  0  0  0
  139.5720   66.9940  224.6020 H   0  0  0  0  0  0  0  0  0  0  0  0
  139.3359   69.1979  222.8282 H   0  0  0  0  0  0  0  0  0  0  0  0
  135.7116   74.0948  221.3505 H   0  0  0  0  0  0  0  0  0  0  0  0
  136.7374   72.5717  221.3131 H   0  0  0  0  0  0  0  0  0  0  0  0
  136.2549   70.9211  222.7159 H   0  0  0  0  0  0  0  0  0  0  0  0
  135.2483   70.0592  224.7985 H   0  0  0  0  0  0  0  0  0  0  0  0
  134.2408   71.5973  226.4474 H   0  0  0  0  0  0  0  0  0  0  0  0
  133.7360   75.0810  225.8500 H   0  0  0  0  0  0  0  0  0  0  0  0
  135.2526   74.8988  223.9010 H   0  0  0  0  0  0  0  0  0  0  0  0
  1  2  2  0
  2  3  1  0
  3  4  2  0
  4  5  1  0
  5  6  1  0
  5  7  2  0
  7  8  1  0
  8  9  2  0
  9 10  1  0
 10 11  2  0
 11 12  1  0
 12 13  2  0
 13 14  1  0
 14 15  2  0
 15 16  1  0
 16 17  2  0
 17 18  1  0
 18 19  1  0
 18 20  2  0
 11 21  1  0
 21 22  1  0
 22 23  1  0
 23 24  2  0
 24 25  1  0
 25 26  2  0
 26 27  1  0
 27 28  1  0
 27 29  2  0
 21  2  1  0
 29 23  1  0
  9  3  1  0
 20 14  1  0
  4 30  1  0
  7 31  1  0
  8 32  1  0
 12 33  1  0
 13 34  1  0
 15 35  1  0
 16 36  1  0
 17 37  1  0
 19 38  1  0
 20 39  1  0
 22 40  1  0
 22 41  1  0
 24 42  1  0
 25 43  1  0
 26 44  1  0
 28 45  1  0
 29 46  1  0
M  END
>  <smiles>  (7) 
O=c1c2cc(Cl)ccc2nc(/C=C/c2cccc(O)c2)n1Cc1cccc(O)c1

>  <score_type>  (7) 
oracle

>  <origin>  (7) 
autodockgpu

>  <m_score__min__energy>  (7) 
-8.8100000000000005

>  <m_primary>  (7) 
energy

>  <rmsd>  (7) 
8.337998689784396

>  <m_score__min__rmsd>  (7) 
8.337998689784396

>  <meeko>  (7) 
{"free_energy": -6.92, "intermolecular_energy": -9.0, "internal_energy": -1.42, "cluster_size": 13, "cluster_id": 4, "rank_in_cluster": 1}

>  <energy>  (7) 
-8.1

>  <cluster_rmsd>  (7) 
1.07

>  <cluster>  (7) 
1

$$$$

     RDKit          3D

 46 49  0  0  0  0  0  0  0  0999 V2000
  133.3300   79.4300  225.6940 O   0  0  0  0  0  0  0  0  0  0  0  0
  134.4080   80.0800  225.6400 C   0  0  0  0  0  0  0  0  0  0  0  0
  134.6910   80.8380  226.7840 C   0  0  0  0  0  0  0  0  0  0  0  0
  133.8180   80.8420  227.8690 C   0  0  0  0  0  0  0  0  0  0  0  0
  134.1370   81.6020  228.9700 C   0  0  0  0  0  0  0  0  0  0  0  0
  133.0750   81.6440  230.3630 Cl  0  0  0  0  0  0  0  0  0  0  0  0
  135.3060   82.3640  229.0260 C   0  0  0  0  0  0  0  0  0  0  0  0
  136.1730   82.3560  227.9400 C   0  0  0  0  0  0  0  0  0  0  0  0
  135.8430   81.5900  226.8410 C   0  0  0  0  0  0  0  0  0  0  0  0
  136.6480   81.5490  225.7670 N   0  0  0  0  0  0  0  0  0  0  0  0
  136.3510   80.8120  224.6830 C   0  0  0  0  0  0  0  0  0  0  0  0
  137.3260   80.8340  223.5910 C   0  0  0  0  0  0  0  0  0  0  0  0
  138.5800   81.1820  223.8100 C   0  0  0  0  0  0  0  0  0  0  0  0
  139.7260   80.3500  223.5180 C   0  0  0  0  0  0  0  0  0  0  0  0
  141.0260   80.7890  223.4920 C   0  0  0  0  0  0  0  0  0  0  0  0
  142.0950   79.9490  223.2070 C   0  0  0  0  0  0  0  0  0  0  0  0
  141.8850   78.6140  222.9330 C   0  0  0  0  0  0  0  0  0  0  0  0
  140.5860   78.1490  222.9530 C   0  0  0  0  0  0  0  0  0  0  0  0
  140.3140   76.8130  222.6850 O   0  0  0  0  0  0  0  0  0  0  0  0
  139.5350   78.9960  223.2390 C   0  0  0  0  0  0  0  0  0  0  0  0
  135.2360   80.0610  224.5790 N   0  0  0  0  0  0  0  0  0  0  0  0
  134.8750   79.2900  223.4310 C   0  0  0  0  0  0  0  0  0  0  0  0
  135.3240   77.8750  223.4660 C   0  0  0  0  0  0  0  0  0  0  0  0
  134.5100   76.9030  224.0470 C   0  0  0  0  0  0  0  0  0  0  0  0
  134.8920   75.5670  224.0980 C   0  0  0  0  0  0  0  0  0  0  0  0
  136.0870   75.1560  223.5760 C   0  0  0  0  0  0  0  0  0  0  0  0
  136.9020   76.0860  223.0010 C   0  0  0  0  0  0  0  0  0  0  0  0
  138.1140   75.6820  222.4700 O   0  0  0  0  0  0  0  0  0  0  0  0
  136.5160   77.4280  222.9520 C   0  0  0  0  0  0  0  0  0  0  0  0
  132.8917   80.2491  227.8459 H   0  0  0  0  0  0  0  0  0  0  0  0
  135.5377   82.9632  229.9189 H   0  0  0  0  0  0  0  0  0  0  0  0
  137.1008   82.9467  227.9562 H   0  0  0  0  0  0  0  0  0  0  0  0
  137.0092   80.5568  222.5747 H   0  0  0  0  0  0  0  0  0  0  0  0
  138.7666   82.1748  224.2453 H   0  0  0  0  0  0  0  0  0  0  0  0
  141.2297   81.8487  223.7054 H   0  0  0  0  0  0  0  0  0  0  0  0
  143.1183   80.3524  223.1998 H   0  0  0  0  0  0  0  0  0  0  0  0
  142.7255   77.9417  222.7059 H   0  0  0  0  0  0  0  0  0  0  0  0
  139.5210   76.4610  222.2020 H   0  0  0  0  0  0  0  0  0  0  0  0
  138.5125   78.5905  223.2474 H   0  0  0  0  0  0  0  0  0  0  0  0
  133.7785   79.2992  223.3434 H   0  0  0  0  0  0  0  0  0  0  0  0
  135.3824   79.7552  222.5730 H   0  0  0  0  0  0  0  0  0  0  0  0
  133.5416   77.2007  224.4756 H   0  0  0  0  0  0  0  0  0  0  0  0
  134.2227   74.8297  224.5654 H   0  0  0  0  0  0  0  0  0  0  0  0
  136.3846   74.0979  223.6189 H   0  0  0  0  0  0  0  0  0  0  0  0
  138.8240   75.2900  223.0990 H   0  0  0  0  0  0  0  0  0  0  0  0
  137.1945   78.1556  222.4827 H   0  0  0  0  0  0  0  0  0  0  0  0
  1  2  2  0
  2  3  1  0
  3  4  2  0
  4  5  1  0
  5  6  1  0
  5  7  2  0
  7  8  1  0
  8  9  2  0
  9 10  1  0
 10 11  2  0
 11 12  1  0
 12 13  2  0
 13 14  1  0
 14 15  2  0
 15 16  1  0
 16 17  2  0
 17 18  1  0
 18 19  1  0
 18 20  2  0
 11 21  1  0
 21 22  1  0
 22 23  1  0
 23 24  2  0
 24 25  1  0
 25 26  2  0
 26 27  1  0
 27 28  1  0
 27 29  2  0
 21  2  1  0
 29 23  1  0
  9  3  1  0
 20 14  1  0
  4 30  1  0
  7 31  1  0
  8 32  1  0
 12 33  1  0
 13 34  1  0
 15 35  1  0
 16 36  1  0
 17 37  1  0
 19 38  1  0
 20 39  1  0
 22 40  1  0
 22 41  1  0
 24 42  1  0
 25 43  1  0
 26 44  1  0
 28 45  1  0
 29 46  1  0
M  END
>  <smiles>  (8) 
O=c1c2cc(Cl)ccc2nc(/C=C/c2cccc(O)c2)n1Cc1cccc(O)c1

>  <score_type>  (8) 
oracle

>  <origin>  (8) 
autodockgpu

>  <m_score__min__energy>  (8) 
-8.8100000000000005

>  <m_primary>  (8) 
energy

>  <rmsd>  (8) 
9.366990136802686

>  <m_score__min__rmsd>  (8) 
9.366990136802686

>  <meeko>  (8) 
{"free_energy": -6.1, "intermolecular_energy": -8.19, "internal_energy": -2.58, "cluster_size": 4, "cluster_id": 6, "rank_in_cluster": 2}

>  <energy>  (8) 
-7.49

>  <cluster_rmsd>  (8) 
0.84

>  <cluster>  (8) 
1

$$$$

     RDKit          3D

 46 49  0  0  0  0  0  0  0  0999 V2000
  141.3980   76.0970  221.2460 O   0  0  0  0  0  0  0  0  0  0  0  0
  140.3240   76.5000  221.7660 C   0  0  0  0  0  0  0  0  0  0  0  0
  140.4250   77.7230  222.4420 C   0  0  0  0  0  0  0  0  0  0  0  0
  141.6380   78.4030  222.5080 C   0  0  0  0  0  0  0  0  0  0  0  0
  141.6900   79.6000  223.1830 C   0  0  0  0  0  0  0  0  0  0  0  0
  143.1910   80.4950  223.2960 Cl  0  0  0  0  0  0  0  0  0  0  0  0
  140.5620   80.1470  223.7990 C   0  0  0  0  0  0  0  0  0  0  0  0
  139.3540   79.4640  223.7310 C   0  0  0  0  0  0  0  0  0  0  0  0
  139.3140   78.2650  223.0500 C   0  0  0  0  0  0  0  0  0  0  0  0
  138.1700   77.5680  222.9560 N   0  0  0  0  0  0  0  0  0  0  0  0
  138.1030   76.3960  222.3010 C   0  0  0  0  0  0  0  0  0  0  0  0
  136.7900   75.7510  222.2500 C   0  0  0  0  0  0  0  0  0  0  0  0
  135.8320   76.0990  223.0880 C   0  0  0  0  0  0  0  0  0  0  0  0
  135.2530   75.2230  224.0830 C   0  0  0  0  0  0  0  0  0  0  0  0
  134.5180   75.6430  225.1630 C   0  0  0  0  0  0  0  0  0  0  0  0
  133.9810   74.7610  226.0920 C   0  0  0  0  0  0  0  0  0  0  0  0
  134.1710   73.4010  225.9610 C   0  0  0  0  0  0  0  0  0  0  0  0
  134.9060   72.9560  224.8820 C   0  0  0  0  0  0  0  0  0  0  0  0
  135.1290   71.5960  224.6980 O   0  0  0  0  0  0  0  0  0  0  0  0
  135.4330   73.8440  223.9670 C   0  0  0  0  0  0  0  0  0  0  0  0
  139.1610   75.8260  221.6910 N   0  0  0  0  0  0  0  0  0  0  0  0
  139.1320   74.5690  221.0120 C   0  0  0  0  0  0  0  0  0  0  0  0
  139.2520   73.3820  221.8970 C   0  0  0  0  0  0  0  0  0  0  0  0
  140.5080   72.9730  222.3440 C   0  0  0  0  0  0  0  0  0  0  0  0
  140.6630   71.8700  223.1750 C   0  0  0  0  0  0  0  0  0  0  0  0
  139.5830   71.1410  223.5880 C   0  0  0  0  0  0  0  0  0  0  0  0
  138.3420   71.5190  223.1660 C   0  0  0  0  0  0  0  0  0  0  0  0
  137.2410   70.7890  223.5770 O   0  0  0  0  0  0  0  0  0  0  0  0
  138.1890   72.6280  222.3300 C   0  0  0  0  0  0  0  0  0  0  0  0
  142.5382   77.9904  222.0291 H   0  0  0  0  0  0  0  0  0  0  0  0
  140.6293   81.1071  224.3316 H   0  0  0  0  0  0  0  0  0  0  0  0
  138.4504   79.8700  224.2092 H   0  0  0  0  0  0  0  0  0  0  0  0
  136.5994   74.9660  221.5034 H   0  0  0  0  0  0  0  0  0  0  0  0
  135.4466   77.1274  223.0256 H   0  0  0  0  0  0  0  0  0  0  0  0
  134.3473   76.7212  225.2984 H   0  0  0  0  0  0  0  0  0  0  0  0
  133.3988   75.1506  226.9401 H   0  0  0  0  0  0  0  0  0  0  0  0
  133.7505   72.6952  226.6924 H   0  0  0  0  0  0  0  0  0  0  0  0
  135.1120   71.1110  223.8320 H   0  0  0  0  0  0  0  0  0  0  0  0
  136.0137   73.4524  223.1188 H   0  0  0  0  0  0  0  0  0  0  0  0
  138.1789   74.4956  220.4678 H   0  0  0  0  0  0  0  0  0  0  0  0
  140.0107   74.5531  220.3505 H   0  0  0  0  0  0  0  0  0  0  0  0
  141.3985   73.5377  222.0309 H   0  0  0  0  0  0  0  0  0  0  0  0
  141.6709   71.5789  223.5057 H   0  0  0  0  0  0  0  0  0  0  0  0
  139.7117   70.2689  224.2460 H   0  0  0  0  0  0  0  0  0  0  0  0
  136.7010   71.1210  224.3840 H   0  0  0  0  0  0  0  0  0  0  0  0
  137.1761   72.9085  222.0055 H   0  0  0  0  0  0  0  0  0  0  0  0
  1  2  2  0
  2  3  1  0
  3  4  2  0
  4  5  1  0
  5  6  1  0
  5  7  2  0
  7  8  1  0
  8  9  2  0
  9 10  1  0
 10 11  2  0
 11 12  1  0
 12 13  2  0
 13 14  1  0
 14 15  2  0
 15 16  1  0
 16 17  2  0
 17 18  1  0
 18 19  1  0
 18 20  2  0
 11 21  1  0
 21 22  1  0
 22 23  1  0
 23 24  2  0
 24 25  1  0
 25 26  2  0
 26 27  1  0
 27 28  1  0
 27 29  2  0
 21  2  1  0
 29 23  1  0
  9  3  1  0
 20 14  1  0
  4 30  1  0
  7 31  1  0
  8 32  1  0
 12 33  1  0
 13 34  1  0
 15 35  1  0
 16 36  1  0
 17 37  1  0
 19 38  1  0
 20 39  1  0
 22 40  1  0
 22 41  1  0
 24 42  1  0
 25 43  1  0
 26 44  1  0
 28 45  1  0
 29 46  1  0
M  END
>  <smiles>  (9) 
O=c1c2cc(Cl)ccc2nc(/C=C/c2cccc(O)c2)n1Cc1cccc(O)c1

>  <score_type>  (9) 
oracle

>  <origin>  (9) 
autodockgpu

>  <m_score__min__energy>  (9) 
-8.8100000000000005

>  <m_primary>  (9) 
energy

>  <rmsd>  (9) 
7.979190292806493

>  <m_score__min__rmsd>  (9) 
7.979190292806493

>  <meeko>  (9) 
{"free_energy": -5.81, "intermolecular_energy": -7.9, "internal_energy": -2.65, "cluster_size": 1, "cluster_id": 11, "rank_in_cluster": 1}

>  <energy>  (9) 
-7.41

>  <cluster_rmsd>  (9) 
1.65

>  <cluster>  (9) 
1

$$$$

     RDKit          3D

 46 49  0  0  0  0  0  0  0  0999 V2000
  142.7300   77.6600  219.3160 O   0  0  0  0  0  0  0  0  0  0  0  0
  141.9660   77.1000  220.1460 C   0  0  0  0  0  0  0  0  0  0  0  0
  141.4750   77.9440  221.1500 C   0  0  0  0  0  0  0  0  0  0  0  0
  141.8320   79.2890  221.1880 C   0  0  0  0  0  0  0  0  0  0  0  0
  141.3260   80.0790  222.1920 C   0  0  0  0  0  0  0  0  0  0  0  0
  141.7420   81.7790  222.2860 Cl  0  0  0  0  0  0  0  0  0  0  0  0
  140.4680   79.5690  223.1700 C   0  0  0  0  0  0  0  0  0  0  0  0
  140.1160   78.2260  223.1280 C   0  0  0  0  0  0  0  0  0  0  0  0
  140.6290   77.4420  222.1150 C   0  0  0  0  0  0  0  0  0  0  0  0
  140.3180   76.1390  222.0310 N   0  0  0  0  0  0  0  0  0  0  0  0
  140.8040   75.3520  221.0560 C   0  0  0  0  0  0  0  0  0  0  0  0
  140.3660   73.9560  221.0640 C   0  0  0  0  0  0  0  0  0  0  0  0
  141.1190   73.0130  221.5980 C   0  0  0  0  0  0  0  0  0  0  0  0
  141.4920   71.7840  220.9340 C   0  0  0  0  0  0  0  0  0  0  0  0
  140.6080   70.8280  220.5030 C   0  0  0  0  0  0  0  0  0  0  0  0
  141.0160   69.6620  219.8680 C   0  0  0  0  0  0  0  0  0  0  0  0
  142.3540   69.4160  219.6420 C   0  0  0  0  0  0  0  0  0  0  0  0
  143.2620   70.3640  220.0670 C   0  0  0  0  0  0  0  0  0  0  0  0
  144.6240   70.1710  219.8660 O   0  0  0  0  0  0  0  0  0  0  0  0
  142.8410   71.5170  220.6960 C   0  0  0  0  0  0  0  0  0  0  0  0
  141.6350   75.7950  220.0910 N   0  0  0  0  0  0  0  0  0  0  0  0
  142.1940   74.9820  219.0580 C   0  0  0  0  0  0  0  0  0  0  0  0
  143.5230   74.3980  219.3770 C   0  0  0  0  0  0  0  0  0  0  0  0
  144.2410   74.8670  220.4760 C   0  0  0  0  0  0  0  0  0  0  0  0
  145.4860   74.3460  220.8100 C   0  0  0  0  0  0  0  0  0  0  0  0
  146.0540   73.3480  220.0690 C   0  0  0  0  0  0  0  0  0  0  0  0
  145.3720   72.8700  218.9880 C   0  0  0  0  0  0  0  0  0  0  0  0
  145.9370   71.8600  218.2300 O   0  0  0  0  0  0  0  0  0  0  0  0
  144.1220   73.3960  218.6540 C   0  0  0  0  0  0  0  0  0  0  0  0
  142.5065   79.7114  220.4286 H   0  0  0  0  0  0  0  0  0  0  0  0
  140.0763   80.2229  223.9631 H   0  0  0  0  0  0  0  0  0  0  0  0
  139.4434   77.7970  223.8853 H   0  0  0  0  0  0  0  0  0  0  0  0
  139.3961   73.6890  220.6190 H   0  0  0  0  0  0  0  0  0  0  0  0
  141.4893   73.1734  222.6213 H   0  0  0  0  0  0  0  0  0  0  0  0
  139.5326   70.9913  220.6668 H   0  0  0  0  0  0  0  0  0  0  0  0
  140.2646   68.9277  219.5422 H   0  0  0  0  0  0  0  0  0  0  0  0
  142.6861   68.4953  219.1400 H   0  0  0  0  0  0  0  0  0  0  0  0
  145.3460   70.8170  220.0840 H   0  0  0  0  0  0  0  0  0  0  0  0
  143.5936   72.2506  221.0209 H   0  0  0  0  0  0  0  0  0  0  0  0
  141.4962   74.1558  218.8570 H   0  0  0  0  0  0  0  0  0  0  0  0
  142.3450   75.6421  218.1911 H   0  0  0  0  0  0  0  0  0  0  0  0
  143.8119   75.6692  221.0943 H   0  0  0  0  0  0  0  0  0  0  0  0
  146.0222   74.7433  221.6844 H   0  0  0  0  0  0  0  0  0  0  0  0
  147.0391   72.9391  220.3380 H   0  0  0  0  0  0  0  0  0  0  0  0
  145.3800   71.0210  218.0310 H   0  0  0  0  0  0  0  0  0  0  0  0
  143.5963   72.9914  217.7766 H   0  0  0  0  0  0  0  0  0  0  0  0
  1  2  2  0
  2  3  1  0
  3  4  2  0
  4  5  1  0
  5  6  1  0
  5  7  2  0
  7  8  1  0
  8  9  2  0
  9 10  1  0
 10 11  2  0
 11 12  1  0
 12 13  2  0
 13 14  1  0
 14 15  2  0
 15 16  1  0
 16 17  2  0
 17 18  1  0
 18 19  1  0
 18 20  2  0
 11 21  1  0
 21 22  1  0
 22 23  1  0
 23 24  2  0
 24 25  1  0
 25 26  2  0
 26 27  1  0
 27 28  1  0
 27 29  2  0
 21  2  1  0
 29 23  1  0
  9  3  1  0
 20 14  1  0
  4 30  1  0
  7 31  1  0
  8 32  1  0
 12 33  1  0
 13 34  1  0
 15 35  1  0
 16 36  1  0
 17 37  1  0
 19 38  1  0
 20 39  1  0
 22 40  1  0
 22 41  1  0
 24 42  1  0
 25 43  1  0
 26 44  1  0
 28 45  1  0
 29 46  1  0
M  END
>  <smiles>  (10) 
O=c1c2cc(Cl)ccc2nc(/C=C/c2cccc(O)c2)n1Cc1cccc(O)c1

>  <score_type>  (10) 
oracle

>  <origin>  (10) 
autodockgpu

>  <m_score__min__energy>  (10) 
-8.8100000000000005

>  <m_primary>  (10) 
energy

>  <rmsd>  (10) 
7.592900171193011

>  <m_score__min__rmsd>  (10) 
7.592900171193011

>  <meeko>  (10) 
{"free_energy": -6.17, "intermolecular_energy": -8.26, "internal_energy": -2.74, "cluster_size": 1, "cluster_id": 8, "rank_in_cluster": 1}

>  <energy>  (10) 
-7.87

>  <cluster_rmsd>  (10) 
0.0

>  <cluster>  (10) 
2

$$$$

     RDKit          3D

 46 49  0  0  0  0  0  0  0  0999 V2000
  138.0710   76.8240  221.9070 O   0  0  0  0  0  0  0  0  0  0  0  0
  138.7340   77.7270  222.4820 C   0  0  0  0  0  0  0  0  0  0  0  0
  137.9590   78.7300  223.0790 C   0  0  0  0  0  0  0  0  0  0  0  0
  136.5680   78.6900  223.0140 C   0  0  0  0  0  0  0  0  0  0  0  0
  135.8490   79.6970  223.6130 C   0  0  0  0  0  0  0  0  0  0  0  0
  134.0980   79.6940  223.5620 Cl  0  0  0  0  0  0  0  0  0  0  0  0
  136.4750   80.7520  224.2820 C   0  0  0  0  0  0  0  0  0  0  0  0
  137.8630   80.7870  224.3430 C   0  0  0  0  0  0  0  0  0  0  0  0
  138.5740   79.7710  223.7380 C   0  0  0  0  0  0  0  0  0  0  0  0
  139.9160   79.7610  223.7700 N   0  0  0  0  0  0  0  0  0  0  0  0
  140.6340   78.7850  223.1890 C   0  0  0  0  0  0  0  0  0  0  0  0
  142.0890   78.8780  223.3190 C   0  0  0  0  0  0  0  0  0  0  0  0
  142.7620   79.8420  222.7210 C   0  0  0  0  0  0  0  0  0  0  0  0
  142.1710   80.8510  221.8690 C   0  0  0  0  0  0  0  0  0  0  0  0
  141.6080   82.0200  222.3140 C   0  0  0  0  0  0  0  0  0  0  0  0
  141.0520   82.9590  221.4540 C   0  0  0  0  0  0  0  0  0  0  0  0
  141.0450   82.7470  220.0920 C   0  0  0  0  0  0  0  0  0  0  0  0
  141.6070   81.5770  219.6210 C   0  0  0  0  0  0  0  0  0  0  0  0
  141.6290   81.3090  218.2570 O   0  0  0  0  0  0  0  0  0  0  0  0
  142.1550   80.6540  220.4870 C   0  0  0  0  0  0  0  0  0  0  0  0
  140.0790   77.7470  222.5320 N   0  0  0  0  0  0  0  0  0  0  0  0
  140.8120   76.7090  221.8770 C   0  0  0  0  0  0  0  0  0  0  0  0
  141.3350   77.0700  220.5340 C   0  0  0  0  0  0  0  0  0  0  0  0
  142.5430   76.5300  220.0920 C   0  0  0  0  0  0  0  0  0  0  0  0
  143.0660   76.8400  218.8420 C   0  0  0  0  0  0  0  0  0  0  0  0
  142.4100   77.6900  217.9950 C   0  0  0  0  0  0  0  0  0  0  0  0
  141.2260   78.2310  218.4030 C   0  0  0  0  0  0  0  0  0  0  0  0
  140.5540   79.0930  217.5540 O   0  0  0  0  0  0  0  0  0  0  0  0
  140.7040   77.9190  219.6590 C   0  0  0  0  0  0  0  0  0  0  0  0
  136.0547   77.8682  222.4933 H   0  0  0  0  0  0  0  0  0  0  0  0
  135.8767   81.5449  224.7545 H   0  0  0  0  0  0  0  0  0  0  0  0
  138.3829   81.6059  224.8617 H   0  0  0  0  0  0  0  0  0  0  0  0
  142.6284   78.1340  223.9235 H   0  0  0  0  0  0  0  0  0  0  0  0
  143.8495   79.8816  222.8814 H   0  0  0  0  0  0  0  0  0  0  0  0
  141.5962   82.2222  223.3952 H   0  0  0  0  0  0  0  0  0  0  0  0
  140.6131   83.8806  221.8640 H   0  0  0  0  0  0  0  0  0  0  0  0
  140.6067   83.4847  219.4038 H   0  0  0  0  0  0  0  0  0  0  0  0
  142.1200   80.5690  217.8130 H   0  0  0  0  0  0  0  0  0  0  0  0
  142.5936   79.7330  220.0755 H   0  0  0  0  0  0  0  0  0  0  0  0
  141.6656   76.4373  222.5153 H   0  0  0  0  0  0  0  0  0  0  0  0
  140.1056   75.8801  221.7225 H   0  0  0  0  0  0  0  0  0  0  0  0
  143.0953   75.8419  220.7489 H   0  0  0  0  0  0  0  0  0  0  0  0
  144.0221   76.3948  218.5293 H   0  0  0  0  0  0  0  0  0  0  0  0
  142.8278   77.9321  217.0066 H   0  0  0  0  0  0  0  0  0  0  0  0
  140.5290   80.0930  217.7820 H   0  0  0  0  0  0  0  0  0  0  0  0
  139.7479   78.3718  219.9602 H   0  0  0  0  0  0  0  0  0  0  0  0
  1  2  2  0
  2  3  1  0
  3  4  2  0
  4  5  1  0
  5  6  1  0
  5  7  2  0
  7  8  1  0
  8  9  2  0
  9 10  1  0
 10 11  2  0
 11 12  1  0
 12 13  2  0
 13 14  1  0
 14 15  2  0
 15 16  1  0
 16 17  2  0
 17 18  1  0
 18 19  1  0
 18 20  2  0
 11 21  1  0
 21 22  1  0
 22 23  1  0
 23 24  2  0
 24 25  1  0
 25 26  2  0
 26 27  1  0
 27 28  1  0
 27 29  2  0
 21  2  1  0
 29 23  1  0
  9  3  1  0
 20 14  1  0
  4 30  1  0
  7 31  1  0
  8 32  1  0
 12 33  1  0
 13 34  1  0
 15 35  1  0
 16 36  1  0
 17 37  1  0
 19 38  1  0
 20 39  1  0
 22 40  1  0
 22 41  1  0
 24 42  1  0
 25 43  1  0
 26 44  1  0
 28 45  1  0
 29 46  1  0
M  END
>  <smiles>  (11) 
O=c1c2cc(Cl)ccc2nc(/C=C/c2cccc(O)c2)n1Cc1cccc(O)c1

>  <score_type>  (11) 
oracle

>  <origin>  (11) 
autodockgpu

>  <m_score__min__energy>  (11) 
-8.8100000000000005

>  <m_primary>  (11) 
energy

>  <rmsd>  (11) 
6.255858952759936

>  <m_score__min__rmsd>  (11) 
6.255858952759936

>  <meeko>  (11) 
{"free_energy": -5.4, "intermolecular_energy": -7.49, "internal_energy": -3.25, "cluster_size": 9, "cluster_id": 14, "rank_in_cluster": 4}

>  <energy>  (11) 
-7.8

>  <cluster_rmsd>  (11) 
0.1

>  <cluster>  (11) 
2

$$$$

     RDKit          3D

 46 49  0  0  0  0  0  0  0  0999 V2000
  136.3530   75.4520  221.9360 O   0  0  0  0  0  0  0  0  0  0  0  0
  137.5560   75.0810  221.9850 C   0  0  0  0  0  0  0  0  0  0  0  0
  138.4730   76.1050  222.2530 C   0  0  0  0  0  0  0  0  0  0  0  0
  138.0420   77.4160  222.4420 C   0  0  0  0  0  0  0  0  0  0  0  0
  138.9790   78.3880  222.7020 C   0  0  0  0  0  0  0  0  0  0  0  0
  138.4910   80.0530  222.9470 Cl  0  0  0  0  0  0  0  0  0  0  0  0
  140.3420   78.0960  222.7810 C   0  0  0  0  0  0  0  0  0  0  0  0
  140.7670   76.7860  222.5910 C   0  0  0  0  0  0  0  0  0  0  0  0
  139.8180   75.8190  222.3320 C   0  0  0  0  0  0  0  0  0  0  0  0
  140.1780   74.5390  222.1410 N   0  0  0  0  0  0  0  0  0  0  0  0
  139.2750   73.5770  221.8860 C   0  0  0  0  0  0  0  0  0  0  0  0
  139.7970   72.2190  221.7240 C   0  0  0  0  0  0  0  0  0  0  0  0
  140.6590   71.7180  222.5880 C   0  0  0  0  0  0  0  0  0  0  0  0
  140.3040   71.1610  223.8750 C   0  0  0  0  0  0  0  0  0  0  0  0
  140.7050   71.6670  225.0850 C   0  0  0  0  0  0  0  0  0  0  0  0
  140.3360   71.0960  226.2960 C   0  0  0  0  0  0  0  0  0  0  0  0
  139.5350   69.9730  226.3280 C   0  0  0  0  0  0  0  0  0  0  0  0
  139.1180   69.4460  225.1230 C   0  0  0  0  0  0  0  0  0  0  0  0
  138.3090   68.3160  225.0930 O   0  0  0  0  0  0  0  0  0  0  0  0
  139.4940   70.0250  223.9280 C   0  0  0  0  0  0  0  0  0  0  0  0
  137.9500   73.8070  221.7980 N   0  0  0  0  0  0  0  0  0  0  0  0
  136.9670   72.8140  221.4990 C   0  0  0  0  0  0  0  0  0  0  0  0
  136.3310   72.1900  222.6880 C   0  0  0  0  0  0  0  0  0  0  0  0
  135.6690   72.9880  223.6200 C   0  0  0  0  0  0  0  0  0  0  0  0
  135.0590   72.4430  224.7440 C   0  0  0  0  0  0  0  0  0  0  0  0
  135.0870   71.0970  224.9780 C   0  0  0  0  0  0  0  0  0  0  0  0
  135.7270   70.2930  224.0810 C   0  0  0  0  0  0  0  0  0  0  0  0
  135.7610   68.9280  224.3060 O   0  0  0  0  0  0  0  0  0  0  0  0
  136.3390   70.8430  222.9520 C   0  0  0  0  0  0  0  0  0  0  0  0
  136.9730   77.6687  222.3844 H   0  0  0  0  0  0  0  0  0  0  0  0
  141.0707   78.8928  222.9910 H   0  0  0  0  0  0  0  0  0  0  0  0
  141.8346   76.5268  222.6459 H   0  0  0  0  0  0  0  0  0  0  0  0
  139.4663   71.6084  220.8709 H   0  0  0  0  0  0  0  0  0  0  0  0
  141.7233   71.7243  222.3100 H   0  0  0  0  0  0  0  0  0  0  0  0
  141.3450   72.5616  225.0968 H   0  0  0  0  0  0  0  0  0  0  0  0
  140.6855   71.5431  227.2383 H   0  0  0  0  0  0  0  0  0  0  0  0
  139.2388   69.5132  227.2824 H   0  0  0  0  0  0  0  0  0  0  0  0
  137.3970   68.2380  225.4770 H   0  0  0  0  0  0  0  0  0  0  0  0
  139.1441   69.5768  222.9864 H   0  0  0  0  0  0  0  0  0  0  0  0
  136.1769   73.2851  220.8958 H   0  0  0  0  0  0  0  0  0  0  0  0
  137.4934   72.0063  220.9693 H   0  0  0  0  0  0  0  0  0  0  0  0
  135.6284   74.0758  223.4620 H   0  0  0  0  0  0  0  0  0  0  0  0
  134.5457   73.1057  225.4563 H   0  0  0  0  0  0  0  0  0  0  0  0
  134.6041   70.6713  225.8700 H   0  0  0  0  0  0  0  0  0  0  0  0
  136.5360   68.3810  223.9140 H   0  0  0  0  0  0  0  0  0  0  0  0
  136.8477   70.1697  222.2464 H   0  0  0  0  0  0  0  0  0  0  0  0
  1  2  2  0
  2  3  1  0
  3  4  2  0
  4  5  1  0
  5  6  1  0
  5  7  2  0
  7  8  1  0
  8  9  2  0
  9 10  1  0
 10 11  2  0
 11 12  1  0
 12 13  2  0
 13 14  1  0
 14 15  2  0
 15 16  1  0
 16 17  2  0
 17 18  1  0
 18 19  1  0
 18 20  2  0
 11 21  1  0
 21 22  1  0
 22 23  1  0
 23 24  2  0
 24 25  1  0
 25 26  2  0
 26 27  1  0
 27 28  1  0
 27 29  2  0
 21  2  1  0
 29 23  1  0
  9  3  1  0
 20 14  1  0
  4 30  1  0
  7 31  1  0
  8 32  1  0
 12 33  1  0
 13 34  1  0
 15 35  1  0
 16 36  1  0
 17 37  1  0
 19 38  1  0
 20 39  1  0
 22 40  1  0
 22 41  1  0
 24 42  1  0
 25 43  1  0
 26 44  1  0
 28 45  1  0
 29 46  1  0
M  END
>  <smiles>  (12) 
O=c1c2cc(Cl)ccc2nc(/C=C/c2cccc(O)c2)n1Cc1cccc(O)c1

>  <score_type>  (12) 
oracle

>  <origin>  (12) 
autodockgpu

>  <m_score__min__energy>  (12) 
-8.8100000000000005

>  <m_primary>  (12) 
energy

>  <rmsd>  (12) 
8.529302233046451

>  <m_score__min__rmsd>  (12) 
8.529302233046451

>  <meeko>  (12) 
{"free_energy": -5.96, "intermolecular_energy": -8.05, "internal_energy": -3.0, "cluster_size": 13, "cluster_id": 4, "rank_in_cluster": 10}

>  <energy>  (12) 
-7.4

>  <cluster_rmsd>  (12) 
0.0

>  <cluster>  (12) 
3

$$$$

     RDKit          3D

 46 49  0  0  0  0  0  0  0  0999 V2000
  138.0830   81.9680  225.7230 O   0  0  0  0  0  0  0  0  0  0  0  0
  137.0210   81.4500  225.2860 C   0  0  0  0  0  0  0  0  0  0  0  0
  136.0200   81.2690  226.2490 C   0  0  0  0  0  0  0  0  0  0  0  0
  136.2290   81.6480  227.5730 C   0  0  0  0  0  0  0  0  0  0  0  0
  135.2180   81.4510  228.4840 C   0  0  0  0  0  0  0  0  0  0  0  0
  135.4270   81.9090  230.1620 Cl  0  0  0  0  0  0  0  0  0  0  0  0
  133.9950   80.8850  228.1160 C   0  0  0  0  0  0  0  0  0  0  0  0
  133.7920   80.5080  226.7940 C   0  0  0  0  0  0  0  0  0  0  0  0
  134.8140   80.7110  225.8880 C   0  0  0  0  0  0  0  0  0  0  0  0
  134.6670   80.3650  224.6000 N   0  0  0  0  0  0  0  0  0  0  0  0
  135.6450   80.5500  223.6970 C   0  0  0  0  0  0  0  0  0  0  0  0
  135.3460   80.1530  222.3200 C   0  0  0  0  0  0  0  0  0  0  0  0
  134.8660   78.9550  222.0500 C   0  0  0  0  0  0  0  0  0  0  0  0
  135.1760   77.7570  222.7990 C   0  0  0  0  0  0  0  0  0  0  0  0
  134.5530   77.3780  223.9620 C   0  0  0  0  0  0  0  0  0  0  0  0
  134.8860   76.2150  224.6450 C   0  0  0  0  0  0  0  0  0  0  0  0
  135.8780   75.3820  224.1720 C   0  0  0  0  0  0  0  0  0  0  0  0
  136.5180   75.7430  223.0040 C   0  0  0  0  0  0  0  0  0  0  0  0
  137.5250   74.9410  222.4790 O   0  0  0  0  0  0  0  0  0  0  0  0
  136.1760   76.9000  222.3360 C   0  0  0  0  0  0  0  0  0  0  0  0
  136.8420   81.0900  224.0010 N   0  0  0  0  0  0  0  0  0  0  0  0
  137.9140   81.2740  223.0740 C   0  0  0  0  0  0  0  0  0  0  0  0
  138.9540   80.2140  223.1090 C   0  0  0  0  0  0  0  0  0  0  0  0
  140.2470   80.5230  223.5310 C   0  0  0  0  0  0  0  0  0  0  0  0
  141.2480   79.5600  223.5810 C   0  0  0  0  0  0  0  0  0  0  0  0
  140.9990   78.2660  223.2170 C   0  0  0  0  0  0  0  0  0  0  0  0
  139.7420   77.9360  222.8010 C   0  0  0  0  0  0  0  0  0  0  0  0
  139.4790   76.6290  222.4300 O   0  0  0  0  0  0  0  0  0  0  0  0
  138.7390   78.9060  222.7510 C   0  0  0  0  0  0  0  0  0  0  0  0
  137.1843   82.0962  227.8838 H   0  0  0  0  0  0  0  0  0  0  0  0
  133.2018   80.7394  228.8641 H   0  0  0  0  0  0  0  0  0  0  0  0
  132.8395   80.0584  226.4768 H   0  0  0  0  0  0  0  0  0  0  0  0
  135.5242   80.8637  221.4996 H   0  0  0  0  0  0  0  0  0  0  0  0
  134.1812   78.8598  221.1944 H   0  0  0  0  0  0  0  0  0  0  0  0
  133.7586   78.0207  224.3693 H   0  0  0  0  0  0  0  0  0  0  0  0
  134.3533   75.9561  225.5719 H   0  0  0  0  0  0  0  0  0  0  0  0
  136.1500   74.4606  224.7078 H   0  0  0  0  0  0  0  0  0  0  0  0
  138.4280   74.8040  222.8670 H   0  0  0  0  0  0  0  0  0  0  0  0
  136.7085   77.1559  221.4081 H   0  0  0  0  0  0  0  0  0  0  0  0
  137.4888   81.3034  222.0599 H   0  0  0  0  0  0  0  0  0  0  0  0
  138.4151   82.2103  223.3606 H   0  0  0  0  0  0  0  0  0  0  0  0
  140.4804   81.5550  223.8319 H   0  0  0  0  0  0  0  0  0  0  0  0
  142.2559   79.8434  223.9186 H   0  0  0  0  0  0  0  0  0  0  0  0
  141.7945   77.5074  223.2586 H   0  0  0  0  0  0  0  0  0  0  0  0
  138.6260   76.4290  221.8950 H   0  0  0  0  0  0  0  0  0  0  0  0
  137.7356   78.6102  222.4109 H   0  0  0  0  0  0  0  0  0  0  0  0
  1  2  2  0
  2  3  1  0
  3  4  2  0
  4  5  1  0
  5  6  1  0
  5  7  2  0
  7  8  1  0
  8  9  2  0
  9 10  1  0
 10 11  2  0
 11 12  1  0
 12 13  2  0
 13 14  1  0
 14 15  2  0
 15 16  1  0
 16 17  2  0
 17 18  1  0
 18 19  1  0
 18 20  2  0
 11 21  1  0
 21 22  1  0
 22 23  1  0
 23 24  2  0
 24 25  1  0
 25 26  2  0
 26 27  1  0
 27 28  1  0
 27 29  2  0
 21  2  1  0
 29 23  1  0
  9  3  1  0
 20 14  1  0
  4 30  1  0
  7 31  1  0
  8 32  1  0
 12 33  1  0
 13 34  1  0
 15 35  1  0
 16 36  1  0
 17 37  1  0
 19 38  1  0
 20 39  1  0
 22 40  1  0
 22 41  1  0
 24 42  1  0
 25 43  1  0
 26 44  1  0
 28 45  1  0
 29 46  1  0
M  END
>  <smiles>  (13) 
O=c1c2cc(Cl)ccc2nc(/C=C/c2cccc(O)c2)n1Cc1cccc(O)c1

>  <score_type>  (13) 
oracle

>  <origin>  (13) 
autodockgpu

>  <m_score__min__energy>  (13) 
-8.8100000000000005

>  <m_primary>  (13) 
energy

>  <rmsd>  (13) 
7.808309402744558

>  <m_score__min__rmsd>  (13) 
7.808309402744558

>  <meeko>  (13) 
{"free_energy": -5.5, "intermolecular_energy": -7.59, "internal_energy": -3.02, "cluster_size": 4, "cluster_id": 6, "rank_in_cluster": 3}

>  <energy>  (13) 
-6.92

>  <cluster_rmsd>  (13) 
0.0

>  <cluster>  (13) 
4

$$$$

     RDKit          3D

 46 49  0  0  0  0  0  0  0  0999 V2000
  138.3100   81.6360  225.2960 O   0  0  0  0  0  0  0  0  0  0  0  0
  137.2420   81.1830  224.8060 C   0  0  0  0  0  0  0  0  0  0  0  0
  136.1870   81.0570  225.7190 C   0  0  0  0  0  0  0  0  0  0  0  0
  136.3530   81.4180  227.0530 C   0  0  0  0  0  0  0  0  0  0  0  0
  135.2890   81.2770  227.9130 C   0  0  0  0  0  0  0  0  0  0  0  0
  135.4440   81.7160  229.6020 Cl  0  0  0  0  0  0  0  0  0  0  0  0
  134.0550   80.7850  227.4830 C   0  0  0  0  0  0  0  0  0  0  0  0
  133.8950   80.4260  226.1500 C   0  0  0  0  0  0  0  0  0  0  0  0
  134.9690   80.5730  225.2960 C   0  0  0  0  0  0  0  0  0  0  0  0
  134.8640   80.2400  224.0000 N   0  0  0  0  0  0  0  0  0  0  0  0
  135.8940   80.3710  223.1460 C   0  0  0  0  0  0  0  0  0  0  0  0
  135.6390   79.9980  221.7540 C   0  0  0  0  0  0  0  0  0  0  0  0
  135.2950   78.7650  221.4360 C   0  0  0  0  0  0  0  0  0  0  0  0
  135.5620   77.6010  222.2510 C   0  0  0  0  0  0  0  0  0  0  0  0
  134.8320   77.2310  223.3520 C   0  0  0  0  0  0  0  0  0  0  0  0
  135.1280   76.1010  224.1040 C   0  0  0  0  0  0  0  0  0  0  0  0
  136.1910   75.2910  223.7640 C   0  0  0  0  0  0  0  0  0  0  0  0
  136.9400   75.6420  222.6600 C   0  0  0  0  0  0  0  0  0  0  0  0
  138.0240   74.8630  222.2690 O   0  0  0  0  0  0  0  0  0  0  0  0
  136.6330   76.7670  221.9240 C   0  0  0  0  0  0  0  0  0  0  0  0
  137.1040   80.8390  223.5110 N   0  0  0  0  0  0  0  0  0  0  0  0
  138.2290   80.9630  222.6380 C   0  0  0  0  0  0  0  0  0  0  0  0
  139.2900   79.9440  222.8430 C   0  0  0  0  0  0  0  0  0  0  0  0
  140.4980   80.3080  223.4370 C   0  0  0  0  0  0  0  0  0  0  0  0
  141.5140   79.3840  223.6480 C   0  0  0  0  0  0  0  0  0  0  0  0
  141.3650   78.0760  223.2810 C   0  0  0  0  0  0  0  0  0  0  0  0
  140.1930   77.6920  222.6980 C   0  0  0  0  0  0  0  0  0  0  0  0
  140.0310   76.3700  222.3220 O   0  0  0  0  0  0  0  0  0  0  0  0
  139.1730   78.6230  222.4860 C   0  0  0  0  0  0  0  0  0  0  0  0
  137.3165   81.8085  227.4124 H   0  0  0  0  0  0  0  0  0  0  0  0
  133.2194   80.6828  228.1910 H   0  0  0  0  0  0  0  0  0  0  0  0
  132.9346   80.0338  225.7841 H   0  0  0  0  0  0  0  0  0  0  0  0
  135.7355   80.7558  220.9626 H   0  0  0  0  0  0  0  0  0  0  0  0
  134.7675   78.6114  220.4830 H   0  0  0  0  0  0  0  0  0  0  0  0
  133.9770   77.8548  223.6518 H   0  0  0  0  0  0  0  0  0  0  0  0
  134.5091   75.8502  224.9781 H   0  0  0  0  0  0  0  0  0  0  0  0
  136.4336   74.3946  224.3536 H   0  0  0  0  0  0  0  0  0  0  0  0
  138.8200   74.6480  222.8210 H   0  0  0  0  0  0  0  0  0  0  0  0
  137.2527   77.0157  221.0499 H   0  0  0  0  0  0  0  0  0  0  0  0
  137.8693   80.8792  221.6018 H   0  0  0  0  0  0  0  0  0  0  0  0
  138.6879   81.9378  222.8598 H   0  0  0  0  0  0  0  0  0  0  0  0
  140.6503   81.3526  223.7462 H   0  0  0  0  0  0  0  0  0  0  0  0
  142.4534   79.7105  224.1180 H   0  0  0  0  0  0  0  0  0  0  0  0
  142.1724   77.3488  223.4520 H   0  0  0  0  0  0  0  0  0  0  0  0
  139.1580   76.0910  221.8600 H   0  0  0  0  0  0  0  0  0  0  0  0
  138.2388   78.2844  222.0142 H   0  0  0  0  0  0  0  0  0  0  0  0
  1  2  2  0
  2  3  1  0
  3  4  2  0
  4  5  1  0
  5  6  1  0
  5  7  2  0
  7  8  1  0
  8  9  2  0
  9 10  1  0
 10 11  2  0
 11 12  1  0
 12 13  2  0
 13 14  1  0
 14 15  2  0
 15 16  1  0
 16 17  2  0
 17 18  1  0
 18 19  1  0
 18 20  2  0
 11 21  1  0
 21 22  1  0
 22 23  1  0
 23 24  2  0
 24 25  1  0
 25 26  2  0
 26 27  1  0
 27 28  1  0
 27 29  2  0
 21  2  1  0
 29 23  1  0
  9  3  1  0
 20 14  1  0
  4 30  1  0
  7 31  1  0
  8 32  1  0
 12 33  1  0
 13 34  1  0
 15 35  1  0
 16 36  1  0
 17 37  1  0
 19 38  1  0
 20 39  1  0
 22 40  1  0
 22 41  1  0
 24 42  1  0
 25 43  1  0
 26 44  1  0
 28 45  1  0
 29 46  1  0
M  END
>  <smiles>  (14) 
O=c1c2cc(Cl)ccc2nc(/C=C/c2cccc(O)c2)n1Cc1cccc(O)c1

>  <score_type>  (14) 
oracle

>  <origin>  (14) 
autodockgpu

>  <m_score__min__energy>  (14) 
-8.8100000000000005

>  <m_primary>  (14) 
energy

>  <rmsd>  (14) 
7.46912361746073

>  <m_score__min__rmsd>  (14) 
7.46912361746073

>  <meeko>  (14) 
{"free_energy": -5.29, "intermolecular_energy": -7.37, "internal_energy": -3.07, "cluster_size": 4, "cluster_id": 6, "rank_in_cluster": 4}

>  <energy>  (14) 
-6.18

>  <cluster_rmsd>  (14) 
1.82

>  <cluster>  (14) 
4

$$$$

     RDKit          3D

 46 49  0  0  0  0  0  0  0  0999 V2000
  138.2180   76.6240  221.9650 O   0  0  0  0  0  0  0  0  0  0  0  0
  138.8490   77.5730  222.5020 C   0  0  0  0  0  0  0  0  0  0  0  0
  138.0410   78.5590  223.0810 C   0  0  0  0  0  0  0  0  0  0  0  0
  136.6530   78.4570  223.0400 C   0  0  0  0  0  0  0  0  0  0  0  0
  135.9000   79.4500  223.6210 C   0  0  0  0  0  0  0  0  0  0  0  0
  134.1500   79.3710  223.5980 Cl  0  0  0  0  0  0  0  0  0  0  0  0
  136.4900   80.5510  224.2480 C   0  0  0  0  0  0  0  0  0  0  0  0
  137.8750   80.6480  224.2850 C   0  0  0  0  0  0  0  0  0  0  0  0
  138.6210   79.6450  223.6990 C   0  0  0  0  0  0  0  0  0  0  0  0
  139.9620   79.6930  223.7090 N   0  0  0  0  0  0  0  0  0  0  0  0
  140.7130   78.7310  223.1450 C   0  0  0  0  0  0  0  0  0  0  0  0
  142.1640   78.8910  223.2490 C   0  0  0  0  0  0  0  0  0  0  0  0
  142.7660   79.9550  222.7520 C   0  0  0  0  0  0  0  0  0  0  0  0
  142.1540   80.8920  221.8360 C   0  0  0  0  0  0  0  0  0  0  0  0
  141.5280   82.0550  222.2080 C   0  0  0  0  0  0  0  0  0  0  0  0
  140.9550   82.9240  221.2880 C   0  0  0  0  0  0  0  0  0  0  0  0
  140.9930   82.6450  219.9390 C   0  0  0  0  0  0  0  0  0  0  0  0
  141.6180   81.4800  219.5410 C   0  0  0  0  0  0  0  0  0  0  0  0
  141.6890   81.1460  218.1930 O   0  0  0  0  0  0  0  0  0  0  0  0
  142.1830   80.6270  220.4660 C   0  0  0  0  0  0  0  0  0  0  0  0
  140.1940   77.6510  222.5290 N   0  0  0  0  0  0  0  0  0  0  0  0
  140.9600   76.6260  221.8930 C   0  0  0  0  0  0  0  0  0  0  0  0
  141.4640   76.9760  220.5400 C   0  0  0  0  0  0  0  0  0  0  0  0
  142.6760   76.4490  220.0930 C   0  0  0  0  0  0  0  0  0  0  0  0
  143.1810   76.7490  218.8330 C   0  0  0  0  0  0  0  0  0  0  0  0
  142.5040   77.5760  217.9810 C   0  0  0  0  0  0  0  0  0  0  0  0
  141.3160   78.1050  218.3930 C   0  0  0  0  0  0  0  0  0  0  0  0
  140.6210   78.9440  217.5400 O   0  0  0  0  0  0  0  0  0  0  0  0
  140.8100   77.8020  219.6600 C   0  0  0  0  0  0  0  0  0  0  0  0
  136.1682   77.5985  222.5522 H   0  0  0  0  0  0  0  0  0  0  0  0
  135.8649   81.3313  224.7067 H   0  0  0  0  0  0  0  0  0  0  0  0
  138.3663   81.5044  224.7701 H   0  0  0  0  0  0  0  0  0  0  0  0
  142.7610   78.1137  223.7483 H   0  0  0  0  0  0  0  0  0  0  0  0
  143.8065   80.1424  223.0558 H   0  0  0  0  0  0  0  0  0  0  0  0
  141.4779   82.3093  223.2770 H   0  0  0  0  0  0  0  0  0  0  0  0
  140.4659   83.8443  221.6399 H   0  0  0  0  0  0  0  0  0  0  0  0
  140.5407   83.3273  219.2042 H   0  0  0  0  0  0  0  0  0  0  0  0
  142.2130   80.4000  217.8010 H   0  0  0  0  0  0  0  0  0  0  0  0
  142.6725   79.7076  220.1123 H   0  0  0  0  0  0  0  0  0  0  0  0
  141.8255   76.3984  222.5326 H   0  0  0  0  0  0  0  0  0  0  0  0
  140.2827   75.7696  221.7600 H   0  0  0  0  0  0  0  0  0  0  0  0
  143.2461   75.7795  220.7539 H   0  0  0  0  0  0  0  0  0  0  0  0
  144.1405   76.3140  218.5167 H   0  0  0  0  0  0  0  0  0  0  0  0
  142.9082   77.8098  216.9850 H   0  0  0  0  0  0  0  0  0  0  0  0
  140.6010   79.9500  217.7430 H   0  0  0  0  0  0  0  0  0  0  0  0
  139.8493   78.2430  219.9642 H   0  0  0  0  0  0  0  0  0  0  0  0
  1  2  2  0
  2  3  1  0
  3  4  2  0
  4  5  1  0
  5  6  1  0
  5  7  2  0
  7  8  1  0
  8  9  2  0
  9 10  1  0
 10 11  2  0
 11 12  1  0
 12 13  2  0
 13 14  1  0
 14 15  2  0
 15 16  1  0
 16 17  2  0
 17 18  1  0
 18 19  1  0
 18 20  2  0
 11 21  1  0
 21 22  1  0
 22 23  1  0
 23 24  2  0
 24 25  1  0
 25 26  2  0
 26 27  1  0
 27 28  1  0
 27 29  2  0
 21  2  1  0
 29 23  1  0
  9  3  1  0
 20 14  1  0
  4 30  1  0
  7 31  1  0
  8 32  1  0
 12 33  1  0
 13 34  1  0
 15 35  1  0
 16 36  1  0
 17 37  1  0
 19 38  1  0
 20 39  1  0
 22 40  1  0
 22 41  1  0
 24 42  1  0
 25 43  1  0
 26 44  1  0
 28 45  1  0
 29 46  1  0
M  END
>  <smiles>  (15) 
O=c1c2cc(Cl)ccc2nc(/C=C/c2cccc(O)c2)n1Cc1cccc(O)c1

>  <score_type>  (15) 
oracle

>  <origin>  (15) 
autodockgpu

>  <m_score__min__energy>  (15) 
-8.8100000000000005

>  <m_primary>  (15) 
energy

>  <rmsd>  (15) 
6.249659545546152

>  <m_score__min__rmsd>  (15) 
6.249659545546152

>  <meeko>  (15) 
{"free_energy": -5.41, "intermolecular_energy": -7.49, "internal_energy": -3.23, "cluster_size": 9, "cluster_id": 14, "rank_in_cluster": 3}

>  <energy>  (15) 
-6.18

>  <cluster_rmsd>  (15) 
1.82

>  <cluster>  (15) 
4

$$$$

     RDKit          3D

 46 49  0  0  0  0  0  0  0  0999 V2000
  136.4850   75.9450  222.0190 O   0  0  0  0  0  0  0  0  0  0  0  0
  137.6390   75.4400  222.0320 C   0  0  0  0  0  0  0  0  0  0  0  0
  138.6730   76.3530  222.2710 C   0  0  0  0  0  0  0  0  0  0  0  0
  138.4000   77.7030  222.4730 C   0  0  0  0  0  0  0  0  0  0  0  0
  139.4480   78.5630  222.7040 C   0  0  0  0  0  0  0  0  0  0  0  0
  139.1590   80.2710  222.9650 Cl  0  0  0  0  0  0  0  0  0  0  0  0
  140.7710   78.1170  222.7420 C   0  0  0  0  0  0  0  0  0  0  0  0
  141.0390   76.7690  222.5400 C   0  0  0  0  0  0  0  0  0  0  0  0
  139.9790   75.9160  222.3090 C   0  0  0  0  0  0  0  0  0  0  0  0
  140.1860   74.6040  222.1080 N   0  0  0  0  0  0  0  0  0  0  0  0
  139.1730   73.7510  221.8800 C   0  0  0  0  0  0  0  0  0  0  0  0
  139.5330   72.3430  221.7030 C   0  0  0  0  0  0  0  0  0  0  0  0
  140.4650   71.7830  222.4510 C   0  0  0  0  0  0  0  0  0  0  0  0
  140.2280   71.1800  223.7430 C   0  0  0  0  0  0  0  0  0  0  0  0
  140.7130   71.6610  224.9330 C   0  0  0  0  0  0  0  0  0  0  0  0
  140.4570   71.0440  226.1510 C   0  0  0  0  0  0  0  0  0  0  0  0
  139.6900   69.9000  226.2120 C   0  0  0  0  0  0  0  0  0  0  0  0
  139.1910   69.3970  225.0270 C   0  0  0  0  0  0  0  0  0  0  0  0
  138.4100   68.2470  225.0270 O   0  0  0  0  0  0  0  0  0  0  0  0
  139.4540   70.0210  223.8260 C   0  0  0  0  0  0  0  0  0  0  0  0
  137.8800   74.1300  221.8330 N   0  0  0  0  0  0  0  0  0  0  0  0
  136.7820   73.2560  221.5640 C   0  0  0  0  0  0  0  0  0  0  0  0
  136.2050   72.5960  222.7620 C   0  0  0  0  0  0  0  0  0  0  0  0
  135.4220   73.3320  223.6510 C   0  0  0  0  0  0  0  0  0  0  0  0
  134.8610   72.7520  224.7830 C   0  0  0  0  0  0  0  0  0  0  0  0
  135.0570   71.4290  225.0670 C   0  0  0  0  0  0  0  0  0  0  0  0
  135.8180   70.6850  224.2140 C   0  0  0  0  0  0  0  0  0  0  0  0
  136.0240   69.3450  224.4900 O   0  0  0  0  0  0  0  0  0  0  0  0
  136.3810   71.2710  223.0770 C   0  0  0  0  0  0  0  0  0  0  0  0
  137.3651   78.0750  222.4483 H   0  0  0  0  0  0  0  0  0  0  0  0
  141.5915   78.8252  222.9298 H   0  0  0  0  0  0  0  0  0  0  0  0
  142.0716   76.3905  222.5636 H   0  0  0  0  0  0  0  0  0  0  0  0
  139.0199   71.7439  220.9364 H   0  0  0  0  0  0  0  0  0  0  0  0
  141.4946   71.7746  222.0639 H   0  0  0  0  0  0  0  0  0  0  0  0
  141.3294   72.5720  224.9221 H   0  0  0  0  0  0  0  0  0  0  0  0
  140.8704   71.4724  227.0760 H   0  0  0  0  0  0  0  0  0  0  0  0
  139.4827   69.4048  227.1721 H   0  0  0  0  0  0  0  0  0  0  0  0
  137.4850   68.1650  225.3780 H   0  0  0  0  0  0  0  0  0  0  0  0
  139.0400   69.5912  222.9020 H   0  0  0  0  0  0  0  0  0  0  0  0
  135.9874   73.8433  221.0805 H   0  0  0  0  0  0  0  0  0  0  0  0
  137.1755   72.4511  220.9258 H   0  0  0  0  0  0  0  0  0  0  0  0
  135.2437   74.3989  223.4513 H   0  0  0  0  0  0  0  0  0  0  0  0
  134.2502   73.3667  225.4605 H   0  0  0  0  0  0  0  0  0  0  0  0
  134.6107   70.9746  225.9638 H   0  0  0  0  0  0  0  0  0  0  0  0
  136.6930   68.8180  223.9170 H   0  0  0  0  0  0  0  0  0  0  0  0
  136.9897   70.6456  222.4074 H   0  0  0  0  0  0  0  0  0  0  0  0
  1  2  2  0
  2  3  1  0
  3  4  2  0
  4  5  1  0
  5  6  1  0
  5  7  2  0
  7  8  1  0
  8  9  2  0
  9 10  1  0
 10 11  2  0
 11 12  1  0
 12 13  2  0
 13 14  1  0
 14 15  2  0
 15 16  1  0
 16 17  2  0
 17 18  1  0
 18 19  1  0
 18 20  2  0
 11 21  1  0
 21 22  1  0
 22 23  1  0
 23 24  2  0
 24 25  1  0
 25 26  2  0
 26 27  1  0
 27 28  1  0
 27 29  2  0
 21  2  1  0
 29 23  1  0
  9  3  1  0
 20 14  1  0
  4 30  1  0
  7 31  1  0
  8 32  1  0
 12 33  1  0
 13 34  1  0
 15 35  1  0
 16 36  1  0
 17 37  1  0
 19 38  1  0
 20 39  1  0
 22 40  1  0
 22 41  1  0
 24 42  1  0
 25 43  1  0
 26 44  1  0
 28 45  1  0
 29 46  1  0
M  END
>  <smiles>  (16) 
O=c1c2cc(Cl)ccc2nc(/C=C/c2cccc(O)c2)n1Cc1cccc(O)c1

>  <score_type>  (16) 
oracle

>  <origin>  (16) 
autodockgpu

>  <m_score__min__energy>  (16) 
-8.8100000000000005

>  <m_primary>  (16) 
energy

>  <rmsd>  (16) 
8.31675541997904

>  <m_score__min__rmsd>  (16) 
8.31675541997904

>  <meeko>  (16) 
{"free_energy": -5.97, "intermolecular_energy": -8.06, "internal_energy": -2.94, "cluster_size": 13, "cluster_id": 4, "rank_in_cluster": 8}

>  <energy>  (16) 
-6.13

>  <cluster_rmsd>  (16) 
1.82

>  <cluster>  (16) 
4

$$$$

     RDKit          3D

 46 49  0  0  0  0  0  0  0  0999 V2000
  141.0590   74.1500  221.8840 O   0  0  0  0  0  0  0  0  0  0  0  0
  139.8480   74.4740  222.0040 C   0  0  0  0  0  0  0  0  0  0  0  0
  139.6270   75.8420  222.2100 C   0  0  0  0  0  0  0  0  0  0  0  0
  140.6930   76.7350  222.2720 C   0  0  0  0  0  0  0  0  0  0  0  0
  140.4280   78.0680  222.4770 C   0  0  0  0  0  0  0  0  0  0  0  0
  141.7330   79.2340  222.5630 Cl  0  0  0  0  0  0  0  0  0  0  0  0
  139.1240   78.5460  222.6240 C   0  0  0  0  0  0  0  0  0  0  0  0
  138.0630   77.6500  222.5620 C   0  0  0  0  0  0  0  0  0  0  0  0
  138.3410   76.3150  222.3550 C   0  0  0  0  0  0  0  0  0  0  0  0
  137.3510   75.4110  222.2870 N   0  0  0  0  0  0  0  0  0  0  0  0
  137.5930   74.1040  222.0880 C   0  0  0  0  0  0  0  0  0  0  0  0
  136.4230   73.2280  222.0080 C   0  0  0  0  0  0  0  0  0  0  0  0
  135.4080   73.3770  222.8370 C   0  0  0  0  0  0  0  0  0  0  0  0
  135.0860   72.4670  223.9140 C   0  0  0  0  0  0  0  0  0  0  0  0
  134.5000   72.8330  225.0990 C   0  0  0  0  0  0  0  0  0  0  0  0
  134.2100   71.9190  226.1050 C   0  0  0  0  0  0  0  0  0  0  0  0
  134.5080   70.5820  225.9470 C   0  0  0  0  0  0  0  0  0  0  0  0
  135.0980   70.1900  224.7620 C   0  0  0  0  0  0  0  0  0  0  0  0
  135.4210   68.8560  224.5460 O   0  0  0  0  0  0  0  0  0  0  0  0
  135.3800   71.1090  223.7730 C   0  0  0  0  0  0  0  0  0  0  0  0
  138.8320   73.5930  221.9410 N   0  0  0  0  0  0  0  0  0  0  0  0
  139.1270   72.2070  221.7580 C   0  0  0  0  0  0  0  0  0  0  0  0
  139.3250   71.4420  223.0170 C   0  0  0  0  0  0  0  0  0  0  0  0
  140.2890   71.8550  223.9350 C   0  0  0  0  0  0  0  0  0  0  0  0
  140.5030   71.1690  225.1250 C   0  0  0  0  0  0  0  0  0  0  0  0
  139.7710   70.0580  225.4400 C   0  0  0  0  0  0  0  0  0  0  0  0
  138.8200   69.6330  224.5590 C   0  0  0  0  0  0  0  0  0  0  0  0
  138.0720   68.5110  224.8670 O   0  0  0  0  0  0  0  0  0  0  0  0
  138.6070   70.3240  223.3640 C   0  0  0  0  0  0  0  0  0  0  0  0
  141.7282   76.3805  222.1590 H   0  0  0  0  0  0  0  0  0  0  0  0
  138.9388   79.6180  222.7868 H   0  0  0  0  0  0  0  0  0  0  0  0
  137.0256   77.9977  222.6754 H   0  0  0  0  0  0  0  0  0  0  0  0
  136.3898   72.4350  221.2464 H   0  0  0  0  0  0  0  0  0  0  0  0
  134.7606   74.2556  222.6995 H   0  0  0  0  0  0  0  0  0  0  0  0
  134.2496   73.8920  225.2594 H   0  0  0  0  0  0  0  0  0  0  0  0
  133.7382   72.2655  227.0363 H   0  0  0  0  0  0  0  0  0  0  0  0
  134.2831   69.8521  226.7387 H   0  0  0  0  0  0  0  0  0  0  0  0
  136.1370   68.5150  223.9490 H   0  0  0  0  0  0  0  0  0  0  0  0
  135.8521   70.7609  222.8424 H   0  0  0  0  0  0  0  0  0  0  0  0
  138.2926   71.7491  221.2066 H   0  0  0  0  0  0  0  0  0  0  0  0
  140.0820   72.1621  221.2140 H   0  0  0  0  0  0  0  0  0  0  0  0
  140.8953   72.7455  223.7125 H   0  0  0  0  0  0  0  0  0  0  0  0
  141.2735   71.5257  225.8243 H   0  0  0  0  0  0  0  0  0  0  0  0
  139.9450   69.5188  226.3829 H   0  0  0  0  0  0  0  0  0  0  0  0
  137.2970   68.6000  225.5350 H   0  0  0  0  0  0  0  0  0  0  0  0
  137.8332   69.9580  222.6732 H   0  0  0  0  0  0  0  0  0  0  0  0
  1  2  2  0
  2  3  1  0
  3  4  2  0
  4  5  1  0
  5  6  1  0
  5  7  2  0
  7  8  1  0
  8  9  2  0
  9 10  1  0
 10 11  2  0
 11 12  1  0
 12 13  2  0
 13 14  1  0
 14 15  2  0
 15 16  1  0
 16 17  2  0
 17 18  1  0
 18 19  1  0
 18 20  2  0
 11 21  1  0
 21 22  1  0
 22 23  1  0
 23 24  2  0
 24 25  1  0
 25 26  2  0
 26 27  1  0
 27 28  1  0
 27 29  2  0
 21  2  1  0
 29 23  1  0
  9  3  1  0
 20 14  1  0
  4 30  1  0
  7 31  1  0
  8 32  1  0
 12 33  1  0
 13 34  1  0
 15 35  1  0
 16 36  1  0
 17 37  1  0
 19 38  1  0
 20 39  1  0
 22 40  1  0
 22 41  1  0
 24 42  1  0
 25 43  1  0
 26 44  1  0
 28 45  1  0
 29 46  1  0
M  END
>  <smiles>  (17) 
O=c1c2cc(Cl)ccc2nc(/C=C/c2cccc(O)c2)n1Cc1cccc(O)c1

>  <score_type>  (17) 
oracle

>  <origin>  (17) 
autodockgpu

>  <m_score__min__energy>  (17) 
-8.8100000000000005

>  <m_primary>  (17) 
energy

>  <rmsd>  (17) 
8.81574120773073

>  <m_score__min__rmsd>  (17) 
8.81574120773073

>  <meeko>  (17) 
{"free_energy": -5.97, "intermolecular_energy": -8.06, "internal_energy": -2.82, "cluster_size": 13, "cluster_id": 4, "rank_in_cluster": 9}

>  <energy>  (17) 
-6.04

>  <cluster_rmsd>  (17) 
1.14

>  <cluster>  (17) 
4

$$$$

     RDKit          3D

 46 49  0  0  0  0  0  0  0  0999 V2000
  140.7760   73.9980  221.9720 O   0  0  0  0  0  0  0  0  0  0  0  0
  139.5870   74.3770  222.1420 C   0  0  0  0  0  0  0  0  0  0  0  0
  139.4360   75.7570  222.3340 C   0  0  0  0  0  0  0  0  0  0  0  0
  140.5430   76.6020  222.3320 C   0  0  0  0  0  0  0  0  0  0  0  0
  140.3460   77.9490  222.5260 C   0  0  0  0  0  0  0  0  0  0  0  0
  141.7040   79.0560  222.5320 Cl  0  0  0  0  0  0  0  0  0  0  0  0
  139.0720   78.4860  222.7240 C   0  0  0  0  0  0  0  0  0  0  0  0
  137.9720   77.6380  222.7260 C   0  0  0  0  0  0  0  0  0  0  0  0
  138.1810   76.2890  222.5290 C   0  0  0  0  0  0  0  0  0  0  0  0
  137.1490   75.4290  222.5230 N   0  0  0  0  0  0  0  0  0  0  0  0
  137.3240   74.1100  222.3350 C   0  0  0  0  0  0  0  0  0  0  0  0
  136.1140   73.2860  222.3240 C   0  0  0  0  0  0  0  0  0  0  0  0
  135.1910   73.4260  223.2560 C   0  0  0  0  0  0  0  0  0  0  0  0
  134.8930   72.4400  224.2710 C   0  0  0  0  0  0  0  0  0  0  0  0
  134.2470   72.7040  225.4530 C   0  0  0  0  0  0  0  0  0  0  0  0
  133.9820   71.7200  226.3970 C   0  0  0  0  0  0  0  0  0  0  0  0
  134.3670   70.4140  226.1790 C   0  0  0  0  0  0  0  0  0  0  0  0
  135.0170   70.1250  224.9970 C   0  0  0  0  0  0  0  0  0  0  0  0
  135.4280   68.8260  224.7210 O   0  0  0  0  0  0  0  0  0  0  0  0
  135.2730   71.1120  224.0680 C   0  0  0  0  0  0  0  0  0  0  0  0
  138.5310   73.5410  222.1410 N   0  0  0  0  0  0  0  0  0  0  0  0
  138.7570   72.1410  221.9690 C   0  0  0  0  0  0  0  0  0  0  0  0
  139.1060   71.4100  223.2140 C   0  0  0  0  0  0  0  0  0  0  0  0
  140.1750   71.8440  223.9980 C   0  0  0  0  0  0  0  0  0  0  0  0
  140.5320   71.1900  225.1710 C   0  0  0  0  0  0  0  0  0  0  0  0
  139.8440   70.0910  225.6020 C   0  0  0  0  0  0  0  0  0  0  0  0
  138.7930   69.6450  224.8550 C   0  0  0  0  0  0  0  0  0  0  0  0
  138.0880   68.5330  225.2820 O   0  0  0  0  0  0  0  0  0  0  0  0
  138.4360   70.3040  223.6760 C   0  0  0  0  0  0  0  0  0  0  0  0
  141.5552   76.1998  222.1782 H   0  0  0  0  0  0  0  0  0  0  0  0
  138.9414   79.5675  222.8765 H   0  0  0  0  0  0  0  0  0  0  0  0
  136.9573   78.0333  222.8812 H   0  0  0  0  0  0  0  0  0  0  0  0
  135.9726   72.5402  221.5279 H   0  0  0  0  0  0  0  0  0  0  0  0
  134.6070   74.3582  223.2615 H   0  0  0  0  0  0  0  0  0  0  0  0
  133.9265   73.7355  225.6609 H   0  0  0  0  0  0  0  0  0  0  0  0
  133.4597   71.9854  227.3280 H   0  0  0  0  0  0  0  0  0  0  0  0
  134.1628   69.6293  226.9223 H   0  0  0  0  0  0  0  0  0  0  0  0
  136.2270   68.5630  224.1930 H   0  0  0  0  0  0  0  0  0  0  0  0
  135.7936   70.8440  223.1368 H   0  0  0  0  0  0  0  0  0  0  0  0
  137.8408   71.6945  221.5552 H   0  0  0  0  0  0  0  0  0  0  0  0
  139.6253   72.0468  221.3002 H   0  0  0  0  0  0  0  0  0  0  0  0
  140.7499   72.7262  223.6797 H   0  0  0  0  0  0  0  0  0  0  0  0
  141.3817   71.5629  225.7617 H   0  0  0  0  0  0  0  0  0  0  0  0
  140.1312   69.5770  226.5311 H   0  0  0  0  0  0  0  0  0  0  0  0
  137.1640   68.6670  225.7080 H   0  0  0  0  0  0  0  0  0  0  0  0
  137.5841   69.9216  223.0945 H   0  0  0  0  0  0  0  0  0  0  0  0
  1  2  2  0
  2  3  1  0
  3  4  2  0
  4  5  1  0
  5  6  1  0
  5  7  2  0
  7  8  1  0
  8  9  2  0
  9 10  1  0
 10 11  2  0
 11 12  1  0
 12 13  2  0
 13 14  1  0
 14 15  2  0
 15 16  1  0
 16 17  2  0
 17 18  1  0
 18 19  1  0
 18 20  2  0
 11 21  1  0
 21 22  1  0
 22 23  1  0
 23 24  2  0
 24 25  1  0
 25 26  2  0
 26 27  1  0
 27 28  1  0
 27 29  2  0
 21  2  1  0
 29 23  1  0
  9  3  1  0
 20 14  1  0
  4 30  1  0
  7 31  1  0
  8 32  1  0
 12 33  1  0
 13 34  1  0
 15 35  1  0
 16 36  1  0
 17 37  1  0
 19 38  1  0
 20 39  1  0
 22 40  1  0
 22 41  1  0
 24 42  1  0
 25 43  1  0
 26 44  1  0
 28 45  1  0
 29 46  1  0
M  END
>  <smiles>  (18) 
O=c1c2cc(Cl)ccc2nc(/C=C/c2cccc(O)c2)n1Cc1cccc(O)c1

>  <score_type>  (18) 
oracle

>  <origin>  (18) 
autodockgpu

>  <m_score__min__energy>  (18) 
-8.8100000000000005

>  <m_primary>  (18) 
energy

>  <rmsd>  (18) 
8.905865869935827

>  <m_score__min__rmsd>  (18) 
8.905865869935827

>  <meeko>  (18) 
{"free_energy": -6.18, "intermolecular_energy": -8.26, "internal_energy": -2.74, "cluster_size": 13, "cluster_id": 4, "rank_in_cluster": 3}

>  <energy>  (18) 
-6.02

>  <cluster_rmsd>  (18) 
1.07

>  <cluster>  (18) 
4

$$$$

     RDKit          3D

 46 49  0  0  0  0  0  0  0  0999 V2000
  139.0740   68.2780  223.7980 O   0  0  0  0  0  0  0  0  0  0  0  0
  139.4950   69.4660  223.7940 C   0  0  0  0  0  0  0  0  0  0  0  0
  140.0230   69.9020  225.0160 C   0  0  0  0  0  0  0  0  0  0  0  0
  140.0580   69.0540  226.1210 C   0  0  0  0  0  0  0  0  0  0  0  0
  140.5850   69.5260  227.2990 C   0  0  0  0  0  0  0  0  0  0  0  0
  140.6520   68.5010  228.7190 Cl  0  0  0  0  0  0  0  0  0  0  0  0
  141.0830   70.8260  227.4160 C   0  0  0  0  0  0  0  0  0  0  0  0
  141.0450   71.6670  226.3110 C   0  0  0  0  0  0  0  0  0  0  0  0
  140.5150   71.1830  225.1330 C   0  0  0  0  0  0  0  0  0  0  0  0
  140.4570   71.9570  224.0370 N   0  0  0  0  0  0  0  0  0  0  0  0
  139.9440   71.5120  222.8770 C   0  0  0  0  0  0  0  0  0  0  0  0
  139.9640   72.4480  221.7520 C   0  0  0  0  0  0  0  0  0  0  0  0
  140.9400   73.3260  221.6200 C   0  0  0  0  0  0  0  0  0  0  0  0
  142.2340   73.0350  221.0430 C   0  0  0  0  0  0  0  0  0  0  0  0
  143.1580   73.9800  220.6760 C   0  0  0  0  0  0  0  0  0  0  0  0
  144.3900   73.6500  220.1250 C   0  0  0  0  0  0  0  0  0  0  0  0
  144.7380   72.3310  219.9220 C   0  0  0  0  0  0  0  0  0  0  0  0
  143.8240   71.3620  220.2840 C   0  0  0  0  0  0  0  0  0  0  0  0
  144.1190   70.0160  220.1030 O   0  0  0  0  0  0  0  0  0  0  0  0
  142.6050   71.7060  220.8290 C   0  0  0  0  0  0  0  0  0  0  0  0
  139.4500   70.2680  222.7140 N   0  0  0  0  0  0  0  0  0  0  0  0
  138.8710   69.7720  221.5050 C   0  0  0  0  0  0  0  0  0  0  0  0
  139.7820   68.9420  220.6750 C   0  0  0  0  0  0  0  0  0  0  0  0
  139.7440   67.5520  220.7800 C   0  0  0  0  0  0  0  0  0  0  0  0
  140.5770   66.7400  220.0190 C   0  0  0  0  0  0  0  0  0  0  0  0
  141.4690   67.2780  219.1340 C   0  0  0  0  0  0  0  0  0  0  0  0
  141.5260   68.6360  219.0110 C   0  0  0  0  0  0  0  0  0  0  0  0
  142.4240   69.1920  218.1180 O   0  0  0  0  0  0  0  0  0  0  0  0
  140.6880   69.4490  219.7770 C   0  0  0  0  0  0  0  0  0  0  0  0
  139.6712   68.0266  226.0517 H   0  0  0  0  0  0  0  0  0  0  0  0
  141.4998   71.1791  228.3708 H   0  0  0  0  0  0  0  0  0  0  0  0
  141.4290   72.6959  226.3740 H   0  0  0  0  0  0  0  0  0  0  0  0
  139.1551   72.4191  221.0071 H   0  0  0  0  0  0  0  0  0  0  0  0
  140.7567   74.3514  221.9736 H   0  0  0  0  0  0  0  0  0  0  0  0
  142.9137   75.0423  220.8239 H   0  0  0  0  0  0  0  0  0  0  0  0
  145.0944   74.4482  219.8481 H   0  0  0  0  0  0  0  0  0  0  0  0
  145.7111   72.0603  219.4863 H   0  0  0  0  0  0  0  0  0  0  0  0
  143.8230   69.4470  219.3450 H   0  0  0  0  0  0  0  0  0  0  0  0
  141.9013   70.9067  221.1044 H   0  0  0  0  0  0  0  0  0  0  0  0
  137.9961   69.1601  221.7700 H   0  0  0  0  0  0  0  0  0  0  0  0
  138.6151   70.6535  220.8987 H   0  0  0  0  0  0  0  0  0  0  0  0
  139.0372   67.0864  221.4826 H   0  0  0  0  0  0  0  0  0  0  0  0
  140.5174   65.6473  220.1308 H   0  0  0  0  0  0  0  0  0  0  0  0
  142.1261   66.6309  218.5344 H   0  0  0  0  0  0  0  0  0  0  0  0
  142.8210   70.1160  218.3250 H   0  0  0  0  0  0  0  0  0  0  0  0
  140.7567   70.5401  219.6558 H   0  0  0  0  0  0  0  0  0  0  0  0
  1  2  2  0
  2  3  1  0
  3  4  2  0
  4  5  1  0
  5  6  1  0
  5  7  2  0
  7  8  1  0
  8  9  2  0
  9 10  1  0
 10 11  2  0
 11 12  1  0
 12 13  2  0
 13 14  1  0
 14 15  2  0
 15 16  1  0
 16 17  2  0
 17 18  1  0
 18 19  1  0
 18 20  2  0
 11 21  1  0
 21 22  1  0
 22 23  1  0
 23 24  2  0
 24 25  1  0
 25 26  2  0
 26 27  1  0
 27 28  1  0
 27 29  2  0
 21  2  1  0
 29 23  1  0
  9  3  1  0
 20 14  1  0
  4 30  1  0
  7 31  1  0
  8 32  1  0
 12 33  1  0
 13 34  1  0
 15 35  1  0
 16 36  1  0
 17 37  1  0
 19 38  1  0
 20 39  1  0
 22 40  1  0
 22 41  1  0
 24 42  1  0
 25 43  1  0
 26 44  1  0
 28 45  1  0
 29 46  1  0
M  END
>  <smiles>  (19) 
O=c1c2cc(Cl)ccc2nc(/C=C/c2cccc(O)c2)n1Cc1cccc(O)c1

>  <score_type>  (19) 
oracle

>  <origin>  (19) 
autodockgpu

>  <m_score__min__energy>  (19) 
-8.8100000000000005

>  <m_primary>  (19) 
energy

>  <rmsd>  (19) 
11.636304951461918

>  <m_score__min__rmsd>  (19) 
11.636304951461918

>  <meeko>  (19) 
{"free_energy": -5.97, "intermolecular_energy": -8.06, "internal_energy": -2.7, "cluster_size": 2, "cluster_id": 10, "rank_in_cluster": 1}

>  <energy>  (19) 
-6.02

>  <cluster_rmsd>  (19) 
1.28

>  <cluster>  (19) 
4

$$$$

     RDKit          3D

 46 49  0  0  0  0  0  0  0  0999 V2000
  137.6260   81.9100  225.6800 O   0  0  0  0  0  0  0  0  0  0  0  0
  136.9500   81.1740  224.9140 C   0  0  0  0  0  0  0  0  0  0  0  0
  137.7060   80.2850  224.1400 C   0  0  0  0  0  0  0  0  0  0  0  0
  139.0950   80.2540  224.2430 C   0  0  0  0  0  0  0  0  0  0  0  0
  139.7960   79.3650  223.4640 C   0  0  0  0  0  0  0  0  0  0  0  0
  141.5440   79.2840  223.5550 Cl  0  0  0  0  0  0  0  0  0  0  0  0
  139.1540   78.4970  222.5770 C   0  0  0  0  0  0  0  0  0  0  0  0
  137.7680   78.5330  222.4770 C   0  0  0  0  0  0  0  0  0  0  0  0
  137.0750   79.4290  223.2650 C   0  0  0  0  0  0  0  0  0  0  0  0
  135.7360   79.5010  223.2050 N   0  0  0  0  0  0  0  0  0  0  0  0
  135.0350   80.3640  223.9600 C   0  0  0  0  0  0  0  0  0  0  0  0
  133.5790   80.3230  223.8180 C   0  0  0  0  0  0  0  0  0  0  0  0
  132.9080   79.2090  224.0400 C   0  0  0  0  0  0  0  0  0  0  0  0
  133.2680   78.2160  225.0280 C   0  0  0  0  0  0  0  0  0  0  0  0
  133.8240   76.9940  224.7440 C   0  0  0  0  0  0  0  0  0  0  0  0
  134.1530   76.0730  225.7310 C   0  0  0  0  0  0  0  0  0  0  0  0
  133.9290   76.3580  227.0610 C   0  0  0  0  0  0  0  0  0  0  0  0
  133.3710   77.5820  227.3710 C   0  0  0  0  0  0  0  0  0  0  0  0
  133.1230   77.9250  228.6950 O   0  0  0  0  0  0  0  0  0  0  0  0
  133.0500   78.4860  226.3800 C   0  0  0  0  0  0  0  0  0  0  0  0
  135.6060   81.2220  224.8290 N   0  0  0  0  0  0  0  0  0  0  0  0
  134.8960   82.1730  225.6240 C   0  0  0  0  0  0  0  0  0  0  0  0
  134.7760   81.8170  227.0610 C   0  0  0  0  0  0  0  0  0  0  0  0
  135.8290   82.0880  227.9340 C   0  0  0  0  0  0  0  0  0  0  0  0
  135.7560   81.7730  229.2860 C   0  0  0  0  0  0  0  0  0  0  0  0
  134.6420   81.1820  229.8120 C   0  0  0  0  0  0  0  0  0  0  0  0
  133.5960   80.9060  228.9810 C   0  0  0  0  0  0  0  0  0  0  0  0
  132.4620   80.3080  229.5020 O   0  0  0  0  0  0  0  0  0  0  0  0
  133.6720   81.2230  227.6230 C   0  0  0  0  0  0  0  0  0  0  0  0
  139.6207   80.9285  224.9349 H   0  0  0  0  0  0  0  0  0  0  0  0
  139.7382   77.7938  221.9653 H   0  0  0  0  0  0  0  0  0  0  0  0
  137.2360   77.8628  221.7858 H   0  0  0  0  0  0  0  0  0  0  0  0
  133.0368   81.2332  223.5222 H   0  0  0  0  0  0  0  0  0  0  0  0
  132.0115   79.0222  223.4306 H   0  0  0  0  0  0  0  0  0  0  0  0
  134.0170   76.7331  223.6929 H   0  0  0  0  0  0  0  0  0  0  0  0
  134.5966   75.1069  225.4483 H   0  0  0  0  0  0  0  0  0  0  0  0
  134.1862   75.6345  227.8487 H   0  0  0  0  0  0  0  0  0  0  0  0
  133.6630   78.5450  229.2520 H   0  0  0  0  0  0  0  0  0  0  0  0
  132.6074   79.4520  226.6646 H   0  0  0  0  0  0  0  0  0  0  0  0
  135.4198   83.1376  225.5529 H   0  0  0  0  0  0  0  0  0  0  0  0
  133.8710   82.2057  225.2262 H   0  0  0  0  0  0  0  0  0  0  0  0
  136.7407   82.5632  227.5429 H   0  0  0  0  0  0  0  0  0  0  0  0
  136.6081   82.0031  229.9424 H   0  0  0  0  0  0  0  0  0  0  0  0
  134.5898   80.9341  230.8824 H   0  0  0  0  0  0  0  0  0  0  0  0
  132.0240   79.5390  228.9810 H   0  0  0  0  0  0  0  0  0  0  0  0
  132.8132   80.9876  226.9772 H   0  0  0  0  0  0  0  0  0  0  0  0
  1  2  2  0
  2  3  1  0
  3  4  2  0
  4  5  1  0
  5  6  1  0
  5  7  2  0
  7  8  1  0
  8  9  2  0
  9 10  1  0
 10 11  2  0
 11 12  1  0
 12 13  2  0
 13 14  1  0
 14 15  2  0
 15 16  1  0
 16 17  2  0
 17 18  1  0
 18 19  1  0
 18 20  2  0
 11 21  1  0
 21 22  1  0
 22 23  1  0
 23 24  2  0
 24 25  1  0
 25 26  2  0
 26 27  1  0
 27 28  1  0
 27 29  2  0
 21  2  1  0
 29 23  1  0
  9  3  1  0
 20 14  1  0
  4 30  1  0
  7 31  1  0
  8 32  1  0
 12 33  1  0
 13 34  1  0
 15 35  1  0
 16 36  1  0
 17 37  1  0
 19 38  1  0
 20 39  1  0
 22 40  1  0
 22 41  1  0
 24 42  1  0
 25 43  1  0
 26 44  1  0
 28 45  1  0
 29 46  1  0
M  END
>  <smiles>  (20) 
O=c1c2cc(Cl)ccc2nc(/C=C/c2cccc(O)c2)n1Cc1cccc(O)c1

>  <score_type>  (20) 
oracle

>  <origin>  (20) 
autodockgpu

>  <m_score__min__energy>  (20) 
-8.8100000000000005

>  <m_primary>  (20) 
energy

>  <rmsd>  (20) 
7.777434078026988

>  <m_score__min__rmsd>  (20) 
7.777434078026988

>  <meeko>  (20) 
{"free_energy": -5.81, "intermolecular_energy": -7.9, "internal_energy": -2.97, "cluster_size": 3, "cluster_id": 5, "rank_in_cluster": 2}

>  <energy>  (20) 
-5.97

>  <cluster_rmsd>  (20) 
1.09

>  <cluster>  (20) 
4

$$$$

     RDKit          3D

 46 49  0  0  0  0  0  0  0  0999 V2000
  138.3100   76.4110  221.8140 O   0  0  0  0  0  0  0  0  0  0  0  0
  138.9070   77.3710  222.3690 C   0  0  0  0  0  0  0  0  0  0  0  0
  138.0640   78.3570  222.8960 C   0  0  0  0  0  0  0  0  0  0  0  0
  136.6800   78.2420  222.7910 C   0  0  0  0  0  0  0  0  0  0  0  0
  135.8920   79.2350  223.3230 C   0  0  0  0  0  0  0  0  0  0  0  0
  134.1460   79.1400  223.2180 Cl  0  0  0  0  0  0  0  0  0  0  0  0
  136.4420   80.3490  223.9630 C   0  0  0  0  0  0  0  0  0  0  0  0
  137.8230   80.4580  224.0650 C   0  0  0  0  0  0  0  0  0  0  0  0
  138.6040   79.4560  223.5280 C   0  0  0  0  0  0  0  0  0  0  0  0
  139.9430   79.5160  223.6010 N   0  0  0  0  0  0  0  0  0  0  0  0
  140.7280   78.5540  223.0860 C   0  0  0  0  0  0  0  0  0  0  0  0
  142.1710   78.7280  223.2560 C   0  0  0  0  0  0  0  0  0  0  0  0
  142.7780   79.8170  222.8240 C   0  0  0  0  0  0  0  0  0  0  0  0
  142.1620   80.8240  221.9880 C   0  0  0  0  0  0  0  0  0  0  0  0
  141.6540   82.0150  222.4420 C   0  0  0  0  0  0  0  0  0  0  0  0
  141.0720   82.9510  221.5970 C   0  0  0  0  0  0  0  0  0  0  0  0
  140.9790   82.7140  220.2420 C   0  0  0  0  0  0  0  0  0  0  0  0
  141.4840   81.5230  219.7620 C   0  0  0  0  0  0  0  0  0  0  0  0
  141.4200   81.2280  218.4050 O   0  0  0  0  0  0  0  0  0  0  0  0
  142.0600   80.6020  220.6130 C   0  0  0  0  0  0  0  0  0  0  0  0
  140.2480   77.4620  222.4590 N   0  0  0  0  0  0  0  0  0  0  0  0
  141.0520   76.4360  221.8730 C   0  0  0  0  0  0  0  0  0  0  0  0
  141.6100   76.7710  220.5370 C   0  0  0  0  0  0  0  0  0  0  0  0
  142.7600   76.1250  220.0840 C   0  0  0  0  0  0  0  0  0  0  0  0
  143.3120   76.4070  218.8400 C   0  0  0  0  0  0  0  0  0  0  0  0
  142.7440   77.3330  218.0100 C   0  0  0  0  0  0  0  0  0  0  0  0
  141.6170   77.9790  218.4290 C   0  0  0  0  0  0  0  0  0  0  0  0
  141.0330   78.9180  217.5970 O   0  0  0  0  0  0  0  0  0  0  0  0
  141.0650   77.6940  219.6800 C   0  0  0  0  0  0  0  0  0  0  0  0
  136.2260   77.3732  222.2919 H   0  0  0  0  0  0  0  0  0  0  0  0
  135.7894   81.1298  224.3808 H   0  0  0  0  0  0  0  0  0  0  0  0
  138.2834   81.3241  224.5629 H   0  0  0  0  0  0  0  0  0  0  0  0
  142.7578   77.9400  223.7508 H   0  0  0  0  0  0  0  0  0  0  0  0
  143.8262   79.9699  223.1205 H   0  0  0  0  0  0  0  0  0  0  0  0
  141.7099   82.2373  223.5179 H   0  0  0  0  0  0  0  0  0  0  0  0
  140.6812   83.8912  222.0132 H   0  0  0  0  0  0  0  0  0  0  0  0
  140.5178   83.4495  219.5665 H   0  0  0  0  0  0  0  0  0  0  0  0
  140.8590   80.5270  217.9830 H   0  0  0  0  0  0  0  0  0  0  0  0
  142.4514   79.6628  220.1949 H   0  0  0  0  0  0  0  0  0  0  0  0
  141.8916   76.2285  222.5527 H   0  0  0  0  0  0  0  0  0  0  0  0
  140.3906   75.5696  221.7250 H   0  0  0  0  0  0  0  0  0  0  0  0
  143.2420   75.3739  220.7270 H   0  0  0  0  0  0  0  0  0  0  0  0
  144.2204   75.8766  218.5181 H   0  0  0  0  0  0  0  0  0  0  0  0
  143.1853   77.5525  217.0266 H   0  0  0  0  0  0  0  0  0  0  0  0
  141.6380   79.5610  217.0750 H   0  0  0  0  0  0  0  0  0  0  0  0
  140.1567   78.2311  219.9908 H   0  0  0  0  0  0  0  0  0  0  0  0
  1  2  2  0
  2  3  1  0
  3  4  2  0
  4  5  1  0
  5  6  1  0
  5  7  2  0
  7  8  1  0
  8  9  2  0
  9 10  1  0
 10 11  2  0
 11 12  1  0
 12 13  2  0
 13 14  1  0
 14 15  2  0
 15 16  1  0
 16 17  2  0
 17 18  1  0
 18 19  1  0
 18 20  2  0
 11 21  1  0
 21 22  1  0
 22 23  1  0
 23 24  2  0
 24 25  1  0
 25 26  2  0
 26 27  1  0
 27 28  1  0
 27 29  2  0
 21  2  1  0
 29 23  1  0
  9  3  1  0
 20 14  1  0
  4 30  1  0
  7 31  1  0
  8 32  1  0
 12 33  1  0
 13 34  1  0
 15 35  1  0
 16 36  1  0
 17 37  1  0
 19 38  1  0
 20 39  1  0
 22 40  1  0
 22 41  1  0
 24 42  1  0
 25 43  1  0
 26 44  1  0
 28 45  1  0
 29 46  1  0
M  END
>  <smiles>  (21) 
O=c1c2cc(Cl)ccc2nc(/C=C/c2cccc(O)c2)n1Cc1cccc(O)c1

>  <score_type>  (21) 
oracle

>  <origin>  (21) 
autodockgpu

>  <m_score__min__energy>  (21) 
-8.8100000000000005

>  <m_primary>  (21) 
energy

>  <rmsd>  (21) 
6.24692585681545

>  <m_score__min__rmsd>  (21) 
6.24692585681545

>  <meeko>  (21) 
{"free_energy": -5.43, "intermolecular_energy": -7.51, "internal_energy": -3.12, "cluster_size": 9, "cluster_id": 14, "rank_in_cluster": 1}

>  <energy>  (21) 
-5.97

>  <cluster_rmsd>  (21) 
1.79

>  <cluster>  (21) 
4

$$$$

     RDKit          3D

 46 49  0  0  0  0  0  0  0  0999 V2000
  142.8130   74.9750  220.8590 O   0  0  0  0  0  0  0  0  0  0  0  0
  141.7320   74.5290  221.3280 C   0  0  0  0  0  0  0  0  0  0  0  0
  140.7900   75.5110  221.6590 C   0  0  0  0  0  0  0  0  0  0  0  0
  141.0720   76.8620  221.4700 C   0  0  0  0  0  0  0  0  0  0  0  0
  140.1170   77.7900  221.8110 C   0  0  0  0  0  0  0  0  0  0  0  0
  140.4200   79.5020  221.5920 Cl  0  0  0  0  0  0  0  0  0  0  0  0
  138.8790   77.4150  222.3380 C   0  0  0  0  0  0  0  0  0  0  0  0
  138.6040   76.0660  222.5260 C   0  0  0  0  0  0  0  0  0  0  0  0
  139.5690   75.1430  222.1800 C   0  0  0  0  0  0  0  0  0  0  0  0
  139.3510   73.8280  222.3420 N   0  0  0  0  0  0  0  0  0  0  0  0
  140.2730   72.9070  222.0150 C   0  0  0  0  0  0  0  0  0  0  0  0
  139.8990   71.5070  222.2170 C   0  0  0  0  0  0  0  0  0  0  0  0
  139.1660   71.1450  223.2520 C   0  0  0  0  0  0  0  0  0  0  0  0
  139.6840   70.5140  224.4460 C   0  0  0  0  0  0  0  0  0  0  0  0
  140.6070   71.0780  225.2910 C   0  0  0  0  0  0  0  0  0  0  0  0
  141.0740   70.4310  226.4280 C   0  0  0  0  0  0  0  0  0  0  0  0
  140.6200   69.1710  226.7570 C   0  0  0  0  0  0  0  0  0  0  0  0
  139.6910   68.5840  225.9210 C   0  0  0  0  0  0  0  0  0  0  0  0
  139.1960   67.3160  226.2020 O   0  0  0  0  0  0  0  0  0  0  0  0
  139.2360   69.2390  224.7960 C   0  0  0  0  0  0  0  0  0  0  0  0
  141.4820   73.2180  221.5030 N   0  0  0  0  0  0  0  0  0  0  0  0
  142.4970   72.2680  221.1730 C   0  0  0  0  0  0  0  0  0  0  0  0
  143.1010   72.4470  219.8280 C   0  0  0  0  0  0  0  0  0  0  0  0
  142.2950   72.3830  218.6910 C   0  0  0  0  0  0  0  0  0  0  0  0
  142.8210   72.5480  217.4140 C   0  0  0  0  0  0  0  0  0  0  0  0
  144.1550   72.7810  217.2260 C   0  0  0  0  0  0  0  0  0  0  0  0
  144.9650   72.8490  218.3210 C   0  0  0  0  0  0  0  0  0  0  0  0
  146.3170   73.0850  218.1440 O   0  0  0  0  0  0  0  0  0  0  0  0
  144.4350   72.6830  219.6030 C   0  0  0  0  0  0  0  0  0  0  0  0
  142.0402   77.1801  221.0559 H   0  0  0  0  0  0  0  0  0  0  0  0
  138.1313   78.1778  222.6008 H   0  0  0  0  0  0  0  0  0  0  0  0
  137.6386   75.7414  222.9414 H   0  0  0  0  0  0  0  0  0  0  0  0
  140.2335   70.7464  221.4962 H   0  0  0  0  0  0  0  0  0  0  0  0
  138.0839   71.3366  223.2037 H   0  0  0  0  0  0  0  0  0  0  0  0
  140.9920   72.0819  225.0586 H   0  0  0  0  0  0  0  0  0  0  0  0
  141.8135   70.9287  227.0725 H   0  0  0  0  0  0  0  0  0  0  0  0
  140.9856   68.6513  227.6549 H   0  0  0  0  0  0  0  0  0  0  0  0
  139.5340   66.6950  226.8990 H   0  0  0  0  0  0  0  0  0  0  0  0
  138.4956   68.7404  224.1532 H   0  0  0  0  0  0  0  0  0  0  0  0
  143.2985   72.3488  221.9220 H   0  0  0  0  0  0  0  0  0  0  0  0
  142.0092   71.2821  221.1658 H   0  0  0  0  0  0  0  0  0  0  0  0
  141.2170   72.1975  218.8073 H   0  0  0  0  0  0  0  0  0  0  0  0
  142.1533   72.4901  216.5418 H   0  0  0  0  0  0  0  0  0  0  0  0
  144.5659   72.9107  216.2139 H   0  0  0  0  0  0  0  0  0  0  0  0
  146.6650   74.0480  218.2140 H   0  0  0  0  0  0  0  0  0  0  0  0
  145.1134   72.7438  220.4667 H   0  0  0  0  0  0  0  0  0  0  0  0
  1  2  2  0
  2  3  1  0
  3  4  2  0
  4  5  1  0
  5  6  1  0
  5  7  2  0
  7  8  1  0
  8  9  2  0
  9 10  1  0
 10 11  2  0
 11 12  1  0
 12 13  2  0
 13 14  1  0
 14 15  2  0
 15 16  1  0
 16 17  2  0
 17 18  1  0
 18 19  1  0
 18 20  2  0
 11 21  1  0
 21 22  1  0
 22 23  1  0
 23 24  2  0
 24 25  1  0
 25 26  2  0
 26 27  1  0
 27 28  1  0
 27 29  2  0
 21  2  1  0
 29 23  1  0
  9  3  1  0
 20 14  1  0
  4 30  1  0
  7 31  1  0
  8 32  1  0
 12 33  1  0
 13 34  1  0
 15 35  1  0
 16 36  1  0
 17 37  1  0
 19 38  1  0
 20 39  1  0
 22 40  1  0
 22 41  1  0
 24 42  1  0
 25 43  1  0
 26 44  1  0
 28 45  1  0
 29 46  1  0
M  END
>  <smiles>  (22) 
O=c1c2cc(Cl)ccc2nc(/C=C/c2cccc(O)c2)n1Cc1cccc(O)c1

>  <score_type>  (22) 
oracle

>  <origin>  (22) 
autodockgpu

>  <m_score__min__energy>  (22) 
-8.8100000000000005

>  <m_primary>  (22) 
energy

>  <rmsd>  (22) 
7.949975859924907

>  <m_score__min__rmsd>  (22) 
7.949975859924907

>  <meeko>  (22) 
{"free_energy": -8.1, "intermolecular_energy": -10.19, "internal_energy": -0.96, "cluster_size": 9, "cluster_id": 1, "rank_in_cluster": 7}

>  <energy>  (22) 
-5.96

>  <cluster_rmsd>  (22) 
1.2

>  <cluster>  (22) 
4

$$$$

     RDKit          3D

 46 49  0  0  0  0  0  0  0  0999 V2000
  136.2020   78.1800  222.6190 O   0  0  0  0  0  0  0  0  0  0  0  0
  136.9370   79.0180  223.2060 C   0  0  0  0  0  0  0  0  0  0  0  0
  138.3100   78.7590  223.1110 C   0  0  0  0  0  0  0  0  0  0  0  0
  138.7800   77.6490  222.4130 C   0  0  0  0  0  0  0  0  0  0  0  0
  140.1360   77.4350  222.3470 C   0  0  0  0  0  0  0  0  0  0  0  0
  140.7790   76.0530  221.4820 Cl  0  0  0  0  0  0  0  0  0  0  0  0
  141.0490   78.2970  222.9590 C   0  0  0  0  0  0  0  0  0  0  0  0
  140.5750   79.4030  223.6540 C   0  0  0  0  0  0  0  0  0  0  0  0
  139.2120   79.6090  223.7130 C   0  0  0  0  0  0  0  0  0  0  0  0
  138.7060   80.6630  224.3730 N   0  0  0  0  0  0  0  0  0  0  0  0
  137.3830   80.8860  224.4470 C   0  0  0  0  0  0  0  0  0  0  0  0
  136.9640   82.0860  225.1740 C   0  0  0  0  0  0  0  0  0  0  0  0
  137.1910   82.2070  226.4680 C   0  0  0  0  0  0  0  0  0  0  0  0
  136.1950   82.5820  227.4470 C   0  0  0  0  0  0  0  0  0  0  0  0
  135.6380   83.8310  227.5590 C   0  0  0  0  0  0  0  0  0  0  0  0
  134.6810   84.1410  228.5170 C   0  0  0  0  0  0  0  0  0  0  0  0
  134.2460   83.1860  229.4110 C   0  0  0  0  0  0  0  0  0  0  0  0
  134.7910   81.9220  229.3170 C   0  0  0  0  0  0  0  0  0  0  0  0
  134.3910   80.9170  230.1900 O   0  0  0  0  0  0  0  0  0  0  0  0
  135.7400   81.6280  228.3600 C   0  0  0  0  0  0  0  0  0  0  0  0
  136.4610   80.0850  223.8760 N   0  0  0  0  0  0  0  0  0  0  0  0
  135.0480   80.2760  223.9610 C   0  0  0  0  0  0  0  0  0  0  0  0
  134.3680   79.4430  224.9860 C   0  0  0  0  0  0  0  0  0  0  0  0
  134.1070   78.0980  224.7250 C   0  0  0  0  0  0  0  0  0  0  0  0
  133.4760   77.2830  225.6590 C   0  0  0  0  0  0  0  0  0  0  0  0
  133.0870   77.7740  226.8740 C   0  0  0  0  0  0  0  0  0  0  0  0
  133.3320   79.0870  227.1550 C   0  0  0  0  0  0  0  0  0  0  0  0
  132.9430   79.5950  228.3820 O   0  0  0  0  0  0  0  0  0  0  0  0
  133.9650   79.9030  226.2150 C   0  0  0  0  0  0  0  0  0  0  0  0
  138.0790   76.9567  221.9238 H   0  0  0  0  0  0  0  0  0  0  0  0
  142.1296   78.1027  222.8916 H   0  0  0  0  0  0  0  0  0  0  0  0
  141.2707   80.0986  224.1460 H   0  0  0  0  0  0  0  0  0  0  0  0
  136.4534   82.8971  224.6342 H   0  0  0  0  0  0  0  0  0  0  0  0
  138.2112   82.0083  226.8281 H   0  0  0  0  0  0  0  0  0  0  0  0
  135.9622   84.6182  226.8624 H   0  0  0  0  0  0  0  0  0  0  0  0
  134.2661   85.1587  228.5627 H   0  0  0  0  0  0  0  0  0  0  0  0
  133.4898   83.4238  230.1736 H   0  0  0  0  0  0  0  0  0  0  0  0
  134.3380   79.9470  229.9850 H   0  0  0  0  0  0  0  0  0  0  0  0
  136.1518   80.6090  228.3144 H   0  0  0  0  0  0  0  0  0  0  0  0
  134.8592   81.3333  224.1988 H   0  0  0  0  0  0  0  0  0  0  0  0
  134.6348   79.9697  222.9887 H   0  0  0  0  0  0  0  0  0  0  0  0
  134.4075   77.6713  223.7567 H   0  0  0  0  0  0  0  0  0  0  0  0
  133.2871   76.2269  225.4161 H   0  0  0  0  0  0  0  0  0  0  0  0
  132.5877   77.1254  227.6088 H   0  0  0  0  0  0  0  0  0  0  0  0
  133.0360   80.6030  228.5520 H   0  0  0  0  0  0  0  0  0  0  0  0
  134.1481   80.9573  226.4697 H   0  0  0  0  0  0  0  0  0  0  0  0
  1  2  2  0
  2  3  1  0
  3  4  2  0
  4  5  1  0
  5  6  1  0
  5  7  2  0
  7  8  1  0
  8  9  2  0
  9 10  1  0
 10 11  2  0
 11 12  1  0
 12 13  2  0
 13 14  1  0
 14 15  2  0
 15 16  1  0
 16 17  2  0
 17 18  1  0
 18 19  1  0
 18 20  2  0
 11 21  1  0
 21 22  1  0
 22 23  1  0
 23 24  2  0
 24 25  1  0
 25 26  2  0
 26 27  1  0
 27 28  1  0
 27 29  2  0
 21  2  1  0
 29 23  1  0
  9  3  1  0
 20 14  1  0
  4 30  1  0
  7 31  1  0
  8 32  1  0
 12 33  1  0
 13 34  1  0
 15 35  1  0
 16 36  1  0
 17 37  1  0
 19 38  1  0
 20 39  1  0
 22 40  1  0
 22 41  1  0
 24 42  1  0
 25 43  1  0
 26 44  1  0
 28 45  1  0
 29 46  1  0
M  END
>  <smiles>  (23) 
O=c1c2cc(Cl)ccc2nc(/C=C/c2cccc(O)c2)n1Cc1cccc(O)c1

>  <score_type>  (23) 
oracle

>  <origin>  (23) 
autodockgpu

>  <m_score__min__energy>  (23) 
-8.8100000000000005

>  <m_primary>  (23) 
energy

>  <rmsd>  (23) 
7.315010236483506

>  <m_score__min__rmsd>  (23) 
7.315010236483506

>  <meeko>  (23) 
{"free_energy": -5.72, "intermolecular_energy": -7.81, "internal_energy": -2.67, "cluster_size": 3, "cluster_id": 5, "rank_in_cluster": 3}

>  <energy>  (23) 
-5.95

>  <cluster_rmsd>  (23) 
1.11

>  <cluster>  (23) 
4

$$$$

     RDKit          3D

 46 49  0  0  0  0  0  0  0  0999 V2000
  138.2090   76.8020  221.9280 O   0  0  0  0  0  0  0  0  0  0  0  0
  138.8180   77.7320  222.5200 C   0  0  0  0  0  0  0  0  0  0  0  0
  137.9850   78.6960  223.1030 C   0  0  0  0  0  0  0  0  0  0  0  0
  136.6000   78.5920  223.0100 C   0  0  0  0  0  0  0  0  0  0  0  0
  135.8230   79.5620  223.5970 C   0  0  0  0  0  0  0  0  0  0  0  0
  134.0750   79.4790  223.5090 Cl  0  0  0  0  0  0  0  0  0  0  0  0
  136.3850   80.6420  224.2810 C   0  0  0  0  0  0  0  0  0  0  0  0
  137.7680   80.7420  224.3710 C   0  0  0  0  0  0  0  0  0  0  0  0
  138.5380   79.7620  223.7780 C   0  0  0  0  0  0  0  0  0  0  0  0
  139.8780   79.8140  223.8380 N   0  0  0  0  0  0  0  0  0  0  0  0
  140.6520   78.8740  223.2680 C   0  0  0  0  0  0  0  0  0  0  0  0
  142.0980   79.0340  223.4290 C   0  0  0  0  0  0  0  0  0  0  0  0
  142.7680   79.9090  222.7030 C   0  0  0  0  0  0  0  0  0  0  0  0
  142.1590   80.8930  221.8350 C   0  0  0  0  0  0  0  0  0  0  0  0
  141.5330   82.0350  222.2640 C   0  0  0  0  0  0  0  0  0  0  0  0
  140.9640   82.9520  221.3890 C   0  0  0  0  0  0  0  0  0  0  0  0
  141.0070   82.7430  220.0270 C   0  0  0  0  0  0  0  0  0  0  0  0
  141.6320   81.6000  219.5710 C   0  0  0  0  0  0  0  0  0  0  0  0
  141.7070   81.3360  218.2080 O   0  0  0  0  0  0  0  0  0  0  0  0
  142.1930   80.6990  220.4530 C   0  0  0  0  0  0  0  0  0  0  0  0
  140.1600   77.8140  222.5970 N   0  0  0  0  0  0  0  0  0  0  0  0
  140.9520   76.8140  221.9540 C   0  0  0  0  0  0  0  0  0  0  0  0
  141.4040   77.1650  220.5830 C   0  0  0  0  0  0  0  0  0  0  0  0
  142.6040   76.6480  220.0940 C   0  0  0  0  0  0  0  0  0  0  0  0
  143.0610   76.9500  218.8170 C   0  0  0  0  0  0  0  0  0  0  0  0
  142.3460   77.7690  217.9880 C   0  0  0  0  0  0  0  0  0  0  0  0
  141.1680   78.2870  218.4410 C   0  0  0  0  0  0  0  0  0  0  0  0
  140.4350   79.1170  217.6110 O   0  0  0  0  0  0  0  0  0  0  0  0
  140.7110   77.9830  219.7250 C   0  0  0  0  0  0  0  0  0  0  0  0
  136.1360   77.7492  222.4767 H   0  0  0  0  0  0  0  0  0  0  0  0
  135.7406   81.4044  224.7430 H   0  0  0  0  0  0  0  0  0  0  0  0
  138.2382   81.5825  224.9024 H   0  0  0  0  0  0  0  0  0  0  0  0
  142.6335   78.4165  224.1651 H   0  0  0  0  0  0  0  0  0  0  0  0
  143.8662   79.8887  222.7620 H   0  0  0  0  0  0  0  0  0  0  0  0
  141.4791   82.2332  223.3447 H   0  0  0  0  0  0  0  0  0  0  0  0
  140.4746   83.8533  221.7867 H   0  0  0  0  0  0  0  0  0  0  0  0
  140.5582   83.4631  219.3270 H   0  0  0  0  0  0  0  0  0  0  0  0
  142.0900   80.5220  217.7890 H   0  0  0  0  0  0  0  0  0  0  0  0
  142.6829   79.7986  220.0540 H   0  0  0  0  0  0  0  0  0  0  0  0
  141.8434   76.6331  222.5726 H   0  0  0  0  0  0  0  0  0  0  0  0
  140.3087   75.9277  221.8510 H   0  0  0  0  0  0  0  0  0  0  0  0
  143.2032   75.9849  220.7352 H   0  0  0  0  0  0  0  0  0  0  0  0
  144.0129   76.5235  218.4676 H   0  0  0  0  0  0  0  0  0  0  0  0
  142.7125   78.0051  216.9781 H   0  0  0  0  0  0  0  0  0  0  0  0
  140.4650   80.1300  217.7720 H   0  0  0  0  0  0  0  0  0  0  0  0
  139.7579   78.4161  220.0626 H   0  0  0  0  0  0  0  0  0  0  0  0
  1  2  2  0
  2  3  1  0
  3  4  2  0
  4  5  1  0
  5  6  1  0
  5  7  2  0
  7  8  1  0
  8  9  2  0
  9 10  1  0
 10 11  2  0
 11 12  1  0
 12 13  2  0
 13 14  1  0
 14 15  2  0
 15 16  1  0
 16 17  2  0
 17 18  1  0
 18 19  1  0
 18 20  2  0
 11 21  1  0
 21 22  1  0
 22 23  1  0
 23 24  2  0
 24 25  1  0
 25 26  2  0
 26 27  1  0
 27 28  1  0
 27 29  2  0
 21  2  1  0
 29 23  1  0
  9  3  1  0
 20 14  1  0
  4 30  1  0
  7 31  1  0
  8 32  1  0
 12 33  1  0
 13 34  1  0
 15 35  1  0
 16 36  1  0
 17 37  1  0
 19 38  1  0
 20 39  1  0
 22 40  1  0
 22 41  1  0
 24 42  1  0
 25 43  1  0
 26 44  1  0
 28 45  1  0
 29 46  1  0
M  END
>  <smiles>  (24) 
O=c1c2cc(Cl)ccc2nc(/C=C/c2cccc(O)c2)n1Cc1cccc(O)c1

>  <score_type>  (24) 
oracle

>  <origin>  (24) 
autodockgpu

>  <m_score__min__energy>  (24) 
-8.8100000000000005

>  <m_primary>  (24) 
energy

>  <rmsd>  (24) 
6.219876278313351

>  <m_score__min__rmsd>  (24) 
6.219876278313351

>  <meeko>  (24) 
{"free_energy": -5.38, "intermolecular_energy": -7.47, "internal_energy": -3.24, "cluster_size": 9, "cluster_id": 14, "rank_in_cluster": 7}

>  <energy>  (24) 
-5.93

>  <cluster_rmsd>  (24) 
1.0

>  <cluster>  (24) 
4

$$$$

     RDKit          3D

 46 49  0  0  0  0  0  0  0  0999 V2000
  142.1010   73.8350  218.6890 O   0  0  0  0  0  0  0  0  0  0  0  0
  141.6340   73.8230  219.8590 C   0  0  0  0  0  0  0  0  0  0  0  0
  141.3570   75.0890  220.3910 C   0  0  0  0  0  0  0  0  0  0  0  0
  141.5970   76.2420  219.6480 C   0  0  0  0  0  0  0  0  0  0  0  0
  141.3110   77.4630  220.2120 C   0  0  0  0  0  0  0  0  0  0  0  0
  141.5950   78.9450  219.3210 Cl  0  0  0  0  0  0  0  0  0  0  0  0
  140.7890   77.5740  221.5030 C   0  0  0  0  0  0  0  0  0  0  0  0
  140.5520   76.4200  222.2400 C   0  0  0  0  0  0  0  0  0  0  0  0
  140.8420   75.2000  221.6630 C   0  0  0  0  0  0  0  0  0  0  0  0
  140.6300   74.0570  222.3350 N   0  0  0  0  0  0  0  0  0  0  0  0
  140.9050   72.8560  221.7980 C   0  0  0  0  0  0  0  0  0  0  0  0
  140.6030   71.6870  222.6260 C   0  0  0  0  0  0  0  0  0  0  0  0
  140.0650   71.8260  223.8230 C   0  0  0  0  0  0  0  0  0  0  0  0
  140.2480   70.8990  224.9180 C   0  0  0  0  0  0  0  0  0  0  0  0
  140.9300   71.1790  226.0750 C   0  0  0  0  0  0  0  0  0  0  0  0
  141.0780   70.2540  227.1010 C   0  0  0  0  0  0  0  0  0  0  0  0
  140.5330   68.9910  226.9920 C   0  0  0  0  0  0  0  0  0  0  0  0
  139.8420   68.6870  225.8370 C   0  0  0  0  0  0  0  0  0  0  0  0
  139.2710   67.4300  225.6710 O   0  0  0  0  0  0  0  0  0  0  0  0
  139.7040   69.6160  224.8270 C   0  0  0  0  0  0  0  0  0  0  0  0
  141.4100   72.6950  220.5590 N   0  0  0  0  0  0  0  0  0  0  0  0
  141.7420   71.4360  219.9700 C   0  0  0  0  0  0  0  0  0  0  0  0
  143.1920   71.2290  219.7220 C   0  0  0  0  0  0  0  0  0  0  0  0
  143.6880   69.9380  219.5410 C   0  0  0  0  0  0  0  0  0  0  0  0
  145.0370   69.7010  219.3040 C   0  0  0  0  0  0  0  0  0  0  0  0
  145.9320   70.7330  219.2380 C   0  0  0  0  0  0  0  0  0  0  0  0
  145.4730   72.0060  219.4100 C   0  0  0  0  0  0  0  0  0  0  0  0
  146.3700   73.0580  219.3450 O   0  0  0  0  0  0  0  0  0  0  0  0
  144.1170   72.2410  219.6490 C   0  0  0  0  0  0  0  0  0  0  0  0
  142.0075   76.1773  218.6295 H   0  0  0  0  0  0  0  0  0  0  0  0
  140.5682   78.5630  221.9310 H   0  0  0  0  0  0  0  0  0  0  0  0
  140.1428   76.4774  223.2595 H   0  0  0  0  0  0  0  0  0  0  0  0
  140.8275   70.6796  222.2454 H   0  0  0  0  0  0  0  0  0  0  0  0
  139.4331   72.7087  224.0004 H   0  0  0  0  0  0  0  0  0  0  0  0
  141.3779   72.1765  226.1952 H   0  0  0  0  0  0  0  0  0  0  0  0
  141.6347   70.5310  228.0084 H   0  0  0  0  0  0  0  0  0  0  0  0
  140.6456   68.2516  227.7986 H   0  0  0  0  0  0  0  0  0  0  0  0
  139.2800   66.6900  226.3320 H   0  0  0  0  0  0  0  0  0  0  0  0
  139.1473   69.3373  223.9202 H   0  0  0  0  0  0  0  0  0  0  0  0
  141.3927   70.6399  220.6439 H   0  0  0  0  0  0  0  0  0  0  0  0
  141.2526   71.4155  218.9851 H   0  0  0  0  0  0  0  0  0  0  0  0
  142.9940   69.0858  219.5870 H   0  0  0  0  0  0  0  0  0  0  0  0
  145.3899   68.6681  219.1675 H   0  0  0  0  0  0  0  0  0  0  0  0
  146.9987   70.5407  219.0503 H   0  0  0  0  0  0  0  0  0  0  0  0
  146.0480   73.9590  218.9740 H   0  0  0  0  0  0  0  0  0  0  0  0
  143.7766   73.2783  219.7841 H   0  0  0  0  0  0  0  0  0  0  0  0
  1  2  2  0
  2  3  1  0
  3  4  2  0
  4  5  1  0
  5  6  1  0
  5  7  2  0
  7  8  1  0
  8  9  2  0
  9 10  1  0
 10 11  2  0
 11 12  1  0
 12 13  2  0
 13 14  1  0
 14 15  2  0
 15 16  1  0
 16 17  2  0
 17 18  1  0
 18 19  1  0
 18 20  2  0
 11 21  1  0
 21 22  1  0
 22 23  1  0
 23 24  2  0
 24 25  1  0
 25 26  2  0
 26 27  1  0
 27 28  1  0
 27 29  2  0
 21  2  1  0
 29 23  1  0
  9  3  1  0
 20 14  1  0
  4 30  1  0
  7 31  1  0
  8 32  1  0
 12 33  1  0
 13 34  1  0
 15 35  1  0
 16 36  1  0
 17 37  1  0
 19 38  1  0
 20 39  1  0
 22 40  1  0
 22 41  1  0
 24 42  1  0
 25 43  1  0
 26 44  1  0
 28 45  1  0
 29 46  1  0
M  END
>  <smiles>  (25) 
O=c1c2cc(Cl)ccc2nc(/C=C/c2cccc(O)c2)n1Cc1cccc(O)c1

>  <score_type>  (25) 
oracle

>  <origin>  (25) 
autodockgpu

>  <m_score__min__energy>  (25) 
-8.8100000000000005

>  <m_primary>  (25) 
energy

>  <rmsd>  (25) 
9.087832481672326

>  <m_score__min__rmsd>  (25) 
9.087832481672326

>  <meeko>  (25) 
{"free_energy": -8.31, "intermolecular_energy": -10.4, "internal_energy": -0.61, "cluster_size": 9, "cluster_id": 1, "rank_in_cluster": 5}

>  <energy>  (25) 
-5.92

>  <cluster_rmsd>  (25) 
1.13

>  <cluster>  (25) 
4

$$$$

     RDKit          3D

 46 49  0  0  0  0  0  0  0  0999 V2000
  142.8670   75.2680  219.8030 O   0  0  0  0  0  0  0  0  0  0  0  0
  141.9550   74.8930  220.5880 C   0  0  0  0  0  0  0  0  0  0  0  0
  141.2220   75.9350  221.1710 C   0  0  0  0  0  0  0  0  0  0  0  0
  141.5150   77.2640  220.8770 C   0  0  0  0  0  0  0  0  0  0  0  0
  140.7690   78.2530  221.4730 C   0  0  0  0  0  0  0  0  0  0  0  0
  141.0960   79.9410  221.1380 Cl  0  0  0  0  0  0  0  0  0  0  0  0
  139.7320   77.9590  222.3610 C   0  0  0  0  0  0  0  0  0  0  0  0
  139.4440   76.6310  222.6510 C   0  0  0  0  0  0  0  0  0  0  0  0
  140.1990   75.6470  222.0460 C   0  0  0  0  0  0  0  0  0  0  0  0
  139.9590   74.3490  222.2940 N   0  0  0  0  0  0  0  0  0  0  0  0
  140.6790   73.3710  221.7200 C   0  0  0  0  0  0  0  0  0  0  0  0
  140.2990   71.9980  222.0550 C   0  0  0  0  0  0  0  0  0  0  0  0
  139.5390   71.7420  223.1030 C   0  0  0  0  0  0  0  0  0  0  0  0
  139.9460   70.9440  224.2380 C   0  0  0  0  0  0  0  0  0  0  0  0
  140.6950   71.4050  225.2910 C   0  0  0  0  0  0  0  0  0  0  0  0
  141.0600   70.5980  226.3610 C   0  0  0  0  0  0  0  0  0  0  0  0
  140.6780   69.2740  226.4050 C   0  0  0  0  0  0  0  0  0  0  0  0
  139.9230   68.7880  225.3570 C   0  0  0  0  0  0  0  0  0  0  0  0
  139.5080   67.4610  225.3470 O   0  0  0  0  0  0  0  0  0  0  0  0
  139.5680   69.6020  224.3020 C   0  0  0  0  0  0  0  0  0  0  0  0
  141.6900   73.6010  220.8590 N   0  0  0  0  0  0  0  0  0  0  0  0
  142.4950   72.5870  220.2540 C   0  0  0  0  0  0  0  0  0  0  0  0
  143.9480   72.8940  220.2040 C   0  0  0  0  0  0  0  0  0  0  0  0
  144.5730   73.0980  218.9740 C   0  0  0  0  0  0  0  0  0  0  0  0
  145.9290   73.3900  218.8840 C   0  0  0  0  0  0  0  0  0  0  0  0
  146.7040   73.4900  220.0060 C   0  0  0  0  0  0  0  0  0  0  0  0
  146.1170   73.2960  221.2230 C   0  0  0  0  0  0  0  0  0  0  0  0
  146.8910   73.3950  222.3650 O   0  0  0  0  0  0  0  0  0  0  0  0
  144.7550   73.0020  221.3100 C   0  0  0  0  0  0  0  0  0  0  0  0
  142.3281   77.5178  220.1809 H   0  0  0  0  0  0  0  0  0  0  0  0
  139.1502   78.7690  222.8252 H   0  0  0  0  0  0  0  0  0  0  0  0
  138.6329   76.3701  223.3468 H   0  0  0  0  0  0  0  0  0  0  0  0
  140.6516   71.1683  221.4248 H   0  0  0  0  0  0  0  0  0  0  0  0
  138.5239   72.1657  223.1139 H   0  0  0  0  0  0  0  0  0  0  0  0
  141.0196   72.4560  225.2878 H   0  0  0  0  0  0  0  0  0  0  0  0
  141.6597   71.0194  227.1812 H   0  0  0  0  0  0  0  0  0  0  0  0
  140.9653   68.6270  227.2469 H   0  0  0  0  0  0  0  0  0  0  0  0
  139.9720   66.7040  224.9030 H   0  0  0  0  0  0  0  0  0  0  0  0
  138.9668   69.1795  223.4835 H   0  0  0  0  0  0  0  0  0  0  0  0
  142.3610   71.6569  220.8257 H   0  0  0  0  0  0  0  0  0  0  0  0
  142.1589   72.5060  219.2097 H   0  0  0  0  0  0  0  0  0  0  0  0
  143.9778   73.0260  218.0518 H   0  0  0  0  0  0  0  0  0  0  0  0
  146.3856   73.5430  217.8950 H   0  0  0  0  0  0  0  0  0  0  0  0
  147.7766   73.7216  219.9296 H   0  0  0  0  0  0  0  0  0  0  0  0
  146.4570   73.7380  223.2290 H   0  0  0  0  0  0  0  0  0  0  0  0
  144.3102   72.8507  222.3046 H   0  0  0  0  0  0  0  0  0  0  0  0
  1  2  2  0
  2  3  1  0
  3  4  2  0
  4  5  1  0
  5  6  1  0
  5  7  2  0
  7  8  1  0
  8  9  2  0
  9 10  1  0
 10 11  2  0
 11 12  1  0
 12 13  2  0
 13 14  1  0
 14 15  2  0
 15 16  1  0
 16 17  2  0
 17 18  1  0
 18 19  1  0
 18 20  2  0
 11 21  1  0
 21 22  1  0
 22 23  1  0
 23 24  2  0
 24 25  1  0
 25 26  2  0
 26 27  1  0
 27 28  1  0
 27 29  2  0
 21  2  1  0
 29 23  1  0
  9  3  1  0
 20 14  1  0
  4 30  1  0
  7 31  1  0
  8 32  1  0
 12 33  1  0
 13 34  1  0
 15 35  1  0
 16 36  1  0
 17 37  1  0
 19 38  1  0
 20 39  1  0
 22 40  1  0
 22 41  1  0
 24 42  1  0
 25 43  1  0
 26 44  1  0
 28 45  1  0
 29 46  1  0
M  END
>  <smiles>  (26) 
O=c1c2cc(Cl)ccc2nc(/C=C/c2cccc(O)c2)n1Cc1cccc(O)c1

>  <score_type>  (26) 
oracle

>  <origin>  (26) 
autodockgpu

>  <m_score__min__energy>  (26) 
-8.8100000000000005

>  <m_primary>  (26) 
energy

>  <rmsd>  (26) 
8.11020452220504

>  <m_score__min__rmsd>  (26) 
8.11020452220504

>  <meeko>  (26) 
{"free_energy": -8.26, "intermolecular_energy": -10.34, "internal_energy": -0.73, "cluster_size": 9, "cluster_id": 1, "rank_in_cluster": 6}

>  <energy>  (26) 
-6.76

>  <cluster_rmsd>  (26) 
0.0

>  <cluster>  (26) 
5

$$$$

     RDKit          3D

 46 49  0  0  0  0  0  0  0  0999 V2000
  136.4080   75.4930  221.8430 O   0  0  0  0  0  0  0  0  0  0  0  0
  137.6010   75.1020  221.9490 C   0  0  0  0  0  0  0  0  0  0  0  0
  138.5280   76.1200  222.2090 C   0  0  0  0  0  0  0  0  0  0  0  0
  138.1160   77.4440  222.3320 C   0  0  0  0  0  0  0  0  0  0  0  0
  139.0620   78.4090  222.5880 C   0  0  0  0  0  0  0  0  0  0  0  0
  138.5980   80.0910  222.7520 Cl  0  0  0  0  0  0  0  0  0  0  0  0
  140.4160   78.0950  222.7260 C   0  0  0  0  0  0  0  0  0  0  0  0
  140.8210   76.7720  222.6020 C   0  0  0  0  0  0  0  0  0  0  0  0
  139.8630   75.8120  222.3460 C   0  0  0  0  0  0  0  0  0  0  0  0
  140.2050   74.5200  222.2180 N   0  0  0  0  0  0  0  0  0  0  0  0
  139.2930   73.5650  221.9680 C   0  0  0  0  0  0  0  0  0  0  0  0
  139.7940   72.1920  221.8770 C   0  0  0  0  0  0  0  0  0  0  0  0
  140.6730   71.7330  222.7480 C   0  0  0  0  0  0  0  0  0  0  0  0
  140.3330   71.1080  224.0070 C   0  0  0  0  0  0  0  0  0  0  0  0
  140.7020   71.5810  225.2410 C   0  0  0  0  0  0  0  0  0  0  0  0
  140.3490   70.9430  226.4230 C   0  0  0  0  0  0  0  0  0  0  0  0
  139.6000   69.7850  226.4010 C   0  0  0  0  0  0  0  0  0  0  0  0
  139.2170   69.2910  225.1710 C   0  0  0  0  0  0  0  0  0  0  0  0
  138.4600   68.1280  225.0860 O   0  0  0  0  0  0  0  0  0  0  0  0
  139.5740   69.9350  224.0050 C   0  0  0  0  0  0  0  0  0  0  0  0
  137.9760   73.8150  221.8250 N   0  0  0  0  0  0  0  0  0  0  0  0
  136.9850   72.8290  221.5290 C   0  0  0  0  0  0  0  0  0  0  0  0
  136.3760   72.1830  222.7210 C   0  0  0  0  0  0  0  0  0  0  0  0
  135.6550   72.9520  223.6340 C   0  0  0  0  0  0  0  0  0  0  0  0
  135.0680   72.3850  224.7600 C   0  0  0  0  0  0  0  0  0  0  0  0
  135.1760   71.0460  225.0130 C   0  0  0  0  0  0  0  0  0  0  0  0
  135.8750   70.2710  224.1340 C   0  0  0  0  0  0  0  0  0  0  0  0
  135.9910   68.9150  224.3800 O   0  0  0  0  0  0  0  0  0  0  0  0
  136.4650   70.8430  223.0050 C   0  0  0  0  0  0  0  0  0  0  0  0
  137.0547   77.7132  222.2265 H   0  0  0  0  0  0  0  0  0  0  0  0
  141.1528   78.8858  222.9304 H   0  0  0  0  0  0  0  0  0  0  0  0
  141.8807   76.4959  222.7055 H   0  0  0  0  0  0  0  0  0  0  0  0
  139.4331   71.5347  221.0723 H   0  0  0  0  0  0  0  0  0  0  0  0
  141.7397   71.8329  222.4986 H   0  0  0  0  0  0  0  0  0  0  0  0
  141.3011   72.5019  225.2963 H   0  0  0  0  0  0  0  0  0  0  0  0
  140.6700   71.3655  227.3866 H   0  0  0  0  0  0  0  0  0  0  0  0
  139.3176   69.2727  227.3325 H   0  0  0  0  0  0  0  0  0  0  0  0
  137.8390   67.8840  224.3510 H   0  0  0  0  0  0  0  0  0  0  0  0
  139.2509   69.5116  223.0426 H   0  0  0  0  0  0  0  0  0  0  0  0
  136.1819   73.3125  220.9535 H   0  0  0  0  0  0  0  0  0  0  0  0
  137.4974   72.0313  220.9712 H   0  0  0  0  0  0  0  0  0  0  0  0
  135.5481   74.0328  223.4594 H   0  0  0  0  0  0  0  0  0  0  0  0
  134.5078   73.0242  225.4582 H   0  0  0  0  0  0  0  0  0  0  0  0
  134.7097   70.6031  225.9054 H   0  0  0  0  0  0  0  0  0  0  0  0
  136.4640   68.6050  225.2360 H   0  0  0  0  0  0  0  0  0  0  0  0
  137.0238   70.1934  222.3152 H   0  0  0  0  0  0  0  0  0  0  0  0
  1  2  2  0
  2  3  1  0
  3  4  2  0
  4  5  1  0
  5  6  1  0
  5  7  2  0
  7  8  1  0
  8  9  2  0
  9 10  1  0
 10 11  2  0
 11 12  1  0
 12 13  2  0
 13 14  1  0
 14 15  2  0
 15 16  1  0
 16 17  2  0
 17 18  1  0
 18 19  1  0
 18 20  2  0
 11 21  1  0
 21 22  1  0
 22 23  1  0
 23 24  2  0
 24 25  1  0
 25 26  2  0
 26 27  1  0
 27 28  1  0
 27 29  2  0
 21  2  1  0
 29 23  1  0
  9  3  1  0
 20 14  1  0
  4 30  1  0
  7 31  1  0
  8 32  1  0
 12 33  1  0
 13 34  1  0
 15 35  1  0
 16 36  1  0
 17 37  1  0
 19 38  1  0
 20 39  1  0
 22 40  1  0
 22 41  1  0
 24 42  1  0
 25 43  1  0
 26 44  1  0
 28 45  1  0
 29 46  1  0
M  END
>  <smiles>  (27) 
O=c1c2cc(Cl)ccc2nc(/C=C/c2cccc(O)c2)n1Cc1cccc(O)c1

>  <score_type>  (27) 
oracle

>  <origin>  (27) 
autodockgpu

>  <m_score__min__energy>  (27) 
-8.8100000000000005

>  <m_primary>  (27) 
energy

>  <rmsd>  (27) 
8.525592481792232

>  <m_score__min__rmsd>  (27) 
8.525592481792232

>  <meeko>  (27) 
{"free_energy": -6.04, "intermolecular_energy": -8.13, "internal_energy": -2.99, "cluster_size": 13, "cluster_id": 4, "rank_in_cluster": 5}

>  <energy>  (27) 
-5.81

>  <cluster_rmsd>  (27) 
1.81

>  <cluster>  (27) 
5

$$$$

     RDKit          3D

 46 49  0  0  0  0  0  0  0  0999 V2000
  138.2910   76.6350  221.9540 O   0  0  0  0  0  0  0  0  0  0  0  0
  138.8980   77.5820  222.5230 C   0  0  0  0  0  0  0  0  0  0  0  0
  138.0640   78.5540  223.0890 C   0  0  0  0  0  0  0  0  0  0  0  0
  136.6790   78.4420  223.0040 C   0  0  0  0  0  0  0  0  0  0  0  0
  135.9000   79.4220  223.5740 C   0  0  0  0  0  0  0  0  0  0  0  0
  134.1520   79.3290  223.4960 Cl  0  0  0  0  0  0  0  0  0  0  0  0
  136.4610   80.5190  224.2320 C   0  0  0  0  0  0  0  0  0  0  0  0
  137.8440   80.6260  224.3130 C   0  0  0  0  0  0  0  0  0  0  0  0
  138.6150   79.6370  223.7380 C   0  0  0  0  0  0  0  0  0  0  0  0
  139.9560   79.6950  223.7900 N   0  0  0  0  0  0  0  0  0  0  0  0
  140.7310   78.7470  223.2380 C   0  0  0  0  0  0  0  0  0  0  0  0
  142.1770   78.9160  223.3880 C   0  0  0  0  0  0  0  0  0  0  0  0
  142.7980   79.9480  222.8480 C   0  0  0  0  0  0  0  0  0  0  0  0
  142.1870   80.8870  221.9330 C   0  0  0  0  0  0  0  0  0  0  0  0
  141.5860   82.0630  222.3040 C   0  0  0  0  0  0  0  0  0  0  0  0
  141.0140   82.9340  221.3860 C   0  0  0  0  0  0  0  0  0  0  0  0
  141.0280   82.6430  220.0380 C   0  0  0  0  0  0  0  0  0  0  0  0
  141.6270   81.4650  219.6410 C   0  0  0  0  0  0  0  0  0  0  0  0
  141.6720   81.1180  218.2950 O   0  0  0  0  0  0  0  0  0  0  0  0
  142.1920   80.6100  220.5650 C   0  0  0  0  0  0  0  0  0  0  0  0
  140.2400   77.6700  222.5920 N   0  0  0  0  0  0  0  0  0  0  0  0
  141.0340   76.6600  221.9670 C   0  0  0  0  0  0  0  0  0  0  0  0
  141.4790   76.9830  220.5870 C   0  0  0  0  0  0  0  0  0  0  0  0
  142.6440   76.4080  220.0810 C   0  0  0  0  0  0  0  0  0  0  0  0
  143.0930   76.6820  218.7940 C   0  0  0  0  0  0  0  0  0  0  0  0
  142.4030   77.5300  217.9730 C   0  0  0  0  0  0  0  0  0  0  0  0
  141.2590   78.1060  218.4430 C   0  0  0  0  0  0  0  0  0  0  0  0
  140.5530   78.9660  217.6210 O   0  0  0  0  0  0  0  0  0  0  0  0
  140.8110   77.8290  219.7370 C   0  0  0  0  0  0  0  0  0  0  0  0
  136.2164   77.5861  222.4908 H   0  0  0  0  0  0  0  0  0  0  0  0
  135.8158   81.2888  224.6805 H   0  0  0  0  0  0  0  0  0  0  0  0
  138.3133   81.4797  224.8239 H   0  0  0  0  0  0  0  0  0  0  0  0
  142.7539   78.1731  223.9583 H   0  0  0  0  0  0  0  0  0  0  0  0
  143.8542   80.1049  223.1123 H   0  0  0  0  0  0  0  0  0  0  0  0
  141.5559   82.3267  223.3715 H   0  0  0  0  0  0  0  0  0  0  0  0
  140.5452   83.8650  221.7374 H   0  0  0  0  0  0  0  0  0  0  0  0
  140.5769   83.3269  219.3040 H   0  0  0  0  0  0  0  0  0  0  0  0
  142.1640   80.3500  217.9040 H   0  0  0  0  0  0  0  0  0  0  0  0
  142.6616   79.6800  220.2120 H   0  0  0  0  0  0  0  0  0  0  0  0
  141.9287   76.4964  222.5856 H   0  0  0  0  0  0  0  0  0  0  0  0
  140.3940   75.7691  221.8856 H   0  0  0  0  0  0  0  0  0  0  0  0
  143.2223   75.7205  220.7158 H   0  0  0  0  0  0  0  0  0  0  0  0
  144.0175   76.2093  218.4308 H   0  0  0  0  0  0  0  0  0  0  0  0
  142.7624   77.7433  216.9555 H   0  0  0  0  0  0  0  0  0  0  0  0
  140.5570   79.9700  217.8350 H   0  0  0  0  0  0  0  0  0  0  0  0
  139.8855   78.3082  220.0890 H   0  0  0  0  0  0  0  0  0  0  0  0
  1  2  2  0
  2  3  1  0
  3  4  2  0
  4  5  1  0
  5  6  1  0
  5  7  2  0
  7  8  1  0
  8  9  2  0
  9 10  1  0
 10 11  2  0
 11 12  1  0
 12 13  2  0
 13 14  1  0
 14 15  2  0
 15 16  1  0
 16 17  2  0
 17 18  1  0
 18 19  1  0
 18 20  2  0
 11 21  1  0
 21 22  1  0
 22 23  1  0
 23 24  2  0
 24 25  1  0
 25 26  2  0
 26 27  1  0
 27 28  1  0
 27 29  2  0
 21  2  1  0
 29 23  1  0
  9  3  1  0
 20 14  1  0
  4 30  1  0
  7 31  1  0
  8 32  1  0
 12 33  1  0
 13 34  1  0
 15 35  1  0
 16 36  1  0
 17 37  1  0
 19 38  1  0
 20 39  1  0
 22 40  1  0
 22 41  1  0
 24 42  1  0
 25 43  1  0
 26 44  1  0
 28 45  1  0
 29 46  1  0
M  END
>  <smiles>  (28) 
O=c1c2cc(Cl)ccc2nc(/C=C/c2cccc(O)c2)n1Cc1cccc(O)c1

>  <score_type>  (28) 
oracle

>  <origin>  (28) 
autodockgpu

>  <m_score__min__energy>  (28) 
-8.8100000000000005

>  <m_primary>  (28) 
energy

>  <rmsd>  (28) 
6.245185291881912

>  <m_score__min__rmsd>  (28) 
6.245185291881912

>  <meeko>  (28) 
{"free_energy": -5.42, "intermolecular_energy": -7.51, "internal_energy": -3.22, "cluster_size": 9, "cluster_id": 14, "rank_in_cluster": 2}

>  <energy>  (28) 
-5.72

>  <cluster_rmsd>  (28) 
0.41

>  <cluster>  (28) 
5

$$$$

     RDKit          3D

 46 49  0  0  0  0  0  0  0  0999 V2000
  140.7880   73.9990  221.9530 O   0  0  0  0  0  0  0  0  0  0  0  0
  139.6010   74.3820  222.1310 C   0  0  0  0  0  0  0  0  0  0  0  0
  139.4550   75.7630  222.3200 C   0  0  0  0  0  0  0  0  0  0  0  0
  140.5640   76.6050  222.3030 C   0  0  0  0  0  0  0  0  0  0  0  0
  140.3720   77.9530  222.4930 C   0  0  0  0  0  0  0  0  0  0  0  0
  141.7320   79.0580  222.4820 Cl  0  0  0  0  0  0  0  0  0  0  0  0
  139.1010   78.4950  222.7000 C   0  0  0  0  0  0  0  0  0  0  0  0
  137.9990   77.6500  222.7160 C   0  0  0  0  0  0  0  0  0  0  0  0
  138.2030   76.2990  222.5240 C   0  0  0  0  0  0  0  0  0  0  0  0
  137.1690   75.4410  222.5300 N   0  0  0  0  0  0  0  0  0  0  0  0
  137.3400   74.1210  222.3470 C   0  0  0  0  0  0  0  0  0  0  0  0
  136.1280   73.3000  222.3500 C   0  0  0  0  0  0  0  0  0  0  0  0
  135.2250   73.4300  223.3030 C   0  0  0  0  0  0  0  0  0  0  0  0
  134.9120   72.4140  224.2830 C   0  0  0  0  0  0  0  0  0  0  0  0
  134.2540   72.6420  225.4650 C   0  0  0  0  0  0  0  0  0  0  0  0
  133.9770   71.6300  226.3760 C   0  0  0  0  0  0  0  0  0  0  0  0
  134.3600   70.3300  226.1200 C   0  0  0  0  0  0  0  0  0  0  0  0
  135.0230   70.0760  224.9370 C   0  0  0  0  0  0  0  0  0  0  0  0
  135.4330   68.7850  224.6250 O   0  0  0  0  0  0  0  0  0  0  0  0
  135.2920   71.0920  224.0430 C   0  0  0  0  0  0  0  0  0  0  0  0
  138.5430   73.5490  222.1440 N   0  0  0  0  0  0  0  0  0  0  0  0
  138.7640   72.1470  221.9760 C   0  0  0  0  0  0  0  0  0  0  0  0
  139.1170   71.4200  223.2220 C   0  0  0  0  0  0  0  0  0  0  0  0
  140.1810   71.8630  224.0070 C   0  0  0  0  0  0  0  0  0  0  0  0
  140.5420   71.2120  225.1810 C   0  0  0  0  0  0  0  0  0  0  0  0
  139.8610   70.1080  225.6120 C   0  0  0  0  0  0  0  0  0  0  0  0
  138.8150   69.6530  224.8640 C   0  0  0  0  0  0  0  0  0  0  0  0
  138.1190   68.5360  225.2900 O   0  0  0  0  0  0  0  0  0  0  0  0
  138.4550   70.3080  223.6840 C   0  0  0  0  0  0  0  0  0  0  0  0
  141.5736   76.1996  222.1407 H   0  0  0  0  0  0  0  0  0  0  0  0
  138.9747   79.5776  222.8485 H   0  0  0  0  0  0  0  0  0  0  0  0
  136.9867   78.0487  222.8780 H   0  0  0  0  0  0  0  0  0  0  0  0
  135.9681   72.5651  221.5472 H   0  0  0  0  0  0  0  0  0  0  0  0
  134.6708   74.3787  223.3558 H   0  0  0  0  0  0  0  0  0  0  0  0
  133.9327   73.6672  225.7011 H   0  0  0  0  0  0  0  0  0  0  0  0
  133.4473   71.8679  227.3102 H   0  0  0  0  0  0  0  0  0  0  0  0
  134.1441   69.5226  226.8352 H   0  0  0  0  0  0  0  0  0  0  0  0
  136.2810   68.5320  224.1730 H   0  0  0  0  0  0  0  0  0  0  0  0
  135.8235   70.8526  223.1102 H   0  0  0  0  0  0  0  0  0  0  0  0
  137.8444   71.7017  221.5685 H   0  0  0  0  0  0  0  0  0  0  0  0
  139.6285   72.0475  221.3031 H   0  0  0  0  0  0  0  0  0  0  0  0
  140.7489   72.7499  223.6893 H   0  0  0  0  0  0  0  0  0  0  0  0
  141.3887   71.5911  225.7722 H   0  0  0  0  0  0  0  0  0  0  0  0
  140.1503   69.5973  226.5423 H   0  0  0  0  0  0  0  0  0  0  0  0
  137.1860   68.6610  225.7000 H   0  0  0  0  0  0  0  0  0  0  0  0
  137.6075   69.9180  223.1012 H   0  0  0  0  0  0  0  0  0  0  0  0
  1  2  2  0
  2  3  1  0
  3  4  2  0
  4  5  1  0
  5  6  1  0
  5  7  2  0
  7  8  1  0
  8  9  2  0
  9 10  1  0
 10 11  2  0
 11 12  1  0
 12 13  2  0
 13 14  1  0
 14 15  2  0
 15 16  1  0
 16 17  2  0
 17 18  1  0
 18 19  1  0
 18 20  2  0
 11 21  1  0
 21 22  1  0
 22 23  1  0
 23 24  2  0
 24 25  1  0
 25 26  2  0
 26 27  1  0
 27 28  1  0
 27 29  2  0
 21  2  1  0
 29 23  1  0
  9  3  1  0
 20 14  1  0
  4 30  1  0
  7 31  1  0
  8 32  1  0
 12 33  1  0
 13 34  1  0
 15 35  1  0
 16 36  1  0
 17 37  1  0
 19 38  1  0
 20 39  1  0
 22 40  1  0
 22 41  1  0
 24 42  1  0
 25 43  1  0
 26 44  1  0
 28 45  1  0
 29 46  1  0
M  END
>  <smiles>  (29) 
O=c1c2cc(Cl)ccc2nc(/C=C/c2cccc(O)c2)n1Cc1cccc(O)c1

>  <score_type>  (29) 
oracle

>  <origin>  (29) 
autodockgpu

>  <m_score__min__energy>  (29) 
-8.8100000000000005

>  <m_primary>  (29) 
energy

>  <rmsd>  (29) 
8.895430737114978

>  <m_score__min__rmsd>  (29) 
8.895430737114978

>  <meeko>  (29) 
{"free_energy": -6.18, "intermolecular_energy": -8.26, "internal_energy": -2.74, "cluster_size": 13, "cluster_id": 4, "rank_in_cluster": 2}

>  <energy>  (29) 
-6.38

>  <cluster_rmsd>  (29) 
0.0

>  <cluster>  (29) 
6

$$$$

     RDKit          3D

 46 49  0  0  0  0  0  0  0  0999 V2000
  136.4730   75.7250  222.0850 O   0  0  0  0  0  0  0  0  0  0  0  0
  137.6220   75.2130  222.0360 C   0  0  0  0  0  0  0  0  0  0  0  0
  138.6720   76.1110  222.2670 C   0  0  0  0  0  0  0  0  0  0  0  0
  138.4170   77.4550  222.5260 C   0  0  0  0  0  0  0  0  0  0  0  0
  139.4790   78.2990  222.7460 C   0  0  0  0  0  0  0  0  0  0  0  0
  139.2130   79.9990  223.0760 Cl  0  0  0  0  0  0  0  0  0  0  0  0
  140.8000   77.8450  222.7180 C   0  0  0  0  0  0  0  0  0  0  0  0
  141.0490   76.5030  222.4590 C   0  0  0  0  0  0  0  0  0  0  0  0
  139.9750   75.6640  222.2400 C   0  0  0  0  0  0  0  0  0  0  0  0
  140.1640   74.3590  221.9860 N   0  0  0  0  0  0  0  0  0  0  0  0
  139.1370   73.5210  221.7680 C   0  0  0  0  0  0  0  0  0  0  0  0
  139.4790   72.1180  221.5290 C   0  0  0  0  0  0  0  0  0  0  0  0
  140.4060   71.5150  222.2490 C   0  0  0  0  0  0  0  0  0  0  0  0
  140.2220   71.0540  223.6070 C   0  0  0  0  0  0  0  0  0  0  0  0
  140.6410   71.7270  224.7270 C   0  0  0  0  0  0  0  0  0  0  0  0
  140.4390   71.2410  226.0120 C   0  0  0  0  0  0  0  0  0  0  0  0
  139.7950   70.0390  226.2160 C   0  0  0  0  0  0  0  0  0  0  0  0
  139.3640   69.3440  225.1050 C   0  0  0  0  0  0  0  0  0  0  0  0
  138.7080   68.1270  225.2490 O   0  0  0  0  0  0  0  0  0  0  0  0
  139.5720   69.8390  223.8340 C   0  0  0  0  0  0  0  0  0  0  0  0
  137.8460   73.9090  221.7830 N   0  0  0  0  0  0  0  0  0  0  0  0
  136.7320   73.0520  221.5260 C   0  0  0  0  0  0  0  0  0  0  0  0
  136.2630   72.2730  222.7010 C   0  0  0  0  0  0  0  0  0  0  0  0
  135.5020   72.8970  223.6890 C   0  0  0  0  0  0  0  0  0  0  0  0
  135.0420   72.2030  224.8020 C   0  0  0  0  0  0  0  0  0  0  0  0
  135.3190   70.8750  224.9690 C   0  0  0  0  0  0  0  0  0  0  0  0
  136.0610   70.2400  224.0160 C   0  0  0  0  0  0  0  0  0  0  0  0
  136.3480   68.8960  224.1740 O   0  0  0  0  0  0  0  0  0  0  0  0
  136.5230   70.9390  222.8990 C   0  0  0  0  0  0  0  0  0  0  0  0
  137.3848   77.8342  222.5540 H   0  0  0  0  0  0  0  0  0  0  0  0
  141.6323   78.5412  222.8987 H   0  0  0  0  0  0  0  0  0  0  0  0
  142.0789   76.1177  222.4291 H   0  0  0  0  0  0  0  0  0  0  0  0
  138.9564   71.5589  220.7388 H   0  0  0  0  0  0  0  0  0  0  0  0
  141.3888   71.3514  221.7828 H   0  0  0  0  0  0  0  0  0  0  0  0
  141.1576   72.6901  224.6019 H   0  0  0  0  0  0  0  0  0  0  0  0
  140.7963   71.8207  226.8758 H   0  0  0  0  0  0  0  0  0  0  0  0
  139.6304   69.6474  227.2307 H   0  0  0  0  0  0  0  0  0  0  0  0
  137.7520   67.9990  225.4840 H   0  0  0  0  0  0  0  0  0  0  0  0
  139.2142   69.2577  222.9714 H   0  0  0  0  0  0  0  0  0  0  0  0
  135.8965   73.6734  221.1714 H   0  0  0  0  0  0  0  0  0  0  0  0
  137.0713   72.3167  220.7816 H   0  0  0  0  0  0  0  0  0  0  0  0
  135.2597   73.9649  223.5849 H   0  0  0  0  0  0  0  0  0  0  0  0
  134.4455   72.7310  225.5606 H   0  0  0  0  0  0  0  0  0  0  0  0
  134.9521   70.3305  225.8516 H   0  0  0  0  0  0  0  0  0  0  0  0
  137.2300   68.5300  223.7970 H   0  0  0  0  0  0  0  0  0  0  0  0
  137.1188   70.3999  222.1478 H   0  0  0  0  0  0  0  0  0  0  0  0
  1  2  2  0
  2  3  1  0
  3  4  2  0
  4  5  1  0
  5  6  1  0
  5  7  2  0
  7  8  1  0
  8  9  2  0
  9 10  1  0
 10 11  2  0
 11 12  1  0
 12 13  2  0
 13 14  1  0
 14 15  2  0
 15 16  1  0
 16 17  2  0
 17 18  1  0
 18 19  1  0
 18 20  2  0
 11 21  1  0
 21 22  1  0
 22 23  1  0
 23 24  2  0
 24 25  1  0
 25 26  2  0
 26 27  1  0
 27 28  1  0
 27 29  2  0
 21  2  1  0
 29 23  1  0
  9  3  1  0
 20 14  1  0
  4 30  1  0
  7 31  1  0
  8 32  1  0
 12 33  1  0
 13 34  1  0
 15 35  1  0
 16 36  1  0
 17 37  1  0
 19 38  1  0
 20 39  1  0
 22 40  1  0
 22 41  1  0
 24 42  1  0
 25 43  1  0
 26 44  1  0
 28 45  1  0
 29 46  1  0
M  END
>  <smiles>  (30) 
O=c1c2cc(Cl)ccc2nc(/C=C/c2cccc(O)c2)n1Cc1cccc(O)c1

>  <score_type>  (30) 
oracle

>  <origin>  (30) 
autodockgpu

>  <m_score__min__energy>  (30) 
-8.8100000000000005

>  <m_primary>  (30) 
energy

>  <rmsd>  (30) 
8.50160329948592

>  <m_score__min__rmsd>  (30) 
8.50160329948592

>  <meeko>  (30) 
{"free_energy": -5.93, "intermolecular_energy": -8.02, "internal_energy": -3.05, "cluster_size": 13, "cluster_id": 4, "rank_in_cluster": 12}

>  <energy>  (30) 
-6.1

>  <cluster_rmsd>  (30) 
1.73

>  <cluster>  (30) 
6

$$$$

     RDKit          3D

 46 49  0  0  0  0  0  0  0  0999 V2000
  136.3860   75.4700  221.9550 O   0  0  0  0  0  0  0  0  0  0  0  0
  137.5870   75.0920  222.0010 C   0  0  0  0  0  0  0  0  0  0  0  0
  138.5090   76.1110  222.2690 C   0  0  0  0  0  0  0  0  0  0  0  0
  138.0860   77.4240  222.4620 C   0  0  0  0  0  0  0  0  0  0  0  0
  139.0280   78.3910  222.7220 C   0  0  0  0  0  0  0  0  0  0  0  0
  138.5490   80.0570  222.9730 Cl  0  0  0  0  0  0  0  0  0  0  0  0
  140.3900   78.0910  222.7970 C   0  0  0  0  0  0  0  0  0  0  0  0
  140.8070   76.7800  222.6030 C   0  0  0  0  0  0  0  0  0  0  0  0
  139.8530   75.8180  222.3440 C   0  0  0  0  0  0  0  0  0  0  0  0
  140.2060   74.5370  222.1490 N   0  0  0  0  0  0  0  0  0  0  0  0
  139.2980   73.5800  221.8940 C   0  0  0  0  0  0  0  0  0  0  0  0
  139.8130   72.2190  221.7280 C   0  0  0  0  0  0  0  0  0  0  0  0
  140.6720   71.7110  222.5910 C   0  0  0  0  0  0  0  0  0  0  0  0
  140.3090   71.1170  223.8580 C   0  0  0  0  0  0  0  0  0  0  0  0
  140.6300   71.6360  225.0870 C   0  0  0  0  0  0  0  0  0  0  0  0
  140.2570   71.0270  226.2780 C   0  0  0  0  0  0  0  0  0  0  0  0
  139.5340   69.8520  226.2710 C   0  0  0  0  0  0  0  0  0  0  0  0
  139.1990   69.3120  225.0470 C   0  0  0  0  0  0  0  0  0  0  0  0
  138.4700   68.1300  224.9770 O   0  0  0  0  0  0  0  0  0  0  0  0
  139.5760   69.9280  223.8720 C   0  0  0  0  0  0  0  0  0  0  0  0
  137.9740   73.8170  221.8100 N   0  0  0  0  0  0  0  0  0  0  0  0
  136.9850   72.8300  221.5100 C   0  0  0  0  0  0  0  0  0  0  0  0
  136.3790   72.1760  222.6990 C   0  0  0  0  0  0  0  0  0  0  0  0
  135.6360   72.9340  223.6040 C   0  0  0  0  0  0  0  0  0  0  0  0
  135.0510   72.3600  224.7270 C   0  0  0  0  0  0  0  0  0  0  0  0
  135.1820   71.0240  224.9850 C   0  0  0  0  0  0  0  0  0  0  0  0
  135.9020   70.2600  224.1150 C   0  0  0  0  0  0  0  0  0  0  0  0
  136.0420   68.9060  224.3660 O   0  0  0  0  0  0  0  0  0  0  0  0
  136.4900   70.8390  222.9880 C   0  0  0  0  0  0  0  0  0  0  0  0
  137.0182   77.6824  222.4074 H   0  0  0  0  0  0  0  0  0  0  0  0
  141.1237   78.8832  223.0071 H   0  0  0  0  0  0  0  0  0  0  0  0
  141.8734   76.5153  222.6548 H   0  0  0  0  0  0  0  0  0  0  0  0
  139.4794   71.6127  220.8730 H   0  0  0  0  0  0  0  0  0  0  0  0
  141.7396   71.7416  222.3279 H   0  0  0  0  0  0  0  0  0  0  0  0
  141.2060   72.5721  225.1306 H   0  0  0  0  0  0  0  0  0  0  0  0
  140.5408   71.4860  227.2365 H   0  0  0  0  0  0  0  0  0  0  0  0
  139.2349   69.3626  227.2096 H   0  0  0  0  0  0  0  0  0  0  0  0
  137.8680   67.8550  224.2370 H   0  0  0  0  0  0  0  0  0  0  0  0
  139.2901   69.4680  222.9146 H   0  0  0  0  0  0  0  0  0  0  0  0
  136.1800   73.3145  220.9381 H   0  0  0  0  0  0  0  0  0  0  0  0
  137.4988   72.0366  220.9474 H   0  0  0  0  0  0  0  0  0  0  0  0
  135.5099   74.0120  223.4248 H   0  0  0  0  0  0  0  0  0  0  0  0
  134.4736   72.9909  225.4188 H   0  0  0  0  0  0  0  0  0  0  0  0
  134.7168   70.5752  225.8750 H   0  0  0  0  0  0  0  0  0  0  0  0
  136.6710   68.6050  225.1190 H   0  0  0  0  0  0  0  0  0  0  0  0
  137.0653   70.1973  222.3045 H   0  0  0  0  0  0  0  0  0  0  0  0
  1  2  2  0
  2  3  1  0
  3  4  2  0
  4  5  1  0
  5  6  1  0
  5  7  2  0
  7  8  1  0
  8  9  2  0
  9 10  1  0
 10 11  2  0
 11 12  1  0
 12 13  2  0
 13 14  1  0
 14 15  2  0
 15 16  1  0
 16 17  2  0
 17 18  1  0
 18 19  1  0
 18 20  2  0
 11 21  1  0
 21 22  1  0
 22 23  1  0
 23 24  2  0
 24 25  1  0
 25 26  2  0
 26 27  1  0
 27 28  1  0
 27 29  2  0
 21  2  1  0
 29 23  1  0
  9  3  1  0
 20 14  1  0
  4 30  1  0
  7 31  1  0
  8 32  1  0
 12 33  1  0
 13 34  1  0
 15 35  1  0
 16 36  1  0
 17 37  1  0
 19 38  1  0
 20 39  1  0
 22 40  1  0
 22 41  1  0
 24 42  1  0
 25 43  1  0
 26 44  1  0
 28 45  1  0
 29 46  1  0
M  END
>  <smiles>  (31) 
O=c1c2cc(Cl)ccc2nc(/C=C/c2cccc(O)c2)n1Cc1cccc(O)c1

>  <score_type>  (31) 
oracle

>  <origin>  (31) 
autodockgpu

>  <m_score__min__energy>  (31) 
-8.8100000000000005

>  <m_primary>  (31) 
energy

>  <rmsd>  (31) 
8.532872994847926

>  <m_score__min__rmsd>  (31) 
8.532872994847926

>  <meeko>  (31) 
{"free_energy": -5.95, "intermolecular_energy": -8.04, "internal_energy": -3.03, "cluster_size": 13, "cluster_id": 4, "rank_in_cluster": 11}

>  <energy>  (31) 
-5.5

>  <cluster_rmsd>  (31) 
1.87

>  <cluster>  (31) 
6

$$$$

     RDKit          3D

 46 49  0  0  0  0  0  0  0  0999 V2000
  138.1810   76.7750  221.9520 O   0  0  0  0  0  0  0  0  0  0  0  0
  138.8090   77.6980  222.5350 C   0  0  0  0  0  0  0  0  0  0  0  0
  137.9970   78.6730  223.1290 C   0  0  0  0  0  0  0  0  0  0  0  0
  136.6090   78.5870  223.0530 C   0  0  0  0  0  0  0  0  0  0  0  0
  135.8520   79.5680  223.6490 C   0  0  0  0  0  0  0  0  0  0  0  0
  134.1030   79.5080  223.5840 Cl  0  0  0  0  0  0  0  0  0  0  0  0
  136.4380   80.6410  224.3260 C   0  0  0  0  0  0  0  0  0  0  0  0
  137.8230   80.7220  224.3980 C   0  0  0  0  0  0  0  0  0  0  0  0
  138.5720   79.7310  223.7960 C   0  0  0  0  0  0  0  0  0  0  0  0
  139.9140   79.7650  223.8390 N   0  0  0  0  0  0  0  0  0  0  0  0
  140.6680   78.8150  223.2600 C   0  0  0  0  0  0  0  0  0  0  0  0
  142.1180   78.9560  223.4030 C   0  0  0  0  0  0  0  0  0  0  0  0
  142.7800   79.8670  222.7160 C   0  0  0  0  0  0  0  0  0  0  0  0
  142.1670   80.8520  221.8530 C   0  0  0  0  0  0  0  0  0  0  0  0
  141.5590   82.0040  222.2860 C   0  0  0  0  0  0  0  0  0  0  0  0
  140.9840   82.9200  221.4150 C   0  0  0  0  0  0  0  0  0  0  0  0
  141.0020   82.7030  220.0540 C   0  0  0  0  0  0  0  0  0  0  0  0
  141.6080   81.5520  219.5940 C   0  0  0  0  0  0  0  0  0  0  0  0
  141.6570   81.2790  218.2320 O   0  0  0  0  0  0  0  0  0  0  0  0
  142.1750   80.6510  220.4710 C   0  0  0  0  0  0  0  0  0  0  0  0
  140.1530   77.7610  222.5960 N   0  0  0  0  0  0  0  0  0  0  0  0
  140.9240   76.7500  221.9430 C   0  0  0  0  0  0  0  0  0  0  0  0
  141.3870   77.1060  220.5780 C   0  0  0  0  0  0  0  0  0  0  0  0
  142.5890   76.5890  220.0960 C   0  0  0  0  0  0  0  0  0  0  0  0
  143.0560   76.8950  218.8230 C   0  0  0  0  0  0  0  0  0  0  0  0
  142.3490   77.7190  217.9920 C   0  0  0  0  0  0  0  0  0  0  0  0
  141.1690   78.2380  218.4380 C   0  0  0  0  0  0  0  0  0  0  0  0
  140.4440   79.0720  217.6060 O   0  0  0  0  0  0  0  0  0  0  0  0
  140.7020   77.9290  219.7180 C   0  0  0  0  0  0  0  0  0  0  0  0
  136.1274   77.7501  222.5261 H   0  0  0  0  0  0  0  0  0  0  0  0
  135.8101   81.4122  224.7962 H   0  0  0  0  0  0  0  0  0  0  0  0
  138.3114   81.5564  224.9225 H   0  0  0  0  0  0  0  0  0  0  0  0
  142.6625   78.2938  224.0922 H   0  0  0  0  0  0  0  0  0  0  0  0
  143.8762   79.8781  222.8061 H   0  0  0  0  0  0  0  0  0  0  0  0
  141.5260   82.2098  223.3661 H   0  0  0  0  0  0  0  0  0  0  0  0
  140.5093   83.8280  221.8153 H   0  0  0  0  0  0  0  0  0  0  0  0
  140.5483   83.4236  219.3576 H   0  0  0  0  0  0  0  0  0  0  0  0
  142.0850   80.4910  217.8070 H   0  0  0  0  0  0  0  0  0  0  0  0
  142.6493   79.7438  220.0684 H   0  0  0  0  0  0  0  0  0  0  0  0
  141.8095   76.5417  222.5615 H   0  0  0  0  0  0  0  0  0  0  0  0
  140.2609   75.8798  221.8285 H   0  0  0  0  0  0  0  0  0  0  0  0
  143.1824   75.9224  220.7391 H   0  0  0  0  0  0  0  0  0  0  0  0
  144.0093   76.4675  218.4788 H   0  0  0  0  0  0  0  0  0  0  0  0
  142.7236   77.9582  216.9858 H   0  0  0  0  0  0  0  0  0  0  0  0
  140.4610   80.0830  217.7820 H   0  0  0  0  0  0  0  0  0  0  0  0
  139.7472   78.3624  220.0504 H   0  0  0  0  0  0  0  0  0  0  0  0
  1  2  2  0
  2  3  1  0
  3  4  2  0
  4  5  1  0
  5  6  1  0
  5  7  2  0
  7  8  1  0
  8  9  2  0
  9 10  1  0
 10 11  2  0
 11 12  1  0
 12 13  2  0
 13 14  1  0
 14 15  2  0
 15 16  1  0
 16 17  2  0
 17 18  1  0
 18 19  1  0
 18 20  2  0
 11 21  1  0
 21 22  1  0
 22 23  1  0
 23 24  2  0
 24 25  1  0
 25 26  2  0
 26 27  1  0
 27 28  1  0
 27 29  2  0
 21  2  1  0
 29 23  1  0
  9  3  1  0
 20 14  1  0
  4 30  1  0
  7 31  1  0
  8 32  1  0
 12 33  1  0
 13 34  1  0
 15 35  1  0
 16 36  1  0
 17 37  1  0
 19 38  1  0
 20 39  1  0
 22 40  1  0
 22 41  1  0
 24 42  1  0
 25 43  1  0
 26 44  1  0
 28 45  1  0
 29 46  1  0
M  END
>  <smiles>  (32) 
O=c1c2cc(Cl)ccc2nc(/C=C/c2cccc(O)c2)n1Cc1cccc(O)c1

>  <score_type>  (32) 
oracle

>  <origin>  (32) 
autodockgpu

>  <m_score__min__energy>  (32) 
-8.8100000000000005

>  <m_primary>  (32) 
energy

>  <rmsd>  (32) 
6.2391821425668095

>  <m_score__min__rmsd>  (32) 
6.2391821425668095

>  <meeko>  (32) 
{"free_energy": -5.39, "intermolecular_energy": -7.48, "internal_energy": -3.25, "cluster_size": 9, "cluster_id": 14, "rank_in_cluster": 5}

>  <energy>  (32) 
-5.29

>  <cluster_rmsd>  (32) 
1.85

>  <cluster>  (32) 
6

$$$$

     RDKit          3D

 46 49  0  0  0  0  0  0  0  0999 V2000
  134.8910   72.3560  222.4850 O   0  0  0  0  0  0  0  0  0  0  0  0
  135.2440   71.3060  223.0860 C   0  0  0  0  0  0  0  0  0  0  0  0
  134.7650   71.1940  224.3970 C   0  0  0  0  0  0  0  0  0  0  0  0
  133.9660   72.1910  224.9520 C   0  0  0  0  0  0  0  0  0  0  0  0
  133.5200   72.0390  226.2430 C   0  0  0  0  0  0  0  0  0  0  0  0
  132.5130   73.2630  226.9890 Cl  0  0  0  0  0  0  0  0  0  0  0  0
  133.8460   70.9160  227.0070 C   0  0  0  0  0  0  0  0  0  0  0  0
  134.6440   69.9240  226.4500 C   0  0  0  0  0  0  0  0  0  0  0  0
  135.0850   70.0880  225.1520 C   0  0  0  0  0  0  0  0  0  0  0  0
  135.8580   69.1580  224.5690 N   0  0  0  0  0  0  0  0  0  0  0  0
  136.3030   69.2920  223.3080 C   0  0  0  0  0  0  0  0  0  0  0  0
  137.1150   68.1930  222.7820 C   0  0  0  0  0  0  0  0  0  0  0  0
  138.3840   68.0660  223.1220 C   0  0  0  0  0  0  0  0  0  0  0  0
  139.0470   68.8620  224.1320 C   0  0  0  0  0  0  0  0  0  0  0  0
  139.3410   68.4300  225.4010 C   0  0  0  0  0  0  0  0  0  0  0  0
  139.9820   69.2330  226.3350 C   0  0  0  0  0  0  0  0  0  0  0  0
  140.3540   70.5220  226.0170 C   0  0  0  0  0  0  0  0  0  0  0  0
  140.0700   70.9780  224.7460 C   0  0  0  0  0  0  0  0  0  0  0  0
  140.4220   72.2690  224.3670 O   0  0  0  0  0  0  0  0  0  0  0  0
  139.4330   70.1690  223.8280 C   0  0  0  0  0  0  0  0  0  0  0  0
  136.0180   70.3550  222.5300 N   0  0  0  0  0  0  0  0  0  0  0  0
  136.4990   70.5440  221.1970 C   0  0  0  0  0  0  0  0  0  0  0  0
  137.8610   71.1280  221.1050 C   0  0  0  0  0  0  0  0  0  0  0  0
  138.8230   70.5220  220.2960 C   0  0  0  0  0  0  0  0  0  0  0  0
  140.1080   71.0380  220.1800 C   0  0  0  0  0  0  0  0  0  0  0  0
  140.4790   72.1660  220.8580 C   0  0  0  0  0  0  0  0  0  0  0  0
  139.5570   72.7790  221.6560 C   0  0  0  0  0  0  0  0  0  0  0  0
  139.9210   73.9210  222.3470 O   0  0  0  0  0  0  0  0  0  0  0  0
  138.2670   72.2580  221.7710 C   0  0  0  0  0  0  0  0  0  0  0  0
  133.6970   73.0834  224.3678 H   0  0  0  0  0  0  0  0  0  0  0  0
  133.4752   70.8180  228.0380 H   0  0  0  0  0  0  0  0  0  0  0  0
  134.9177   69.0298  227.0292 H   0  0  0  0  0  0  0  0  0  0  0  0
  136.6616   67.4637  222.0946 H   0  0  0  0  0  0  0  0  0  0  0  0
  138.9791   67.3015  222.6010 H   0  0  0  0  0  0  0  0  0  0  0  0
  139.0576   67.4071  225.6897 H   0  0  0  0  0  0  0  0  0  0  0  0
  140.1952   68.8368  227.3388 H   0  0  0  0  0  0  0  0  0  0  0  0
  140.8602   71.1653  226.7518 H   0  0  0  0  0  0  0  0  0  0  0  0
  139.7960   73.0000  224.1240 H   0  0  0  0  0  0  0  0  0  0  0  0
  139.2223   70.5664  222.8241 H   0  0  0  0  0  0  0  0  0  0  0  0
  136.5115   69.5651  220.6954 H   0  0  0  0  0  0  0  0  0  0  0  0
  135.8190   71.2659  220.7212 H   0  0  0  0  0  0  0  0  0  0  0  0
  138.5575   69.6131  219.7361 H   0  0  0  0  0  0  0  0  0  0  0  0
  140.8384   70.5309  219.5324 H   0  0  0  0  0  0  0  0  0  0  0  0
  141.4976   72.5702  220.7624 H   0  0  0  0  0  0  0  0  0  0  0  0
  139.5590   74.0600  223.2970 H   0  0  0  0  0  0  0  0  0  0  0  0
  137.5460   72.7741  222.4220 H   0  0  0  0  0  0  0  0  0  0  0  0
  1  2  2  0
  2  3  1  0
  3  4  2  0
  4  5  1  0
  5  6  1  0
  5  7  2  0
  7  8  1  0
  8  9  2  0
  9 10  1  0
 10 11  2  0
 11 12  1  0
 12 13  2  0
 13 14  1  0
 14 15  2  0
 15 16  1  0
 16 17  2  0
 17 18  1  0
 18 19  1  0
 18 20  2  0
 11 21  1  0
 21 22  1  0
 22 23  1  0
 23 24  2  0
 24 25  1  0
 25 26  2  0
 26 27  1  0
 27 28  1  0
 27 29  2  0
 21  2  1  0
 29 23  1  0
  9  3  1  0
 20 14  1  0
  4 30  1  0
  7 31  1  0
  8 32  1  0
 12 33  1  0
 13 34  1  0
 15 35  1  0
 16 36  1  0
 17 37  1  0
 19 38  1  0
 20 39  1  0
 22 40  1  0
 22 41  1  0
 24 42  1  0
 25 43  1  0
 26 44  1  0
 28 45  1  0
 29 46  1  0
M  END
>  <smiles>  (33) 
O=c1c2cc(Cl)ccc2nc(/C=C/c2cccc(O)c2)n1Cc1cccc(O)c1

>  <score_type>  (33) 
oracle

>  <origin>  (33) 
autodockgpu

>  <m_score__min__energy>  (33) 
-8.8100000000000005

>  <m_primary>  (33) 
energy

>  <rmsd>  (33) 
10.563373288866993

>  <m_score__min__rmsd>  (33) 
10.563373288866993

>  <meeko>  (33) 
{"free_energy": -5.59, "intermolecular_energy": -7.68, "internal_energy": -2.84, "cluster_size": 1, "cluster_id": 13, "rank_in_cluster": 1}

>  <energy>  (33) 
-6.34

>  <cluster_rmsd>  (33) 
0.0

>  <cluster>  (33) 
7

$$$$

     RDKit          3D

 46 49  0  0  0  0  0  0  0  0999 V2000
  143.0590   74.7480  220.6030 O   0  0  0  0  0  0  0  0  0  0  0  0
  141.9990   74.3600  221.1600 C   0  0  0  0  0  0  0  0  0  0  0  0
  141.0740   75.3770  221.4300 C   0  0  0  0  0  0  0  0  0  0  0  0
  141.3510   76.7000  221.0920 C   0  0  0  0  0  0  0  0  0  0  0  0
  140.4140   77.6650  221.3770 C   0  0  0  0  0  0  0  0  0  0  0  0
  140.7110   79.3430  220.9730 Cl  0  0  0  0  0  0  0  0  0  0  0  0
  139.2000   77.3530  221.9930 C   0  0  0  0  0  0  0  0  0  0  0  0
  138.9290   76.0330  222.3290 C   0  0  0  0  0  0  0  0  0  0  0  0
  139.8760   75.0720  222.0380 C   0  0  0  0  0  0  0  0  0  0  0  0
  139.6610   73.7820  222.3430 N   0  0  0  0  0  0  0  0  0  0  0  0
  140.5670   72.8270  222.0710 C   0  0  0  0  0  0  0  0  0  0  0  0
  140.1980   71.4570  222.4310 C   0  0  0  0  0  0  0  0  0  0  0  0
  139.4060   71.2170  223.4580 C   0  0  0  0  0  0  0  0  0  0  0  0
  139.8650   70.9380  224.8010 C   0  0  0  0  0  0  0  0  0  0  0  0
  139.5800   69.7950  225.5050 C   0  0  0  0  0  0  0  0  0  0  0  0
  140.0460   69.5740  226.7940 C   0  0  0  0  0  0  0  0  0  0  0  0
  140.8270   70.5150  227.4310 C   0  0  0  0  0  0  0  0  0  0  0  0
  141.1270   71.6730  226.7430 C   0  0  0  0  0  0  0  0  0  0  0  0
  141.9110   72.6580  227.3330 O   0  0  0  0  0  0  0  0  0  0  0  0
  140.6570   71.8790  225.4620 C   0  0  0  0  0  0  0  0  0  0  0  0
  141.7520   73.0750  221.4800 N   0  0  0  0  0  0  0  0  0  0  0  0
  142.7500   72.0900  221.2040 C   0  0  0  0  0  0  0  0  0  0  0  0
  143.3090   72.1390  219.8290 C   0  0  0  0  0  0  0  0  0  0  0  0
  142.5510   71.6750  218.7540 C   0  0  0  0  0  0  0  0  0  0  0  0
  143.0370   71.7060  217.4520 C   0  0  0  0  0  0  0  0  0  0  0  0
  144.2820   72.1970  217.1760 C   0  0  0  0  0  0  0  0  0  0  0  0
  145.0450   72.6590  218.2090 C   0  0  0  0  0  0  0  0  0  0  0  0
  146.3070   73.1580  217.9420 O   0  0  0  0  0  0  0  0  0  0  0  0
  144.5550   72.6250  219.5160 C   0  0  0  0  0  0  0  0  0  0  0  0
  142.3011   76.9673  220.6064 H   0  0  0  0  0  0  0  0  0  0  0  0
  138.4668   78.1439  222.2096 H   0  0  0  0  0  0  0  0  0  0  0  0
  137.9813   75.7596  222.8159 H   0  0  0  0  0  0  0  0  0  0  0  0
  140.5864   70.6165  221.8371 H   0  0  0  0  0  0  0  0  0  0  0  0
  138.3205   71.2299  223.2808 H   0  0  0  0  0  0  0  0  0  0  0  0
  138.9575   69.0231  225.0290 H   0  0  0  0  0  0  0  0  0  0  0  0
  139.7895   68.6384  227.3125 H   0  0  0  0  0  0  0  0  0  0  0  0
  141.1983   70.3483  228.4529 H   0  0  0  0  0  0  0  0  0  0  0  0
  141.7740   73.6380  227.2600 H   0  0  0  0  0  0  0  0  0  0  0  0
  140.9147   72.8150  224.9448 H   0  0  0  0  0  0  0  0  0  0  0  0
  143.5771   72.2321  221.9151 H   0  0  0  0  0  0  0  0  0  0  0  0
  142.2561   71.1121  221.3031 H   0  0  0  0  0  0  0  0  0  0  0  0
  141.5437   71.2746  218.9411 H   0  0  0  0  0  0  0  0  0  0  0  0
  142.4094   71.3293  216.6309 H   0  0  0  0  0  0  0  0  0  0  0  0
  144.6610   72.2194  216.1436 H   0  0  0  0  0  0  0  0  0  0  0  0
  146.5150   74.1330  218.1870 H   0  0  0  0  0  0  0  0  0  0  0  0
  145.1930   73.0030  220.3284 H   0  0  0  0  0  0  0  0  0  0  0  0
  1  2  2  0
  2  3  1  0
  3  4  2  0
  4  5  1  0
  5  6  1  0
  5  7  2  0
  7  8  1  0
  8  9  2  0
  9 10  1  0
 10 11  2  0
 11 12  1  0
 12 13  2  0
 13 14  1  0
 14 15  2  0
 15 16  1  0
 16 17  2  0
 17 18  1  0
 18 19  1  0
 18 20  2  0
 11 21  1  0
 21 22  1  0
 22 23  1  0
 23 24  2  0
 24 25  1  0
 25 26  2  0
 26 27  1  0
 27 28  1  0
 27 29  2  0
 21  2  1  0
 29 23  1  0
  9  3  1  0
 20 14  1  0
  4 30  1  0
  7 31  1  0
  8 32  1  0
 12 33  1  0
 13 34  1  0
 15 35  1  0
 16 36  1  0
 17 37  1  0
 19 38  1  0
 20 39  1  0
 22 40  1  0
 22 41  1  0
 24 42  1  0
 25 43  1  0
 26 44  1  0
 28 45  1  0
 29 46  1  0
M  END
>  <smiles>  (34) 
O=c1c2cc(Cl)ccc2nc(/C=C/c2cccc(O)c2)n1Cc1cccc(O)c1

>  <score_type>  (34) 
oracle

>  <origin>  (34) 
autodockgpu

>  <m_score__min__energy>  (34) 
-8.8100000000000005

>  <m_primary>  (34) 
energy

>  <rmsd>  (34) 
8.21195966088748

>  <m_score__min__rmsd>  (34) 
8.21195966088748

>  <meeko>  (34) 
{"free_energy": -7.8, "intermolecular_energy": -9.89, "internal_energy": -0.87, "cluster_size": 2, "cluster_id": 2, "rank_in_cluster": 2}

>  <energy>  (34) 
-6.25

>  <cluster_rmsd>  (34) 
1.72

>  <cluster>  (34) 
7

$$$$

     RDKit          3D

 46 49  0  0  0  0  0  0  0  0999 V2000
  138.1530   76.8570  221.9570 O   0  0  0  0  0  0  0  0  0  0  0  0
  138.7850   77.7770  222.5400 C   0  0  0  0  0  0  0  0  0  0  0  0
  137.9770   78.7520  223.1390 C   0  0  0  0  0  0  0  0  0  0  0  0
  136.5890   78.6700  223.0670 C   0  0  0  0  0  0  0  0  0  0  0  0
  135.8370   79.6510  223.6690 C   0  0  0  0  0  0  0  0  0  0  0  0
  134.0860   79.5950  223.6090 Cl  0  0  0  0  0  0  0  0  0  0  0  0
  136.4270   80.7210  224.3460 C   0  0  0  0  0  0  0  0  0  0  0  0
  137.8120   80.7980  224.4140 C   0  0  0  0  0  0  0  0  0  0  0  0
  138.5570   79.8080  223.8070 C   0  0  0  0  0  0  0  0  0  0  0  0
  139.8990   79.8390  223.8450 N   0  0  0  0  0  0  0  0  0  0  0  0
  140.6490   78.8880  223.2610 C   0  0  0  0  0  0  0  0  0  0  0  0
  142.1000   79.0260  223.3990 C   0  0  0  0  0  0  0  0  0  0  0  0
  142.7620   79.9330  222.7080 C   0  0  0  0  0  0  0  0  0  0  0  0
  142.1510   80.9010  221.8240 C   0  0  0  0  0  0  0  0  0  0  0  0
  141.5090   82.0410  222.2350 C   0  0  0  0  0  0  0  0  0  0  0  0
  140.9370   82.9420  221.3450 C   0  0  0  0  0  0  0  0  0  0  0  0
  140.9950   82.7190  219.9860 C   0  0  0  0  0  0  0  0  0  0  0  0
  141.6370   81.5780  219.5480 C   0  0  0  0  0  0  0  0  0  0  0  0
  141.7270   81.3010  218.1890 O   0  0  0  0  0  0  0  0  0  0  0  0
  142.2000   80.6930  220.4440 C   0  0  0  0  0  0  0  0  0  0  0  0
  140.1290   77.8380  222.5960 N   0  0  0  0  0  0  0  0  0  0  0  0
  140.8960   76.8260  221.9390 C   0  0  0  0  0  0  0  0  0  0  0  0
  141.3620   77.1880  220.5750 C   0  0  0  0  0  0  0  0  0  0  0  0
  142.5850   76.7070  220.1100 C   0  0  0  0  0  0  0  0  0  0  0  0
  143.0560   77.0190  218.8400 C   0  0  0  0  0  0  0  0  0  0  0  0
  142.3310   77.8130  217.9950 C   0  0  0  0  0  0  0  0  0  0  0  0
  141.1300   78.2960  218.4250 C   0  0  0  0  0  0  0  0  0  0  0  0
  140.3870   79.1010  217.5790 O   0  0  0  0  0  0  0  0  0  0  0  0
  140.6600   77.9810  219.7020 C   0  0  0  0  0  0  0  0  0  0  0  0
  136.1034   77.8364  222.5386 H   0  0  0  0  0  0  0  0  0  0  0  0
  135.8024   81.4929  224.8193 H   0  0  0  0  0  0  0  0  0  0  0  0
  138.3039   81.6295  224.9399 H   0  0  0  0  0  0  0  0  0  0  0  0
  142.6451   78.3643  224.0882 H   0  0  0  0  0  0  0  0  0  0  0  0
  143.8569   79.9550  222.8112 H   0  0  0  0  0  0  0  0  0  0  0  0
  141.4442   82.2507  223.3129 H   0  0  0  0  0  0  0  0  0  0  0  0
  140.4333   83.8415  221.7286 H   0  0  0  0  0  0  0  0  0  0  0  0
  140.5448   83.4266  219.2742 H   0  0  0  0  0  0  0  0  0  0  0  0
  142.0340   80.4480  217.7830 H   0  0  0  0  0  0  0  0  0  0  0  0
  142.7039   79.7942  220.0589 H   0  0  0  0  0  0  0  0  0  0  0  0
  141.7799   76.6104  222.5572 H   0  0  0  0  0  0  0  0  0  0  0  0
  140.2296   75.9590  221.8199 H   0  0  0  0  0  0  0  0  0  0  0  0
  143.1925   76.0645  220.7644 H   0  0  0  0  0  0  0  0  0  0  0  0
  144.0268   76.6211  218.5096 H   0  0  0  0  0  0  0  0  0  0  0  0
  142.7080   78.0568  216.9908 H   0  0  0  0  0  0  0  0  0  0  0  0
  140.3360   80.1080  217.7720 H   0  0  0  0  0  0  0  0  0  0  0  0
  139.6878   78.3849  220.0210 H   0  0  0  0  0  0  0  0  0  0  0  0
  1  2  2  0
  2  3  1  0
  3  4  2  0
  4  5  1  0
  5  6  1  0
  5  7  2  0
  7  8  1  0
  8  9  2  0
  9 10  1  0
 10 11  2  0
 11 12  1  0
 12 13  2  0
 13 14  1  0
 14 15  2  0
 15 16  1  0
 16 17  2  0
 17 18  1  0
 18 19  1  0
 18 20  2  0
 11 21  1  0
 21 22  1  0
 22 23  1  0
 23 24  2  0
 24 25  1  0
 25 26  2  0
 26 27  1  0
 27 28  1  0
 27 29  2  0
 21  2  1  0
 29 23  1  0
  9  3  1  0
 20 14  1  0
  4 30  1  0
  7 31  1  0
  8 32  1  0
 12 33  1  0
 13 34  1  0
 15 35  1  0
 16 36  1  0
 17 37  1  0
 19 38  1  0
 20 39  1  0
 22 40  1  0
 22 41  1  0
 24 42  1  0
 25 43  1  0
 26 44  1  0
 28 45  1  0
 29 46  1  0
M  END
>  <smiles>  (35) 
O=c1c2cc(Cl)ccc2nc(/C=C/c2cccc(O)c2)n1Cc1cccc(O)c1

>  <score_type>  (35) 
oracle

>  <origin>  (35) 
autodockgpu

>  <m_score__min__energy>  (35) 
-8.8100000000000005

>  <m_primary>  (35) 
energy

>  <rmsd>  (35) 
6.232560626966395

>  <m_score__min__rmsd>  (35) 
6.232560626966395

>  <meeko>  (35) 
{"free_energy": -5.36, "intermolecular_energy": -7.45, "internal_energy": -3.26, "cluster_size": 9, "cluster_id": 14, "rank_in_cluster": 8}

>  <energy>  (35) 
-6.17

>  <cluster_rmsd>  (35) 
0.0

>  <cluster>  (35) 
8

$$$$

     RDKit          3D

 46 49  0  0  0  0  0  0  0  0999 V2000
  141.9040   73.8800  218.5910 O   0  0  0  0  0  0  0  0  0  0  0  0
  141.5050   73.7960  219.7830 C   0  0  0  0  0  0  0  0  0  0  0  0
  141.2190   75.0250  220.3910 C   0  0  0  0  0  0  0  0  0  0  0  0
  141.3790   76.2200  219.6940 C   0  0  0  0  0  0  0  0  0  0  0  0
  141.0870   77.4020  220.3320 C   0  0  0  0  0  0  0  0  0  0  0  0
  141.2700   78.9330  219.5010 Cl  0  0  0  0  0  0  0  0  0  0  0  0
  140.6360   77.4330  221.6540 C   0  0  0  0  0  0  0  0  0  0  0  0
  140.4790   76.2380  222.3450 C   0  0  0  0  0  0  0  0  0  0  0  0
  140.7740   75.0580  221.6950 C   0  0  0  0  0  0  0  0  0  0  0  0
  140.6390   73.8770  222.3200 N   0  0  0  0  0  0  0  0  0  0  0  0
  140.9210   72.7130  221.7100 C   0  0  0  0  0  0  0  0  0  0  0  0
  140.7040   71.4970  222.4950 C   0  0  0  0  0  0  0  0  0  0  0  0
  139.8910   71.4970  223.5340 C   0  0  0  0  0  0  0  0  0  0  0  0
  140.1210   70.7630  224.7580 C   0  0  0  0  0  0  0  0  0  0  0  0
  140.8300   71.2360  225.8330 C   0  0  0  0  0  0  0  0  0  0  0  0
  141.0230   70.4910  226.9900 C   0  0  0  0  0  0  0  0  0  0  0  0
  140.5000   69.2210  227.1030 C   0  0  0  0  0  0  0  0  0  0  0  0
  139.7820   68.7230  226.0340 C   0  0  0  0  0  0  0  0  0  0  0  0
  139.2300   67.4490  226.0920 O   0  0  0  0  0  0  0  0  0  0  0  0
  139.5980   69.4750  224.8930 C   0  0  0  0  0  0  0  0  0  0  0  0
  141.3590   72.6290  220.4380 N   0  0  0  0  0  0  0  0  0  0  0  0
  141.6970   71.4120  219.7700 C   0  0  0  0  0  0  0  0  0  0  0  0
  143.1530   71.1950  219.5720 C   0  0  0  0  0  0  0  0  0  0  0  0
  143.6630   69.8980  219.5380 C   0  0  0  0  0  0  0  0  0  0  0  0
  145.0190   69.6520  219.3520 C   0  0  0  0  0  0  0  0  0  0  0  0
  145.9060   70.6800  219.1940 C   0  0  0  0  0  0  0  0  0  0  0  0
  145.4330   71.9590  219.2220 C   0  0  0  0  0  0  0  0  0  0  0  0
  146.3220   73.0080  219.0630 O   0  0  0  0  0  0  0  0  0  0  0  0
  144.0710   72.2030  219.4100 C   0  0  0  0  0  0  0  0  0  0  0  0
  141.7325   76.2180  218.6523 H   0  0  0  0  0  0  0  0  0  0  0  0
  140.4079   78.3921  222.1419 H   0  0  0  0  0  0  0  0  0  0  0  0
  140.1273   76.2331  223.3872 H   0  0  0  0  0  0  0  0  0  0  0  0
  141.2260   70.5702  222.2148 H   0  0  0  0  0  0  0  0  0  0  0  0
  138.9726   72.0984  223.4640 H   0  0  0  0  0  0  0  0  0  0  0  0
  141.2631   72.2456  225.7768 H   0  0  0  0  0  0  0  0  0  0  0  0
  141.5988   70.9191  227.8238 H   0  0  0  0  0  0  0  0  0  0  0  0
  140.6496   68.6239  228.0146 H   0  0  0  0  0  0  0  0  0  0  0  0
  139.4150   66.7600  226.7820 H   0  0  0  0  0  0  0  0  0  0  0  0
  139.0199   69.0461  224.0612 H   0  0  0  0  0  0  0  0  0  0  0  0
  141.3037   70.5743  220.3647 H   0  0  0  0  0  0  0  0  0  0  0  0
  141.2536   71.4761  218.7654 H   0  0  0  0  0  0  0  0  0  0  0  0
  142.9757   69.0481  219.6613 H   0  0  0  0  0  0  0  0  0  0  0  0
  145.3834   68.6143  219.3317 H   0  0  0  0  0  0  0  0  0  0  0  0
  146.9777   70.4801  219.0475 H   0  0  0  0  0  0  0  0  0  0  0  0
  145.9500   73.9560  218.9350 H   0  0  0  0  0  0  0  0  0  0  0  0
  143.7193   73.2451  219.4291 H   0  0  0  0  0  0  0  0  0  0  0  0
  1  2  2  0
  2  3  1  0
  3  4  2  0
  4  5  1  0
  5  6  1  0
  5  7  2  0
  7  8  1  0
  8  9  2  0
  9 10  1  0
 10 11  2  0
 11 12  1  0
 12 13  2  0
 13 14  1  0
 14 15  2  0
 15 16  1  0
 16 17  2  0
 17 18  1  0
 18 19  1  0
 18 20  2  0
 11 21  1  0
 21 22  1  0
 22 23  1  0
 23 24  2  0
 24 25  1  0
 25 26  2  0
 26 27  1  0
 27 28  1  0
 27 29  2  0
 21  2  1  0
 29 23  1  0
  9  3  1  0
 20 14  1  0
  4 30  1  0
  7 31  1  0
  8 32  1  0
 12 33  1  0
 13 34  1  0
 15 35  1  0
 16 36  1  0
 17 37  1  0
 19 38  1  0
 20 39  1  0
 22 40  1  0
 22 41  1  0
 24 42  1  0
 25 43  1  0
 26 44  1  0
 28 45  1  0
 29 46  1  0
M  END
>  <smiles>  (36) 
O=c1c2cc(Cl)ccc2nc(/C=C/c2cccc(O)c2)n1Cc1cccc(O)c1

>  <score_type>  (36) 
oracle

>  <origin>  (36) 
autodockgpu

>  <m_score__min__energy>  (36) 
-8.8100000000000005

>  <m_primary>  (36) 
energy

>  <rmsd>  (36) 
9.124609864626162

>  <m_score__min__rmsd>  (36) 
9.124609864626162

>  <meeko>  (36) 
{"free_energy": -8.39, "intermolecular_energy": -10.48, "internal_energy": -0.76, "cluster_size": 9, "cluster_id": 1, "rank_in_cluster": 2}

>  <energy>  (36) 
-6.04

>  <cluster_rmsd>  (36) 
0.0

>  <cluster>  (36) 
9

$$$$

     RDKit          3D

 46 49  0  0  0  0  0  0  0  0999 V2000
  138.1690   76.5780  221.9560 O   0  0  0  0  0  0  0  0  0  0  0  0
  138.8200   77.5130  222.4920 C   0  0  0  0  0  0  0  0  0  0  0  0
  138.0330   78.5100  223.0830 C   0  0  0  0  0  0  0  0  0  0  0  0
  136.6430   78.4300  223.0540 C   0  0  0  0  0  0  0  0  0  0  0  0
  135.9110   79.4320  223.6470 C   0  0  0  0  0  0  0  0  0  0  0  0
  134.1600   79.3810  223.6400 Cl  0  0  0  0  0  0  0  0  0  0  0  0
  136.5240   80.5200  224.2730 C   0  0  0  0  0  0  0  0  0  0  0  0
  137.9110   80.5950  224.2980 C   0  0  0  0  0  0  0  0  0  0  0  0
  138.6350   79.5830  223.7010 C   0  0  0  0  0  0  0  0  0  0  0  0
  139.9780   79.6100  223.6990 N   0  0  0  0  0  0  0  0  0  0  0  0
  140.7080   78.6390  223.1230 C   0  0  0  0  0  0  0  0  0  0  0  0
  142.1620   78.7760  223.2150 C   0  0  0  0  0  0  0  0  0  0  0  0
  142.7710   79.8560  222.7640 C   0  0  0  0  0  0  0  0  0  0  0  0
  142.1470   80.8670  221.9390 C   0  0  0  0  0  0  0  0  0  0  0  0
  141.5910   82.0290  222.4100 C   0  0  0  0  0  0  0  0  0  0  0  0
  141.0030   82.9710  221.5750 C   0  0  0  0  0  0  0  0  0  0  0  0
  140.9540   82.7680  220.2120 C   0  0  0  0  0  0  0  0  0  0  0  0
  141.5070   81.6060  219.7150 C   0  0  0  0  0  0  0  0  0  0  0  0
  141.4870   81.3470  218.3490 O   0  0  0  0  0  0  0  0  0  0  0  0
  142.0870   80.6800  220.5570 C   0  0  0  0  0  0  0  0  0  0  0  0
  140.1660   77.5710  222.5060 N   0  0  0  0  0  0  0  0  0  0  0  0
  140.9100   76.5370  221.8590 C   0  0  0  0  0  0  0  0  0  0  0  0
  141.4580   76.9060  220.5280 C   0  0  0  0  0  0  0  0  0  0  0  0
  142.6600   76.3490  220.0940 C   0  0  0  0  0  0  0  0  0  0  0  0
  143.2050   76.6650  218.8550 C   0  0  0  0  0  0  0  0  0  0  0  0
  142.5770   77.5390  218.0110 C   0  0  0  0  0  0  0  0  0  0  0  0
  141.3990   78.0980  218.4110 C   0  0  0  0  0  0  0  0  0  0  0  0
  140.7540   78.9840  217.5660 O   0  0  0  0  0  0  0  0  0  0  0  0
  140.8540   77.7790  219.6570 C   0  0  0  0  0  0  0  0  0  0  0  0
  136.1403   77.5818  222.5663 H   0  0  0  0  0  0  0  0  0  0  0  0
  135.9156   81.3081  224.7407 H   0  0  0  0  0  0  0  0  0  0  0  0
  138.4203   81.4412  224.7823 H   0  0  0  0  0  0  0  0  0  0  0  0
  142.7555   77.9673  223.6664 H   0  0  0  0  0  0  0  0  0  0  0  0
  143.8278   79.9976  223.0345 H   0  0  0  0  0  0  0  0  0  0  0  0
  141.6115   82.2229  223.4926 H   0  0  0  0  0  0  0  0  0  0  0  0
  140.5726   83.8873  222.0052 H   0  0  0  0  0  0  0  0  0  0  0  0
  140.4895   83.5078  219.5434 H   0  0  0  0  0  0  0  0  0  0  0  0
  140.6990   81.0590  217.8180 H   0  0  0  0  0  0  0  0  0  0  0  0
  142.5164   79.7640  220.1251 H   0  0  0  0  0  0  0  0  0  0  0  0
  141.7515   76.2609  222.5114 H   0  0  0  0  0  0  0  0  0  0  0  0
  140.2063   75.7093  221.6866 H   0  0  0  0  0  0  0  0  0  0  0  0
  143.1904   75.6417  220.7485 H   0  0  0  0  0  0  0  0  0  0  0  0
  144.1561   76.2050  218.5485 H   0  0  0  0  0  0  0  0  0  0  0  0
  143.0123   77.7856  217.0314 H   0  0  0  0  0  0  0  0  0  0  0  0
  141.3160   79.6590  217.0350 H   0  0  0  0  0  0  0  0  0  0  0  0
  139.9028   78.2459  219.9523 H   0  0  0  0  0  0  0  0  0  0  0  0
  1  2  2  0
  2  3  1  0
  3  4  2  0
  4  5  1  0
  5  6  1  0
  5  7  2  0
  7  8  1  0
  8  9  2  0
  9 10  1  0
 10 11  2  0
 11 12  1  0
 12 13  2  0
 13 14  1  0
 14 15  2  0
 15 16  1  0
 16 17  2  0
 17 18  1  0
 18 19  1  0
 18 20  2  0
 11 21  1  0
 21 22  1  0
 22 23  1  0
 23 24  2  0
 24 25  1  0
 25 26  2  0
 26 27  1  0
 27 28  1  0
 27 29  2  0
 21  2  1  0
 29 23  1  0
  9  3  1  0
 20 14  1  0
  4 30  1  0
  7 31  1  0
  8 32  1  0
 12 33  1  0
 13 34  1  0
 15 35  1  0
 16 36  1  0
 17 37  1  0
 19 38  1  0
 20 39  1  0
 22 40  1  0
 22 41  1  0
 24 42  1  0
 25 43  1  0
 26 44  1  0
 28 45  1  0
 29 46  1  0
M  END
>  <smiles>  (37) 
O=c1c2cc(Cl)ccc2nc(/C=C/c2cccc(O)c2)n1Cc1cccc(O)c1

>  <score_type>  (37) 
oracle

>  <origin>  (37) 
autodockgpu

>  <m_score__min__energy>  (37) 
-8.8100000000000005

>  <m_primary>  (37) 
energy

>  <rmsd>  (37) 
6.266588715501117

>  <m_score__min__rmsd>  (37) 
6.266588715501117

>  <meeko>  (37) 
{"free_energy": -5.39, "intermolecular_energy": -7.47, "internal_energy": -3.13, "cluster_size": 9, "cluster_id": 14, "rank_in_cluster": 6}

>  <energy>  (37) 
-5.97

>  <cluster_rmsd>  (37) 
0.0

>  <cluster>  (37) 
10

$$$$

     RDKit          3D

 46 49  0  0  0  0  0  0  0  0999 V2000
  141.3410   76.3390  222.3530 O   0  0  0  0  0  0  0  0  0  0  0  0
  141.4070   76.8680  221.2120 C   0  0  0  0  0  0  0  0  0  0  0  0
  141.6070   78.2550  221.2230 C   0  0  0  0  0  0  0  0  0  0  0  0
  141.7160   78.9500  222.4240 C   0  0  0  0  0  0  0  0  0  0  0  0
  141.9100   80.3100  222.3850 C   0  0  0  0  0  0  0  0  0  0  0  0
  142.0540   81.2340  223.8670 Cl  0  0  0  0  0  0  0  0  0  0  0  0
  142.0010   81.0070  221.1780 C   0  0  0  0  0  0  0  0  0  0  0  0
  141.8910   80.3090  219.9820 C   0  0  0  0  0  0  0  0  0  0  0  0
  141.6970   78.9440  220.0330 C   0  0  0  0  0  0  0  0  0  0  0  0
  141.5850   78.2240  218.9050 N   0  0  0  0  0  0  0  0  0  0  0  0
  141.3940   76.8940  218.9260 C   0  0  0  0  0  0  0  0  0  0  0  0
  141.3150   76.2260  217.6260 C   0  0  0  0  0  0  0  0  0  0  0  0
  142.4060   75.9710  216.9280 C   0  0  0  0  0  0  0  0  0  0  0  0
  143.0870   74.6960  216.9060 C   0  0  0  0  0  0  0  0  0  0  0  0
  142.5740   73.5430  216.3660 C   0  0  0  0  0  0  0  0  0  0  0  0
  143.2700   72.3410  216.3680 C   0  0  0  0  0  0  0  0  0  0  0  0
  144.5290   72.2580  216.9250 C   0  0  0  0  0  0  0  0  0  0  0  0
  145.0660   73.4050  217.4730 C   0  0  0  0  0  0  0  0  0  0  0  0
  146.3310   73.3830  218.0480 O   0  0  0  0  0  0  0  0  0  0  0  0
  144.3630   74.5920  217.4640 C   0  0  0  0  0  0  0  0  0  0  0  0
  141.2980   76.1760  220.0620 N   0  0  0  0  0  0  0  0  0  0  0  0
  141.0660   74.7670  220.1210 C   0  0  0  0  0  0  0  0  0  0  0  0
  142.2790   73.9470  220.3700 C   0  0  0  0  0  0  0  0  0  0  0  0
  142.1560   72.5770  220.5990 C   0  0  0  0  0  0  0  0  0  0  0  0
  143.2660   71.7730  220.8330 C   0  0  0  0  0  0  0  0  0  0  0  0
  144.5270   72.3010  220.8460 C   0  0  0  0  0  0  0  0  0  0  0  0
  144.6760   73.6390  220.6230 C   0  0  0  0  0  0  0  0  0  0  0  0
  145.9480   74.1840  220.6330 O   0  0  0  0  0  0  0  0  0  0  0  0
  143.5590   74.4440  220.3890 C   0  0  0  0  0  0  0  0  0  0  0  0
  141.6482   78.4208  223.3860 H   0  0  0  0  0  0  0  0  0  0  0  0
  142.1579   82.0957  221.1745 H   0  0  0  0  0  0  0  0  0  0  0  0
  141.9570   80.8324  219.0168 H   0  0  0  0  0  0  0  0  0  0  0  0
  140.3335   75.9326  217.2254 H   0  0  0  0  0  0  0  0  0  0  0  0
  142.8265   76.7859  216.3204 H   0  0  0  0  0  0  0  0  0  0  0  0
  141.5717   73.5721  215.9136 H   0  0  0  0  0  0  0  0  0  0  0  0
  142.8124   71.4462  215.9208 H   0  0  0  0  0  0  0  0  0  0  0  0
  145.0862   71.3096  216.9322 H   0  0  0  0  0  0  0  0  0  0  0  0
  146.7350   74.0990  218.6040 H   0  0  0  0  0  0  0  0  0  0  0  0
  144.8226   75.4859  217.9110 H   0  0  0  0  0  0  0  0  0  0  0  0
  140.3484   74.5718  220.9315 H   0  0  0  0  0  0  0  0  0  0  0  0
  140.6908   74.4727  219.1297 H   0  0  0  0  0  0  0  0  0  0  0  0
  141.1551   72.1206  220.5944 H   0  0  0  0  0  0  0  0  0  0  0  0
  143.1275   70.6962  221.0103 H   0  0  0  0  0  0  0  0  0  0  0  0
  145.4023   71.6613  221.0321 H   0  0  0  0  0  0  0  0  0  0  0  0
  146.2810   74.6790  219.7980 H   0  0  0  0  0  0  0  0  0  0  0  0
  143.7106   75.5192  220.2129 H   0  0  0  0  0  0  0  0  0  0  0  0
  1  2  2  0
  2  3  1  0
  3  4  2  0
  4  5  1  0
  5  6  1  0
  5  7  2  0
  7  8  1  0
  8  9  2  0
  9 10  1  0
 10 11  2  0
 11 12  1  0
 12 13  2  0
 13 14  1  0
 14 15  2  0
 15 16  1  0
 16 17  2  0
 17 18  1  0
 18 19  1  0
 18 20  2  0
 11 21  1  0
 21 22  1  0
 22 23  1  0
 23 24  2  0
 24 25  1  0
 25 26  2  0
 26 27  1  0
 27 28  1  0
 27 29  2  0
 21  2  1  0
 29 23  1  0
  9  3  1  0
 20 14  1  0
  4 30  1  0
  7 31  1  0
  8 32  1  0
 12 33  1  0
 13 34  1  0
 15 35  1  0
 16 36  1  0
 17 37  1  0
 19 38  1  0
 20 39  1  0
 22 40  1  0
 22 41  1  0
 24 42  1  0
 25 43  1  0
 26 44  1  0
 28 45  1  0
 29 46  1  0
M  END
>  <smiles>  (38) 
O=c1c2cc(Cl)ccc2nc(/C=C/c2cccc(O)c2)n1Cc1cccc(O)c1

>  <score_type>  (38) 
oracle

>  <origin>  (38) 
autodockgpu

>  <m_score__min__energy>  (38) 
-8.8100000000000005

>  <m_primary>  (38) 
energy

>  <rmsd>  (38) 
7.392428837850796

>  <m_score__min__rmsd>  (38) 
7.392428837850796

>  <meeko>  (38) 
{"free_energy": -6.34, "intermolecular_energy": -8.43, "internal_energy": -2.81, "cluster_size": 2, "cluster_id": 7, "rank_in_cluster": 1}

>  <energy>  (38) 
-5.93

>  <cluster_rmsd>  (38) 
0.54

>  <cluster>  (38) 
10

$$$$

     RDKit          3D

 46 49  0  0  0  0  0  0  0  0999 V2000
  141.6540   75.8270  221.2190 O   0  0  0  0  0  0  0  0  0  0  0  0
  141.7180   76.5470  220.1880 C   0  0  0  0  0  0  0  0  0  0  0  0
  141.8090   77.9220  220.4400 C   0  0  0  0  0  0  0  0  0  0  0  0
  141.8220   78.4070  221.7450 C   0  0  0  0  0  0  0  0  0  0  0  0
  141.9110   79.7650  221.9450 C   0  0  0  0  0  0  0  0  0  0  0  0
  141.9320   80.4280  223.5660 Cl  0  0  0  0  0  0  0  0  0  0  0  0
  141.9890   80.6630  220.8770 C   0  0  0  0  0  0  0  0  0  0  0  0
  141.9750   80.1730  219.5770 C   0  0  0  0  0  0  0  0  0  0  0  0
  141.8860   78.8090  219.3890 C   0  0  0  0  0  0  0  0  0  0  0  0
  141.8680   78.2870  218.1520 N   0  0  0  0  0  0  0  0  0  0  0  0
  141.7810   76.9630  217.9400 C   0  0  0  0  0  0  0  0  0  0  0  0
  141.7990   76.5230  216.5440 C   0  0  0  0  0  0  0  0  0  0  0  0
  142.5730   77.1180  215.6560 C   0  0  0  0  0  0  0  0  0  0  0  0
  143.8870   76.6550  215.2700 C   0  0  0  0  0  0  0  0  0  0  0  0
  144.5710   77.0780  214.1590 C   0  0  0  0  0  0  0  0  0  0  0  0
  145.8350   76.6030  213.8310 C   0  0  0  0  0  0  0  0  0  0  0  0
  146.4620   75.6670  214.6260 C   0  0  0  0  0  0  0  0  0  0  0  0
  145.7930   75.2270  215.7500 C   0  0  0  0  0  0  0  0  0  0  0  0
  146.3760   74.2850  216.5900 O   0  0  0  0  0  0  0  0  0  0  0  0
  144.5390   75.7080  216.0630 C   0  0  0  0  0  0  0  0  0  0  0  0
  141.7030   76.0560  218.9340 N   0  0  0  0  0  0  0  0  0  0  0  0
  141.5790   74.6450  218.7450 C   0  0  0  0  0  0  0  0  0  0  0  0
  142.6980   73.8420  219.3000 C   0  0  0  0  0  0  0  0  0  0  0  0
  142.4610   72.9500  220.3460 C   0  0  0  0  0  0  0  0  0  0  0  0
  143.4800   72.1790  220.8930 C   0  0  0  0  0  0  0  0  0  0  0  0
  144.7600   72.2670  220.4210 C   0  0  0  0  0  0  0  0  0  0  0  0
  145.0200   73.1300  219.3970 C   0  0  0  0  0  0  0  0  0  0  0  0
  146.3120   73.2270  218.9110 O   0  0  0  0  0  0  0  0  0  0  0  0
  143.9940   73.9050  218.8500 C   0  0  0  0  0  0  0  0  0  0  0  0
  141.7622   77.7173  222.5998 H   0  0  0  0  0  0  0  0  0  0  0  0
  142.0606   81.7447  221.0634 H   0  0  0  0  0  0  0  0  0  0  0  0
  142.0335   80.8568  218.7173 H   0  0  0  0  0  0  0  0  0  0  0  0
  141.1587   75.6851  216.2309 H   0  0  0  0  0  0  0  0  0  0  0  0
  142.1913   78.0309  215.1755 H   0  0  0  0  0  0  0  0  0  0  0  0
  144.1000   77.8233  213.5011 H   0  0  0  0  0  0  0  0  0  0  0  0
  146.3403   76.9773  212.9284 H   0  0  0  0  0  0  0  0  0  0  0  0
  147.4616   75.2840  214.3729 H   0  0  0  0  0  0  0  0  0  0  0  0
  146.1420   74.1220  217.5410 H   0  0  0  0  0  0  0  0  0  0  0  0
  144.0358   75.3336  216.9667 H   0  0  0  0  0  0  0  0  0  0  0  0
  140.6480   74.3153  219.2293 H   0  0  0  0  0  0  0  0  0  0  0  0
  141.5859   74.4762  217.6580 H   0  0  0  0  0  0  0  0  0  0  0  0
  141.4416   72.8543  220.7482 H   0  0  0  0  0  0  0  0  0  0  0  0
  143.2531   71.4877  221.7180 H   0  0  0  0  0  0  0  0  0  0  0  0
  145.5631   71.6550  220.8576 H   0  0  0  0  0  0  0  0  0  0  0  0
  146.7090   74.1590  218.7440 H   0  0  0  0  0  0  0  0  0  0  0  0
  144.2340   74.5931  218.0260 H   0  0  0  0  0  0  0  0  0  0  0  0
  1  2  2  0
  2  3  1  0
  3  4  2  0
  4  5  1  0
  5  6  1  0
  5  7  2  0
  7  8  1  0
  8  9  2  0
  9 10  1  0
 10 11  2  0
 11 12  1  0
 12 13  2  0
 13 14  1  0
 14 15  2  0
 15 16  1  0
 16 17  2  0
 17 18  1  0
 18 19  1  0
 18 20  2  0
 11 21  1  0
 21 22  1  0
 22 23  1  0
 23 24  2  0
 24 25  1  0
 25 26  2  0
 26 27  1  0
 27 28  1  0
 27 29  2  0
 21  2  1  0
 29 23  1  0
  9  3  1  0
 20 14  1  0
  4 30  1  0
  7 31  1  0
  8 32  1  0
 12 33  1  0
 13 34  1  0
 15 35  1  0
 16 36  1  0
 17 37  1  0
 19 38  1  0
 20 39  1  0
 22 40  1  0
 22 41  1  0
 24 42  1  0
 25 43  1  0
 26 44  1  0
 28 45  1  0
 29 46  1  0
M  END
>  <smiles>  (39) 
O=c1c2cc(Cl)ccc2nc(/C=C/c2cccc(O)c2)n1Cc1cccc(O)c1

>  <score_type>  (39) 
oracle

>  <origin>  (39) 
autodockgpu

>  <m_score__min__energy>  (39) 
-8.8100000000000005

>  <m_primary>  (39) 
energy

>  <rmsd>  (39) 
7.519061568875261

>  <m_score__min__rmsd>  (39) 
7.519061568875261

>  <meeko>  (39) 
{"free_energy": -6.25, "intermolecular_energy": -8.34, "internal_energy": -2.4, "cluster_size": 2, "cluster_id": 7, "rank_in_cluster": 2}

>  <energy>  (39) 
-5.81

>  <cluster_rmsd>  (39) 
0.0

>  <cluster>  (39) 
11

$$$$

     RDKit          3D

 46 49  0  0  0  0  0  0  0  0999 V2000
  142.9320   74.6370  220.7490 O   0  0  0  0  0  0  0  0  0  0  0  0
  141.8320   74.2960  221.2590 C   0  0  0  0  0  0  0  0  0  0  0  0
  140.9680   75.3590  221.5490 C   0  0  0  0  0  0  0  0  0  0  0  0
  141.3390   76.6740  221.2790 C   0  0  0  0  0  0  0  0  0  0  0  0
  140.4590   77.6850  221.5820 C   0  0  0  0  0  0  0  0  0  0  0  0
  140.8760   79.3570  221.2620 Cl  0  0  0  0  0  0  0  0  0  0  0  0
  139.2080   77.4280  222.1490 C   0  0  0  0  0  0  0  0  0  0  0  0
  138.8430   76.1150  222.4170 C   0  0  0  0  0  0  0  0  0  0  0  0
  139.7340   75.1080  222.1080 C   0  0  0  0  0  0  0  0  0  0  0  0
  139.4270   73.8230  222.3480 N   0  0  0  0  0  0  0  0  0  0  0  0
  140.2770   72.8230  222.0590 C   0  0  0  0  0  0  0  0  0  0  0  0
  139.8090   71.4650  222.3450 C   0  0  0  0  0  0  0  0  0  0  0  0
  139.1260   71.2020  223.4430 C   0  0  0  0  0  0  0  0  0  0  0  0
  139.6660   70.5350  224.6060 C   0  0  0  0  0  0  0  0  0  0  0  0
  140.5860   71.0810  225.4660 C   0  0  0  0  0  0  0  0  0  0  0  0
  141.0750   70.3990  226.5720 C   0  0  0  0  0  0  0  0  0  0  0  0
  140.6450   69.1190  226.8550 C   0  0  0  0  0  0  0  0  0  0  0  0
  139.7200   68.5490  226.0050 C   0  0  0  0  0  0  0  0  0  0  0  0
  139.2500   67.2620  226.2400 O   0  0  0  0  0  0  0  0  0  0  0  0
  139.2440   69.2400  224.9100 C   0  0  0  0  0  0  0  0  0  0  0  0
  141.4940   73.0180  221.5120 N   0  0  0  0  0  0  0  0  0  0  0  0
  142.4330   71.9810  221.2200 C   0  0  0  0  0  0  0  0  0  0  0  0
  143.1070   72.1070  219.9020 C   0  0  0  0  0  0  0  0  0  0  0  0
  142.4110   71.7970  218.7340 C   0  0  0  0  0  0  0  0  0  0  0  0
  143.0030   71.9040  217.4810 C   0  0  0  0  0  0  0  0  0  0  0  0
  144.2990   72.3200  217.3480 C   0  0  0  0  0  0  0  0  0  0  0  0
  145.0030   72.6300  218.4750 C   0  0  0  0  0  0  0  0  0  0  0  0
  146.3150   73.0520  218.3520 O   0  0  0  0  0  0  0  0  0  0  0  0
  144.4050   72.5210  219.7320 C   0  0  0  0  0  0  0  0  0  0  0  0
  142.3183   76.8991  220.8315 H   0  0  0  0  0  0  0  0  0  0  0  0
  138.5208   78.2553  222.3802 H   0  0  0  0  0  0  0  0  0  0  0  0
  137.8657   75.8832  222.8655 H   0  0  0  0  0  0  0  0  0  0  0  0
  140.0297   70.6539  221.6355 H   0  0  0  0  0  0  0  0  0  0  0  0
  138.0712   71.5123  223.4755 H   0  0  0  0  0  0  0  0  0  0  0  0
  140.9506   72.1003  225.2710 H   0  0  0  0  0  0  0  0  0  0  0  0
  141.8122   70.8838  227.2289 H   0  0  0  0  0  0  0  0  0  0  0  0
  141.0270   68.5713  227.7291 H   0  0  0  0  0  0  0  0  0  0  0  0
  139.5500   66.6510  226.9620 H   0  0  0  0  0  0  0  0  0  0  0  0
  138.5068   68.7537  224.2542 H   0  0  0  0  0  0  0  0  0  0  0  0
  143.2062   71.9886  222.0024 H   0  0  0  0  0  0  0  0  0  0  0  0
  141.8596   71.0428  221.1874 H   0  0  0  0  0  0  0  0  0  0  0  0
  141.3667   71.4591  218.8062 H   0  0  0  0  0  0  0  0  0  0  0  0
  142.4205   71.6503  216.5830 H   0  0  0  0  0  0  0  0  0  0  0  0
  144.7636   72.4029  216.3544 H   0  0  0  0  0  0  0  0  0  0  0  0
  146.5150   74.0590  218.3730 H   0  0  0  0  0  0  0  0  0  0  0  0
  144.9979   72.7773  220.6224 H   0  0  0  0  0  0  0  0  0  0  0  0
  1  2  2  0
  2  3  1  0
  3  4  2  0
  4  5  1  0
  5  6  1  0
  5  7  2  0
  7  8  1  0
  8  9  2  0
  9 10  1  0
 10 11  2  0
 11 12  1  0
 12 13  2  0
 13 14  1  0
 14 15  2  0
 15 16  1  0
 16 17  2  0
 17 18  1  0
 18 19  1  0
 18 20  2  0
 11 21  1  0
 21 22  1  0
 22 23  1  0
 23 24  2  0
 24 25  1  0
 25 26  2  0
 26 27  1  0
 27 28  1  0
 27 29  2  0
 21  2  1  0
 29 23  1  0
  9  3  1  0
 20 14  1  0
  4 30  1  0
  7 31  1  0
  8 32  1  0
 12 33  1  0
 13 34  1  0
 15 35  1  0
 16 36  1  0
 17 37  1  0
 19 38  1  0
 20 39  1  0
 22 40  1  0
 22 41  1  0
 24 42  1  0
 25 43  1  0
 26 44  1  0
 28 45  1  0
 29 46  1  0
M  END
>  <smiles>  (40) 
O=c1c2cc(Cl)ccc2nc(/C=C/c2cccc(O)c2)n1Cc1cccc(O)c1

>  <score_type>  (40) 
oracle

>  <origin>  (40) 
autodockgpu

>  <m_score__min__energy>  (40) 
-8.8100000000000005

>  <m_primary>  (40) 
energy

>  <rmsd>  (40) 
8.186036330125255

>  <m_score__min__rmsd>  (40) 
8.186036330125255

>  <meeko>  (40) 
{"free_energy": -8.36, "intermolecular_energy": -10.45, "internal_energy": -0.79, "cluster_size": 9, "cluster_id": 1, "rank_in_cluster": 3}

>  <energy>  (40) 
-5.62

>  <cluster_rmsd>  (40) 
0.0

>  <cluster>  (40) 
12

$$$$

     RDKit          3D

 46 49  0  0  0  0  0  0  0  0999 V2000
  140.9550   74.8680  222.0270 O   0  0  0  0  0  0  0  0  0  0  0  0
  141.4500   75.5170  221.0680 C   0  0  0  0  0  0  0  0  0  0  0  0
  142.3530   74.7940  220.2780 C   0  0  0  0  0  0  0  0  0  0  0  0
  142.6500   73.4650  220.5700 C   0  0  0  0  0  0  0  0  0  0  0  0
  143.5430   72.7960  219.7670 C   0  0  0  0  0  0  0  0  0  0  0  0
  143.9520   71.1230  220.0900 Cl  0  0  0  0  0  0  0  0  0  0  0  0
  144.1560   73.4110  218.6730 C   0  0  0  0  0  0  0  0  0  0  0  0
  143.8560   74.7370  218.3870 C   0  0  0  0  0  0  0  0  0  0  0  0
  142.9580   75.3990  219.1980 C   0  0  0  0  0  0  0  0  0  0  0  0
  142.6360   76.6810  218.9630 N   0  0  0  0  0  0  0  0  0  0  0  0
  141.7660   77.3500  219.7380 C   0  0  0  0  0  0  0  0  0  0  0  0
  141.4820   78.7340  219.3560 C   0  0  0  0  0  0  0  0  0  0  0  0
  142.3100   79.4060  218.5780 C   0  0  0  0  0  0  0  0  0  0  0  0
  142.2510   80.8330  218.3530 C   0  0  0  0  0  0  0  0  0  0  0  0
  142.9160   81.4960  217.3530 C   0  0  0  0  0  0  0  0  0  0  0  0
  142.8260   82.8710  217.1780 C   0  0  0  0  0  0  0  0  0  0  0  0
  142.0490   83.6380  218.0200 C   0  0  0  0  0  0  0  0  0  0  0  0
  141.3700   82.9930  219.0330 C   0  0  0  0  0  0  0  0  0  0  0  0
  140.5700   83.7130  219.9130 O   0  0  0  0  0  0  0  0  0  0  0  0
  141.4690   81.6260  219.1950 C   0  0  0  0  0  0  0  0  0  0  0  0
  141.1490   76.8030  220.8040 N   0  0  0  0  0  0  0  0  0  0  0  0
  140.2430   77.4930  221.6670 C   0  0  0  0  0  0  0  0  0  0  0  0
  140.7890   78.7300  222.2810 C   0  0  0  0  0  0  0  0  0  0  0  0
  141.8200   78.6440  223.2160 C   0  0  0  0  0  0  0  0  0  0  0  0
  142.3610   79.7770  223.8120 C   0  0  0  0  0  0  0  0  0  0  0  0
  141.8990   81.0260  223.5000 C   0  0  0  0  0  0  0  0  0  0  0  0
  140.8910   81.1390  222.5870 C   0  0  0  0  0  0  0  0  0  0  0  0
  140.4160   82.3970  222.2630 O   0  0  0  0  0  0  0  0  0  0  0  0
  140.3490   79.9980  221.9910 C   0  0  0  0  0  0  0  0  0  0  0  0
  142.1791   72.9604  221.4266 H   0  0  0  0  0  0  0  0  0  0  0  0
  144.8670   72.8528  218.0461 H   0  0  0  0  0  0  0  0  0  0  0  0
  144.3243   75.2477  217.5326 H   0  0  0  0  0  0  0  0  0  0  0  0
  140.5661   79.2208  219.7222 H   0  0  0  0  0  0  0  0  0  0  0  0
  143.1011   78.8401  218.0643 H   0  0  0  0  0  0  0  0  0  0  0  0
  143.5455   80.9157  216.6623 H   0  0  0  0  0  0  0  0  0  0  0  0
  143.3804   83.3530  216.3592 H   0  0  0  0  0  0  0  0  0  0  0  0
  141.9730   84.7275  217.8885 H   0  0  0  0  0  0  0  0  0  0  0  0
  140.7290   83.8320  220.8860 H   0  0  0  0  0  0  0  0  0  0  0  0
  140.9138   81.1456  220.0141 H   0  0  0  0  0  0  0  0  0  0  0  0
  139.3528   77.7657  221.0812 H   0  0  0  0  0  0  0  0  0  0  0  0
  140.0220   76.8062  222.4974 H   0  0  0  0  0  0  0  0  0  0  0  0
  142.2151   77.6543  223.4888 H   0  0  0  0  0  0  0  0  0  0  0  0
  143.1731   79.6676  224.5458 H   0  0  0  0  0  0  0  0  0  0  0  0
  142.3304   81.9197  223.9745 H   0  0  0  0  0  0  0  0  0  0  0  0
  139.7630   82.4920  221.4760 H   0  0  0  0  0  0  0  0  0  0  0  0
  139.5366   80.1201  221.2595 H   0  0  0  0  0  0  0  0  0  0  0  0
  1  2  2  0
  2  3  1  0
  3  4  2  0
  4  5  1  0
  5  6  1  0
  5  7  2  0
  7  8  1  0
  8  9  2  0
  9 10  1  0
 10 11  2  0
 11 12  1  0
 12 13  2  0
 13 14  1  0
 14 15  2  0
 15 16  1  0
 16 17  2  0
 17 18  1  0
 18 19  1  0
 18 20  2  0
 11 21  1  0
 21 22  1  0
 22 23  1  0
 23 24  2  0
 24 25  1  0
 25 26  2  0
 26 27  1  0
 27 28  1  0
 27 29  2  0
 21  2  1  0
 29 23  1  0
  9  3  1  0
 20 14  1  0
  4 30  1  0
  7 31  1  0
  8 32  1  0
 12 33  1  0
 13 34  1  0
 15 35  1  0
 16 36  1  0
 17 37  1  0
 19 38  1  0
 20 39  1  0
 22 40  1  0
 22 41  1  0
 24 42  1  0
 25 43  1  0
 26 44  1  0
 28 45  1  0
 29 46  1  0
M  END
>  <smiles>  (41) 
O=c1c2cc(Cl)ccc2nc(/C=C/c2cccc(O)c2)n1Cc1cccc(O)c1

>  <score_type>  (41) 
oracle

>  <origin>  (41) 
autodockgpu

>  <m_score__min__energy>  (41) 
-8.8100000000000005

>  <m_primary>  (41) 
energy

>  <rmsd>  (41) 
3.748882110857561

>  <m_score__min__rmsd>  (41) 
3.748882110857561

>  <meeko>  (41) 
{"free_energy": -6.04, "intermolecular_energy": -8.12, "internal_energy": -2.47, "cluster_size": 1, "cluster_id": 9, "rank_in_cluster": 1}

>  <energy>  (41) 
-5.59

>  <cluster_rmsd>  (41) 
0.0

>  <cluster>  (41) 
13

$$$$

     RDKit          3D

 46 49  0  0  0  0  0  0  0  0999 V2000
  140.8210   74.0620  221.8630 O   0  0  0  0  0  0  0  0  0  0  0  0
  139.6370   74.4390  222.0650 C   0  0  0  0  0  0  0  0  0  0  0  0
  139.4900   75.8170  222.2710 C   0  0  0  0  0  0  0  0  0  0  0  0
  140.5950   76.6630  222.2470 C   0  0  0  0  0  0  0  0  0  0  0  0
  140.4030   78.0080  222.4560 C   0  0  0  0  0  0  0  0  0  0  0  0
  141.7590   79.1170  222.4360 Cl  0  0  0  0  0  0  0  0  0  0  0  0
  139.1340   78.5430  222.6890 C   0  0  0  0  0  0  0  0  0  0  0  0
  138.0340   77.6950  222.7130 C   0  0  0  0  0  0  0  0  0  0  0  0
  138.2390   76.3460  222.5010 C   0  0  0  0  0  0  0  0  0  0  0  0
  137.2090   75.4860  222.5140 N   0  0  0  0  0  0  0  0  0  0  0  0
  137.3800   74.1680  222.3130 C   0  0  0  0  0  0  0  0  0  0  0  0
  136.1700   73.3430  222.3260 C   0  0  0  0  0  0  0  0  0  0  0  0
  135.2580   73.4940  223.2670 C   0  0  0  0  0  0  0  0  0  0  0  0
  134.9230   72.4910  224.2540 C   0  0  0  0  0  0  0  0  0  0  0  0
  134.2390   72.7360  225.4180 C   0  0  0  0  0  0  0  0  0  0  0  0
  133.9390   71.7370  226.3350 C   0  0  0  0  0  0  0  0  0  0  0  0
  134.3270   70.4330  226.1050 C   0  0  0  0  0  0  0  0  0  0  0  0
  135.0160   70.1630  224.9410 C   0  0  0  0  0  0  0  0  0  0  0  0
  135.4310   68.8670  224.6550 O   0  0  0  0  0  0  0  0  0  0  0  0
  135.3060   71.1660  224.0390 C   0  0  0  0  0  0  0  0  0  0  0  0
  138.5820   73.6030  222.0850 N   0  0  0  0  0  0  0  0  0  0  0  0
  138.8040   72.2030  221.8970 C   0  0  0  0  0  0  0  0  0  0  0  0
  139.1260   71.4530  223.1380 C   0  0  0  0  0  0  0  0  0  0  0  0
  140.1690   71.8820  223.9580 C   0  0  0  0  0  0  0  0  0  0  0  0
  140.5000   71.2100  225.1290 C   0  0  0  0  0  0  0  0  0  0  0  0
  139.8100   70.0970  225.5210 C   0  0  0  0  0  0  0  0  0  0  0  0
  138.7840   69.6560  224.7380 C   0  0  0  0  0  0  0  0  0  0  0  0
  138.0780   68.5300  225.1250 O   0  0  0  0  0  0  0  0  0  0  0  0
  138.4540   70.3330  223.5610 C   0  0  0  0  0  0  0  0  0  0  0  0
  141.6032   76.2627  222.0642 H   0  0  0  0  0  0  0  0  0  0  0  0
  139.0071   79.6235  222.8516 H   0  0  0  0  0  0  0  0  0  0  0  0
  137.0235   78.0888  222.8966 H   0  0  0  0  0  0  0  0  0  0  0  0
  136.0197   72.5875  221.5407 H   0  0  0  0  0  0  0  0  0  0  0  0
  134.7142   74.4495  223.3037 H   0  0  0  0  0  0  0  0  0  0  0  0
  133.9153   73.7650  225.6335 H   0  0  0  0  0  0  0  0  0  0  0  0
  133.3871   71.9876  227.2529 H   0  0  0  0  0  0  0  0  0  0  0  0
  134.0946   69.6353  226.8259 H   0  0  0  0  0  0  0  0  0  0  0  0
  136.2070   68.6110  224.0920 H   0  0  0  0  0  0  0  0  0  0  0  0
  135.8567   70.9134  223.1209 H   0  0  0  0  0  0  0  0  0  0  0  0
  137.8933   71.7674  221.4601 H   0  0  0  0  0  0  0  0  0  0  0  0
  139.6838   72.1133  221.2429 H   0  0  0  0  0  0  0  0  0  0  0  0
  140.7443   72.7746  223.6711 H   0  0  0  0  0  0  0  0  0  0  0  0
  141.3297   71.5795  225.7495 H   0  0  0  0  0  0  0  0  0  0  0  0
  140.0765   69.5683  226.4481 H   0  0  0  0  0  0  0  0  0  0  0  0
  137.1680   68.6510  225.5830 H   0  0  0  0  0  0  0  0  0  0  0  0
  137.6226   69.9534  222.9489 H   0  0  0  0  0  0  0  0  0  0  0  0
  1  2  2  0
  2  3  1  0
  3  4  2  0
  4  5  1  0
  5  6  1  0
  5  7  2  0
  7  8  1  0
  8  9  2  0
  9 10  1  0
 10 11  2  0
 11 12  1  0
 12 13  2  0
 13 14  1  0
 14 15  2  0
 15 16  1  0
 16 17  2  0
 17 18  1  0
 18 19  1  0
 18 20  2  0
 11 21  1  0
 21 22  1  0
 22 23  1  0
 23 24  2  0
 24 25  1  0
 25 26  2  0
 26 27  1  0
 27 28  1  0
 27 29  2  0
 21  2  1  0
 29 23  1  0
  9  3  1  0
 20 14  1  0
  4 30  1  0
  7 31  1  0
  8 32  1  0
 12 33  1  0
 13 34  1  0
 15 35  1  0
 16 36  1  0
 17 37  1  0
 19 38  1  0
 20 39  1  0
 22 40  1  0
 22 41  1  0
 24 42  1  0
 25 43  1  0
 26 44  1  0
 28 45  1  0
 29 46  1  0
M  END
>  <smiles>  (42) 
O=c1c2cc(Cl)ccc2nc(/C=C/c2cccc(O)c2)n1Cc1cccc(O)c1

>  <score_type>  (42) 
oracle

>  <origin>  (42) 
autodockgpu

>  <m_score__min__energy>  (42) 
-8.8100000000000005

>  <m_primary>  (42) 
energy

>  <rmsd>  (42) 
8.863007572307263

>  <m_score__min__rmsd>  (42) 
8.863007572307263

>  <meeko>  (42) 
{"free_energy": -6.13, "intermolecular_energy": -8.22, "internal_energy": -2.76, "cluster_size": 13, "cluster_id": 4, "rank_in_cluster": 4}

>  <energy>  (42) 
-5.43

>  <cluster_rmsd>  (42) 
0.0

>  <cluster>  (42) 
14

$$$$

     RDKit          3D

 46 49  0  0  0  0  0  0  0  0999 V2000
  136.9620   75.8990  221.6240 O   0  0  0  0  0  0  0  0  0  0  0  0
  138.0600   75.2860  221.7030 C   0  0  0  0  0  0  0  0  0  0  0  0
  137.9600   73.9620  222.1490 C   0  0  0  0  0  0  0  0  0  0  0  0
  136.7230   73.4100  222.4700 C   0  0  0  0  0  0  0  0  0  0  0  0
  136.6730   72.1070  222.9050 C   0  0  0  0  0  0  0  0  0  0  0  0
  135.1430   71.3640  223.3220 Cl  0  0  0  0  0  0  0  0  0  0  0  0
  137.8260   71.3280  223.0320 C   0  0  0  0  0  0  0  0  0  0  0  0
  139.0580   71.8840  222.7100 C   0  0  0  0  0  0  0  0  0  0  0  0
  139.0960   73.1930  222.2740 C   0  0  0  0  0  0  0  0  0  0  0  0
  140.2620   73.7750  221.9520 N   0  0  0  0  0  0  0  0  0  0  0  0
  140.3280   75.0480  221.5260 C   0  0  0  0  0  0  0  0  0  0  0  0
  141.6580   75.5530  221.1810 C   0  0  0  0  0  0  0  0  0  0  0  0
  142.2990   75.1020  220.1200 C   0  0  0  0  0  0  0  0  0  0  0  0
  143.2190   73.9860  220.1290 C   0  0  0  0  0  0  0  0  0  0  0  0
  142.9210   72.7300  220.5940 C   0  0  0  0  0  0  0  0  0  0  0  0
  143.8410   71.6890  220.5800 C   0  0  0  0  0  0  0  0  0  0  0  0
  145.1140   71.8830  220.0880 C   0  0  0  0  0  0  0  0  0  0  0  0
  145.4370   73.1380  219.6150 C   0  0  0  0  0  0  0  0  0  0  0  0
  146.7050   73.3930  219.1070 O   0  0  0  0  0  0  0  0  0  0  0  0
  144.5130   74.1620  219.6350 C   0  0  0  0  0  0  0  0  0  0  0  0
  139.2460   75.8410  221.3880 N   0  0  0  0  0  0  0  0  0  0  0  0
  139.2830   77.2060  220.9670 C   0  0  0  0  0  0  0  0  0  0  0  0
  139.9250   78.1360  221.9300 C   0  0  0  0  0  0  0  0  0  0  0  0
  139.1710   78.6990  222.9600 C   0  0  0  0  0  0  0  0  0  0  0  0
  139.7350   79.5720  223.8830 C   0  0  0  0  0  0  0  0  0  0  0  0
  141.0580   79.9110  223.8160 C   0  0  0  0  0  0  0  0  0  0  0  0
  141.8180   79.3740  222.8180 C   0  0  0  0  0  0  0  0  0  0  0  0
  143.1580   79.7110  222.7400 O   0  0  0  0  0  0  0  0  0  0  0  0
  141.2490   78.4980  221.8910 C   0  0  0  0  0  0  0  0  0  0  0  0
  135.8027   74.0054  222.3773 H   0  0  0  0  0  0  0  0  0  0  0  0
  137.7592   70.2875  223.3825 H   0  0  0  0  0  0  0  0  0  0  0  0
  139.9821   71.2943  222.8005 H   0  0  0  0  0  0  0  0  0  0  0  0
  142.1291   76.3187  221.8149 H   0  0  0  0  0  0  0  0  0  0  0  0
  142.1213   75.6104  219.1609 H   0  0  0  0  0  0  0  0  0  0  0  0
  141.9140   72.5398  220.9936 H   0  0  0  0  0  0  0  0  0  0  0  0
  143.5508   70.7004  220.9653 H   0  0  0  0  0  0  0  0  0  0  0  0
  145.8482   71.0640  220.0730 H   0  0  0  0  0  0  0  0  0  0  0  0
  147.1140   74.2870  218.9720 H   0  0  0  0  0  0  0  0  0  0  0  0
  144.8052   75.1497  219.2490 H   0  0  0  0  0  0  0  0  0  0  0  0
  139.8388   77.2571  220.0191 H   0  0  0  0  0  0  0  0  0  0  0  0
  138.2361   77.5303  220.8734 H   0  0  0  0  0  0  0  0  0  0  0  0
  138.1038   78.4458  223.0438 H   0  0  0  0  0  0  0  0  0  0  0  0
  139.1071   79.9969  224.6800 H   0  0  0  0  0  0  0  0  0  0  0  0
  141.4997   80.6010  224.5500 H   0  0  0  0  0  0  0  0  0  0  0  0
  143.7440   79.2480  222.0350 H   0  0  0  0  0  0  0  0  0  0  0  0
  141.8871   78.0813  221.0978 H   0  0  0  0  0  0  0  0  0  0  0  0
  1  2  2  0
  2  3  1  0
  3  4  2  0
  4  5  1  0
  5  6  1  0
  5  7  2  0
  7  8  1  0
  8  9  2  0
  9 10  1  0
 10 11  2  0
 11 12  1  0
 12 13  2  0
 13 14  1  0
 14 15  2  0
 15 16  1  0
 16 17  2  0
 17 18  1  0
 18 19  1  0
 18 20  2  0
 11 21  1  0
 21 22  1  0
 22 23  1  0
 23 24  2  0
 24 25  1  0
 25 26  2  0
 26 27  1  0
 27 28  1  0
 27 29  2  0
 21  2  1  0
 29 23  1  0
  9  3  1  0
 20 14  1  0
  4 30  1  0
  7 31  1  0
  8 32  1  0
 12 33  1  0
 13 34  1  0
 15 35  1  0
 16 36  1  0
 17 37  1  0
 19 38  1  0
 20 39  1  0
 22 40  1  0
 22 41  1  0
 24 42  1  0
 25 43  1  0
 26 44  1  0
 28 45  1  0
 29 46  1  0
M  END
>  <smiles>  (43) 
O=c1c2cc(Cl)ccc2nc(/C=C/c2cccc(O)c2)n1Cc1cccc(O)c1

>  <score_type>  (43) 
oracle

>  <origin>  (43) 
autodockgpu

>  <m_score__min__energy>  (43) 
-8.8100000000000005

>  <m_primary>  (43) 
energy

>  <rmsd>  (43) 
4.536953510042322

>  <m_score__min__rmsd>  (43) 
4.536953510042322

>  <meeko>  (43) 
{"free_energy": -7.4, "intermolecular_energy": -9.49, "internal_energy": -0.98, "cluster_size": 1, "cluster_id": 3, "rank_in_cluster": 1}

>  <energy>  (43) 
-5.42

>  <cluster_rmsd>  (43) 
0.37

>  <cluster>  (43) 
14

$$$$

     RDKit          3D

 46 49  0  0  0  0  0  0  0  0999 V2000
  142.7520   75.2440  219.6610 O   0  0  0  0  0  0  0  0  0  0  0  0
  141.8790   74.8770  220.4900 C   0  0  0  0  0  0  0  0  0  0  0  0
  141.1770   75.9240  221.1010 C   0  0  0  0  0  0  0  0  0  0  0  0
  141.4580   77.2510  220.7840 C   0  0  0  0  0  0  0  0  0  0  0  0
  140.7430   78.2450  221.4100 C   0  0  0  0  0  0  0  0  0  0  0  0
  141.0570   79.9300  221.0480 Cl  0  0  0  0  0  0  0  0  0  0  0  0
  139.7490   77.9590  222.3480 C   0  0  0  0  0  0  0  0  0  0  0  0
  139.4720   76.6340  222.6600 C   0  0  0  0  0  0  0  0  0  0  0  0
  140.1950   75.6440  222.0260 C   0  0  0  0  0  0  0  0  0  0  0  0
  139.9660   74.3480  222.2940 N   0  0  0  0  0  0  0  0  0  0  0  0
  140.6550   73.3640  221.6920 C   0  0  0  0  0  0  0  0  0  0  0  0
  140.2880   71.9940  222.0540 C   0  0  0  0  0  0  0  0  0  0  0  0
  139.5290   71.7520  223.1060 C   0  0  0  0  0  0  0  0  0  0  0  0
  139.9260   70.9410  224.2360 C   0  0  0  0  0  0  0  0  0  0  0  0
  140.6920   71.3800  225.2850 C   0  0  0  0  0  0  0  0  0  0  0  0
  141.0460   70.5600  226.3490 C   0  0  0  0  0  0  0  0  0  0  0  0
  140.6320   69.2460  226.3920 C   0  0  0  0  0  0  0  0  0  0  0  0
  139.8590   68.7810  225.3470 C   0  0  0  0  0  0  0  0  0  0  0  0
  139.4110   67.4650  225.3360 O   0  0  0  0  0  0  0  0  0  0  0  0
  139.5150   69.6070  224.2970 C   0  0  0  0  0  0  0  0  0  0  0  0
  141.6240   73.5870  220.7820 N   0  0  0  0  0  0  0  0  0  0  0  0
  142.3970   72.5670  220.1460 C   0  0  0  0  0  0  0  0  0  0  0  0
  143.8520   72.8540  220.0590 C   0  0  0  0  0  0  0  0  0  0  0  0
  144.6040   72.9880  221.2260 C   0  0  0  0  0  0  0  0  0  0  0  0
  145.9680   73.2530  221.1880 C   0  0  0  0  0  0  0  0  0  0  0  0
  146.6260   73.3920  219.9980 C   0  0  0  0  0  0  0  0  0  0  0  0
  145.9150   73.2640  218.8410 C   0  0  0  0  0  0  0  0  0  0  0  0
  146.5700   73.4020  217.6300 O   0  0  0  0  0  0  0  0  0  0  0  0
  144.5440   72.9980  218.8820 C   0  0  0  0  0  0  0  0  0  0  0  0
  142.2365   77.4989  220.0474 H   0  0  0  0  0  0  0  0  0  0  0  0
  139.1918   78.7733  222.8342 H   0  0  0  0  0  0  0  0  0  0  0  0
  138.6944   76.3797  223.3953 H   0  0  0  0  0  0  0  0  0  0  0  0
  140.6496   71.1552  221.4411 H   0  0  0  0  0  0  0  0  0  0  0  0
  138.5238   72.1984  223.1249 H   0  0  0  0  0  0  0  0  0  0  0  0
  141.0402   72.4234  225.2841 H   0  0  0  0  0  0  0  0  0  0  0  0
  141.6630   70.9634  227.1655 H   0  0  0  0  0  0  0  0  0  0  0  0
  140.9082   68.5900  227.2307 H   0  0  0  0  0  0  0  0  0  0  0  0
  139.5860   66.7930  224.6270 H   0  0  0  0  0  0  0  0  0  0  0  0
  138.8973   69.2024  223.4816 H   0  0  0  0  0  0  0  0  0  0  0  0
  142.2652   71.6336  220.7129 H   0  0  0  0  0  0  0  0  0  0  0  0
  142.0312   72.5000  219.1108 H   0  0  0  0  0  0  0  0  0  0  0  0
  144.1053   72.8813  222.2006 H   0  0  0  0  0  0  0  0  0  0  0  0
  146.5266   73.3524  222.1304 H   0  0  0  0  0  0  0  0  0  0  0  0
  147.7054   73.6025  219.9739 H   0  0  0  0  0  0  0  0  0  0  0  0
  146.6110   74.3300  217.1930 H   0  0  0  0  0  0  0  0  0  0  0  0
  143.9969   72.9000  217.9328 H   0  0  0  0  0  0  0  0  0  0  0  0
  1  2  2  0
  2  3  1  0
  3  4  2  0
  4  5  1  0
  5  6  1  0
  5  7  2  0
  7  8  1  0
  8  9  2  0
  9 10  1  0
 10 11  2  0
 11 12  1  0
 12 13  2  0
 13 14  1  0
 14 15  2  0
 15 16  1  0
 16 17  2  0
 17 18  1  0
 18 19  1  0
 18 20  2  0
 11 21  1  0
 21 22  1  0
 22 23  1  0
 23 24  2  0
 24 25  1  0
 25 26  2  0
 26 27  1  0
 27 28  1  0
 27 29  2  0
 21  2  1  0
 29 23  1  0
  9  3  1  0
 20 14  1  0
  4 30  1  0
  7 31  1  0
  8 32  1  0
 12 33  1  0
 13 34  1  0
 15 35  1  0
 16 36  1  0
 17 37  1  0
 19 38  1  0
 20 39  1  0
 22 40  1  0
 22 41  1  0
 24 42  1  0
 25 43  1  0
 26 44  1  0
 28 45  1  0
 29 46  1  0
M  END
>  <smiles>  (44) 
O=c1c2cc(Cl)ccc2nc(/C=C/c2cccc(O)c2)n1Cc1cccc(O)c1

>  <score_type>  (44) 
oracle

>  <origin>  (44) 
autodockgpu

>  <m_score__min__energy>  (44) 
-8.8100000000000005

>  <m_primary>  (44) 
energy

>  <rmsd>  (44) 
8.023341806813637

>  <m_score__min__rmsd>  (44) 
8.023341806813637

>  <meeko>  (44) 
{"free_energy": -8.81, "intermolecular_energy": -10.89, "internal_energy": -0.82, "cluster_size": 9, "cluster_id": 1, "rank_in_cluster": 1}

>  <energy>  (44) 
-5.41

>  <cluster_rmsd>  (44) 
0.38

>  <cluster>  (44) 
14

$$$$

     RDKit          3D

 46 49  0  0  0  0  0  0  0  0999 V2000
  142.4590   75.9320  219.4610 O   0  0  0  0  0  0  0  0  0  0  0  0
  141.5810   75.4640  220.2330 C   0  0  0  0  0  0  0  0  0  0  0  0
  140.9570   76.4130  221.0530 C   0  0  0  0  0  0  0  0  0  0  0  0
  141.3140   77.7570  220.9860 C   0  0  0  0  0  0  0  0  0  0  0  0
  140.6750   78.6530  221.8110 C   0  0  0  0  0  0  0  0  0  0  0  0
  141.0860   80.3560  221.7670 Cl  0  0  0  0  0  0  0  0  0  0  0  0
  139.6840   78.2500  222.7080 C   0  0  0  0  0  0  0  0  0  0  0  0
  139.3320   76.9070  222.7720 C   0  0  0  0  0  0  0  0  0  0  0  0
  139.9790   76.0180  221.9390 C   0  0  0  0  0  0  0  0  0  0  0  0
  139.6740   74.7100  221.9630 N   0  0  0  0  0  0  0  0  0  0  0  0
  140.2890   73.8220  221.1640 C   0  0  0  0  0  0  0  0  0  0  0  0
  139.8450   72.4310  221.2700 C   0  0  0  0  0  0  0  0  0  0  0  0
  140.5520   71.5440  221.9430 C   0  0  0  0  0  0  0  0  0  0  0  0
  140.2880   71.1470  223.3080 C   0  0  0  0  0  0  0  0  0  0  0  0
  140.6560   71.8650  224.4180 C   0  0  0  0  0  0  0  0  0  0  0  0
  140.3770   71.4400  225.7110 C   0  0  0  0  0  0  0  0  0  0  0  0
  139.7070   70.2550  225.9330 C   0  0  0  0  0  0  0  0  0  0  0  0
  139.3270   69.5160  224.8310 C   0  0  0  0  0  0  0  0  0  0  0  0
  138.6480   68.3130  224.9930 O   0  0  0  0  0  0  0  0  0  0  0  0
  139.6100   69.9510  223.5530 C   0  0  0  0  0  0  0  0  0  0  0  0
  141.2520   74.1590  220.2820 N   0  0  0  0  0  0  0  0  0  0  0  0
  141.9470   73.2370  219.4400 C   0  0  0  0  0  0  0  0  0  0  0  0
  143.4130   73.1660  219.6730 C   0  0  0  0  0  0  0  0  0  0  0  0
  143.9010   72.9340  220.9590 C   0  0  0  0  0  0  0  0  0  0  0  0
  145.2640   72.8580  221.2180 C   0  0  0  0  0  0  0  0  0  0  0  0
  146.1820   73.0080  220.2160 C   0  0  0  0  0  0  0  0  0  0  0  0
  145.7310   73.2350  218.9490 C   0  0  0  0  0  0  0  0  0  0  0  0
  146.6510   73.3880  217.9260 O   0  0  0  0  0  0  0  0  0  0  0  0
  144.3610   73.3120  218.6910 C   0  0  0  0  0  0  0  0  0  0  0  0
  142.0924   78.0959  220.2865 H   0  0  0  0  0  0  0  0  0  0  0  0
  139.1876   78.9868  223.3565 H   0  0  0  0  0  0  0  0  0  0  0  0
  138.5558   76.5611  223.4705 H   0  0  0  0  0  0  0  0  0  0  0  0
  138.9091   72.1214  220.7818 H   0  0  0  0  0  0  0  0  0  0  0  0
  141.4029   71.0728  221.4293 H   0  0  0  0  0  0  0  0  0  0  0  0
  141.1932   72.8147  224.2785 H   0  0  0  0  0  0  0  0  0  0  0  0
  140.6937   72.0549  226.5664 H   0  0  0  0  0  0  0  0  0  0  0  0
  139.4832   69.9107  226.9535 H   0  0  0  0  0  0  0  0  0  0  0  0
  137.6960   68.1430  224.7710 H   0  0  0  0  0  0  0  0  0  0  0  0
  139.2912   69.3356  222.6988 H   0  0  0  0  0  0  0  0  0  0  0  0
  141.5247   72.2351  219.6071 H   0  0  0  0  0  0  0  0  0  0  0  0
  141.8136   73.5968  218.4091 H   0  0  0  0  0  0  0  0  0  0  0  0
  143.1894   72.8081  221.7883 H   0  0  0  0  0  0  0  0  0  0  0  0
  145.6101   72.6742  222.2458 H   0  0  0  0  0  0  0  0  0  0  0  0
  147.2599   72.9470  220.4269 H   0  0  0  0  0  0  0  0  0  0  0  0
  146.7550   74.3100  217.4880 H   0  0  0  0  0  0  0  0  0  0  0  0
  144.0278   73.4971  217.6591 H   0  0  0  0  0  0  0  0  0  0  0  0
  1  2  2  0
  2  3  1  0
  3  4  2  0
  4  5  1  0
  5  6  1  0
  5  7  2  0
  7  8  1  0
  8  9  2  0
  9 10  1  0
 10 11  2  0
 11 12  1  0
 12 13  2  0
 13 14  1  0
 14 15  2  0
 15 16  1  0
 16 17  2  0
 17 18  1  0
 18 19  1  0
 18 20  2  0
 11 21  1  0
 21 22  1  0
 22 23  1  0
 23 24  2  0
 24 25  1  0
 25 26  2  0
 26 27  1  0
 27 28  1  0
 27 29  2  0
 21  2  1  0
 29 23  1  0
  9  3  1  0
 20 14  1  0
  4 30  1  0
  7 31  1  0
  8 32  1  0
 12 33  1  0
 13 34  1  0
 15 35  1  0
 16 36  1  0
 17 37  1  0
 19 38  1  0
 20 39  1  0
 22 40  1  0
 22 41  1  0
 24 42  1  0
 25 43  1  0
 26 44  1  0
 28 45  1  0
 29 46  1  0
M  END
>  <smiles>  (45) 
O=c1c2cc(Cl)ccc2nc(/C=C/c2cccc(O)c2)n1Cc1cccc(O)c1

>  <score_type>  (45) 
oracle

>  <origin>  (45) 
autodockgpu

>  <m_score__min__energy>  (45) 
-8.8100000000000005

>  <m_primary>  (45) 
energy

>  <rmsd>  (45) 
7.8889291272674535

>  <m_score__min__rmsd>  (45) 
7.8889291272674535

>  <meeko>  (45) 
{"free_energy": -7.49, "intermolecular_energy": -9.57, "internal_energy": -1.18, "cluster_size": 9, "cluster_id": 1, "rank_in_cluster": 8}

>  <energy>  (45) 
-5.4

>  <cluster_rmsd>  (45) 
0.45

>  <cluster>  (45) 
14

$$$$

     RDKit          3D

 46 49  0  0  0  0  0  0  0  0999 V2000
  136.3590   75.3800  221.8130 O   0  0  0  0  0  0  0  0  0  0  0  0
  137.5590   75.0150  221.9350 C   0  0  0  0  0  0  0  0  0  0  0  0
  138.4620   76.0540  222.1950 C   0  0  0  0  0  0  0  0  0  0  0  0
  138.0220   77.3710  222.3000 C   0  0  0  0  0  0  0  0  0  0  0  0
  138.9450   78.3570  222.5550 C   0  0  0  0  0  0  0  0  0  0  0  0
  138.4450   80.0310  222.6970 Cl  0  0  0  0  0  0  0  0  0  0  0  0
  140.3030   78.0730  222.7110 C   0  0  0  0  0  0  0  0  0  0  0  0
  140.7370   76.7570  222.6050 C   0  0  0  0  0  0  0  0  0  0  0  0
  139.8020   75.7750  222.3490 C   0  0  0  0  0  0  0  0  0  0  0  0
  140.1710   74.4890  222.2380 N   0  0  0  0  0  0  0  0  0  0  0  0
  139.2820   73.5130  221.9880 C   0  0  0  0  0  0  0  0  0  0  0  0
  139.8120   72.1500  221.9170 C   0  0  0  0  0  0  0  0  0  0  0  0
  140.6840   71.7150  222.8070 C   0  0  0  0  0  0  0  0  0  0  0  0
  140.3340   71.1440  224.0890 C   0  0  0  0  0  0  0  0  0  0  0  0
  140.8520   71.5480  225.2930 C   0  0  0  0  0  0  0  0  0  0  0  0
  140.4830   70.9660  226.5000 C   0  0  0  0  0  0  0  0  0  0  0  0
  139.5640   69.9390  226.5330 C   0  0  0  0  0  0  0  0  0  0  0  0
  139.0290   69.5150  225.3330 C   0  0  0  0  0  0  0  0  0  0  0  0
  138.0980   68.4840  225.3040 O   0  0  0  0  0  0  0  0  0  0  0  0
  139.4050   70.1030  224.1430 C   0  0  0  0  0  0  0  0  0  0  0  0
  137.9620   73.7350  221.8290 N   0  0  0  0  0  0  0  0  0  0  0  0
  136.9940   72.7260  221.5330 C   0  0  0  0  0  0  0  0  0  0  0  0
  136.3400   72.1240  222.7230 C   0  0  0  0  0  0  0  0  0  0  0  0
  135.7060   72.9440  223.6560 C   0  0  0  0  0  0  0  0  0  0  0  0
  135.0800   72.4200  224.7820 C   0  0  0  0  0  0  0  0  0  0  0  0
  135.0630   71.0740  225.0150 C   0  0  0  0  0  0  0  0  0  0  0  0
  135.6740   70.2480  224.1180 C   0  0  0  0  0  0  0  0  0  0  0  0
  135.6630   68.8830  224.3440 O   0  0  0  0  0  0  0  0  0  0  0  0
  136.3030   70.7770  222.9880 C   0  0  0  0  0  0  0  0  0  0  0  0
  136.9566   77.6174  222.1812 H   0  0  0  0  0  0  0  0  0  0  0  0
  141.0208   78.8811  222.9154 H   0  0  0  0  0  0  0  0  0  0  0  0
  141.8011   76.5041  222.7224 H   0  0  0  0  0  0  0  0  0  0  0  0
  139.4789   71.4796  221.1110 H   0  0  0  0  0  0  0  0  0  0  0  0
  141.7522   71.7921  222.5562 H   0  0  0  0  0  0  0  0  0  0  0  0
  141.5886   72.3649  225.3038 H   0  0  0  0  0  0  0  0  0  0  0  0
  140.9286   71.3284  227.4381 H   0  0  0  0  0  0  0  0  0  0  0  0
  139.2668   69.4728  227.4840 H   0  0  0  0  0  0  0  0  0  0  0  0
  137.1220   68.5710  225.4590 H   0  0  0  0  0  0  0  0  0  0  0  0
  138.9582   69.7398  223.2058 H   0  0  0  0  0  0  0  0  0  0  0  0
  136.2122   73.1757  220.9033 H   0  0  0  0  0  0  0  0  0  0  0  0
  137.5380   71.9114  221.0326 H   0  0  0  0  0  0  0  0  0  0  0  0
  135.7009   74.0325  223.4974 H   0  0  0  0  0  0  0  0  0  0  0  0
  134.5912   73.0996  225.4957 H   0  0  0  0  0  0  0  0  0  0  0  0
  134.5669   70.6649  225.9075 H   0  0  0  0  0  0  0  0  0  0  0  0
  136.4330   68.3140  223.9740 H   0  0  0  0  0  0  0  0  0  0  0  0
  136.7881   70.0867  222.2822 H   0  0  0  0  0  0  0  0  0  0  0  0
  1  2  2  0
  2  3  1  0
  3  4  2  0
  4  5  1  0
  5  6  1  0
  5  7  2  0
  7  8  1  0
  8  9  2  0
  9 10  1  0
 10 11  2  0
 11 12  1  0
 12 13  2  0
 13 14  1  0
 14 15  2  0
 15 16  1  0
 16 17  2  0
 17 18  1  0
 18 19  1  0
 18 20  2  0
 11 21  1  0
 21 22  1  0
 22 23  1  0
 23 24  2  0
 24 25  1  0
 25 26  2  0
 26 27  1  0
 27 28  1  0
 27 29  2  0
 21  2  1  0
 29 23  1  0
  9  3  1  0
 20 14  1  0
  4 30  1  0
  7 31  1  0
  8 32  1  0
 12 33  1  0
 13 34  1  0
 15 35  1  0
 16 36  1  0
 17 37  1  0
 19 38  1  0
 20 39  1  0
 22 40  1  0
 22 41  1  0
 24 42  1  0
 25 43  1  0
 26 44  1  0
 28 45  1  0
 29 46  1  0
M  END
>  <smiles>  (46) 
O=c1c2cc(Cl)ccc2nc(/C=C/c2cccc(O)c2)n1Cc1cccc(O)c1

>  <score_type>  (46) 
oracle

>  <origin>  (46) 
autodockgpu

>  <m_score__min__energy>  (46) 
-8.8100000000000005

>  <m_primary>  (46) 
energy

>  <rmsd>  (46) 
8.564829441226763

>  <m_score__min__rmsd>  (46) 
8.564829441226763

>  <meeko>  (46) 
{"free_energy": -6.02, "intermolecular_energy": -8.11, "internal_energy": -2.97, "cluster_size": 13, "cluster_id": 4, "rank_in_cluster": 7}

>  <energy>  (46) 
-5.39

>  <cluster_rmsd>  (46) 
0.45

>  <cluster>  (46) 
14

$$$$

     RDKit          3D

 46 49  0  0  0  0  0  0  0  0999 V2000
  143.0980   74.6400  220.6000 O   0  0  0  0  0  0  0  0  0  0  0  0
  142.0270   74.2810  221.1570 C   0  0  0  0  0  0  0  0  0  0  0  0
  141.1280   75.3220  221.4200 C   0  0  0  0  0  0  0  0  0  0  0  0
  141.4380   76.6350  221.0750 C   0  0  0  0  0  0  0  0  0  0  0  0
  140.5250   77.6240  221.3530 C   0  0  0  0  0  0  0  0  0  0  0  0
  140.8640   79.2930  220.9400 Cl  0  0  0  0  0  0  0  0  0  0  0  0
  139.3020   77.3470  221.9680 C   0  0  0  0  0  0  0  0  0  0  0  0
  138.9980   76.0350  222.3100 C   0  0  0  0  0  0  0  0  0  0  0  0
  139.9220   75.0500  222.0260 C   0  0  0  0  0  0  0  0  0  0  0  0
  139.6740   73.7670  222.3370 N   0  0  0  0  0  0  0  0  0  0  0  0
  140.5560   72.7880  222.0730 C   0  0  0  0  0  0  0  0  0  0  0  0
  140.1530   71.4300  222.4390 C   0  0  0  0  0  0  0  0  0  0  0  0
  139.3670   71.2130  223.4770 C   0  0  0  0  0  0  0  0  0  0  0  0
  139.8350   70.9510  224.8200 C   0  0  0  0  0  0  0  0  0  0  0  0
  139.5240   69.8340  225.5530 C   0  0  0  0  0  0  0  0  0  0  0  0
  140.0000   69.6280  226.8420 C   0  0  0  0  0  0  0  0  0  0  0  0
  140.8190   70.5580  227.4460 C   0  0  0  0  0  0  0  0  0  0  0  0
  141.1460   71.6900  226.7270 C   0  0  0  0  0  0  0  0  0  0  0  0
  141.9680   72.6620  227.2840 O   0  0  0  0  0  0  0  0  0  0  0  0
  140.6660   71.8810  225.4480 C   0  0  0  0  0  0  0  0  0  0  0  0
  141.7490   73.0040  221.4820 N   0  0  0  0  0  0  0  0  0  0  0  0
  142.7220   71.9930  221.2140 C   0  0  0  0  0  0  0  0  0  0  0  0
  143.3100   72.0420  219.8510 C   0  0  0  0  0  0  0  0  0  0  0  0
  142.5860   71.5510  218.7650 C   0  0  0  0  0  0  0  0  0  0  0  0
  143.0990   71.5810  217.4730 C   0  0  0  0  0  0  0  0  0  0  0  0
  144.3390   72.0970  217.2190 C   0  0  0  0  0  0  0  0  0  0  0  0
  145.0680   72.5850  218.2640 C   0  0  0  0  0  0  0  0  0  0  0  0
  146.3250   73.1090  218.0190 O   0  0  0  0  0  0  0  0  0  0  0  0
  144.5510   72.5530  219.5610 C   0  0  0  0  0  0  0  0  0  0  0  0
  142.3951   76.8760  220.5894 H   0  0  0  0  0  0  0  0  0  0  0  0
  138.5885   78.1572  222.1790 H   0  0  0  0  0  0  0  0  0  0  0  0
  138.0428   75.7871  222.7959 H   0  0  0  0  0  0  0  0  0  0  0  0
  140.5098   70.5784  221.8411 H   0  0  0  0  0  0  0  0  0  0  0  0
  138.2801   71.2328  223.3087 H   0  0  0  0  0  0  0  0  0  0  0  0
  138.8720   69.0712  225.1025 H   0  0  0  0  0  0  0  0  0  0  0  0
  139.7205   68.7137  227.3860 H   0  0  0  0  0  0  0  0  0  0  0  0
  141.1991   70.4032  228.4666 H   0  0  0  0  0  0  0  0  0  0  0  0
  141.8220   73.6440  227.2500 H   0  0  0  0  0  0  0  0  0  0  0  0
  140.9470   72.7956  224.9052 H   0  0  0  0  0  0  0  0  0  0  0  0
  143.5384   72.1015  221.9432 H   0  0  0  0  0  0  0  0  0  0  0  0
  142.1974   71.0292  221.2911 H   0  0  0  0  0  0  0  0  0  0  0  0
  141.5842   71.1295  218.9347 H   0  0  0  0  0  0  0  0  0  0  0  0
  142.4975   71.1833  216.6423 H   0  0  0  0  0  0  0  0  0  0  0  0
  144.7402   72.1183  216.1950 H   0  0  0  0  0  0  0  0  0  0  0  0
  146.4330   74.1290  217.9620 H   0  0  0  0  0  0  0  0  0  0  0  0
  145.1625   72.9532  220.3831 H   0  0  0  0  0  0  0  0  0  0  0  0
  1  2  2  0
  2  3  1  0
  3  4  2  0
  4  5  1  0
  5  6  1  0
  5  7  2  0
  7  8  1  0
  8  9  2  0
  9 10  1  0
 10 11  2  0
 11 12  1  0
 12 13  2  0
 13 14  1  0
 14 15  2  0
 15 16  1  0
 16 17  2  0
 17 18  1  0
 18 19  1  0
 18 20  2  0
 11 21  1  0
 21 22  1  0
 22 23  1  0
 23 24  2  0
 24 25  1  0
 25 26  2  0
 26 27  1  0
 27 28  1  0
 27 29  2  0
 21  2  1  0
 29 23  1  0
  9  3  1  0
 20 14  1  0
  4 30  1  0
  7 31  1  0
  8 32  1  0
 12 33  1  0
 13 34  1  0
 15 35  1  0
 16 36  1  0
 17 37  1  0
 19 38  1  0
 20 39  1  0
 22 40  1  0
 22 41  1  0
 24 42  1  0
 25 43  1  0
 26 44  1  0
 28 45  1  0
 29 46  1  0
M  END
>  <smiles>  (47) 
O=c1c2cc(Cl)ccc2nc(/C=C/c2cccc(O)c2)n1Cc1cccc(O)c1

>  <score_type>  (47) 
oracle

>  <origin>  (47) 
autodockgpu

>  <m_score__min__energy>  (47) 
-8.8100000000000005

>  <m_primary>  (47) 
energy

>  <rmsd>  (47) 
8.277699764013029

>  <m_score__min__rmsd>  (47) 
8.277699764013029

>  <meeko>  (47) 
{"free_energy": -7.87, "intermolecular_energy": -9.96, "internal_energy": -0.82, "cluster_size": 2, "cluster_id": 2, "rank_in_cluster": 1}

>  <energy>  (47) 
-5.39

>  <cluster_rmsd>  (47) 
0.25

>  <cluster>  (47) 
14

$$$$

     RDKit          3D

 46 49  0  0  0  0  0  0  0  0999 V2000
  143.6960   76.9790  219.3580 O   0  0  0  0  0  0  0  0  0  0  0  0
  142.7310   76.3710  219.8930 C   0  0  0  0  0  0  0  0  0  0  0  0
  142.9830   75.0260  220.1940 C   0  0  0  0  0  0  0  0  0  0  0  0
  144.2170   74.4500  219.9040 C   0  0  0  0  0  0  0  0  0  0  0  0
  144.4170   73.1260  220.2170 C   0  0  0  0  0  0  0  0  0  0  0  0
  145.9510   72.3520  219.8740 Cl  0  0  0  0  0  0  0  0  0  0  0  0
  143.4210   72.3510  220.8140 C   0  0  0  0  0  0  0  0  0  0  0  0
  142.1910   72.9310  221.1000 C   0  0  0  0  0  0  0  0  0  0  0  0
  142.0010   74.2600  220.7830 C   0  0  0  0  0  0  0  0  0  0  0  0
  140.8310   74.8660  221.0400 N   0  0  0  0  0  0  0  0  0  0  0  0
  140.6180   76.1580  220.7410 C   0  0  0  0  0  0  0  0  0  0  0  0
  139.3070   76.7040  221.0970 C   0  0  0  0  0  0  0  0  0  0  0  0
  139.0280   77.0350  222.3430 C   0  0  0  0  0  0  0  0  0  0  0  0
  138.1490   78.1160  222.7290 C   0  0  0  0  0  0  0  0  0  0  0  0
  136.8210   77.9730  223.0430 C   0  0  0  0  0  0  0  0  0  0  0  0
  136.0180   79.0450  223.4090 C   0  0  0  0  0  0  0  0  0  0  0  0
  136.5350   80.3220  223.4720 C   0  0  0  0  0  0  0  0  0  0  0  0
  137.8690   80.4910  223.1620 C   0  0  0  0  0  0  0  0  0  0  0  0
  138.4460   81.7540  223.2080 O   0  0  0  0  0  0  0  0  0  0  0  0
  138.6540   79.4160  222.8000 C   0  0  0  0  0  0  0  0  0  0  0  0
  141.5450   76.9490  220.1640 N   0  0  0  0  0  0  0  0  0  0  0  0
  141.3430   78.3170  219.8040 C   0  0  0  0  0  0  0  0  0  0  0  0
  141.5160   79.2840  220.9180 C   0  0  0  0  0  0  0  0  0  0  0  0
  142.2040   78.9010  222.0700 C   0  0  0  0  0  0  0  0  0  0  0  0
  142.3900   79.7770  223.1330 C   0  0  0  0  0  0  0  0  0  0  0  0
  141.9030   81.0530  223.0880 C   0  0  0  0  0  0  0  0  0  0  0  0
  141.2270   81.4540  221.9730 C   0  0  0  0  0  0  0  0  0  0  0  0
  140.7300   82.7440  221.9160 O   0  0  0  0  0  0  0  0  0  0  0  0
  141.0410   80.5720  220.9060 C   0  0  0  0  0  0  0  0  0  0  0  0
  145.0159   75.0422  219.4339 H   0  0  0  0  0  0  0  0  0  0  0  0
  143.6076   71.2941  221.0551 H   0  0  0  0  0  0  0  0  0  0  0  0
  141.3874   72.3438  221.5684 H   0  0  0  0  0  0  0  0  0  0  0  0
  138.5450   76.8399  220.3154 H   0  0  0  0  0  0  0  0  0  0  0  0
  139.4974   76.4468  223.1453 H   0  0  0  0  0  0  0  0  0  0  0  0
  136.3744   76.9685  223.0032 H   0  0  0  0  0  0  0  0  0  0  0  0
  134.9587   78.8740  223.6512 H   0  0  0  0  0  0  0  0  0  0  0  0
  135.9053   81.1769  223.7596 H   0  0  0  0  0  0  0  0  0  0  0  0
  139.3960   81.9580  223.4150 H   0  0  0  0  0  0  0  0  0  0  0  0
  139.7134   79.5886  222.5592 H   0  0  0  0  0  0  0  0  0  0  0  0
  142.0633   78.5731  219.0130 H   0  0  0  0  0  0  0  0  0  0  0  0
  140.2954   78.4014  219.4793 H   0  0  0  0  0  0  0  0  0  0  0  0
  142.6091   77.8806  222.1386 H   0  0  0  0  0  0  0  0  0  0  0  0
  142.9378   79.4378  224.0245 H   0  0  0  0  0  0  0  0  0  0  0  0
  142.0528   81.7418  223.9325 H   0  0  0  0  0  0  0  0  0  0  0  0
  139.7130   82.8810  221.8670 H   0  0  0  0  0  0  0  0  0  0  0  0
  140.4917   80.9237  220.0202 H   0  0  0  0  0  0  0  0  0  0  0  0
  1  2  2  0
  2  3  1  0
  3  4  2  0
  4  5  1  0
  5  6  1  0
  5  7  2  0
  7  8  1  0
  8  9  2  0
  9 10  1  0
 10 11  2  0
 11 12  1  0
 12 13  2  0
 13 14  1  0
 14 15  2  0
 15 16  1  0
 16 17  2  0
 17 18  1  0
 18 19  1  0
 18 20  2  0
 11 21  1  0
 21 22  1  0
 22 23  1  0
 23 24  2  0
 24 25  1  0
 25 26  2  0
 26 27  1  0
 27 28  1  0
 27 29  2  0
 21  2  1  0
 29 23  1  0
  9  3  1  0
 20 14  1  0
  4 30  1  0
  7 31  1  0
  8 32  1  0
 12 33  1  0
 13 34  1  0
 15 35  1  0
 16 36  1  0
 17 37  1  0
 19 38  1  0
 20 39  1  0
 22 40  1  0
 22 41  1  0
 24 42  1  0
 25 43  1  0
 26 44  1  0
 28 45  1  0
 29 46  1  0
M  END
>  <smiles>  (48) 
O=c1c2cc(Cl)ccc2nc(/C=C/c2cccc(O)c2)n1Cc1cccc(O)c1

>  <score_type>  (48) 
oracle

>  <origin>  (48) 
autodockgpu

>  <m_score__min__energy>  (48) 
-8.8100000000000005

>  <m_primary>  (48) 
energy

>  <rmsd>  (48) 
4.0786387578320165

>  <m_score__min__rmsd>  (48) 
4.0786387578320165

>  <meeko>  (48) 
{"free_energy": -5.62, "intermolecular_energy": -7.71, "internal_energy": -2.83, "cluster_size": 1, "cluster_id": 12, "rank_in_cluster": 1}

>  <energy>  (48) 
-5.38

>  <cluster_rmsd>  (48) 
0.47

>  <cluster>  (48) 
14

$$$$

     RDKit          3D

 46 49  0  0  0  0  0  0  0  0999 V2000
  136.4180   75.4430  222.0650 O   0  0  0  0  0  0  0  0  0  0  0  0
  137.6220   75.0750  222.0370 C   0  0  0  0  0  0  0  0  0  0  0  0
  138.5500   76.0900  222.3050 C   0  0  0  0  0  0  0  0  0  0  0  0
  138.1270   77.3890  222.5750 C   0  0  0  0  0  0  0  0  0  0  0  0
  139.0730   78.3520  222.8320 C   0  0  0  0  0  0  0  0  0  0  0  0
  138.5960   80.0020  223.1770 Cl  0  0  0  0  0  0  0  0  0  0  0  0
  140.4400   78.0620  222.8290 C   0  0  0  0  0  0  0  0  0  0  0  0
  140.8560   76.7640  222.5590 C   0  0  0  0  0  0  0  0  0  0  0  0
  139.8980   75.8050  222.3030 C   0  0  0  0  0  0  0  0  0  0  0  0
  140.2500   74.5370  222.0370 N   0  0  0  0  0  0  0  0  0  0  0  0
  139.3380   73.5840  221.7830 C   0  0  0  0  0  0  0  0  0  0  0  0
  139.8530   72.2370  221.5340 C   0  0  0  0  0  0  0  0  0  0  0  0
  140.6960   71.6680  222.3750 C   0  0  0  0  0  0  0  0  0  0  0  0
  140.3260   71.1110  223.6580 C   0  0  0  0  0  0  0  0  0  0  0  0
  140.6340   71.6710  224.8720 C   0  0  0  0  0  0  0  0  0  0  0  0
  140.2550   71.0960  226.0790 C   0  0  0  0  0  0  0  0  0  0  0  0
  139.5400   69.9180  226.1030 C   0  0  0  0  0  0  0  0  0  0  0  0
  139.2180   69.3370  224.8930 C   0  0  0  0  0  0  0  0  0  0  0  0
  138.4980   68.1480  224.8540 O   0  0  0  0  0  0  0  0  0  0  0  0
  139.6020   69.9190  223.7030 C   0  0  0  0  0  0  0  0  0  0  0  0
  138.0090   73.8120  221.7730 N   0  0  0  0  0  0  0  0  0  0  0  0
  137.0140   72.8300  221.4780 C   0  0  0  0  0  0  0  0  0  0  0  0
  136.3960   72.1940  222.6690 C   0  0  0  0  0  0  0  0  0  0  0  0
  135.7400   72.9810  223.6150 C   0  0  0  0  0  0  0  0  0  0  0  0
  135.1470   72.4240  224.7430 C   0  0  0  0  0  0  0  0  0  0  0  0
  135.1850   71.0760  224.9660 C   0  0  0  0  0  0  0  0  0  0  0  0
  135.8200   70.2820  224.0560 C   0  0  0  0  0  0  0  0  0  0  0  0
  135.8650   68.9160  224.2700 O   0  0  0  0  0  0  0  0  0  0  0  0
  136.4160   70.8450  222.9240 C   0  0  0  0  0  0  0  0  0  0  0  0
  137.0559   77.6395  222.5824 H   0  0  0  0  0  0  0  0  0  0  0  0
  141.1773   78.8512  223.0377 H   0  0  0  0  0  0  0  0  0  0  0  0
  141.9255   76.5069  222.5496 H   0  0  0  0  0  0  0  0  0  0  0  0
  139.5332   71.6915  220.6339 H   0  0  0  0  0  0  0  0  0  0  0  0
  141.7542   71.6134  222.0798 H   0  0  0  0  0  0  0  0  0  0  0  0
  141.2033   72.6120  224.8907 H   0  0  0  0  0  0  0  0  0  0  0  0
  140.5285   71.5861  227.0250 H   0  0  0  0  0  0  0  0  0  0  0  0
  139.2362   69.4565  227.0542 H   0  0  0  0  0  0  0  0  0  0  0  0
  137.7930   67.9110  224.1970 H   0  0  0  0  0  0  0  0  0  0  0  0
  139.3284   69.4271  222.7579 H   0  0  0  0  0  0  0  0  0  0  0  0
  136.2163   73.3149  220.8961 H   0  0  0  0  0  0  0  0  0  0  0  0
  137.5250   72.0264  220.9273 H   0  0  0  0  0  0  0  0  0  0  0  0
  135.6903   74.0696  223.4653 H   0  0  0  0  0  0  0  0  0  0  0  0
  134.6395   73.0785  225.4670 H   0  0  0  0  0  0  0  0  0  0  0  0
  134.7139   70.6407  225.8597 H   0  0  0  0  0  0  0  0  0  0  0  0
  136.5780   68.3620  223.7820 H   0  0  0  0  0  0  0  0  0  0  0  0
  136.9217   70.1802  222.2082 H   0  0  0  0  0  0  0  0  0  0  0  0
  1  2  2  0
  2  3  1  0
  3  4  2  0
  4  5  1  0
  5  6  1  0
  5  7  2  0
  7  8  1  0
  8  9  2  0
  9 10  1  0
 10 11  2  0
 11 12  1  0
 12 13  2  0
 13 14  1  0
 14 15  2  0
 15 16  1  0
 16 17  2  0
 17 18  1  0
 18 19  1  0
 18 20  2  0
 11 21  1  0
 21 22  1  0
 22 23  1  0
 23 24  2  0
 24 25  1  0
 25 26  2  0
 26 27  1  0
 27 28  1  0
 27 29  2  0
 21  2  1  0
 29 23  1  0
  9  3  1  0
 20 14  1  0
  4 30  1  0
  7 31  1  0
  8 32  1  0
 12 33  1  0
 13 34  1  0
 15 35  1  0
 16 36  1  0
 17 37  1  0
 19 38  1  0
 20 39  1  0
 22 40  1  0
 22 41  1  0
 24 42  1  0
 25 43  1  0
 26 44  1  0
 28 45  1  0
 29 46  1  0
M  END
>  <smiles>  (49) 
O=c1c2cc(Cl)ccc2nc(/C=C/c2cccc(O)c2)n1Cc1cccc(O)c1

>  <score_type>  (49) 
oracle

>  <origin>  (49) 
autodockgpu

>  <m_score__min__energy>  (49) 
-8.8100000000000005

>  <m_primary>  (49) 
energy

>  <rmsd>  (49) 
8.507484986936452

>  <m_score__min__rmsd>  (49) 
8.507484986936452

>  <meeko>  (49) 
{"free_energy": -5.92, "intermolecular_energy": -8.01, "internal_energy": -2.76, "cluster_size": 13, "cluster_id": 4, "rank_in_cluster": 13}

>  <energy>  (49) 
-5.36

>  <cluster_rmsd>  (49) 
0.51

>  <cluster>  (49) 
14

$$$$

     RDKit          3D

 46 49  0  0  0  0  0  0  0  0999 V2000
  142.5240   76.9130  219.3640 O   0  0  0  0  0  0  0  0  0  0  0  0
  141.7370   76.4450  220.2290 C   0  0  0  0  0  0  0  0  0  0  0  0
  141.2610   77.3820  221.1550 C   0  0  0  0  0  0  0  0  0  0  0  0
  141.6540   78.7160  221.0850 C   0  0  0  0  0  0  0  0  0  0  0  0
  141.1610   79.6000  222.0150 C   0  0  0  0  0  0  0  0  0  0  0  0
  141.6240   81.2900  221.9720 Cl  0  0  0  0  0  0  0  0  0  0  0  0
  140.2810   79.1960  223.0220 C   0  0  0  0  0  0  0  0  0  0  0  0
  139.8920   77.8640  223.0870 C   0  0  0  0  0  0  0  0  0  0  0  0
  140.3930   76.9860  222.1480 C   0  0  0  0  0  0  0  0  0  0  0  0
  140.0470   75.6880  222.1690 N   0  0  0  0  0  0  0  0  0  0  0  0
  140.5200   74.8110  221.2680 C   0  0  0  0  0  0  0  0  0  0  0  0
  140.0430   73.4320  221.3860 C   0  0  0  0  0  0  0  0  0  0  0  0
  140.7480   72.5260  222.0360 C   0  0  0  0  0  0  0  0  0  0  0  0
  140.2310   71.6850  223.0930 C   0  0  0  0  0  0  0  0  0  0  0  0
  139.2790   70.7110  222.9250 C   0  0  0  0  0  0  0  0  0  0  0  0
  138.8150   69.9280  223.9740 C   0  0  0  0  0  0  0  0  0  0  0  0
  139.3020   70.1050  225.2520 C   0  0  0  0  0  0  0  0  0  0  0  0
  140.2600   71.0790  225.4460 C   0  0  0  0  0  0  0  0  0  0  0  0
  140.7890   71.3020  226.7120 O   0  0  0  0  0  0  0  0  0  0  0  0
  140.7120   71.8480  224.3940 C   0  0  0  0  0  0  0  0  0  0  0  0
  141.3710   75.1500  220.2790 N   0  0  0  0  0  0  0  0  0  0  0  0
  141.9170   74.2390  219.3230 C   0  0  0  0  0  0  0  0  0  0  0  0
  143.3270   73.8440  219.5750 C   0  0  0  0  0  0  0  0  0  0  0  0
  143.7260   73.4810  220.8620 C   0  0  0  0  0  0  0  0  0  0  0  0
  145.0350   73.1030  221.1390 C   0  0  0  0  0  0  0  0  0  0  0  0
  145.9830   73.0710  220.1550 C   0  0  0  0  0  0  0  0  0  0  0  0
  145.6190   73.4210  218.8870 C   0  0  0  0  0  0  0  0  0  0  0  0
  146.5700   73.3930  217.8830 O   0  0  0  0  0  0  0  0  0  0  0  0
  144.3030   73.8010  218.6110 C   0  0  0  0  0  0  0  0  0  0  0  0
  142.3459   79.0560  220.3003 H   0  0  0  0  0  0  0  0  0  0  0  0
  139.9009   79.9235  223.7543 H   0  0  0  0  0  0  0  0  0  0  0  0
  139.2005   77.5173  223.8691 H   0  0  0  0  0  0  0  0  0  0  0  0
  139.0847   73.1477  220.9269 H   0  0  0  0  0  0  0  0  0  0  0  0
  141.8039   72.4013  221.7541 H   0  0  0  0  0  0  0  0  0  0  0  0
  138.8668   70.5437  221.9190 H   0  0  0  0  0  0  0  0  0  0  0  0
  138.0516   69.1592  223.7836 H   0  0  0  0  0  0  0  0  0  0  0  0
  138.9389   69.4903  226.0888 H   0  0  0  0  0  0  0  0  0  0  0  0
  140.4240   70.9570  227.5690 H   0  0  0  0  0  0  0  0  0  0  0  0
  141.4767   72.6151  224.5861 H   0  0  0  0  0  0  0  0  0  0  0  0
  141.3003   73.3281  219.3269 H   0  0  0  0  0  0  0  0  0  0  0  0
  141.9098   74.7631  218.3559 H   0  0  0  0  0  0  0  0  0  0  0  0
  142.9872   73.4942  221.6769 H   0  0  0  0  0  0  0  0  0  0  0  0
  145.3121   72.8252  222.1667 H   0  0  0  0  0  0  0  0  0  0  0  0
  147.0167   72.7698  220.3801 H   0  0  0  0  0  0  0  0  0  0  0  0
  146.7870   74.2630  217.3830 H   0  0  0  0  0  0  0  0  0  0  0  0
  144.0386   74.0768  217.5795 H   0  0  0  0  0  0  0  0  0  0  0  0
  1  2  2  0
  2  3  1  0
  3  4  2  0
  4  5  1  0
  5  6  1  0
  5  7  2  0
  7  8  1  0
  8  9  2  0
  9 10  1  0
 10 11  2  0
 11 12  1  0
 12 13  2  0
 13 14  1  0
 14 15  2  0
 15 16  1  0
 16 17  2  0
 17 18  1  0
 18 19  1  0
 18 20  2  0
 11 21  1  0
 21 22  1  0
 22 23  1  0
 23 24  2  0
 24 25  1  0
 25 26  2  0
 26 27  1  0
 27 28  1  0
 27 29  2  0
 21  2  1  0
 29 23  1  0
  9  3  1  0
 20 14  1  0
  4 30  1  0
  7 31  1  0
  8 32  1  0
 12 33  1  0
 13 34  1  0
 15 35  1  0
 16 36  1  0
 17 37  1  0
 19 38  1  0
 20 39  1  0
 22 40  1  0
 22 41  1  0
 24 42  1  0
 25 43  1  0
 26 44  1  0
 28 45  1  0
 29 46  1  0
M  END
>  <smiles>  (50) 
O=c1c2cc(Cl)ccc2nc(/C=C/c2cccc(O)c2)n1Cc1cccc(O)c1

>  <score_type>  (50) 
oracle

>  <origin>  (50) 
autodockgpu

>  <m_score__min__energy>  (50) 
-8.8100000000000005

>  <m_primary>  (50) 
energy

>  <rmsd>  (50) 
7.700270171396064

>  <m_score__min__rmsd>  (50) 
7.700270171396064

>  <meeko>  (50) 
{"free_energy": -7.41, "intermolecular_energy": -9.5, "internal_energy": -1.1, "cluster_size": 9, "cluster_id": 1, "rank_in_cluster": 9}

>  <energy>  (50) 
-5.31

>  <cluster_rmsd>  (50) 
0.68

>  <cluster>  (50) 
14

$$$$
