
     RDKit          3D

 45 48  0  0  0  0  0  0  0  0999 V2000
  139.9490   73.6690  222.7130 O   0  0  0  0  0  0  0  0  0  0  0  0
  140.3030   72.4840  222.5400 C   0  0  0  0  0  0  0  0  0  0  0  0
  140.7970   71.9670  221.3100 N   0  0  0  0  0  0  0  0  0  0  0  0
  140.9070   72.8370  220.1690 C   0  0  0  0  0  0  0  0  0  0  0  0
  141.8600   73.9260  220.5200 C   0  0  0  0  0  0  0  0  0  0  0  0
  141.4730   75.0900  220.7780 O   0  0  0  0  0  0  0  0  0  0  0  0
  143.2800   73.7000  220.5800 N   0  0  0  0  0  0  0  0  0  0  0  0
  144.2410   74.7460  220.4730 C   0  0  0  0  0  0  0  0  0  0  0  0
  145.5590   74.1010  220.7000 C   0  0  0  0  0  0  0  0  0  0  0  0
  145.3510   72.6520  220.4110 C   0  0  2  0  0  0  0  0  0  0  0  0
  145.5510   72.3110  218.9700 C   0  0  0  0  0  0  0  0  0  0  0  0
  145.5720   70.9910  218.5340 C   0  0  0  0  0  0  0  0  0  0  0  0
  145.7660   71.0440  217.2030 N   0  0  0  0  0  0  0  0  0  0  0  0
  145.8630   72.3410  216.8190 C   0  0  0  0  0  0  0  0  0  0  0  0
  145.7290   73.1220  217.9190 N   0  0  0  0  0  0  0  0  0  0  0  0
  143.9140   72.4130  220.7530 C   0  0  0  0  0  0  0  0  0  0  0  0
  140.2080   71.5570  223.6790 C   0  0  0  0  0  0  0  0  0  0  0  0
  139.6310   70.3110  223.5440 C   0  0  0  0  0  0  0  0  0  0  0  0
  139.5240   69.4130  224.5930 C   0  0  0  0  0  0  0  0  0  0  0  0
  140.0270   69.8040  225.8270 C   0  0  0  0  0  0  0  0  0  0  0  0
  139.9260   68.9200  226.8740 C   0  0  0  0  0  0  0  0  0  0  0  0
  140.4200   69.2850  228.1210 C   0  0  0  0  0  0  0  0  0  0  0  0
  140.3040   68.3790  229.1460 F   0  0  0  0  0  0  0  0  0  0  0  0
  140.9990   70.5130  228.2940 C   0  0  0  0  0  0  0  0  0  0  0  0
  141.0870   71.3900  227.2100 C   0  0  0  0  0  0  0  0  0  0  0  0
  140.6040   71.0530  225.9600 C   0  0  0  0  0  0  0  0  0  0  0  0
  140.6810   71.8850  224.9040 N   0  0  0  0  0  0  0  0  0  0  0  0
  141.0730   70.9530  221.2540 H   0  0  0  0  0  0  0  0  0  0  0  0
  141.2847   72.2733  219.3032 H   0  0  0  0  0  0  0  0  0  0  0  0
  139.9238   73.2551  219.9072 H   0  0  0  0  0  0  0  0  0  0  0  0
  144.2034   75.2013  219.4724 H   0  0  0  0  0  0  0  0  0  0  0  0
  144.0505   75.5500  221.1991 H   0  0  0  0  0  0  0  0  0  0  0  0
  146.3151   74.5232  220.0218 H   0  0  0  0  0  0  0  0  0  0  0  0
  145.9208   74.2638  221.7259 H   0  0  0  0  0  0  0  0  0  0  0  0
  146.0696   72.0420  220.9780 H   0  0  0  0  0  0  0  0  0  0  0  0
  145.4542   70.0878  219.1507 H   0  0  0  0  0  0  0  0  0  0  0  0
  146.0230   72.6982  215.7910 H   0  0  0  0  0  0  0  0  0  0  0  0
  145.7580   74.1620  217.9370 H   0  0  0  0  0  0  0  0  0  0  0  0
  143.4721   71.6680  220.0751 H   0  0  0  0  0  0  0  0  0  0  0  0
  143.7874   72.0189  221.7721 H   0  0  0  0  0  0  0  0  0  0  0  0
  139.2384   70.0177  222.5592 H   0  0  0  0  0  0  0  0  0  0  0  0
  139.0578   68.4264  224.4538 H   0  0  0  0  0  0  0  0  0  0  0  0
  139.4595   67.9347  226.7271 H   0  0  0  0  0  0  0  0  0  0  0  0
  141.3918   70.8071  229.2785 H   0  0  0  0  0  0  0  0  0  0  0  0
  141.5535   72.3755  227.3556 H   0  0  0  0  0  0  0  0  0  0  0  0
  1  2  2  0
  2  3  1  0
  3  4  1  0
  4  5  1  0
  5  6  2  0
  5  7  1  0
  7  8  1  0
  8  9  1  0
  9 10  1  0
 10 11  1  0
 11 12  2  0
 12 13  1  0
 13 14  2  0
 14 15  1  0
 10 16  1  0
  2 17  1  0
 17 18  2  0
 18 19  1  0
 19 20  2  0
 20 21  1  0
 21 22  2  0
 22 23  1  0
 22 24  1  0
 24 25  2  0
 25 26  1  0
 26 27  2  0
 16  7  1  0
 27 17  1  0
 15 11  1  0
 26 20  1  0
  3 28  1  0
  4 29  1  0
  4 30  1  0
  8 31  1  0
  8 32  1  0
  9 33  1  0
  9 34  1  0
 10 35  1  1
 12 36  1  0
 14 37  1  0
 15 38  1  0
 16 39  1  0
 16 40  1  0
 18 41  1  0
 19 42  1  0
 21 43  1  0
 24 44  1  0
 25 45  1  0
M  END
>  <smiles>  (1) 
O=C(NCC(=O)N1CC[C@H](c2cnc[nH]2)C1)c1ccc2cc(F)ccc2n1

>  <score_type>  (1) 
oracle

>  <origin>  (1) 
autodockgpu

>  <m_score__min__energy>  (1) 
-8.3800000000000008

>  <m_primary>  (1) 
energy

>  <rmsd>  (1) 
3.691229545051735

>  <m_score__min__rmsd>  (1) 
3.691229545051735

>  <meeko>  (1) 
{"free_energy": -7.75, "intermolecular_energy": -9.24, "internal_energy": -1.01, "cluster_size": 6, "cluster_id": 2, "rank_in_cluster": 1}

>  <energy>  (1) 
-8.38

>  <cluster_rmsd>  (1) 
0.0

>  <cluster>  (1) 
1

$$$$

     RDKit          3D

 45 48  0  0  0  0  0  0  0  0999 V2000
  140.4800   71.1300  221.3140 O   0  0  0  0  0  0  0  0  0  0  0  0
  140.1420   71.6790  222.3830 C   0  0  0  0  0  0  0  0  0  0  0  0
  139.8050   73.0550  222.5040 N   0  0  0  0  0  0  0  0  0  0  0  0
  139.8460   73.9000  221.3400 C   0  0  0  0  0  0  0  0  0  0  0  0
  139.7050   75.3100  221.7970 C   0  0  0  0  0  0  0  0  0  0  0  0
  138.9260   75.6320  222.7260 O   0  0  0  0  0  0  0  0  0  0  0  0
  140.4560   76.3810  221.1960 N   0  0  0  0  0  0  0  0  0  0  0  0
  141.7760   76.2160  220.6860 C   0  0  0  0  0  0  0  0  0  0  0  0
  142.1260   77.5160  220.0610 C   0  0  0  0  0  0  0  0  0  0  0  0
  141.2170   78.5200  220.6880 C   0  0  2  0  0  0  0  0  0  0  0  0
  141.7690   79.0980  221.9500 C   0  0  0  0  0  0  0  0  0  0  0  0
  141.2620   78.7390  223.1950 C   0  0  0  0  0  0  0  0  0  0  0  0
  141.9780   79.4320  224.0990 N   0  0  0  0  0  0  0  0  0  0  0  0
  142.8950   80.1940  223.4530 C   0  0  0  0  0  0  0  0  0  0  0  0
  142.7600   79.9830  222.1210 N   0  0  0  0  0  0  0  0  0  0  0  0
  139.9880   77.7380  221.0300 C   0  0  0  0  0  0  0  0  0  0  0  0
  140.0860   70.8540  223.6000 C   0  0  0  0  0  0  0  0  0  0  0  0
  139.5220   69.5940  223.5880 C   0  0  0  0  0  0  0  0  0  0  0  0
  139.4510   68.7900  224.7130 C   0  0  0  0  0  0  0  0  0  0  0  0
  139.9770   69.2930  225.8960 C   0  0  0  0  0  0  0  0  0  0  0  0
  139.9120   68.5020  227.0180 C   0  0  0  0  0  0  0  0  0  0  0  0
  140.4300   68.9800  228.2160 C   0  0  0  0  0  0  0  0  0  0  0  0
  140.3500   68.1660  229.3190 F   0  0  0  0  0  0  0  0  0  0  0  0
  140.9970   70.2250  228.2680 C   0  0  0  0  0  0  0  0  0  0  0  0
  141.0490   71.0050  227.1100 C   0  0  0  0  0  0  0  0  0  0  0  0
  140.5410   70.5550  225.9060 C   0  0  0  0  0  0  0  0  0  0  0  0
  140.5820   71.2920  224.7800 N   0  0  0  0  0  0  0  0  0  0  0  0
  139.5300   73.4350  223.4470 H   0  0  0  0  0  0  0  0  0  0  0  0
  140.8048   73.7702  220.8168 H   0  0  0  0  0  0  0  0  0  0  0  0
  139.0342   73.6378  220.6456 H   0  0  0  0  0  0  0  0  0  0  0  0
  142.4762   75.9806  221.5010 H   0  0  0  0  0  0  0  0  0  0  0  0
  141.8337   75.3879  219.9642 H   0  0  0  0  0  0  0  0  0  0  0  0
  143.1769   77.7694  220.2646 H   0  0  0  0  0  0  0  0  0  0  0  0
  142.0083   77.4870  218.9677 H   0  0  0  0  0  0  0  0  0  0  0  0
  141.0525   79.3659  220.0044 H   0  0  0  0  0  0  0  0  0  0  0  0
  140.4433   78.0331  223.3985 H   0  0  0  0  0  0  0  0  0  0  0  0
  143.6233   80.8676  223.9283 H   0  0  0  0  0  0  0  0  0  0  0  0
  143.3280   80.4280  221.3710 H   0  0  0  0  0  0  0  0  0  0  0  0
  139.5372   78.1103  221.9617 H   0  0  0  0  0  0  0  0  0  0  0  0
  139.2113   77.8204  220.2554 H   0  0  0  0  0  0  0  0  0  0  0  0
  139.1106   69.2116  222.6422 H   0  0  0  0  0  0  0  0  0  0  0  0
  138.9949   67.7899  224.6714 H   0  0  0  0  0  0  0  0  0  0  0  0
  139.4555   67.5024  226.9685 H   0  0  0  0  0  0  0  0  0  0  0  0
  141.4082   70.6081  229.2136 H   0  0  0  0  0  0  0  0  0  0  0  0
  141.5066   72.0042  227.1578 H   0  0  0  0  0  0  0  0  0  0  0  0
  1  2  2  0
  2  3  1  0
  3  4  1  0
  4  5  1  0
  5  6  2  0
  5  7  1  0
  7  8  1  0
  8  9  1  0
  9 10  1  0
 10 11  1  0
 11 12  2  0
 12 13  1  0
 13 14  2  0
 14 15  1  0
 10 16  1  0
  2 17  1  0
 17 18  2  0
 18 19  1  0
 19 20  2  0
 20 21  1  0
 21 22  2  0
 22 23  1  0
 22 24  1  0
 24 25  2  0
 25 26  1  0
 26 27  2  0
 16  7  1  0
 27 17  1  0
 15 11  1  0
 26 20  1  0
  3 28  1  0
  4 29  1  0
  4 30  1  0
  8 31  1  0
  8 32  1  0
  9 33  1  0
  9 34  1  0
 10 35  1  6
 12 36  1  0
 14 37  1  0
 15 38  1  0
 16 39  1  0
 16 40  1  0
 18 41  1  0
 19 42  1  0
 21 43  1  0
 24 44  1  0
 25 45  1  0
M  END
>  <smiles>  (2) 
O=C(NCC(=O)N1CC[C@H](c2cnc[nH]2)C1)c1ccc2cc(F)ccc2n1

>  <score_type>  (2) 
oracle

>  <origin>  (2) 
autodockgpu

>  <m_score__min__energy>  (2) 
-8.3800000000000008

>  <m_primary>  (2) 
energy

>  <rmsd>  (2) 
2.282822425035024

>  <m_score__min__rmsd>  (2) 
2.282822425035024

>  <meeko>  (2) 
{"free_energy": -8.08, "intermolecular_energy": -9.57, "internal_energy": -1.43, "cluster_size": 36, "cluster_id": 1, "rank_in_cluster": 22}

>  <energy>  (2) 
-8.38

>  <cluster_rmsd>  (2) 
0.86

>  <cluster>  (2) 
1

$$$$

     RDKit          3D

 45 48  0  0  0  0  0  0  0  0999 V2000
  141.1820   72.4510  221.6480 O   0  0  0  0  0  0  0  0  0  0  0  0
  140.2240   72.5790  222.4370 C   0  0  0  0  0  0  0  0  0  0  0  0
  139.2270   73.5880  222.3310 N   0  0  0  0  0  0  0  0  0  0  0  0
  139.2990   74.5430  221.2560 C   0  0  0  0  0  0  0  0  0  0  0  0
  140.3200   75.5630  221.6220 C   0  0  0  0  0  0  0  0  0  0  0  0
  141.4760   75.2440  221.9850 O   0  0  0  0  0  0  0  0  0  0  0  0
  140.0330   76.9730  221.5780 N   0  0  0  0  0  0  0  0  0  0  0  0
  140.1410   77.7530  220.3910 C   0  0  0  0  0  0  0  0  0  0  0  0
  139.6490   79.1050  220.7570 C   0  0  0  0  0  0  0  0  0  0  0  0
  139.7710   79.1870  222.2420 C   0  0  2  0  0  0  0  0  0  0  0  0
  141.1120   79.6690  222.6910 C   0  0  0  0  0  0  0  0  0  0  0  0
  141.2540   80.8480  223.4150 C   0  0  0  0  0  0  0  0  0  0  0  0
  142.5720   80.9790  223.6540 N   0  0  0  0  0  0  0  0  0  0  0  0
  143.2300   79.9280  223.1050 C   0  0  0  0  0  0  0  0  0  0  0  0
  142.3200   79.1200  222.5090 N   0  0  0  0  0  0  0  0  0  0  0  0
  139.6050   77.7730  222.7020 C   0  0  0  0  0  0  0  0  0  0  0  0
  140.1100   71.6250  223.5520 C   0  0  0  0  0  0  0  0  0  0  0  0
  139.4840   70.4060  223.3930 C   0  0  0  0  0  0  0  0  0  0  0  0
  139.3580   69.4840  224.4190 C   0  0  0  0  0  0  0  0  0  0  0  0
  139.8930   69.8220  225.6550 C   0  0  0  0  0  0  0  0  0  0  0  0
  139.7740   68.9130  226.6790 C   0  0  0  0  0  0  0  0  0  0  0  0
  140.3000   69.2260  227.9280 C   0  0  0  0  0  0  0  0  0  0  0  0
  140.1640   68.2970  228.9300 F   0  0  0  0  0  0  0  0  0  0  0  0
  140.9280   70.4260  228.1250 C   0  0  0  0  0  0  0  0  0  0  0  0
  141.0340   71.3280  227.0630 C   0  0  0  0  0  0  0  0  0  0  0  0
  140.5200   71.0440  225.8130 C   0  0  0  0  0  0  0  0  0  0  0  0
  140.6130   71.9000  224.7780 N   0  0  0  0  0  0  0  0  0  0  0  0
  138.4520   73.6220  223.0420 H   0  0  0  0  0  0  0  0  0  0  0  0
  139.5927   74.0368  220.3246 H   0  0  0  0  0  0  0  0  0  0  0  0
  138.3198   75.0186  221.0979 H   0  0  0  0  0  0  0  0  0  0  0  0
  141.1881   77.8024  220.0577 H   0  0  0  0  0  0  0  0  0  0  0  0
  139.5609   77.3184  219.5636 H   0  0  0  0  0  0  0  0  0  0  0  0
  140.2644   79.8805  220.2776 H   0  0  0  0  0  0  0  0  0  0  0  0
  138.6130   79.2656  220.4238 H   0  0  0  0  0  0  0  0  0  0  0  0
  139.0336   79.8957  222.6470 H   0  0  0  0  0  0  0  0  0  0  0  0
  140.4527   81.5334  223.7283 H   0  0  0  0  0  0  0  0  0  0  0  0
  144.3166   79.7601  223.1379 H   0  0  0  0  0  0  0  0  0  0  0  0
  142.5280   78.2340  222.0050 H   0  0  0  0  0  0  0  0  0  0  0  0
  140.2340   77.5744  223.5823 H   0  0  0  0  0  0  0  0  0  0  0  0
  138.5708   77.5505  223.0034 H   0  0  0  0  0  0  0  0  0  0  0  0
  139.0660   70.1549  222.4070 H   0  0  0  0  0  0  0  0  0  0  0  0
  138.8528   68.5198  224.2605 H   0  0  0  0  0  0  0  0  0  0  0  0
  139.2691   67.9500  226.5129 H   0  0  0  0  0  0  0  0  0  0  0  0
  141.3457   70.6783  229.1109 H   0  0  0  0  0  0  0  0  0  0  0  0
  141.5406   72.2905  227.2271 H   0  0  0  0  0  0  0  0  0  0  0  0
  1  2  2  0
  2  3  1  0
  3  4  1  0
  4  5  1  0
  5  6  2  0
  5  7  1  0
  7  8  1  0
  8  9  1  0
  9 10  1  0
 10 11  1  0
 11 12  2  0
 12 13  1  0
 13 14  2  0
 14 15  1  0
 10 16  1  0
  2 17  1  0
 17 18  2  0
 18 19  1  0
 19 20  2  0
 20 21  1  0
 21 22  2  0
 22 23  1  0
 22 24  1  0
 24 25  2  0
 25 26  1  0
 26 27  2  0
 16  7  1  0
 27 17  1  0
 15 11  1  0
 26 20  1  0
  3 28  1  0
  4 29  1  0
  4 30  1  0
  8 31  1  0
  8 32  1  0
  9 33  1  0
  9 34  1  0
 10 35  1  1
 12 36  1  0
 14 37  1  0
 15 38  1  0
 16 39  1  0
 16 40  1  0
 18 41  1  0
 19 42  1  0
 21 43  1  0
 24 44  1  0
 25 45  1  0
M  END
>  <smiles>  (3) 
O=C(NCC(=O)N1CC[C@H](c2cnc[nH]2)C1)c1ccc2cc(F)ccc2n1

>  <score_type>  (3) 
oracle

>  <origin>  (3) 
autodockgpu

>  <m_score__min__energy>  (3) 
-8.3800000000000008

>  <m_primary>  (3) 
energy

>  <rmsd>  (3) 
2.89810593766846

>  <m_score__min__rmsd>  (3) 
2.89810593766846

>  <meeko>  (3) 
{"free_energy": -8.38, "intermolecular_energy": -9.87, "internal_energy": -0.96, "cluster_size": 36, "cluster_id": 1, "rank_in_cluster": 2}

>  <energy>  (3) 
-8.37

>  <cluster_rmsd>  (3) 
0.14

>  <cluster>  (3) 
1

$$$$

     RDKit          3D

 45 48  0  0  0  0  0  0  0  0999 V2000
  140.2160   71.4670  221.1440 O   0  0  0  0  0  0  0  0  0  0  0  0
  139.9830   71.9920  222.2520 C   0  0  0  0  0  0  0  0  0  0  0  0
  139.7230   73.3780  222.4440 N   0  0  0  0  0  0  0  0  0  0  0  0
  139.7230   74.2620  221.3080 C   0  0  0  0  0  0  0  0  0  0  0  0
  139.5610   75.6520  221.8150 C   0  0  0  0  0  0  0  0  0  0  0  0
  138.7870   75.9280  222.7620 O   0  0  0  0  0  0  0  0  0  0  0  0
  140.2870   76.7560  221.2450 N   0  0  0  0  0  0  0  0  0  0  0  0
  141.5820   76.6220  220.6670 C   0  0  0  0  0  0  0  0  0  0  0  0
  141.9070   77.9570  220.1040 C   0  0  0  0  0  0  0  0  0  0  0  0
  141.0290   78.9220  220.8290 C   0  0  2  0  0  0  0  0  0  0  0  0
  141.6380   79.4260  222.0960 C   0  0  0  0  0  0  0  0  0  0  0  0
  140.9330   79.4130  223.2950 C   0  0  0  0  0  0  0  0  0  0  0  0
  141.7660   79.9250  224.2190 N   0  0  0  0  0  0  0  0  0  0  0  0
  142.9440   80.2460  223.6290 C   0  0  0  0  0  0  0  0  0  0  0  0
  142.8590   79.9350  222.3130 N   0  0  0  0  0  0  0  0  0  0  0  0
  139.8150   78.1200  221.1790 C   0  0  0  0  0  0  0  0  0  0  0  0
  139.9730   71.1270  223.4420 C   0  0  0  0  0  0  0  0  0  0  0  0
  139.5330   69.8210  223.3760 C   0  0  0  0  0  0  0  0  0  0  0  0
  139.5090   68.9780  224.4750 C   0  0  0  0  0  0  0  0  0  0  0  0
  139.9520   69.4900  225.6870 C   0  0  0  0  0  0  0  0  0  0  0  0
  139.9330   68.6610  226.7830 C   0  0  0  0  0  0  0  0  0  0  0  0
  140.3710   69.1470  228.0100 C   0  0  0  0  0  0  0  0  0  0  0  0
  140.3390   68.2940  229.0850 F   0  0  0  0  0  0  0  0  0  0  0  0
  140.8140   70.4380  228.1150 C   0  0  0  0  0  0  0  0  0  0  0  0
  140.8220   71.2560  226.9820 C   0  0  0  0  0  0  0  0  0  0  0  0
  140.3920   70.7990  225.7510 C   0  0  0  0  0  0  0  0  0  0  0  0
  140.3930   71.5720  224.6490 N   0  0  0  0  0  0  0  0  0  0  0  0
  139.5350   73.7350  223.4160 H   0  0  0  0  0  0  0  0  0  0  0  0
  140.6739   74.1708  220.7626 H   0  0  0  0  0  0  0  0  0  0  0  0
  138.9036   74.0052  220.6205 H   0  0  0  0  0  0  0  0  0  0  0  0
  142.3177   76.3392  221.4343 H   0  0  0  0  0  0  0  0  0  0  0  0
  141.6048   75.8380  219.8957 H   0  0  0  0  0  0  0  0  0  0  0  0
  142.9665   78.1984  220.2750 H   0  0  0  0  0  0  0  0  0  0  0  0
  141.7408   77.9922  219.0172 H   0  0  0  0  0  0  0  0  0  0  0  0
  140.8355   79.8066  220.2045 H   0  0  0  0  0  0  0  0  0  0  0  0
  139.9046   79.0569  223.4550 H   0  0  0  0  0  0  0  0  0  0  0  0
  143.8186   80.6838  224.1324 H   0  0  0  0  0  0  0  0  0  0  0  0
  143.6090   80.0660  221.6040 H   0  0  0  0  0  0  0  0  0  0  0  0
  139.4065   78.4371  222.1498 H   0  0  0  0  0  0  0  0  0  0  0  0
  139.0052   78.2466  220.4454 H   0  0  0  0  0  0  0  0  0  0  0  0
  139.1858   69.4318  222.4075 H   0  0  0  0  0  0  0  0  0  0  0  0
  139.1520   67.9410  224.3905 H   0  0  0  0  0  0  0  0  0  0  0  0
  139.5754   67.6249  226.6906 H   0  0  0  0  0  0  0  0  0  0  0  0
  141.1608   70.8283  229.0832 H   0  0  0  0  0  0  0  0  0  0  0  0
  141.1804   72.2920  227.0726 H   0  0  0  0  0  0  0  0  0  0  0  0
  1  2  2  0
  2  3  1  0
  3  4  1  0
  4  5  1  0
  5  6  2  0
  5  7  1  0
  7  8  1  0
  8  9  1  0
  9 10  1  0
 10 11  1  0
 11 12  2  0
 12 13  1  0
 13 14  2  0
 14 15  1  0
 10 16  1  0
  2 17  1  0
 17 18  2  0
 18 19  1  0
 19 20  2  0
 20 21  1  0
 21 22  2  0
 22 23  1  0
 22 24  1  0
 24 25  2  0
 25 26  1  0
 26 27  2  0
 16  7  1  0
 27 17  1  0
 15 11  1  0
 26 20  1  0
  3 28  1  0
  4 29  1  0
  4 30  1  0
  8 31  1  0
  8 32  1  0
  9 33  1  0
  9 34  1  0
 10 35  1  6
 12 36  1  0
 14 37  1  0
 15 38  1  0
 16 39  1  0
 16 40  1  0
 18 41  1  0
 19 42  1  0
 21 43  1  0
 24 44  1  0
 25 45  1  0
M  END
>  <smiles>  (4) 
O=C(NCC(=O)N1CC[C@H](c2cnc[nH]2)C1)c1ccc2cc(F)ccc2n1

>  <score_type>  (4) 
oracle

>  <origin>  (4) 
autodockgpu

>  <m_score__min__energy>  (4) 
-8.3800000000000008

>  <m_primary>  (4) 
energy

>  <rmsd>  (4) 
2.3937345591737924

>  <m_score__min__rmsd>  (4) 
2.3937345591737924

>  <meeko>  (4) 
{"free_energy": -8.04, "intermolecular_energy": -9.53, "internal_energy": -1.46, "cluster_size": 36, "cluster_id": 1, "rank_in_cluster": 24}

>  <energy>  (4) 
-8.36

>  <cluster_rmsd>  (4) 
0.43

>  <cluster>  (4) 
1

$$$$

     RDKit          3D

 45 48  0  0  0  0  0  0  0  0999 V2000
  138.7010   71.8520  221.7290 O   0  0  0  0  0  0  0  0  0  0  0  0
  139.6510   71.9930  222.5260 C   0  0  0  0  0  0  0  0  0  0  0  0
  140.6800   72.9650  222.3820 N   0  0  0  0  0  0  0  0  0  0  0  0
  140.6560   73.8600  221.2550 C   0  0  0  0  0  0  0  0  0  0  0  0
  140.1310   75.1710  221.7270 C   0  0  0  0  0  0  0  0  0  0  0  0
  139.2730   75.2530  222.6370 O   0  0  0  0  0  0  0  0  0  0  0  0
  140.5830   76.4160  221.1630 N   0  0  0  0  0  0  0  0  0  0  0  0
  141.8040   76.5460  220.4400 C   0  0  0  0  0  0  0  0  0  0  0  0
  141.8240   77.9450  219.9430 C   0  0  0  0  0  0  0  0  0  0  0  0
  140.8870   78.6980  220.8270 C   0  0  2  0  0  0  0  0  0  0  0  0
  141.5470   79.2350  222.0550 C   0  0  0  0  0  0  0  0  0  0  0  0
  141.0010   79.0380  223.3180 C   0  0  0  0  0  0  0  0  0  0  0  0
  141.8380   79.6400  224.1820 N   0  0  0  0  0  0  0  0  0  0  0  0
  142.8670   80.1930  223.4920 C   0  0  0  0  0  0  0  0  0  0  0  0
  142.6810   79.9390  222.1740 N   0  0  0  0  0  0  0  0  0  0  0  0
  139.8790   77.6750  221.2480 C   0  0  0  0  0  0  0  0  0  0  0  0
  139.7170   71.1010  223.6940 C   0  0  0  0  0  0  0  0  0  0  0  0
  139.1430   69.8460  223.6710 C   0  0  0  0  0  0  0  0  0  0  0  0
  139.1850   68.9790  224.7510 C   0  0  0  0  0  0  0  0  0  0  0  0
  139.8390   69.4120  225.8970 C   0  0  0  0  0  0  0  0  0  0  0  0
  139.8860   68.5580  226.9730 C   0  0  0  0  0  0  0  0  0  0  0  0
  140.5340   68.9660  228.1340 C   0  0  0  0  0  0  0  0  0  0  0  0
  140.5640   68.0900  229.1910 F   0  0  0  0  0  0  0  0  0  0  0  0
  141.1160   70.2030  228.1940 C   0  0  0  0  0  0  0  0  0  0  0  0
  141.0510   71.0480  227.0830 C   0  0  0  0  0  0  0  0  0  0  0  0
  140.4130   70.6690  225.9170 C   0  0  0  0  0  0  0  0  0  0  0  0
  140.3410   71.4690  224.8370 N   0  0  0  0  0  0  0  0  0  0  0  0
  141.4440   73.0140  223.1040 H   0  0  0  0  0  0  0  0  0  0  0  0
  141.6731   73.9860  220.8553 H   0  0  0  0  0  0  0  0  0  0  0  0
  140.0175   73.4552  220.4560 H   0  0  0  0  0  0  0  0  0  0  0  0
  142.6636   76.3605  221.1008 H   0  0  0  0  0  0  0  0  0  0  0  0
  141.8699   75.8195  219.6166 H   0  0  0  0  0  0  0  0  0  0  0  0
  142.8389   78.3633  220.0141 H   0  0  0  0  0  0  0  0  0  0  0  0
  141.5245   78.0060  218.8863 H   0  0  0  0  0  0  0  0  0  0  0  0
  140.4723   79.5653  220.2924 H   0  0  0  0  0  0  0  0  0  0  0  0
  140.0733   78.4994  223.5614 H   0  0  0  0  0  0  0  0  0  0  0  0
  143.7083   80.7519  223.9279 H   0  0  0  0  0  0  0  0  0  0  0  0
  143.3090   80.2370  221.4000 H   0  0  0  0  0  0  0  0  0  0  0  0
  139.5415   77.8628  222.2780 H   0  0  0  0  0  0  0  0  0  0  0  0
  138.9772   77.6930  220.6184 H   0  0  0  0  0  0  0  0  0  0  0  0
  138.6294   69.5196  222.7546 H   0  0  0  0  0  0  0  0  0  0  0  0
  138.7176   67.9844  224.7025 H   0  0  0  0  0  0  0  0  0  0  0  0
  139.4171   67.5646  226.9166 H   0  0  0  0  0  0  0  0  0  0  0  0
  141.6309   70.5296  229.1095 H   0  0  0  0  0  0  0  0  0  0  0  0
  141.5202   72.0414  227.1379 H   0  0  0  0  0  0  0  0  0  0  0  0
  1  2  2  0
  2  3  1  0
  3  4  1  0
  4  5  1  0
  5  6  2  0
  5  7  1  0
  7  8  1  0
  8  9  1  0
  9 10  1  0
 10 11  1  0
 11 12  2  0
 12 13  1  0
 13 14  2  0
 14 15  1  0
 10 16  1  0
  2 17  1  0
 17 18  2  0
 18 19  1  0
 19 20  2  0
 20 21  1  0
 21 22  2  0
 22 23  1  0
 22 24  1  0
 24 25  2  0
 25 26  1  0
 26 27  2  0
 16  7  1  0
 27 17  1  0
 15 11  1  0
 26 20  1  0
  3 28  1  0
  4 29  1  0
  4 30  1  0
  8 31  1  0
  8 32  1  0
  9 33  1  0
  9 34  1  0
 10 35  1  6
 12 36  1  0
 14 37  1  0
 15 38  1  0
 16 39  1  0
 16 40  1  0
 18 41  1  0
 19 42  1  0
 21 43  1  0
 24 44  1  0
 25 45  1  0
M  END
>  <smiles>  (5) 
O=C(NCC(=O)N1CC[C@H](c2cnc[nH]2)C1)c1ccc2cc(F)ccc2n1

>  <score_type>  (5) 
oracle

>  <origin>  (5) 
autodockgpu

>  <m_score__min__energy>  (5) 
-8.3800000000000008

>  <m_primary>  (5) 
energy

>  <rmsd>  (5) 
2.4142822293558126

>  <m_score__min__rmsd>  (5) 
2.4142822293558126

>  <meeko>  (5) 
{"free_energy": -7.83, "intermolecular_energy": -9.32, "internal_energy": -1.21, "cluster_size": 36, "cluster_id": 1, "rank_in_cluster": 30}

>  <energy>  (5) 
-8.35

>  <cluster_rmsd>  (5) 
0.49

>  <cluster>  (5) 
1

$$$$

     RDKit          3D

 45 48  0  0  0  0  0  0  0  0999 V2000
  141.3850   72.4970  221.9320 O   0  0  0  0  0  0  0  0  0  0  0  0
  140.3290   72.5440  222.5960 C   0  0  0  0  0  0  0  0  0  0  0  0
  139.2630   73.4510  222.3430 N   0  0  0  0  0  0  0  0  0  0  0  0
  139.3750   74.3910  221.2600 C   0  0  0  0  0  0  0  0  0  0  0  0
  139.4140   75.7590  221.8480 C   0  0  0  0  0  0  0  0  0  0  0  0
  138.8080   76.0430  222.9080 O   0  0  0  0  0  0  0  0  0  0  0  0
  140.1500   76.8290  221.2290 N   0  0  0  0  0  0  0  0  0  0  0  0
  141.4610   76.6670  220.6950 C   0  0  0  0  0  0  0  0  0  0  0  0
  141.7960   77.9660  220.0590 C   0  0  0  0  0  0  0  0  0  0  0  0
  140.8950   78.9690  220.6990 C   0  0  2  0  0  0  0  0  0  0  0  0
  141.4680   79.5540  221.9490 C   0  0  0  0  0  0  0  0  0  0  0  0
  140.6870   80.2960  222.8270 C   0  0  0  0  0  0  0  0  0  0  0  0
  141.5050   80.6620  223.8310 N   0  0  0  0  0  0  0  0  0  0  0  0
  142.7470   80.1710  223.5950 C   0  0  0  0  0  0  0  0  0  0  0  0
  142.7180   79.4850  222.4270 N   0  0  0  0  0  0  0  0  0  0  0  0
  139.6750   78.1840  221.0670 C   0  0  0  0  0  0  0  0  0  0  0  0
  140.1700   71.6010  223.7140 C   0  0  0  0  0  0  0  0  0  0  0  0
  139.4920   70.4090  223.5570 C   0  0  0  0  0  0  0  0  0  0  0  0
  139.3230   69.4970  224.5860 C   0  0  0  0  0  0  0  0  0  0  0  0
  139.8660   69.8170  225.8230 C   0  0  0  0  0  0  0  0  0  0  0  0
  139.7040   68.9190  226.8510 C   0  0  0  0  0  0  0  0  0  0  0  0
  140.2380   69.2130  228.1000 C   0  0  0  0  0  0  0  0  0  0  0  0
  140.0580   68.2950  229.1050 F   0  0  0  0  0  0  0  0  0  0  0  0
  140.9160   70.3860  228.2950 C   0  0  0  0  0  0  0  0  0  0  0  0
  141.0650   71.2780  227.2300 C   0  0  0  0  0  0  0  0  0  0  0  0
  140.5450   71.0110  225.9790 C   0  0  0  0  0  0  0  0  0  0  0  0
  140.6790   71.8590  224.9420 N   0  0  0  0  0  0  0  0  0  0  0  0
  138.4070   73.4200  222.9550 H   0  0  0  0  0  0  0  0  0  0  0  0
  140.2983   74.2007  220.6931 H   0  0  0  0  0  0  0  0  0  0  0  0
  138.5207   74.2913  220.5742 H   0  0  0  0  0  0  0  0  0  0  0  0
  142.1769   76.4365  221.4978 H   0  0  0  0  0  0  0  0  0  0  0  0
  141.5075   75.8370  219.9747 H   0  0  0  0  0  0  0  0  0  0  0  0
  142.8495   78.2234  220.2429 H   0  0  0  0  0  0  0  0  0  0  0  0
  141.6593   77.9329  218.9680 H   0  0  0  0  0  0  0  0  0  0  0  0
  140.7150   79.8115  220.0151 H   0  0  0  0  0  0  0  0  0  0  0  0
  139.6184   80.5353  222.7226 H   0  0  0  0  0  0  0  0  0  0  0  0
  143.6269   80.3065  224.2410 H   0  0  0  0  0  0  0  0  0  0  0  0
  143.5230   78.9940  221.9870 H   0  0  0  0  0  0  0  0  0  0  0  0
  139.2407   78.5583  222.0058 H   0  0  0  0  0  0  0  0  0  0  0  0
  138.8837   78.2611  220.3068 H   0  0  0  0  0  0  0  0  0  0  0  0
  139.0668   70.1726  222.5705 H   0  0  0  0  0  0  0  0  0  0  0  0
  138.7787   68.5541  224.4288 H   0  0  0  0  0  0  0  0  0  0  0  0
  139.1579   67.9783  226.6870 H   0  0  0  0  0  0  0  0  0  0  0  0
  141.3399   70.6243  229.2817 H   0  0  0  0  0  0  0  0  0  0  0  0
  141.6115   72.2187  227.3925 H   0  0  0  0  0  0  0  0  0  0  0  0
  1  2  2  0
  2  3  1  0
  3  4  1  0
  4  5  1  0
  5  6  2  0
  5  7  1  0
  7  8  1  0
  8  9  1  0
  9 10  1  0
 10 11  1  0
 11 12  2  0
 12 13  1  0
 13 14  2  0
 14 15  1  0
 10 16  1  0
  2 17  1  0
 17 18  2  0
 18 19  1  0
 19 20  2  0
 20 21  1  0
 21 22  2  0
 22 23  1  0
 22 24  1  0
 24 25  2  0
 25 26  1  0
 26 27  2  0
 16  7  1  0
 27 17  1  0
 15 11  1  0
 26 20  1  0
  3 28  1  0
  4 29  1  0
  4 30  1  0
  8 31  1  0
  8 32  1  0
  9 33  1  0
  9 34  1  0
 10 35  1  6
 12 36  1  0
 14 37  1  0
 15 38  1  0
 16 39  1  0
 16 40  1  0
 18 41  1  0
 19 42  1  0
 21 43  1  0
 24 44  1  0
 25 45  1  0
M  END
>  <smiles>  (6) 
O=C(NCC(=O)N1CC[C@H](c2cnc[nH]2)C1)c1ccc2cc(F)ccc2n1

>  <score_type>  (6) 
oracle

>  <origin>  (6) 
autodockgpu

>  <m_score__min__energy>  (6) 
-8.3800000000000008

>  <m_primary>  (6) 
energy

>  <rmsd>  (6) 
2.453325859169463

>  <m_score__min__rmsd>  (6) 
2.453325859169463

>  <meeko>  (6) 
{"free_energy": -8.38, "intermolecular_energy": -9.87, "internal_energy": -1.11, "cluster_size": 36, "cluster_id": 1, "rank_in_cluster": 1}

>  <energy>  (6) 
-8.34

>  <cluster_rmsd>  (6) 
0.48

>  <cluster>  (6) 
1

$$$$

     RDKit          3D

 45 48  0  0  0  0  0  0  0  0999 V2000
  141.2600   72.5630  221.6410 O   0  0  0  0  0  0  0  0  0  0  0  0
  140.2900   72.6340  222.4220 C   0  0  0  0  0  0  0  0  0  0  0  0
  139.2650   73.6170  222.3400 N   0  0  0  0  0  0  0  0  0  0  0  0
  139.3190   74.6110  221.3010 C   0  0  0  0  0  0  0  0  0  0  0  0
  138.7490   75.8720  221.8500 C   0  0  0  0  0  0  0  0  0  0  0  0
  137.5120   76.0480  221.9600 O   0  0  0  0  0  0  0  0  0  0  0  0
  139.5870   76.9590  222.2830 N   0  0  0  0  0  0  0  0  0  0  0  0
  139.0730   78.2090  222.7310 C   0  0  0  0  0  0  0  0  0  0  0  0
  140.2540   78.9860  223.1860 C   0  0  0  0  0  0  0  0  0  0  0  0
  141.4280   78.3650  222.5050 C   0  0  2  0  0  0  0  0  0  0  0  0
  141.6960   78.9490  221.1570 C   0  0  0  0  0  0  0  0  0  0  0  0
  141.8300   80.3210  220.9740 C   0  0  0  0  0  0  0  0  0  0  0  0
  142.0650   80.4980  219.6610 N   0  0  0  0  0  0  0  0  0  0  0  0
  142.0770   79.2910  219.0440 C   0  0  0  0  0  0  0  0  0  0  0  0
  141.8470   78.3350  219.9760 N   0  0  0  0  0  0  0  0  0  0  0  0
  141.0310   76.9330  222.3240 C   0  0  0  0  0  0  0  0  0  0  0  0
  140.1920   71.6370  223.5010 C   0  0  0  0  0  0  0  0  0  0  0  0
  139.6270   70.3970  223.2830 C   0  0  0  0  0  0  0  0  0  0  0  0
  139.5180   69.4350  224.2730 C   0  0  0  0  0  0  0  0  0  0  0  0
  140.0060   69.7530  225.5340 C   0  0  0  0  0  0  0  0  0  0  0  0
  139.9030   68.8040  226.5230 C   0  0  0  0  0  0  0  0  0  0  0  0
  140.3820   69.0960  227.7950 C   0  0  0  0  0  0  0  0  0  0  0  0
  140.2650   68.1270  228.7610 F   0  0  0  0  0  0  0  0  0  0  0  0
  140.9490   70.3150  228.0500 C   0  0  0  0  0  0  0  0  0  0  0  0
  141.0400   71.2580  227.0230 C   0  0  0  0  0  0  0  0  0  0  0  0
  140.5710   70.9950  225.7500 C   0  0  0  0  0  0  0  0  0  0  0  0
  140.6510   71.8910  224.7480 N   0  0  0  0  0  0  0  0  0  0  0  0
  138.4810   73.6010  223.0420 H   0  0  0  0  0  0  0  0  0  0  0  0
  140.3623   74.7745  220.9930 H   0  0  0  0  0  0  0  0  0  0  0  0
  138.7465   74.2804  220.4218 H   0  0  0  0  0  0  0  0  0  0  0  0
  138.5631   78.7317  221.9083 H   0  0  0  0  0  0  0  0  0  0  0  0
  138.3350   78.0807  223.5366 H   0  0  0  0  0  0  0  0  0  0  0  0
  140.1548   80.0419  222.8942 H   0  0  0  0  0  0  0  0  0  0  0  0
  140.3592   78.9640  224.2807 H   0  0  0  0  0  0  0  0  0  0  0  0
  142.3408   78.5214  223.0987 H   0  0  0  0  0  0  0  0  0  0  0  0
  141.7585   81.1021  221.7452 H   0  0  0  0  0  0  0  0  0  0  0  0
  142.2447   79.1176  217.9708 H   0  0  0  0  0  0  0  0  0  0  0  0
  141.8000   77.3100  219.8010 H   0  0  0  0  0  0  0  0  0  0  0  0
  141.4393   76.5324  221.3844 H   0  0  0  0  0  0  0  0  0  0  0  0
  141.4145   76.2883  223.1285 H   0  0  0  0  0  0  0  0  0  0  0  0
  139.2463   70.1623  222.2780 H   0  0  0  0  0  0  0  0  0  0  0  0
  139.0618   68.4552  224.0684 H   0  0  0  0  0  0  0  0  0  0  0  0
  139.4472   67.8256  226.3106 H   0  0  0  0  0  0  0  0  0  0  0  0
  141.3298   70.5505  229.0548 H   0  0  0  0  0  0  0  0  0  0  0  0
  141.4973   72.2361  227.2334 H   0  0  0  0  0  0  0  0  0  0  0  0
  1  2  2  0
  2  3  1  0
  3  4  1  0
  4  5  1  0
  5  6  2  0
  5  7  1  0
  7  8  1  0
  8  9  1  0
  9 10  1  0
 10 11  1  0
 11 12  2  0
 12 13  1  0
 13 14  2  0
 14 15  1  0
 10 16  1  0
  2 17  1  0
 17 18  2  0
 18 19  1  0
 19 20  2  0
 20 21  1  0
 21 22  2  0
 22 23  1  0
 22 24  1  0
 24 25  2  0
 25 26  1  0
 26 27  2  0
 16  7  1  0
 27 17  1  0
 15 11  1  0
 26 20  1  0
  3 28  1  0
  4 29  1  0
  4 30  1  0
  8 31  1  0
  8 32  1  0
  9 33  1  0
  9 34  1  0
 10 35  1  1
 12 36  1  0
 14 37  1  0
 15 38  1  0
 16 39  1  0
 16 40  1  0
 18 41  1  0
 19 42  1  0
 21 43  1  0
 24 44  1  0
 25 45  1  0
M  END
>  <smiles>  (7) 
O=C(NCC(=O)N1CC[C@H](c2cnc[nH]2)C1)c1ccc2cc(F)ccc2n1

>  <score_type>  (7) 
oracle

>  <origin>  (7) 
autodockgpu

>  <m_score__min__energy>  (7) 
-8.3800000000000008

>  <m_primary>  (7) 
energy

>  <rmsd>  (7) 
3.1941317635971203

>  <m_score__min__rmsd>  (7) 
3.1941317635971203

>  <meeko>  (7) 
{"free_energy": -7.46, "intermolecular_energy": -8.96, "internal_energy": -1.02, "cluster_size": 36, "cluster_id": 1, "rank_in_cluster": 34}

>  <energy>  (7) 
-8.32

>  <cluster_rmsd>  (7) 
0.5

>  <cluster>  (7) 
1

$$$$

     RDKit          3D

 45 48  0  0  0  0  0  0  0  0999 V2000
  140.5090   71.8150  221.1400 O   0  0  0  0  0  0  0  0  0  0  0  0
  140.1530   72.3250  222.2230 C   0  0  0  0  0  0  0  0  0  0  0  0
  139.8240   73.6990  222.3920 N   0  0  0  0  0  0  0  0  0  0  0  0
  139.8970   74.5880  221.2630 C   0  0  0  0  0  0  0  0  0  0  0  0
  139.7770   75.9810  221.7750 C   0  0  0  0  0  0  0  0  0  0  0  0
  139.1090   76.2560  222.8000 O   0  0  0  0  0  0  0  0  0  0  0  0
  140.4210   77.0880  221.1180 N   0  0  0  0  0  0  0  0  0  0  0  0
  141.6880   76.9830  220.4760 C   0  0  0  0  0  0  0  0  0  0  0  0
  141.9220   78.3040  219.8390 C   0  0  0  0  0  0  0  0  0  0  0  0
  141.0410   79.2630  220.5690 C   0  0  2  0  0  0  0  0  0  0  0  0
  141.6930   79.8490  221.7780 C   0  0  0  0  0  0  0  0  0  0  0  0
  141.2460   81.0410  222.3370 C   0  0  0  0  0  0  0  0  0  0  0  0
  142.0410   81.2730  223.3980 N   0  0  0  0  0  0  0  0  0  0  0  0
  142.9490   80.2710  223.5020 C   0  0  0  0  0  0  0  0  0  0  0  0
  142.7290   79.3920  222.4950 N   0  0  0  0  0  0  0  0  0  0  0  0
  139.8850   78.4270  221.0200 C   0  0  0  0  0  0  0  0  0  0  0  0
  140.0640   71.4530  223.4050 C   0  0  0  0  0  0  0  0  0  0  0  0
  139.5700   70.1680  223.3130 C   0  0  0  0  0  0  0  0  0  0  0  0
  139.4710   69.3200  224.4040 C   0  0  0  0  0  0  0  0  0  0  0  0
  139.8940   69.8040  225.6340 C   0  0  0  0  0  0  0  0  0  0  0  0
  139.8010   68.9690  226.7220 C   0  0  0  0  0  0  0  0  0  0  0  0
  140.2170   69.4280  227.9670 C   0  0  0  0  0  0  0  0  0  0  0  0
  140.1110   68.5700  229.0330 F   0  0  0  0  0  0  0  0  0  0  0  0
  140.7130   70.6970  228.0970 C   0  0  0  0  0  0  0  0  0  0  0  0
  140.7960   71.5210  226.9720 C   0  0  0  0  0  0  0  0  0  0  0  0
  140.3890   71.0910  225.7240 C   0  0  0  0  0  0  0  0  0  0  0  0
  140.4620   71.8710  224.6290 N   0  0  0  0  0  0  0  0  0  0  0  0
  139.5320   74.0430  223.3420 H   0  0  0  0  0  0  0  0  0  0  0  0
  140.8601   74.4601  220.7472 H   0  0  0  0  0  0  0  0  0  0  0  0
  139.0902   74.3696  220.5479 H   0  0  0  0  0  0  0  0  0  0  0  0
  142.4755   76.7669  221.2130 H   0  0  0  0  0  0  0  0  0  0  0  0
  141.7052   76.1664  219.7392 H   0  0  0  0  0  0  0  0  0  0  0  0
  142.9771   78.5979  219.9408 H   0  0  0  0  0  0  0  0  0  0  0  0
  141.6967   78.2826  218.7625 H   0  0  0  0  0  0  0  0  0  0  0  0
  140.7752   80.1091  219.9182 H   0  0  0  0  0  0  0  0  0  0  0  0
  140.4129   81.6666  221.9842 H   0  0  0  0  0  0  0  0  0  0  0  0
  143.7301   80.1866  224.2719 H   0  0  0  0  0  0  0  0  0  0  0  0
  143.2680   78.5200  222.3170 H   0  0  0  0  0  0  0  0  0  0  0  0
  139.5154   78.7701  221.9976 H   0  0  0  0  0  0  0  0  0  0  0  0
  139.0320   78.4858  220.3279 H   0  0  0  0  0  0  0  0  0  0  0  0
  139.2402   69.8007  222.3300 H   0  0  0  0  0  0  0  0  0  0  0  0
  139.0717   68.3004  224.2992 H   0  0  0  0  0  0  0  0  0  0  0  0
  139.4023   67.9500  226.6092 H   0  0  0  0  0  0  0  0  0  0  0  0
  141.0436   71.0651  229.0794 H   0  0  0  0  0  0  0  0  0  0  0  0
  141.1962   72.5396  227.0830 H   0  0  0  0  0  0  0  0  0  0  0  0
  1  2  2  0
  2  3  1  0
  3  4  1  0
  4  5  1  0
  5  6  2  0
  5  7  1  0
  7  8  1  0
  8  9  1  0
  9 10  1  0
 10 11  1  0
 11 12  2  0
 12 13  1  0
 13 14  2  0
 14 15  1  0
 10 16  1  0
  2 17  1  0
 17 18  2  0
 18 19  1  0
 19 20  2  0
 20 21  1  0
 21 22  2  0
 22 23  1  0
 22 24  1  0
 24 25  2  0
 25 26  1  0
 26 27  2  0
 16  7  1  0
 27 17  1  0
 15 11  1  0
 26 20  1  0
  3 28  1  0
  4 29  1  0
  4 30  1  0
  8 31  1  0
  8 32  1  0
  9 33  1  0
  9 34  1  0
 10 35  1  6
 12 36  1  0
 14 37  1  0
 15 38  1  0
 16 39  1  0
 16 40  1  0
 18 41  1  0
 19 42  1  0
 21 43  1  0
 24 44  1  0
 25 45  1  0
M  END
>  <smiles>  (8) 
O=C(NCC(=O)N1CC[C@H](c2cnc[nH]2)C1)c1ccc2cc(F)ccc2n1

>  <score_type>  (8) 
oracle

>  <origin>  (8) 
autodockgpu

>  <m_score__min__energy>  (8) 
-8.3800000000000008

>  <m_primary>  (8) 
energy

>  <rmsd>  (8) 
2.4943502541397313

>  <m_score__min__rmsd>  (8) 
2.4943502541397313

>  <meeko>  (8) 
{"free_energy": -8.12, "intermolecular_energy": -9.62, "internal_energy": -1.48, "cluster_size": 36, "cluster_id": 1, "rank_in_cluster": 18}

>  <energy>  (8) 
-8.32

>  <cluster_rmsd>  (8) 
0.49

>  <cluster>  (8) 
1

$$$$

     RDKit          3D

 45 48  0  0  0  0  0  0  0  0999 V2000
  141.1760   72.4560  221.8120 O   0  0  0  0  0  0  0  0  0  0  0  0
  140.1630   72.4740  222.5410 C   0  0  0  0  0  0  0  0  0  0  0  0
  139.0510   73.3410  222.3460 N   0  0  0  0  0  0  0  0  0  0  0  0
  139.0630   74.2710  221.2490 C   0  0  0  0  0  0  0  0  0  0  0  0
  139.2110   75.6400  221.8150 C   0  0  0  0  0  0  0  0  0  0  0  0
  138.5400   76.0270  222.8010 O   0  0  0  0  0  0  0  0  0  0  0  0
  140.1350   76.5940  221.2610 N   0  0  0  0  0  0  0  0  0  0  0  0
  141.4690   76.2610  220.8870 C   0  0  0  0  0  0  0  0  0  0  0  0
  142.0260   77.4880  220.2630 C   0  0  0  0  0  0  0  0  0  0  0  0
  141.1850   78.6120  220.7700 C   0  0  2  0  0  0  0  0  0  0  0  0
  141.6800   79.1730  222.0630 C   0  0  0  0  0  0  0  0  0  0  0  0
  140.9660   79.0080  223.2450 C   0  0  0  0  0  0  0  0  0  0  0  0
  141.6860   79.6240  224.2010 N   0  0  0  0  0  0  0  0  0  0  0  0
  142.8040   80.1530  223.6440 C   0  0  0  0  0  0  0  0  0  0  0  0
  142.7940   79.8710  222.3190 N   0  0  0  0  0  0  0  0  0  0  0  0
  139.8460   77.9880  221.0120 C   0  0  0  0  0  0  0  0  0  0  0  0
  140.1060   71.5400  223.6760 C   0  0  0  0  0  0  0  0  0  0  0  0
  139.5630   70.2780  223.5420 C   0  0  0  0  0  0  0  0  0  0  0  0
  139.4930   69.3730  224.5870 C   0  0  0  0  0  0  0  0  0  0  0  0
  139.9990   69.7720  225.8180 C   0  0  0  0  0  0  0  0  0  0  0  0
  139.9340   68.8810  226.8610 C   0  0  0  0  0  0  0  0  0  0  0  0
  140.4320   69.2540  228.1050 C   0  0  0  0  0  0  0  0  0  0  0  0
  140.3530   68.3410  229.1260 F   0  0  0  0  0  0  0  0  0  0  0  0
  140.9790   70.4970  228.2770 C   0  0  0  0  0  0  0  0  0  0  0  0
  141.0300   71.3810  227.1960 C   0  0  0  0  0  0  0  0  0  0  0  0
  140.5420   71.0360  225.9500 C   0  0  0  0  0  0  0  0  0  0  0  0
  140.5840   71.8740  224.8980 N   0  0  0  0  0  0  0  0  0  0  0  0
  138.2370   73.2880  223.0110 H   0  0  0  0  0  0  0  0  0  0  0  0
  139.9074   74.0494  220.5797 H   0  0  0  0  0  0  0  0  0  0  0  0
  138.1315   74.1935  220.6691 H   0  0  0  0  0  0  0  0  0  0  0  0
  142.0574   75.9795  221.7728 H   0  0  0  0  0  0  0  0  0  0  0  0
  141.4969   75.4045  220.1973 H   0  0  0  0  0  0  0  0  0  0  0  0
  143.0754   77.6284  220.5615 H   0  0  0  0  0  0  0  0  0  0  0  0
  142.0096   77.4300  219.1647 H   0  0  0  0  0  0  0  0  0  0  0  0
  141.1846   79.4437  220.0501 H   0  0  0  0  0  0  0  0  0  0  0  0
  140.0086   78.4817  223.3726 H   0  0  0  0  0  0  0  0  0  0  0  0
  143.5851   80.7149  224.1770 H   0  0  0  0  0  0  0  0  0  0  0  0
  143.5240   80.1460  221.6300 H   0  0  0  0  0  0  0  0  0  0  0  0
  139.3561   78.4452  221.8843 H   0  0  0  0  0  0  0  0  0  0  0  0
  139.1604   78.1275  220.1632 H   0  0  0  0  0  0  0  0  0  0  0  0
  139.1680   69.9779  222.5602 H   0  0  0  0  0  0  0  0  0  0  0  0
  139.0529   68.3745  224.4480 H   0  0  0  0  0  0  0  0  0  0  0  0
  139.4932   67.8839  226.7143 H   0  0  0  0  0  0  0  0  0  0  0  0
  141.3752   70.7975  229.2582 H   0  0  0  0  0  0  0  0  0  0  0  0
  141.4705   72.3785  227.3408 H   0  0  0  0  0  0  0  0  0  0  0  0
  1  2  2  0
  2  3  1  0
  3  4  1  0
  4  5  1  0
  5  6  2  0
  5  7  1  0
  7  8  1  0
  8  9  1  0
  9 10  1  0
 10 11  1  0
 11 12  2  0
 12 13  1  0
 13 14  2  0
 14 15  1  0
 10 16  1  0
  2 17  1  0
 17 18  2  0
 18 19  1  0
 19 20  2  0
 20 21  1  0
 21 22  2  0
 22 23  1  0
 22 24  1  0
 24 25  2  0
 25 26  1  0
 26 27  2  0
 16  7  1  0
 27 17  1  0
 15 11  1  0
 26 20  1  0
  3 28  1  0
  4 29  1  0
  4 30  1  0
  8 31  1  0
  8 32  1  0
  9 33  1  0
  9 34  1  0
 10 35  1  6
 12 36  1  0
 14 37  1  0
 15 38  1  0
 16 39  1  0
 16 40  1  0
 18 41  1  0
 19 42  1  0
 21 43  1  0
 24 44  1  0
 25 45  1  0
M  END
>  <smiles>  (9) 
O=C(NCC(=O)N1CC[C@H](c2cnc[nH]2)C1)c1ccc2cc(F)ccc2n1

>  <score_type>  (9) 
oracle

>  <origin>  (9) 
autodockgpu

>  <m_score__min__energy>  (9) 
-8.3800000000000008

>  <m_primary>  (9) 
energy

>  <rmsd>  (9) 
2.3812298981641784

>  <m_score__min__rmsd>  (9) 
2.3812298981641784

>  <meeko>  (9) 
{"free_energy": -8.34, "intermolecular_energy": -9.83, "internal_energy": -1.13, "cluster_size": 36, "cluster_id": 1, "rank_in_cluster": 6}

>  <energy>  (9) 
-8.3

>  <cluster_rmsd>  (9) 
0.55

>  <cluster>  (9) 
1

$$$$

     RDKit          3D

 45 48  0  0  0  0  0  0  0  0999 V2000
  140.6190   71.7780  221.1150 O   0  0  0  0  0  0  0  0  0  0  0  0
  140.1250   72.2750  222.1470 C   0  0  0  0  0  0  0  0  0  0  0  0
  139.6070   73.5980  222.2310 N   0  0  0  0  0  0  0  0  0  0  0  0
  139.6420   74.4460  221.0690 C   0  0  0  0  0  0  0  0  0  0  0  0
  140.6200   75.5380  221.3330 C   0  0  0  0  0  0  0  0  0  0  0  0
  141.8480   75.3150  221.4450 O   0  0  0  0  0  0  0  0  0  0  0  0
  140.2060   76.9090  221.4730 N   0  0  0  0  0  0  0  0  0  0  0  0
  140.1340   77.8170  220.3770 C   0  0  0  0  0  0  0  0  0  0  0  0
  139.5600   79.0680  220.9340 C   0  0  0  0  0  0  0  0  0  0  0  0
  139.8120   79.0050  222.4040 C   0  0  2  0  0  0  0  0  0  0  0  0
  141.1410   79.5660  222.7920 C   0  0  0  0  0  0  0  0  0  0  0  0
  141.2440   80.7390  223.5330 C   0  0  0  0  0  0  0  0  0  0  0  0
  142.5620   80.9520  223.7050 N   0  0  0  0  0  0  0  0  0  0  0  0
  143.2570   79.9570  223.1000 C   0  0  0  0  0  0  0  0  0  0  0  0
  142.3710   79.1020  222.5350 N   0  0  0  0  0  0  0  0  0  0  0  0
  139.8150   77.5400  222.7120 C   0  0  0  0  0  0  0  0  0  0  0  0
  140.0680   71.4450  223.3610 C   0  0  0  0  0  0  0  0  0  0  0  0
  139.5210   70.1780  223.3380 C   0  0  0  0  0  0  0  0  0  0  0  0
  139.4510   69.3680  224.4600 C   0  0  0  0  0  0  0  0  0  0  0  0
  139.9600   69.8730  225.6490 C   0  0  0  0  0  0  0  0  0  0  0  0
  139.8960   69.0760  226.7670 C   0  0  0  0  0  0  0  0  0  0  0  0
  140.3980   69.5560  227.9720 C   0  0  0  0  0  0  0  0  0  0  0  0
  140.3190   68.7360  229.0700 F   0  0  0  0  0  0  0  0  0  0  0  0
  140.9490   70.8070  228.0330 C   0  0  0  0  0  0  0  0  0  0  0  0
  141.0000   71.5930  226.8790 C   0  0  0  0  0  0  0  0  0  0  0  0
  140.5080   71.1410  225.6690 C   0  0  0  0  0  0  0  0  0  0  0  0
  140.5500   71.8840  224.5470 N   0  0  0  0  0  0  0  0  0  0  0  0
  139.2070   73.9360  223.1440 H   0  0  0  0  0  0  0  0  0  0  0  0
  139.9582   73.8645  220.1905 H   0  0  0  0  0  0  0  0  0  0  0  0
  138.6445   74.8634  220.8671 H   0  0  0  0  0  0  0  0  0  0  0  0
  141.1372   78.0040  219.9664 H   0  0  0  0  0  0  0  0  0  0  0  0
  139.5207   77.4172  219.5560 H   0  0  0  0  0  0  0  0  0  0  0  0
  140.0567   79.9466  220.4965 H   0  0  0  0  0  0  0  0  0  0  0  0
  138.4873   79.1597  220.7083 H   0  0  0  0  0  0  0  0  0  0  0  0
  139.0562   79.5914  222.9470 H   0  0  0  0  0  0  0  0  0  0  0  0
  140.4178   81.3642  223.9026 H   0  0  0  0  0  0  0  0  0  0  0  0
  144.3524   79.8607  223.0727 H   0  0  0  0  0  0  0  0  0  0  0  0
  142.6080   78.2400  222.0020 H   0  0  0  0  0  0  0  0  0  0  0  0
  140.5380   77.3121  223.5091 H   0  0  0  0  0  0  0  0  0  0  0  0
  138.8368   77.1866  223.0701 H   0  0  0  0  0  0  0  0  0  0  0  0
  139.1231   69.7944  222.3870 H   0  0  0  0  0  0  0  0  0  0  0  0
  139.0086   68.3621  224.4106 H   0  0  0  0  0  0  0  0  0  0  0  0
  139.4531   68.0707  226.7094 H   0  0  0  0  0  0  0  0  0  0  0  0
  141.3487   71.1909  228.9832 H   0  0  0  0  0  0  0  0  0  0  0  0
  141.4434   72.5981  226.9349 H   0  0  0  0  0  0  0  0  0  0  0  0
  1  2  2  0
  2  3  1  0
  3  4  1  0
  4  5  1  0
  5  6  2  0
  5  7  1  0
  7  8  1  0
  8  9  1  0
  9 10  1  0
 10 11  1  0
 11 12  2  0
 12 13  1  0
 13 14  2  0
 14 15  1  0
 10 16  1  0
  2 17  1  0
 17 18  2  0
 18 19  1  0
 19 20  2  0
 20 21  1  0
 21 22  2  0
 22 23  1  0
 22 24  1  0
 24 25  2  0
 25 26  1  0
 26 27  2  0
 16  7  1  0
 27 17  1  0
 15 11  1  0
 26 20  1  0
  3 28  1  0
  4 29  1  0
  4 30  1  0
  8 31  1  0
  8 32  1  0
  9 33  1  0
  9 34  1  0
 10 35  1  1
 12 36  1  0
 14 37  1  0
 15 38  1  0
 16 39  1  0
 16 40  1  0
 18 41  1  0
 19 42  1  0
 21 43  1  0
 24 44  1  0
 25 45  1  0
M  END
>  <smiles>  (10) 
O=C(NCC(=O)N1CC[C@H](c2cnc[nH]2)C1)c1ccc2cc(F)ccc2n1

>  <score_type>  (10) 
oracle

>  <origin>  (10) 
autodockgpu

>  <m_score__min__energy>  (10) 
-8.3800000000000008

>  <m_primary>  (10) 
energy

>  <rmsd>  (10) 
2.8937676022019225

>  <m_score__min__rmsd>  (10) 
2.8937676022019225

>  <meeko>  (10) 
{"free_energy": -8.17, "intermolecular_energy": -9.66, "internal_energy": -1.07, "cluster_size": 36, "cluster_id": 1, "rank_in_cluster": 16}

>  <energy>  (10) 
-8.29

>  <cluster_rmsd>  (10) 
0.48

>  <cluster>  (10) 
1

$$$$

     RDKit          3D

 45 48  0  0  0  0  0  0  0  0999 V2000
  139.9730   71.3080  221.0770 O   0  0  0  0  0  0  0  0  0  0  0  0
  139.8400   71.8820  222.1770 C   0  0  0  0  0  0  0  0  0  0  0  0
  139.6710   73.2860  222.3330 N   0  0  0  0  0  0  0  0  0  0  0  0
  139.6500   74.1300  221.1670 C   0  0  0  0  0  0  0  0  0  0  0  0
  139.9350   75.5230  221.6100 C   0  0  0  0  0  0  0  0  0  0  0  0
  139.5800   75.9470  222.7350 O   0  0  0  0  0  0  0  0  0  0  0  0
  140.6350   76.4580  220.7690 N   0  0  0  0  0  0  0  0  0  0  0  0
  141.9760   76.2610  220.3330 C   0  0  0  0  0  0  0  0  0  0  0  0
  142.2630   77.3850  219.4060 C   0  0  0  0  0  0  0  0  0  0  0  0
  141.2740   78.4490  219.7490 C   0  0  2  0  0  0  0  0  0  0  0  0
  141.7520   79.3600  220.8320 C   0  0  0  0  0  0  0  0  0  0  0  0
  141.6280   80.7410  220.7250 C   0  0  0  0  0  0  0  0  0  0  0  0
  142.1470   81.2480  221.8580 N   0  0  0  0  0  0  0  0  0  0  0  0
  142.5790   80.2300  222.6450 C   0  0  0  0  0  0  0  0  0  0  0  0
  142.3310   79.0630  222.0030 N   0  0  0  0  0  0  0  0  0  0  0  0
  140.0870   77.6950  220.2610 C   0  0  0  0  0  0  0  0  0  0  0  0
  139.8550   71.0590  223.3970 C   0  0  0  0  0  0  0  0  0  0  0  0
  139.3940   69.7590  223.3910 C   0  0  0  0  0  0  0  0  0  0  0  0
  139.3930   68.9550  224.5190 C   0  0  0  0  0  0  0  0  0  0  0  0
  139.8830   69.5020  225.6980 C   0  0  0  0  0  0  0  0  0  0  0  0
  139.8870   68.7120  226.8220 C   0  0  0  0  0  0  0  0  0  0  0  0
  140.3710   69.2340  228.0170 C   0  0  0  0  0  0  0  0  0  0  0  0
  140.3610   68.4190  229.1220 F   0  0  0  0  0  0  0  0  0  0  0  0
  140.8370   70.5200  228.0620 C   0  0  0  0  0  0  0  0  0  0  0  0
  140.8210   71.2980  226.9010 C   0  0  0  0  0  0  0  0  0  0  0  0
  140.3440   70.8050  225.7020 C   0  0  0  0  0  0  0  0  0  0  0  0
  140.3210   71.5390  224.5730 N   0  0  0  0  0  0  0  0  0  0  0  0
  139.5650   73.6860  223.3000 H   0  0  0  0  0  0  0  0  0  0  0  0
  140.4179   73.7999  220.4519 H   0  0  0  0  0  0  0  0  0  0  0  0
  138.6696   74.0768  220.6710 H   0  0  0  0  0  0  0  0  0  0  0  0
  142.6657   76.2839  221.1896 H   0  0  0  0  0  0  0  0  0  0  0  0
  142.1055   75.2851  219.8422 H   0  0  0  0  0  0  0  0  0  0  0  0
  143.2893   77.7524  219.5537 H   0  0  0  0  0  0  0  0  0  0  0  0
  142.1809   77.0763  218.3534 H   0  0  0  0  0  0  0  0  0  0  0  0
  141.0758   79.0839  218.8729 H   0  0  0  0  0  0  0  0  0  0  0  0
  141.1942   81.3039  219.8854 H   0  0  0  0  0  0  0  0  0  0  0  0
  143.0495   80.3345  223.6338 H   0  0  0  0  0  0  0  0  0  0  0  0
  142.5510   78.1110  222.3610 H   0  0  0  0  0  0  0  0  0  0  0  0
  139.5862   78.2567  221.0633 H   0  0  0  0  0  0  0  0  0  0  0  0
  139.3298   77.5276  219.4809 H   0  0  0  0  0  0  0  0  0  0  0  0
  139.0100   69.3421  222.4483 H   0  0  0  0  0  0  0  0  0  0  0  0
  139.0180   67.9215  224.4824 H   0  0  0  0  0  0  0  0  0  0  0  0
  139.5119   67.6789  226.7775 H   0  0  0  0  0  0  0  0  0  0  0  0
  141.2210   70.9379  229.0043 H   0  0  0  0  0  0  0  0  0  0  0  0
  141.1983   72.3304  226.9432 H   0  0  0  0  0  0  0  0  0  0  0  0
  1  2  2  0
  2  3  1  0
  3  4  1  0
  4  5  1  0
  5  6  2  0
  5  7  1  0
  7  8  1  0
  8  9  1  0
  9 10  1  0
 10 11  1  0
 11 12  2  0
 12 13  1  0
 13 14  2  0
 14 15  1  0
 10 16  1  0
  2 17  1  0
 17 18  2  0
 18 19  1  0
 19 20  2  0
 20 21  1  0
 21 22  2  0
 22 23  1  0
 22 24  1  0
 24 25  2  0
 25 26  1  0
 26 27  2  0
 16  7  1  0
 27 17  1  0
 15 11  1  0
 26 20  1  0
  3 28  1  0
  4 29  1  0
  4 30  1  0
  8 31  1  0
  8 32  1  0
  9 33  1  0
  9 34  1  0
 10 35  1  6
 12 36  1  0
 14 37  1  0
 15 38  1  0
 16 39  1  0
 16 40  1  0
 18 41  1  0
 19 42  1  0
 21 43  1  0
 24 44  1  0
 25 45  1  0
M  END
>  <smiles>  (11) 
O=C(NCC(=O)N1CC[C@H](c2cnc[nH]2)C1)c1ccc2cc(F)ccc2n1

>  <score_type>  (11) 
oracle

>  <origin>  (11) 
autodockgpu

>  <m_score__min__energy>  (11) 
-8.3800000000000008

>  <m_primary>  (11) 
energy

>  <rmsd>  (11) 
1.9961007790384324

>  <m_score__min__rmsd>  (11) 
1.9961007790384324

>  <meeko>  (11) 
{"free_energy": -7.78, "intermolecular_energy": -9.27, "internal_energy": -1.54, "cluster_size": 36, "cluster_id": 1, "rank_in_cluster": 31}

>  <energy>  (11) 
-8.27

>  <cluster_rmsd>  (11) 
0.54

>  <cluster>  (11) 
1

$$$$

     RDKit          3D

 45 48  0  0  0  0  0  0  0  0999 V2000
  141.0830   72.0230  221.2600 O   0  0  0  0  0  0  0  0  0  0  0  0
  140.4520   72.4550  222.2460 C   0  0  0  0  0  0  0  0  0  0  0  0
  139.8990   73.7630  222.3330 N   0  0  0  0  0  0  0  0  0  0  0  0
  140.0600   74.6740  221.2320 C   0  0  0  0  0  0  0  0  0  0  0  0
  139.7820   76.0480  221.7350 C   0  0  0  0  0  0  0  0  0  0  0  0
  139.0060   76.2570  222.6980 O   0  0  0  0  0  0  0  0  0  0  0  0
  140.3890   77.2100  221.1420 N   0  0  0  0  0  0  0  0  0  0  0  0
  141.6460   77.1760  220.4720 C   0  0  0  0  0  0  0  0  0  0  0  0
  141.8400   78.5410  219.9200 C   0  0  0  0  0  0  0  0  0  0  0  0
  140.9530   79.4290  220.7270 C   0  0  2  0  0  0  0  0  0  0  0  0
  141.6150   79.9490  221.9610 C   0  0  0  0  0  0  0  0  0  0  0  0
  140.9910   80.8830  222.7810 C   0  0  0  0  0  0  0  0  0  0  0  0
  141.8520   81.1250  223.7870 N   0  0  0  0  0  0  0  0  0  0  0  0
  142.9680   80.3760  223.6080 C   0  0  0  0  0  0  0  0  0  0  0  0
  142.8160   79.6500  222.4740 N   0  0  0  0  0  0  0  0  0  0  0  0
  139.8230   78.5390  221.1420 C   0  0  0  0  0  0  0  0  0  0  0  0
  140.2630   71.5570  223.3970 C   0  0  0  0  0  0  0  0  0  0  0  0
  139.6490   70.3290  223.2560 C   0  0  0  0  0  0  0  0  0  0  0  0
  139.4540   69.4590  224.3160 C   0  0  0  0  0  0  0  0  0  0  0  0
  139.9030   69.8600  225.5670 C   0  0  0  0  0  0  0  0  0  0  0  0
  139.7150   69.0030  226.6250 C   0  0  0  0  0  0  0  0  0  0  0  0
  140.1540   69.3790  227.8890 C   0  0  0  0  0  0  0  0  0  0  0  0
  139.9500   68.5000  228.9240 F   0  0  0  0  0  0  0  0  0  0  0  0
  140.7670   70.5890  228.0690 C   0  0  0  0  0  0  0  0  0  0  0  0
  140.9450   71.4380  226.9730 C   0  0  0  0  0  0  0  0  0  0  0  0
  140.5170   71.0900  225.7060 C   0  0  0  0  0  0  0  0  0  0  0  0
  140.6810   71.8950  224.6390 N   0  0  0  0  0  0  0  0  0  0  0  0
  139.3800   74.0430  223.2050 H   0  0  0  0  0  0  0  0  0  0  0  0
  141.0887   74.6174  220.8466 H   0  0  0  0  0  0  0  0  0  0  0  0
  139.3696   74.4163  220.4153 H   0  0  0  0  0  0  0  0  0  0  0  0
  142.4517   76.9295  221.1791 H   0  0  0  0  0  0  0  0  0  0  0  0
  141.6664   76.4104  219.6824 H   0  0  0  0  0  0  0  0  0  0  0  0
  142.8903   78.8512  220.0228 H   0  0  0  0  0  0  0  0  0  0  0  0
  141.5952   78.5857  218.8485 H   0  0  0  0  0  0  0  0  0  0  0  0
  140.6570   80.3098  220.1383 H   0  0  0  0  0  0  0  0  0  0  0  0
  139.9972   81.3321  222.6370 H   0  0  0  0  0  0  0  0  0  0  0  0
  143.8464   80.3604  224.2700 H   0  0  0  0  0  0  0  0  0  0  0  0
  143.5080   78.9800  222.0800 H   0  0  0  0  0  0  0  0  0  0  0  0
  139.4646   78.8087  222.1464 H   0  0  0  0  0  0  0  0  0  0  0  0
  138.9560   78.6239  220.4703 H   0  0  0  0  0  0  0  0  0  0  0  0
  139.2990   70.0279  222.2576 H   0  0  0  0  0  0  0  0  0  0  0  0
  138.9614   68.4861  224.1719 H   0  0  0  0  0  0  0  0  0  0  0  0
  139.2229   68.0310  226.4731 H   0  0  0  0  0  0  0  0  0  0  0  0
  141.1166   70.8909  229.0673 H   0  0  0  0  0  0  0  0  0  0  0  0
  141.4391   72.4093  227.1231 H   0  0  0  0  0  0  0  0  0  0  0  0
  1  2  2  0
  2  3  1  0
  3  4  1  0
  4  5  1  0
  5  6  2  0
  5  7  1  0
  7  8  1  0
  8  9  1  0
  9 10  1  0
 10 11  1  0
 11 12  2  0
 12 13  1  0
 13 14  2  0
 14 15  1  0
 10 16  1  0
  2 17  1  0
 17 18  2  0
 18 19  1  0
 19 20  2  0
 20 21  1  0
 21 22  2  0
 22 23  1  0
 22 24  1  0
 24 25  2  0
 25 26  1  0
 26 27  2  0
 16  7  1  0
 27 17  1  0
 15 11  1  0
 26 20  1  0
  3 28  1  0
  4 29  1  0
  4 30  1  0
  8 31  1  0
  8 32  1  0
  9 33  1  0
  9 34  1  0
 10 35  1  6
 12 36  1  0
 14 37  1  0
 15 38  1  0
 16 39  1  0
 16 40  1  0
 18 41  1  0
 19 42  1  0
 21 43  1  0
 24 44  1  0
 25 45  1  0
M  END
>  <smiles>  (12) 
O=C(NCC(=O)N1CC[C@H](c2cnc[nH]2)C1)c1ccc2cc(F)ccc2n1

>  <score_type>  (12) 
oracle

>  <origin>  (12) 
autodockgpu

>  <m_score__min__energy>  (12) 
-8.3800000000000008

>  <m_primary>  (12) 
energy

>  <rmsd>  (12) 
2.626215824876649

>  <m_score__min__rmsd>  (12) 
2.626215824876649

>  <meeko>  (12) 
{"free_energy": -8.35, "intermolecular_energy": -9.84, "internal_energy": -1.43, "cluster_size": 36, "cluster_id": 1, "rank_in_cluster": 5}

>  <energy>  (12) 
-8.26

>  <cluster_rmsd>  (12) 
0.55

>  <cluster>  (12) 
1

$$$$

     RDKit          3D

 45 48  0  0  0  0  0  0  0  0999 V2000
  141.0310   71.9560  221.2250 O   0  0  0  0  0  0  0  0  0  0  0  0
  140.4290   72.4050  222.2230 C   0  0  0  0  0  0  0  0  0  0  0  0
  139.9010   73.7230  222.3130 N   0  0  0  0  0  0  0  0  0  0  0  0
  140.0550   74.6250  221.2020 C   0  0  0  0  0  0  0  0  0  0  0  0
  139.8280   76.0080  221.7060 C   0  0  0  0  0  0  0  0  0  0  0  0
  139.1090   76.2410  222.7060 O   0  0  0  0  0  0  0  0  0  0  0  0
  140.4230   77.1540  221.0690 N   0  0  0  0  0  0  0  0  0  0  0  0
  141.6610   77.0990  220.3670 C   0  0  0  0  0  0  0  0  0  0  0  0
  141.8450   78.4490  219.7780 C   0  0  0  0  0  0  0  0  0  0  0  0
  140.9840   79.3600  220.5880 C   0  0  2  0  0  0  0  0  0  0  0  0
  141.6810   79.9060  221.7910 C   0  0  0  0  0  0  0  0  0  0  0  0
  141.2550   81.0760  222.4080 C   0  0  0  0  0  0  0  0  0  0  0  0
  142.0900   81.2740  223.4440 N   0  0  0  0  0  0  0  0  0  0  0  0
  143.0030   80.2710  223.4780 C   0  0  0  0  0  0  0  0  0  0  0  0
  142.7450   79.4260  222.4500 N   0  0  0  0  0  0  0  0  0  0  0  0
  139.8620   78.4850  221.0540 C   0  0  0  0  0  0  0  0  0  0  0  0
  140.2480   71.5190  223.3830 C   0  0  0  0  0  0  0  0  0  0  0  0
  139.6160   70.2980  223.2620 C   0  0  0  0  0  0  0  0  0  0  0  0
  139.4290   69.4380  224.3320 C   0  0  0  0  0  0  0  0  0  0  0  0
  139.9060   69.8420  225.5720 C   0  0  0  0  0  0  0  0  0  0  0  0
  139.7250   68.9950  226.6390 C   0  0  0  0  0  0  0  0  0  0  0  0
  140.1920   69.3740  227.8930 C   0  0  0  0  0  0  0  0  0  0  0  0
  139.9950   68.5060  228.9380 F   0  0  0  0  0  0  0  0  0  0  0  0
  140.8240   70.5770  228.0520 C   0  0  0  0  0  0  0  0  0  0  0  0
  140.9930   71.4160  226.9470 C   0  0  0  0  0  0  0  0  0  0  0  0
  140.5380   71.0650  225.6910 C   0  0  0  0  0  0  0  0  0  0  0  0
  140.6930   71.8600  224.6150 N   0  0  0  0  0  0  0  0  0  0  0  0
  139.4070   74.0190  223.1940 H   0  0  0  0  0  0  0  0  0  0  0  0
  141.0705   74.5392  220.7879 H   0  0  0  0  0  0  0  0  0  0  0  0
  139.3353   74.3822  220.4063 H   0  0  0  0  0  0  0  0  0  0  0  0
  142.4845   76.8659  221.0581 H   0  0  0  0  0  0  0  0  0  0  0  0
  141.6574   76.3149  219.5955 H   0  0  0  0  0  0  0  0  0  0  0  0
  142.8990   78.7567  219.8445 H   0  0  0  0  0  0  0  0  0  0  0  0
  141.5710   78.4696  218.7129 H   0  0  0  0  0  0  0  0  0  0  0  0
  140.6760   80.2283  219.9871 H   0  0  0  0  0  0  0  0  0  0  0  0
  140.4076   81.7109  222.1100 H   0  0  0  0  0  0  0  0  0  0  0  0
  143.8136   80.1622  224.2136 H   0  0  0  0  0  0  0  0  0  0  0  0
  143.2770   78.5620  222.2210 H   0  0  0  0  0  0  0  0  0  0  0  0
  139.5322   78.7792  222.0613 H   0  0  0  0  0  0  0  0  0  0  0  0
  138.9771   78.5585  220.4047 H   0  0  0  0  0  0  0  0  0  0  0  0
  139.2443   69.9942  222.2722 H   0  0  0  0  0  0  0  0  0  0  0  0
  138.9213   68.4706  224.2040 H   0  0  0  0  0  0  0  0  0  0  0  0
  139.2169   68.0289  226.5029 H   0  0  0  0  0  0  0  0  0  0  0  0
  141.1961   70.8814  229.0414 H   0  0  0  0  0  0  0  0  0  0  0  0
  141.5021   72.3818  227.0812 H   0  0  0  0  0  0  0  0  0  0  0  0
  1  2  2  0
  2  3  1  0
  3  4  1  0
  4  5  1  0
  5  6  2  0
  5  7  1  0
  7  8  1  0
  8  9  1  0
  9 10  1  0
 10 11  1  0
 11 12  2  0
 12 13  1  0
 13 14  2  0
 14 15  1  0
 10 16  1  0
  2 17  1  0
 17 18  2  0
 18 19  1  0
 19 20  2  0
 20 21  1  0
 21 22  2  0
 22 23  1  0
 22 24  1  0
 24 25  2  0
 25 26  1  0
 26 27  2  0
 16  7  1  0
 27 17  1  0
 15 11  1  0
 26 20  1  0
  3 28  1  0
  4 29  1  0
  4 30  1  0
  8 31  1  0
  8 32  1  0
  9 33  1  0
  9 34  1  0
 10 35  1  6
 12 36  1  0
 14 37  1  0
 15 38  1  0
 16 39  1  0
 16 40  1  0
 18 41  1  0
 19 42  1  0
 21 43  1  0
 24 44  1  0
 25 45  1  0
M  END
>  <smiles>  (13) 
O=C(NCC(=O)N1CC[C@H](c2cnc[nH]2)C1)c1ccc2cc(F)ccc2n1

>  <score_type>  (13) 
oracle

>  <origin>  (13) 
autodockgpu

>  <m_score__min__energy>  (13) 
-8.3800000000000008

>  <m_primary>  (13) 
energy

>  <rmsd>  (13) 
2.5609764628832665

>  <m_score__min__rmsd>  (13) 
2.5609764628832665

>  <meeko>  (13) 
{"free_energy": -8.3, "intermolecular_energy": -9.8, "internal_energy": -1.44, "cluster_size": 36, "cluster_id": 1, "rank_in_cluster": 9}

>  <energy>  (13) 
-8.26

>  <cluster_rmsd>  (13) 
0.54

>  <cluster>  (13) 
1

$$$$

     RDKit          3D

 45 48  0  0  0  0  0  0  0  0999 V2000
  141.4560   71.5360  222.1000 O   0  0  0  0  0  0  0  0  0  0  0  0
  140.5320   71.8070  222.8960 C   0  0  0  0  0  0  0  0  0  0  0  0
  139.4320   72.6540  222.5870 N   0  0  0  0  0  0  0  0  0  0  0  0
  139.3460   73.2560  221.2820 C   0  0  0  0  0  0  0  0  0  0  0  0
  140.2340   74.4510  221.2740 C   0  0  0  0  0  0  0  0  0  0  0  0
  140.1570   75.3410  222.1540 O   0  0  0  0  0  0  0  0  0  0  0  0
  141.2300   74.6480  220.2540 N   0  0  0  0  0  0  0  0  0  0  0  0
  141.0260   74.3010  218.8880 C   0  0  0  0  0  0  0  0  0  0  0  0
  142.2380   74.7720  218.1720 C   0  0  0  0  0  0  0  0  0  0  0  0
  143.2980   74.8950  219.2160 C   0  0  2  0  0  0  0  0  0  0  0  0
  144.0500   73.6230  219.4350 C   0  0  0  0  0  0  0  0  0  0  0  0
  145.2360   73.3560  218.7580 C   0  0  0  0  0  0  0  0  0  0  0  0
  145.6420   72.1480  219.1880 N   0  0  0  0  0  0  0  0  0  0  0  0
  144.7520   71.6750  220.0950 C   0  0  0  0  0  0  0  0  0  0  0  0
  143.7670   72.5930  220.2440 N   0  0  0  0  0  0  0  0  0  0  0  0
  142.5430   75.2130  220.4680 C   0  0  0  0  0  0  0  0  0  0  0  0
  140.5780   71.2140  224.2420 C   0  0  0  0  0  0  0  0  0  0  0  0
  141.0600   71.9240  225.3220 C   0  0  0  0  0  0  0  0  0  0  0  0
  141.1190   71.3990  226.6030 C   0  0  0  0  0  0  0  0  0  0  0  0
  140.6660   70.0990  226.7850 C   0  0  0  0  0  0  0  0  0  0  0  0
  140.7190   69.5700  228.0520 C   0  0  0  0  0  0  0  0  0  0  0  0
  140.2730   68.2700  228.2640 C   0  0  0  0  0  0  0  0  0  0  0  0
  140.3390   67.7710  229.5410 F   0  0  0  0  0  0  0  0  0  0  0  0
  139.7870   67.5350  227.2160 C   0  0  0  0  0  0  0  0  0  0  0  0
  139.7460   68.1010  225.9400 C   0  0  0  0  0  0  0  0  0  0  0  0
  140.1830   69.3900  225.7010 C   0  0  0  0  0  0  0  0  0  0  0  0
  140.1500   69.9530  224.4790 N   0  0  0  0  0  0  0  0  0  0  0  0
  138.6960   72.8280  223.3190 H   0  0  0  0  0  0  0  0  0  0  0  0
  139.6765   72.5388  220.5163 H   0  0  0  0  0  0  0  0  0  0  0  0
  138.3085   73.5461  221.0597 H   0  0  0  0  0  0  0  0  0  0  0  0
  140.9155   73.2118  218.7807 H   0  0  0  0  0  0  0  0  0  0  0  0
  140.1107   74.7582  218.4839 H   0  0  0  0  0  0  0  0  0  0  0  0
  142.5379   74.0436  217.4042 H   0  0  0  0  0  0  0  0  0  0  0  0
  142.0610   75.7276  217.6568 H   0  0  0  0  0  0  0  0  0  0  0  0
  144.0416   75.6492  218.9190 H   0  0  0  0  0  0  0  0  0  0  0  0
  145.7385   74.0008  218.0220 H   0  0  0  0  0  0  0  0  0  0  0  0
  144.8184   70.7107  220.6201 H   0  0  0  0  0  0  0  0  0  0  0  0
  142.9440   72.5100  220.8750 H   0  0  0  0  0  0  0  0  0  0  0  0
  143.0269   74.7515  221.3414 H   0  0  0  0  0  0  0  0  0  0  0  0
  142.5048   76.2937  220.6696 H   0  0  0  0  0  0  0  0  0  0  0  0
  141.4133   72.9529  225.1590 H   0  0  0  0  0  0  0  0  0  0  0  0
  141.5101   71.9900  227.4443 H   0  0  0  0  0  0  0  0  0  0  0  0
  141.1096   70.1677  228.8887 H   0  0  0  0  0  0  0  0  0  0  0  0
  139.4316   66.5067  227.3779 H   0  0  0  0  0  0  0  0  0  0  0  0
  139.3552   67.5046  225.1024 H   0  0  0  0  0  0  0  0  0  0  0  0
  1  2  2  0
  2  3  1  0
  3  4  1  0
  4  5  1  0
  5  6  2  0
  5  7  1  0
  7  8  1  0
  8  9  1  0
  9 10  1  0
 10 11  1  0
 11 12  2  0
 12 13  1  0
 13 14  2  0
 14 15  1  0
 10 16  1  0
  2 17  1  0
 17 18  2  0
 18 19  1  0
 19 20  2  0
 20 21  1  0
 21 22  2  0
 22 23  1  0
 22 24  1  0
 24 25  2  0
 25 26  1  0
 26 27  2  0
 16  7  1  0
 27 17  1  0
 15 11  1  0
 26 20  1  0
  3 28  1  0
  4 29  1  0
  4 30  1  0
  8 31  1  0
  8 32  1  0
  9 33  1  0
  9 34  1  0
 10 35  1  6
 12 36  1  0
 14 37  1  0
 15 38  1  0
 16 39  1  0
 16 40  1  0
 18 41  1  0
 19 42  1  0
 21 43  1  0
 24 44  1  0
 25 45  1  0
M  END
>  <smiles>  (14) 
O=C(NCC(=O)N1CC[C@H](c2cnc[nH]2)C1)c1ccc2cc(F)ccc2n1

>  <score_type>  (14) 
oracle

>  <origin>  (14) 
autodockgpu

>  <m_score__min__energy>  (14) 
-8.3800000000000008

>  <m_primary>  (14) 
energy

>  <rmsd>  (14) 
3.214667972933139

>  <m_score__min__rmsd>  (14) 
3.214667972933139

>  <meeko>  (14) 
{"free_energy": -7.08, "intermolecular_energy": -8.58, "internal_energy": -1.86, "cluster_size": 6, "cluster_id": 2, "rank_in_cluster": 5}

>  <energy>  (14) 
-8.25

>  <cluster_rmsd>  (14) 
0.75

>  <cluster>  (14) 
1

$$$$

     RDKit          3D

 45 48  0  0  0  0  0  0  0  0999 V2000
  139.1050   70.5900  221.4890 O   0  0  0  0  0  0  0  0  0  0  0  0
  139.3370   71.2060  222.5490 C   0  0  0  0  0  0  0  0  0  0  0  0
  139.4240   72.6230  222.6490 N   0  0  0  0  0  0  0  0  0  0  0  0
  139.2380   73.4290  221.4720 C   0  0  0  0  0  0  0  0  0  0  0  0
  140.4850   74.2140  221.2580 C   0  0  0  0  0  0  0  0  0  0  0  0
  140.8570   75.1010  222.0610 O   0  0  0  0  0  0  0  0  0  0  0  0
  141.3320   73.9950  220.1140 N   0  0  0  0  0  0  0  0  0  0  0  0
  141.4110   72.7480  219.4310 C   0  0  0  0  0  0  0  0  0  0  0  0
  142.2960   72.9900  218.2630 C   0  0  0  0  0  0  0  0  0  0  0  0
  143.0950   74.2020  218.6100 C   0  0  2  0  0  0  0  0  0  0  0  0
  144.3470   73.8810  219.3580 C   0  0  0  0  0  0  0  0  0  0  0  0
  145.3370   73.0770  218.8040 C   0  0  0  0  0  0  0  0  0  0  0  0
  146.3100   72.9970  219.7300 N   0  0  0  0  0  0  0  0  0  0  0  0
  145.9480   73.7180  220.8200 C   0  0  0  0  0  0  0  0  0  0  0  0
  144.7300   74.2630  220.5840 N   0  0  0  0  0  0  0  0  0  0  0  0
  142.1970   74.9860  219.5150 C   0  0  0  0  0  0  0  0  0  0  0  0
  139.5340   70.4240  223.7800 C   0  0  0  0  0  0  0  0  0  0  0  0
  139.1410   69.1040  223.8610 C   0  0  0  0  0  0  0  0  0  0  0  0
  139.3100   68.3370  225.0020 C   0  0  0  0  0  0  0  0  0  0  0  0
  139.9050   68.9420  226.1010 C   0  0  0  0  0  0  0  0  0  0  0  0
  140.0780   68.1890  227.2370 C   0  0  0  0  0  0  0  0  0  0  0  0
  140.6710   68.7700  228.3530 C   0  0  0  0  0  0  0  0  0  0  0  0
  140.8290   67.9910  229.4720 F   0  0  0  0  0  0  0  0  0  0  0  0
  141.0750   70.0770  228.3100 C   0  0  0  0  0  0  0  0  0  0  0  0
  140.8850   70.8170  227.1390 C   0  0  0  0  0  0  0  0  0  0  0  0
  140.2990   70.2640  226.0170 C   0  0  0  0  0  0  0  0  0  0  0  0
  140.1090   70.9610  224.8810 N   0  0  0  0  0  0  0  0  0  0  0  0
  139.6240   73.0600  223.5860 H   0  0  0  0  0  0  0  0  0  0  0  0
  139.0482   72.7831  220.6020 H   0  0  0  0  0  0  0  0  0  0  0  0
  138.3768   74.1016  221.5983 H   0  0  0  0  0  0  0  0  0  0  0  0
  141.8422   71.9773  220.0868 H   0  0  0  0  0  0  0  0  0  0  0  0
  140.4182   72.3881  219.1229 H   0  0  0  0  0  0  0  0  0  0  0  0
  142.9585   72.1275  218.0979 H   0  0  0  0  0  0  0  0  0  0  0  0
  141.7190   73.1338  217.3376 H   0  0  0  0  0  0  0  0  0  0  0  0
  143.4059   74.7289  217.6958 H   0  0  0  0  0  0  0  0  0  0  0  0
  145.3269   72.6031  217.8114 H   0  0  0  0  0  0  0  0  0  0  0  0
  146.5413   73.8396  221.7383 H   0  0  0  0  0  0  0  0  0  0  0  0
  144.1950   74.8700  221.2390 H   0  0  0  0  0  0  0  0  0  0  0  0
  142.7822   75.5083  220.2862 H   0  0  0  0  0  0  0  0  0  0  0  0
  141.6336   75.7617  218.9756 H   0  0  0  0  0  0  0  0  0  0  0  0
  138.6727   68.6400  222.9804 H   0  0  0  0  0  0  0  0  0  0  0  0
  138.9846   67.2868  225.0362 H   0  0  0  0  0  0  0  0  0  0  0  0
  139.7514   67.1390  227.2637 H   0  0  0  0  0  0  0  0  0  0  0  0
  141.5452   70.5414  229.1893 H   0  0  0  0  0  0  0  0  0  0  0  0
  141.2108   71.8673  227.1105 H   0  0  0  0  0  0  0  0  0  0  0  0
  1  2  2  0
  2  3  1  0
  3  4  1  0
  4  5  1  0
  5  6  2  0
  5  7  1  0
  7  8  1  0
  8  9  1  0
  9 10  1  0
 10 11  1  0
 11 12  2  0
 12 13  1  0
 13 14  2  0
 14 15  1  0
 10 16  1  0
  2 17  1  0
 17 18  2  0
 18 19  1  0
 19 20  2  0
 20 21  1  0
 21 22  2  0
 22 23  1  0
 22 24  1  0
 24 25  2  0
 25 26  1  0
 26 27  2  0
 16  7  1  0
 27 17  1  0
 15 11  1  0
 26 20  1  0
  3 28  1  0
  4 29  1  0
  4 30  1  0
  8 31  1  0
  8 32  1  0
  9 33  1  0
  9 34  1  0
 10 35  1  6
 12 36  1  0
 14 37  1  0
 15 38  1  0
 16 39  1  0
 16 40  1  0
 18 41  1  0
 19 42  1  0
 21 43  1  0
 24 44  1  0
 25 45  1  0
M  END
>  <smiles>  (15) 
O=C(NCC(=O)N1CC[C@H](c2cnc[nH]2)C1)c1ccc2cc(F)ccc2n1

>  <score_type>  (15) 
oracle

>  <origin>  (15) 
autodockgpu

>  <m_score__min__energy>  (15) 
-8.3800000000000008

>  <m_primary>  (15) 
energy

>  <rmsd>  (15) 
2.3797314310972846

>  <m_score__min__rmsd>  (15) 
2.3797314310972846

>  <meeko>  (15) 
{"free_energy": -7.6, "intermolecular_energy": -9.09, "internal_energy": -1.36, "cluster_size": 6, "cluster_id": 2, "rank_in_cluster": 2}

>  <energy>  (15) 
-8.19

>  <cluster_rmsd>  (15) 
0.63

>  <cluster>  (15) 
1

$$$$

     RDKit          3D

 45 48  0  0  0  0  0  0  0  0999 V2000
  141.0000   71.9560  221.2310 O   0  0  0  0  0  0  0  0  0  0  0  0
  140.4200   72.4120  222.2380 C   0  0  0  0  0  0  0  0  0  0  0  0
  139.9150   73.7380  222.3390 N   0  0  0  0  0  0  0  0  0  0  0  0
  140.0670   74.6400  221.2280 C   0  0  0  0  0  0  0  0  0  0  0  0
  139.7850   76.0170  221.7200 C   0  0  0  0  0  0  0  0  0  0  0  0
  139.0170   76.2320  222.6880 O   0  0  0  0  0  0  0  0  0  0  0  0
  140.3790   77.1770  221.1090 N   0  0  0  0  0  0  0  0  0  0  0  0
  141.6220   77.1400  220.4130 C   0  0  0  0  0  0  0  0  0  0  0  0
  141.8030   78.5030  219.8510 C   0  0  0  0  0  0  0  0  0  0  0  0
  140.9330   79.3950  220.6730 C   0  0  2  0  0  0  0  0  0  0  0  0
  141.6210   79.9200  221.8900 C   0  0  0  0  0  0  0  0  0  0  0  0
  141.0520   80.9210  222.6700 C   0  0  0  0  0  0  0  0  0  0  0  0
  141.9220   81.1490  223.6710 N   0  0  0  0  0  0  0  0  0  0  0  0
  142.9910   80.3270  223.5290 C   0  0  0  0  0  0  0  0  0  0  0  0
  142.7990   79.5680  222.4230 N   0  0  0  0  0  0  0  0  0  0  0  0
  139.8130   78.5060  221.1160 C   0  0  0  0  0  0  0  0  0  0  0  0
  140.2420   71.5250  223.3990 C   0  0  0  0  0  0  0  0  0  0  0  0
  139.6240   70.2980  223.2760 C   0  0  0  0  0  0  0  0  0  0  0  0
  139.4390   69.4370  224.3450 C   0  0  0  0  0  0  0  0  0  0  0  0
  139.9040   69.8480  225.5880 C   0  0  0  0  0  0  0  0  0  0  0  0
  139.7260   69.0010  226.6550 C   0  0  0  0  0  0  0  0  0  0  0  0
  140.1800   69.3870  227.9110 C   0  0  0  0  0  0  0  0  0  0  0  0
  139.9870   68.5180  228.9560 F   0  0  0  0  0  0  0  0  0  0  0  0
  140.7980   70.5980  228.0720 C   0  0  0  0  0  0  0  0  0  0  0  0
  140.9650   71.4360  226.9670 C   0  0  0  0  0  0  0  0  0  0  0  0
  140.5220   71.0780  225.7090 C   0  0  0  0  0  0  0  0  0  0  0  0
  140.6750   71.8730  224.6330 N   0  0  0  0  0  0  0  0  0  0  0  0
  139.4370   74.0390  223.2270 H   0  0  0  0  0  0  0  0  0  0  0  0
  141.0942   74.5845  220.8384 H   0  0  0  0  0  0  0  0  0  0  0  0
  139.3743   74.3717  220.4167 H   0  0  0  0  0  0  0  0  0  0  0  0
  142.4425   76.8971  221.1042 H   0  0  0  0  0  0  0  0  0  0  0  0
  141.6267   76.3706  219.6269 H   0  0  0  0  0  0  0  0  0  0  0  0
  142.8551   78.8142  219.9297 H   0  0  0  0  0  0  0  0  0  0  0  0
  141.5347   78.5426  218.7850 H   0  0  0  0  0  0  0  0  0  0  0  0
  140.6241   80.2733  220.0872 H   0  0  0  0  0  0  0  0  0  0  0  0
  140.0879   81.4236  222.5029 H   0  0  0  0  0  0  0  0  0  0  0  0
  143.8640   80.2837  224.1968 H   0  0  0  0  0  0  0  0  0  0  0  0
  143.4510   78.8420  222.0590 H   0  0  0  0  0  0  0  0  0  0  0  0
  139.4765   78.7796  222.1269 H   0  0  0  0  0  0  0  0  0  0  0  0
  138.9317   78.5878  220.4628 H   0  0  0  0  0  0  0  0  0  0  0  0
  139.2618   69.9894  222.2843 H   0  0  0  0  0  0  0  0  0  0  0  0
  138.9425   68.4641  224.2147 H   0  0  0  0  0  0  0  0  0  0  0  0
  139.2301   68.0289  226.5171 H   0  0  0  0  0  0  0  0  0  0  0  0
  141.1600   70.9085  229.0632 H   0  0  0  0  0  0  0  0  0  0  0  0
  141.4629   72.4074  227.1026 H   0  0  0  0  0  0  0  0  0  0  0  0
  1  2  2  0
  2  3  1  0
  3  4  1  0
  4  5  1  0
  5  6  2  0
  5  7  1  0
  7  8  1  0
  8  9  1  0
  9 10  1  0
 10 11  1  0
 11 12  2  0
 12 13  1  0
 13 14  2  0
 14 15  1  0
 10 16  1  0
  2 17  1  0
 17 18  2  0
 18 19  1  0
 19 20  2  0
 20 21  1  0
 21 22  2  0
 22 23  1  0
 22 24  1  0
 24 25  2  0
 25 26  1  0
 26 27  2  0
 16  7  1  0
 27 17  1  0
 15 11  1  0
 26 20  1  0
  3 28  1  0
  4 29  1  0
  4 30  1  0
  8 31  1  0
  8 32  1  0
  9 33  1  0
  9 34  1  0
 10 35  1  6
 12 36  1  0
 14 37  1  0
 15 38  1  0
 16 39  1  0
 16 40  1  0
 18 41  1  0
 19 42  1  0
 21 43  1  0
 24 44  1  0
 25 45  1  0
M  END
>  <smiles>  (16) 
O=C(NCC(=O)N1CC[C@H](c2cnc[nH]2)C1)c1ccc2cc(F)ccc2n1

>  <score_type>  (16) 
oracle

>  <origin>  (16) 
autodockgpu

>  <m_score__min__energy>  (16) 
-8.3800000000000008

>  <m_primary>  (16) 
energy

>  <rmsd>  (16) 
2.591297334066373

>  <m_score__min__rmsd>  (16) 
2.591297334066373

>  <meeko>  (16) 
{"free_energy": -8.32, "intermolecular_energy": -9.81, "internal_energy": -1.44, "cluster_size": 36, "cluster_id": 1, "rank_in_cluster": 7}

>  <energy>  (16) 
-8.17

>  <cluster_rmsd>  (16) 
0.98

>  <cluster>  (16) 
1

$$$$

     RDKit          3D

 45 48  0  0  0  0  0  0  0  0999 V2000
  140.6210   71.4560  221.1300 O   0  0  0  0  0  0  0  0  0  0  0  0
  140.2410   71.9870  222.1930 C   0  0  0  0  0  0  0  0  0  0  0  0
  139.8960   73.3610  222.3240 N   0  0  0  0  0  0  0  0  0  0  0  0
  139.9800   74.2250  221.1760 C   0  0  0  0  0  0  0  0  0  0  0  0
  139.8950   75.6310  221.6580 C   0  0  0  0  0  0  0  0  0  0  0  0
  139.2730   75.9380  222.7020 O   0  0  0  0  0  0  0  0  0  0  0  0
  140.5230   76.7150  220.9490 N   0  0  0  0  0  0  0  0  0  0  0  0
  141.8150   76.6130  220.3570 C   0  0  0  0  0  0  0  0  0  0  0  0
  142.0260   77.8960  219.6400 C   0  0  0  0  0  0  0  0  0  0  0  0
  141.0880   78.8690  220.2740 C   0  0  2  0  0  0  0  0  0  0  0  0
  141.6770   79.5580  221.4610 C   0  0  0  0  0  0  0  0  0  0  0  0
  141.5780   80.9350  221.6240 C   0  0  0  0  0  0  0  0  0  0  0  0
  142.2030   81.2170  222.7820 N   0  0  0  0  0  0  0  0  0  0  0  0
  142.6750   80.0670  223.3240 C   0  0  0  0  0  0  0  0  0  0  0  0
  142.3460   79.0420  222.5010 N   0  0  0  0  0  0  0  0  0  0  0  0
  139.9450   78.0230  220.7430 C   0  0  0  0  0  0  0  0  0  0  0  0
  140.1400   71.1430  223.3940 C   0  0  0  0  0  0  0  0  0  0  0  0
  139.5810   69.8820  223.3400 C   0  0  0  0  0  0  0  0  0  0  0  0
  139.4690   69.0600  224.4490 C   0  0  0  0  0  0  0  0  0  0  0  0
  139.9470   69.5460  225.6600 C   0  0  0  0  0  0  0  0  0  0  0  0
  139.8410   68.7370  226.7660 C   0  0  0  0  0  0  0  0  0  0  0  0
  140.3090   69.1980  227.9910 C   0  0  0  0  0  0  0  0  0  0  0  0
  140.1890   68.3660  229.0760 F   0  0  0  0  0  0  0  0  0  0  0  0
  140.8700   70.4430  228.0840 C   0  0  0  0  0  0  0  0  0  0  0  0
  140.9640   71.2420  226.9410 C   0  0  0  0  0  0  0  0  0  0  0  0
  140.5050   70.8090  225.7110 C   0  0  0  0  0  0  0  0  0  0  0  0
  140.5880   71.5640  224.6000 N   0  0  0  0  0  0  0  0  0  0  0  0
  139.5840   73.7260  223.2610 H   0  0  0  0  0  0  0  0  0  0  0  0
  140.9360   74.0647  220.6561 H   0  0  0  0  0  0  0  0  0  0  0  0
  139.1624   74.0098  220.4722 H   0  0  0  0  0  0  0  0  0  0  0  0
  142.5831   76.4751  221.1322 H   0  0  0  0  0  0  0  0  0  0  0  0
  141.8857   75.7502  219.6784 H   0  0  0  0  0  0  0  0  0  0  0  0
  143.0663   78.2341  219.7560 H   0  0  0  0  0  0  0  0  0  0  0  0
  141.8393   77.7947  218.5607 H   0  0  0  0  0  0  0  0  0  0  0  0
  140.8166   79.6596  219.5589 H   0  0  0  0  0  0  0  0  0  0  0  0
  141.0886   81.6486  220.9449 H   0  0  0  0  0  0  0  0  0  0  0  0
  143.2300   79.9810  224.2699 H   0  0  0  0  0  0  0  0  0  0  0  0
  142.5720   78.0380  222.6550 H   0  0  0  0  0  0  0  0  0  0  0  0
  139.5298   78.4168  221.6824 H   0  0  0  0  0  0  0  0  0  0  0  0
  139.1151   78.0043  220.0213 H   0  0  0  0  0  0  0  0  0  0  0  0
  139.2079   69.5136  222.3730 H   0  0  0  0  0  0  0  0  0  0  0  0
  139.0183   68.0594  224.3740 H   0  0  0  0  0  0  0  0  0  0  0  0
  139.3912   67.7366  226.6828 H   0  0  0  0  0  0  0  0  0  0  0  0
  141.2439   70.8118  229.0505 H   0  0  0  0  0  0  0  0  0  0  0  0
  141.4152   72.2419  227.0224 H   0  0  0  0  0  0  0  0  0  0  0  0
  1  2  2  0
  2  3  1  0
  3  4  1  0
  4  5  1  0
  5  6  2  0
  5  7  1  0
  7  8  1  0
  8  9  1  0
  9 10  1  0
 10 11  1  0
 11 12  2  0
 12 13  1  0
 13 14  2  0
 14 15  1  0
 10 16  1  0
  2 17  1  0
 17 18  2  0
 18 19  1  0
 19 20  2  0
 20 21  1  0
 21 22  2  0
 22 23  1  0
 22 24  1  0
 24 25  2  0
 25 26  1  0
 26 27  2  0
 16  7  1  0
 27 17  1  0
 15 11  1  0
 26 20  1  0
  3 28  1  0
  4 29  1  0
  4 30  1  0
  8 31  1  0
  8 32  1  0
  9 33  1  0
  9 34  1  0
 10 35  1  6
 12 36  1  0
 14 37  1  0
 15 38  1  0
 16 39  1  0
 16 40  1  0
 18 41  1  0
 19 42  1  0
 21 43  1  0
 24 44  1  0
 25 45  1  0
M  END
>  <smiles>  (17) 
O=C(NCC(=O)N1CC[C@H](c2cnc[nH]2)C1)c1ccc2cc(F)ccc2n1

>  <score_type>  (17) 
oracle

>  <origin>  (17) 
autodockgpu

>  <m_score__min__energy>  (17) 
-8.3800000000000008

>  <m_primary>  (17) 
energy

>  <rmsd>  (17) 
2.267271403991879

>  <m_score__min__rmsd>  (17) 
2.267271403991879

>  <meeko>  (17) 
{"free_energy": -8.04, "intermolecular_energy": -9.53, "internal_energy": -1.49, "cluster_size": 36, "cluster_id": 1, "rank_in_cluster": 25}

>  <energy>  (17) 
-8.14

>  <cluster_rmsd>  (17) 
0.6

>  <cluster>  (17) 
1

$$$$

     RDKit          3D

 45 48  0  0  0  0  0  0  0  0999 V2000
  139.4330   71.3470  221.1380 O   0  0  0  0  0  0  0  0  0  0  0  0
  139.5280   71.9280  222.2380 C   0  0  0  0  0  0  0  0  0  0  0  0
  139.4850   73.3410  222.4040 N   0  0  0  0  0  0  0  0  0  0  0  0
  139.3240   74.1850  221.2500 C   0  0  0  0  0  0  0  0  0  0  0  0
  140.6740   74.4230  220.6700 C   0  0  0  0  0  0  0  0  0  0  0  0
  141.4720   73.4840  220.4370 O   0  0  0  0  0  0  0  0  0  0  0  0
  141.1370   75.7460  220.3450 N   0  0  0  0  0  0  0  0  0  0  0  0
  142.4920   76.0390  220.0140 C   0  0  0  0  0  0  0  0  0  0  0  0
  142.5090   77.4750  219.6400 C   0  0  0  0  0  0  0  0  0  0  0  0
  141.2890   78.0670  220.2650 C   0  0  2  0  0  0  0  0  0  0  0  0
  141.5210   78.5370  221.6630 C   0  0  0  0  0  0  0  0  0  0  0  0
  140.6740   78.1680  222.7030 C   0  0  0  0  0  0  0  0  0  0  0  0
  141.1680   78.7550  223.8080 N   0  0  0  0  0  0  0  0  0  0  0  0
  142.2770   79.4630  223.4800 C   0  0  0  0  0  0  0  0  0  0  0  0
  142.4900   79.3250  222.1490 N   0  0  0  0  0  0  0  0  0  0  0  0
  140.3130   76.9330  220.3080 C   0  0  0  0  0  0  0  0  0  0  0  0
  139.6950   71.1060  223.4470 C   0  0  0  0  0  0  0  0  0  0  0  0
  139.3340   69.7740  223.4640 C   0  0  0  0  0  0  0  0  0  0  0  0
  139.4760   68.9690  224.5820 C   0  0  0  0  0  0  0  0  0  0  0  0
  140.0080   69.5490  225.7270 C   0  0  0  0  0  0  0  0  0  0  0  0
  140.1530   68.7580  226.8410 C   0  0  0  0  0  0  0  0  0  0  0  0
  140.6820   69.3120  228.0020 C   0  0  0  0  0  0  0  0  0  0  0  0
  140.8150   68.4960  229.0970 F   0  0  0  0  0  0  0  0  0  0  0  0
  141.0520   70.6300  228.0240 C   0  0  0  0  0  0  0  0  0  0  0  0
  140.8920   71.4070  226.8730 C   0  0  0  0  0  0  0  0  0  0  0  0
  140.3680   70.8830  225.7080 C   0  0  0  0  0  0  0  0  0  0  0  0
  140.2080   71.6160  224.5900 N   0  0  0  0  0  0  0  0  0  0  0  0
  139.5730   73.7470  223.3710 H   0  0  0  0  0  0  0  0  0  0  0  0
  138.6806   73.6877  220.5092 H   0  0  0  0  0  0  0  0  0  0  0  0
  138.8534   75.1381  221.5330 H   0  0  0  0  0  0  0  0  0  0  0  0
  143.1463   75.8598  220.8799 H   0  0  0  0  0  0  0  0  0  0  0  0
  142.8589   75.4008  219.1966 H   0  0  0  0  0  0  0  0  0  0  0  0
  143.4150   77.9625  220.0293 H   0  0  0  0  0  0  0  0  0  0  0  0
  142.5142   77.6114  218.5485 H   0  0  0  0  0  0  0  0  0  0  0  0
  140.9538   78.9450  219.6933 H   0  0  0  0  0  0  0  0  0  0  0  0
  139.7825   77.5272  222.6356 H   0  0  0  0  0  0  0  0  0  0  0  0
  142.8970   80.0486  224.1748 H   0  0  0  0  0  0  0  0  0  0  0  0
  143.2690   79.7530  221.6080 H   0  0  0  0  0  0  0  0  0  0  0  0
  139.6827   76.9967  221.2072 H   0  0  0  0  0  0  0  0  0  0  0  0
  139.6274   76.9390  219.4478 H   0  0  0  0  0  0  0  0  0  0  0  0
  138.9146   69.3318  222.5483 H   0  0  0  0  0  0  0  0  0  0  0  0
  139.1787   67.9101  224.5641 H   0  0  0  0  0  0  0  0  0  0  0  0
  139.8544   67.6996  226.8150 H   0  0  0  0  0  0  0  0  0  0  0  0
  141.4714   71.0735  228.9391 H   0  0  0  0  0  0  0  0  0  0  0  0
  141.1918   72.4651  226.8961 H   0  0  0  0  0  0  0  0  0  0  0  0
  1  2  2  0
  2  3  1  0
  3  4  1  0
  4  5  1  0
  5  6  2  0
  5  7  1  0
  7  8  1  0
  8  9  1  0
  9 10  1  0
 10 11  1  0
 11 12  2  0
 12 13  1  0
 13 14  2  0
 14 15  1  0
 10 16  1  0
  2 17  1  0
 17 18  2  0
 18 19  1  0
 19 20  2  0
 20 21  1  0
 21 22  2  0
 22 23  1  0
 22 24  1  0
 24 25  2  0
 25 26  1  0
 26 27  2  0
 16  7  1  0
 27 17  1  0
 15 11  1  0
 26 20  1  0
  3 28  1  0
  4 29  1  0
  4 30  1  0
  8 31  1  0
  8 32  1  0
  9 33  1  0
  9 34  1  0
 10 35  1  6
 12 36  1  0
 14 37  1  0
 15 38  1  0
 16 39  1  0
 16 40  1  0
 18 41  1  0
 19 42  1  0
 21 43  1  0
 24 44  1  0
 25 45  1  0
M  END
>  <smiles>  (18) 
O=C(NCC(=O)N1CC[C@H](c2cnc[nH]2)C1)c1ccc2cc(F)ccc2n1

>  <score_type>  (18) 
oracle

>  <origin>  (18) 
autodockgpu

>  <m_score__min__energy>  (18) 
-8.3800000000000008

>  <m_primary>  (18) 
energy

>  <rmsd>  (18) 
1.968079124388396

>  <m_score__min__rmsd>  (18) 
1.968079124388396

>  <meeko>  (18) 
{"free_energy": -7.64, "intermolecular_energy": -9.14, "internal_energy": -1.23, "cluster_size": 36, "cluster_id": 1, "rank_in_cluster": 33}

>  <energy>  (18) 
-8.12

>  <cluster_rmsd>  (18) 
0.57

>  <cluster>  (18) 
1

$$$$

     RDKit          3D

 45 48  0  0  0  0  0  0  0  0999 V2000
  140.4600   71.4770  221.1040 O   0  0  0  0  0  0  0  0  0  0  0  0
  140.1390   72.0210  222.1800 C   0  0  0  0  0  0  0  0  0  0  0  0
  139.8360   73.4040  222.3190 N   0  0  0  0  0  0  0  0  0  0  0  0
  139.8970   74.2620  221.1650 C   0  0  0  0  0  0  0  0  0  0  0  0
  139.8520   75.6710  221.6440 C   0  0  0  0  0  0  0  0  0  0  0  0
  139.2470   75.9970  222.6930 O   0  0  0  0  0  0  0  0  0  0  0  0
  140.5010   76.7370  220.9270 N   0  0  0  0  0  0  0  0  0  0  0  0
  141.8030   76.6160  220.3630 C   0  0  0  0  0  0  0  0  0  0  0  0
  142.0370   77.8830  219.6250 C   0  0  0  0  0  0  0  0  0  0  0  0
  141.0930   78.8740  220.2210 C   0  0  2  0  0  0  0  0  0  0  0  0
  141.6630   79.5820  221.4060 C   0  0  0  0  0  0  0  0  0  0  0  0
  141.5490   80.9600  221.5520 C   0  0  0  0  0  0  0  0  0  0  0  0
  142.1600   81.2610  222.7120 N   0  0  0  0  0  0  0  0  0  0  0  0
  142.6370   80.1230  223.2730 C   0  0  0  0  0  0  0  0  0  0  0  0
  142.3270   79.0850  222.4590 N   0  0  0  0  0  0  0  0  0  0  0  0
  139.9360   78.0440  220.6840 C   0  0  0  0  0  0  0  0  0  0  0  0
  140.0640   71.1830  223.3870 C   0  0  0  0  0  0  0  0  0  0  0  0
  139.5700   69.8960  223.3380 C   0  0  0  0  0  0  0  0  0  0  0  0
  139.4850   69.0790  224.4530 C   0  0  0  0  0  0  0  0  0  0  0  0
  139.9220   69.5980  225.6650 C   0  0  0  0  0  0  0  0  0  0  0  0
  139.8420   68.7940  226.7770 C   0  0  0  0  0  0  0  0  0  0  0  0
  140.2720   69.2880  228.0030 C   0  0  0  0  0  0  0  0  0  0  0  0
  140.1790   68.4610  229.0950 F   0  0  0  0  0  0  0  0  0  0  0  0
  140.7690   70.5610  228.0920 C   0  0  0  0  0  0  0  0  0  0  0  0
  140.8380   71.3530  226.9430 C   0  0  0  0  0  0  0  0  0  0  0  0
  140.4170   70.8870  225.7120 C   0  0  0  0  0  0  0  0  0  0  0  0
  140.4760   71.6360  224.5950 N   0  0  0  0  0  0  0  0  0  0  0  0
  139.5740   73.7790  223.2670 H   0  0  0  0  0  0  0  0  0  0  0  0
  140.8325   74.0833  220.6147 H   0  0  0  0  0  0  0  0  0  0  0  0
  139.0534   74.0583  220.4891 H   0  0  0  0  0  0  0  0  0  0  0  0
  142.5548   76.4889  221.1559 H   0  0  0  0  0  0  0  0  0  0  0  0
  141.8810   75.7397  219.7028 H   0  0  0  0  0  0  0  0  0  0  0  0
  143.0770   78.2168  219.7551 H   0  0  0  0  0  0  0  0  0  0  0  0
  141.8714   77.7615  218.5443 H   0  0  0  0  0  0  0  0  0  0  0  0
  140.8407   79.6520  219.4855 H   0  0  0  0  0  0  0  0  0  0  0  0
  141.0591   81.6610  220.8601 H   0  0  0  0  0  0  0  0  0  0  0  0
  143.1823   80.0539  224.2258 H   0  0  0  0  0  0  0  0  0  0  0  0
  142.5620   78.0850  222.6270 H   0  0  0  0  0  0  0  0  0  0  0  0
  139.5050   78.4588  221.6072 H   0  0  0  0  0  0  0  0  0  0  0  0
  139.1204   78.0159  219.9464 H   0  0  0  0  0  0  0  0  0  0  0  0
  139.2283   69.5009  222.3699 H   0  0  0  0  0  0  0  0  0  0  0  0
  139.0860   68.0564  224.3814 H   0  0  0  0  0  0  0  0  0  0  0  0
  139.4426   67.7722  226.6976 H   0  0  0  0  0  0  0  0  0  0  0  0
  141.1109   70.9566  229.0598 H   0  0  0  0  0  0  0  0  0  0  0  0
  141.2381   72.3747  227.0203 H   0  0  0  0  0  0  0  0  0  0  0  0
  1  2  2  0
  2  3  1  0
  3  4  1  0
  4  5  1  0
  5  6  2  0
  5  7  1  0
  7  8  1  0
  8  9  1  0
  9 10  1  0
 10 11  1  0
 11 12  2  0
 12 13  1  0
 13 14  2  0
 14 15  1  0
 10 16  1  0
  2 17  1  0
 17 18  2  0
 18 19  1  0
 19 20  2  0
 20 21  1  0
 21 22  2  0
 22 23  1  0
 22 24  1  0
 24 25  2  0
 25 26  1  0
 26 27  2  0
 16  7  1  0
 27 17  1  0
 15 11  1  0
 26 20  1  0
  3 28  1  0
  4 29  1  0
  4 30  1  0
  8 31  1  0
  8 32  1  0
  9 33  1  0
  9 34  1  0
 10 35  1  6
 12 36  1  0
 14 37  1  0
 15 38  1  0
 16 39  1  0
 16 40  1  0
 18 41  1  0
 19 42  1  0
 21 43  1  0
 24 44  1  0
 25 45  1  0
M  END
>  <smiles>  (19) 
O=C(NCC(=O)N1CC[C@H](c2cnc[nH]2)C1)c1ccc2cc(F)ccc2n1

>  <score_type>  (19) 
oracle

>  <origin>  (19) 
autodockgpu

>  <m_score__min__energy>  (19) 
-8.3800000000000008

>  <m_primary>  (19) 
energy

>  <rmsd>  (19) 
2.248219118243925

>  <m_score__min__rmsd>  (19) 
2.248219118243925

>  <meeko>  (19) 
{"free_energy": -8.01, "intermolecular_energy": -9.5, "internal_energy": -1.51, "cluster_size": 36, "cluster_id": 1, "rank_in_cluster": 27}

>  <energy>  (19) 
-8.1

>  <cluster_rmsd>  (19) 
0.6

>  <cluster>  (19) 
1

$$$$

     RDKit          3D

 45 48  0  0  0  0  0  0  0  0999 V2000
  141.3870   77.9860  217.0990 O   0  0  0  0  0  0  0  0  0  0  0  0
  142.1160   77.7990  218.0950 C   0  0  0  0  0  0  0  0  0  0  0  0
  142.2990   78.7430  219.1430 N   0  0  0  0  0  0  0  0  0  0  0  0
  141.6150   80.0080  219.0840 C   0  0  0  0  0  0  0  0  0  0  0  0
  141.6210   80.5910  220.4540 C   0  0  0  0  0  0  0  0  0  0  0  0
  141.8100   81.8140  220.6540 O   0  0  0  0  0  0  0  0  0  0  0  0
  141.4090   79.7800  221.6240 N   0  0  0  0  0  0  0  0  0  0  0  0
  142.4600   79.3970  222.5070 C   0  0  0  0  0  0  0  0  0  0  0  0
  141.7980   78.6780  223.6250 C   0  0  0  0  0  0  0  0  0  0  0  0
  140.4800   78.2270  223.0870 C   0  0  2  0  0  0  0  0  0  0  0  0
  140.5500   76.8960  222.4130 C   0  0  0  0  0  0  0  0  0  0  0  0
  139.5960   75.9130  222.6480 C   0  0  0  0  0  0  0  0  0  0  0  0
  139.9540   74.8610  221.8900 N   0  0  0  0  0  0  0  0  0  0  0  0
  141.0850   75.1680  221.2070 C   0  0  0  0  0  0  0  0  0  0  0  0
  141.4500   76.4310  221.5360 N   0  0  0  0  0  0  0  0  0  0  0  0
  140.1340   79.2560  222.0570 C   0  0  0  0  0  0  0  0  0  0  0  0
  142.8360   76.5190  218.1980 C   0  0  0  0  0  0  0  0  0  0  0  0
  142.9720   75.6830  217.1090 C   0  0  0  0  0  0  0  0  0  0  0  0
  143.6420   74.4720  217.1690 C   0  0  0  0  0  0  0  0  0  0  0  0
  144.1950   74.1030  218.3880 C   0  0  0  0  0  0  0  0  0  0  0  0
  144.8620   72.9040  218.4570 C   0  0  0  0  0  0  0  0  0  0  0  0
  145.4250   72.5090  219.6660 C   0  0  0  0  0  0  0  0  0  0  0  0
  146.0850   71.3060  219.7010 F   0  0  0  0  0  0  0  0  0  0  0  0
  145.3110   73.3130  220.7680 C   0  0  0  0  0  0  0  0  0  0  0  0
  144.6270   74.5270  220.6660 C   0  0  0  0  0  0  0  0  0  0  0  0
  144.0580   74.9430  219.4780 C   0  0  0  0  0  0  0  0  0  0  0  0
  143.3950   76.1090  219.3600 N   0  0  0  0  0  0  0  0  0  0  0  0
  142.9340   78.5010  219.9470 H   0  0  0  0  0  0  0  0  0  0  0  0
  142.1346   80.6826  218.3876 H   0  0  0  0  0  0  0  0  0  0  0  0
  140.5831   79.8715  218.7282 H   0  0  0  0  0  0  0  0  0  0  0  0
  143.1721   78.7350  221.9925 H   0  0  0  0  0  0  0  0  0  0  0  0
  143.0307   80.2673  222.8632 H   0  0  0  0  0  0  0  0  0  0  0  0
  142.4020   77.8131  223.9365 H   0  0  0  0  0  0  0  0  0  0  0  0
  141.6784   79.3215  224.5090 H   0  0  0  0  0  0  0  0  0  0  0  0
  139.7492   78.1239  223.9026 H   0  0  0  0  0  0  0  0  0  0  0  0
  138.7257   75.9813  223.3173 H   0  0  0  0  0  0  0  0  0  0  0  0
  141.6148   74.5057  220.5065 H   0  0  0  0  0  0  0  0  0  0  0  0
  142.2780   76.9430  221.1690 H   0  0  0  0  0  0  0  0  0  0  0  0
  139.5963   78.7968  221.2144 H   0  0  0  0  0  0  0  0  0  0  0  0
  139.4739   80.0404  222.4557 H   0  0  0  0  0  0  0  0  0  0  0  0
  142.5288   75.9917  216.1507 H   0  0  0  0  0  0  0  0  0  0  0  0
  143.7326   73.8262  216.2832 H   0  0  0  0  0  0  0  0  0  0  0  0
  144.9498   72.2639  217.5667 H   0  0  0  0  0  0  0  0  0  0  0  0
  145.7545   73.0056  221.7265 H   0  0  0  0  0  0  0  0  0  0  0  0
  144.5393   75.1685  221.5553 H   0  0  0  0  0  0  0  0  0  0  0  0
  1  2  2  0
  2  3  1  0
  3  4  1  0
  4  5  1  0
  5  6  2  0
  5  7  1  0
  7  8  1  0
  8  9  1  0
  9 10  1  0
 10 11  1  0
 11 12  2  0
 12 13  1  0
 13 14  2  0
 14 15  1  0
 10 16  1  0
  2 17  1  0
 17 18  2  0
 18 19  1  0
 19 20  2  0
 20 21  1  0
 21 22  2  0
 22 23  1  0
 22 24  1  0
 24 25  2  0
 25 26  1  0
 26 27  2  0
 16  7  1  0
 27 17  1  0
 15 11  1  0
 26 20  1  0
  3 28  1  0
  4 29  1  0
  4 30  1  0
  8 31  1  0
  8 32  1  0
  9 33  1  0
  9 34  1  0
 10 35  1  1
 12 36  1  0
 14 37  1  0
 15 38  1  0
 16 39  1  0
 16 40  1  0
 18 41  1  0
 19 42  1  0
 21 43  1  0
 24 44  1  0
 25 45  1  0
M  END
>  <smiles>  (20) 
O=C(NCC(=O)N1CC[C@H](c2cnc[nH]2)C1)c1ccc2cc(F)ccc2n1

>  <score_type>  (20) 
oracle

>  <origin>  (20) 
autodockgpu

>  <m_score__min__energy>  (20) 
-8.3800000000000008

>  <m_primary>  (20) 
energy

>  <rmsd>  (20) 
8.01622789140532

>  <m_score__min__rmsd>  (20) 
8.01622789140532

>  <meeko>  (20) 
{"free_energy": -6.55, "intermolecular_energy": -8.04, "internal_energy": -2.51, "cluster_size": 6, "cluster_id": 4, "rank_in_cluster": 3}

>  <energy>  (20) 
-8.1

>  <cluster_rmsd>  (20) 
1.0

>  <cluster>  (20) 
1

$$$$

     RDKit          3D

 45 48  0  0  0  0  0  0  0  0999 V2000
  140.5360   76.9440  218.3490 O   0  0  0  0  0  0  0  0  0  0  0  0
  141.7400   77.1040  218.6390 C   0  0  0  0  0  0  0  0  0  0  0  0
  142.3430   78.3680  218.8900 N   0  0  0  0  0  0  0  0  0  0  0  0
  141.5430   79.5620  218.8120 C   0  0  0  0  0  0  0  0  0  0  0  0
  141.6070   80.2380  220.1360 C   0  0  0  0  0  0  0  0  0  0  0  0
  141.9350   81.4430  220.2510 O   0  0  0  0  0  0  0  0  0  0  0  0
  141.2960   79.5450  221.3580 N   0  0  0  0  0  0  0  0  0  0  0  0
  142.2610   79.2830  222.3730 C   0  0  0  0  0  0  0  0  0  0  0  0
  141.5050   78.6620  223.4900 C   0  0  0  0  0  0  0  0  0  0  0  0
  140.2560   78.1210  222.8770 C   0  0  2  0  0  0  0  0  0  0  0  0
  140.4190   76.7310  222.3540 C   0  0  0  0  0  0  0  0  0  0  0  0
  139.4510   75.7570  222.5720 C   0  0  0  0  0  0  0  0  0  0  0  0
  139.9080   74.6420  221.9730 N   0  0  0  0  0  0  0  0  0  0  0  0
  141.1100   74.9030  221.4020 C   0  0  0  0  0  0  0  0  0  0  0  0
  141.4220   76.2000  221.6430 N   0  0  0  0  0  0  0  0  0  0  0  0
  139.9940   79.0300  221.7170 C   0  0  0  0  0  0  0  0  0  0  0  0
  142.5970   75.9110  218.7310 C   0  0  0  0  0  0  0  0  0  0  0  0
  142.5190   74.8980  217.7970 C   0  0  0  0  0  0  0  0  0  0  0  0
  143.3090   73.7620  217.8510 C   0  0  0  0  0  0  0  0  0  0  0  0
  144.2130   73.6570  218.9000 C   0  0  0  0  0  0  0  0  0  0  0  0
  145.0020   72.5340  218.9610 C   0  0  0  0  0  0  0  0  0  0  0  0
  145.9160   72.4020  220.0010 C   0  0  0  0  0  0  0  0  0  0  0  0
  146.6890   71.2680  220.0340 F   0  0  0  0  0  0  0  0  0  0  0  0
  146.0220   73.3870  220.9460 C   0  0  0  0  0  0  0  0  0  0  0  0
  145.2060   74.5180  220.8560 C   0  0  0  0  0  0  0  0  0  0  0  0
  144.2900   74.6730  219.8340 C   0  0  0  0  0  0  0  0  0  0  0  0
  143.4960   75.7560  219.7300 N   0  0  0  0  0  0  0  0  0  0  0  0
  143.3670   78.4100  219.1290 H   0  0  0  0  0  0  0  0  0  0  0  0
  141.9398   80.2283  218.0318 H   0  0  0  0  0  0  0  0  0  0  0  0
  140.5025   79.3121  218.5574 H   0  0  0  0  0  0  0  0  0  0  0  0
  143.0325   78.5929  222.0007 H   0  0  0  0  0  0  0  0  0  0  0  0
  142.7776   80.2006  222.6909 H   0  0  0  0  0  0  0  0  0  0  0  0
  142.0913   77.8509  223.9464 H   0  0  0  0  0  0  0  0  0  0  0  0
  141.2861   79.3881  224.2868 H   0  0  0  0  0  0  0  0  0  0  0  0
  139.4498   78.0799  223.6242 H   0  0  0  0  0  0  0  0  0  0  0  0
  138.5053   75.8739  223.1216 H   0  0  0  0  0  0  0  0  0  0  0  0
  141.7259   74.1856  220.8399 H   0  0  0  0  0  0  0  0  0  0  0  0
  142.2840   76.6890  221.3270 H   0  0  0  0  0  0  0  0  0  0  0  0
  139.5520   78.4722  220.8783 H   0  0  0  0  0  0  0  0  0  0  0  0
  139.2821   79.8307  221.9661 H   0  0  0  0  0  0  0  0  0  0  0  0
  141.7971   74.9974  216.9730 H   0  0  0  0  0  0  0  0  0  0  0  0
  143.2236   72.9716  217.0907 H   0  0  0  0  0  0  0  0  0  0  0  0
  144.9119   71.7484  218.1963 H   0  0  0  0  0  0  0  0  0  0  0  0
  146.7441   73.2889  221.7700 H   0  0  0  0  0  0  0  0  0  0  0  0
  145.2956   75.3053  221.6190 H   0  0  0  0  0  0  0  0  0  0  0  0
  1  2  2  0
  2  3  1  0
  3  4  1  0
  4  5  1  0
  5  6  2  0
  5  7  1  0
  7  8  1  0
  8  9  1  0
  9 10  1  0
 10 11  1  0
 11 12  2  0
 12 13  1  0
 13 14  2  0
 14 15  1  0
 10 16  1  0
  2 17  1  0
 17 18  2  0
 18 19  1  0
 19 20  2  0
 20 21  1  0
 21 22  2  0
 22 23  1  0
 22 24  1  0
 24 25  2  0
 25 26  1  0
 26 27  2  0
 16  7  1  0
 27 17  1  0
 15 11  1  0
 26 20  1  0
  3 28  1  0
  4 29  1  0
  4 30  1  0
  8 31  1  0
  8 32  1  0
  9 33  1  0
  9 34  1  0
 10 35  1  1
 12 36  1  0
 14 37  1  0
 15 38  1  0
 16 39  1  0
 16 40  1  0
 18 41  1  0
 19 42  1  0
 21 43  1  0
 24 44  1  0
 25 45  1  0
M  END
>  <smiles>  (21) 
O=C(NCC(=O)N1CC[C@H](c2cnc[nH]2)C1)c1ccc2cc(F)ccc2n1

>  <score_type>  (21) 
oracle

>  <origin>  (21) 
autodockgpu

>  <m_score__min__energy>  (21) 
-8.3800000000000008

>  <m_primary>  (21) 
energy

>  <rmsd>  (21) 
7.625774619584991

>  <m_score__min__rmsd>  (21) 
7.625774619584991

>  <meeko>  (21) 
{"free_energy": -6.63, "intermolecular_energy": -8.13, "internal_energy": -2.55, "cluster_size": 6, "cluster_id": 4, "rank_in_cluster": 1}

>  <energy>  (21) 
-8.08

>  <cluster_rmsd>  (21) 
0.81

>  <cluster>  (21) 
1

$$$$

     RDKit          3D

 45 48  0  0  0  0  0  0  0  0999 V2000
  140.0990   71.0420  221.1690 O   0  0  0  0  0  0  0  0  0  0  0  0
  139.9740   71.6280  222.2640 C   0  0  0  0  0  0  0  0  0  0  0  0
  139.8530   73.0380  222.4100 N   0  0  0  0  0  0  0  0  0  0  0  0
  139.8720   73.8740  221.2390 C   0  0  0  0  0  0  0  0  0  0  0  0
  139.8540   75.2920  221.6950 C   0  0  0  0  0  0  0  0  0  0  0  0
  139.2440   75.6490  222.7300 O   0  0  0  0  0  0  0  0  0  0  0  0
  140.5370   76.3300  220.9690 N   0  0  0  0  0  0  0  0  0  0  0  0
  141.8510   76.1760  220.4390 C   0  0  0  0  0  0  0  0  0  0  0  0
  142.1220   77.4210  219.6780 C   0  0  0  0  0  0  0  0  0  0  0  0
  141.1800   78.4410  220.2280 C   0  0  2  0  0  0  0  0  0  0  0  0
  141.7330   79.1680  221.4100 C   0  0  0  0  0  0  0  0  0  0  0  0
  141.8770   80.5510  221.4090 C   0  0  0  0  0  0  0  0  0  0  0  0
  142.3920   80.8700  222.6100 N   0  0  0  0  0  0  0  0  0  0  0  0
  142.5650   79.7380  223.3360 C   0  0  0  0  0  0  0  0  0  0  0  0
  142.1560   78.6860  222.5870 N   0  0  0  0  0  0  0  0  0  0  0  0
  139.9990   77.6400  220.6820 C   0  0  0  0  0  0  0  0  0  0  0  0
  139.9500   70.8120  223.4890 C   0  0  0  0  0  0  0  0  0  0  0  0
  139.4210   69.5380  223.4920 C   0  0  0  0  0  0  0  0  0  0  0  0
  139.3810   68.7420  224.6250 C   0  0  0  0  0  0  0  0  0  0  0  0
  139.9010   69.2700  225.8000 C   0  0  0  0  0  0  0  0  0  0  0  0
  139.8670   68.4870  226.9290 C   0  0  0  0  0  0  0  0  0  0  0  0
  140.3800   68.9900  228.1190 C   0  0  0  0  0  0  0  0  0  0  0  0
  140.3310   68.1840  229.2290 F   0  0  0  0  0  0  0  0  0  0  0  0
  140.9140   70.2500  228.1550 C   0  0  0  0  0  0  0  0  0  0  0  0
  140.9350   71.0210  226.9900 C   0  0  0  0  0  0  0  0  0  0  0  0
  140.4310   70.5460  225.7940 C   0  0  0  0  0  0  0  0  0  0  0  0
  140.4430   71.2740  224.6620 N   0  0  0  0  0  0  0  0  0  0  0  0
  139.7510   73.4470  223.3740 H   0  0  0  0  0  0  0  0  0  0  0  0
  140.7835   73.6798  220.6547 H   0  0  0  0  0  0  0  0  0  0  0  0
  139.0012   73.6633  220.6008 H   0  0  0  0  0  0  0  0  0  0  0  0
  142.5817   76.0563  221.2525 H   0  0  0  0  0  0  0  0  0  0  0  0
  141.9310   75.2833  219.8013 H   0  0  0  0  0  0  0  0  0  0  0  0
  143.1639   77.7418  219.8250 H   0  0  0  0  0  0  0  0  0  0  0  0
  141.9794   77.2764  218.5969 H   0  0  0  0  0  0  0  0  0  0  0  0
  140.9580   79.2055  219.4688 H   0  0  0  0  0  0  0  0  0  0  0  0
  141.6219   81.2429  220.5928 H   0  0  0  0  0  0  0  0  0  0  0  0
  142.9683   79.6833  224.3579 H   0  0  0  0  0  0  0  0  0  0  0  0
  142.1670   77.6870  222.8780 H   0  0  0  0  0  0  0  0  0  0  0  0
  139.5528   78.0830  221.5846 H   0  0  0  0  0  0  0  0  0  0  0  0
  139.2010   77.6072  219.9256 H   0  0  0  0  0  0  0  0  0  0  0  0
  139.0128   69.1363  222.5529 H   0  0  0  0  0  0  0  0  0  0  0  0
  138.9532   67.7290  224.5954 H   0  0  0  0  0  0  0  0  0  0  0  0
  139.4390   67.4744  226.8914 H   0  0  0  0  0  0  0  0  0  0  0  0
  141.3232   70.6522  229.0935 H   0  0  0  0  0  0  0  0  0  0  0  0
  141.3642   72.0332  227.0257 H   0  0  0  0  0  0  0  0  0  0  0  0
  1  2  2  0
  2  3  1  0
  3  4  1  0
  4  5  1  0
  5  6  2  0
  5  7  1  0
  7  8  1  0
  8  9  1  0
  9 10  1  0
 10 11  1  0
 11 12  2  0
 12 13  1  0
 13 14  2  0
 14 15  1  0
 10 16  1  0
  2 17  1  0
 17 18  2  0
 18 19  1  0
 19 20  2  0
 20 21  1  0
 21 22  2  0
 22 23  1  0
 22 24  1  0
 24 25  2  0
 25 26  1  0
 26 27  2  0
 16  7  1  0
 27 17  1  0
 15 11  1  0
 26 20  1  0
  3 28  1  0
  4 29  1  0
  4 30  1  0
  8 31  1  0
  8 32  1  0
  9 33  1  0
  9 34  1  0
 10 35  1  6
 12 36  1  0
 14 37  1  0
 15 38  1  0
 16 39  1  0
 16 40  1  0
 18 41  1  0
 19 42  1  0
 21 43  1  0
 24 44  1  0
 25 45  1  0
M  END
>  <smiles>  (22) 
O=C(NCC(=O)N1CC[C@H](c2cnc[nH]2)C1)c1ccc2cc(F)ccc2n1

>  <score_type>  (22) 
oracle

>  <origin>  (22) 
autodockgpu

>  <m_score__min__energy>  (22) 
-8.3800000000000008

>  <m_primary>  (22) 
energy

>  <rmsd>  (22) 
2.106958326574863

>  <m_score__min__rmsd>  (22) 
2.106958326574863

>  <meeko>  (22) 
{"free_energy": -7.84, "intermolecular_energy": -9.34, "internal_energy": -1.5, "cluster_size": 36, "cluster_id": 1, "rank_in_cluster": 29}

>  <energy>  (22) 
-8.08

>  <cluster_rmsd>  (22) 
0.81

>  <cluster>  (22) 
1

$$$$

     RDKit          3D

 45 48  0  0  0  0  0  0  0  0999 V2000
  140.4940   77.0350  218.7070 O   0  0  0  0  0  0  0  0  0  0  0  0
  141.7310   77.1900  218.7800 C   0  0  0  0  0  0  0  0  0  0  0  0
  142.3770   78.4560  218.8470 N   0  0  0  0  0  0  0  0  0  0  0  0
  141.5840   79.6570  218.8280 C   0  0  0  0  0  0  0  0  0  0  0  0
  141.7340   80.3210  220.1520 C   0  0  0  0  0  0  0  0  0  0  0  0
  142.1140   81.5110  220.2590 O   0  0  0  0  0  0  0  0  0  0  0  0
  141.4500   79.6300  221.3830 N   0  0  0  0  0  0  0  0  0  0  0  0
  142.4550   79.2800  222.3290 C   0  0  0  0  0  0  0  0  0  0  0  0
  141.7280   78.6970  223.4850 C   0  0  0  0  0  0  0  0  0  0  0  0
  140.4060   78.2600  222.9470 C   0  0  2  0  0  0  0  0  0  0  0  0
  140.4300   76.8720  222.3970 C   0  0  0  0  0  0  0  0  0  0  0  0
  139.3620   76.0010  222.5800 C   0  0  0  0  0  0  0  0  0  0  0  0
  139.7080   74.8560  221.9630 N   0  0  0  0  0  0  0  0  0  0  0  0
  140.9400   75.0010  221.4150 C   0  0  0  0  0  0  0  0  0  0  0  0
  141.3820   76.2520  221.6880 N   0  0  0  0  0  0  0  0  0  0  0  0
  140.1390   79.2070  221.8190 C   0  0  0  0  0  0  0  0  0  0  0  0
  142.5820   75.9900  218.8030 C   0  0  0  0  0  0  0  0  0  0  0  0
  142.4850   75.0230  217.8230 C   0  0  0  0  0  0  0  0  0  0  0  0
  143.2690   73.8820  217.8110 C   0  0  0  0  0  0  0  0  0  0  0  0
  144.1880   73.7230  218.8410 C   0  0  0  0  0  0  0  0  0  0  0  0
  144.9710   72.5930  218.8380 C   0  0  0  0  0  0  0  0  0  0  0  0
  145.8980   72.4080  219.8570 C   0  0  0  0  0  0  0  0  0  0  0  0
  146.6650   71.2690  219.8250 F   0  0  0  0  0  0  0  0  0  0  0  0
  146.0230   73.3450  220.8460 C   0  0  0  0  0  0  0  0  0  0  0  0
  145.2130   74.4830  220.8210 C   0  0  0  0  0  0  0  0  0  0  0  0
  144.2830   74.6920  219.8210 C   0  0  0  0  0  0  0  0  0  0  0  0
  143.4940   75.7820  219.7810 N   0  0  0  0  0  0  0  0  0  0  0  0
  143.4270   78.4940  218.9080 H   0  0  0  0  0  0  0  0  0  0  0  0
  141.9383   80.3270  218.0308 H   0  0  0  0  0  0  0  0  0  0  0  0
  140.5278   79.4176  218.6351 H   0  0  0  0  0  0  0  0  0  0  0  0
  143.1473   78.5415  221.8985 H   0  0  0  0  0  0  0  0  0  0  0  0
  143.0579   80.1514  222.6242 H   0  0  0  0  0  0  0  0  0  0  0  0
  142.2803   77.8373  223.8923 H   0  0  0  0  0  0  0  0  0  0  0  0
  141.6151   79.4230  224.3037 H   0  0  0  0  0  0  0  0  0  0  0  0
  139.6484   78.2643  223.7445 H   0  0  0  0  0  0  0  0  0  0  0  0
  138.4253   76.2058  223.1191 H   0  0  0  0  0  0  0  0  0  0  0  0
  141.4866   74.2343  220.8464 H   0  0  0  0  0  0  0  0  0  0  0  0
  142.2960   76.6550  221.3950 H   0  0  0  0  0  0  0  0  0  0  0  0
  139.6033   78.6990  221.0035 H   0  0  0  0  0  0  0  0  0  0  0  0
  139.5068   80.0536  222.1247 H   0  0  0  0  0  0  0  0  0  0  0  0
  141.7519   75.1653  217.0153 H   0  0  0  0  0  0  0  0  0  0  0  0
  143.1681   73.1291  217.0154 H   0  0  0  0  0  0  0  0  0  0  0  0
  144.8652   71.8444  218.0390 H   0  0  0  0  0  0  0  0  0  0  0  0
  146.7554   73.2035  221.6544 H   0  0  0  0  0  0  0  0  0  0  0  0
  145.3186   75.2327  221.6190 H   0  0  0  0  0  0  0  0  0  0  0  0
  1  2  2  0
  2  3  1  0
  3  4  1  0
  4  5  1  0
  5  6  2  0
  5  7  1  0
  7  8  1  0
  8  9  1  0
  9 10  1  0
 10 11  1  0
 11 12  2  0
 12 13  1  0
 13 14  2  0
 14 15  1  0
 10 16  1  0
  2 17  1  0
 17 18  2  0
 18 19  1  0
 19 20  2  0
 20 21  1  0
 21 22  2  0
 22 23  1  0
 22 24  1  0
 24 25  2  0
 25 26  1  0
 26 27  2  0
 16  7  1  0
 27 17  1  0
 15 11  1  0
 26 20  1  0
  3 28  1  0
  4 29  1  0
  4 30  1  0
  8 31  1  0
  8 32  1  0
  9 33  1  0
  9 34  1  0
 10 35  1  1
 12 36  1  0
 14 37  1  0
 15 38  1  0
 16 39  1  0
 16 40  1  0
 18 41  1  0
 19 42  1  0
 21 43  1  0
 24 44  1  0
 25 45  1  0
M  END
>  <smiles>  (23) 
O=C(NCC(=O)N1CC[C@H](c2cnc[nH]2)C1)c1ccc2cc(F)ccc2n1

>  <score_type>  (23) 
oracle

>  <origin>  (23) 
autodockgpu

>  <m_score__min__energy>  (23) 
-8.3800000000000008

>  <m_primary>  (23) 
energy

>  <rmsd>  (23) 
7.708258458597117

>  <m_score__min__rmsd>  (23) 
7.708258458597117

>  <meeko>  (23) 
{"free_energy": -6.54, "intermolecular_energy": -8.03, "internal_energy": -2.56, "cluster_size": 6, "cluster_id": 4, "rank_in_cluster": 4}

>  <energy>  (23) 
-8.05

>  <cluster_rmsd>  (23) 
0.69

>  <cluster>  (23) 
1

$$$$

     RDKit          3D

 45 48  0  0  0  0  0  0  0  0999 V2000
  141.0750   72.2840  221.6050 O   0  0  0  0  0  0  0  0  0  0  0  0
  140.1650   72.4880  222.4340 C   0  0  0  0  0  0  0  0  0  0  0  0
  139.2250   73.5510  222.3470 N   0  0  0  0  0  0  0  0  0  0  0  0
  139.2980   74.4720  221.2430 C   0  0  0  0  0  0  0  0  0  0  0  0
  140.4640   75.3680  221.4770 C   0  0  0  0  0  0  0  0  0  0  0  0
  141.5410   74.9440  221.9600 O   0  0  0  0  0  0  0  0  0  0  0  0
  140.4170   76.7720  221.1610 N   0  0  0  0  0  0  0  0  0  0  0  0
  141.1120   77.3450  220.0570 C   0  0  0  0  0  0  0  0  0  0  0  0
  140.7030   78.7720  220.0270 C   0  0  0  0  0  0  0  0  0  0  0  0
  140.2120   79.0770  221.4030 C   0  0  2  0  0  0  0  0  0  0  0  0
  141.3000   79.5170  222.3270 C   0  0  0  0  0  0  0  0  0  0  0  0
  141.0880   79.6290  223.6960 C   0  0  0  0  0  0  0  0  0  0  0  0
  142.2580   80.0390  224.2190 N   0  0  0  0  0  0  0  0  0  0  0  0
  143.1670   80.1790  223.2230 C   0  0  0  0  0  0  0  0  0  0  0  0
  142.5670   79.8550  222.0520 N   0  0  0  0  0  0  0  0  0  0  0  0
  139.6780   77.7700  221.8990 C   0  0  0  0  0  0  0  0  0  0  0  0
  140.0510   71.5710  223.5800 C   0  0  0  0  0  0  0  0  0  0  0  0
  139.3760   70.3720  223.4750 C   0  0  0  0  0  0  0  0  0  0  0  0
  139.2480   69.4850  224.5320 C   0  0  0  0  0  0  0  0  0  0  0  0
  139.8340   69.8380  225.7410 C   0  0  0  0  0  0  0  0  0  0  0  0
  139.7130   68.9640  226.7940 C   0  0  0  0  0  0  0  0  0  0  0  0
  140.2890   69.2910  228.0170 C   0  0  0  0  0  0  0  0  0  0  0  0
  140.1510   68.3970  229.0490 F   0  0  0  0  0  0  0  0  0  0  0  0
  140.9670   70.4710  228.1590 C   0  0  0  0  0  0  0  0  0  0  0  0
  141.0730   71.3390  227.0680 C   0  0  0  0  0  0  0  0  0  0  0  0
  140.5100   71.0390  225.8430 C   0  0  0  0  0  0  0  0  0  0  0  0
  140.6020   71.8620  224.7820 N   0  0  0  0  0  0  0  0  0  0  0  0
  138.4880   73.6480  223.0920 H   0  0  0  0  0  0  0  0  0  0  0  0
  139.4336   73.9188  220.3020 H   0  0  0  0  0  0  0  0  0  0  0  0
  138.3704   75.0585  221.1687 H   0  0  0  0  0  0  0  0  0  0  0  0
  142.1992   77.2598  220.2013 H   0  0  0  0  0  0  0  0  0  0  0  0
  140.8723   76.8323  219.1138 H   0  0  0  0  0  0  0  0  0  0  0  0
  141.5611   79.4123  219.7746 H   0  0  0  0  0  0  0  0  0  0  0  0
  139.9291   78.9580  219.2678 H   0  0  0  0  0  0  0  0  0  0  0  0
  139.4789   79.8966  221.3736 H   0  0  0  0  0  0  0  0  0  0  0  0
  140.1545   79.4243  224.2407 H   0  0  0  0  0  0  0  0  0  0  0  0
  144.2120   80.5004  223.3445 H   0  0  0  0  0  0  0  0  0  0  0  0
  143.0150   79.8650  221.1120 H   0  0  0  0  0  0  0  0  0  0  0  0
  139.8538   77.6634  222.9796 H   0  0  0  0  0  0  0  0  0  0  0  0
  138.5918   77.6795  221.7510 H   0  0  0  0  0  0  0  0  0  0  0  0
  138.9193   70.1087  222.5096 H   0  0  0  0  0  0  0  0  0  0  0  0
  138.7026   68.5366  224.4179 H   0  0  0  0  0  0  0  0  0  0  0  0
  139.1671   68.0169  226.6714 H   0  0  0  0  0  0  0  0  0  0  0  0
  141.4250   70.7346  229.1237 H   0  0  0  0  0  0  0  0  0  0  0  0
  141.6194   72.2861  227.1885 H   0  0  0  0  0  0  0  0  0  0  0  0
  1  2  2  0
  2  3  1  0
  3  4  1  0
  4  5  1  0
  5  6  2  0
  5  7  1  0
  7  8  1  0
  8  9  1  0
  9 10  1  0
 10 11  1  0
 11 12  2  0
 12 13  1  0
 13 14  2  0
 14 15  1  0
 10 16  1  0
  2 17  1  0
 17 18  2  0
 18 19  1  0
 19 20  2  0
 20 21  1  0
 21 22  2  0
 22 23  1  0
 22 24  1  0
 24 25  2  0
 25 26  1  0
 26 27  2  0
 16  7  1  0
 27 17  1  0
 15 11  1  0
 26 20  1  0
  3 28  1  0
  4 29  1  0
  4 30  1  0
  8 31  1  0
  8 32  1  0
  9 33  1  0
  9 34  1  0
 10 35  1  6
 12 36  1  0
 14 37  1  0
 15 38  1  0
 16 39  1  0
 16 40  1  0
 18 41  1  0
 19 42  1  0
 21 43  1  0
 24 44  1  0
 25 45  1  0
M  END
>  <smiles>  (24) 
O=C(NCC(=O)N1CC[C@H](c2cnc[nH]2)C1)c1ccc2cc(F)ccc2n1

>  <score_type>  (24) 
oracle

>  <origin>  (24) 
autodockgpu

>  <m_score__min__energy>  (24) 
-8.3800000000000008

>  <m_primary>  (24) 
energy

>  <rmsd>  (24) 
2.533788400839667

>  <m_score__min__rmsd>  (24) 
2.533788400839667

>  <meeko>  (24) 
{"free_energy": -8.25, "intermolecular_energy": -9.74, "internal_energy": -0.89, "cluster_size": 36, "cluster_id": 1, "rank_in_cluster": 14}

>  <energy>  (24) 
-8.04

>  <cluster_rmsd>  (24) 
0.62

>  <cluster>  (24) 
1

$$$$

     RDKit          3D

 45 48  0  0  0  0  0  0  0  0999 V2000
  140.4580   71.1290  221.3580 O   0  0  0  0  0  0  0  0  0  0  0  0
  140.0730   71.6710  222.4150 C   0  0  0  0  0  0  0  0  0  0  0  0
  139.6750   73.0330  222.5180 N   0  0  0  0  0  0  0  0  0  0  0  0
  139.7070   73.8700  221.3480 C   0  0  0  0  0  0  0  0  0  0  0  0
  139.6380   75.2860  221.8020 C   0  0  0  0  0  0  0  0  0  0  0  0
  138.8840   75.6480  222.7360 O   0  0  0  0  0  0  0  0  0  0  0  0
  140.4350   76.3180  221.1920 N   0  0  0  0  0  0  0  0  0  0  0  0
  141.7670   76.1040  220.7320 C   0  0  0  0  0  0  0  0  0  0  0  0
  142.1700   77.3740  220.0770 C   0  0  0  0  0  0  0  0  0  0  0  0
  141.2670   78.4200  220.6400 C   0  0  2  0  0  0  0  0  0  0  0  0
  141.7910   79.0270  221.9000 C   0  0  0  0  0  0  0  0  0  0  0  0
  141.2800   78.6710  223.1430 C   0  0  0  0  0  0  0  0  0  0  0  0
  141.9690   79.3920  224.0470 N   0  0  0  0  0  0  0  0  0  0  0  0
  142.8750   80.1680  223.4000 C   0  0  0  0  0  0  0  0  0  0  0  0
  142.7590   79.9370  222.0700 N   0  0  0  0  0  0  0  0  0  0  0  0
  140.0070   77.6790  220.9660 C   0  0  0  0  0  0  0  0  0  0  0  0
  140.0240   70.8530  223.6370 C   0  0  0  0  0  0  0  0  0  0  0  0
  139.4590   69.5940  223.6360 C   0  0  0  0  0  0  0  0  0  0  0  0
  139.3950   68.7960  224.7660 C   0  0  0  0  0  0  0  0  0  0  0  0
  139.9290   69.3050  225.9430 C   0  0  0  0  0  0  0  0  0  0  0  0
  139.8710   68.5200  227.0700 C   0  0  0  0  0  0  0  0  0  0  0  0
  140.3980   69.0050  228.2610 C   0  0  0  0  0  0  0  0  0  0  0  0
  140.3240   68.1970  229.3690 F   0  0  0  0  0  0  0  0  0  0  0  0
  140.9670   70.2490  228.3020 C   0  0  0  0  0  0  0  0  0  0  0  0
  141.0120   71.0220  227.1390 C   0  0  0  0  0  0  0  0  0  0  0  0
  140.4950   70.5660  225.9420 C   0  0  0  0  0  0  0  0  0  0  0  0
  140.5290   71.2970  224.8110 N   0  0  0  0  0  0  0  0  0  0  0  0
  139.3630   73.4070  223.4510 H   0  0  0  0  0  0  0  0  0  0  0  0
  140.6405   73.7002  220.7914 H   0  0  0  0  0  0  0  0  0  0  0  0
  138.8613   73.6367  220.6844 H   0  0  0  0  0  0  0  0  0  0  0  0
  142.4340   75.8790  221.5773 H   0  0  0  0  0  0  0  0  0  0  0  0
  141.8274   75.2511  220.0399 H   0  0  0  0  0  0  0  0  0  0  0  0
  143.2197   77.6085  220.3073 H   0  0  0  0  0  0  0  0  0  0  0  0
  142.0872   77.3113  218.9819 H   0  0  0  0  0  0  0  0  0  0  0  0
  141.1469   79.2463  219.9239 H   0  0  0  0  0  0  0  0  0  0  0  0
  140.4766   77.9477  223.3462 H   0  0  0  0  0  0  0  0  0  0  0  0
  143.5820   80.8648  223.8739 H   0  0  0  0  0  0  0  0  0  0  0  0
  143.3240   80.3870  221.3200 H   0  0  0  0  0  0  0  0  0  0  0  0
  139.5352   78.0931  221.8693 H   0  0  0  0  0  0  0  0  0  0  0  0
  139.2585   77.7539  220.1634 H   0  0  0  0  0  0  0  0  0  0  0  0
  139.0406   69.2068  222.6952 H   0  0  0  0  0  0  0  0  0  0  0  0
  138.9381   67.7959  224.7328 H   0  0  0  0  0  0  0  0  0  0  0  0
  139.4133   67.5206  227.0297 H   0  0  0  0  0  0  0  0  0  0  0  0
  141.3853   70.6370  229.2425 H   0  0  0  0  0  0  0  0  0  0  0  0
  141.4715   72.0207  227.1776 H   0  0  0  0  0  0  0  0  0  0  0  0
  1  2  2  0
  2  3  1  0
  3  4  1  0
  4  5  1  0
  5  6  2  0
  5  7  1  0
  7  8  1  0
  8  9  1  0
  9 10  1  0
 10 11  1  0
 11 12  2  0
 12 13  1  0
 13 14  2  0
 14 15  1  0
 10 16  1  0
  2 17  1  0
 17 18  2  0
 18 19  1  0
 19 20  2  0
 20 21  1  0
 21 22  2  0
 22 23  1  0
 22 24  1  0
 24 25  2  0
 25 26  1  0
 26 27  2  0
 16  7  1  0
 27 17  1  0
 15 11  1  0
 26 20  1  0
  3 28  1  0
  4 29  1  0
  4 30  1  0
  8 31  1  0
  8 32  1  0
  9 33  1  0
  9 34  1  0
 10 35  1  6
 12 36  1  0
 14 37  1  0
 15 38  1  0
 16 39  1  0
 16 40  1  0
 18 41  1  0
 19 42  1  0
 21 43  1  0
 24 44  1  0
 25 45  1  0
M  END
>  <smiles>  (25) 
O=C(NCC(=O)N1CC[C@H](c2cnc[nH]2)C1)c1ccc2cc(F)ccc2n1

>  <score_type>  (25) 
oracle

>  <origin>  (25) 
autodockgpu

>  <m_score__min__energy>  (25) 
-8.3800000000000008

>  <m_primary>  (25) 
energy

>  <rmsd>  (25) 
2.2448468378490096

>  <m_score__min__rmsd>  (25) 
2.2448468378490096

>  <meeko>  (25) 
{"free_energy": -8.08, "intermolecular_energy": -9.57, "internal_energy": -1.4, "cluster_size": 36, "cluster_id": 1, "rank_in_cluster": 21}

>  <energy>  (25) 
-8.04

>  <cluster_rmsd>  (25) 
0.73

>  <cluster>  (25) 
1

$$$$

     RDKit          3D

 45 48  0  0  0  0  0  0  0  0999 V2000
  141.0270   71.6100  221.3900 O   0  0  0  0  0  0  0  0  0  0  0  0
  140.3770   72.0400  222.3650 C   0  0  0  0  0  0  0  0  0  0  0  0
  139.7700   73.3260  222.4200 N   0  0  0  0  0  0  0  0  0  0  0  0
  139.8970   74.2160  221.2960 C   0  0  0  0  0  0  0  0  0  0  0  0
  139.6350   75.5990  221.7820 C   0  0  0  0  0  0  0  0  0  0  0  0
  138.8330   75.8340  222.7170 O   0  0  0  0  0  0  0  0  0  0  0  0
  140.2900   76.7420  221.2030 N   0  0  0  0  0  0  0  0  0  0  0  0
  141.5440   76.6650  220.5320 C   0  0  0  0  0  0  0  0  0  0  0  0
  141.7940   78.0270  219.9960 C   0  0  0  0  0  0  0  0  0  0  0  0
  140.9450   78.9410  220.8150 C   0  0  2  0  0  0  0  0  0  0  0  0
  141.6280   79.4180  222.0550 C   0  0  0  0  0  0  0  0  0  0  0  0
  141.1160   79.1420  223.3170 C   0  0  0  0  0  0  0  0  0  0  0  0
  141.9670   79.7070  224.1940 N   0  0  0  0  0  0  0  0  0  0  0  0
  142.9710   80.3120  223.5120 C   0  0  0  0  0  0  0  0  0  0  0  0
  142.7560   80.1300  222.1870 N   0  0  0  0  0  0  0  0  0  0  0  0
  139.7790   78.0940  221.2200 C   0  0  0  0  0  0  0  0  0  0  0  0
  140.2210   71.1640  223.5370 C   0  0  0  0  0  0  0  0  0  0  0  0
  139.5760   69.9470  223.4440 C   0  0  0  0  0  0  0  0  0  0  0  0
  139.4110   69.0970  224.5250 C   0  0  0  0  0  0  0  0  0  0  0  0
  139.9260   69.5060  225.7480 C   0  0  0  0  0  0  0  0  0  0  0  0
  139.7680   68.6690  226.8270 C   0  0  0  0  0  0  0  0  0  0  0  0
  140.2730   69.0540  228.0640 C   0  0  0  0  0  0  0  0  0  0  0  0
  140.0980   68.1960  229.1210 F   0  0  0  0  0  0  0  0  0  0  0  0
  140.9190   70.2540  228.1960 C   0  0  0  0  0  0  0  0  0  0  0  0
  141.0640   71.0820  227.0800 C   0  0  0  0  0  0  0  0  0  0  0  0
  140.5720   70.7250  225.8400 C   0  0  0  0  0  0  0  0  0  0  0  0
  140.7030   71.5100  224.7540 N   0  0  0  0  0  0  0  0  0  0  0  0
  139.2380   73.6060  223.2840 H   0  0  0  0  0  0  0  0  0  0  0  0
  140.9132   74.1513  220.8798 H   0  0  0  0  0  0  0  0  0  0  0  0
  139.1820   73.9433  220.5058 H   0  0  0  0  0  0  0  0  0  0  0  0
  142.3391   76.3773  221.2357 H   0  0  0  0  0  0  0  0  0  0  0  0
  141.5326   75.9089  219.7332 H   0  0  0  0  0  0  0  0  0  0  0  0
  142.8564   78.2923  220.1011 H   0  0  0  0  0  0  0  0  0  0  0  0
  141.5507   78.0948  218.9254 H   0  0  0  0  0  0  0  0  0  0  0  0
  140.6861   79.8405  220.2372 H   0  0  0  0  0  0  0  0  0  0  0  0
  140.2018   78.5771  223.5516 H   0  0  0  0  0  0  0  0  0  0  0  0
  143.8156   80.8573  223.9585 H   0  0  0  0  0  0  0  0  0  0  0  0
  143.3610   80.4800  221.4160 H   0  0  0  0  0  0  0  0  0  0  0  0
  139.4325   78.3660  222.2279 H   0  0  0  0  0  0  0  0  0  0  0  0
  138.9158   78.2232  220.5505 H   0  0  0  0  0  0  0  0  0  0  0  0
  139.1750   69.6384  222.4673 H   0  0  0  0  0  0  0  0  0  0  0  0
  138.8911   68.1334  224.4186 H   0  0  0  0  0  0  0  0  0  0  0  0
  139.2483   67.7062  226.7132 H   0  0  0  0  0  0  0  0  0  0  0  0
  141.3204   70.5635  229.1723 H   0  0  0  0  0  0  0  0  0  0  0  0
  141.5843   72.0447  227.1921 H   0  0  0  0  0  0  0  0  0  0  0  0
  1  2  2  0
  2  3  1  0
  3  4  1  0
  4  5  1  0
  5  6  2  0
  5  7  1  0
  7  8  1  0
  8  9  1  0
  9 10  1  0
 10 11  1  0
 11 12  2  0
 12 13  1  0
 13 14  2  0
 14 15  1  0
 10 16  1  0
  2 17  1  0
 17 18  2  0
 18 19  1  0
 19 20  2  0
 20 21  1  0
 21 22  2  0
 22 23  1  0
 22 24  1  0
 24 25  2  0
 25 26  1  0
 26 27  2  0
 16  7  1  0
 27 17  1  0
 15 11  1  0
 26 20  1  0
  3 28  1  0
  4 29  1  0
  4 30  1  0
  8 31  1  0
  8 32  1  0
  9 33  1  0
  9 34  1  0
 10 35  1  6
 12 36  1  0
 14 37  1  0
 15 38  1  0
 16 39  1  0
 16 40  1  0
 18 41  1  0
 19 42  1  0
 21 43  1  0
 24 44  1  0
 25 45  1  0
M  END
>  <smiles>  (26) 
O=C(NCC(=O)N1CC[C@H](c2cnc[nH]2)C1)c1ccc2cc(F)ccc2n1

>  <score_type>  (26) 
oracle

>  <origin>  (26) 
autodockgpu

>  <m_score__min__energy>  (26) 
-8.3800000000000008

>  <m_primary>  (26) 
energy

>  <rmsd>  (26) 
2.4310783701602032

>  <m_score__min__rmsd>  (26) 
2.4310783701602032

>  <meeko>  (26) 
{"free_energy": -8.14, "intermolecular_energy": -9.63, "internal_energy": -1.42, "cluster_size": 36, "cluster_id": 1, "rank_in_cluster": 17}

>  <energy>  (26) 
-8.02

>  <cluster_rmsd>  (26) 
0.72

>  <cluster>  (26) 
1

$$$$

     RDKit          3D

 45 48  0  0  0  0  0  0  0  0999 V2000
  140.3180   73.5550  222.3650 O   0  0  0  0  0  0  0  0  0  0  0  0
  140.3600   72.3140  222.2300 C   0  0  0  0  0  0  0  0  0  0  0  0
  140.5570   71.6500  220.9880 N   0  0  0  0  0  0  0  0  0  0  0  0
  140.7210   72.4260  219.7880 C   0  0  0  0  0  0  0  0  0  0  0  0
  142.1340   72.8940  219.7400 C   0  0  0  0  0  0  0  0  0  0  0  0
  143.0990   72.0950  219.7720 O   0  0  0  0  0  0  0  0  0  0  0  0
  142.4670   74.2920  219.6540 N   0  0  0  0  0  0  0  0  0  0  0  0
  143.7150   74.8230  220.0900 C   0  0  0  0  0  0  0  0  0  0  0  0
  143.6870   76.2610  219.7190 C   0  0  0  0  0  0  0  0  0  0  0  0
  142.2430   76.6060  219.5630 C   0  0  2  0  0  0  0  0  0  0  0  0
  141.6050   77.0340  220.8450 C   0  0  0  0  0  0  0  0  0  0  0  0
  141.7150   78.3400  221.3090 C   0  0  0  0  0  0  0  0  0  0  0  0
  141.0320   78.3790  222.4680 N   0  0  0  0  0  0  0  0  0  0  0  0
  140.5140   77.1510  222.7210 C   0  0  0  0  0  0  0  0  0  0  0  0
  140.8730   76.3220  221.7120 N   0  0  0  0  0  0  0  0  0  0  0  0
  141.6050   75.3250  219.1280 C   0  0  0  0  0  0  0  0  0  0  0  0
  140.1960   71.4790  223.4310 C   0  0  0  0  0  0  0  0  0  0  0  0
  139.5160   70.2800  223.3830 C   0  0  0  0  0  0  0  0  0  0  0  0
  139.3420   69.4680  224.4920 C   0  0  0  0  0  0  0  0  0  0  0  0
  139.8860   69.8990  225.6950 C   0  0  0  0  0  0  0  0  0  0  0  0
  139.7190   69.1000  226.8010 C   0  0  0  0  0  0  0  0  0  0  0  0
  140.2520   69.5070  228.0180 C   0  0  0  0  0  0  0  0  0  0  0  0
  140.0690   68.6860  229.1030 F   0  0  0  0  0  0  0  0  0  0  0  0
  140.9340   70.6910  228.1050 C   0  0  0  0  0  0  0  0  0  0  0  0
  141.0870   71.4810  226.9630 C   0  0  0  0  0  0  0  0  0  0  0  0
  140.5670   71.1010  225.7400 C   0  0  0  0  0  0  0  0  0  0  0  0
  140.7050   71.8480  224.6290 N   0  0  0  0  0  0  0  0  0  0  0  0
  140.5790   70.5980  220.9670 H   0  0  0  0  0  0  0  0  0  0  0  0
  140.5023   71.8044  218.9072 H   0  0  0  0  0  0  0  0  0  0  0  0
  140.0314   73.2830  219.7866 H   0  0  0  0  0  0  0  0  0  0  0  0
  143.8217   74.7091  221.1789 H   0  0  0  0  0  0  0  0  0  0  0  0
  144.5647   74.2992  219.6277 H   0  0  0  0  0  0  0  0  0  0  0  0
  144.1444   76.8713  220.5117 H   0  0  0  0  0  0  0  0  0  0  0  0
  144.2543   76.4551  218.7968 H   0  0  0  0  0  0  0  0  0  0  0  0
  142.1239   77.4441  218.8606 H   0  0  0  0  0  0  0  0  0  0  0  0
  142.2507   79.1713  220.8274 H   0  0  0  0  0  0  0  0  0  0  0  0
  139.9065   76.8758  223.5957 H   0  0  0  0  0  0  0  0  0  0  0  0
  140.6210   75.3150  221.6290 H   0  0  0  0  0  0  0  0  0  0  0  0
  140.5912   75.2347  219.5453 H   0  0  0  0  0  0  0  0  0  0  0  0
  141.4976   75.2624  218.0351 H   0  0  0  0  0  0  0  0  0  0  0  0
  139.0930   69.9539  222.4214 H   0  0  0  0  0  0  0  0  0  0  0  0
  138.7933   68.5172  224.4223 H   0  0  0  0  0  0  0  0  0  0  0  0
  139.1701   68.1499  226.7236 H   0  0  0  0  0  0  0  0  0  0  0  0
  141.3579   71.0175  229.0661 H   0  0  0  0  0  0  0  0  0  0  0  0
  141.6361   72.4311  227.0391 H   0  0  0  0  0  0  0  0  0  0  0  0
  1  2  2  0
  2  3  1  0
  3  4  1  0
  4  5  1  0
  5  6  2  0
  5  7  1  0
  7  8  1  0
  8  9  1  0
  9 10  1  0
 10 11  1  0
 11 12  2  0
 12 13  1  0
 13 14  2  0
 14 15  1  0
 10 16  1  0
  2 17  1  0
 17 18  2  0
 18 19  1  0
 19 20  2  0
 20 21  1  0
 21 22  2  0
 22 23  1  0
 22 24  1  0
 24 25  2  0
 25 26  1  0
 26 27  2  0
 16  7  1  0
 27 17  1  0
 15 11  1  0
 26 20  1  0
  3 28  1  0
  4 29  1  0
  4 30  1  0
  8 31  1  0
  8 32  1  0
  9 33  1  0
  9 34  1  0
 10 35  1  6
 12 36  1  0
 14 37  1  0
 15 38  1  0
 16 39  1  0
 16 40  1  0
 18 41  1  0
 19 42  1  0
 21 43  1  0
 24 44  1  0
 25 45  1  0
M  END
>  <smiles>  (27) 
O=C(NCC(=O)N1CC[C@H](c2cnc[nH]2)C1)c1ccc2cc(F)ccc2n1

>  <score_type>  (27) 
oracle

>  <origin>  (27) 
autodockgpu

>  <m_score__min__energy>  (27) 
-8.3800000000000008

>  <m_primary>  (27) 
energy

>  <rmsd>  (27) 
2.5021920784951273

>  <m_score__min__rmsd>  (27) 
2.5021920784951273

>  <meeko>  (27) 
{"free_energy": -6.94, "intermolecular_energy": -8.43, "internal_energy": -1.87, "cluster_size": 1, "cluster_id": 3, "rank_in_cluster": 1}

>  <energy>  (27) 
-8.01

>  <cluster_rmsd>  (27) 
0.73

>  <cluster>  (27) 
1

$$$$

     RDKit          3D

 45 48  0  0  0  0  0  0  0  0999 V2000
  141.3150   72.5130  221.7220 O   0  0  0  0  0  0  0  0  0  0  0  0
  140.3200   72.5960  222.4710 C   0  0  0  0  0  0  0  0  0  0  0  0
  139.2980   73.5780  222.3380 N   0  0  0  0  0  0  0  0  0  0  0  0
  139.3870   74.5540  221.2850 C   0  0  0  0  0  0  0  0  0  0  0  0
  138.7740   75.8160  221.7840 C   0  0  0  0  0  0  0  0  0  0  0  0
  137.5320   75.9740  221.8400 O   0  0  0  0  0  0  0  0  0  0  0  0
  139.5780   76.9240  222.2290 N   0  0  0  0  0  0  0  0  0  0  0  0
  139.0240   78.1650  222.6570 C   0  0  0  0  0  0  0  0  0  0  0  0
  140.1760   78.9720  223.1340 C   0  0  0  0  0  0  0  0  0  0  0  0
  141.3800   78.3740  222.4850 C   0  0  2  0  0  0  0  0  0  0  0  0
  141.6660   78.9560  221.1390 C   0  0  0  0  0  0  0  0  0  0  0  0
  141.8170   78.1480  220.0170 C   0  0  0  0  0  0  0  0  0  0  0  0
  142.0580   78.9840  218.9900 N   0  0  0  0  0  0  0  0  0  0  0  0
  142.0580   80.2610  219.4450 C   0  0  0  0  0  0  0  0  0  0  0  0
  141.8150   80.2380  220.7780 N   0  0  0  0  0  0  0  0  0  0  0  0
  141.0210   76.9320  222.3040 C   0  0  0  0  0  0  0  0  0  0  0  0
  140.1870   71.6180  223.5620 C   0  0  0  0  0  0  0  0  0  0  0  0
  139.5830   70.3940  223.3600 C   0  0  0  0  0  0  0  0  0  0  0  0
  139.4410   69.4500  224.3630 C   0  0  0  0  0  0  0  0  0  0  0  0
  139.9350   69.7690  225.6210 C   0  0  0  0  0  0  0  0  0  0  0  0
  139.7990   68.8380  226.6220 C   0  0  0  0  0  0  0  0  0  0  0  0
  140.2830   69.1320  227.8920 C   0  0  0  0  0  0  0  0  0  0  0  0
  140.1320   68.1810  228.8700 F   0  0  0  0  0  0  0  0  0  0  0  0
  140.8890   70.3360  228.1320 C   0  0  0  0  0  0  0  0  0  0  0  0
  141.0120   71.2610  227.0920 C   0  0  0  0  0  0  0  0  0  0  0  0
  140.5390   70.9960  225.8210 C   0  0  0  0  0  0  0  0  0  0  0  0
  140.6500   71.8750  224.8080 N   0  0  0  0  0  0  0  0  0  0  0  0
  138.4920   73.5740  223.0150 H   0  0  0  0  0  0  0  0  0  0  0  0
  140.4412   74.7276  221.0233 H   0  0  0  0  0  0  0  0  0  0  0  0
  138.8613   74.1997  220.3860 H   0  0  0  0  0  0  0  0  0  0  0  0
  138.5214   78.6706  221.8193 H   0  0  0  0  0  0  0  0  0  0  0  0
  138.2705   78.0244  223.4459 H   0  0  0  0  0  0  0  0  0  0  0  0
  140.0595   80.0235  222.8326 H   0  0  0  0  0  0  0  0  0  0  0  0
  140.2559   78.9593  224.2310 H   0  0  0  0  0  0  0  0  0  0  0  0
  142.2744   78.5551  223.0992 H   0  0  0  0  0  0  0  0  0  0  0  0
  141.7527   77.0506  219.9771 H   0  0  0  0  0  0  0  0  0  0  0  0
  142.2264   81.1617  218.8364 H   0  0  0  0  0  0  0  0  0  0  0  0
  141.7540   81.0680  221.4030 H   0  0  0  0  0  0  0  0  0  0  0  0
  141.4605   76.5355  221.3769 H   0  0  0  0  0  0  0  0  0  0  0  0
  141.4004   76.3012  223.1214 H   0  0  0  0  0  0  0  0  0  0  0  0
  139.1970   70.1576  222.3574 H   0  0  0  0  0  0  0  0  0  0  0  0
  138.9545   68.4824  224.1703 H   0  0  0  0  0  0  0  0  0  0  0  0
  139.3131   67.8717  226.4213 H   0  0  0  0  0  0  0  0  0  0  0  0
  141.2755   70.5729  229.1343 H   0  0  0  0  0  0  0  0  0  0  0  0
  141.4989   72.2271  227.2906 H   0  0  0  0  0  0  0  0  0  0  0  0
  1  2  2  0
  2  3  1  0
  3  4  1  0
  4  5  1  0
  5  6  2  0
  5  7  1  0
  7  8  1  0
  8  9  1  0
  9 10  1  0
 10 11  1  0
 11 12  2  0
 12 13  1  0
 13 14  2  0
 14 15  1  0
 10 16  1  0
  2 17  1  0
 17 18  2  0
 18 19  1  0
 19 20  2  0
 20 21  1  0
 21 22  2  0
 22 23  1  0
 22 24  1  0
 24 25  2  0
 25 26  1  0
 26 27  2  0
 16  7  1  0
 27 17  1  0
 15 11  1  0
 26 20  1  0
  3 28  1  0
  4 29  1  0
  4 30  1  0
  8 31  1  0
  8 32  1  0
  9 33  1  0
  9 34  1  0
 10 35  1  1
 12 36  1  0
 14 37  1  0
 15 38  1  0
 16 39  1  0
 16 40  1  0
 18 41  1  0
 19 42  1  0
 21 43  1  0
 24 44  1  0
 25 45  1  0
M  END
>  <smiles>  (28) 
O=C(NCC(=O)N1CC[C@H](c2cnc[nH]2)C1)c1ccc2cc(F)ccc2n1

>  <score_type>  (28) 
oracle

>  <origin>  (28) 
autodockgpu

>  <m_score__min__energy>  (28) 
-8.3800000000000008

>  <m_primary>  (28) 
energy

>  <rmsd>  (28) 
3.182500373288258

>  <m_score__min__rmsd>  (28) 
3.182500373288258

>  <meeko>  (28) 
{"free_energy": -7.38, "intermolecular_energy": -8.87, "internal_energy": -1.07, "cluster_size": 36, "cluster_id": 1, "rank_in_cluster": 35}

>  <energy>  (28) 
-7.95

>  <cluster_rmsd>  (28) 
1.09

>  <cluster>  (28) 
1

$$$$

     RDKit          3D

 45 48  0  0  0  0  0  0  0  0999 V2000
  141.0160   78.0400  217.4300 O   0  0  0  0  0  0  0  0  0  0  0  0
  141.9250   77.8290  218.2580 C   0  0  0  0  0  0  0  0  0  0  0  0
  142.5550   78.8420  219.0330 N   0  0  0  0  0  0  0  0  0  0  0  0
  142.1440   80.2120  218.8750 C   0  0  0  0  0  0  0  0  0  0  0  0
  141.0720   80.4820  219.8730 C   0  0  0  0  0  0  0  0  0  0  0  0
  140.1560   81.3100  219.6560 O   0  0  0  0  0  0  0  0  0  0  0  0
  141.0310   79.8050  221.1430 N   0  0  0  0  0  0  0  0  0  0  0  0
  142.1800   79.6170  221.9630 C   0  0  0  0  0  0  0  0  0  0  0  0
  141.6800   78.9880  223.2120 C   0  0  0  0  0  0  0  0  0  0  0  0
  140.3690   78.3710  222.8520 C   0  0  2  0  0  0  0  0  0  0  0  0
  140.5040   76.9780  222.3300 C   0  0  0  0  0  0  0  0  0  0  0  0
  139.5510   76.0040  222.6090 C   0  0  0  0  0  0  0  0  0  0  0  0
  139.9750   74.8860  221.9920 N   0  0  0  0  0  0  0  0  0  0  0  0
  141.1430   75.1450  221.3530 C   0  0  0  0  0  0  0  0  0  0  0  0
  141.4660   76.4430  221.5670 N   0  0  0  0  0  0  0  0  0  0  0  0
  139.8480   79.2370  221.7480 C   0  0  0  0  0  0  0  0  0  0  0  0
  142.3790   76.4420  218.4530 C   0  0  0  0  0  0  0  0  0  0  0  0
  141.8540   75.4040  217.7110 C   0  0  0  0  0  0  0  0  0  0  0  0
  142.2560   74.0880  217.8670 C   0  0  0  0  0  0  0  0  0  0  0  0
  143.2340   73.8240  218.8180 C   0  0  0  0  0  0  0  0  0  0  0  0
  143.6400   72.5210  218.9800 C   0  0  0  0  0  0  0  0  0  0  0  0
  144.6160   72.2270  219.9250 C   0  0  0  0  0  0  0  0  0  0  0  0
  145.0010   70.9160  220.0620 F   0  0  0  0  0  0  0  0  0  0  0  0
  145.1610   73.2300  220.6800 C   0  0  0  0  0  0  0  0  0  0  0  0
  144.7280   74.5450  220.4910 C   0  0  0  0  0  0  0  0  0  0  0  0
  143.7580   74.8650  219.5600 C   0  0  0  0  0  0  0  0  0  0  0  0
  143.3290   76.1260  219.3640 N   0  0  0  0  0  0  0  0  0  0  0  0
  143.3150   78.5730  219.7100 H   0  0  0  0  0  0  0  0  0  0  0  0
  142.9981   80.8821  219.0524 H   0  0  0  0  0  0  0  0  0  0  0  0
  141.7728   80.3872  217.8545 H   0  0  0  0  0  0  0  0  0  0  0  0
  142.9043   78.9566  221.4637 H   0  0  0  0  0  0  0  0  0  0  0  0
  142.6967   80.5670  222.1640 H   0  0  0  0  0  0  0  0  0  0  0  0
  142.3834   78.2185  223.5630 H   0  0  0  0  0  0  0  0  0  0  0  0
  141.5756   79.7220  224.0246 H   0  0  0  0  0  0  0  0  0  0  0  0
  139.7195   78.3089  223.7376 H   0  0  0  0  0  0  0  0  0  0  0  0
  138.6379   76.1233  223.2107 H   0  0  0  0  0  0  0  0  0  0  0  0
  141.7277   74.4245  220.7622 H   0  0  0  0  0  0  0  0  0  0  0  0
  142.3080   76.9320  221.2000 H   0  0  0  0  0  0  0  0  0  0  0  0
  139.2867   78.6377  221.0160 H   0  0  0  0  0  0  0  0  0  0  0  0
  139.1545   80.0084  222.1140 H   0  0  0  0  0  0  0  0  0  0  0  0
  141.0815   75.6320  216.9619 H   0  0  0  0  0  0  0  0  0  0  0  0
  141.8174   73.2818  217.2607 H   0  0  0  0  0  0  0  0  0  0  0  0
  143.1978   71.7203  218.3690 H   0  0  0  0  0  0  0  0  0  0  0  0
  145.9335   73.0028  221.4294 H   0  0  0  0  0  0  0  0  0  0  0  0
  145.1711   75.3471  221.0996 H   0  0  0  0  0  0  0  0  0  0  0  0
  1  2  2  0
  2  3  1  0
  3  4  1  0
  4  5  1  0
  5  6  2  0
  5  7  1  0
  7  8  1  0
  8  9  1  0
  9 10  1  0
 10 11  1  0
 11 12  2  0
 12 13  1  0
 13 14  2  0
 14 15  1  0
 10 16  1  0
  2 17  1  0
 17 18  2  0
 18 19  1  0
 19 20  2  0
 20 21  1  0
 21 22  2  0
 22 23  1  0
 22 24  1  0
 24 25  2  0
 25 26  1  0
 26 27  2  0
 16  7  1  0
 27 17  1  0
 15 11  1  0
 26 20  1  0
  3 28  1  0
  4 29  1  0
  4 30  1  0
  8 31  1  0
  8 32  1  0
  9 33  1  0
  9 34  1  0
 10 35  1  1
 12 36  1  0
 14 37  1  0
 15 38  1  0
 16 39  1  0
 16 40  1  0
 18 41  1  0
 19 42  1  0
 21 43  1  0
 24 44  1  0
 25 45  1  0
M  END
>  <smiles>  (29) 
O=C(NCC(=O)N1CC[C@H](c2cnc[nH]2)C1)c1ccc2cc(F)ccc2n1

>  <score_type>  (29) 
oracle

>  <origin>  (29) 
autodockgpu

>  <m_score__min__energy>  (29) 
-8.3800000000000008

>  <m_primary>  (29) 
energy

>  <rmsd>  (29) 
7.677181964380908

>  <m_score__min__rmsd>  (29) 
7.677181964380908

>  <meeko>  (29) 
{"free_energy": -5.88, "intermolecular_energy": -7.37, "internal_energy": -2.75, "cluster_size": 6, "cluster_id": 4, "rank_in_cluster": 6}

>  <energy>  (29) 
-7.84

>  <cluster_rmsd>  (29) 
0.93

>  <cluster>  (29) 
1

$$$$

     RDKit          3D

 45 48  0  0  0  0  0  0  0  0999 V2000
  140.9570   71.6410  221.2920 O   0  0  0  0  0  0  0  0  0  0  0  0
  140.3850   72.1330  222.2870 C   0  0  0  0  0  0  0  0  0  0  0  0
  139.8840   73.4640  222.3450 N   0  0  0  0  0  0  0  0  0  0  0  0
  140.0300   74.3260  221.2030 C   0  0  0  0  0  0  0  0  0  0  0  0
  139.6410   75.7010  221.6200 C   0  0  0  0  0  0  0  0  0  0  0  0
  138.7290   75.9090  222.4540 O   0  0  0  0  0  0  0  0  0  0  0  0
  140.2920   76.8680  221.0850 N   0  0  0  0  0  0  0  0  0  0  0  0
  141.5540   76.8230  220.4260 C   0  0  0  0  0  0  0  0  0  0  0  0
  141.7980   78.2040  219.9380 C   0  0  0  0  0  0  0  0  0  0  0  0
  140.9330   79.0840  220.7780 C   0  0  2  0  0  0  0  0  0  0  0  0
  141.6010   79.5250  222.0400 C   0  0  0  0  0  0  0  0  0  0  0  0
  141.0370   79.2700  223.2850 C   0  0  0  0  0  0  0  0  0  0  0  0
  141.8870   79.7910  224.1890 N   0  0  0  0  0  0  0  0  0  0  0  0
  142.9390   80.3500  223.5410 C   0  0  0  0  0  0  0  0  0  0  0  0
  142.7560   80.1820  222.2090 N   0  0  0  0  0  0  0  0  0  0  0  0
  139.7710   78.2150  221.1420 C   0  0  0  0  0  0  0  0  0  0  0  0
  140.2130   71.2880  223.4790 C   0  0  0  0  0  0  0  0  0  0  0  0
  139.5710   70.0680  223.4080 C   0  0  0  0  0  0  0  0  0  0  0  0
  139.3910   69.2470  224.5080 C   0  0  0  0  0  0  0  0  0  0  0  0
  139.8860   69.6890  225.7280 C   0  0  0  0  0  0  0  0  0  0  0  0
  139.7130   68.8800  226.8250 C   0  0  0  0  0  0  0  0  0  0  0  0
  140.1980   69.2980  228.0590 C   0  0  0  0  0  0  0  0  0  0  0  0
  140.0090   68.4680  229.1360 F   0  0  0  0  0  0  0  0  0  0  0  0
  140.8400   70.5020  228.1700 C   0  0  0  0  0  0  0  0  0  0  0  0
  141.0010   71.3020  227.0350 C   0  0  0  0  0  0  0  0  0  0  0  0
  140.5290   70.9110  225.7970 C   0  0  0  0  0  0  0  0  0  0  0  0
  140.6750   71.6680  224.6930 N   0  0  0  0  0  0  0  0  0  0  0  0
  139.4140   73.7970  223.2260 H   0  0  0  0  0  0  0  0  0  0  0  0
  141.0753   74.3202  220.8606 H   0  0  0  0  0  0  0  0  0  0  0  0
  139.3929   73.9800  220.3757 H   0  0  0  0  0  0  0  0  0  0  0  0
  142.3437   76.5187  221.1287 H   0  0  0  0  0  0  0  0  0  0  0  0
  141.5580   76.0934  219.6028 H   0  0  0  0  0  0  0  0  0  0  0  0
  142.8570   78.4741  220.0629 H   0  0  0  0  0  0  0  0  0  0  0  0
  141.5649   78.3052  218.8678 H   0  0  0  0  0  0  0  0  0  0  0  0
  140.6716   80.0003  220.2284 H   0  0  0  0  0  0  0  0  0  0  0  0
  140.0900   78.7491  223.4893 H   0  0  0  0  0  0  0  0  0  0  0  0
  143.7942   80.8535  224.0154 H   0  0  0  0  0  0  0  0  0  0  0  0
  143.4000   80.5040  221.4580 H   0  0  0  0  0  0  0  0  0  0  0  0
  139.4123   78.4502  222.1549 H   0  0  0  0  0  0  0  0  0  0  0  0
  138.9140   78.3600  220.4678 H   0  0  0  0  0  0  0  0  0  0  0  0
  139.1852   69.7332  222.4338 H   0  0  0  0  0  0  0  0  0  0  0  0
  138.8747   68.2798  224.4190 H   0  0  0  0  0  0  0  0  0  0  0  0
  139.1970   67.9134  226.7280 H   0  0  0  0  0  0  0  0  0  0  0  0
  141.2259   70.8371  229.1441 H   0  0  0  0  0  0  0  0  0  0  0  0
  141.5173   72.2686  227.1302 H   0  0  0  0  0  0  0  0  0  0  0  0
  1  2  2  0
  2  3  1  0
  3  4  1  0
  4  5  1  0
  5  6  2  0
  5  7  1  0
  7  8  1  0
  8  9  1  0
  9 10  1  0
 10 11  1  0
 11 12  2  0
 12 13  1  0
 13 14  2  0
 14 15  1  0
 10 16  1  0
  2 17  1  0
 17 18  2  0
 18 19  1  0
 19 20  2  0
 20 21  1  0
 21 22  2  0
 22 23  1  0
 22 24  1  0
 24 25  2  0
 25 26  1  0
 26 27  2  0
 16  7  1  0
 27 17  1  0
 15 11  1  0
 26 20  1  0
  3 28  1  0
  4 29  1  0
  4 30  1  0
  8 31  1  0
  8 32  1  0
  9 33  1  0
  9 34  1  0
 10 35  1  6
 12 36  1  0
 14 37  1  0
 15 38  1  0
 16 39  1  0
 16 40  1  0
 18 41  1  0
 19 42  1  0
 21 43  1  0
 24 44  1  0
 25 45  1  0
M  END
>  <smiles>  (30) 
O=C(NCC(=O)N1CC[C@H](c2cnc[nH]2)C1)c1ccc2cc(F)ccc2n1

>  <score_type>  (30) 
oracle

>  <origin>  (30) 
autodockgpu

>  <m_score__min__energy>  (30) 
-8.3800000000000008

>  <m_primary>  (30) 
energy

>  <rmsd>  (30) 
2.4777722044599133

>  <m_score__min__rmsd>  (30) 
2.4777722044599133

>  <meeko>  (30) 
{"free_energy": -8.1, "intermolecular_energy": -9.59, "internal_energy": -1.41, "cluster_size": 36, "cluster_id": 1, "rank_in_cluster": 19}

>  <energy>  (30) 
-7.83

>  <cluster_rmsd>  (30) 
1.07

>  <cluster>  (30) 
1

$$$$

     RDKit          3D

 45 48  0  0  0  0  0  0  0  0999 V2000
  140.2830   70.9410  221.6930 O   0  0  0  0  0  0  0  0  0  0  0  0
  140.0800   71.6900  222.6710 C   0  0  0  0  0  0  0  0  0  0  0  0
  139.7030   73.0570  222.5670 N   0  0  0  0  0  0  0  0  0  0  0  0
  139.5360   73.6500  221.2670 C   0  0  0  0  0  0  0  0  0  0  0  0
  139.3030   75.1080  221.4580 C   0  0  0  0  0  0  0  0  0  0  0  0
  138.2790   75.5460  222.0350 O   0  0  0  0  0  0  0  0  0  0  0  0
  140.2410   76.0940  220.9910 N   0  0  0  0  0  0  0  0  0  0  0  0
  141.6150   75.8070  220.7460 C   0  0  0  0  0  0  0  0  0  0  0  0
  142.1860   77.0530  220.1740 C   0  0  0  0  0  0  0  0  0  0  0  0
  141.2630   78.1470  220.5960 C   0  0  2  0  0  0  0  0  0  0  0  0
  141.6130   78.7230  221.9290 C   0  0  0  0  0  0  0  0  0  0  0  0
  140.8770   78.4170  223.0680 C   0  0  0  0  0  0  0  0  0  0  0  0
  141.4580   79.0920  224.0770 N   0  0  0  0  0  0  0  0  0  0  0  0
  142.5140   79.7930  223.5940 C   0  0  0  0  0  0  0  0  0  0  0  0
  142.6050   79.5610  222.2620 N   0  0  0  0  0  0  0  0  0  0  0  0
  139.9290   77.4770  220.7130 C   0  0  0  0  0  0  0  0  0  0  0  0
  140.2390   71.1270  224.0210 C   0  0  0  0  0  0  0  0  0  0  0  0
  140.7650   71.8770  225.0530 C   0  0  0  0  0  0  0  0  0  0  0  0
  140.9290   71.3810  226.3360 C   0  0  0  0  0  0  0  0  0  0  0  0
  140.5390   70.0690  226.5730 C   0  0  0  0  0  0  0  0  0  0  0  0
  140.6970   69.5690  227.8430 C   0  0  0  0  0  0  0  0  0  0  0  0
  140.3160   68.2580  228.1080 C   0  0  0  0  0  0  0  0  0  0  0  0
  140.4870   67.7890  229.3870 F   0  0  0  0  0  0  0  0  0  0  0  0
  139.7900   67.4840  227.1100 C   0  0  0  0  0  0  0  0  0  0  0  0
  139.6410   68.0220  225.8280 C   0  0  0  0  0  0  0  0  0  0  0  0
  140.0120   69.3200  225.5370 C   0  0  0  0  0  0  0  0  0  0  0  0
  139.8760   69.8560  224.3100 N   0  0  0  0  0  0  0  0  0  0  0  0
  139.5510   73.6160  223.4470 H   0  0  0  0  0  0  0  0  0  0  0  0
  140.4425   73.4918  220.6644 H   0  0  0  0  0  0  0  0  0  0  0  0
  138.6856   73.1907  220.7417 H   0  0  0  0  0  0  0  0  0  0  0  0
  142.1261   75.5455  221.6843 H   0  0  0  0  0  0  0  0  0  0  0  0
  141.7376   74.9522  220.0647 H   0  0  0  0  0  0  0  0  0  0  0  0
  143.1970   77.2293  220.5699 H   0  0  0  0  0  0  0  0  0  0  0  0
  142.2754   76.9950  219.0792 H   0  0  0  0  0  0  0  0  0  0  0  0
  141.3028   78.9783  219.8768 H   0  0  0  0  0  0  0  0  0  0  0  0
  139.9988   77.7576  223.1316 H   0  0  0  0  0  0  0  0  0  0  0  0
  143.1820   80.4390  224.1826 H   0  0  0  0  0  0  0  0  0  0  0  0
  143.3190   79.9610  221.6200 H   0  0  0  0  0  0  0  0  0  0  0  0
  139.3442   77.9162  221.5346 H   0  0  0  0  0  0  0  0  0  0  0  0
  139.3215   77.5937  219.8034 H   0  0  0  0  0  0  0  0  0  0  0  0
  141.0674   72.9145  224.8478 H   0  0  0  0  0  0  0  0  0  0  0  0
  141.3526   72.0034  227.1379 H   0  0  0  0  0  0  0  0  0  0  0  0
  141.1197   70.1979  228.6404 H   0  0  0  0  0  0  0  0  0  0  0  0
  139.4867   66.4466  227.3145 H   0  0  0  0  0  0  0  0  0  0  0  0
  139.2170   67.3947  225.0301 H   0  0  0  0  0  0  0  0  0  0  0  0
  1  2  2  0
  2  3  1  0
  3  4  1  0
  4  5  1  0
  5  6  2  0
  5  7  1  0
  7  8  1  0
  8  9  1  0
  9 10  1  0
 10 11  1  0
 11 12  2  0
 12 13  1  0
 13 14  2  0
 14 15  1  0
 10 16  1  0
  2 17  1  0
 17 18  2  0
 18 19  1  0
 19 20  2  0
 20 21  1  0
 21 22  2  0
 22 23  1  0
 22 24  1  0
 24 25  2  0
 25 26  1  0
 26 27  2  0
 16  7  1  0
 27 17  1  0
 15 11  1  0
 26 20  1  0
  3 28  1  0
  4 29  1  0
  4 30  1  0
  8 31  1  0
  8 32  1  0
  9 33  1  0
  9 34  1  0
 10 35  1  6
 12 36  1  0
 14 37  1  0
 15 38  1  0
 16 39  1  0
 16 40  1  0
 18 41  1  0
 19 42  1  0
 21 43  1  0
 24 44  1  0
 25 45  1  0
M  END
>  <smiles>  (31) 
O=C(NCC(=O)N1CC[C@H](c2cnc[nH]2)C1)c1ccc2cc(F)ccc2n1

>  <score_type>  (31) 
oracle

>  <origin>  (31) 
autodockgpu

>  <m_score__min__energy>  (31) 
-8.3800000000000008

>  <m_primary>  (31) 
energy

>  <rmsd>  (31) 
3.1287215523556653

>  <m_score__min__rmsd>  (31) 
3.1287215523556653

>  <meeko>  (31) 
{"free_energy": -7.95, "intermolecular_energy": -9.44, "internal_energy": -1.04, "cluster_size": 36, "cluster_id": 1, "rank_in_cluster": 28}

>  <energy>  (31) 
-7.78

>  <cluster_rmsd>  (31) 
0.95

>  <cluster>  (31) 
1

$$$$

     RDKit          3D

 45 48  0  0  0  0  0  0  0  0999 V2000
  140.6770   71.4840  221.2060 O   0  0  0  0  0  0  0  0  0  0  0  0
  140.2640   72.0210  222.2550 C   0  0  0  0  0  0  0  0  0  0  0  0
  139.8980   73.3910  222.3620 N   0  0  0  0  0  0  0  0  0  0  0  0
  139.9990   74.2440  221.2070 C   0  0  0  0  0  0  0  0  0  0  0  0
  139.9360   75.6550  221.6770 C   0  0  0  0  0  0  0  0  0  0  0  0
  139.3440   75.9760  222.7350 O   0  0  0  0  0  0  0  0  0  0  0  0
  140.5520   76.7280  220.9410 N   0  0  0  0  0  0  0  0  0  0  0  0
  141.8500   76.6310  220.3630 C   0  0  0  0  0  0  0  0  0  0  0  0
  142.0450   77.8960  219.6100 C   0  0  0  0  0  0  0  0  0  0  0  0
  141.0850   78.8710  220.2070 C   0  0  2  0  0  0  0  0  0  0  0  0
  141.6530   79.6040  221.3780 C   0  0  0  0  0  0  0  0  0  0  0  0
  141.5290   80.9840  221.4990 C   0  0  0  0  0  0  0  0  0  0  0  0
  142.1400   81.3100  222.6530 N   0  0  0  0  0  0  0  0  0  0  0  0
  142.6270   80.1850  223.2330 C   0  0  0  0  0  0  0  0  0  0  0  0
  142.3220   79.1310  222.4380 N   0  0  0  0  0  0  0  0  0  0  0  0
  139.9540   78.0190  220.6920 C   0  0  0  0  0  0  0  0  0  0  0  0
  140.1440   71.1880  223.4620 C   0  0  0  0  0  0  0  0  0  0  0  0
  139.5910   69.9240  223.4100 C   0  0  0  0  0  0  0  0  0  0  0  0
  139.4620   69.1120  224.5240 C   0  0  0  0  0  0  0  0  0  0  0  0
  139.9150   69.6120  225.7380 C   0  0  0  0  0  0  0  0  0  0  0  0
  139.7920   68.8130  226.8500 C   0  0  0  0  0  0  0  0  0  0  0  0
  140.2370   69.2870  228.0790 C   0  0  0  0  0  0  0  0  0  0  0  0
  140.1000   68.4660  229.1700 F   0  0  0  0  0  0  0  0  0  0  0  0
  140.7910   70.5360  228.1700 C   0  0  0  0  0  0  0  0  0  0  0  0
  140.9030   71.3230  227.0210 C   0  0  0  0  0  0  0  0  0  0  0  0
  140.4680   70.8770  225.7880 C   0  0  0  0  0  0  0  0  0  0  0  0
  140.5690   71.6220  224.6710 N   0  0  0  0  0  0  0  0  0  0  0  0
  139.5580   73.7610  223.2870 H   0  0  0  0  0  0  0  0  0  0  0  0
  140.9535   74.0637  220.6909 H   0  0  0  0  0  0  0  0  0  0  0  0
  139.1797   74.0364  220.5030 H   0  0  0  0  0  0  0  0  0  0  0  0
  142.6137   76.5294  221.1481 H   0  0  0  0  0  0  0  0  0  0  0  0
  141.9414   75.7499  219.7109 H   0  0  0  0  0  0  0  0  0  0  0  0
  143.0783   78.2555  219.7244 H   0  0  0  0  0  0  0  0  0  0  0  0
  141.8692   77.7595  218.5328 H   0  0  0  0  0  0  0  0  0  0  0  0
  140.8053   79.6354  219.4671 H   0  0  0  0  0  0  0  0  0  0  0  0
  141.0330   81.6689  220.7954 H   0  0  0  0  0  0  0  0  0  0  0  0
  143.1754   80.1365  224.1853 H   0  0  0  0  0  0  0  0  0  0  0  0
  142.5650   78.1360  222.6230 H   0  0  0  0  0  0  0  0  0  0  0  0
  139.5245   78.4329  221.6162 H   0  0  0  0  0  0  0  0  0  0  0  0
  139.1307   77.9644  219.9645 H   0  0  0  0  0  0  0  0  0  0  0  0
  139.2370   69.5450  222.4399 H   0  0  0  0  0  0  0  0  0  0  0  0
  139.0174   68.1085  224.4503 H   0  0  0  0  0  0  0  0  0  0  0  0
  139.3468   67.8105  226.7684 H   0  0  0  0  0  0  0  0  0  0  0  0
  141.1449   70.9165  229.1395 H   0  0  0  0  0  0  0  0  0  0  0  0
  141.3497   72.3251  227.1003 H   0  0  0  0  0  0  0  0  0  0  0  0
  1  2  2  0
  2  3  1  0
  3  4  1  0
  4  5  1  0
  5  6  2  0
  5  7  1  0
  7  8  1  0
  8  9  1  0
  9 10  1  0
 10 11  1  0
 11 12  2  0
 12 13  1  0
 13 14  2  0
 14 15  1  0
 10 16  1  0
  2 17  1  0
 17 18  2  0
 18 19  1  0
 19 20  2  0
 20 21  1  0
 21 22  2  0
 22 23  1  0
 22 24  1  0
 24 25  2  0
 25 26  1  0
 26 27  2  0
 16  7  1  0
 27 17  1  0
 15 11  1  0
 26 20  1  0
  3 28  1  0
  4 29  1  0
  4 30  1  0
  8 31  1  0
  8 32  1  0
  9 33  1  0
  9 34  1  0
 10 35  1  6
 12 36  1  0
 14 37  1  0
 15 38  1  0
 16 39  1  0
 16 40  1  0
 18 41  1  0
 19 42  1  0
 21 43  1  0
 24 44  1  0
 25 45  1  0
M  END
>  <smiles>  (32) 
O=C(NCC(=O)N1CC[C@H](c2cnc[nH]2)C1)c1ccc2cc(F)ccc2n1

>  <score_type>  (32) 
oracle

>  <origin>  (32) 
autodockgpu

>  <m_score__min__energy>  (32) 
-8.3800000000000008

>  <m_primary>  (32) 
energy

>  <rmsd>  (32) 
2.2669783840635467

>  <m_score__min__rmsd>  (32) 
2.2669783840635467

>  <meeko>  (32) 
{"free_energy": -8.02, "intermolecular_energy": -9.51, "internal_energy": -1.5, "cluster_size": 36, "cluster_id": 1, "rank_in_cluster": 26}

>  <energy>  (32) 
-7.7

>  <cluster_rmsd>  (32) 
1.37

>  <cluster>  (32) 
1

$$$$

     RDKit          3D

 45 48  0  0  0  0  0  0  0  0999 V2000
  138.8220   72.5730  220.9970 O   0  0  0  0  0  0  0  0  0  0  0  0
  139.8170   72.6010  221.7510 C   0  0  0  0  0  0  0  0  0  0  0  0
  141.0010   73.3440  221.4880 N   0  0  0  0  0  0  0  0  0  0  0  0
  141.0940   74.1250  220.2830 C   0  0  0  0  0  0  0  0  0  0  0  0
  141.7120   75.4330  220.6350 C   0  0  0  0  0  0  0  0  0  0  0  0
  142.9300   75.6630  220.4470 O   0  0  0  0  0  0  0  0  0  0  0  0
  140.9440   76.5040  221.2120 N   0  0  0  0  0  0  0  0  0  0  0  0
  140.2180   77.4500  220.4330 C   0  0  0  0  0  0  0  0  0  0  0  0
  139.4860   78.2940  221.4100 C   0  0  0  0  0  0  0  0  0  0  0  0
  140.2180   78.1380  222.7020 C   0  0  2  0  0  0  0  0  0  0  0  0
  141.3380   79.1140  222.8580 C   0  0  0  0  0  0  0  0  0  0  0  0
  141.1650   80.3150  223.5380 C   0  0  0  0  0  0  0  0  0  0  0  0
  142.3550   80.9410  223.4930 N   0  0  0  0  0  0  0  0  0  0  0  0
  143.2390   80.1680  222.8140 C   0  0  0  0  0  0  0  0  0  0  0  0
  142.6030   79.0370  222.4230 N   0  0  0  0  0  0  0  0  0  0  0  0
  140.8040   76.7630  222.6270 C   0  0  0  0  0  0  0  0  0  0  0  0
  139.7670   71.8180  222.9960 C   0  0  0  0  0  0  0  0  0  0  0  0
  139.0140   70.6660  223.0890 C   0  0  0  0  0  0  0  0  0  0  0  0
  138.9430   69.9030  224.2430 C   0  0  0  0  0  0  0  0  0  0  0  0
  139.6720   70.3350  225.3440 C   0  0  0  0  0  0  0  0  0  0  0  0
  139.6090   69.5850  226.4940 C   0  0  0  0  0  0  0  0  0  0  0  0
  140.3270   69.9950  227.6110 C   0  0  0  0  0  0  0  0  0  0  0  0
  140.2430   69.2240  228.7440 F   0  0  0  0  0  0  0  0  0  0  0  0
  141.0870   71.1320  227.5570 C   0  0  0  0  0  0  0  0  0  0  0  0
  141.1310   71.8730  226.3730 C   0  0  0  0  0  0  0  0  0  0  0  0
  140.4260   71.4900  225.2480 C   0  0  0  0  0  0  0  0  0  0  0  0
  140.4570   72.1900  224.0990 N   0  0  0  0  0  0  0  0  0  0  0  0
  141.7920   73.3110  222.1810 H   0  0  0  0  0  0  0  0  0  0  0  0
  141.7201   73.6017  219.5453 H   0  0  0  0  0  0  0  0  0  0  0  0
  140.0962   74.2768  219.8456 H   0  0  0  0  0  0  0  0  0  0  0  0
  140.9071   78.0646  219.8351 H   0  0  0  0  0  0  0  0  0  0  0  0
  139.5330   76.9564  219.7280 H   0  0  0  0  0  0  0  0  0  0  0  0
  139.4926   79.3462  221.0894 H   0  0  0  0  0  0  0  0  0  0  0  0
  138.4321   77.9921  221.4999 H   0  0  0  0  0  0  0  0  0  0  0  0
  139.5374   78.3062  223.5497 H   0  0  0  0  0  0  0  0  0  0  0  0
  140.2431   80.6788  224.0153 H   0  0  0  0  0  0  0  0  0  0  0  0
  144.2919   80.4166  222.6148 H   0  0  0  0  0  0  0  0  0  0  0  0
  143.0260   78.2540  221.8840 H   0  0  0  0  0  0  0  0  0  0  0  0
  141.7834   76.7303  223.1267 H   0  0  0  0  0  0  0  0  0  0  0  0
  140.1747   76.0130  223.1285 H   0  0  0  0  0  0  0  0  0  0  0  0
  138.4442   70.3384  222.2070 H   0  0  0  0  0  0  0  0  0  0  0  0
  138.3322   68.9892  224.2860 H   0  0  0  0  0  0  0  0  0  0  0  0
  138.9976   68.6712  226.5298 H   0  0  0  0  0  0  0  0  0  0  0  0
  141.6583   71.4597  228.4380 H   0  0  0  0  0  0  0  0  0  0  0  0
  141.7435   72.7859  226.3356 H   0  0  0  0  0  0  0  0  0  0  0  0
  1  2  2  0
  2  3  1  0
  3  4  1  0
  4  5  1  0
  5  6  2  0
  5  7  1  0
  7  8  1  0
  8  9  1  0
  9 10  1  0
 10 11  1  0
 11 12  2  0
 12 13  1  0
 13 14  2  0
 14 15  1  0
 10 16  1  0
  2 17  1  0
 17 18  2  0
 18 19  1  0
 19 20  2  0
 20 21  1  0
 21 22  2  0
 22 23  1  0
 22 24  1  0
 24 25  2  0
 25 26  1  0
 26 27  2  0
 16  7  1  0
 27 17  1  0
 15 11  1  0
 26 20  1  0
  3 28  1  0
  4 29  1  0
  4 30  1  0
  8 31  1  0
  8 32  1  0
  9 33  1  0
  9 34  1  0
 10 35  1  1
 12 36  1  0
 14 37  1  0
 15 38  1  0
 16 39  1  0
 16 40  1  0
 18 41  1  0
 19 42  1  0
 21 43  1  0
 24 44  1  0
 25 45  1  0
M  END
>  <smiles>  (33) 
O=C(NCC(=O)N1CC[C@H](c2cnc[nH]2)C1)c1ccc2cc(F)ccc2n1

>  <score_type>  (33) 
oracle

>  <origin>  (33) 
autodockgpu

>  <m_score__min__energy>  (33) 
-8.3800000000000008

>  <m_primary>  (33) 
energy

>  <rmsd>  (33) 
3.1197951755658218

>  <m_score__min__rmsd>  (33) 
3.1197951755658218

>  <meeko>  (33) 
{"free_energy": -7.23, "intermolecular_energy": -8.72, "internal_energy": -1.34, "cluster_size": 36, "cluster_id": 1, "rank_in_cluster": 36}

>  <energy>  (33) 
-7.64

>  <cluster_rmsd>  (33) 
1.09

>  <cluster>  (33) 
1

$$$$

     RDKit          3D

 45 48  0  0  0  0  0  0  0  0999 V2000
  137.8750   71.4900  222.2390 O   0  0  0  0  0  0  0  0  0  0  0  0
  138.9440   71.6280  222.8690 C   0  0  0  0  0  0  0  0  0  0  0  0
  139.9430   72.5900  222.5510 N   0  0  0  0  0  0  0  0  0  0  0  0
  139.7430   73.4760  221.4350 C   0  0  0  0  0  0  0  0  0  0  0  0
  139.4430   74.8290  221.9790 C   0  0  0  0  0  0  0  0  0  0  0  0
  140.3500   75.6240  222.3210 O   0  0  0  0  0  0  0  0  0  0  0  0
  138.0920   75.2980  222.1420 N   0  0  0  0  0  0  0  0  0  0  0  0
  137.7350   76.3540  223.0310 C   0  0  0  0  0  0  0  0  0  0  0  0
  136.2870   76.5920  222.8050 C   0  0  0  0  0  0  0  0  0  0  0  0
  135.7650   75.3350  222.1910 C   0  0  2  0  0  0  0  0  0  0  0  0
  135.3340   74.3260  223.2040 C   0  0  0  0  0  0  0  0  0  0  0  0
  134.0670   74.3680  223.7750 C   0  0  0  0  0  0  0  0  0  0  0  0
  134.0110   73.3290  224.6290 N   0  0  0  0  0  0  0  0  0  0  0  0
  135.1920   72.6630  224.5970 C   0  0  0  0  0  0  0  0  0  0  0  0
  136.0080   73.2860  223.7120 N   0  0  0  0  0  0  0  0  0  0  0  0
  136.9380   74.7780  221.4460 C   0  0  0  0  0  0  0  0  0  0  0  0
  139.1930   70.7430  224.0180 C   0  0  0  0  0  0  0  0  0  0  0  0
  138.6790   69.4630  224.0620 C   0  0  0  0  0  0  0  0  0  0  0  0
  138.8920   68.6020  225.1260 C   0  0  0  0  0  0  0  0  0  0  0  0
  139.6610   69.0680  226.1850 C   0  0  0  0  0  0  0  0  0  0  0  0
  139.8780   68.2210  227.2450 C   0  0  0  0  0  0  0  0  0  0  0  0
  140.6430   68.6610  228.3190 C   0  0  0  0  0  0  0  0  0  0  0  0
  140.8420   67.7910  229.3620 F   0  0  0  0  0  0  0  0  0  0  0  0
  141.1710   69.9250  228.3110 C   0  0  0  0  0  0  0  0  0  0  0  0
  140.9320   70.7620  227.2180 C   0  0  0  0  0  0  0  0  0  0  0  0
  140.1740   70.3500  226.1380 C   0  0  0  0  0  0  0  0  0  0  0  0
  139.9350   71.1430  225.0770 N   0  0  0  0  0  0  0  0  0  0  0  0
  140.8160   72.6370  223.1380 H   0  0  0  0  0  0  0  0  0  0  0  0
  140.6533   73.5135  220.8186 H   0  0  0  0  0  0  0  0  0  0  0  0
  138.9136   73.1214  220.8055 H   0  0  0  0  0  0  0  0  0  0  0  0
  137.9172   76.0562  224.0741 H   0  0  0  0  0  0  0  0  0  0  0  0
  138.3306   77.2604  222.8472 H   0  0  0  0  0  0  0  0  0  0  0  0
  135.7775   76.7939  223.7588 H   0  0  0  0  0  0  0  0  0  0  0  0
  136.1139   77.4640  222.1572 H   0  0  0  0  0  0  0  0  0  0  0  0
  134.8817   75.5504  221.5719 H   0  0  0  0  0  0  0  0  0  0  0  0
  133.2725   75.1008  223.5706 H   0  0  0  0  0  0  0  0  0  0  0  0
  135.4444   71.7702  225.1880 H   0  0  0  0  0  0  0  0  0  0  0  0
  136.9800   73.0020  223.4730 H   0  0  0  0  0  0  0  0  0  0  0  0
  136.9299   73.6784  221.4750 H   0  0  0  0  0  0  0  0  0  0  0  0
  136.9295   75.0608  220.3830 H   0  0  0  0  0  0  0  0  0  0  0  0
  138.0731   69.1107  223.2142 H   0  0  0  0  0  0  0  0  0  0  0  0
  138.4680   67.5870  225.1322 H   0  0  0  0  0  0  0  0  0  0  0  0
  139.4515   67.2070  227.2437 H   0  0  0  0  0  0  0  0  0  0  0  0
  141.7779   70.2780  229.1578 H   0  0  0  0  0  0  0  0  0  0  0  0
  141.3585   71.7760  227.2169 H   0  0  0  0  0  0  0  0  0  0  0  0
  1  2  2  0
  2  3  1  0
  3  4  1  0
  4  5  1  0
  5  6  2  0
  5  7  1  0
  7  8  1  0
  8  9  1  0
  9 10  1  0
 10 11  1  0
 11 12  2  0
 12 13  1  0
 13 14  2  0
 14 15  1  0
 10 16  1  0
  2 17  1  0
 17 18  2  0
 18 19  1  0
 19 20  2  0
 20 21  1  0
 21 22  2  0
 22 23  1  0
 22 24  1  0
 24 25  2  0
 25 26  1  0
 26 27  2  0
 16  7  1  0
 27 17  1  0
 15 11  1  0
 26 20  1  0
  3 28  1  0
  4 29  1  0
  4 30  1  0
  8 31  1  0
  8 32  1  0
  9 33  1  0
  9 34  1  0
 10 35  1  6
 12 36  1  0
 14 37  1  0
 15 38  1  0
 16 39  1  0
 16 40  1  0
 18 41  1  0
 19 42  1  0
 21 43  1  0
 24 44  1  0
 25 45  1  0
M  END
>  <smiles>  (34) 
O=C(NCC(=O)N1CC[C@H](c2cnc[nH]2)C1)c1ccc2cc(F)ccc2n1

>  <score_type>  (34) 
oracle

>  <origin>  (34) 
autodockgpu

>  <m_score__min__energy>  (34) 
-8.3800000000000008

>  <m_primary>  (34) 
energy

>  <rmsd>  (34) 
3.419815848323458

>  <m_score__min__rmsd>  (34) 
3.419815848323458

>  <meeko>  (34) 
{"free_energy": -6.35, "intermolecular_energy": -7.84, "internal_energy": -2.24, "cluster_size": 1, "cluster_id": 5, "rank_in_cluster": 1}

>  <energy>  (34) 
-7.46

>  <cluster_rmsd>  (34) 
1.53

>  <cluster>  (34) 
1

$$$$

     RDKit          3D

 45 48  0  0  0  0  0  0  0  0999 V2000
  140.8560   72.2420  221.9870 O   0  0  0  0  0  0  0  0  0  0  0  0
  139.8190   72.1230  222.6720 C   0  0  0  0  0  0  0  0  0  0  0  0
  138.6050   72.8190  222.4150 N   0  0  0  0  0  0  0  0  0  0  0  0
  138.5330   73.7290  221.3030 C   0  0  0  0  0  0  0  0  0  0  0  0
  139.5320   74.8090  221.5340 C   0  0  0  0  0  0  0  0  0  0  0  0
  139.4690   75.5700  222.5280 O   0  0  0  0  0  0  0  0  0  0  0  0
  140.6260   75.0360  220.6260 N   0  0  0  0  0  0  0  0  0  0  0  0
  140.6400   74.5520  219.2870 C   0  0  0  0  0  0  0  0  0  0  0  0
  141.8780   75.1020  218.6780 C   0  0  0  0  0  0  0  0  0  0  0  0
  142.7740   75.4370  219.8240 C   0  0  2  0  0  0  0  0  0  0  0  0
  143.6230   74.2870  220.2570 C   0  0  0  0  0  0  0  0  0  0  0  0
  144.9910   74.4310  220.4570 C   0  0  0  0  0  0  0  0  0  0  0  0
  145.4390   73.2210  220.8380 N   0  0  0  0  0  0  0  0  0  0  0  0
  144.3970   72.3530  220.8780 C   0  0  0  0  0  0  0  0  0  0  0  0
  143.2740   73.0200  220.5160 N   0  0  0  0  0  0  0  0  0  0  0  0
  141.8320   75.7690  220.9390 C   0  0  0  0  0  0  0  0  0  0  0  0
  139.8460   71.2030  223.8200 C   0  0  0  0  0  0  0  0  0  0  0  0
  139.2740   69.9490  223.7480 C   0  0  0  0  0  0  0  0  0  0  0  0
  139.2800   69.0570  224.8080 C   0  0  0  0  0  0  0  0  0  0  0  0
  139.8950   69.4620  225.9850 C   0  0  0  0  0  0  0  0  0  0  0  0
  139.9070   68.5840  227.0420 C   0  0  0  0  0  0  0  0  0  0  0  0
  140.5160   68.9630  228.2330 C   0  0  0  0  0  0  0  0  0  0  0  0
  140.5110   68.0630  229.2690 F   0  0  0  0  0  0  0  0  0  0  0  0
  141.0950   70.1990  228.3420 C   0  0  0  0  0  0  0  0  0  0  0  0
  141.0670   71.0690  227.2490 C   0  0  0  0  0  0  0  0  0  0  0  0
  140.4680   70.7180  226.0540 C   0  0  0  0  0  0  0  0  0  0  0  0
  140.4320   71.5430  224.9910 N   0  0  0  0  0  0  0  0  0  0  0  0
  137.7780   72.6570  223.0450 H   0  0  0  0  0  0  0  0  0  0  0  0
  138.7658   73.1974  220.3686 H   0  0  0  0  0  0  0  0  0  0  0  0
  137.5215   74.1527  221.2178 H   0  0  0  0  0  0  0  0  0  0  0  0
  140.6622   73.4523  219.2762 H   0  0  0  0  0  0  0  0  0  0  0  0
  139.7413   74.8603  218.7327 H   0  0  0  0  0  0  0  0  0  0  0  0
  142.3514   74.3525  218.0267 H   0  0  0  0  0  0  0  0  0  0  0  0
  141.6681   75.9833  218.0541 H   0  0  0  0  0  0  0  0  0  0  0  0
  143.4657   76.2454  219.5446 H   0  0  0  0  0  0  0  0  0  0  0  0
  145.5860   75.3474  220.3297 H   0  0  0  0  0  0  0  0  0  0  0  0
  144.4538   71.2903  221.1564 H   0  0  0  0  0  0  0  0  0  0  0  0
  142.3170   72.6160  220.4540 H   0  0  0  0  0  0  0  0  0  0  0  0
  142.2443   75.4442  221.9057 H   0  0  0  0  0  0  0  0  0  0  0  0
  141.6526   76.8508  221.0262 H   0  0  0  0  0  0  0  0  0  0  0  0
  138.7920   69.6443  222.8073 H   0  0  0  0  0  0  0  0  0  0  0  0
  138.8145   68.0642  224.7203 H   0  0  0  0  0  0  0  0  0  0  0  0
  139.4401   67.5926  226.9469 H   0  0  0  0  0  0  0  0  0  0  0  0
  141.5780   70.5044  229.2819 H   0  0  0  0  0  0  0  0  0  0  0  0
  141.5345   72.0603  227.3422 H   0  0  0  0  0  0  0  0  0  0  0  0
  1  2  2  0
  2  3  1  0
  3  4  1  0
  4  5  1  0
  5  6  2  0
  5  7  1  0
  7  8  1  0
  8  9  1  0
  9 10  1  0
 10 11  1  0
 11 12  2  0
 12 13  1  0
 13 14  2  0
 14 15  1  0
 10 16  1  0
  2 17  1  0
 17 18  2  0
 18 19  1  0
 19 20  2  0
 20 21  1  0
 21 22  2  0
 22 23  1  0
 22 24  1  0
 24 25  2  0
 25 26  1  0
 26 27  2  0
 16  7  1  0
 27 17  1  0
 15 11  1  0
 26 20  1  0
  3 28  1  0
  4 29  1  0
  4 30  1  0
  8 31  1  0
  8 32  1  0
  9 33  1  0
  9 34  1  0
 10 35  1  6
 12 36  1  0
 14 37  1  0
 15 38  1  0
 16 39  1  0
 16 40  1  0
 18 41  1  0
 19 42  1  0
 21 43  1  0
 24 44  1  0
 25 45  1  0
M  END
>  <smiles>  (35) 
O=C(NCC(=O)N1CC[C@H](c2cnc[nH]2)C1)c1ccc2cc(F)ccc2n1

>  <score_type>  (35) 
oracle

>  <origin>  (35) 
autodockgpu

>  <m_score__min__energy>  (35) 
-8.3800000000000008

>  <m_primary>  (35) 
energy

>  <rmsd>  (35) 
2.0977697056278015

>  <m_score__min__rmsd>  (35) 
2.0977697056278015

>  <meeko>  (35) 
{"free_energy": -7.17, "intermolecular_energy": -8.66, "internal_energy": -1.87, "cluster_size": 6, "cluster_id": 2, "rank_in_cluster": 4}

>  <energy>  (35) 
-7.38

>  <cluster_rmsd>  (35) 
1.58

>  <cluster>  (35) 
1

$$$$

     RDKit          3D

 45 48  0  0  0  0  0  0  0  0999 V2000
  140.3540   71.4510  221.1520 O   0  0  0  0  0  0  0  0  0  0  0  0
  140.0680   71.9770  222.2470 C   0  0  0  0  0  0  0  0  0  0  0  0
  139.7620   73.3560  222.4170 N   0  0  0  0  0  0  0  0  0  0  0  0
  139.7740   74.2300  221.2740 C   0  0  0  0  0  0  0  0  0  0  0  0
  139.5770   75.6220  221.7660 C   0  0  0  0  0  0  0  0  0  0  0  0
  138.8020   75.8880  222.7140 O   0  0  0  0  0  0  0  0  0  0  0  0
  140.2680   76.7390  221.1770 N   0  0  0  0  0  0  0  0  0  0  0  0
  141.5390   76.6220  220.5430 C   0  0  0  0  0  0  0  0  0  0  0  0
  141.8280   77.9650  219.9810 C   0  0  0  0  0  0  0  0  0  0  0  0
  140.9740   78.9150  220.7530 C   0  0  2  0  0  0  0  0  0  0  0  0
  141.6320   79.4110  221.9990 C   0  0  0  0  0  0  0  0  0  0  0  0
  141.1160   79.1200  223.2570 C   0  0  0  0  0  0  0  0  0  0  0  0
  141.9430   79.7080  224.1410 N   0  0  0  0  0  0  0  0  0  0  0  0
  142.9360   80.3420  223.4680 C   0  0  0  0  0  0  0  0  0  0  0  0
  142.7370   80.1550  222.1410 N   0  0  0  0  0  0  0  0  0  0  0  0
  139.7820   78.0990  221.1460 C   0  0  0  0  0  0  0  0  0  0  0  0
  140.0440   71.1210  223.4440 C   0  0  0  0  0  0  0  0  0  0  0  0
  139.5670   69.8280  223.3910 C   0  0  0  0  0  0  0  0  0  0  0  0
  139.5290   68.9940  224.4970 C   0  0  0  0  0  0  0  0  0  0  0  0
  139.9970   69.5020  225.7010 C   0  0  0  0  0  0  0  0  0  0  0  0
  139.9640   68.6820  226.8040 C   0  0  0  0  0  0  0  0  0  0  0  0
  140.4250   69.1660  228.0230 C   0  0  0  0  0  0  0  0  0  0  0  0
  140.3780   68.3220  229.1050 F   0  0  0  0  0  0  0  0  0  0  0  0
  140.9060   70.4440  228.1140 C   0  0  0  0  0  0  0  0  0  0  0  0
  140.9270   71.2530  226.9750 C   0  0  0  0  0  0  0  0  0  0  0  0
  140.4740   70.7990  225.7520 C   0  0  0  0  0  0  0  0  0  0  0  0
  140.4870   71.5630  224.6440 N   0  0  0  0  0  0  0  0  0  0  0  0
  139.5310   73.7150  223.3790 H   0  0  0  0  0  0  0  0  0  0  0  0
  140.7388   74.1503  220.7516 H   0  0  0  0  0  0  0  0  0  0  0  0
  138.9756   73.9538  220.5695 H   0  0  0  0  0  0  0  0  0  0  0  0
  142.3091   76.3381  221.2754 H   0  0  0  0  0  0  0  0  0  0  0  0
  141.5359   75.8459  219.7635 H   0  0  0  0  0  0  0  0  0  0  0  0
  142.8918   78.2140  220.1088 H   0  0  0  0  0  0  0  0  0  0  0  0
  141.6147   78.0097  218.9028 H   0  0  0  0  0  0  0  0  0  0  0  0
  140.7474   79.8043  220.1465 H   0  0  0  0  0  0  0  0  0  0  0  0
  140.2158   78.5298  223.4834 H   0  0  0  0  0  0  0  0  0  0  0  0
  143.7612   80.9104  223.9220 H   0  0  0  0  0  0  0  0  0  0  0  0
  143.3390   80.5220  221.3750 H   0  0  0  0  0  0  0  0  0  0  0  0
  139.4127   78.4025  222.1367 H   0  0  0  0  0  0  0  0  0  0  0  0
  138.9403   78.2263  220.4494 H   0  0  0  0  0  0  0  0  0  0  0  0
  139.2006   69.4418  222.4284 H   0  0  0  0  0  0  0  0  0  0  0  0
  139.1421   67.9669  224.4235 H   0  0  0  0  0  0  0  0  0  0  0  0
  139.5775   67.6553  226.7230 H   0  0  0  0  0  0  0  0  0  0  0  0
  141.2731   70.8311  229.0760 H   0  0  0  0  0  0  0  0  0  0  0  0
  141.3149   72.2793  227.0546 H   0  0  0  0  0  0  0  0  0  0  0  0
  1  2  2  0
  2  3  1  0
  3  4  1  0
  4  5  1  0
  5  6  2  0
  5  7  1  0
  7  8  1  0
  8  9  1  0
  9 10  1  0
 10 11  1  0
 11 12  2  0
 12 13  1  0
 13 14  2  0
 14 15  1  0
 10 16  1  0
  2 17  1  0
 17 18  2  0
 18 19  1  0
 19 20  2  0
 20 21  1  0
 21 22  2  0
 22 23  1  0
 22 24  1  0
 24 25  2  0
 25 26  1  0
 26 27  2  0
 16  7  1  0
 27 17  1  0
 15 11  1  0
 26 20  1  0
  3 28  1  0
  4 29  1  0
  4 30  1  0
  8 31  1  0
  8 32  1  0
  9 33  1  0
  9 34  1  0
 10 35  1  6
 12 36  1  0
 14 37  1  0
 15 38  1  0
 16 39  1  0
 16 40  1  0
 18 41  1  0
 19 42  1  0
 21 43  1  0
 24 44  1  0
 25 45  1  0
M  END
>  <smiles>  (36) 
O=C(NCC(=O)N1CC[C@H](c2cnc[nH]2)C1)c1ccc2cc(F)ccc2n1

>  <score_type>  (36) 
oracle

>  <origin>  (36) 
autodockgpu

>  <m_score__min__energy>  (36) 
-8.3800000000000008

>  <m_primary>  (36) 
energy

>  <rmsd>  (36) 
2.367430070889364

>  <m_score__min__rmsd>  (36) 
2.367430070889364

>  <meeko>  (36) 
{"free_energy": -8.05, "intermolecular_energy": -9.54, "internal_energy": -1.46, "cluster_size": 36, "cluster_id": 1, "rank_in_cluster": 23}

>  <energy>  (36) 
-7.23

>  <cluster_rmsd>  (36) 
1.5

>  <cluster>  (36) 
1

$$$$

     RDKit          3D

 45 48  0  0  0  0  0  0  0  0999 V2000
  140.9860   71.9200  221.2210 O   0  0  0  0  0  0  0  0  0  0  0  0
  140.4360   72.4070  222.2300 C   0  0  0  0  0  0  0  0  0  0  0  0
  139.9800   73.7510  222.3240 N   0  0  0  0  0  0  0  0  0  0  0  0
  140.1500   74.6360  221.2020 C   0  0  0  0  0  0  0  0  0  0  0  0
  139.7790   76.0080  221.6450 C   0  0  0  0  0  0  0  0  0  0  0  0
  138.9410   76.2070  222.5570 O   0  0  0  0  0  0  0  0  0  0  0  0
  140.3630   77.1810  221.0510 N   0  0  0  0  0  0  0  0  0  0  0  0
  141.5990   77.1630  220.3430 C   0  0  0  0  0  0  0  0  0  0  0  0
  141.7700   78.5360  219.8050 C   0  0  0  0  0  0  0  0  0  0  0  0
  140.9030   79.4090  220.6500 C   0  0  2  0  0  0  0  0  0  0  0  0
  141.6000   79.9150  221.8700 C   0  0  0  0  0  0  0  0  0  0  0  0
  141.0930   80.9810  222.6050 C   0  0  0  0  0  0  0  0  0  0  0  0
  141.9520   81.1700  223.6240 N   0  0  0  0  0  0  0  0  0  0  0  0
  142.9560   80.2630  223.5340 C   0  0  0  0  0  0  0  0  0  0  0  0
  142.7320   79.4880  222.4450 N   0  0  0  0  0  0  0  0  0  0  0  0
  139.7910   78.5080  221.0860 C   0  0  0  0  0  0  0  0  0  0  0  0
  140.2410   71.5390  223.4030 C   0  0  0  0  0  0  0  0  0  0  0  0
  139.6130   70.3150  223.2930 C   0  0  0  0  0  0  0  0  0  0  0  0
  139.4120   69.4720  224.3740 C   0  0  0  0  0  0  0  0  0  0  0  0
  139.8710   69.8970  225.6140 C   0  0  0  0  0  0  0  0  0  0  0  0
  139.6770   69.0680  226.6920 C   0  0  0  0  0  0  0  0  0  0  0  0
  140.1260   69.4680  227.9450 C   0  0  0  0  0  0  0  0  0  0  0  0
  139.9170   68.6160  229.0020 F   0  0  0  0  0  0  0  0  0  0  0  0
  140.7540   70.6750  228.0940 C   0  0  0  0  0  0  0  0  0  0  0  0
  140.9370   71.4960  226.9780 C   0  0  0  0  0  0  0  0  0  0  0  0
  140.5000   71.1230  225.7210 C   0  0  0  0  0  0  0  0  0  0  0  0
  140.6680   71.9010  224.6350 N   0  0  0  0  0  0  0  0  0  0  0  0
  139.5250   74.0780  223.2150 H   0  0  0  0  0  0  0  0  0  0  0  0
  141.1982   74.6209  220.8688 H   0  0  0  0  0  0  0  0  0  0  0  0
  139.5148   74.3183  220.3620 H   0  0  0  0  0  0  0  0  0  0  0  0
  142.4269   76.9106  221.0219 H   0  0  0  0  0  0  0  0  0  0  0  0
  141.5988   76.4088  219.5423 H   0  0  0  0  0  0  0  0  0  0  0  0
  142.8215   78.8501  219.8811 H   0  0  0  0  0  0  0  0  0  0  0  0
  141.4932   78.5941  218.7420 H   0  0  0  0  0  0  0  0  0  0  0  0
  140.5847   80.2962  220.0829 H   0  0  0  0  0  0  0  0  0  0  0  0
  140.1769   81.5531  222.3963 H   0  0  0  0  0  0  0  0  0  0  0  0
  143.8062   80.1719  224.2260 H   0  0  0  0  0  0  0  0  0  0  0  0
  143.3330   78.7030  222.1200 H   0  0  0  0  0  0  0  0  0  0  0  0
  139.4615   78.7623  222.1042 H   0  0  0  0  0  0  0  0  0  0  0  0
  138.9041   78.5975  220.4415 H   0  0  0  0  0  0  0  0  0  0  0  0
  139.2562   69.9945  222.3031 H   0  0  0  0  0  0  0  0  0  0  0  0
  138.9075   68.5019  224.2545 H   0  0  0  0  0  0  0  0  0  0  0  0
  139.1722   68.0990  226.5650 H   0  0  0  0  0  0  0  0  0  0  0  0
  141.1115   70.9960  229.0835 H   0  0  0  0  0  0  0  0  0  0  0  0
  141.4423   72.4650  227.1034 H   0  0  0  0  0  0  0  0  0  0  0  0
  1  2  2  0
  2  3  1  0
  3  4  1  0
  4  5  1  0
  5  6  2  0
  5  7  1  0
  7  8  1  0
  8  9  1  0
  9 10  1  0
 10 11  1  0
 11 12  2  0
 12 13  1  0
 13 14  2  0
 14 15  1  0
 10 16  1  0
  2 17  1  0
 17 18  2  0
 18 19  1  0
 19 20  2  0
 20 21  1  0
 21 22  2  0
 22 23  1  0
 22 24  1  0
 24 25  2  0
 25 26  1  0
 26 27  2  0
 16  7  1  0
 27 17  1  0
 15 11  1  0
 26 20  1  0
  3 28  1  0
  4 29  1  0
  4 30  1  0
  8 31  1  0
  8 32  1  0
  9 33  1  0
  9 34  1  0
 10 35  1  6
 12 36  1  0
 14 37  1  0
 15 38  1  0
 16 39  1  0
 16 40  1  0
 18 41  1  0
 19 42  1  0
 21 43  1  0
 24 44  1  0
 25 45  1  0
M  END
>  <smiles>  (37) 
O=C(NCC(=O)N1CC[C@H](c2cnc[nH]2)C1)c1ccc2cc(F)ccc2n1

>  <score_type>  (37) 
oracle

>  <origin>  (37) 
autodockgpu

>  <m_score__min__energy>  (37) 
-8.3800000000000008

>  <m_primary>  (37) 
energy

>  <rmsd>  (37) 
2.5977277943899924

>  <m_score__min__rmsd>  (37) 
2.5977277943899924

>  <meeko>  (37) 
{"free_energy": -8.26, "intermolecular_energy": -9.75, "internal_energy": -1.44, "cluster_size": 36, "cluster_id": 1, "rank_in_cluster": 13}

>  <energy>  (37) 
-7.75

>  <cluster_rmsd>  (37) 
0.0

>  <cluster>  (37) 
2

$$$$

     RDKit          3D

 45 48  0  0  0  0  0  0  0  0999 V2000
  141.2990   72.0920  221.6240 O   0  0  0  0  0  0  0  0  0  0  0  0
  140.4110   72.3820  222.4520 C   0  0  0  0  0  0  0  0  0  0  0  0
  139.5560   73.5140  222.3470 N   0  0  0  0  0  0  0  0  0  0  0  0
  139.6970   74.4060  221.2270 C   0  0  0  0  0  0  0  0  0  0  0  0
  139.4960   75.7950  221.7250 C   0  0  0  0  0  0  0  0  0  0  0  0
  138.6930   76.0590  222.6510 O   0  0  0  0  0  0  0  0  0  0  0  0
  140.2150   76.9110  221.1680 N   0  0  0  0  0  0  0  0  0  0  0  0
  141.4810   76.7820  220.5300 C   0  0  0  0  0  0  0  0  0  0  0  0
  141.8030   78.1340  220.0070 C   0  0  0  0  0  0  0  0  0  0  0  0
  140.9730   79.0820  220.8080 C   0  0  2  0  0  0  0  0  0  0  0  0
  141.6450   79.5240  222.0680 C   0  0  0  0  0  0  0  0  0  0  0  0
  141.0730   79.2920  223.3140 C   0  0  0  0  0  0  0  0  0  0  0  0
  141.9290   79.8080  224.2150 N   0  0  0  0  0  0  0  0  0  0  0  0
  142.9930   80.3410  223.5640 C   0  0  0  0  0  0  0  0  0  0  0  0
  142.8110   80.1620  222.2330 N   0  0  0  0  0  0  0  0  0  0  0  0
  139.7620   78.2840  221.1790 C   0  0  0  0  0  0  0  0  0  0  0  0
  140.2300   71.4980  223.6150 C   0  0  0  0  0  0  0  0  0  0  0  0
  139.5890   70.2810  223.4980 C   0  0  0  0  0  0  0  0  0  0  0  0
  139.4010   69.4230  224.5690 C   0  0  0  0  0  0  0  0  0  0  0  0
  139.8860   69.8260  225.8070 C   0  0  0  0  0  0  0  0  0  0  0  0
  139.7040   68.9810  226.8760 C   0  0  0  0  0  0  0  0  0  0  0  0
  140.1790   69.3580  228.1270 C   0  0  0  0  0  0  0  0  0  0  0  0
  139.9810   68.4930  229.1740 F   0  0  0  0  0  0  0  0  0  0  0  0
  140.8190   70.5580  228.2820 C   0  0  0  0  0  0  0  0  0  0  0  0
  140.9890   71.3950  227.1750 C   0  0  0  0  0  0  0  0  0  0  0  0
  140.5270   71.0450  225.9210 C   0  0  0  0  0  0  0  0  0  0  0  0
  140.6820   71.8370  224.8440 N   0  0  0  0  0  0  0  0  0  0  0  0
  138.8320   73.6820  223.0930 H   0  0  0  0  0  0  0  0  0  0  0  0
  140.7027   74.3058  220.7928 H   0  0  0  0  0  0  0  0  0  0  0  0
  138.9582   74.1657  220.4483 H   0  0  0  0  0  0  0  0  0  0  0  0
  142.2442   76.4579  221.2528 H   0  0  0  0  0  0  0  0  0  0  0  0
  141.4583   76.0296  219.7279 H   0  0  0  0  0  0  0  0  0  0  0  0
  142.8727   78.3528  220.1407 H   0  0  0  0  0  0  0  0  0  0  0  0
  141.5902   78.2157  218.9309 H   0  0  0  0  0  0  0  0  0  0  0  0
  140.7676   79.9941  220.2285 H   0  0  0  0  0  0  0  0  0  0  0  0
  140.1166   78.7895  223.5208 H   0  0  0  0  0  0  0  0  0  0  0  0
  143.8558   80.8341  224.0356 H   0  0  0  0  0  0  0  0  0  0  0  0
  143.4630   80.4650  221.4810 H   0  0  0  0  0  0  0  0  0  0  0  0
  139.4018   78.5665  222.1792 H   0  0  0  0  0  0  0  0  0  0  0  0
  138.9226   78.4527  220.4884 H   0  0  0  0  0  0  0  0  0  0  0  0
  139.2107   69.9792  222.5102 H   0  0  0  0  0  0  0  0  0  0  0  0
  138.8869   68.4586  224.4440 H   0  0  0  0  0  0  0  0  0  0  0  0
  139.1888   68.0183  226.7432 H   0  0  0  0  0  0  0  0  0  0  0  0
  141.1966   70.8614  229.2696 H   0  0  0  0  0  0  0  0  0  0  0  0
  141.5044   72.3579  227.3061 H   0  0  0  0  0  0  0  0  0  0  0  0
  1  2  2  0
  2  3  1  0
  3  4  1  0
  4  5  1  0
  5  6  2  0
  5  7  1  0
  7  8  1  0
  8  9  1  0
  9 10  1  0
 10 11  1  0
 11 12  2  0
 12 13  1  0
 13 14  2  0
 14 15  1  0
 10 16  1  0
  2 17  1  0
 17 18  2  0
 18 19  1  0
 19 20  2  0
 20 21  1  0
 21 22  2  0
 22 23  1  0
 22 24  1  0
 24 25  2  0
 25 26  1  0
 26 27  2  0
 16  7  1  0
 27 17  1  0
 15 11  1  0
 26 20  1  0
  3 28  1  0
  4 29  1  0
  4 30  1  0
  8 31  1  0
  8 32  1  0
  9 33  1  0
  9 34  1  0
 10 35  1  6
 12 36  1  0
 14 37  1  0
 15 38  1  0
 16 39  1  0
 16 40  1  0
 18 41  1  0
 19 42  1  0
 21 43  1  0
 24 44  1  0
 25 45  1  0
M  END
>  <smiles>  (38) 
O=C(NCC(=O)N1CC[C@H](c2cnc[nH]2)C1)c1ccc2cc(F)ccc2n1

>  <score_type>  (38) 
oracle

>  <origin>  (38) 
autodockgpu

>  <m_score__min__energy>  (38) 
-8.3800000000000008

>  <m_primary>  (38) 
energy

>  <rmsd>  (38) 
2.511470472089609

>  <m_score__min__rmsd>  (38) 
2.511470472089609

>  <meeko>  (38) 
{"free_energy": -8.29, "intermolecular_energy": -9.79, "internal_energy": -1.3, "cluster_size": 36, "cluster_id": 1, "rank_in_cluster": 10}

>  <energy>  (38) 
-7.6

>  <cluster_rmsd>  (38) 
1.85

>  <cluster>  (38) 
2

$$$$

     RDKit          3D

 45 48  0  0  0  0  0  0  0  0999 V2000
  141.0970   72.1290  221.5270 O   0  0  0  0  0  0  0  0  0  0  0  0
  140.2260   72.3620  222.3900 C   0  0  0  0  0  0  0  0  0  0  0  0
  139.2930   73.4330  222.3180 N   0  0  0  0  0  0  0  0  0  0  0  0
  139.3280   74.3280  221.1920 C   0  0  0  0  0  0  0  0  0  0  0  0
  139.3580   75.7200  221.7180 C   0  0  0  0  0  0  0  0  0  0  0  0
  138.6080   76.0940  222.6510 O   0  0  0  0  0  0  0  0  0  0  0  0
  140.2530   76.7130  221.1840 N   0  0  0  0  0  0  0  0  0  0  0  0
  141.5800   76.4190  220.7590 C   0  0  0  0  0  0  0  0  0  0  0  0
  142.1010   77.6820  220.1780 C   0  0  0  0  0  0  0  0  0  0  0  0
  141.2590   78.7680  220.7600 C   0  0  2  0  0  0  0  0  0  0  0  0
  141.7810   79.2760  222.0640 C   0  0  0  0  0  0  0  0  0  0  0  0
  141.0780   79.0890  223.2490 C   0  0  0  0  0  0  0  0  0  0  0  0
  141.8220   79.6580  224.2140 N   0  0  0  0  0  0  0  0  0  0  0  0
  142.9450   80.1810  223.6610 C   0  0  0  0  0  0  0  0  0  0  0  0
  142.9130   79.9420  222.3280 N   0  0  0  0  0  0  0  0  0  0  0  0
  139.9370   78.1120  221.0080 C   0  0  0  0  0  0  0  0  0  0  0  0
  140.1520   71.4730  223.5610 C   0  0  0  0  0  0  0  0  0  0  0  0
  139.5840   70.2180  223.4750 C   0  0  0  0  0  0  0  0  0  0  0  0
  139.4970   69.3550  224.5540 C   0  0  0  0  0  0  0  0  0  0  0  0
  140.0120   69.7910  225.7680 C   0  0  0  0  0  0  0  0  0  0  0  0
  139.9310   68.9420  226.8450 C   0  0  0  0  0  0  0  0  0  0  0  0
  140.4370   69.3530  228.0730 C   0  0  0  0  0  0  0  0  0  0  0  0
  140.3410   68.4810  229.1290 F   0  0  0  0  0  0  0  0  0  0  0  0
  141.0080   70.5900  228.1980 C   0  0  0  0  0  0  0  0  0  0  0  0
  141.0760   71.4310  227.0840 C   0  0  0  0  0  0  0  0  0  0  0  0
  140.5800   71.0480  225.8520 C   0  0  0  0  0  0  0  0  0  0  0  0
  140.6370   71.8450  224.7680 N   0  0  0  0  0  0  0  0  0  0  0  0
  138.5900   73.5550  223.0920 H   0  0  0  0  0  0  0  0  0  0  0  0
  140.2281   74.1362  220.5894 H   0  0  0  0  0  0  0  0  0  0  0  0
  138.4448   74.1774  220.5538 H   0  0  0  0  0  0  0  0  0  0  0  0
  142.1970   76.1064  221.6144 H   0  0  0  0  0  0  0  0  0  0  0  0
  141.6013   75.5957  220.0298 H   0  0  0  0  0  0  0  0  0  0  0  0
  143.1563   77.8248  220.4534 H   0  0  0  0  0  0  0  0  0  0  0  0
  142.0538   77.6747  219.0790 H   0  0  0  0  0  0  0  0  0  0  0  0
  141.2273   79.6327  220.0808 H   0  0  0  0  0  0  0  0  0  0  0  0
  140.1108   78.5797  223.3720 H   0  0  0  0  0  0  0  0  0  0  0  0
  143.7443   80.7085  224.2021 H   0  0  0  0  0  0  0  0  0  0  0  0
  143.6410   80.2230  221.6390 H   0  0  0  0  0  0  0  0  0  0  0  0
  139.4643   78.5205  221.9134 H   0  0  0  0  0  0  0  0  0  0  0  0
  139.2267   78.2794  220.1849 H   0  0  0  0  0  0  0  0  0  0  0  0
  139.1823   69.8887  222.5054 H   0  0  0  0  0  0  0  0  0  0  0  0
  139.0370   68.3608  224.4536 H   0  0  0  0  0  0  0  0  0  0  0  0
  139.4712   67.9486  226.7370 H   0  0  0  0  0  0  0  0  0  0  0  0
  141.4102   70.9198  229.1673 H   0  0  0  0  0  0  0  0  0  0  0  0
  141.5365   72.4243  227.1904 H   0  0  0  0  0  0  0  0  0  0  0  0
  1  2  2  0
  2  3  1  0
  3  4  1  0
  4  5  1  0
  5  6  2  0
  5  7  1  0
  7  8  1  0
  8  9  1  0
  9 10  1  0
 10 11  1  0
 11 12  2  0
 12 13  1  0
 13 14  2  0
 14 15  1  0
 10 16  1  0
  2 17  1  0
 17 18  2  0
 18 19  1  0
 19 20  2  0
 20 21  1  0
 21 22  2  0
 22 23  1  0
 22 24  1  0
 24 25  2  0
 25 26  1  0
 26 27  2  0
 16  7  1  0
 27 17  1  0
 15 11  1  0
 26 20  1  0
  3 28  1  0
  4 29  1  0
  4 30  1  0
  8 31  1  0
  8 32  1  0
  9 33  1  0
  9 34  1  0
 10 35  1  6
 12 36  1  0
 14 37  1  0
 15 38  1  0
 16 39  1  0
 16 40  1  0
 18 41  1  0
 19 42  1  0
 21 43  1  0
 24 44  1  0
 25 45  1  0
M  END
>  <smiles>  (39) 
O=C(NCC(=O)N1CC[C@H](c2cnc[nH]2)C1)c1ccc2cc(F)ccc2n1

>  <score_type>  (39) 
oracle

>  <origin>  (39) 
autodockgpu

>  <m_score__min__energy>  (39) 
-8.3800000000000008

>  <m_primary>  (39) 
energy

>  <rmsd>  (39) 
2.412050129632458

>  <m_score__min__rmsd>  (39) 
2.412050129632458

>  <meeko>  (39) 
{"free_energy": -8.32, "intermolecular_energy": -9.81, "internal_energy": -1.2, "cluster_size": 36, "cluster_id": 1, "rank_in_cluster": 8}

>  <energy>  (39) 
-7.37

>  <cluster_rmsd>  (39) 
1.66

>  <cluster>  (39) 
2

$$$$

     RDKit          3D

 45 48  0  0  0  0  0  0  0  0999 V2000
  141.2910   72.5280  221.7780 O   0  0  0  0  0  0  0  0  0  0  0  0
  140.2840   72.5650  222.5150 C   0  0  0  0  0  0  0  0  0  0  0  0
  139.2040   73.4760  222.3510 N   0  0  0  0  0  0  0  0  0  0  0  0
  139.2410   74.4320  221.2760 C   0  0  0  0  0  0  0  0  0  0  0  0
  139.3740   75.7870  221.8790 C   0  0  0  0  0  0  0  0  0  0  0  0
  138.8000   76.0970  222.9500 O   0  0  0  0  0  0  0  0  0  0  0  0
  140.1700   76.8160  221.2630 N   0  0  0  0  0  0  0  0  0  0  0  0
  141.5020   76.6010  220.8050 C   0  0  0  0  0  0  0  0  0  0  0  0
  141.9040   77.8680  220.1420 C   0  0  0  0  0  0  0  0  0  0  0  0
  140.9980   78.9160  220.6980 C   0  0  2  0  0  0  0  0  0  0  0  0
  141.5210   79.5310  221.9550 C   0  0  0  0  0  0  0  0  0  0  0  0
  140.6900   80.2420  222.8140 C   0  0  0  0  0  0  0  0  0  0  0  0
  141.4720   80.6490  223.8310 N   0  0  0  0  0  0  0  0  0  0  0  0
  142.7390   80.2130  223.6210 C   0  0  0  0  0  0  0  0  0  0  0  0
  142.7630   79.5220  222.4560 N   0  0  0  0  0  0  0  0  0  0  0  0
  139.7400   78.1750  221.0280 C   0  0  0  0  0  0  0  0  0  0  0  0
  140.2020   71.6060  223.6280 C   0  0  0  0  0  0  0  0  0  0  0  0
  139.6390   70.3570  223.4590 C   0  0  0  0  0  0  0  0  0  0  0  0
  139.5450   69.4290  224.4830 C   0  0  0  0  0  0  0  0  0  0  0  0
  140.0460   69.7910  225.7270 C   0  0  0  0  0  0  0  0  0  0  0  0
  139.9580   68.8770  226.7490 C   0  0  0  0  0  0  0  0  0  0  0  0
  140.4510   69.2120  228.0040 C   0  0  0  0  0  0  0  0  0  0  0  0
  140.3480   68.2770  229.0030 F   0  0  0  0  0  0  0  0  0  0  0  0
  141.0180   70.4410  228.2100 C   0  0  0  0  0  0  0  0  0  0  0  0
  141.0930   71.3490  227.1500 C   0  0  0  0  0  0  0  0  0  0  0  0
  140.6100   71.0420  225.8930 C   0  0  0  0  0  0  0  0  0  0  0  0
  140.6750   71.9040  224.8610 N   0  0  0  0  0  0  0  0  0  0  0  0
  138.3930   73.4360  223.0200 H   0  0  0  0  0  0  0  0  0  0  0  0
  140.1013   74.2270  220.6219 H   0  0  0  0  0  0  0  0  0  0  0  0
  138.3241   74.3677  220.6717 H   0  0  0  0  0  0  0  0  0  0  0  0
  142.1689   76.3820  221.6519 H   0  0  0  0  0  0  0  0  0  0  0  0
  141.5636   75.7440  220.1181 H   0  0  0  0  0  0  0  0  0  0  0  0
  142.9531   78.1058  220.3719 H   0  0  0  0  0  0  0  0  0  0  0  0
  141.8229   77.7985  219.0472 H   0  0  0  0  0  0  0  0  0  0  0  0
  140.8760   79.7376  219.9768 H   0  0  0  0  0  0  0  0  0  0  0  0
  139.6140   80.4327  222.6881 H   0  0  0  0  0  0  0  0  0  0  0  0
  143.5994   80.3901  224.2830 H   0  0  0  0  0  0  0  0  0  0  0  0
  143.5980   79.0660  222.0330 H   0  0  0  0  0  0  0  0  0  0  0  0
  139.2670   78.5941  221.9284 H   0  0  0  0  0  0  0  0  0  0  0  0
  138.9920   78.2433  220.2244 H   0  0  0  0  0  0  0  0  0  0  0  0
  139.2477   70.0867  222.4671 H   0  0  0  0  0  0  0  0  0  0  0  0
  139.0901   68.4413  224.3171 H   0  0  0  0  0  0  0  0  0  0  0  0
  139.5023   67.8910  226.5755 H   0  0  0  0  0  0  0  0  0  0  0  0
  141.4111   70.7115  229.2011 H   0  0  0  0  0  0  0  0  0  0  0  0
  141.5492   72.3351  227.3216 H   0  0  0  0  0  0  0  0  0  0  0  0
  1  2  2  0
  2  3  1  0
  3  4  1  0
  4  5  1  0
  5  6  2  0
  5  7  1  0
  7  8  1  0
  8  9  1  0
  9 10  1  0
 10 11  1  0
 11 12  2  0
 12 13  1  0
 13 14  2  0
 14 15  1  0
 10 16  1  0
  2 17  1  0
 17 18  2  0
 18 19  1  0
 19 20  2  0
 20 21  1  0
 21 22  2  0
 22 23  1  0
 22 24  1  0
 24 25  2  0
 25 26  1  0
 26 27  2  0
 16  7  1  0
 27 17  1  0
 15 11  1  0
 26 20  1  0
  3 28  1  0
  4 29  1  0
  4 30  1  0
  8 31  1  0
  8 32  1  0
  9 33  1  0
  9 34  1  0
 10 35  1  6
 12 36  1  0
 14 37  1  0
 15 38  1  0
 16 39  1  0
 16 40  1  0
 18 41  1  0
 19 42  1  0
 21 43  1  0
 24 44  1  0
 25 45  1  0
M  END
>  <smiles>  (40) 
O=C(NCC(=O)N1CC[C@H](c2cnc[nH]2)C1)c1ccc2cc(F)ccc2n1

>  <score_type>  (40) 
oracle

>  <origin>  (40) 
autodockgpu

>  <m_score__min__energy>  (40) 
-8.3800000000000008

>  <m_primary>  (40) 
energy

>  <rmsd>  (40) 
2.43664573233187

>  <m_score__min__rmsd>  (40) 
2.43664573233187

>  <meeko>  (40) 
{"free_energy": -8.37, "intermolecular_energy": -9.86, "internal_energy": -1.11, "cluster_size": 36, "cluster_id": 1, "rank_in_cluster": 3}

>  <energy>  (40) 
-7.17

>  <cluster_rmsd>  (40) 
1.99

>  <cluster>  (40) 
2

$$$$

     RDKit          3D

 45 48  0  0  0  0  0  0  0  0999 V2000
  139.8740   73.0130  222.6980 O   0  0  0  0  0  0  0  0  0  0  0  0
  139.7570   71.7760  222.8230 C   0  0  0  0  0  0  0  0  0  0  0  0
  139.3230   70.9040  221.7850 N   0  0  0  0  0  0  0  0  0  0  0  0
  138.9890   71.4490  220.4960 C   0  0  0  0  0  0  0  0  0  0  0  0
  140.2540   71.6100  219.7290 C   0  0  0  0  0  0  0  0  0  0  0  0
  140.4660   70.9880  218.6600 O   0  0  0  0  0  0  0  0  0  0  0  0
  141.3040   72.4880  220.1730 N   0  0  0  0  0  0  0  0  0  0  0  0
  141.3180   73.8860  219.8980 C   0  0  0  0  0  0  0  0  0  0  0  0
  142.4960   74.4220  220.6260 C   0  0  0  0  0  0  0  0  0  0  0  0
  143.3950   73.2520  220.8520 C   0  0  2  0  0  0  0  0  0  0  0  0
  144.3370   73.0120  219.7180 C   0  0  0  0  0  0  0  0  0  0  0  0
  145.6800   73.3610  219.8040 C   0  0  0  0  0  0  0  0  0  0  0  0
  146.2300   73.0090  218.6280 N   0  0  0  0  0  0  0  0  0  0  0  0
  145.2750   72.4620  217.8350 C   0  0  0  0  0  0  0  0  0  0  0  0
  144.1030   72.4670  218.5160 N   0  0  0  0  0  0  0  0  0  0  0  0
  142.4610   72.0860  220.9390 C   0  0  0  0  0  0  0  0  0  0  0  0
  140.0880   71.1740  224.1240 C   0  0  0  0  0  0  0  0  0  0  0  0
  140.6930   71.9100  225.1220 C   0  0  0  0  0  0  0  0  0  0  0  0
  141.0190   71.3770  226.3580 C   0  0  0  0  0  0  0  0  0  0  0  0
  140.7160   70.0410  226.5820 C   0  0  0  0  0  0  0  0  0  0  0  0
  141.0350   69.5030  227.8060 C   0  0  0  0  0  0  0  0  0  0  0  0
  140.7430   68.1670  228.0570 C   0  0  0  0  0  0  0  0  0  0  0  0
  141.0740   67.6600  229.2890 F   0  0  0  0  0  0  0  0  0  0  0  0
  140.1430   67.4050  227.0910 C   0  0  0  0  0  0  0  0  0  0  0  0
  139.8300   67.9810  225.8570 C   0  0  0  0  0  0  0  0  0  0  0  0
  140.1100   69.3050  225.5800 C   0  0  0  0  0  0  0  0  0  0  0  0
  139.8150   69.8770  224.3980 N   0  0  0  0  0  0  0  0  0  0  0  0
  139.2540   69.8720  221.9780 H   0  0  0  0  0  0  0  0  0  0  0  0
  138.3131   70.7636  219.9636 H   0  0  0  0  0  0  0  0  0  0  0  0
  138.4815   72.4185  220.6083 H   0  0  0  0  0  0  0  0  0  0  0  0
  141.4202   74.0642  218.8173 H   0  0  0  0  0  0  0  0  0  0  0  0
  140.3849   74.3738  220.2165 H   0  0  0  0  0  0  0  0  0  0  0  0
  143.0057   75.1867  220.0214 H   0  0  0  0  0  0  0  0  0  0  0  0
  142.2059   74.9011  221.5727 H   0  0  0  0  0  0  0  0  0  0  0  0
  144.0181   73.4152  221.7437 H   0  0  0  0  0  0  0  0  0  0  0  0
  146.1890   73.8294  220.6593 H   0  0  0  0  0  0  0  0  0  0  0  0
  145.4258   72.0800  216.8146 H   0  0  0  0  0  0  0  0  0  0  0  0
  143.1910   72.1090  218.1660 H   0  0  0  0  0  0  0  0  0  0  0  0
  142.9212   71.1865  220.5042 H   0  0  0  0  0  0  0  0  0  0  0  0
  142.2056   71.8327  221.9785 H   0  0  0  0  0  0  0  0  0  0  0  0
  140.9268   72.9671  224.9273 H   0  0  0  0  0  0  0  0  0  0  0  0
  141.5005   71.9901  227.1340 H   0  0  0  0  0  0  0  0  0  0  0  0
  141.5156   70.1221  228.5778 H   0  0  0  0  0  0  0  0  0  0  0  0
  139.9091   66.3477  227.2846 H   0  0  0  0  0  0  0  0  0  0  0  0
  139.3475   67.3633  225.0852 H   0  0  0  0  0  0  0  0  0  0  0  0
  1  2  2  0
  2  3  1  0
  3  4  1  0
  4  5  1  0
  5  6  2  0
  5  7  1  0
  7  8  1  0
  8  9  1  0
  9 10  1  0
 10 11  1  0
 11 12  2  0
 12 13  1  0
 13 14  2  0
 14 15  1  0
 10 16  1  0
  2 17  1  0
 17 18  2  0
 18 19  1  0
 19 20  2  0
 20 21  1  0
 21 22  2  0
 22 23  1  0
 22 24  1  0
 24 25  2  0
 25 26  1  0
 26 27  2  0
 16  7  1  0
 27 17  1  0
 15 11  1  0
 26 20  1  0
  3 28  1  0
  4 29  1  0
  4 30  1  0
  8 31  1  0
  8 32  1  0
  9 33  1  0
  9 34  1  0
 10 35  1  1
 12 36  1  0
 14 37  1  0
 15 38  1  0
 16 39  1  0
 16 40  1  0
 18 41  1  0
 19 42  1  0
 21 43  1  0
 24 44  1  0
 25 45  1  0
M  END
>  <smiles>  (41) 
O=C(NCC(=O)N1CC[C@H](c2cnc[nH]2)C1)c1ccc2cc(F)ccc2n1

>  <score_type>  (41) 
oracle

>  <origin>  (41) 
autodockgpu

>  <m_score__min__energy>  (41) 
-8.3800000000000008

>  <m_primary>  (41) 
energy

>  <rmsd>  (41) 
3.797645186568981

>  <m_score__min__rmsd>  (41) 
3.797645186568981

>  <meeko>  (41) 
{"free_energy": -6.77, "intermolecular_energy": -8.26, "internal_energy": -1.66, "cluster_size": 6, "cluster_id": 2, "rank_in_cluster": 6}

>  <energy>  (41) 
-7.08

>  <cluster_rmsd>  (41) 
1.75

>  <cluster>  (41) 
2

$$$$

     RDKit          3D

 45 48  0  0  0  0  0  0  0  0999 V2000
  140.9770   71.9670  221.2620 O   0  0  0  0  0  0  0  0  0  0  0  0
  140.3580   72.3940  222.2590 C   0  0  0  0  0  0  0  0  0  0  0  0
  139.7750   73.6890  222.3460 N   0  0  0  0  0  0  0  0  0  0  0  0
  139.8880   74.5920  221.2320 C   0  0  0  0  0  0  0  0  0  0  0  0
  139.6920   75.9750  221.7470 C   0  0  0  0  0  0  0  0  0  0  0  0
  138.9630   76.2180  222.7370 O   0  0  0  0  0  0  0  0  0  0  0  0
  140.3310   77.1100  221.1340 N   0  0  0  0  0  0  0  0  0  0  0  0
  141.5970   77.0350  220.4840 C   0  0  0  0  0  0  0  0  0  0  0  0
  141.8260   78.3810  219.9020 C   0  0  0  0  0  0  0  0  0  0  0  0
  140.9450   79.3070  220.6730 C   0  0  2  0  0  0  0  0  0  0  0  0
  141.6010   79.8440  221.9040 C   0  0  0  0  0  0  0  0  0  0  0  0
  140.9640   80.7750  222.7170 C   0  0  0  0  0  0  0  0  0  0  0  0
  141.8210   81.0360  223.7220 N   0  0  0  0  0  0  0  0  0  0  0  0
  142.9480   80.3010  223.5480 C   0  0  0  0  0  0  0  0  0  0  0  0
  142.8050   79.5650  222.4190 N   0  0  0  0  0  0  0  0  0  0  0  0
  139.7920   78.4500  221.0940 C   0  0  0  0  0  0  0  0  0  0  0  0
  140.2170   71.5050  223.4230 C   0  0  0  0  0  0  0  0  0  0  0  0
  139.6020   70.2740  223.3160 C   0  0  0  0  0  0  0  0  0  0  0  0
  139.4520   69.4110  224.3890 C   0  0  0  0  0  0  0  0  0  0  0  0
  139.9490   69.8230  225.6180 C   0  0  0  0  0  0  0  0  0  0  0  0
  139.8050   68.9730  226.6890 C   0  0  0  0  0  0  0  0  0  0  0  0
  140.2930   69.3600  227.9320 C   0  0  0  0  0  0  0  0  0  0  0  0
  140.1330   68.4890  228.9810 F   0  0  0  0  0  0  0  0  0  0  0  0
  140.9090   70.5730  228.0780 C   0  0  0  0  0  0  0  0  0  0  0  0
  141.0400   71.4150  226.9700 C   0  0  0  0  0  0  0  0  0  0  0  0
  140.5640   71.0560  225.7240 C   0  0  0  0  0  0  0  0  0  0  0  0
  140.6820   71.8530  224.6450 N   0  0  0  0  0  0  0  0  0  0  0  0
  139.2700   73.9660  223.2260 H   0  0  0  0  0  0  0  0  0  0  0  0
  140.8845   74.5003  220.7753 H   0  0  0  0  0  0  0  0  0  0  0  0
  139.1335   74.3558  220.4672 H   0  0  0  0  0  0  0  0  0  0  0  0
  142.3872   76.7905  221.2091 H   0  0  0  0  0  0  0  0  0  0  0  0
  141.6137   76.2498  219.7138 H   0  0  0  0  0  0  0  0  0  0  0  0
  142.8807   78.6730  220.0131 H   0  0  0  0  0  0  0  0  0  0  0  0
  141.5977   78.4034  218.8262 H   0  0  0  0  0  0  0  0  0  0  0  0
  140.6744   80.1781  220.0582 H   0  0  0  0  0  0  0  0  0  0  0  0
  139.9643   81.2094  222.5692 H   0  0  0  0  0  0  0  0  0  0  0  0
  143.8268   80.3022  224.2096 H   0  0  0  0  0  0  0  0  0  0  0  0
  143.5070   78.9020  222.0300 H   0  0  0  0  0  0  0  0  0  0  0  0
  139.4259   78.7514  222.0866 H   0  0  0  0  0  0  0  0  0  0  0  0
  138.9359   78.5355  220.4086 H   0  0  0  0  0  0  0  0  0  0  0  0
  139.2136   69.9644  222.3345 H   0  0  0  0  0  0  0  0  0  0  0  0
  138.9574   68.4355  224.2717 H   0  0  0  0  0  0  0  0  0  0  0  0
  139.3098   67.9988  226.5640 H   0  0  0  0  0  0  0  0  0  0  0  0
  141.2979   70.8830  229.0592 H   0  0  0  0  0  0  0  0  0  0  0  0
  141.5353   72.3894  227.0936 H   0  0  0  0  0  0  0  0  0  0  0  0
  1  2  2  0
  2  3  1  0
  3  4  1  0
  4  5  1  0
  5  6  2  0
  5  7  1  0
  7  8  1  0
  8  9  1  0
  9 10  1  0
 10 11  1  0
 11 12  2  0
 12 13  1  0
 13 14  2  0
 14 15  1  0
 10 16  1  0
  2 17  1  0
 17 18  2  0
 18 19  1  0
 19 20  2  0
 20 21  1  0
 21 22  2  0
 22 23  1  0
 22 24  1  0
 24 25  2  0
 25 26  1  0
 26 27  2  0
 16  7  1  0
 27 17  1  0
 15 11  1  0
 26 20  1  0
  3 28  1  0
  4 29  1  0
  4 30  1  0
  8 31  1  0
  8 32  1  0
  9 33  1  0
  9 34  1  0
 10 35  1  6
 12 36  1  0
 14 37  1  0
 15 38  1  0
 16 39  1  0
 16 40  1  0
 18 41  1  0
 19 42  1  0
 21 43  1  0
 24 44  1  0
 25 45  1  0
M  END
>  <smiles>  (42) 
O=C(NCC(=O)N1CC[C@H](c2cnc[nH]2)C1)c1ccc2cc(F)ccc2n1

>  <score_type>  (42) 
oracle

>  <origin>  (42) 
autodockgpu

>  <m_score__min__energy>  (42) 
-8.3800000000000008

>  <m_primary>  (42) 
energy

>  <rmsd>  (42) 
2.5436270338230087

>  <m_score__min__rmsd>  (42) 
2.5436270338230087

>  <meeko>  (42) 
{"free_energy": -8.36, "intermolecular_energy": -9.85, "internal_energy": -1.41, "cluster_size": 36, "cluster_id": 1, "rank_in_cluster": 4}

>  <energy>  (42) 
-6.77

>  <cluster_rmsd>  (42) 
1.75

>  <cluster>  (42) 
2

$$$$

     RDKit          3D

 45 48  0  0  0  0  0  0  0  0999 V2000
  140.1550   71.6900  221.0910 O   0  0  0  0  0  0  0  0  0  0  0  0
  139.9300   72.2360  222.1910 C   0  0  0  0  0  0  0  0  0  0  0  0
  139.6370   73.6190  222.3530 N   0  0  0  0  0  0  0  0  0  0  0  0
  139.5900   74.4730  221.1960 C   0  0  0  0  0  0  0  0  0  0  0  0
  140.6050   75.5460  221.3830 C   0  0  0  0  0  0  0  0  0  0  0  0
  141.8270   75.2920  221.4990 O   0  0  0  0  0  0  0  0  0  0  0  0
  140.2360   76.9360  221.4410 N   0  0  0  0  0  0  0  0  0  0  0  0
  140.2570   77.7960  220.3050 C   0  0  0  0  0  0  0  0  0  0  0  0
  139.7020   79.0900  220.7750 C   0  0  0  0  0  0  0  0  0  0  0  0
  139.8730   79.0850  222.2570 C   0  0  2  0  0  0  0  0  0  0  0  0
  141.1990   79.6160  222.6930 C   0  0  0  0  0  0  0  0  0  0  0  0
  141.3020   80.7870  223.4370 C   0  0  0  0  0  0  0  0  0  0  0  0
  142.6170   80.9700  223.6570 N   0  0  0  0  0  0  0  0  0  0  0  0
  143.3110   79.9590  223.0770 C   0  0  0  0  0  0  0  0  0  0  0  0
  142.4260   79.1230  222.4810 N   0  0  0  0  0  0  0  0  0  0  0  0
  139.8040   77.6370  222.6290 C   0  0  0  0  0  0  0  0  0  0  0  0
  139.9670   71.4020  223.4020 C   0  0  0  0  0  0  0  0  0  0  0  0
  139.5170   70.0970  223.3890 C   0  0  0  0  0  0  0  0  0  0  0  0
  139.5370   69.2830  224.5090 C   0  0  0  0  0  0  0  0  0  0  0  0
  140.0360   69.8220  225.6870 C   0  0  0  0  0  0  0  0  0  0  0  0
  140.0600   69.0220  226.8040 C   0  0  0  0  0  0  0  0  0  0  0  0
  140.5540   69.5360  227.9970 C   0  0  0  0  0  0  0  0  0  0  0  0
  140.5640   68.7110  229.0940 F   0  0  0  0  0  0  0  0  0  0  0  0
  141.0090   70.8260  228.0500 C   0  0  0  0  0  0  0  0  0  0  0  0
  140.9720   71.6150  226.8970 C   0  0  0  0  0  0  0  0  0  0  0  0
  140.4860   71.1290  225.6980 C   0  0  0  0  0  0  0  0  0  0  0  0
  140.4430   71.8740  224.5780 N   0  0  0  0  0  0  0  0  0  0  0  0
  139.4590   73.9960  223.3190 H   0  0  0  0  0  0  0  0  0  0  0  0
  139.8221   73.8915  220.2916 H   0  0  0  0  0  0  0  0  0  0  0  0
  138.5866   74.9084  221.0794 H   0  0  0  0  0  0  0  0  0  0  0  0
  141.2871   77.9287  219.9426 H   0  0  0  0  0  0  0  0  0  0  0  0
  139.6736   77.3818  219.4695 H   0  0  0  0  0  0  0  0  0  0  0  0
  140.2539   79.9297  220.3276 H   0  0  0  0  0  0  0  0  0  0  0  0
  138.6470   79.2090  220.4873 H   0  0  0  0  0  0  0  0  0  0  0  0
  139.1118   79.7221  222.7311 H   0  0  0  0  0  0  0  0  0  0  0  0
  140.4775   81.4314  223.7760 H   0  0  0  0  0  0  0  0  0  0  0  0
  144.4043   79.8383  223.0884 H   0  0  0  0  0  0  0  0  0  0  0  0
  142.6630   78.2560  221.9570 H   0  0  0  0  0  0  0  0  0  0  0  0
  140.4747   77.4204  223.4735 H   0  0  0  0  0  0  0  0  0  0  0  0
  138.7956   77.3353  222.9487 H   0  0  0  0  0  0  0  0  0  0  0  0
  139.1251   69.6855  222.4471 H   0  0  0  0  0  0  0  0  0  0  0  0
  139.1707   68.2466  224.4668 H   0  0  0  0  0  0  0  0  0  0  0  0
  139.6924   67.9864  226.7545 H   0  0  0  0  0  0  0  0  0  0  0  0
  141.4003   71.2380  228.9919 H   0  0  0  0  0  0  0  0  0  0  0  0
  141.3396   72.6506  226.9451 H   0  0  0  0  0  0  0  0  0  0  0  0
  1  2  2  0
  2  3  1  0
  3  4  1  0
  4  5  1  0
  5  6  2  0
  5  7  1  0
  7  8  1  0
  8  9  1  0
  9 10  1  0
 10 11  1  0
 11 12  2  0
 12 13  1  0
 13 14  2  0
 14 15  1  0
 10 16  1  0
  2 17  1  0
 17 18  2  0
 18 19  1  0
 19 20  2  0
 20 21  1  0
 21 22  2  0
 22 23  1  0
 22 24  1  0
 24 25  2  0
 25 26  1  0
 26 27  2  0
 16  7  1  0
 27 17  1  0
 15 11  1  0
 26 20  1  0
  3 28  1  0
  4 29  1  0
  4 30  1  0
  8 31  1  0
  8 32  1  0
  9 33  1  0
  9 34  1  0
 10 35  1  1
 12 36  1  0
 14 37  1  0
 15 38  1  0
 16 39  1  0
 16 40  1  0
 18 41  1  0
 19 42  1  0
 21 43  1  0
 24 44  1  0
 25 45  1  0
M  END
>  <smiles>  (43) 
O=C(NCC(=O)N1CC[C@H](c2cnc[nH]2)C1)c1ccc2cc(F)ccc2n1

>  <score_type>  (43) 
oracle

>  <origin>  (43) 
autodockgpu

>  <m_score__min__energy>  (43) 
-8.3800000000000008

>  <m_primary>  (43) 
energy

>  <rmsd>  (43) 
2.8398422425207666

>  <m_score__min__rmsd>  (43) 
2.8398422425207666

>  <meeko>  (43) 
{"free_energy": -8.1, "intermolecular_energy": -9.59, "internal_energy": -1.14, "cluster_size": 36, "cluster_id": 1, "rank_in_cluster": 20}

>  <energy>  (43) 
-6.94

>  <cluster_rmsd>  (43) 
0.0

>  <cluster>  (43) 
3

$$$$

     RDKit          3D

 45 48  0  0  0  0  0  0  0  0999 V2000
  141.1540   72.0860  221.4540 O   0  0  0  0  0  0  0  0  0  0  0  0
  140.3010   72.3500  222.3280 C   0  0  0  0  0  0  0  0  0  0  0  0
  139.3960   73.4460  222.2580 N   0  0  0  0  0  0  0  0  0  0  0  0
  139.4390   74.3280  221.1220 C   0  0  0  0  0  0  0  0  0  0  0  0
  140.7360   75.0570  221.1620 C   0  0  0  0  0  0  0  0  0  0  0  0
  141.0830   75.7400  222.1540 O   0  0  0  0  0  0  0  0  0  0  0  0
  141.6630   75.0170  220.0610 N   0  0  0  0  0  0  0  0  0  0  0  0
  141.3310   74.4860  218.7820 C   0  0  0  0  0  0  0  0  0  0  0  0
  142.5150   74.7430  217.9240 C   0  0  0  0  0  0  0  0  0  0  0  0
  143.6580   74.9350  218.8660 C   0  0  2  0  0  0  0  0  0  0  0  0
  144.3330   73.6540  219.2310 C   0  0  0  0  0  0  0  0  0  0  0  0
  145.6420   73.3880  218.8450 C   0  0  0  0  0  0  0  0  0  0  0  0
  145.9330   72.1700  219.3360 N   0  0  0  0  0  0  0  0  0  0  0  0
  144.8540   71.6890  220.0030 C   0  0  0  0  0  0  0  0  0  0  0  0
  143.8650   72.6140  219.9340 N   0  0  0  0  0  0  0  0  0  0  0  0
  143.0250   75.4990  220.0990 C   0  0  0  0  0  0  0  0  0  0  0  0
  140.2210   71.4750  223.5080 C   0  0  0  0  0  0  0  0  0  0  0  0
  139.6540   70.2200  223.4330 C   0  0  0  0  0  0  0  0  0  0  0  0
  139.5610   69.3690  224.5230 C   0  0  0  0  0  0  0  0  0  0  0  0
  140.0680   69.8200  225.7340 C   0  0  0  0  0  0  0  0  0  0  0  0
  139.9810   68.9830  226.8210 C   0  0  0  0  0  0  0  0  0  0  0  0
  140.4800   69.4090  228.0470 C   0  0  0  0  0  0  0  0  0  0  0  0
  140.3780   68.5490  229.1120 F   0  0  0  0  0  0  0  0  0  0  0  0
  141.0500   70.6480  228.1600 C   0  0  0  0  0  0  0  0  0  0  0  0
  141.1250   71.4750  227.0370 C   0  0  0  0  0  0  0  0  0  0  0  0
  140.6360   71.0780  225.8070 C   0  0  0  0  0  0  0  0  0  0  0  0
  140.6990   71.8610  224.7140 N   0  0  0  0  0  0  0  0  0  0  0  0
  138.7090   73.5940  223.0400 H   0  0  0  0  0  0  0  0  0  0  0  0
  139.3659   73.7448  220.1922 H   0  0  0  0  0  0  0  0  0  0  0  0
  138.5983   75.0367  221.1533 H   0  0  0  0  0  0  0  0  0  0  0  0
  141.1357   73.4058  218.8535 H   0  0  0  0  0  0  0  0  0  0  0  0
  140.4222   74.9504  218.3717 H   0  0  0  0  0  0  0  0  0  0  0  0
  142.7030   73.8851  217.2616 H   0  0  0  0  0  0  0  0  0  0  0  0
  142.3673   75.6210  217.2781 H   0  0  0  0  0  0  0  0  0  0  0  0
  144.4284   75.5727  218.4080 H   0  0  0  0  0  0  0  0  0  0  0  0
  146.3046   74.0407  218.2577 H   0  0  0  0  0  0  0  0  0  0  0  0
  144.7921   70.7159  220.5122 H   0  0  0  0  0  0  0  0  0  0  0  0
  142.9170   72.5270  220.3550 H   0  0  0  0  0  0  0  0  0  0  0  0
  143.5403   75.1368  221.0008 H   0  0  0  0  0  0  0  0  0  0  0  0
  143.0787   76.5972  220.1312 H   0  0  0  0  0  0  0  0  0  0  0  0
  139.2580   69.8793  222.4650 H   0  0  0  0  0  0  0  0  0  0  0  0
  139.1025   68.3733  224.4319 H   0  0  0  0  0  0  0  0  0  0  0  0
  139.5222   67.9882  226.7221 H   0  0  0  0  0  0  0  0  0  0  0  0
  141.4460   70.9899  229.1276 H   0  0  0  0  0  0  0  0  0  0  0  0
  141.5857   72.4691  227.1342 H   0  0  0  0  0  0  0  0  0  0  0  0
  1  2  2  0
  2  3  1  0
  3  4  1  0
  4  5  1  0
  5  6  2  0
  5  7  1  0
  7  8  1  0
  8  9  1  0
  9 10  1  0
 10 11  1  0
 11 12  2  0
 12 13  1  0
 13 14  2  0
 14 15  1  0
 10 16  1  0
  2 17  1  0
 17 18  2  0
 18 19  1  0
 19 20  2  0
 20 21  1  0
 21 22  2  0
 22 23  1  0
 22 24  1  0
 24 25  2  0
 25 26  1  0
 26 27  2  0
 16  7  1  0
 27 17  1  0
 15 11  1  0
 26 20  1  0
  3 28  1  0
  4 29  1  0
  4 30  1  0
  8 31  1  0
  8 32  1  0
  9 33  1  0
  9 34  1  0
 10 35  1  6
 12 36  1  0
 14 37  1  0
 15 38  1  0
 16 39  1  0
 16 40  1  0
 18 41  1  0
 19 42  1  0
 21 43  1  0
 24 44  1  0
 25 45  1  0
M  END
>  <smiles>  (44) 
O=C(NCC(=O)N1CC[C@H](c2cnc[nH]2)C1)c1ccc2cc(F)ccc2n1

>  <score_type>  (44) 
oracle

>  <origin>  (44) 
autodockgpu

>  <m_score__min__energy>  (44) 
-8.3800000000000008

>  <m_primary>  (44) 
energy

>  <rmsd>  (44) 
2.3615445704877702

>  <m_score__min__rmsd>  (44) 
2.3615445704877702

>  <meeko>  (44) 
{"free_energy": -7.37, "intermolecular_energy": -8.86, "internal_energy": -1.89, "cluster_size": 6, "cluster_id": 2, "rank_in_cluster": 3}

>  <energy>  (44) 
-6.63

>  <cluster_rmsd>  (44) 
0.0

>  <cluster>  (44) 
4

$$$$

     RDKit          3D

 45 48  0  0  0  0  0  0  0  0999 V2000
  140.8400   71.9280  221.1800 O   0  0  0  0  0  0  0  0  0  0  0  0
  140.3240   72.4040  222.2120 C   0  0  0  0  0  0  0  0  0  0  0  0
  139.8710   73.7470  222.3350 N   0  0  0  0  0  0  0  0  0  0  0  0
  140.0020   74.6430  221.2160 C   0  0  0  0  0  0  0  0  0  0  0  0
  139.7810   76.0280  221.7160 C   0  0  0  0  0  0  0  0  0  0  0  0
  139.0510   76.2680  222.7070 O   0  0  0  0  0  0  0  0  0  0  0  0
  140.3960   77.1680  221.0880 N   0  0  0  0  0  0  0  0  0  0  0  0
  141.6480   77.1040  220.4110 C   0  0  0  0  0  0  0  0  0  0  0  0
  141.8500   78.4510  219.8200 C   0  0  0  0  0  0  0  0  0  0  0  0
  140.9770   79.3700  220.6090 C   0  0  2  0  0  0  0  0  0  0  0  0
  141.6530   79.9170  221.8230 C   0  0  0  0  0  0  0  0  0  0  0  0
  141.1360   81.0090  222.5110 C   0  0  0  0  0  0  0  0  0  0  0  0
  141.9770   81.2310  223.5380 N   0  0  0  0  0  0  0  0  0  0  0  0
  142.9790   80.3190  223.4980 C   0  0  0  0  0  0  0  0  0  0  0  0
  142.7730   79.5070  222.4330 N   0  0  0  0  0  0  0  0  0  0  0  0
  139.8420   78.5020  221.0550 C   0  0  0  0  0  0  0  0  0  0  0  0
  140.1700   71.5250  223.3820 C   0  0  0  0  0  0  0  0  0  0  0  0
  139.5980   70.2740  223.2690 C   0  0  0  0  0  0  0  0  0  0  0  0
  139.4370   69.4190  224.3470 C   0  0  0  0  0  0  0  0  0  0  0  0
  139.8780   69.8600  225.5880 C   0  0  0  0  0  0  0  0  0  0  0  0
  139.7230   69.0190  226.6630 C   0  0  0  0  0  0  0  0  0  0  0  0
  140.1550   69.4350  227.9180 C   0  0  0  0  0  0  0  0  0  0  0  0
  139.9860   68.5720  228.9720 F   0  0  0  0  0  0  0  0  0  0  0  0
  140.7270   70.6690  228.0700 C   0  0  0  0  0  0  0  0  0  0  0  0
  140.8720   71.5010  226.9560 C   0  0  0  0  0  0  0  0  0  0  0  0
  140.4510   71.1130  225.6990 C   0  0  0  0  0  0  0  0  0  0  0  0
  140.5820   71.9010  224.6150 N   0  0  0  0  0  0  0  0  0  0  0  0
  139.4470   74.0650  223.2440 H   0  0  0  0  0  0  0  0  0  0  0  0
  141.0098   74.5573  220.7835 H   0  0  0  0  0  0  0  0  0  0  0  0
  139.2682   74.3938  220.4353 H   0  0  0  0  0  0  0  0  0  0  0  0
  142.4563   76.8701  221.1194 H   0  0  0  0  0  0  0  0  0  0  0  0
  141.6563   76.3165  219.6430 H   0  0  0  0  0  0  0  0  0  0  0  0
  142.9039   78.7541  219.9062 H   0  0  0  0  0  0  0  0  0  0  0  0
  141.5972   78.4682  218.7496 H   0  0  0  0  0  0  0  0  0  0  0  0
  140.6849   80.2378  219.9994 H   0  0  0  0  0  0  0  0  0  0  0  0
  140.2256   81.5757  222.2660 H   0  0  0  0  0  0  0  0  0  0  0  0
  143.8160   80.2499  224.2084 H   0  0  0  0  0  0  0  0  0  0  0  0
  143.3780   78.7090  222.1470 H   0  0  0  0  0  0  0  0  0  0  0  0
  139.4924   78.8023  222.0538 H   0  0  0  0  0  0  0  0  0  0  0  0
  138.9717   78.5763  220.3864 H   0  0  0  0  0  0  0  0  0  0  0  0
  139.2546   69.9409  222.2785 H   0  0  0  0  0  0  0  0  0  0  0  0
  138.9768   68.4274  224.2246 H   0  0  0  0  0  0  0  0  0  0  0  0
  139.2628   68.0284  226.5329 H   0  0  0  0  0  0  0  0  0  0  0  0
  141.0698   71.0033  229.0603 H   0  0  0  0  0  0  0  0  0  0  0  0
  141.3337   72.4912  227.0839 H   0  0  0  0  0  0  0  0  0  0  0  0
  1  2  2  0
  2  3  1  0
  3  4  1  0
  4  5  1  0
  5  6  2  0
  5  7  1  0
  7  8  1  0
  8  9  1  0
  9 10  1  0
 10 11  1  0
 11 12  2  0
 12 13  1  0
 13 14  2  0
 14 15  1  0
 10 16  1  0
  2 17  1  0
 17 18  2  0
 18 19  1  0
 19 20  2  0
 20 21  1  0
 21 22  2  0
 22 23  1  0
 22 24  1  0
 24 25  2  0
 25 26  1  0
 26 27  2  0
 16  7  1  0
 27 17  1  0
 15 11  1  0
 26 20  1  0
  3 28  1  0
  4 29  1  0
  4 30  1  0
  8 31  1  0
  8 32  1  0
  9 33  1  0
  9 34  1  0
 10 35  1  6
 12 36  1  0
 14 37  1  0
 15 38  1  0
 16 39  1  0
 16 40  1  0
 18 41  1  0
 19 42  1  0
 21 43  1  0
 24 44  1  0
 25 45  1  0
M  END
>  <smiles>  (45) 
O=C(NCC(=O)N1CC[C@H](c2cnc[nH]2)C1)c1ccc2cc(F)ccc2n1

>  <score_type>  (45) 
oracle

>  <origin>  (45) 
autodockgpu

>  <m_score__min__energy>  (45) 
-8.3800000000000008

>  <m_primary>  (45) 
energy

>  <rmsd>  (45) 
2.55948373539956

>  <m_score__min__rmsd>  (45) 
2.55948373539956

>  <meeko>  (45) 
{"free_energy": -8.27, "intermolecular_energy": -9.77, "internal_energy": -1.46, "cluster_size": 36, "cluster_id": 1, "rank_in_cluster": 11}

>  <energy>  (45) 
-6.58

>  <cluster_rmsd>  (45) 
0.09

>  <cluster>  (45) 
4

$$$$

     RDKit          3D

 45 48  0  0  0  0  0  0  0  0999 V2000
  140.8870   71.7600  221.2040 O   0  0  0  0  0  0  0  0  0  0  0  0
  140.3730   72.2560  222.2280 C   0  0  0  0  0  0  0  0  0  0  0  0
  139.9380   73.6060  222.3330 N   0  0  0  0  0  0  0  0  0  0  0  0
  140.0870   74.4880  221.2050 C   0  0  0  0  0  0  0  0  0  0  0  0
  139.9220   75.8840  221.6950 C   0  0  0  0  0  0  0  0  0  0  0  0
  139.2480   76.1530  222.7170 O   0  0  0  0  0  0  0  0  0  0  0  0
  140.5290   77.0010  221.0200 N   0  0  0  0  0  0  0  0  0  0  0  0
  141.7850   76.9190  220.3530 C   0  0  0  0  0  0  0  0  0  0  0  0
  141.9780   78.2410  219.7050 C   0  0  0  0  0  0  0  0  0  0  0  0
  141.0920   79.1850  220.4480 C   0  0  2  0  0  0  0  0  0  0  0  0
  141.7560   79.7910  221.6410 C   0  0  0  0  0  0  0  0  0  0  0  0
  141.5060   81.1050  222.0200 C   0  0  0  0  0  0  0  0  0  0  0  0
  142.2540   81.3220  223.1180 N   0  0  0  0  0  0  0  0  0  0  0  0
  142.9430   80.1930  223.4170 C   0  0  0  0  0  0  0  0  0  0  0  0
  142.6310   79.2480  222.4970 N   0  0  0  0  0  0  0  0  0  0  0  0
  139.9630   78.3270  220.9260 C   0  0  0  0  0  0  0  0  0  0  0  0
  140.2000   71.3920  223.4070 C   0  0  0  0  0  0  0  0  0  0  0  0
  139.6040   70.1520  223.3060 C   0  0  0  0  0  0  0  0  0  0  0  0
  139.4240   69.3120  224.3930 C   0  0  0  0  0  0  0  0  0  0  0  0
  139.8730   69.7580  225.6300 C   0  0  0  0  0  0  0  0  0  0  0  0
  139.7000   68.9310  226.7140 C   0  0  0  0  0  0  0  0  0  0  0  0
  140.1390   69.3520  227.9650 C   0  0  0  0  0  0  0  0  0  0  0  0
  139.9520   68.5040  229.0270 F   0  0  0  0  0  0  0  0  0  0  0  0
  140.7360   70.5760  228.1040 C   0  0  0  0  0  0  0  0  0  0  0  0
  140.8980   71.3930  226.9820 C   0  0  0  0  0  0  0  0  0  0  0  0
  140.4700   71.0000  225.7280 C   0  0  0  0  0  0  0  0  0  0  0  0
  140.6180   71.7740  224.6360 N   0  0  0  0  0  0  0  0  0  0  0  0
  139.5130   73.9400  223.2360 H   0  0  0  0  0  0  0  0  0  0  0  0
  141.0856   74.3626  220.7611 H   0  0  0  0  0  0  0  0  0  0  0  0
  139.3348   74.2590  220.4358 H   0  0  0  0  0  0  0  0  0  0  0  0
  142.5915   76.7235  221.0750 H   0  0  0  0  0  0  0  0  0  0  0  0
  141.8048   76.0989  219.6202 H   0  0  0  0  0  0  0  0  0  0  0  0
  143.0285   78.5576  219.7838 H   0  0  0  0  0  0  0  0  0  0  0  0
  141.7314   78.2091  218.6335 H   0  0  0  0  0  0  0  0  0  0  0  0
  140.7953   80.0221  219.7990 H   0  0  0  0  0  0  0  0  0  0  0  0
  140.8342   81.8211  221.5240 H   0  0  0  0  0  0  0  0  0  0  0  0
  143.6363   80.0659  224.2615 H   0  0  0  0  0  0  0  0  0  0  0  0
  143.0050   78.2770  222.4680 H   0  0  0  0  0  0  0  0  0  0  0  0
  139.6055   78.6674  221.9090 H   0  0  0  0  0  0  0  0  0  0  0  0
  139.0955   78.3639  220.2507 H   0  0  0  0  0  0  0  0  0  0  0  0
  139.2561   69.8151  222.3183 H   0  0  0  0  0  0  0  0  0  0  0  0
  138.9436   68.3288  224.2809 H   0  0  0  0  0  0  0  0  0  0  0  0
  139.2203   67.9484  226.5938 H   0  0  0  0  0  0  0  0  0  0  0  0
  141.0853   70.9137  229.0909 H   0  0  0  0  0  0  0  0  0  0  0  0
  141.3790   72.3752  227.1000 H   0  0  0  0  0  0  0  0  0  0  0  0
  1  2  2  0
  2  3  1  0
  3  4  1  0
  4  5  1  0
  5  6  2  0
  5  7  1  0
  7  8  1  0
  8  9  1  0
  9 10  1  0
 10 11  1  0
 11 12  2  0
 12 13  1  0
 13 14  2  0
 14 15  1  0
 10 16  1  0
  2 17  1  0
 17 18  2  0
 18 19  1  0
 19 20  2  0
 20 21  1  0
 21 22  2  0
 22 23  1  0
 22 24  1  0
 24 25  2  0
 25 26  1  0
 26 27  2  0
 16  7  1  0
 27 17  1  0
 15 11  1  0
 26 20  1  0
  3 28  1  0
  4 29  1  0
  4 30  1  0
  8 31  1  0
  8 32  1  0
  9 33  1  0
  9 34  1  0
 10 35  1  6
 12 36  1  0
 14 37  1  0
 15 38  1  0
 16 39  1  0
 16 40  1  0
 18 41  1  0
 19 42  1  0
 21 43  1  0
 24 44  1  0
 25 45  1  0
M  END
>  <smiles>  (46) 
O=C(NCC(=O)N1CC[C@H](c2cnc[nH]2)C1)c1ccc2cc(F)ccc2n1

>  <score_type>  (46) 
oracle

>  <origin>  (46) 
autodockgpu

>  <m_score__min__energy>  (46) 
-8.3800000000000008

>  <m_primary>  (46) 
energy

>  <rmsd>  (46) 
2.4614804059681346

>  <m_score__min__rmsd>  (46) 
2.4614804059681346

>  <meeko>  (46) 
{"free_energy": -8.19, "intermolecular_energy": -9.68, "internal_energy": -1.46, "cluster_size": 36, "cluster_id": 1, "rank_in_cluster": 15}

>  <energy>  (46) 
-6.55

>  <cluster_rmsd>  (46) 
0.68

>  <cluster>  (46) 
4

$$$$

     RDKit          3D

 45 48  0  0  0  0  0  0  0  0999 V2000
  138.1690   70.8010  221.8220 O   0  0  0  0  0  0  0  0  0  0  0  0
  138.8640   71.2990  222.7320 C   0  0  0  0  0  0  0  0  0  0  0  0
  139.3540   72.6350  222.7250 N   0  0  0  0  0  0  0  0  0  0  0  0
  139.0500   73.4950  221.6120 C   0  0  0  0  0  0  0  0  0  0  0  0
  140.0420   74.6050  221.6120 C   0  0  0  0  0  0  0  0  0  0  0  0
  141.2710   74.3980  221.7500 O   0  0  0  0  0  0  0  0  0  0  0  0
  139.6420   75.9790  221.4550 N   0  0  0  0  0  0  0  0  0  0  0  0
  139.9050   76.7370  220.2770 C   0  0  0  0  0  0  0  0  0  0  0  0
  139.2320   78.0430  220.4860 C   0  0  0  0  0  0  0  0  0  0  0  0
  139.0590   78.1740  221.9630 C   0  0  2  0  0  0  0  0  0  0  0  0
  140.2400   78.7950  222.6350 C   0  0  0  0  0  0  0  0  0  0  0  0
  140.1470   80.0280  223.2710 C   0  0  0  0  0  0  0  0  0  0  0  0
  141.3730   80.2830  223.7640 N   0  0  0  0  0  0  0  0  0  0  0  0
  142.2010   79.2550  223.4530 C   0  0  0  0  0  0  0  0  0  0  0  0
  141.4930   78.3360  222.7530 N   0  0  0  0  0  0  0  0  0  0  0  0
  138.9360   76.7620  222.4430 C   0  0  0  0  0  0  0  0  0  0  0  0
  139.2000   70.4570  223.8900 C   0  0  0  0  0  0  0  0  0  0  0  0
  138.9060   69.1090  223.9060 C   0  0  0  0  0  0  0  0  0  0  0  0
  139.2080   68.2850  224.9790 C   0  0  0  0  0  0  0  0  0  0  0  0
  139.8340   68.8620  226.0750 C   0  0  0  0  0  0  0  0  0  0  0  0
  140.1380   68.0530  227.1440 C   0  0  0  0  0  0  0  0  0  0  0  0
  140.7650   68.6040  228.2560 C   0  0  0  0  0  0  0  0  0  0  0  0
  141.0550   67.7690  229.3060 F   0  0  0  0  0  0  0  0  0  0  0  0
  141.0730   69.9370  228.2760 C   0  0  0  0  0  0  0  0  0  0  0  0
  140.7510   70.7340  227.1740 C   0  0  0  0  0  0  0  0  0  0  0  0
  140.1280   70.2120  226.0570 C   0  0  0  0  0  0  0  0  0  0  0  0
  139.8110   70.9640  224.9860 N   0  0  0  0  0  0  0  0  0  0  0  0
  139.9340   72.9730  223.5360 H   0  0  0  0  0  0  0  0  0  0  0  0
  139.1212   72.9293  220.6713 H   0  0  0  0  0  0  0  0  0  0  0  0
  138.0281   73.8923  221.7006 H   0  0  0  0  0  0  0  0  0  0  0  0
  140.9878   76.8794  220.1455 H   0  0  0  0  0  0  0  0  0  0  0  0
  139.5362   76.2283  219.3741 H   0  0  0  0  0  0  0  0  0  0  0  0
  139.8551   78.8624  220.0983 H   0  0  0  0  0  0  0  0  0  0  0  0
  138.2686   78.0935  219.9574 H   0  0  0  0  0  0  0  0  0  0  0  0
  138.1970   78.8179  222.1918 H   0  0  0  0  0  0  0  0  0  0  0  0
  139.2539   80.6648  223.3542 H   0  0  0  0  0  0  0  0  0  0  0  0
  143.2648   79.1801  223.7227 H   0  0  0  0  0  0  0  0  0  0  0  0
  141.8600   77.4370  222.3790 H   0  0  0  0  0  0  0  0  0  0  0  0
  139.3998   76.6468  223.4338 H   0  0  0  0  0  0  0  0  0  0  0  0
  137.8874   76.4483  222.5527 H   0  0  0  0  0  0  0  0  0  0  0  0
  138.4100   68.6687  223.0284 H   0  0  0  0  0  0  0  0  0  0  0  0
  138.9606   67.2133  224.9624 H   0  0  0  0  0  0  0  0  0  0  0  0
  139.8881   66.9820  227.1200 H   0  0  0  0  0  0  0  0  0  0  0  0
  141.5702   70.3779  229.1526 H   0  0  0  0  0  0  0  0  0  0  0  0
  141.0002   71.8052  227.1967 H   0  0  0  0  0  0  0  0  0  0  0  0
  1  2  2  0
  2  3  1  0
  3  4  1  0
  4  5  1  0
  5  6  2  0
  5  7  1  0
  7  8  1  0
  8  9  1  0
  9 10  1  0
 10 11  1  0
 11 12  2  0
 12 13  1  0
 13 14  2  0
 14 15  1  0
 10 16  1  0
  2 17  1  0
 17 18  2  0
 18 19  1  0
 19 20  2  0
 20 21  1  0
 21 22  2  0
 22 23  1  0
 22 24  1  0
 24 25  2  0
 25 26  1  0
 26 27  2  0
 16  7  1  0
 27 17  1  0
 15 11  1  0
 26 20  1  0
  3 28  1  0
  4 29  1  0
  4 30  1  0
  8 31  1  0
  8 32  1  0
  9 33  1  0
  9 34  1  0
 10 35  1  6
 12 36  1  0
 14 37  1  0
 15 38  1  0
 16 39  1  0
 16 40  1  0
 18 41  1  0
 19 42  1  0
 21 43  1  0
 24 44  1  0
 25 45  1  0
M  END
>  <smiles>  (47) 
O=C(NCC(=O)N1CC[C@H](c2cnc[nH]2)C1)c1ccc2cc(F)ccc2n1

>  <score_type>  (47) 
oracle

>  <origin>  (47) 
autodockgpu

>  <m_score__min__energy>  (47) 
-8.3800000000000008

>  <m_primary>  (47) 
energy

>  <rmsd>  (47) 
2.5100980390068757

>  <m_score__min__rmsd>  (47) 
2.5100980390068757

>  <meeko>  (47) 
{"free_energy": -7.7, "intermolecular_energy": -9.2, "internal_energy": -1.39, "cluster_size": 36, "cluster_id": 1, "rank_in_cluster": 32}

>  <energy>  (47) 
-6.54

>  <cluster_rmsd>  (47) 
0.18

>  <cluster>  (47) 
4

$$$$

     RDKit          3D

 45 48  0  0  0  0  0  0  0  0999 V2000
  140.7300   71.8960  221.1350 O   0  0  0  0  0  0  0  0  0  0  0  0
  140.2730   72.3810  222.1900 C   0  0  0  0  0  0  0  0  0  0  0  0
  139.8490   73.7320  222.3340 N   0  0  0  0  0  0  0  0  0  0  0  0
  139.9420   74.6260  221.2100 C   0  0  0  0  0  0  0  0  0  0  0  0
  139.7580   76.0130  221.7180 C   0  0  0  0  0  0  0  0  0  0  0  0
  139.0600   76.2630  222.7300 O   0  0  0  0  0  0  0  0  0  0  0  0
  140.3710   77.1440  221.0730 N   0  0  0  0  0  0  0  0  0  0  0  0
  141.6240   77.0720  220.3990 C   0  0  0  0  0  0  0  0  0  0  0  0
  141.8260   78.4100  219.7890 C   0  0  0  0  0  0  0  0  0  0  0  0
  140.9500   79.3390  220.5620 C   0  0  2  0  0  0  0  0  0  0  0  0
  141.6240   79.9050  221.7690 C   0  0  0  0  0  0  0  0  0  0  0  0
  141.1360   81.0400  222.4070 C   0  0  0  0  0  0  0  0  0  0  0  0
  141.9660   81.2690  223.4410 N   0  0  0  0  0  0  0  0  0  0  0  0
  142.9340   80.3190  223.4540 C   0  0  0  0  0  0  0  0  0  0  0  0
  142.7170   79.4770  222.4150 N   0  0  0  0  0  0  0  0  0  0  0  0
  139.8160   78.4770  221.0210 C   0  0  0  0  0  0  0  0  0  0  0  0
  140.1600   71.5040  223.3660 C   0  0  0  0  0  0  0  0  0  0  0  0
  139.6060   70.2430  223.2710 C   0  0  0  0  0  0  0  0  0  0  0  0
  139.4830   69.3910  224.3550 C   0  0  0  0  0  0  0  0  0  0  0  0
  139.9450   69.8440  225.5840 C   0  0  0  0  0  0  0  0  0  0  0  0
  139.8280   69.0040  226.6660 C   0  0  0  0  0  0  0  0  0  0  0  0
  140.2810   69.4320  227.9090 C   0  0  0  0  0  0  0  0  0  0  0  0
  140.1500   68.5700  228.9690 F   0  0  0  0  0  0  0  0  0  0  0  0
  140.8370   70.6760  228.0430 C   0  0  0  0  0  0  0  0  0  0  0  0
  140.9420   71.5060  226.9240 C   0  0  0  0  0  0  0  0  0  0  0  0
  140.4990   71.1060  225.6780 C   0  0  0  0  0  0  0  0  0  0  0  0
  140.5930   71.8920  224.5880 N   0  0  0  0  0  0  0  0  0  0  0  0
  139.4740   74.0560  223.2630 H   0  0  0  0  0  0  0  0  0  0  0  0
  140.9294   74.5290  220.7349 H   0  0  0  0  0  0  0  0  0  0  0  0
  139.1729   74.3848  220.4615 H   0  0  0  0  0  0  0  0  0  0  0  0
  142.4314   76.8491  221.1120 H   0  0  0  0  0  0  0  0  0  0  0  0
  141.6341   76.2737  219.6423 H   0  0  0  0  0  0  0  0  0  0  0  0
  142.8793   78.7157  219.8736 H   0  0  0  0  0  0  0  0  0  0  0  0
  141.5762   78.4113  218.7177 H   0  0  0  0  0  0  0  0  0  0  0  0
  140.6568   80.1960  219.9378 H   0  0  0  0  0  0  0  0  0  0  0  0
  140.2519   81.6302  222.1242 H   0  0  0  0  0  0  0  0  0  0  0  0
  143.7544   80.2449  224.1830 H   0  0  0  0  0  0  0  0  0  0  0  0
  143.2960   78.6470  222.1700 H   0  0  0  0  0  0  0  0  0  0  0  0
  139.4667   78.7915  222.0155 H   0  0  0  0  0  0  0  0  0  0  0  0
  138.9452   78.5411  220.3519 H   0  0  0  0  0  0  0  0  0  0  0  0
  139.2462   69.8999  222.2898 H   0  0  0  0  0  0  0  0  0  0  0  0
  139.0358   68.3918  224.2470 H   0  0  0  0  0  0  0  0  0  0  0  0
  139.3815   68.0055  226.5498 H   0  0  0  0  0  0  0  0  0  0  0  0
  141.1981   71.0192  229.0237 H   0  0  0  0  0  0  0  0  0  0  0  0
  141.3893   72.5045  227.0381 H   0  0  0  0  0  0  0  0  0  0  0  0
  1  2  2  0
  2  3  1  0
  3  4  1  0
  4  5  1  0
  5  6  2  0
  5  7  1  0
  7  8  1  0
  8  9  1  0
  9 10  1  0
 10 11  1  0
 11 12  2  0
 12 13  1  0
 13 14  2  0
 14 15  1  0
 10 16  1  0
  2 17  1  0
 17 18  2  0
 18 19  1  0
 19 20  2  0
 20 21  1  0
 21 22  2  0
 22 23  1  0
 22 24  1  0
 24 25  2  0
 25 26  1  0
 26 27  2  0
 16  7  1  0
 27 17  1  0
 15 11  1  0
 26 20  1  0
  3 28  1  0
  4 29  1  0
  4 30  1  0
  8 31  1  0
  8 32  1  0
  9 33  1  0
  9 34  1  0
 10 35  1  6
 12 36  1  0
 14 37  1  0
 15 38  1  0
 16 39  1  0
 16 40  1  0
 18 41  1  0
 19 42  1  0
 21 43  1  0
 24 44  1  0
 25 45  1  0
M  END
>  <smiles>  (48) 
O=C(NCC(=O)N1CC[C@H](c2cnc[nH]2)C1)c1ccc2cc(F)ccc2n1

>  <score_type>  (48) 
oracle

>  <origin>  (48) 
autodockgpu

>  <m_score__min__energy>  (48) 
-8.3800000000000008

>  <m_primary>  (48) 
energy

>  <rmsd>  (48) 
2.5224467418811853

>  <m_score__min__rmsd>  (48) 
2.5224467418811853

>  <meeko>  (48) 
{"free_energy": -8.26, "intermolecular_energy": -9.75, "internal_energy": -1.46, "cluster_size": 36, "cluster_id": 1, "rank_in_cluster": 12}

>  <energy>  (48) 
-6.49

>  <cluster_rmsd>  (48) 
0.29

>  <cluster>  (48) 
4

$$$$

     RDKit          3D

 45 48  0  0  0  0  0  0  0  0999 V2000
  140.7480   77.3280  217.8620 O   0  0  0  0  0  0  0  0  0  0  0  0
  141.8460   77.4040  218.4510 C   0  0  0  0  0  0  0  0  0  0  0  0
  142.3750   78.6020  219.0090 N   0  0  0  0  0  0  0  0  0  0  0  0
  141.6220   79.8240  218.9050 C   0  0  0  0  0  0  0  0  0  0  0  0
  141.6360   80.4810  220.2410 C   0  0  0  0  0  0  0  0  0  0  0  0
  141.8330   81.7120  220.3730 O   0  0  0  0  0  0  0  0  0  0  0  0
  141.4240   79.7360  221.4550 N   0  0  0  0  0  0  0  0  0  0  0  0
  142.4770   79.3870  222.3480 C   0  0  0  0  0  0  0  0  0  0  0  0
  141.8160   78.7370  223.5080 C   0  0  0  0  0  0  0  0  0  0  0  0
  140.4880   78.2750  223.0050 C   0  0  2  0  0  0  0  0  0  0  0  0
  140.5370   76.9090  222.4020 C   0  0  0  0  0  0  0  0  0  0  0  0
  139.5440   75.9690  222.6550 C   0  0  0  0  0  0  0  0  0  0  0  0
  139.8920   74.8680  221.9640 N   0  0  0  0  0  0  0  0  0  0  0  0
  141.0530   75.1050  221.3040 C   0  0  0  0  0  0  0  0  0  0  0  0
  141.4480   76.3720  221.5800 N   0  0  0  0  0  0  0  0  0  0  0  0
  140.1460   79.2520  221.9240 C   0  0  0  0  0  0  0  0  0  0  0  0
  142.6510   76.1800  218.5820 C   0  0  0  0  0  0  0  0  0  0  0  0
  142.5560   75.1560  217.6610 C   0  0  0  0  0  0  0  0  0  0  0  0
  143.2970   73.9900  217.7510 C   0  0  0  0  0  0  0  0  0  0  0  0
  144.1700   73.8650  218.8240 C   0  0  0  0  0  0  0  0  0  0  0  0
  144.9110   72.7120  218.9220 C   0  0  0  0  0  0  0  0  0  0  0  0
  145.7920   72.5600  219.9860 C   0  0  0  0  0  0  0  0  0  0  0  0
  146.5180   71.3970  220.0560 F   0  0  0  0  0  0  0  0  0  0  0  0
  145.9150   73.5540  220.9200 C   0  0  0  0  0  0  0  0  0  0  0  0
  145.1490   74.7150  220.7920 C   0  0  0  0  0  0  0  0  0  0  0  0
  144.2650   74.8920  219.7450 C   0  0  0  0  0  0  0  0  0  0  0  0
  143.5190   76.0040  219.6060 N   0  0  0  0  0  0  0  0  0  0  0  0
  143.3110   78.5740  219.4900 H   0  0  0  0  0  0  0  0  0  0  0  0
  142.0837   80.4858  218.1575 H   0  0  0  0  0  0  0  0  0  0  0  0
  140.5891   79.6138  218.5905 H   0  0  0  0  0  0  0  0  0  0  0  0
  143.1762   78.6894  221.8637 H   0  0  0  0  0  0  0  0  0  0  0  0
  143.0616   80.2675  222.6528 H   0  0  0  0  0  0  0  0  0  0  0  0
  142.4119   77.8822  223.8604 H   0  0  0  0  0  0  0  0  0  0  0  0
  141.7120   79.4280  224.3576 H   0  0  0  0  0  0  0  0  0  0  0  0
  139.7625   78.2250  223.8304 H   0  0  0  0  0  0  0  0  0  0  0  0
  138.6554   76.0989  223.2903 H   0  0  0  0  0  0  0  0  0  0  0  0
  141.5831   74.3915  220.6560 H   0  0  0  0  0  0  0  0  0  0  0  0
  142.3040   76.8380  221.2150 H   0  0  0  0  0  0  0  0  0  0  0  0
  139.5963   78.7553  221.1109 H   0  0  0  0  0  0  0  0  0  0  0  0
  139.4982   80.0645  222.2847 H   0  0  0  0  0  0  0  0  0  0  0  0
  141.8599   75.2718  216.8172 H   0  0  0  0  0  0  0  0  0  0  0  0
  143.1980   73.1920  217.0004 H   0  0  0  0  0  0  0  0  0  0  0  0
  144.8081   71.9186  218.1671 H   0  0  0  0  0  0  0  0  0  0  0  0
  146.6111   73.4391  221.7639 H   0  0  0  0  0  0  0  0  0  0  0  0
  145.2524   75.5100  221.5452 H   0  0  0  0  0  0  0  0  0  0  0  0
  1  2  2  0
  2  3  1  0
  3  4  1  0
  4  5  1  0
  5  6  2  0
  5  7  1  0
  7  8  1  0
  8  9  1  0
  9 10  1  0
 10 11  1  0
 11 12  2  0
 12 13  1  0
 13 14  2  0
 14 15  1  0
 10 16  1  0
  2 17  1  0
 17 18  2  0
 18 19  1  0
 19 20  2  0
 20 21  1  0
 21 22  2  0
 22 23  1  0
 22 24  1  0
 24 25  2  0
 25 26  1  0
 26 27  2  0
 16  7  1  0
 27 17  1  0
 15 11  1  0
 26 20  1  0
  3 28  1  0
  4 29  1  0
  4 30  1  0
  8 31  1  0
  8 32  1  0
  9 33  1  0
  9 34  1  0
 10 35  1  1
 12 36  1  0
 14 37  1  0
 15 38  1  0
 16 39  1  0
 16 40  1  0
 18 41  1  0
 19 42  1  0
 21 43  1  0
 24 44  1  0
 25 45  1  0
M  END
>  <smiles>  (49) 
O=C(NCC(=O)N1CC[C@H](c2cnc[nH]2)C1)c1ccc2cc(F)ccc2n1

>  <score_type>  (49) 
oracle

>  <origin>  (49) 
autodockgpu

>  <m_score__min__energy>  (49) 
-8.3800000000000008

>  <m_primary>  (49) 
energy

>  <rmsd>  (49) 
7.783434202233543

>  <m_score__min__rmsd>  (49) 
7.783434202233543

>  <meeko>  (49) 
{"free_energy": -6.49, "intermolecular_energy": -7.98, "internal_energy": -2.67, "cluster_size": 6, "cluster_id": 4, "rank_in_cluster": 5}

>  <energy>  (49) 
-5.88

>  <cluster_rmsd>  (49) 
0.83

>  <cluster>  (49) 
4

$$$$

     RDKit          3D

 45 48  0  0  0  0  0  0  0  0999 V2000
  140.5070   76.9930  218.4050 O   0  0  0  0  0  0  0  0  0  0  0  0
  141.7170   77.1520  218.6640 C   0  0  0  0  0  0  0  0  0  0  0  0
  142.3270   78.4160  218.9000 N   0  0  0  0  0  0  0  0  0  0  0  0
  141.5260   79.6100  218.8420 C   0  0  0  0  0  0  0  0  0  0  0  0
  141.6190   80.2840  220.1660 C   0  0  0  0  0  0  0  0  0  0  0  0
  141.9110   81.4980  220.2740 O   0  0  0  0  0  0  0  0  0  0  0  0
  141.3770   79.5750  221.3960 N   0  0  0  0  0  0  0  0  0  0  0  0
  142.4070   79.2580  222.3270 C   0  0  0  0  0  0  0  0  0  0  0  0
  141.7180   78.6400  223.4880 C   0  0  0  0  0  0  0  0  0  0  0  0
  140.4060   78.1570  222.9640 C   0  0  2  0  0  0  0  0  0  0  0  0
  140.4760   76.7740  222.4040 C   0  0  0  0  0  0  0  0  0  0  0  0
  139.4440   75.8610  222.5950 C   0  0  0  0  0  0  0  0  0  0  0  0
  139.8260   74.7340  221.9660 N   0  0  0  0  0  0  0  0  0  0  0  0
  141.0450   74.9290  221.4040 C   0  0  0  0  0  0  0  0  0  0  0  0
  141.4430   76.1950  221.6800 N   0  0  0  0  0  0  0  0  0  0  0  0
  140.0890   79.0990  221.8450 C   0  0  0  0  0  0  0  0  0  0  0  0
  142.5760   75.9590  218.7340 C   0  0  0  0  0  0  0  0  0  0  0  0
  142.5020   74.9650  217.7790 C   0  0  0  0  0  0  0  0  0  0  0  0
  143.2930   73.8290  217.8130 C   0  0  0  0  0  0  0  0  0  0  0  0
  144.1950   73.7040  218.8620 C   0  0  0  0  0  0  0  0  0  0  0  0
  144.9850   72.5810  218.9030 C   0  0  0  0  0  0  0  0  0  0  0  0
  145.8960   72.4300  219.9430 C   0  0  0  0  0  0  0  0  0  0  0  0
  146.6700   71.2960  219.9550 F   0  0  0  0  0  0  0  0  0  0  0  0
  145.9980   73.3940  220.9080 C   0  0  0  0  0  0  0  0  0  0  0  0
  145.1810   74.5260  220.8380 C   0  0  0  0  0  0  0  0  0  0  0  0
  144.2670   74.7010  219.8170 C   0  0  0  0  0  0  0  0  0  0  0  0
  143.4720   75.7850  219.7330 N   0  0  0  0  0  0  0  0  0  0  0  0
  143.3570   78.4570  219.1130 H   0  0  0  0  0  0  0  0  0  0  0  0
  141.9057   80.2776  218.0546 H   0  0  0  0  0  0  0  0  0  0  0  0
  140.4801   79.3606  218.6100 H   0  0  0  0  0  0  0  0  0  0  0  0
  143.1217   78.5496  221.8827 H   0  0  0  0  0  0  0  0  0  0  0  0
  142.9796   80.1502  222.6206 H   0  0  0  0  0  0  0  0  0  0  0  0
  142.3077   77.7989  223.8816 H   0  0  0  0  0  0  0  0  0  0  0  0
  141.5888   79.3555  224.3134 H   0  0  0  0  0  0  0  0  0  0  0  0
  139.6593   78.1287  223.7712 H   0  0  0  0  0  0  0  0  0  0  0  0
  138.5071   76.0263  223.1473 H   0  0  0  0  0  0  0  0  0  0  0  0
  141.6131   74.1870  220.8238 H   0  0  0  0  0  0  0  0  0  0  0  0
  142.3380   76.6340  221.3790 H   0  0  0  0  0  0  0  0  0  0  0  0
  139.5636   78.5751  221.0329 H   0  0  0  0  0  0  0  0  0  0  0  0
  139.4282   79.9188  222.1633 H   0  0  0  0  0  0  0  0  0  0  0  0
  141.7829   75.0804  216.9546 H   0  0  0  0  0  0  0  0  0  0  0  0
  143.2101   73.0535  217.0373 H   0  0  0  0  0  0  0  0  0  0  0  0
  144.8982   71.8105  218.1228 H   0  0  0  0  0  0  0  0  0  0  0  0
  146.7171   73.2793  221.7325 H   0  0  0  0  0  0  0  0  0  0  0  0
  145.2682   75.2981  221.6166 H   0  0  0  0  0  0  0  0  0  0  0  0
  1  2  2  0
  2  3  1  0
  3  4  1  0
  4  5  1  0
  5  6  2  0
  5  7  1  0
  7  8  1  0
  8  9  1  0
  9 10  1  0
 10 11  1  0
 11 12  2  0
 12 13  1  0
 13 14  2  0
 14 15  1  0
 10 16  1  0
  2 17  1  0
 17 18  2  0
 18 19  1  0
 19 20  2  0
 20 21  1  0
 21 22  2  0
 22 23  1  0
 22 24  1  0
 24 25  2  0
 25 26  1  0
 26 27  2  0
 16  7  1  0
 27 17  1  0
 15 11  1  0
 26 20  1  0
  3 28  1  0
  4 29  1  0
  4 30  1  0
  8 31  1  0
  8 32  1  0
  9 33  1  0
  9 34  1  0
 10 35  1  1
 12 36  1  0
 14 37  1  0
 15 38  1  0
 16 39  1  0
 16 40  1  0
 18 41  1  0
 19 42  1  0
 21 43  1  0
 24 44  1  0
 25 45  1  0
M  END
>  <smiles>  (50) 
O=C(NCC(=O)N1CC[C@H](c2cnc[nH]2)C1)c1ccc2cc(F)ccc2n1

>  <score_type>  (50) 
oracle

>  <origin>  (50) 
autodockgpu

>  <m_score__min__energy>  (50) 
-8.3800000000000008

>  <m_primary>  (50) 
energy

>  <rmsd>  (50) 
7.669751558898081

>  <m_score__min__rmsd>  (50) 
7.669751558898081

>  <meeko>  (50) 
{"free_energy": -6.58, "intermolecular_energy": -8.07, "internal_energy": -2.59, "cluster_size": 6, "cluster_id": 4, "rank_in_cluster": 2}

>  <energy>  (50) 
-6.35

>  <cluster_rmsd>  (50) 
0.0

>  <cluster>  (50) 
5

$$$$
