
     RDKit          3D

 44 46  0  0  0  0  0  0  0  0999 V2000
  140.6890   71.8640  221.1330 O   0  0  0  0  0  0  0  0  0  0  0  0
  140.1700   72.2910  222.1970 C   0  0  0  0  0  0  0  0  0  0  0  0
  139.6290   73.6050  222.2830 N   0  0  0  0  0  0  0  0  0  0  0  0
  139.6730   74.4620  221.1400 C   0  0  0  0  0  0  0  0  0  0  0  0
  140.5710   75.6150  221.3480 C   0  0  0  0  0  0  0  0  0  0  0  0
  141.7250   75.5460  220.8450 O   0  0  0  0  0  0  0  0  0  0  0  0
  140.1720   76.7520  222.0740 N   0  0  0  0  0  0  0  0  0  0  0  0
  138.8350   76.6990  222.5920 C   0  0  0  0  0  0  0  0  0  0  0  0
  137.8440   77.4810  221.7770 C   0  0  0  0  0  0  0  0  0  0  0  0
  138.0200   78.9770  221.9510 C   0  0  0  0  0  0  0  0  0  0  0  0
  139.2520   79.2730  222.8080 C   0  0  0  0  0  0  0  0  0  0  0  0
  140.5030   79.1240  221.9730 C   0  0  0  0  0  0  0  0  0  0  0  0
  141.1640   77.8030  222.1940 C   0  0  0  0  0  0  0  0  0  0  0  0
  140.1010   71.4470  223.4000 C   0  0  0  0  0  0  0  0  0  0  0  0
  139.5610   70.1750  223.3060 C   0  0  0  0  0  0  0  0  0  0  0  0
  139.4640   69.3290  224.3920 C   0  0  0  0  0  0  0  0  0  0  0  0
  139.9450   69.8290  225.6020 C   0  0  0  0  0  0  0  0  0  0  0  0
  139.8680   69.0100  226.7290 C   0  0  0  0  0  0  0  0  0  0  0  0
  140.3440   69.5070  227.9250 C   0  0  0  0  0  0  0  0  0  0  0  0
  140.8870   70.7700  228.0490 C   0  0  0  0  0  0  0  0  0  0  0  0
  140.9480   71.5530  226.9170 C   0  0  0  0  0  0  0  0  0  0  0  0
  140.4860   71.1040  225.6970 C   0  0  0  0  0  0  0  0  0  0  0  0
  140.5490   71.8760  224.5960 N   0  0  0  0  0  0  0  0  0  0  0  0
  139.1980   73.9430  223.1860 H   0  0  0  0  0  0  0  0  0  0  0  0
  140.0319   73.8836  220.2760 H   0  0  0  0  0  0  0  0  0  0  0  0
  138.6581   74.8487  220.9658 H   0  0  0  0  0  0  0  0  0  0  0  0
  138.5128   75.6475  222.6165 H   0  0  0  0  0  0  0  0  0  0  0  0
  138.8585   77.1522  223.5940 H   0  0  0  0  0  0  0  0  0  0  0  0
  137.9798   77.2286  220.7150 H   0  0  0  0  0  0  0  0  0  0  0  0
  136.8343   77.2152  222.1233 H   0  0  0  0  0  0  0  0  0  0  0  0
  138.1448   79.4446  220.9632 H   0  0  0  0  0  0  0  0  0  0  0  0
  137.1301   79.3850  222.4526 H   0  0  0  0  0  0  0  0  0  0  0  0
  139.1904   80.3014  223.1935 H   0  0  0  0  0  0  0  0  0  0  0  0
  139.2892   78.5643  223.6484 H   0  0  0  0  0  0  0  0  0  0  0  0
  140.2344   79.2142  220.9101 H   0  0  0  0  0  0  0  0  0  0  0  0
  141.2088   79.9133  222.2711 H   0  0  0  0  0  0  0  0  0  0  0  0
  141.9517   77.6543  221.4407 H   0  0  0  0  0  0  0  0  0  0  0  0
  141.6140   77.7761  223.1974 H   0  0  0  0  0  0  0  0  0  0  0  0
  139.1957   69.8260  222.3289 H   0  0  0  0  0  0  0  0  0  0  0  0
  139.0330   68.3204  224.3083 H   0  0  0  0  0  0  0  0  0  0  0  0
  139.4406   67.9984  226.6659 H   0  0  0  0  0  0  0  0  0  0  0  0
  140.2883   68.8686  228.8190 H   0  0  0  0  0  0  0  0  0  0  0  0
  141.2577   71.1382  229.0170 H   0  0  0  0  0  0  0  0  0  0  0  0
  141.3767   72.5635  226.9879 H   0  0  0  0  0  0  0  0  0  0  0  0
  1  2  2  0
  2  3  1  0
  3  4  1  0
  4  5  1  0
  5  6  2  0
  5  7  1  0
  7  8  1  0
  8  9  1  0
  9 10  1  0
 10 11  1  0
 11 12  1  0
 12 13  1  0
  2 14  1  0
 14 15  2  0
 15 16  1  0
 16 17  2  0
 17 18  1  0
 18 19  2  0
 19 20  1  0
 20 21  2  0
 21 22  1  0
 22 23  2  0
 13  7  1  0
 23 14  1  0
 22 17  1  0
  3 24  1  0
  4 25  1  0
  4 26  1  0
  8 27  1  0
  8 28  1  0
  9 29  1  0
  9 30  1  0
 10 31  1  0
 10 32  1  0
 11 33  1  0
 11 34  1  0
 12 35  1  0
 12 36  1  0
 13 37  1  0
 13 38  1  0
 15 39  1  0
 16 40  1  0
 18 41  1  0
 19 42  1  0
 20 43  1  0
 21 44  1  0
M  END
>  <smiles>  (1) 
O=C(NCC(=O)N1CCCCCC1)c1ccc2ccccc2n1

>  <score_type>  (1) 
oracle

>  <origin>  (1) 
autodockgpu

>  <m_score__min__energy>  (1) 
-5.8099999999999996

>  <m_primary>  (1) 
energy

>  <rmsd>  (1) 
3.0944756799271116

>  <m_score__min__rmsd>  (1) 
3.0944756799271116

>  <meeko>  (1) 
{"free_energy": -5.11, "intermolecular_energy": -7.8, "internal_energy": -0.97, "cluster_size": 7, "cluster_id": 4, "rank_in_cluster": 3}

>  <energy>  (1) 
-5.81

>  <cluster_rmsd>  (1) 
0.0

>  <cluster>  (1) 
1

$$$$

     RDKit          3D

 44 46  0  0  0  0  0  0  0  0999 V2000
  135.8820   68.8700  224.4430 O   0  0  0  0  0  0  0  0  0  0  0  0
  136.3190   70.0390  224.6100 C   0  0  0  0  0  0  0  0  0  0  0  0
  137.7010   70.3430  224.4520 N   0  0  0  0  0  0  0  0  0  0  0  0
  138.6160   69.3040  224.0960 C   0  0  0  0  0  0  0  0  0  0  0  0
  139.2760   68.7180  225.2790 C   0  0  0  0  0  0  0  0  0  0  0  0
  138.7290   67.7120  225.8060 O   0  0  0  0  0  0  0  0  0  0  0  0
  140.4660   69.2480  225.8100 N   0  0  0  0  0  0  0  0  0  0  0  0
  140.9800   70.3940  225.1140 C   0  0  0  0  0  0  0  0  0  0  0  0
  141.1220   71.6110  225.9830 C   0  0  0  0  0  0  0  0  0  0  0  0
  140.2650   71.5210  227.2310 C   0  0  0  0  0  0  0  0  0  0  0  0
  140.9630   70.6750  228.2970 C   0  0  0  0  0  0  0  0  0  0  0  0
  140.4900   69.2420  228.2070 C   0  0  0  0  0  0  0  0  0  0  0  0
  140.9960   68.5670  226.9750 C   0  0  0  0  0  0  0  0  0  0  0  0
  135.4180   71.1420  224.9780 C   0  0  0  0  0  0  0  0  0  0  0  0
  135.5500   72.3650  224.3420 C   0  0  0  0  0  0  0  0  0  0  0  0
  134.7390   73.4430  224.6360 C   0  0  0  0  0  0  0  0  0  0  0  0
  133.7710   73.2330  225.6160 C   0  0  0  0  0  0  0  0  0  0  0  0
  132.9280   74.2930  225.9480 C   0  0  0  0  0  0  0  0  0  0  0  0
  131.9710   74.0820  226.9200 C   0  0  0  0  0  0  0  0  0  0  0  0
  131.8170   72.8740  227.5700 C   0  0  0  0  0  0  0  0  0  0  0  0
  132.6650   71.8470  227.2190 C   0  0  0  0  0  0  0  0  0  0  0  0
  133.6390   72.0060  226.2540 C   0  0  0  0  0  0  0  0  0  0  0  0
  134.4640   70.9970  225.9170 N   0  0  0  0  0  0  0  0  0  0  0  0
  138.0470   71.3290  224.5980 H   0  0  0  0  0  0  0  0  0  0  0  0
  138.0653   68.5116  223.5678 H   0  0  0  0  0  0  0  0  0  0  0  0
  139.3951   69.7427  223.4552 H   0  0  0  0  0  0  0  0  0  0  0  0
  141.9700   70.1392  224.7078 H   0  0  0  0  0  0  0  0  0  0  0  0
  140.2559   70.6438  224.3246 H   0  0  0  0  0  0  0  0  0  0  0  0
  142.1756   71.7127  226.2823 H   0  0  0  0  0  0  0  0  0  0  0  0
  140.7871   72.4836  225.4030 H   0  0  0  0  0  0  0  0  0  0  0  0
  140.0932   72.5330  227.6265 H   0  0  0  0  0  0  0  0  0  0  0  0
  139.3059   71.0486  226.9721 H   0  0  0  0  0  0  0  0  0  0  0  0
  142.0507   70.7109  228.1367 H   0  0  0  0  0  0  0  0  0  0  0  0
  140.7207   71.0747  229.2928 H   0  0  0  0  0  0  0  0  0  0  0  0
  140.8514   68.6918  229.0883 H   0  0  0  0  0  0  0  0  0  0  0  0
  139.3907   69.2468  228.1671 H   0  0  0  0  0  0  0  0  0  0  0  0
  142.0951   68.6079  226.9574 H   0  0  0  0  0  0  0  0  0  0  0  0
  140.6729   67.5156  226.9689 H   0  0  0  0  0  0  0  0  0  0  0  0
  136.3294   72.4819  223.5746 H   0  0  0  0  0  0  0  0  0  0  0  0
  134.8506   74.4113  224.1262 H   0  0  0  0  0  0  0  0  0  0  0  0
  133.0229   75.2691  225.4497 H   0  0  0  0  0  0  0  0  0  0  0  0
  131.3018   74.9128  227.1884 H   0  0  0  0  0  0  0  0  0  0  0  0
  131.0445   72.7365  228.3409 H   0  0  0  0  0  0  0  0  0  0  0  0
  132.5633   70.8737  227.7213 H   0  0  0  0  0  0  0  0  0  0  0  0
  1  2  2  0
  2  3  1  0
  3  4  1  0
  4  5  1  0
  5  6  2  0
  5  7  1  0
  7  8  1  0
  8  9  1  0
  9 10  1  0
 10 11  1  0
 11 12  1  0
 12 13  1  0
  2 14  1  0
 14 15  2  0
 15 16  1  0
 16 17  2  0
 17 18  1  0
 18 19  2  0
 19 20  1  0
 20 21  2  0
 21 22  1  0
 22 23  2  0
 13  7  1  0
 23 14  1  0
 22 17  1  0
  3 24  1  0
  4 25  1  0
  4 26  1  0
  8 27  1  0
  8 28  1  0
  9 29  1  0
  9 30  1  0
 10 31  1  0
 10 32  1  0
 11 33  1  0
 11 34  1  0
 12 35  1  0
 12 36  1  0
 13 37  1  0
 13 38  1  0
 15 39  1  0
 16 40  1  0
 18 41  1  0
 19 42  1  0
 20 43  1  0
 21 44  1  0
M  END
>  <smiles>  (2) 
O=C(NCC(=O)N1CCCCCC1)c1ccc2ccccc2n1

>  <score_type>  (2) 
oracle

>  <origin>  (2) 
autodockgpu

>  <m_score__min__energy>  (2) 
-5.8099999999999996

>  <m_primary>  (2) 
energy

>  <rmsd>  (2) 
8.376654231495005

>  <m_score__min__rmsd>  (2) 
8.376654231495005

>  <meeko>  (2) 
{"free_energy": -5.17, "intermolecular_energy": -7.85, "internal_energy": -1.04, "cluster_size": 7, "cluster_id": 3, "rank_in_cluster": 3}

>  <energy>  (2) 
-5.49

>  <cluster_rmsd>  (2) 
0.46

>  <cluster>  (2) 
1

$$$$

     RDKit          3D

 44 46  0  0  0  0  0  0  0  0999 V2000
  135.6260   69.5400  224.5200 O   0  0  0  0  0  0  0  0  0  0  0  0
  135.7450   70.7800  224.6970 C   0  0  0  0  0  0  0  0  0  0  0  0
  136.8770   71.4930  224.2080 N   0  0  0  0  0  0  0  0  0  0  0  0
  137.9010   70.7900  223.5010 C   0  0  0  0  0  0  0  0  0  0  0  0
  139.2500   71.1470  223.9820 C   0  0  0  0  0  0  0  0  0  0  0  0
  139.7380   72.2360  223.5770 O   0  0  0  0  0  0  0  0  0  0  0  0
  139.9750   70.3180  224.8560 N   0  0  0  0  0  0  0  0  0  0  0  0
  139.3040   69.1080  225.2380 C   0  0  0  0  0  0  0  0  0  0  0  0
  139.6540   68.6360  226.6200 C   0  0  0  0  0  0  0  0  0  0  0  0
  139.6690   69.7740  227.6230 C   0  0  0  0  0  0  0  0  0  0  0  0
  141.0590   70.4100  227.6860 C   0  0  0  0  0  0  0  0  0  0  0  0
  141.1960   71.4410  226.5870 C   0  0  0  0  0  0  0  0  0  0  0  0
  141.2880   70.8010  225.2410 C   0  0  0  0  0  0  0  0  0  0  0  0
  134.7180   71.5470  225.4180 C   0  0  0  0  0  0  0  0  0  0  0  0
  133.7050   70.8700  226.0760 C   0  0  0  0  0  0  0  0  0  0  0  0
  132.7080   71.5250  226.7730 C   0  0  0  0  0  0  0  0  0  0  0  0
  132.7780   72.9170  226.7780 C   0  0  0  0  0  0  0  0  0  0  0  0
  131.7920   73.6220  227.4690 C   0  0  0  0  0  0  0  0  0  0  0  0
  131.8630   75.0010  227.4720 C   0  0  0  0  0  0  0  0  0  0  0  0
  132.8610   75.7020  226.8250 C   0  0  0  0  0  0  0  0  0  0  0  0
  133.8190   74.9750  226.1530 C   0  0  0  0  0  0  0  0  0  0  0  0
  133.7940   73.5950  226.1180 C   0  0  0  0  0  0  0  0  0  0  0  0
  134.7330   72.8930  225.4580 N   0  0  0  0  0  0  0  0  0  0  0  0
  136.9580   72.5330  224.3670 H   0  0  0  0  0  0  0  0  0  0  0  0
  137.7495   69.7092  223.6384 H   0  0  0  0  0  0  0  0  0  0  0  0
  137.8339   71.0694  222.4392 H   0  0  0  0  0  0  0  0  0  0  0  0
  138.2190   69.2838  225.1952 H   0  0  0  0  0  0  0  0  0  0  0  0
  139.6293   68.3244  224.5379 H   0  0  0  0  0  0  0  0  0  0  0  0
  138.9106   67.8909  226.9396 H   0  0  0  0  0  0  0  0  0  0  0  0
  140.6638   68.2012  226.5847 H   0  0  0  0  0  0  0  0  0  0  0  0
  138.9354   70.5351  227.3188 H   0  0  0  0  0  0  0  0  0  0  0  0
  139.4121   69.3778  228.6165 H   0  0  0  0  0  0  0  0  0  0  0  0
  141.1951   70.8964  228.6632 H   0  0  0  0  0  0  0  0  0  0  0  0
  141.8237   69.6305  227.5529 H   0  0  0  0  0  0  0  0  0  0  0  0
  140.3183   72.1037  226.6079 H   0  0  0  0  0  0  0  0  0  0  0  0
  142.1216   72.0091  226.7617 H   0  0  0  0  0  0  0  0  0  0  0  0
  141.6397   71.5391  224.5051 H   0  0  0  0  0  0  0  0  0  0  0  0
  141.9969   69.9607  225.2771 H   0  0  0  0  0  0  0  0  0  0  0  0
  133.6937   69.7706  226.0426 H   0  0  0  0  0  0  0  0  0  0  0  0
  131.9064   70.9801  227.2932 H   0  0  0  0  0  0  0  0  0  0  0  0
  130.9825   73.0952  227.9955 H   0  0  0  0  0  0  0  0  0  0  0  0
  131.0902   75.5660  228.0139 H   0  0  0  0  0  0  0  0  0  0  0  0
  132.8902   76.8014  226.8453 H   0  0  0  0  0  0  0  0  0  0  0  0
  134.6261   75.5087  225.6299 H   0  0  0  0  0  0  0  0  0  0  0  0
  1  2  2  0
  2  3  1  0
  3  4  1  0
  4  5  1  0
  5  6  2  0
  5  7  1  0
  7  8  1  0
  8  9  1  0
  9 10  1  0
 10 11  1  0
 11 12  1  0
 12 13  1  0
  2 14  1  0
 14 15  2  0
 15 16  1  0
 16 17  2  0
 17 18  1  0
 18 19  2  0
 19 20  1  0
 20 21  2  0
 21 22  1  0
 22 23  2  0
 13  7  1  0
 23 14  1  0
 22 17  1  0
  3 24  1  0
  4 25  1  0
  4 26  1  0
  8 27  1  0
  8 28  1  0
  9 29  1  0
  9 30  1  0
 10 31  1  0
 10 32  1  0
 11 33  1  0
 11 34  1  0
 12 35  1  0
 12 36  1  0
 13 37  1  0
 13 38  1  0
 15 39  1  0
 16 40  1  0
 18 41  1  0
 19 42  1  0
 20 43  1  0
 21 44  1  0
M  END
>  <smiles>  (3) 
O=C(NCC(=O)N1CCCCCC1)c1ccc2ccccc2n1

>  <score_type>  (3) 
oracle

>  <origin>  (3) 
autodockgpu

>  <m_score__min__energy>  (3) 
-5.8099999999999996

>  <m_primary>  (3) 
energy

>  <rmsd>  (3) 
8.124557289457522

>  <m_score__min__rmsd>  (3) 
8.124557289457522

>  <meeko>  (3) 
{"free_energy": -4.7, "intermolecular_energy": -7.38, "internal_energy": -1.37, "cluster_size": 7, "cluster_id": 3, "rank_in_cluster": 6}

>  <energy>  (3) 
-5.33

>  <cluster_rmsd>  (3) 
1.19

>  <cluster>  (3) 
1

$$$$

     RDKit          3D

 44 46  0  0  0  0  0  0  0  0999 V2000
  140.2930   71.4850  221.2780 O   0  0  0  0  0  0  0  0  0  0  0  0
  140.0590   72.0630  222.3710 C   0  0  0  0  0  0  0  0  0  0  0  0
  139.7670   73.4550  222.4250 N   0  0  0  0  0  0  0  0  0  0  0  0
  139.7380   74.2170  221.2160 C   0  0  0  0  0  0  0  0  0  0  0  0
  138.8120   75.3630  221.3060 C   0  0  0  0  0  0  0  0  0  0  0  0
  137.6430   75.1950  220.8660 O   0  0  0  0  0  0  0  0  0  0  0  0
  139.2010   76.5970  221.8560 N   0  0  0  0  0  0  0  0  0  0  0  0
  140.5590   76.6520  222.3180 C   0  0  0  0  0  0  0  0  0  0  0  0
  141.3930   77.6820  221.6110 C   0  0  0  0  0  0  0  0  0  0  0  0
  141.2550   79.0550  222.2400 C   0  0  0  0  0  0  0  0  0  0  0  0
  139.8340   79.2570  222.7690 C   0  0  0  0  0  0  0  0  0  0  0  0
  138.8320   78.9600  221.6850 C   0  0  0  0  0  0  0  0  0  0  0  0
  138.1820   77.6290  221.8750 C   0  0  0  0  0  0  0  0  0  0  0  0
  140.0780   71.3230  223.6420 C   0  0  0  0  0  0  0  0  0  0  0  0
  139.6010   70.0230  223.6760 C   0  0  0  0  0  0  0  0  0  0  0  0
  139.5890   69.2690  224.8320 C   0  0  0  0  0  0  0  0  0  0  0  0
  140.0870   69.8920  225.9750 C   0  0  0  0  0  0  0  0  0  0  0  0
  140.0940   69.1690  227.1680 C   0  0  0  0  0  0  0  0  0  0  0  0
  140.5870   69.7890  228.2990 C   0  0  0  0  0  0  0  0  0  0  0  0
  141.0690   71.0830  228.2950 C   0  0  0  0  0  0  0  0  0  0  0  0
  141.0470   71.7680  227.1000 C   0  0  0  0  0  0  0  0  0  0  0  0
  140.5640   71.1950  225.9410 C   0  0  0  0  0  0  0  0  0  0  0  0
  140.5470   71.8720  224.7780 N   0  0  0  0  0  0  0  0  0  0  0  0
  139.5740   73.9210  223.3530 H   0  0  0  0  0  0  0  0  0  0  0  0
  140.7505   74.5941  221.0097 H   0  0  0  0  0  0  0  0  0  0  0  0
  139.3859   73.5587  220.4081 H   0  0  0  0  0  0  0  0  0  0  0  0
  140.5516   76.8881  223.3923 H   0  0  0  0  0  0  0  0  0  0  0  0
  141.0112   75.6714  222.1085 H   0  0  0  0  0  0  0  0  0  0  0  0
  142.4485   77.3756  221.6555 H   0  0  0  0  0  0  0  0  0  0  0  0
  141.0410   77.7482  220.5709 H   0  0  0  0  0  0  0  0  0  0  0  0
  141.9683   79.1460  223.0724 H   0  0  0  0  0  0  0  0  0  0  0  0
  141.4650   79.8201  221.4780 H   0  0  0  0  0  0  0  0  0  0  0  0
  139.6623   78.5799  223.6188 H   0  0  0  0  0  0  0  0  0  0  0  0
  139.7152   80.3014  223.0931 H   0  0  0  0  0  0  0  0  0  0  0  0
  138.0557   79.7393  221.6954 H   0  0  0  0  0  0  0  0  0  0  0  0
  139.3658   78.9438  220.7233 H   0  0  0  0  0  0  0  0  0  0  0  0
  137.6564   77.6101  222.8411 H   0  0  0  0  0  0  0  0  0  0  0  0
  137.4584   77.4507  221.0659 H   0  0  0  0  0  0  0  0  0  0  0  0
  139.2176   69.5750  222.7474 H   0  0  0  0  0  0  0  0  0  0  0  0
  139.2087   68.2370  224.8502 H   0  0  0  0  0  0  0  0  0  0  0  0
  139.7180   68.1360  227.2066 H   0  0  0  0  0  0  0  0  0  0  0  0
  140.5962   69.2274  229.2448 H   0  0  0  0  0  0  0  0  0  0  0  0
  141.4564   71.5498  229.2126 H   0  0  0  0  0  0  0  0  0  0  0  0
  141.4250   72.8005  227.0686 H   0  0  0  0  0  0  0  0  0  0  0  0
  1  2  2  0
  2  3  1  0
  3  4  1  0
  4  5  1  0
  5  6  2  0
  5  7  1  0
  7  8  1  0
  8  9  1  0
  9 10  1  0
 10 11  1  0
 11 12  1  0
 12 13  1  0
  2 14  1  0
 14 15  2  0
 15 16  1  0
 16 17  2  0
 17 18  1  0
 18 19  2  0
 19 20  1  0
 20 21  2  0
 21 22  1  0
 22 23  2  0
 13  7  1  0
 23 14  1  0
 22 17  1  0
  3 24  1  0
  4 25  1  0
  4 26  1  0
  8 27  1  0
  8 28  1  0
  9 29  1  0
  9 30  1  0
 10 31  1  0
 10 32  1  0
 11 33  1  0
 11 34  1  0
 12 35  1  0
 12 36  1  0
 13 37  1  0
 13 38  1  0
 15 39  1  0
 16 40  1  0
 18 41  1  0
 19 42  1  0
 20 43  1  0
 21 44  1  0
M  END
>  <smiles>  (4) 
O=C(NCC(=O)N1CCCCCC1)c1ccc2ccccc2n1

>  <score_type>  (4) 
oracle

>  <origin>  (4) 
autodockgpu

>  <m_score__min__energy>  (4) 
-5.8099999999999996

>  <m_primary>  (4) 
energy

>  <rmsd>  (4) 
2.8769128469167153

>  <m_score__min__rmsd>  (4) 
2.8769128469167153

>  <meeko>  (4) 
{"free_energy": -4.4, "intermolecular_energy": -7.08, "internal_energy": -1.0, "cluster_size": 7, "cluster_id": 4, "rank_in_cluster": 7}

>  <energy>  (4) 
-5.16

>  <cluster_rmsd>  (4) 
0.8

>  <cluster>  (4) 
1

$$$$

     RDKit          3D

 44 46  0  0  0  0  0  0  0  0999 V2000
  139.8390   73.6890  222.6480 O   0  0  0  0  0  0  0  0  0  0  0  0
  139.9080   72.4390  222.5130 C   0  0  0  0  0  0  0  0  0  0  0  0
  139.9940   71.8370  221.2260 N   0  0  0  0  0  0  0  0  0  0  0  0
  140.0010   72.6630  220.0600 C   0  0  0  0  0  0  0  0  0  0  0  0
  141.0730   73.6770  220.1050 C   0  0  0  0  0  0  0  0  0  0  0  0
  140.7230   74.8820  220.2180 O   0  0  0  0  0  0  0  0  0  0  0  0
  142.4330   73.3280  220.0260 N   0  0  0  0  0  0  0  0  0  0  0  0
  142.6910   71.9220  219.8990 C   0  0  0  0  0  0  0  0  0  0  0  0
  144.0210   71.5020  220.4580 C   0  0  0  0  0  0  0  0  0  0  0  0
  145.1700   71.9100  219.5570 C   0  0  0  0  0  0  0  0  0  0  0  0
  145.5990   73.3470  219.8580 C   0  0  0  0  0  0  0  0  0  0  0  0
  144.6050   73.9890  220.7990 C   0  0  0  0  0  0  0  0  0  0  0  0
  143.3720   74.4330  220.0830 C   0  0  0  0  0  0  0  0  0  0  0  0
  139.9040   71.5470  223.6820 C   0  0  0  0  0  0  0  0  0  0  0  0
  139.3800   70.2710  223.5590 C   0  0  0  0  0  0  0  0  0  0  0  0
  139.3430   69.3810  224.6140 C   0  0  0  0  0  0  0  0  0  0  0  0
  139.8670   69.8400  225.8210 C   0  0  0  0  0  0  0  0  0  0  0  0
  139.8520   68.9760  226.9160 C   0  0  0  0  0  0  0  0  0  0  0  0
  140.3700   69.4330  228.1110 C   0  0  0  0  0  0  0  0  0  0  0  0
  140.8990   70.7000  228.2630 C   0  0  0  0  0  0  0  0  0  0  0  0
  140.8990   71.5270  227.1620 C   0  0  0  0  0  0  0  0  0  0  0  0
  140.3920   71.1190  225.9450 C   0  0  0  0  0  0  0  0  0  0  0  0
  140.3960   71.9350  224.8740 N   0  0  0  0  0  0  0  0  0  0  0  0
  140.0510   70.7870  221.1340 H   0  0  0  0  0  0  0  0  0  0  0  0
  140.1513   72.0268  219.1754 H   0  0  0  0  0  0  0  0  0  0  0  0
  139.0370   73.1907  220.0125 H   0  0  0  0  0  0  0  0  0  0  0  0
  141.9006   71.3737  220.4326 H   0  0  0  0  0  0  0  0  0  0  0  0
  142.7060   71.6925  218.8233 H   0  0  0  0  0  0  0  0  0  0  0  0
  144.1572   71.9731  221.4426 H   0  0  0  0  0  0  0  0  0  0  0  0
  144.0249   70.4049  220.5379 H   0  0  0  0  0  0  0  0  0  0  0  0
  146.0213   71.2344  219.7268 H   0  0  0  0  0  0  0  0  0  0  0  0
  144.8413   71.8477  218.5091 H   0  0  0  0  0  0  0  0  0  0  0  0
  146.5944   73.3410  220.3261 H   0  0  0  0  0  0  0  0  0  0  0  0
  145.6354   73.9204  218.9200 H   0  0  0  0  0  0  0  0  0  0  0  0
  144.3244   73.2593  221.5728 H   0  0  0  0  0  0  0  0  0  0  0  0
  145.0795   74.8753  221.2456 H   0  0  0  0  0  0  0  0  0  0  0  0
  142.9162   75.2764  220.6223 H   0  0  0  0  0  0  0  0  0  0  0  0
  143.6304   74.7531  219.0628 H   0  0  0  0  0  0  0  0  0  0  0  0
  138.9785   69.9549  222.5849 H   0  0  0  0  0  0  0  0  0  0  0  0
  138.9246   68.3692  224.5080 H   0  0  0  0  0  0  0  0  0  0  0  0
  139.4394   67.9600  226.8297 H   0  0  0  0  0  0  0  0  0  0  0  0
  140.3612   68.7589  228.9802 H   0  0  0  0  0  0  0  0  0  0  0  0
  141.3054   71.0360  229.2284 H   0  0  0  0  0  0  0  0  0  0  0  0
  141.3147   72.5412  227.2551 H   0  0  0  0  0  0  0  0  0  0  0  0
  1  2  2  0
  2  3  1  0
  3  4  1  0
  4  5  1  0
  5  6  2  0
  5  7  1  0
  7  8  1  0
  8  9  1  0
  9 10  1  0
 10 11  1  0
 11 12  1  0
 12 13  1  0
  2 14  1  0
 14 15  2  0
 15 16  1  0
 16 17  2  0
 17 18  1  0
 18 19  2  0
 19 20  1  0
 20 21  2  0
 21 22  1  0
 22 23  2  0
 13  7  1  0
 23 14  1  0
 22 17  1  0
  3 24  1  0
  4 25  1  0
  4 26  1  0
  8 27  1  0
  8 28  1  0
  9 29  1  0
  9 30  1  0
 10 31  1  0
 10 32  1  0
 11 33  1  0
 11 34  1  0
 12 35  1  0
 12 36  1  0
 13 37  1  0
 13 38  1  0
 15 39  1  0
 16 40  1  0
 18 41  1  0
 19 42  1  0
 20 43  1  0
 21 44  1  0
M  END
>  <smiles>  (5) 
O=C(NCC(=O)N1CCCCCC1)c1ccc2ccccc2n1

>  <score_type>  (5) 
oracle

>  <origin>  (5) 
autodockgpu

>  <m_score__min__energy>  (5) 
-5.8099999999999996

>  <m_primary>  (5) 
energy

>  <rmsd>  (5) 
3.593335413612306

>  <m_score__min__rmsd>  (5) 
3.593335413612306

>  <meeko>  (5) 
{"free_energy": -5.13, "intermolecular_energy": -7.82, "internal_energy": -0.94, "cluster_size": 23, "cluster_id": 2, "rank_in_cluster": 8}

>  <energy>  (5) 
-5.1

>  <cluster_rmsd>  (5) 
0.87

>  <cluster>  (5) 
1

$$$$

     RDKit          3D

 44 46  0  0  0  0  0  0  0  0999 V2000
  141.4320   72.7640  221.5420 O   0  0  0  0  0  0  0  0  0  0  0  0
  140.4740   72.8470  222.3550 C   0  0  0  0  0  0  0  0  0  0  0  0
  139.6030   73.9720  222.3600 N   0  0  0  0  0  0  0  0  0  0  0  0
  139.8160   75.0340  221.4270 C   0  0  0  0  0  0  0  0  0  0  0  0
  139.0790   76.2570  221.8010 C   0  0  0  0  0  0  0  0  0  0  0  0
  137.8930   76.1150  222.2040 O   0  0  0  0  0  0  0  0  0  0  0  0
  139.6600   77.5340  221.7180 N   0  0  0  0  0  0  0  0  0  0  0  0
  141.0140   77.5520  221.2430 C   0  0  0  0  0  0  0  0  0  0  0  0
  141.8490   78.6440  221.8500 C   0  0  0  0  0  0  0  0  0  0  0  0
  141.7900   78.6290  223.3650 C   0  0  0  0  0  0  0  0  0  0  0  0
  140.4870   79.2650  223.8540 C   0  0  0  0  0  0  0  0  0  0  0  0
  139.6660   79.7350  222.6680 C   0  0  0  0  0  0  0  0  0  0  0  0
  138.8120   78.6410  222.1190 C   0  0  0  0  0  0  0  0  0  0  0  0
  140.2150   71.7810  223.3350 C   0  0  0  0  0  0  0  0  0  0  0  0
  139.5030   70.6590  222.9430 C   0  0  0  0  0  0  0  0  0  0  0  0
  139.2230   69.6210  223.8090 C   0  0  0  0  0  0  0  0  0  0  0  0
  139.6990   69.7640  225.1110 C   0  0  0  0  0  0  0  0  0  0  0  0
  139.4410   68.7400  226.0230 C   0  0  0  0  0  0  0  0  0  0  0  0
  139.9130   68.8840  227.3110 C   0  0  0  0  0  0  0  0  0  0  0  0
  140.6250   69.9910  227.7300 C   0  0  0  0  0  0  0  0  0  0  0  0
  140.8630   70.9830  226.8040 C   0  0  0  0  0  0  0  0  0  0  0  0
  140.4120   70.8890  225.5040 C   0  0  0  0  0  0  0  0  0  0  0  0
  140.6500   71.8640  224.6060 N   0  0  0  0  0  0  0  0  0  0  0  0
  138.8050   74.0220  223.0500 H   0  0  0  0  0  0  0  0  0  0  0  0
  140.8910   75.2645  221.3912 H   0  0  0  0  0  0  0  0  0  0  0  0
  139.4463   74.7022  220.4455 H   0  0  0  0  0  0  0  0  0  0  0  0
  141.4795   76.5844  221.4820 H   0  0  0  0  0  0  0  0  0  0  0  0
  140.9739   77.7402  220.1600 H   0  0  0  0  0  0  0  0  0  0  0  0
  142.8940   78.5092  221.5340 H   0  0  0  0  0  0  0  0  0  0  0  0
  141.4498   79.6089  221.5041 H   0  0  0  0  0  0  0  0  0  0  0  0
  141.8411   77.5889  223.7195 H   0  0  0  0  0  0  0  0  0  0  0  0
  142.6391   79.2053  223.7611 H   0  0  0  0  0  0  0  0  0  0  0  0
  139.9106   78.5226  224.4256 H   0  0  0  0  0  0  0  0  0  0  0  0
  140.7227   80.1266  224.4960 H   0  0  0  0  0  0  0  0  0  0  0  0
  139.0194   80.5651  222.9887 H   0  0  0  0  0  0  0  0  0  0  0  0
  140.3595   80.0579  221.8775 H   0  0  0  0  0  0  0  0  0  0  0  0
  138.1049   78.3028  222.8908 H   0  0  0  0  0  0  0  0  0  0  0  0
  138.2487   79.0108  221.2496 H   0  0  0  0  0  0  0  0  0  0  0  0
  139.1479   70.5928  221.9040 H   0  0  0  0  0  0  0  0  0  0  0  0
  138.6574   68.7331  223.4901 H   0  0  0  0  0  0  0  0  0  0  0  0
  138.8776   67.8440  225.7235 H   0  0  0  0  0  0  0  0  0  0  0  0
  139.7136   68.0817  228.0367 H   0  0  0  0  0  0  0  0  0  0  0  0
  140.9885   70.0773  228.7646 H   0  0  0  0  0  0  0  0  0  0  0  0
  141.4288   71.8753  227.1102 H   0  0  0  0  0  0  0  0  0  0  0  0
  1  2  2  0
  2  3  1  0
  3  4  1  0
  4  5  1  0
  5  6  2  0
  5  7  1  0
  7  8  1  0
  8  9  1  0
  9 10  1  0
 10 11  1  0
 11 12  1  0
 12 13  1  0
  2 14  1  0
 14 15  2  0
 15 16  1  0
 16 17  2  0
 17 18  1  0
 18 19  2  0
 19 20  1  0
 20 21  2  0
 21 22  1  0
 22 23  2  0
 13  7  1  0
 23 14  1  0
 22 17  1  0
  3 24  1  0
  4 25  1  0
  4 26  1  0
  8 27  1  0
  8 28  1  0
  9 29  1  0
  9 30  1  0
 10 31  1  0
 10 32  1  0
 11 33  1  0
 11 34  1  0
 12 35  1  0
 12 36  1  0
 13 37  1  0
 13 38  1  0
 15 39  1  0
 16 40  1  0
 18 41  1  0
 19 42  1  0
 20 43  1  0
 21 44  1  0
M  END
>  <smiles>  (6) 
O=C(NCC(=O)N1CCCCCC1)c1ccc2ccccc2n1

>  <score_type>  (6) 
oracle

>  <origin>  (6) 
autodockgpu

>  <m_score__min__energy>  (6) 
-5.8099999999999996

>  <m_primary>  (6) 
energy

>  <rmsd>  (6) 
3.2921423311673923

>  <m_score__min__rmsd>  (6) 
3.2921423311673923

>  <meeko>  (6) 
{"free_energy": -4.98, "intermolecular_energy": -7.67, "internal_energy": -1.19, "cluster_size": 7, "cluster_id": 4, "rank_in_cluster": 5}

>  <energy>  (6) 
-5.0

>  <cluster_rmsd>  (6) 
0.77

>  <cluster>  (6) 
1

$$$$

     RDKit          3D

 44 46  0  0  0  0  0  0  0  0999 V2000
  137.4670   71.4350  222.6390 O   0  0  0  0  0  0  0  0  0  0  0  0
  137.0450   71.2000  223.8020 C   0  0  0  0  0  0  0  0  0  0  0  0
  137.6570   70.2150  224.6270 N   0  0  0  0  0  0  0  0  0  0  0  0
  138.7730   69.4730  224.1300 C   0  0  0  0  0  0  0  0  0  0  0  0
  139.3630   68.6010  225.1650 C   0  0  0  0  0  0  0  0  0  0  0  0
  138.8910   67.4380  225.2770 O   0  0  0  0  0  0  0  0  0  0  0  0
  140.4080   69.0350  226.0010 N   0  0  0  0  0  0  0  0  0  0  0  0
  140.8490   70.3810  225.7670 C   0  0  0  0  0  0  0  0  0  0  0  0
  140.1550   71.3980  226.6280 C   0  0  0  0  0  0  0  0  0  0  0  0
  140.3370   71.1120  228.1060 C   0  0  0  0  0  0  0  0  0  0  0  0
  141.4480   70.0810  228.3160 C   0  0  0  0  0  0  0  0  0  0  0  0
  140.8580   68.6860  228.3290 C   0  0  0  0  0  0  0  0  0  0  0  0
  140.8830   68.0670  226.9710 C   0  0  0  0  0  0  0  0  0  0  0  0
  135.8990   71.9360  224.3570 C   0  0  0  0  0  0  0  0  0  0  0  0
  135.6550   73.2320  223.9320 C   0  0  0  0  0  0  0  0  0  0  0  0
  134.5990   73.9810  224.4100 C   0  0  0  0  0  0  0  0  0  0  0  0
  133.7830   73.3580  225.3520 C   0  0  0  0  0  0  0  0  0  0  0  0
  132.7020   74.0760  225.8640 C   0  0  0  0  0  0  0  0  0  0  0  0
  131.8960   73.4570  226.7980 C   0  0  0  0  0  0  0  0  0  0  0  0
  132.1140   72.1670  227.2400 C   0  0  0  0  0  0  0  0  0  0  0  0
  133.1900   71.4860  226.7140 C   0  0  0  0  0  0  0  0  0  0  0  0
  134.0270   72.0590  225.7780 C   0  0  0  0  0  0  0  0  0  0  0  0
  135.0760   71.3860  225.2700 N   0  0  0  0  0  0  0  0  0  0  0  0
  137.2870   70.0330  225.5990 H   0  0  0  0  0  0  0  0  0  0  0  0
  138.4380   68.8487  223.2886 H   0  0  0  0  0  0  0  0  0  0  0  0
  139.5432   70.1908  223.8113 H   0  0  0  0  0  0  0  0  0  0  0  0
  141.9291   70.4333  225.9685 H   0  0  0  0  0  0  0  0  0  0  0  0
  140.6070   70.6233  224.7217 H   0  0  0  0  0  0  0  0  0  0  0  0
  140.5684   72.3928  226.4055 H   0  0  0  0  0  0  0  0  0  0  0  0
  139.0789   71.3544  226.4041 H   0  0  0  0  0  0  0  0  0  0  0  0
  140.6043   72.0440  228.6255 H   0  0  0  0  0  0  0  0  0  0  0  0
  139.3962   70.7107  228.5107 H   0  0  0  0  0  0  0  0  0  0  0  0
  142.1793   70.1605  227.4981 H   0  0  0  0  0  0  0  0  0  0  0  0
  141.9452   70.2739  229.2780 H   0  0  0  0  0  0  0  0  0  0  0  0
  141.4412   68.0580  229.0185 H   0  0  0  0  0  0  0  0  0  0  0  0
  139.8100   68.7583  228.6553 H   0  0  0  0  0  0  0  0  0  0  0  0
  141.9118   67.7687  226.7207 H   0  0  0  0  0  0  0  0  0  0  0  0
  140.2352   67.1781  226.9562 H   0  0  0  0  0  0  0  0  0  0  0  0
  136.3278   73.6804  223.1861 H   0  0  0  0  0  0  0  0  0  0  0  0
  134.4125   75.0095  224.0674 H   0  0  0  0  0  0  0  0  0  0  0  0
  132.4980   75.1050  225.5331 H   0  0  0  0  0  0  0  0  0  0  0  0
  131.0422   74.0160  227.2085 H   0  0  0  0  0  0  0  0  0  0  0  0
  131.4527   71.7002  227.9848 H   0  0  0  0  0  0  0  0  0  0  0  0
  133.3875   70.4571  227.0493 H   0  0  0  0  0  0  0  0  0  0  0  0
  1  2  2  0
  2  3  1  0
  3  4  1  0
  4  5  1  0
  5  6  2  0
  5  7  1  0
  7  8  1  0
  8  9  1  0
  9 10  1  0
 10 11  1  0
 11 12  1  0
 12 13  1  0
  2 14  1  0
 14 15  2  0
 15 16  1  0
 16 17  2  0
 17 18  1  0
 18 19  2  0
 19 20  1  0
 20 21  2  0
 21 22  1  0
 22 23  2  0
 13  7  1  0
 23 14  1  0
 22 17  1  0
  3 24  1  0
  4 25  1  0
  4 26  1  0
  8 27  1  0
  8 28  1  0
  9 29  1  0
  9 30  1  0
 10 31  1  0
 10 32  1  0
 11 33  1  0
 11 34  1  0
 12 35  1  0
 12 36  1  0
 13 37  1  0
 13 38  1  0
 15 39  1  0
 16 40  1  0
 18 41  1  0
 19 42  1  0
 20 43  1  0
 21 44  1  0
M  END
>  <smiles>  (7) 
O=C(NCC(=O)N1CCCCCC1)c1ccc2ccccc2n1

>  <score_type>  (7) 
oracle

>  <origin>  (7) 
autodockgpu

>  <m_score__min__energy>  (7) 
-5.8099999999999996

>  <m_primary>  (7) 
energy

>  <rmsd>  (7) 
8.464538697778186

>  <m_score__min__rmsd>  (7) 
8.464538697778186

>  <meeko>  (7) 
{"free_energy": -4.35, "intermolecular_energy": -7.03, "internal_energy": -1.24, "cluster_size": 7, "cluster_id": 3, "rank_in_cluster": 7}

>  <energy>  (7) 
-5.46

>  <cluster_rmsd>  (7) 
0.0

>  <cluster>  (7) 
2

$$$$

     RDKit          3D

 44 46  0  0  0  0  0  0  0  0999 V2000
  139.5000   74.9930  222.2910 O   0  0  0  0  0  0  0  0  0  0  0  0
  140.6540   75.2780  221.8770 C   0  0  0  0  0  0  0  0  0  0  0  0
  141.1290   76.6200  221.8740 N   0  0  0  0  0  0  0  0  0  0  0  0
  140.2830   77.6690  222.3480 C   0  0  0  0  0  0  0  0  0  0  0  0
  141.0130   78.9430  222.5030 C   0  0  0  0  0  0  0  0  0  0  0  0
  142.2650   78.8780  222.6230 O   0  0  0  0  0  0  0  0  0  0  0  0
  140.3530   80.1850  222.5180 N   0  0  0  0  0  0  0  0  0  0  0  0
  138.9270   80.1130  222.3730 C   0  0  0  0  0  0  0  0  0  0  0  0
  138.2420   81.4440  222.5080 C   0  0  0  0  0  0  0  0  0  0  0  0
  138.5610   82.3680  221.3480 C   0  0  0  0  0  0  0  0  0  0  0  0
  139.8440   83.1520  221.6290 C   0  0  0  0  0  0  0  0  0  0  0  0
  141.0430   82.2370  221.4890 C   0  0  0  0  0  0  0  0  0  0  0  0
  141.2040   81.3490  222.6780 C   0  0  0  0  0  0  0  0  0  0  0  0
  141.5620   74.2340  221.3790 C   0  0  0  0  0  0  0  0  0  0  0  0
  141.2330   72.9020  221.5690 C   0  0  0  0  0  0  0  0  0  0  0  0
  142.0370   71.8700  221.1280 C   0  0  0  0  0  0  0  0  0  0  0  0
  143.2100   72.2440  220.4740 C   0  0  0  0  0  0  0  0  0  0  0  0
  144.0550   71.2360  220.0100 C   0  0  0  0  0  0  0  0  0  0  0  0
  145.2160   71.6090  219.3640 C   0  0  0  0  0  0  0  0  0  0  0  0
  145.5700   72.9280  219.1600 C   0  0  0  0  0  0  0  0  0  0  0  0
  144.7130   73.8990  219.6300 C   0  0  0  0  0  0  0  0  0  0  0  0
  143.5400   73.5790  220.2840 C   0  0  0  0  0  0  0  0  0  0  0  0
  142.7090   74.5350  220.7400 N   0  0  0  0  0  0  0  0  0  0  0  0
  142.1010   76.8380  221.5220 H   0  0  0  0  0  0  0  0  0  0  0  0
  139.4627   77.8152  221.6299 H   0  0  0  0  0  0  0  0  0  0  0  0
  139.9000   77.3752  223.3364 H   0  0  0  0  0  0  0  0  0  0  0  0
  138.6986   79.7033  221.3780 H   0  0  0  0  0  0  0  0  0  0  0  0
  138.5515   79.4724  223.1846 H   0  0  0  0  0  0  0  0  0  0  0  0
  137.1546   81.2817  222.5440 H   0  0  0  0  0  0  0  0  0  0  0  0
  138.6042   81.9202  223.4310 H   0  0  0  0  0  0  0  0  0  0  0  0
  138.6942   81.7702  220.4343 H   0  0  0  0  0  0  0  0  0  0  0  0
  137.7304   83.0773  221.2175 H   0  0  0  0  0  0  0  0  0  0  0  0
  139.9307   83.9807  220.9108 H   0  0  0  0  0  0  0  0  0  0  0  0
  139.8091   83.5524  222.6529 H   0  0  0  0  0  0  0  0  0  0  0  0
  140.9116   81.6123  220.5932 H   0  0  0  0  0  0  0  0  0  0  0  0
  141.9434   82.8633  221.4054 H   0  0  0  0  0  0  0  0  0  0  0  0
  142.2535   81.0299  222.7603 H   0  0  0  0  0  0  0  0  0  0  0  0
  140.9194   81.8944  223.5899 H   0  0  0  0  0  0  0  0  0  0  0  0
  140.2961   72.6573  222.0908 H   0  0  0  0  0  0  0  0  0  0  0  0
  141.7679   70.8148  221.2835 H   0  0  0  0  0  0  0  0  0  0  0  0
  143.8034   70.1750  220.1547 H   0  0  0  0  0  0  0  0  0  0  0  0
  145.8891   70.8209  218.9954 H   0  0  0  0  0  0  0  0  0  0  0  0
  146.5027   73.1939  218.6409 H   0  0  0  0  0  0  0  0  0  0  0  0
  144.9703   74.9579  219.4801 H   0  0  0  0  0  0  0  0  0  0  0  0
  1  2  2  0
  2  3  1  0
  3  4  1  0
  4  5  1  0
  5  6  2  0
  5  7  1  0
  7  8  1  0
  8  9  1  0
  9 10  1  0
 10 11  1  0
 11 12  1  0
 12 13  1  0
  2 14  1  0
 14 15  2  0
 15 16  1  0
 16 17  2  0
 17 18  1  0
 18 19  2  0
 19 20  1  0
 20 21  2  0
 21 22  1  0
 22 23  2  0
 13  7  1  0
 23 14  1  0
 22 17  1  0
  3 24  1  0
  4 25  1  0
  4 26  1  0
  8 27  1  0
  8 28  1  0
  9 29  1  0
  9 30  1  0
 10 31  1  0
 10 32  1  0
 11 33  1  0
 11 34  1  0
 12 35  1  0
 12 36  1  0
 13 37  1  0
 13 38  1  0
 15 39  1  0
 16 40  1  0
 18 41  1  0
 19 42  1  0
 20 43  1  0
 21 44  1  0
M  END
>  <smiles>  (8) 
O=C(NCC(=O)N1CCCCCC1)c1ccc2ccccc2n1

>  <score_type>  (8) 
oracle

>  <origin>  (8) 
autodockgpu

>  <m_score__min__energy>  (8) 
-5.8099999999999996

>  <m_primary>  (8) 
energy

>  <rmsd>  (8) 
6.830517284010302

>  <m_score__min__rmsd>  (8) 
6.830517284010302

>  <meeko>  (8) 
{"free_energy": -3.76, "intermolecular_energy": -6.44, "internal_energy": -1.52, "cluster_size": 1, "cluster_id": 9, "rank_in_cluster": 1}

>  <energy>  (8) 
-5.35

>  <cluster_rmsd>  (8) 
0.68

>  <cluster>  (8) 
2

$$$$

     RDKit          3D

 44 46  0  0  0  0  0  0  0  0999 V2000
  139.1130   70.6920  221.5220 O   0  0  0  0  0  0  0  0  0  0  0  0
  139.3810   71.2250  222.6300 C   0  0  0  0  0  0  0  0  0  0  0  0
  139.5300   72.6340  222.7580 N   0  0  0  0  0  0  0  0  0  0  0  0
  139.3740   73.4680  221.6070 C   0  0  0  0  0  0  0  0  0  0  0  0
  140.5560   74.3220  221.3780 C   0  0  0  0  0  0  0  0  0  0  0  0
  140.5810   75.4390  221.9600 O   0  0  0  0  0  0  0  0  0  0  0  0
  141.6180   73.9200  220.5480 N   0  0  0  0  0  0  0  0  0  0  0  0
  141.4600   72.6260  219.9480 C   0  0  0  0  0  0  0  0  0  0  0  0
  142.1780   71.5310  220.6840 C   0  0  0  0  0  0  0  0  0  0  0  0
  143.6850   71.6730  220.5880 C   0  0  0  0  0  0  0  0  0  0  0  0
  144.0510   72.8860  219.7300 C   0  0  0  0  0  0  0  0  0  0  0  0
  144.0050   74.1410  220.5780 C   0  0  0  0  0  0  0  0  0  0  0  0
  142.7100   74.8660  220.4190 C   0  0  0  0  0  0  0  0  0  0  0  0
  139.5510   70.4100  223.8430 C   0  0  0  0  0  0  0  0  0  0  0  0
  139.1000   69.1000  223.8480 C   0  0  0  0  0  0  0  0  0  0  0  0
  139.2270   68.2780  224.9500 C   0  0  0  0  0  0  0  0  0  0  0  0
  139.8380   68.8420  226.0680 C   0  0  0  0  0  0  0  0  0  0  0  0
  139.9880   68.0500  227.2070 C   0  0  0  0  0  0  0  0  0  0  0  0
  140.5930   68.6110  228.3130 C   0  0  0  0  0  0  0  0  0  0  0  0
  141.0520   69.9140  228.3360 C   0  0  0  0  0  0  0  0  0  0  0  0
  140.8880   70.6690  227.1960 C   0  0  0  0  0  0  0  0  0  0  0  0
  140.2890   70.1560  226.0630 C   0  0  0  0  0  0  0  0  0  0  0  0
  140.1340   70.9010  224.9530 N   0  0  0  0  0  0  0  0  0  0  0  0
  139.7540   73.0610  223.6980 H   0  0  0  0  0  0  0  0  0  0  0  0
  139.2207   72.8298  220.7243 H   0  0  0  0  0  0  0  0  0  0  0  0
  138.5085   74.1250  221.7785 H   0  0  0  0  0  0  0  0  0  0  0  0
  140.3875   72.3829  219.9226 H   0  0  0  0  0  0  0  0  0  0  0  0
  141.9001   72.6809  218.9414 H   0  0  0  0  0  0  0  0  0  0  0  0
  141.8852   71.5646  221.7438 H   0  0  0  0  0  0  0  0  0  0  0  0
  141.8977   70.5723  220.2231 H   0  0  0  0  0  0  0  0  0  0  0  0
  144.1021   71.8035  221.5974 H   0  0  0  0  0  0  0  0  0  0  0  0
  144.1006   70.7672  220.1225 H   0  0  0  0  0  0  0  0  0  0  0  0
  145.0652   72.7551  219.3246 H   0  0  0  0  0  0  0  0  0  0  0  0
  143.3325   72.9780  218.9021 H   0  0  0  0  0  0  0  0  0  0  0  0
  144.1304   73.8623  221.6347 H   0  0  0  0  0  0  0  0  0  0  0  0
  144.8149   74.8083  220.2482 H   0  0  0  0  0  0  0  0  0  0  0  0
  142.6222   75.6384  221.1973 H   0  0  0  0  0  0  0  0  0  0  0  0
  142.6717   75.3438  219.4289 H   0  0  0  0  0  0  0  0  0  0  0  0
  138.6233   68.7002  222.9408 H   0  0  0  0  0  0  0  0  0  0  0  0
  138.8669   67.2386  224.9456 H   0  0  0  0  0  0  0  0  0  0  0  0
  139.6342   67.0086  227.2227 H   0  0  0  0  0  0  0  0  0  0  0  0
  140.7152   67.9941  229.2155 H   0  0  0  0  0  0  0  0  0  0  0  0
  141.5313   70.3333  229.2329 H   0  0  0  0  0  0  0  0  0  0  0  0
  141.2442   71.7097  227.1880 H   0  0  0  0  0  0  0  0  0  0  0  0
  1  2  2  0
  2  3  1  0
  3  4  1  0
  4  5  1  0
  5  6  2  0
  5  7  1  0
  7  8  1  0
  8  9  1  0
  9 10  1  0
 10 11  1  0
 11 12  1  0
 12 13  1  0
  2 14  1  0
 14 15  2  0
 15 16  1  0
 16 17  2  0
 17 18  1  0
 18 19  2  0
 19 20  1  0
 20 21  2  0
 21 22  1  0
 22 23  2  0
 13  7  1  0
 23 14  1  0
 22 17  1  0
  3 24  1  0
  4 25  1  0
  4 26  1  0
  8 27  1  0
  8 28  1  0
  9 29  1  0
  9 30  1  0
 10 31  1  0
 10 32  1  0
 11 33  1  0
 11 34  1  0
 12 35  1  0
 12 36  1  0
 13 37  1  0
 13 38  1  0
 15 39  1  0
 16 40  1  0
 18 41  1  0
 19 42  1  0
 20 43  1  0
 21 44  1  0
M  END
>  <smiles>  (9) 
O=C(NCC(=O)N1CCCCCC1)c1ccc2ccccc2n1

>  <score_type>  (9) 
oracle

>  <origin>  (9) 
autodockgpu

>  <m_score__min__energy>  (9) 
-5.8099999999999996

>  <m_primary>  (9) 
energy

>  <rmsd>  (9) 
3.0972935621369797

>  <m_score__min__rmsd>  (9) 
3.0972935621369797

>  <meeko>  (9) 
{"free_energy": -4.91, "intermolecular_energy": -7.6, "internal_energy": -1.44, "cluster_size": 23, "cluster_id": 2, "rank_in_cluster": 13}

>  <energy>  (9) 
-5.35

>  <cluster_rmsd>  (9) 
0.81

>  <cluster>  (9) 
2

$$$$

     RDKit          3D

 44 46  0  0  0  0  0  0  0  0999 V2000
  139.1050   70.7030  221.5650 O   0  0  0  0  0  0  0  0  0  0  0  0
  139.4310   71.2420  222.6550 C   0  0  0  0  0  0  0  0  0  0  0  0
  139.6640   72.6430  222.7480 N   0  0  0  0  0  0  0  0  0  0  0  0
  139.5260   73.4610  221.5830 C   0  0  0  0  0  0  0  0  0  0  0  0
  140.7030   74.3270  221.3720 C   0  0  0  0  0  0  0  0  0  0  0  0
  140.7200   75.4330  221.9760 O   0  0  0  0  0  0  0  0  0  0  0  0
  141.7680   73.9490  220.5350 N   0  0  0  0  0  0  0  0  0  0  0  0
  141.6190   72.6660  219.9090 C   0  0  0  0  0  0  0  0  0  0  0  0
  142.3480   71.5620  220.6210 C   0  0  0  0  0  0  0  0  0  0  0  0
  143.8530   71.7150  220.5170 C   0  0  0  0  0  0  0  0  0  0  0  0
  144.2070   72.9500  219.6870 C   0  0  0  0  0  0  0  0  0  0  0  0
  144.1540   74.1840  220.5660 C   0  0  0  0  0  0  0  0  0  0  0  0
  142.8540   74.9050  220.4260 C   0  0  0  0  0  0  0  0  0  0  0  0
  139.5860   70.4440  223.8800 C   0  0  0  0  0  0  0  0  0  0  0  0
  139.1290   69.1370  223.9000 C   0  0  0  0  0  0  0  0  0  0  0  0
  139.2410   68.3300  225.0150 C   0  0  0  0  0  0  0  0  0  0  0  0
  139.8450   68.9070  226.1310 C   0  0  0  0  0  0  0  0  0  0  0  0
  139.9800   68.1310  227.2810 C   0  0  0  0  0  0  0  0  0  0  0  0
  140.5780   68.7050  228.3850 C   0  0  0  0  0  0  0  0  0  0  0  0
  141.0430   70.0050  228.3940 C   0  0  0  0  0  0  0  0  0  0  0  0
  140.8940   70.7450  227.2410 C   0  0  0  0  0  0  0  0  0  0  0  0
  140.3030   70.2180  226.1110 C   0  0  0  0  0  0  0  0  0  0  0  0
  140.1610   70.9480  224.9890 N   0  0  0  0  0  0  0  0  0  0  0  0
  139.9370   73.0760  223.6720 H   0  0  0  0  0  0  0  0  0  0  0  0
  139.4021   72.8102  220.7049 H   0  0  0  0  0  0  0  0  0  0  0  0
  138.6487   74.1092  221.7252 H   0  0  0  0  0  0  0  0  0  0  0  0
  140.5485   72.4147  219.8812 H   0  0  0  0  0  0  0  0  0  0  0  0
  142.0560   72.7450  218.9026 H   0  0  0  0  0  0  0  0  0  0  0  0
  142.0624   71.5752  221.6832 H   0  0  0  0  0  0  0  0  0  0  0  0
  142.0699   70.6098  220.1457 H   0  0  0  0  0  0  0  0  0  0  0  0
  144.2770   71.8228  221.5263 H   0  0  0  0  0  0  0  0  0  0  0  0
  144.2693   70.8233  220.0255 H   0  0  0  0  0  0  0  0  0  0  0  0
  145.2208   72.8366  219.2755 H   0  0  0  0  0  0  0  0  0  0  0  0
  143.4858   73.0563  218.8632 H   0  0  0  0  0  0  0  0  0  0  0  0
  144.2822   73.8802  221.6154 H   0  0  0  0  0  0  0  0  0  0  0  0
  144.9595   74.8642  220.2519 H   0  0  0  0  0  0  0  0  0  0  0  0
  142.7629   75.6586  221.2221 H   0  0  0  0  0  0  0  0  0  0  0  0
  142.8108   75.4056  219.4475 H   0  0  0  0  0  0  0  0  0  0  0  0
  138.6593   68.7263  222.9941 H   0  0  0  0  0  0  0  0  0  0  0  0
  138.8750   67.2927  225.0221 H   0  0  0  0  0  0  0  0  0  0  0  0
  139.6206   67.0917  227.3081 H   0  0  0  0  0  0  0  0  0  0  0  0
  140.6888   68.1003  229.2972 H   0  0  0  0  0  0  0  0  0  0  0  0
  141.5156   70.4347  229.2896 H   0  0  0  0  0  0  0  0  0  0  0  0
  141.2559   71.7836  227.2210 H   0  0  0  0  0  0  0  0  0  0  0  0
  1  2  2  0
  2  3  1  0
  3  4  1  0
  4  5  1  0
  5  6  2  0
  5  7  1  0
  7  8  1  0
  8  9  1  0
  9 10  1  0
 10 11  1  0
 11 12  1  0
 12 13  1  0
  2 14  1  0
 14 15  2  0
 15 16  1  0
 16 17  2  0
 17 18  1  0
 18 19  2  0
 19 20  1  0
 20 21  2  0
 21 22  1  0
 22 23  2  0
 13  7  1  0
 23 14  1  0
 22 17  1  0
  3 24  1  0
  4 25  1  0
  4 26  1  0
  8 27  1  0
  8 28  1  0
  9 29  1  0
  9 30  1  0
 10 31  1  0
 10 32  1  0
 11 33  1  0
 11 34  1  0
 12 35  1  0
 12 36  1  0
 13 37  1  0
 13 38  1  0
 15 39  1  0
 16 40  1  0
 18 41  1  0
 19 42  1  0
 20 43  1  0
 21 44  1  0
M  END
>  <smiles>  (10) 
O=C(NCC(=O)N1CCCCCC1)c1ccc2ccccc2n1

>  <score_type>  (10) 
oracle

>  <origin>  (10) 
autodockgpu

>  <m_score__min__energy>  (10) 
-5.8099999999999996

>  <m_primary>  (10) 
energy

>  <rmsd>  (10) 
3.128896374875703

>  <m_score__min__rmsd>  (10) 
3.128896374875703

>  <meeko>  (10) 
{"free_energy": -4.79, "intermolecular_energy": -7.47, "internal_energy": -1.43, "cluster_size": 23, "cluster_id": 2, "rank_in_cluster": 17}

>  <energy>  (10) 
-5.25

>  <cluster_rmsd>  (10) 
1.27

>  <cluster>  (10) 
2

$$$$

     RDKit          3D

 44 46  0  0  0  0  0  0  0  0999 V2000
  139.4680   70.8630  221.3440 O   0  0  0  0  0  0  0  0  0  0  0  0
  139.6260   71.4640  222.4390 C   0  0  0  0  0  0  0  0  0  0  0  0
  139.7030   72.8840  222.5000 N   0  0  0  0  0  0  0  0  0  0  0  0
  139.6000   73.6490  221.2970 C   0  0  0  0  0  0  0  0  0  0  0  0
  140.7720   74.5250  221.0950 C   0  0  0  0  0  0  0  0  0  0  0  0
  140.6600   75.7280  221.4510 O   0  0  0  0  0  0  0  0  0  0  0  0
  141.9700   74.0520  220.5310 N   0  0  0  0  0  0  0  0  0  0  0  0
  141.9610   72.6620  220.1710 C   0  0  0  0  0  0  0  0  0  0  0  0
  143.1020   71.8820  220.7580 C   0  0  0  0  0  0  0  0  0  0  0  0
  144.3810   72.0600  219.9650 C   0  0  0  0  0  0  0  0  0  0  0  0
  144.9520   73.4630  220.1820 C   0  0  0  0  0  0  0  0  0  0  0  0
  144.0830   74.4840  219.4860 C   0  0  0  0  0  0  0  0  0  0  0  0
  143.0320   75.0300  220.3950 C   0  0  0  0  0  0  0  0  0  0  0  0
  139.7380   70.7220  223.7040 C   0  0  0  0  0  0  0  0  0  0  0  0
  139.2600   69.4240  223.7720 C   0  0  0  0  0  0  0  0  0  0  0  0
  139.3320   68.6680  224.9250 C   0  0  0  0  0  0  0  0  0  0  0  0
  139.9170   69.2880  226.0280 C   0  0  0  0  0  0  0  0  0  0  0  0
  140.0120   68.5640  227.2170 C   0  0  0  0  0  0  0  0  0  0  0  0
  140.5910   69.1800  228.3070 C   0  0  0  0  0  0  0  0  0  0  0  0
  141.0760   70.4720  228.2680 C   0  0  0  0  0  0  0  0  0  0  0  0
  140.9670   71.1590  227.0790 C   0  0  0  0  0  0  0  0  0  0  0  0
  140.3960   70.5890  225.9600 C   0  0  0  0  0  0  0  0  0  0  0  0
  140.2940   71.2680  224.8020 N   0  0  0  0  0  0  0  0  0  0  0  0
  139.8360   73.3690  223.4290 H   0  0  0  0  0  0  0  0  0  0  0  0
  139.5210   72.9595  220.4436 H   0  0  0  0  0  0  0  0  0  0  0  0
  138.7084   74.2882  221.3767 H   0  0  0  0  0  0  0  0  0  0  0  0
  141.0183   72.2176  220.5230 H   0  0  0  0  0  0  0  0  0  0  0  0
  142.0643   72.6113  219.0770 H   0  0  0  0  0  0  0  0  0  0  0  0
  143.2731   72.2251  221.7890 H   0  0  0  0  0  0  0  0  0  0  0  0
  142.8326   70.8158  220.7321 H   0  0  0  0  0  0  0  0  0  0  0  0
  145.1187   71.3135  220.2945 H   0  0  0  0  0  0  0  0  0  0  0  0
  144.1596   71.9262  218.8958 H   0  0  0  0  0  0  0  0  0  0  0  0
  144.9812   73.6825  221.2595 H   0  0  0  0  0  0  0  0  0  0  0  0
  145.9693   73.5088  219.7660 H   0  0  0  0  0  0  0  0  0  0  0  0
  144.7170   75.3123  219.1368 H   0  0  0  0  0  0  0  0  0  0  0  0
  143.5810   73.9874  218.6425 H   0  0  0  0  0  0  0  0  0  0  0  0
  143.4702   75.2381  221.3823 H   0  0  0  0  0  0  0  0  0  0  0  0
  142.6265   75.9627  219.9759 H   0  0  0  0  0  0  0  0  0  0  0  0
  138.8062   68.9789  222.8742 H   0  0  0  0  0  0  0  0  0  0  0  0
  138.9503   67.6374  224.9706 H   0  0  0  0  0  0  0  0  0  0  0  0
  139.6362   67.5323  227.2832 H   0  0  0  0  0  0  0  0  0  0  0  0
  140.6698   68.6170  229.2487 H   0  0  0  0  0  0  0  0  0  0  0  0
  141.5330   70.9361  229.1544 H   0  0  0  0  0  0  0  0  0  0  0  0
  141.3455   72.1901  227.0202 H   0  0  0  0  0  0  0  0  0  0  0  0
  1  2  2  0
  2  3  1  0
  3  4  1  0
  4  5  1  0
  5  6  2  0
  5  7  1  0
  7  8  1  0
  8  9  1  0
  9 10  1  0
 10 11  1  0
 11 12  1  0
 12 13  1  0
  2 14  1  0
 14 15  2  0
 15 16  1  0
 16 17  2  0
 17 18  1  0
 18 19  2  0
 19 20  1  0
 20 21  2  0
 21 22  1  0
 22 23  2  0
 13  7  1  0
 23 14  1  0
 22 17  1  0
  3 24  1  0
  4 25  1  0
  4 26  1  0
  8 27  1  0
  8 28  1  0
  9 29  1  0
  9 30  1  0
 10 31  1  0
 10 32  1  0
 11 33  1  0
 11 34  1  0
 12 35  1  0
 12 36  1  0
 13 37  1  0
 13 38  1  0
 15 39  1  0
 16 40  1  0
 18 41  1  0
 19 42  1  0
 20 43  1  0
 21 44  1  0
M  END
>  <smiles>  (11) 
O=C(NCC(=O)N1CCCCCC1)c1ccc2ccccc2n1

>  <score_type>  (11) 
oracle

>  <origin>  (11) 
autodockgpu

>  <m_score__min__energy>  (11) 
-5.8099999999999996

>  <m_primary>  (11) 
energy

>  <rmsd>  (11) 
3.065350438299262

>  <m_score__min__rmsd>  (11) 
3.065350438299262

>  <meeko>  (11) 
{"free_energy": -5.11, "intermolecular_energy": -7.8, "internal_energy": -1.33, "cluster_size": 23, "cluster_id": 2, "rank_in_cluster": 9}

>  <energy>  (11) 
-5.24

>  <cluster_rmsd>  (11) 
1.34

>  <cluster>  (11) 
2

$$$$

     RDKit          3D

 44 46  0  0  0  0  0  0  0  0999 V2000
  140.4670   71.1070  221.2670 O   0  0  0  0  0  0  0  0  0  0  0  0
  140.2310   71.7910  222.2960 C   0  0  0  0  0  0  0  0  0  0  0  0
  140.0930   73.2060  222.2290 N   0  0  0  0  0  0  0  0  0  0  0  0
  140.2250   73.8690  220.9700 C   0  0  0  0  0  0  0  0  0  0  0  0
  141.4880   74.6270  220.8730 C   0  0  0  0  0  0  0  0  0  0  0  0
  141.4500   75.8510  221.1690 O   0  0  0  0  0  0  0  0  0  0  0  0
  142.6920   74.0240  220.4690 N   0  0  0  0  0  0  0  0  0  0  0  0
  142.5940   72.6250  220.1600 C   0  0  0  0  0  0  0  0  0  0  0  0
  143.7580   71.8170  220.6580 C   0  0  0  0  0  0  0  0  0  0  0  0
  144.9120   71.8180  219.6740 C   0  0  0  0  0  0  0  0  0  0  0  0
  145.4520   73.2370  219.4860 C   0  0  0  0  0  0  0  0  0  0  0  0
  145.0790   74.0900  220.6810 C   0  0  0  0  0  0  0  0  0  0  0  0
  143.8500   74.8960  220.4210 C   0  0  0  0  0  0  0  0  0  0  0  0
  140.0870   71.1550  223.6150 C   0  0  0  0  0  0  0  0  0  0  0  0
  139.4410   69.9340  223.7110 C   0  0  0  0  0  0  0  0  0  0  0  0
  139.2700   69.2800  224.9150 C   0  0  0  0  0  0  0  0  0  0  0  0
  139.7860   69.9210  226.0390 C   0  0  0  0  0  0  0  0  0  0  0  0
  139.6370   69.2990  227.2790 C   0  0  0  0  0  0  0  0  0  0  0  0
  140.1490   69.9370  228.3910 C   0  0  0  0  0  0  0  0  0  0  0  0
  140.7970   71.1540  228.3250 C   0  0  0  0  0  0  0  0  0  0  0  0
  140.9280   71.7420  227.0860 C   0  0  0  0  0  0  0  0  0  0  0  0
  140.4330   71.1460  225.9430 C   0  0  0  0  0  0  0  0  0  0  0  0
  140.5650   71.7280  224.7360 N   0  0  0  0  0  0  0  0  0  0  0  0
  139.8940   73.7620  223.1050 H   0  0  0  0  0  0  0  0  0  0  0  0
  140.2002   73.1164  220.1682 H   0  0  0  0  0  0  0  0  0  0  0  0
  139.3930   74.5820  220.8730 H   0  0  0  0  0  0  0  0  0  0  0  0
  141.6752   72.2309  220.6189 H   0  0  0  0  0  0  0  0  0  0  0  0
  142.5849   72.5363  219.0636 H   0  0  0  0  0  0  0  0  0  0  0  0
  144.1038   72.2426  221.6115 H   0  0  0  0  0  0  0  0  0  0  0  0
  143.4208   70.7778  220.7855 H   0  0  0  0  0  0  0  0  0  0  0  0
  145.7157   71.1723  220.0575 H   0  0  0  0  0  0  0  0  0  0  0  0
  144.5542   71.4412  218.7044 H   0  0  0  0  0  0  0  0  0  0  0  0
  146.5472   73.2013  219.3903 H   0  0  0  0  0  0  0  0  0  0  0  0
  145.0147   73.6747  218.5765 H   0  0  0  0  0  0  0  0  0  0  0  0
  144.8989   73.4338  221.5452 H   0  0  0  0  0  0  0  0  0  0  0  0
  145.9089   74.7841  220.8797 H   0  0  0  0  0  0  0  0  0  0  0  0
  143.7538   75.6788  221.1878 H   0  0  0  0  0  0  0  0  0  0  0  0
  143.9185   75.3671  219.4293 H   0  0  0  0  0  0  0  0  0  0  0  0
  139.0497   69.4680  222.7946 H   0  0  0  0  0  0  0  0  0  0  0  0
  138.7564   68.3096  224.9826 H   0  0  0  0  0  0  0  0  0  0  0  0
  139.1265   68.3287  227.3679 H   0  0  0  0  0  0  0  0  0  0  0  0
  140.0356   69.4543  229.3729 H   0  0  0  0  0  0  0  0  0  0  0  0
  141.1947   71.6372  229.2296 H   0  0  0  0  0  0  0  0  0  0  0  0
  141.4405   72.7120  227.0051 H   0  0  0  0  0  0  0  0  0  0  0  0
  1  2  2  0
  2  3  1  0
  3  4  1  0
  4  5  1  0
  5  6  2  0
  5  7  1  0
  7  8  1  0
  8  9  1  0
  9 10  1  0
 10 11  1  0
 11 12  1  0
 12 13  1  0
  2 14  1  0
 14 15  2  0
 15 16  1  0
 16 17  2  0
 17 18  1  0
 18 19  2  0
 19 20  1  0
 20 21  2  0
 21 22  1  0
 22 23  2  0
 13  7  1  0
 23 14  1  0
 22 17  1  0
  3 24  1  0
  4 25  1  0
  4 26  1  0
  8 27  1  0
  8 28  1  0
  9 29  1  0
  9 30  1  0
 10 31  1  0
 10 32  1  0
 11 33  1  0
 11 34  1  0
 12 35  1  0
 12 36  1  0
 13 37  1  0
 13 38  1  0
 15 39  1  0
 16 40  1  0
 18 41  1  0
 19 42  1  0
 20 43  1  0
 21 44  1  0
M  END
>  <smiles>  (12) 
O=C(NCC(=O)N1CCCCCC1)c1ccc2ccccc2n1

>  <score_type>  (12) 
oracle

>  <origin>  (12) 
autodockgpu

>  <m_score__min__energy>  (12) 
-5.8099999999999996

>  <m_primary>  (12) 
energy

>  <rmsd>  (12) 
3.4944715892401663

>  <m_score__min__rmsd>  (12) 
3.4944715892401663

>  <meeko>  (12) 
{"free_energy": -5.35, "intermolecular_energy": -8.03, "internal_energy": -1.17, "cluster_size": 23, "cluster_id": 2, "rank_in_cluster": 3}

>  <energy>  (12) 
-5.21

>  <cluster_rmsd>  (12) 
0.73

>  <cluster>  (12) 
2

$$$$

     RDKit          3D

 44 46  0  0  0  0  0  0  0  0999 V2000
  139.3950   71.2440  221.2530 O   0  0  0  0  0  0  0  0  0  0  0  0
  139.9820   71.8280  222.2010 C   0  0  0  0  0  0  0  0  0  0  0  0
  140.5890   73.1030  222.0240 N   0  0  0  0  0  0  0  0  0  0  0  0
  140.5350   73.7380  220.7440 C   0  0  0  0  0  0  0  0  0  0  0  0
  141.7920   74.4400  220.4210 C   0  0  0  0  0  0  0  0  0  0  0  0
  141.7690   75.7000  220.4350 O   0  0  0  0  0  0  0  0  0  0  0  0
  142.9760   73.7480  220.1080 N   0  0  0  0  0  0  0  0  0  0  0  0
  142.8620   72.3170  220.1280 C   0  0  0  0  0  0  0  0  0  0  0  0
  143.8940   71.6210  219.2870 C   0  0  0  0  0  0  0  0  0  0  0  0
  145.3060   71.9760  219.7110 C   0  0  0  0  0  0  0  0  0  0  0  0
  145.2890   72.7420  221.0350 C   0  0  0  0  0  0  0  0  0  0  0  0
  145.2310   74.2330  220.7620 C   0  0  0  0  0  0  0  0  0  0  0  0
  144.1310   74.5740  219.8120 C   0  0  0  0  0  0  0  0  0  0  0  0
  140.0640   71.2150  223.5360 C   0  0  0  0  0  0  0  0  0  0  0  0
  139.6260   69.9130  223.7120 C   0  0  0  0  0  0  0  0  0  0  0  0
  139.6730   69.2750  224.9360 C   0  0  0  0  0  0  0  0  0  0  0  0
  140.1920   70.0190  225.9940 C   0  0  0  0  0  0  0  0  0  0  0  0
  140.2600   69.4160  227.2510 C   0  0  0  0  0  0  0  0  0  0  0  0
  140.7730   70.1550  228.2980 C   0  0  0  0  0  0  0  0  0  0  0  0
  141.2170   71.4540  228.1510 C   0  0  0  0  0  0  0  0  0  0  0  0
  141.1360   72.0190  226.8980 C   0  0  0  0  0  0  0  0  0  0  0  0
  140.6310   71.3240  225.8180 C   0  0  0  0  0  0  0  0  0  0  0  0
  140.5550   71.8850  224.5960 N   0  0  0  0  0  0  0  0  0  0  0  0
  141.0760   73.5760  222.8320 H   0  0  0  0  0  0  0  0  0  0  0  0
  140.3481   72.9731  219.9759 H   0  0  0  0  0  0  0  0  0  0  0  0
  139.7265   74.4835  220.7687 H   0  0  0  0  0  0  0  0  0  0  0  0
  142.9709   71.9737  221.1674 H   0  0  0  0  0  0  0  0  0  0  0  0
  141.8779   72.0653  219.7060 H   0  0  0  0  0  0  0  0  0  0  0  0
  143.7568   70.5339  219.3840 H   0  0  0  0  0  0  0  0  0  0  0  0
  143.7598   71.9477  218.2452 H   0  0  0  0  0  0  0  0  0  0  0  0
  145.8904   71.0523  219.8343 H   0  0  0  0  0  0  0  0  0  0  0  0
  145.7616   72.6114  218.9372 H   0  0  0  0  0  0  0  0  0  0  0  0
  144.4065   72.4426  221.6194 H   0  0  0  0  0  0  0  0  0  0  0  0
  146.2030   72.5106  221.6017 H   0  0  0  0  0  0  0  0  0  0  0  0
  145.0611   74.7635  221.7105 H   0  0  0  0  0  0  0  0  0  0  0  0
  146.1854   74.5376  220.3078 H   0  0  0  0  0  0  0  0  0  0  0  0
  143.8635   75.6351  219.9236 H   0  0  0  0  0  0  0  0  0  0  0  0
  144.4628   74.3911  218.7793 H   0  0  0  0  0  0  0  0  0  0  0  0
  139.2260   69.3669  222.8450 H   0  0  0  0  0  0  0  0  0  0  0  0
  139.3217   68.2410  225.0680 H   0  0  0  0  0  0  0  0  0  0  0  0
  139.9150   68.3826  227.4028 H   0  0  0  0  0  0  0  0  0  0  0  0
  140.8305   69.6887  229.2926 H   0  0  0  0  0  0  0  0  0  0  0  0
  141.6212   72.0177  229.0048 H   0  0  0  0  0  0  0  0  0  0  0  0
  141.4834   73.0527  226.7539 H   0  0  0  0  0  0  0  0  0  0  0  0
  1  2  2  0
  2  3  1  0
  3  4  1  0
  4  5  1  0
  5  6  2  0
  5  7  1  0
  7  8  1  0
  8  9  1  0
  9 10  1  0
 10 11  1  0
 11 12  1  0
 12 13  1  0
  2 14  1  0
 14 15  2  0
 15 16  1  0
 16 17  2  0
 17 18  1  0
 18 19  2  0
 19 20  1  0
 20 21  2  0
 21 22  1  0
 22 23  2  0
 13  7  1  0
 23 14  1  0
 22 17  1  0
  3 24  1  0
  4 25  1  0
  4 26  1  0
  8 27  1  0
  8 28  1  0
  9 29  1  0
  9 30  1  0
 10 31  1  0
 10 32  1  0
 11 33  1  0
 11 34  1  0
 12 35  1  0
 12 36  1  0
 13 37  1  0
 13 38  1  0
 15 39  1  0
 16 40  1  0
 18 41  1  0
 19 42  1  0
 20 43  1  0
 21 44  1  0
M  END
>  <smiles>  (13) 
O=C(NCC(=O)N1CCCCCC1)c1ccc2ccccc2n1

>  <score_type>  (13) 
oracle

>  <origin>  (13) 
autodockgpu

>  <m_score__min__energy>  (13) 
-5.8099999999999996

>  <m_primary>  (13) 
energy

>  <rmsd>  (13) 
3.590811581141983

>  <m_score__min__rmsd>  (13) 
3.590811581141983

>  <meeko>  (13) 
{"free_energy": -4.5, "intermolecular_energy": -7.19, "internal_energy": -1.3, "cluster_size": 23, "cluster_id": 2, "rank_in_cluster": 20}

>  <energy>  (13) 
-5.19

>  <cluster_rmsd>  (13) 
1.33

>  <cluster>  (13) 
2

$$$$

     RDKit          3D

 44 46  0  0  0  0  0  0  0  0999 V2000
  139.9490   70.0280  222.1970 O   0  0  0  0  0  0  0  0  0  0  0  0
  139.6950   71.2080  222.5550 C   0  0  0  0  0  0  0  0  0  0  0  0
  138.7270   71.4850  223.5610 N   0  0  0  0  0  0  0  0  0  0  0  0
  138.0260   70.4050  224.1810 C   0  0  0  0  0  0  0  0  0  0  0  0
  138.9450   69.3880  224.7270 C   0  0  0  0  0  0  0  0  0  0  0  0
  138.7510   68.1910  224.3850 O   0  0  0  0  0  0  0  0  0  0  0  0
  140.0000   69.7240  225.5950 N   0  0  0  0  0  0  0  0  0  0  0  0
  140.1070   71.1210  225.9030 C   0  0  0  0  0  0  0  0  0  0  0  0
  140.8850   71.4020  227.1580 C   0  0  0  0  0  0  0  0  0  0  0  0
  140.3600   70.6120  228.3410 C   0  0  0  0  0  0  0  0  0  0  0  0
  141.0700   69.2610  228.4380 C   0  0  0  0  0  0  0  0  0  0  0  0
  140.4520   68.2870  227.4600 C   0  0  0  0  0  0  0  0  0  0  0  0
  140.8190   68.6170  226.0510 C   0  0  0  0  0  0  0  0  0  0  0  0
  140.3900   72.3520  221.9460 C   0  0  0  0  0  0  0  0  0  0  0  0
  141.4210   72.1210  221.0500 C   0  0  0  0  0  0  0  0  0  0  0  0
  142.1170   73.1460  220.4410 C   0  0  0  0  0  0  0  0  0  0  0  0
  141.7220   74.4390  220.7790 C   0  0  0  0  0  0  0  0  0  0  0  0
  142.3960   75.5090  220.1890 C   0  0  0  0  0  0  0  0  0  0  0  0
  142.0040   76.7880  220.5260 C   0  0  0  0  0  0  0  0  0  0  0  0
  140.9800   77.0490  221.4160 C   0  0  0  0  0  0  0  0  0  0  0  0
  140.3350   75.9700  221.9800 C   0  0  0  0  0  0  0  0  0  0  0  0
  140.6890   74.6710  221.6780 C   0  0  0  0  0  0  0  0  0  0  0  0
  140.0530   73.6240  222.2340 N   0  0  0  0  0  0  0  0  0  0  0  0
  138.5290   72.4810  223.8460 H   0  0  0  0  0  0  0  0  0  0  0  0
  137.4119   70.8051  225.0012 H   0  0  0  0  0  0  0  0  0  0  0  0
  137.4022   69.9216  223.4147 H   0  0  0  0  0  0  0  0  0  0  0  0
  140.6076   71.6250  225.0632 H   0  0  0  0  0  0  0  0  0  0  0  0
  139.0854   71.4949  226.0659 H   0  0  0  0  0  0  0  0  0  0  0  0
  141.9383   71.1328  226.9906 H   0  0  0  0  0  0  0  0  0  0  0  0
  140.7797   72.4720  227.3905 H   0  0  0  0  0  0  0  0  0  0  0  0
  140.5378   71.1819  229.2649 H   0  0  0  0  0  0  0  0  0  0  0  0
  139.2822   70.4394  228.2045 H   0  0  0  0  0  0  0  0  0  0  0  0
  142.1361   69.3907  228.2001 H   0  0  0  0  0  0  0  0  0  0  0  0
  140.9639   68.8671  229.4595 H   0  0  0  0  0  0  0  0  0  0  0  0
  140.8075   67.2725  227.6934 H   0  0  0  0  0  0  0  0  0  0  0  0
  139.3580   68.3510  227.5550 H   0  0  0  0  0  0  0  0  0  0  0  0
  141.8809   68.9001  226.0034 H   0  0  0  0  0  0  0  0  0  0  0  0
  140.6492   67.7405  225.4084 H   0  0  0  0  0  0  0  0  0  0  0  0
  141.6954   71.0820  220.8150 H   0  0  0  0  0  0  0  0  0  0  0  0
  142.9349   72.9535  219.7310 H   0  0  0  0  0  0  0  0  0  0  0  0
  143.2159   75.3376  219.4760 H   0  0  0  0  0  0  0  0  0  0  0  0
  142.5299   77.6375  220.0658 H   0  0  0  0  0  0  0  0  0  0  0  0
  140.6903   78.0805  221.6652 H   0  0  0  0  0  0  0  0  0  0  0  0
  139.5149   76.1491  222.6909 H   0  0  0  0  0  0  0  0  0  0  0  0
  1  2  2  0
  2  3  1  0
  3  4  1  0
  4  5  1  0
  5  6  2  0
  5  7  1  0
  7  8  1  0
  8  9  1  0
  9 10  1  0
 10 11  1  0
 11 12  1  0
 12 13  1  0
  2 14  1  0
 14 15  2  0
 15 16  1  0
 16 17  2  0
 17 18  1  0
 18 19  2  0
 19 20  1  0
 20 21  2  0
 21 22  1  0
 22 23  2  0
 13  7  1  0
 23 14  1  0
 22 17  1  0
  3 24  1  0
  4 25  1  0
  4 26  1  0
  8 27  1  0
  8 28  1  0
  9 29  1  0
  9 30  1  0
 10 31  1  0
 10 32  1  0
 11 33  1  0
 11 34  1  0
 12 35  1  0
 12 36  1  0
 13 37  1  0
 13 38  1  0
 15 39  1  0
 16 40  1  0
 18 41  1  0
 19 42  1  0
 20 43  1  0
 21 44  1  0
M  END
>  <smiles>  (14) 
O=C(NCC(=O)N1CCCCCC1)c1ccc2ccccc2n1

>  <score_type>  (14) 
oracle

>  <origin>  (14) 
autodockgpu

>  <m_score__min__energy>  (14) 
-5.8099999999999996

>  <m_primary>  (14) 
energy

>  <rmsd>  (14) 
8.091324027699088

>  <m_score__min__rmsd>  (14) 
8.091324027699088

>  <meeko>  (14) 
{"free_energy": -5.49, "intermolecular_energy": -8.18, "internal_energy": -1.15, "cluster_size": 6, "cluster_id": 1, "rank_in_cluster": 2}

>  <energy>  (14) 
-5.13

>  <cluster_rmsd>  (14) 
1.27

>  <cluster>  (14) 
2

$$$$

     RDKit          3D

 44 46  0  0  0  0  0  0  0  0999 V2000
  140.2110   71.1240  221.2700 O   0  0  0  0  0  0  0  0  0  0  0  0
  140.1080   71.8250  222.3110 C   0  0  0  0  0  0  0  0  0  0  0  0
  140.0050   73.2430  222.2420 N   0  0  0  0  0  0  0  0  0  0  0  0
  140.0190   73.8900  220.9680 C   0  0  0  0  0  0  0  0  0  0  0  0
  141.2370   74.7010  220.7710 C   0  0  0  0  0  0  0  0  0  0  0  0
  141.1410   75.9420  220.9670 O   0  0  0  0  0  0  0  0  0  0  0  0
  142.4600   74.1280  220.3820 N   0  0  0  0  0  0  0  0  0  0  0  0
  142.4280   72.7050  220.1920 C   0  0  0  0  0  0  0  0  0  0  0  0
  143.5770   71.9870  220.8410 C   0  0  0  0  0  0  0  0  0  0  0  0
  144.7900   71.9180  219.9340 C   0  0  0  0  0  0  0  0  0  0  0  0
  145.1790   73.3190  219.4570 C   0  0  0  0  0  0  0  0  0  0  0  0
  144.8440   74.3350  220.5280 C   0  0  0  0  0  0  0  0  0  0  0  0
  143.5690   75.0510  220.2270 C   0  0  0  0  0  0  0  0  0  0  0  0
  140.0900   71.2050  223.6440 C   0  0  0  0  0  0  0  0  0  0  0  0
  139.5580   69.9350  223.7950 C   0  0  0  0  0  0  0  0  0  0  0  0
  139.5090   69.2930  225.0160 C   0  0  0  0  0  0  0  0  0  0  0  0
  140.0280   69.9980  226.1000 C   0  0  0  0  0  0  0  0  0  0  0  0
  140.0000   69.3900  227.3550 C   0  0  0  0  0  0  0  0  0  0  0  0
  140.5150   70.0900  228.4280 C   0  0  0  0  0  0  0  0  0  0  0  0
  141.0520   71.3570  228.3070 C   0  0  0  0  0  0  0  0  0  0  0  0
  141.0640   71.9290  227.0540 C   0  0  0  0  0  0  0  0  0  0  0  0
  140.5620   71.2710  225.9500 C   0  0  0  0  0  0  0  0  0  0  0  0
  140.5780   71.8380  224.7290 N   0  0  0  0  0  0  0  0  0  0  0  0
  139.9200   73.8120  223.1270 H   0  0  0  0  0  0  0  0  0  0  0  0
  139.9718   73.1236  220.1803 H   0  0  0  0  0  0  0  0  0  0  0  0
  139.1513   74.5644  220.9207 H   0  0  0  0  0  0  0  0  0  0  0  0
  141.4905   72.3180  220.6179 H   0  0  0  0  0  0  0  0  0  0  0  0
  142.5020   72.5217  219.1099 H   0  0  0  0  0  0  0  0  0  0  0  0
  143.8531   72.5195  221.7631 H   0  0  0  0  0  0  0  0  0  0  0  0
  143.2555   70.9574  221.0567 H   0  0  0  0  0  0  0  0  0  0  0  0
  145.6319   71.4767  220.4875 H   0  0  0  0  0  0  0  0  0  0  0  0
  144.5467   71.2976  219.0589 H   0  0  0  0  0  0  0  0  0  0  0  0
  146.2591   73.3481  219.2507 H   0  0  0  0  0  0  0  0  0  0  0  0
  144.6208   73.5593  218.5401 H   0  0  0  0  0  0  0  0  0  0  0  0
  144.7430   73.8164  221.4928 H   0  0  0  0  0  0  0  0  0  0  0  0
  145.6551   75.0772  220.5638 H   0  0  0  0  0  0  0  0  0  0  0  0
  143.4467   75.8943  220.9226 H   0  0  0  0  0  0  0  0  0  0  0  0
  143.5924   75.4335  219.1959 H   0  0  0  0  0  0  0  0  0  0  0  0
  139.1598   69.4189  222.9090 H   0  0  0  0  0  0  0  0  0  0  0  0
  139.0851   68.2840  225.1267 H   0  0  0  0  0  0  0  0  0  0  0  0
  139.5798   68.3819  227.4861 H   0  0  0  0  0  0  0  0  0  0  0  0
  140.4969   69.6186  229.4217 H   0  0  0  0  0  0  0  0  0  0  0  0
  141.4557   71.8902  229.1803 H   0  0  0  0  0  0  0  0  0  0  0  0
  141.4852   72.9376  226.9302 H   0  0  0  0  0  0  0  0  0  0  0  0
  1  2  2  0
  2  3  1  0
  3  4  1  0
  4  5  1  0
  5  6  2  0
  5  7  1  0
  7  8  1  0
  8  9  1  0
  9 10  1  0
 10 11  1  0
 11 12  1  0
 12 13  1  0
  2 14  1  0
 14 15  2  0
 15 16  1  0
 16 17  2  0
 17 18  1  0
 18 19  2  0
 19 20  1  0
 20 21  2  0
 21 22  1  0
 22 23  2  0
 13  7  1  0
 23 14  1  0
 22 17  1  0
  3 24  1  0
  4 25  1  0
  4 26  1  0
  8 27  1  0
  8 28  1  0
  9 29  1  0
  9 30  1  0
 10 31  1  0
 10 32  1  0
 11 33  1  0
 11 34  1  0
 12 35  1  0
 12 36  1  0
 13 37  1  0
 13 38  1  0
 15 39  1  0
 16 40  1  0
 18 41  1  0
 19 42  1  0
 20 43  1  0
 21 44  1  0
M  END
>  <smiles>  (15) 
O=C(NCC(=O)N1CCCCCC1)c1ccc2ccccc2n1

>  <score_type>  (15) 
oracle

>  <origin>  (15) 
autodockgpu

>  <m_score__min__energy>  (15) 
-5.8099999999999996

>  <m_primary>  (15) 
energy

>  <rmsd>  (15) 
3.3638924426725105

>  <m_score__min__rmsd>  (15) 
3.3638924426725105

>  <meeko>  (15) 
{"free_energy": -5.21, "intermolecular_energy": -7.9, "internal_energy": -1.24, "cluster_size": 23, "cluster_id": 2, "rank_in_cluster": 6}

>  <energy>  (15) 
-5.11

>  <cluster_rmsd>  (15) 
0.37

>  <cluster>  (15) 
2

$$$$

     RDKit          3D

 44 46  0  0  0  0  0  0  0  0999 V2000
  138.4060   72.5420  222.4290 O   0  0  0  0  0  0  0  0  0  0  0  0
  139.5950   72.1510  222.5580 C   0  0  0  0  0  0  0  0  0  0  0  0
  139.9250   71.0390  223.3830 N   0  0  0  0  0  0  0  0  0  0  0  0
  138.8870   70.3490  224.0830 C   0  0  0  0  0  0  0  0  0  0  0  0
  139.4090   69.2090  224.8630 C   0  0  0  0  0  0  0  0  0  0  0  0
  138.8700   68.0860  224.6740 O   0  0  0  0  0  0  0  0  0  0  0  0
  140.4630   69.3540  225.7830 N   0  0  0  0  0  0  0  0  0  0  0  0
  140.9840   70.6860  225.9000 C   0  0  0  0  0  0  0  0  0  0  0  0
  140.3270   71.4950  226.9820 C   0  0  0  0  0  0  0  0  0  0  0  0
  140.4210   70.8170  228.3360 C   0  0  0  0  0  0  0  0  0  0  0  0
  141.4800   69.7140  228.3070 C   0  0  0  0  0  0  0  0  0  0  0  0
  140.8350   68.3930  227.9480 C   0  0  0  0  0  0  0  0  0  0  0  0
  140.8660   68.1450  226.4750 C   0  0  0  0  0  0  0  0  0  0  0  0
  140.6980   72.8290  221.8590 C   0  0  0  0  0  0  0  0  0  0  0  0
  141.8010   72.0940  221.4590 C   0  0  0  0  0  0  0  0  0  0  0  0
  142.8710   72.6640  220.7990 C   0  0  0  0  0  0  0  0  0  0  0  0
  142.7810   74.0330  220.5540 C   0  0  0  0  0  0  0  0  0  0  0  0
  143.8390   74.6540  219.8900 C   0  0  0  0  0  0  0  0  0  0  0  0
  143.7480   76.0100  219.6500 C   0  0  0  0  0  0  0  0  0  0  0  0
  142.6600   76.7680  220.0370 C   0  0  0  0  0  0  0  0  0  0  0  0
  141.6330   76.1240  220.6900 C   0  0  0  0  0  0  0  0  0  0  0  0
  141.6750   74.7710  220.9560 C   0  0  0  0  0  0  0  0  0  0  0  0
  140.6670   74.1490  221.5950 N   0  0  0  0  0  0  0  0  0  0  0  0
  140.9290   70.7280  223.4780 H   0  0  0  0  0  0  0  0  0  0  0  0
  138.3931   71.0525  224.7694 H   0  0  0  0  0  0  0  0  0  0  0  0
  138.1787   69.9557  223.3389 H   0  0  0  0  0  0  0  0  0  0  0  0
  142.0600   70.6207  226.1191 H   0  0  0  0  0  0  0  0  0  0  0  0
  140.7818   71.1967  224.9470 H   0  0  0  0  0  0  0  0  0  0  0  0
  140.8208   72.4761  227.0412 H   0  0  0  0  0  0  0  0  0  0  0  0
  139.2619   71.6000  226.7281 H   0  0  0  0  0  0  0  0  0  0  0  0
  140.6951   71.5628  229.0967 H   0  0  0  0  0  0  0  0  0  0  0  0
  139.4461   70.3696  228.5797 H   0  0  0  0  0  0  0  0  0  0  0  0
  142.2454   69.9623  227.5570 H   0  0  0  0  0  0  0  0  0  0  0  0
  141.9464   69.6323  229.2999 H   0  0  0  0  0  0  0  0  0  0  0  0
  141.3761   67.5820  228.4575 H   0  0  0  0  0  0  0  0  0  0  0  0
  139.7831   68.4269  228.2679 H   0  0  0  0  0  0  0  0  0  0  0  0
  141.8856   67.8678  226.1693 H   0  0  0  0  0  0  0  0  0  0  0  0
  140.1773   67.3254  226.2220 H   0  0  0  0  0  0  0  0  0  0  0  0
  141.8256   71.0157  221.6752 H   0  0  0  0  0  0  0  0  0  0  0  0
  143.7435   72.0724  220.4848 H   0  0  0  0  0  0  0  0  0  0  0  0
  144.7199   74.0798  219.5672 H   0  0  0  0  0  0  0  0  0  0  0  0
  144.5778   76.5088  219.1279 H   0  0  0  0  0  0  0  0  0  0  0  0
  142.6156   77.8476  219.8309 H   0  0  0  0  0  0  0  0  0  0  0  0
  140.7546   76.7045  221.0084 H   0  0  0  0  0  0  0  0  0  0  0  0
  1  2  2  0
  2  3  1  0
  3  4  1  0
  4  5  1  0
  5  6  2  0
  5  7  1  0
  7  8  1  0
  8  9  1  0
  9 10  1  0
 10 11  1  0
 11 12  1  0
 12 13  1  0
  2 14  1  0
 14 15  2  0
 15 16  1  0
 16 17  2  0
 17 18  1  0
 18 19  2  0
 19 20  1  0
 20 21  2  0
 21 22  1  0
 22 23  2  0
 13  7  1  0
 23 14  1  0
 22 17  1  0
  3 24  1  0
  4 25  1  0
  4 26  1  0
  8 27  1  0
  8 28  1  0
  9 29  1  0
  9 30  1  0
 10 31  1  0
 10 32  1  0
 11 33  1  0
 11 34  1  0
 12 35  1  0
 12 36  1  0
 13 37  1  0
 13 38  1  0
 15 39  1  0
 16 40  1  0
 18 41  1  0
 19 42  1  0
 20 43  1  0
 21 44  1  0
M  END
>  <smiles>  (16) 
O=C(NCC(=O)N1CCCCCC1)c1ccc2ccccc2n1

>  <score_type>  (16) 
oracle

>  <origin>  (16) 
autodockgpu

>  <m_score__min__energy>  (16) 
-5.8099999999999996

>  <m_primary>  (16) 
energy

>  <rmsd>  (16) 
8.394701023932223

>  <m_score__min__rmsd>  (16) 
8.394701023932223

>  <meeko>  (16) 
{"free_energy": -5.33, "intermolecular_energy": -8.01, "internal_energy": -0.76, "cluster_size": 6, "cluster_id": 1, "rank_in_cluster": 3}

>  <energy>  (16) 
-5.07

>  <cluster_rmsd>  (16) 
0.48

>  <cluster>  (16) 
2

$$$$

     RDKit          3D

 44 46  0  0  0  0  0  0  0  0999 V2000
  140.3660   71.1180  221.1790 O   0  0  0  0  0  0  0  0  0  0  0  0
  140.1570   71.7970  222.2190 C   0  0  0  0  0  0  0  0  0  0  0  0
  139.9520   73.2040  222.1560 N   0  0  0  0  0  0  0  0  0  0  0  0
  139.9830   73.8660  220.8900 C   0  0  0  0  0  0  0  0  0  0  0  0
  141.1860   74.7070  220.7330 C   0  0  0  0  0  0  0  0  0  0  0  0
  141.0880   75.9200  221.0570 O   0  0  0  0  0  0  0  0  0  0  0  0
  142.4000   74.1910  220.2440 N   0  0  0  0  0  0  0  0  0  0  0  0
  142.3730   72.7940  219.9130 C   0  0  0  0  0  0  0  0  0  0  0  0
  143.3890   71.9800  220.6610 C   0  0  0  0  0  0  0  0  0  0  0  0
  144.7360   71.9720  219.9650 C   0  0  0  0  0  0  0  0  0  0  0  0
  145.0330   73.3470  219.3640 C   0  0  0  0  0  0  0  0  0  0  0  0
  144.7810   74.4240  220.3970 C   0  0  0  0  0  0  0  0  0  0  0  0
  143.4940   75.1380  220.1450 C   0  0  0  0  0  0  0  0  0  0  0  0
  140.1170   71.1620  223.5450 C   0  0  0  0  0  0  0  0  0  0  0  0
  139.5510   69.9050  223.6770 C   0  0  0  0  0  0  0  0  0  0  0  0
  139.4790   69.2490  224.8900 C   0  0  0  0  0  0  0  0  0  0  0  0
  140.0120   69.9270  225.9850 C   0  0  0  0  0  0  0  0  0  0  0  0
  139.9620   69.3050  227.2330 C   0  0  0  0  0  0  0  0  0  0  0  0
  140.4890   69.9790  228.3160 C   0  0  0  0  0  0  0  0  0  0  0  0
  141.0590   71.2320  228.2130 C   0  0  0  0  0  0  0  0  0  0  0  0
  141.0930   71.8190  226.9670 C   0  0  0  0  0  0  0  0  0  0  0  0
  140.5790   71.1880  225.8530 C   0  0  0  0  0  0  0  0  0  0  0  0
  140.6160   71.7680  224.6390 N   0  0  0  0  0  0  0  0  0  0  0  0
  139.7790   73.7550  223.0400 H   0  0  0  0  0  0  0  0  0  0  0  0
  139.9736   73.1080  220.0929 H   0  0  0  0  0  0  0  0  0  0  0  0
  139.1013   74.5208  220.8282 H   0  0  0  0  0  0  0  0  0  0  0  0
  141.3724   72.4006  220.1457 H   0  0  0  0  0  0  0  0  0  0  0  0
  142.6166   72.7108  218.8435 H   0  0  0  0  0  0  0  0  0  0  0  0
  143.5124   72.4048  221.6681 H   0  0  0  0  0  0  0  0  0  0  0  0
  143.0251   70.9430  220.7078 H   0  0  0  0  0  0  0  0  0  0  0  0
  145.5194   71.7181  220.6942 H   0  0  0  0  0  0  0  0  0  0  0  0
  144.7161   71.2258  219.1570 H   0  0  0  0  0  0  0  0  0  0  0  0
  146.0849   73.3864  219.0447 H   0  0  0  0  0  0  0  0  0  0  0  0
  144.3759   73.5141  218.4978 H   0  0  0  0  0  0  0  0  0  0  0  0
  144.7426   73.9604  221.3938 H   0  0  0  0  0  0  0  0  0  0  0  0
  145.5986   75.1573  220.3356 H   0  0  0  0  0  0  0  0  0  0  0  0
  143.3614   75.9338  220.8928 H   0  0  0  0  0  0  0  0  0  0  0  0
  143.5082   75.5849  219.1400 H   0  0  0  0  0  0  0  0  0  0  0  0
  139.1437   69.4109  222.7826 H   0  0  0  0  0  0  0  0  0  0  0  0
  139.0277   68.2505  224.9864 H   0  0  0  0  0  0  0  0  0  0  0  0
  139.5156   68.3065  227.3503 H   0  0  0  0  0  0  0  0  0  0  0  0
  140.4532   69.4968  229.3040 H   0  0  0  0  0  0  0  0  0  0  0  0
  141.4716   71.7439  229.0949 H   0  0  0  0  0  0  0  0  0  0  0  0
  141.5419   72.8173  226.8575 H   0  0  0  0  0  0  0  0  0  0  0  0
  1  2  2  0
  2  3  1  0
  3  4  1  0
  4  5  1  0
  5  6  2  0
  5  7  1  0
  7  8  1  0
  8  9  1  0
  9 10  1  0
 10 11  1  0
 11 12  1  0
 12 13  1  0
  2 14  1  0
 14 15  2  0
 15 16  1  0
 16 17  2  0
 17 18  1  0
 18 19  2  0
 19 20  1  0
 20 21  2  0
 21 22  1  0
 22 23  2  0
 13  7  1  0
 23 14  1  0
 22 17  1  0
  3 24  1  0
  4 25  1  0
  4 26  1  0
  8 27  1  0
  8 28  1  0
  9 29  1  0
  9 30  1  0
 10 31  1  0
 10 32  1  0
 11 33  1  0
 11 34  1  0
 12 35  1  0
 12 36  1  0
 13 37  1  0
 13 38  1  0
 15 39  1  0
 16 40  1  0
 18 41  1  0
 19 42  1  0
 20 43  1  0
 21 44  1  0
M  END
>  <smiles>  (17) 
O=C(NCC(=O)N1CCCCCC1)c1ccc2ccccc2n1

>  <score_type>  (17) 
oracle

>  <origin>  (17) 
autodockgpu

>  <m_score__min__energy>  (17) 
-5.8099999999999996

>  <m_primary>  (17) 
energy

>  <rmsd>  (17) 
3.280801239064353

>  <m_score__min__rmsd>  (17) 
3.280801239064353

>  <meeko>  (17) 
{"free_energy": -5.35, "intermolecular_energy": -8.03, "internal_energy": -1.25, "cluster_size": 23, "cluster_id": 2, "rank_in_cluster": 2}

>  <energy>  (17) 
-5.07

>  <cluster_rmsd>  (17) 
0.38

>  <cluster>  (17) 
2

$$$$

     RDKit          3D

 44 46  0  0  0  0  0  0  0  0999 V2000
  140.0520   70.6210  221.3550 O   0  0  0  0  0  0  0  0  0  0  0  0
  139.9030   71.2130  222.4560 C   0  0  0  0  0  0  0  0  0  0  0  0
  139.7420   72.6260  222.5220 N   0  0  0  0  0  0  0  0  0  0  0  0
  139.7510   73.3930  221.3160 C   0  0  0  0  0  0  0  0  0  0  0  0
  140.9260   74.2830  221.2340 C   0  0  0  0  0  0  0  0  0  0  0  0
  140.8870   75.3520  221.9010 O   0  0  0  0  0  0  0  0  0  0  0  0
  142.0490   73.9670  220.4500 N   0  0  0  0  0  0  0  0  0  0  0  0
  141.9610   72.7220  219.7420 C   0  0  0  0  0  0  0  0  0  0  0  0
  142.8010   71.6300  220.3400 C   0  0  0  0  0  0  0  0  0  0  0  0
  144.2770   71.8260  220.0530 C   0  0  0  0  0  0  0  0  0  0  0  0
  144.7850   73.1050  220.7220 C   0  0  0  0  0  0  0  0  0  0  0  0
  144.3590   74.3110  219.9090 C   0  0  0  0  0  0  0  0  0  0  0  0
  143.1260   74.9390  220.4680 C   0  0  0  0  0  0  0  0  0  0  0  0
  139.8880   70.4670  223.7240 C   0  0  0  0  0  0  0  0  0  0  0  0
  139.2420   69.2430  223.7820 C   0  0  0  0  0  0  0  0  0  0  0  0
  139.1880   68.4890  224.9370 C   0  0  0  0  0  0  0  0  0  0  0  0
  139.8240   69.0310  226.0530 C   0  0  0  0  0  0  0  0  0  0  0  0
  139.7960   68.3050  227.2440 C   0  0  0  0  0  0  0  0  0  0  0  0
  140.4260   68.8450  228.3470 C   0  0  0  0  0  0  0  0  0  0  0  0
  141.0770   70.0620  228.3180 C   0  0  0  0  0  0  0  0  0  0  0  0
  141.0860   70.7530  227.1260 C   0  0  0  0  0  0  0  0  0  0  0  0
  140.4710   70.2580  225.9940 C   0  0  0  0  0  0  0  0  0  0  0  0
  140.4850   70.9400  224.8340 N   0  0  0  0  0  0  0  0  0  0  0  0
  139.6180   73.1030  223.4550 H   0  0  0  0  0  0  0  0  0  0  0  0
  139.7664   72.7049  220.4579 H   0  0  0  0  0  0  0  0  0  0  0  0
  138.8482   74.0214  221.3068 H   0  0  0  0  0  0  0  0  0  0  0  0
  140.9110   72.3940  219.7443 H   0  0  0  0  0  0  0  0  0  0  0  0
  142.3408   72.9013  218.7254 H   0  0  0  0  0  0  0  0  0  0  0  0
  142.6492   71.6216  221.4294 H   0  0  0  0  0  0  0  0  0  0  0  0
  142.4908   70.6766  219.8873 H   0  0  0  0  0  0  0  0  0  0  0  0
  144.8396   70.9649  220.4429 H   0  0  0  0  0  0  0  0  0  0  0  0
  144.4210   71.9105  218.9657 H   0  0  0  0  0  0  0  0  0  0  0  0
  144.3635   73.1798  221.7353 H   0  0  0  0  0  0  0  0  0  0  0  0
  145.8831   73.0743  220.7798 H   0  0  0  0  0  0  0  0  0  0  0  0
  145.1720   75.0519  219.9155 H   0  0  0  0  0  0  0  0  0  0  0  0
  144.1420   73.9771  218.8836 H   0  0  0  0  0  0  0  0  0  0  0  0
  143.3136   75.2620  221.5026 H   0  0  0  0  0  0  0  0  0  0  0  0
  142.8471   75.8130  219.8611 H   0  0  0  0  0  0  0  0  0  0  0  0
  138.7542   68.8578  222.8744 H   0  0  0  0  0  0  0  0  0  0  0  0
  138.6734   67.5175  224.9747 H   0  0  0  0  0  0  0  0  0  0  0  0
  139.2872   67.3315  227.3023 H   0  0  0  0  0  0  0  0  0  0  0  0
  140.4086   68.2806  229.2910 H   0  0  0  0  0  0  0  0  0  0  0  0
  141.5708   70.4655  229.2143 H   0  0  0  0  0  0  0  0  0  0  0  0
  141.5973   71.7256  227.0752 H   0  0  0  0  0  0  0  0  0  0  0  0
  1  2  2  0
  2  3  1  0
  3  4  1  0
  4  5  1  0
  5  6  2  0
  5  7  1  0
  7  8  1  0
  8  9  1  0
  9 10  1  0
 10 11  1  0
 11 12  1  0
 12 13  1  0
  2 14  1  0
 14 15  2  0
 15 16  1  0
 16 17  2  0
 17 18  1  0
 18 19  2  0
 19 20  1  0
 20 21  2  0
 21 22  1  0
 22 23  2  0
 13  7  1  0
 23 14  1  0
 22 17  1  0
  3 24  1  0
  4 25  1  0
  4 26  1  0
  8 27  1  0
  8 28  1  0
  9 29  1  0
  9 30  1  0
 10 31  1  0
 10 32  1  0
 11 33  1  0
 11 34  1  0
 12 35  1  0
 12 36  1  0
 13 37  1  0
 13 38  1  0
 15 39  1  0
 16 40  1  0
 18 41  1  0
 19 42  1  0
 20 43  1  0
 21 44  1  0
M  END
>  <smiles>  (18) 
O=C(NCC(=O)N1CCCCCC1)c1ccc2ccccc2n1

>  <score_type>  (18) 
oracle

>  <origin>  (18) 
autodockgpu

>  <m_score__min__energy>  (18) 
-5.8099999999999996

>  <m_primary>  (18) 
energy

>  <rmsd>  (18) 
3.1620562609197975

>  <m_score__min__rmsd>  (18) 
3.1620562609197975

>  <meeko>  (18) 
{"free_energy": -5.07, "intermolecular_energy": -7.75, "internal_energy": -1.29, "cluster_size": 23, "cluster_id": 2, "rank_in_cluster": 11}

>  <energy>  (18) 
-5.02

>  <cluster_rmsd>  (18) 
0.51

>  <cluster>  (18) 
2

$$$$

     RDKit          3D

 44 46  0  0  0  0  0  0  0  0999 V2000
  139.5970   73.3790  222.6000 O   0  0  0  0  0  0  0  0  0  0  0  0
  140.3370   72.4190  222.2610 C   0  0  0  0  0  0  0  0  0  0  0  0
  140.0800   71.0920  222.7090 N   0  0  0  0  0  0  0  0  0  0  0  0
  138.9600   70.8400  223.5610 C   0  0  0  0  0  0  0  0  0  0  0  0
  139.1240   69.5940  224.3360 C   0  0  0  0  0  0  0  0  0  0  0  0
  138.3670   68.6300  224.0440 O   0  0  0  0  0  0  0  0  0  0  0  0
  140.0790   69.4720  225.3600 N   0  0  0  0  0  0  0  0  0  0  0  0
  140.8740   70.6450  225.5890 C   0  0  0  0  0  0  0  0  0  0  0  0
  140.3560   71.5150  226.6990 C   0  0  0  0  0  0  0  0  0  0  0  0
  140.4320   70.8220  228.0460 C   0  0  0  0  0  0  0  0  0  0  0  0
  141.1320   69.4690  227.9110 C   0  0  0  0  0  0  0  0  0  0  0  0
  140.1280   68.4110  227.5100 C   0  0  0  0  0  0  0  0  0  0  0  0
  140.1220   68.1880  226.0330 C   0  0  0  0  0  0  0  0  0  0  0  0
  141.5010   72.6280  221.3870 C   0  0  0  0  0  0  0  0  0  0  0  0
  141.7880   73.9050  220.9350 C   0  0  0  0  0  0  0  0  0  0  0  0
  142.8640   74.1750  220.1120 C   0  0  0  0  0  0  0  0  0  0  0  0
  143.6520   73.0820  219.7570 C   0  0  0  0  0  0  0  0  0  0  0  0
  144.7510   73.3050  218.9260 C   0  0  0  0  0  0  0  0  0  0  0  0
  145.5290   72.2210  218.5750 C   0  0  0  0  0  0  0  0  0  0  0  0
  145.2670   70.9370  219.0100 C   0  0  0  0  0  0  0  0  0  0  0  0
  144.1750   70.7510  219.8290 C   0  0  0  0  0  0  0  0  0  0  0  0
  143.3640   71.8010  220.2090 C   0  0  0  0  0  0  0  0  0  0  0  0
  142.2990   71.6100  221.0100 N   0  0  0  0  0  0  0  0  0  0  0  0
  140.7120   70.3010  222.4130 H   0  0  0  0  0  0  0  0  0  0  0  0
  138.8496   71.6815  224.2607 H   0  0  0  0  0  0  0  0  0  0  0  0
  138.0682   70.7306  222.9265 H   0  0  0  0  0  0  0  0  0  0  0  0
  141.8962   70.3282  225.8436 H   0  0  0  0  0  0  0  0  0  0  0  0
  140.8392   71.2436  224.6668 H   0  0  0  0  0  0  0  0  0  0  0  0
  140.9569   72.4355  226.7387 H   0  0  0  0  0  0  0  0  0  0  0  0
  139.2993   71.7386  226.4908 H   0  0  0  0  0  0  0  0  0  0  0  0
  140.9968   71.4539  228.7473 H   0  0  0  0  0  0  0  0  0  0  0  0
  139.4110   70.6595  228.4217 H   0  0  0  0  0  0  0  0  0  0  0  0
  141.9161   69.5384  227.1426 H   0  0  0  0  0  0  0  0  0  0  0  0
  141.5827   69.1951  228.8763 H   0  0  0  0  0  0  0  0  0  0  0  0
  140.3851   67.4667  228.0122 H   0  0  0  0  0  0  0  0  0  0  0  0
  139.1274   68.7563  227.8092 H   0  0  0  0  0  0  0  0  0  0  0  0
  141.0338   67.6478  225.7382 H   0  0  0  0  0  0  0  0  0  0  0  0
  139.2413   67.5921  225.7515 H   0  0  0  0  0  0  0  0  0  0  0  0
  141.1350   74.7350  221.2427 H   0  0  0  0  0  0  0  0  0  0  0  0
  143.0857   75.1926  219.7578 H   0  0  0  0  0  0  0  0  0  0  0  0
  144.9898   74.3151  218.5617 H   0  0  0  0  0  0  0  0  0  0  0  0
  146.3966   72.3870  217.9195 H   0  0  0  0  0  0  0  0  0  0  0  0
  145.9071   70.0931  218.7133 H   0  0  0  0  0  0  0  0  0  0  0  0
  143.9432   69.7381  220.1899 H   0  0  0  0  0  0  0  0  0  0  0  0
  1  2  2  0
  2  3  1  0
  3  4  1  0
  4  5  1  0
  5  6  2  0
  5  7  1  0
  7  8  1  0
  8  9  1  0
  9 10  1  0
 10 11  1  0
 11 12  1  0
 12 13  1  0
  2 14  1  0
 14 15  2  0
 15 16  1  0
 16 17  2  0
 17 18  1  0
 18 19  2  0
 19 20  1  0
 20 21  2  0
 21 22  1  0
 22 23  2  0
 13  7  1  0
 23 14  1  0
 22 17  1  0
  3 24  1  0
  4 25  1  0
  4 26  1  0
  8 27  1  0
  8 28  1  0
  9 29  1  0
  9 30  1  0
 10 31  1  0
 10 32  1  0
 11 33  1  0
 11 34  1  0
 12 35  1  0
 12 36  1  0
 13 37  1  0
 13 38  1  0
 15 39  1  0
 16 40  1  0
 18 41  1  0
 19 42  1  0
 20 43  1  0
 21 44  1  0
M  END
>  <smiles>  (19) 
O=C(NCC(=O)N1CCCCCC1)c1ccc2ccccc2n1

>  <score_type>  (19) 
oracle

>  <origin>  (19) 
autodockgpu

>  <m_score__min__energy>  (19) 
-5.8099999999999996

>  <m_primary>  (19) 
energy

>  <rmsd>  (19) 
8.422484286031153

>  <m_score__min__rmsd>  (19) 
8.422484286031153

>  <meeko>  (19) 
{"free_energy": -4.86, "intermolecular_energy": -7.54, "internal_energy": -1.26, "cluster_size": 1, "cluster_id": 5, "rank_in_cluster": 1}

>  <energy>  (19) 
-4.91

>  <cluster_rmsd>  (19) 
0.66

>  <cluster>  (19) 
2

$$$$

     RDKit          3D

 44 46  0  0  0  0  0  0  0  0999 V2000
  139.2470   70.5890  221.5590 O   0  0  0  0  0  0  0  0  0  0  0  0
  139.4990   71.1850  222.6390 C   0  0  0  0  0  0  0  0  0  0  0  0
  139.6750   72.5960  222.6830 N   0  0  0  0  0  0  0  0  0  0  0  0
  139.5660   73.3580  221.4780 C   0  0  0  0  0  0  0  0  0  0  0  0
  140.6580   74.3430  221.3450 C   0  0  0  0  0  0  0  0  0  0  0  0
  140.6250   75.3460  222.1070 O   0  0  0  0  0  0  0  0  0  0  0  0
  141.6980   74.1830  220.4130 N   0  0  0  0  0  0  0  0  0  0  0  0
  141.6130   72.9980  219.6090 C   0  0  0  0  0  0  0  0  0  0  0  0
  142.9470   72.3710  219.3180 C   0  0  0  0  0  0  0  0  0  0  0  0
  143.8170   72.2860  220.5580 C   0  0  0  0  0  0  0  0  0  0  0  0
  144.5450   73.6110  220.7890 C   0  0  0  0  0  0  0  0  0  0  0  0
  143.9810   74.6780  219.8730 C   0  0  0  0  0  0  0  0  0  0  0  0
  142.6990   75.2340  220.3980 C   0  0  0  0  0  0  0  0  0  0  0  0
  139.6210   70.4440  223.9040 C   0  0  0  0  0  0  0  0  0  0  0  0
  139.1490   69.1440  223.9770 C   0  0  0  0  0  0  0  0  0  0  0  0
  139.2300   68.3910  225.1310 C   0  0  0  0  0  0  0  0  0  0  0  0
  139.8190   69.0140  226.2300 C   0  0  0  0  0  0  0  0  0  0  0  0
  139.9240   68.2930  227.4190 C   0  0  0  0  0  0  0  0  0  0  0  0
  140.5060   68.9130  228.5050 C   0  0  0  0  0  0  0  0  0  0  0  0
  140.9860   70.2070  228.4610 C   0  0  0  0  0  0  0  0  0  0  0  0
  140.8670   70.8920  227.2720 C   0  0  0  0  0  0  0  0  0  0  0  0
  140.2920   70.3180  226.1570 C   0  0  0  0  0  0  0  0  0  0  0  0
  140.1800   70.9950  224.9980 N   0  0  0  0  0  0  0  0  0  0  0  0
  139.8860   73.0760  223.5990 H   0  0  0  0  0  0  0  0  0  0  0  0
  139.6007   72.6713  220.6194 H   0  0  0  0  0  0  0  0  0  0  0  0
  138.6142   73.9085  221.5094 H   0  0  0  0  0  0  0  0  0  0  0  0
  140.9912   72.2618  220.1394 H   0  0  0  0  0  0  0  0  0  0  0  0
  141.1785   73.2944  218.6429 H   0  0  0  0  0  0  0  0  0  0  0  0
  142.7847   71.3555  218.9276 H   0  0  0  0  0  0  0  0  0  0  0  0
  143.4658   73.0019  218.5812 H   0  0  0  0  0  0  0  0  0  0  0  0
  143.1847   72.0628  221.4300 H   0  0  0  0  0  0  0  0  0  0  0  0
  144.5619   71.4888  220.4179 H   0  0  0  0  0  0  0  0  0  0  0  0
  144.4123   73.9220  221.8357 H   0  0  0  0  0  0  0  0  0  0  0  0
  145.6152   73.4778  220.5725 H   0  0  0  0  0  0  0  0  0  0  0  0
  144.7132   75.4940  219.7828 H   0  0  0  0  0  0  0  0  0  0  0  0
  143.7805   74.2187  218.8938 H   0  0  0  0  0  0  0  0  0  0  0  0
  142.8521   75.6119  221.4196 H   0  0  0  0  0  0  0  0  0  0  0  0
  142.3611   76.0594  219.7541 H   0  0  0  0  0  0  0  0  0  0  0  0
  138.6928   68.6950  223.0824 H   0  0  0  0  0  0  0  0  0  0  0  0
  138.8517   67.3593  225.1805 H   0  0  0  0  0  0  0  0  0  0  0  0
  139.5534   67.2597  227.4888 H   0  0  0  0  0  0  0  0  0  0  0  0
  140.5915   68.3521  229.4474 H   0  0  0  0  0  0  0  0  0  0  0  0
  141.4469   70.6740  229.3439 H   0  0  0  0  0  0  0  0  0  0  0  0
  141.2406   71.9247  227.2098 H   0  0  0  0  0  0  0  0  0  0  0  0
  1  2  2  0
  2  3  1  0
  3  4  1  0
  4  5  1  0
  5  6  2  0
  5  7  1  0
  7  8  1  0
  8  9  1  0
  9 10  1  0
 10 11  1  0
 11 12  1  0
 12 13  1  0
  2 14  1  0
 14 15  2  0
 15 16  1  0
 16 17  2  0
 17 18  1  0
 18 19  2  0
 19 20  1  0
 20 21  2  0
 21 22  1  0
 22 23  2  0
 13  7  1  0
 23 14  1  0
 22 17  1  0
  3 24  1  0
  4 25  1  0
  4 26  1  0
  8 27  1  0
  8 28  1  0
  9 29  1  0
  9 30  1  0
 10 31  1  0
 10 32  1  0
 11 33  1  0
 11 34  1  0
 12 35  1  0
 12 36  1  0
 13 37  1  0
 13 38  1  0
 15 39  1  0
 16 40  1  0
 18 41  1  0
 19 42  1  0
 20 43  1  0
 21 44  1  0
M  END
>  <smiles>  (20) 
O=C(NCC(=O)N1CCCCCC1)c1ccc2ccccc2n1

>  <score_type>  (20) 
oracle

>  <origin>  (20) 
autodockgpu

>  <m_score__min__energy>  (20) 
-5.8099999999999996

>  <m_primary>  (20) 
energy

>  <rmsd>  (20) 
2.840880403489095

>  <m_score__min__rmsd>  (20) 
2.840880403489095

>  <meeko>  (20) 
{"free_energy": -5.02, "intermolecular_energy": -7.7, "internal_energy": -1.36, "cluster_size": 23, "cluster_id": 2, "rank_in_cluster": 12}

>  <energy>  (20) 
-4.91

>  <cluster_rmsd>  (20) 
0.55

>  <cluster>  (20) 
2

$$$$

     RDKit          3D

 44 46  0  0  0  0  0  0  0  0999 V2000
  139.9600   73.7320  222.6540 O   0  0  0  0  0  0  0  0  0  0  0  0
  140.1430   72.4990  222.4800 C   0  0  0  0  0  0  0  0  0  0  0  0
  140.3840   71.9610  221.1850 N   0  0  0  0  0  0  0  0  0  0  0  0
  140.4200   72.8340  220.0540 C   0  0  0  0  0  0  0  0  0  0  0  0
  141.4860   73.8470  220.1700 C   0  0  0  0  0  0  0  0  0  0  0  0
  141.1390   75.0170  220.4830 O   0  0  0  0  0  0  0  0  0  0  0  0
  142.8390   73.5370  219.9440 N   0  0  0  0  0  0  0  0  0  0  0  0
  143.0950   72.1690  219.5940 C   0  0  0  0  0  0  0  0  0  0  0  0
  144.2470   71.5630  220.3440 C   0  0  0  0  0  0  0  0  0  0  0  0
  145.5730   71.8180  219.6550 C   0  0  0  0  0  0  0  0  0  0  0  0
  145.7720   73.3170  219.4210 C   0  0  0  0  0  0  0  0  0  0  0  0
  145.0960   74.0990  220.5270 C   0  0  0  0  0  0  0  0  0  0  0  0
  143.7730   74.6380  220.0940 C   0  0  0  0  0  0  0  0  0  0  0  0
  140.1150   71.5600  223.6120 C   0  0  0  0  0  0  0  0  0  0  0  0
  139.5700   70.2990  223.4340 C   0  0  0  0  0  0  0  0  0  0  0  0
  139.5100   69.3680  224.4520 C   0  0  0  0  0  0  0  0  0  0  0  0
  140.0340   69.7680  225.6800 C   0  0  0  0  0  0  0  0  0  0  0  0
  139.9970   68.8610  226.7380 C   0  0  0  0  0  0  0  0  0  0  0  0
  140.5150   69.2590  227.9540 C   0  0  0  0  0  0  0  0  0  0  0  0
  141.0650   70.5090  228.1600 C   0  0  0  0  0  0  0  0  0  0  0  0
  141.0870   71.3810  227.0940 C   0  0  0  0  0  0  0  0  0  0  0  0
  140.5810   71.0320  225.8580 C   0  0  0  0  0  0  0  0  0  0  0  0
  140.6060   71.8900  224.8220 N   0  0  0  0  0  0  0  0  0  0  0  0
  140.5350   70.9230  221.0610 H   0  0  0  0  0  0  0  0  0  0  0  0
  140.5968   72.2348  219.1486 H   0  0  0  0  0  0  0  0  0  0  0  0
  139.4558   73.3608  220.0013 H   0  0  0  0  0  0  0  0  0  0  0  0
  142.1913   71.5798  219.8090 H   0  0  0  0  0  0  0  0  0  0  0  0
  143.3601   72.1528  218.5265 H   0  0  0  0  0  0  0  0  0  0  0  0
  144.2820   71.9992  221.3532 H   0  0  0  0  0  0  0  0  0  0  0  0
  144.0900   70.4750  220.3847 H   0  0  0  0  0  0  0  0  0  0  0  0
  146.3891   71.4382  220.2873 H   0  0  0  0  0  0  0  0  0  0  0  0
  145.5761   71.3014  218.6839 H   0  0  0  0  0  0  0  0  0  0  0  0
  146.8477   73.5468  219.4153 H   0  0  0  0  0  0  0  0  0  0  0  0
  145.3299   73.5970  218.4535 H   0  0  0  0  0  0  0  0  0  0  0  0
  144.9449   73.4357  221.3914 H   0  0  0  0  0  0  0  0  0  0  0  0
  145.7427   74.9490  220.7902 H   0  0  0  0  0  0  0  0  0  0  0  0
  143.3956   75.3409  220.8513 H   0  0  0  0  0  0  0  0  0  0  0  0
  143.8829   75.1648  219.1346 H   0  0  0  0  0  0  0  0  0  0  0  0
  139.1703   70.0294  222.4453 H   0  0  0  0  0  0  0  0  0  0  0  0
  139.0742   68.3691  224.3025 H   0  0  0  0  0  0  0  0  0  0  0  0
  139.5673   67.8568  226.6076 H   0  0  0  0  0  0  0  0  0  0  0  0
  140.4886   68.5503  228.7949 H   0  0  0  0  0  0  0  0  0  0  0  0
  141.4711   70.7980  229.1406 H   0  0  0  0  0  0  0  0  0  0  0  0
  141.5197   72.3830  227.2314 H   0  0  0  0  0  0  0  0  0  0  0  0
  1  2  2  0
  2  3  1  0
  3  4  1  0
  4  5  1  0
  5  6  2  0
  5  7  1  0
  7  8  1  0
  8  9  1  0
  9 10  1  0
 10 11  1  0
 11 12  1  0
 12 13  1  0
  2 14  1  0
 14 15  2  0
 15 16  1  0
 16 17  2  0
 17 18  1  0
 18 19  2  0
 19 20  1  0
 20 21  2  0
 21 22  1  0
 22 23  2  0
 13  7  1  0
 23 14  1  0
 22 17  1  0
  3 24  1  0
  4 25  1  0
  4 26  1  0
  8 27  1  0
  8 28  1  0
  9 29  1  0
  9 30  1  0
 10 31  1  0
 10 32  1  0
 11 33  1  0
 11 34  1  0
 12 35  1  0
 12 36  1  0
 13 37  1  0
 13 38  1  0
 15 39  1  0
 16 40  1  0
 18 41  1  0
 19 42  1  0
 20 43  1  0
 21 44  1  0
M  END
>  <smiles>  (21) 
O=C(NCC(=O)N1CCCCCC1)c1ccc2ccccc2n1

>  <score_type>  (21) 
oracle

>  <origin>  (21) 
autodockgpu

>  <m_score__min__energy>  (21) 
-5.8099999999999996

>  <m_primary>  (21) 
energy

>  <rmsd>  (21) 
3.678494403858677

>  <m_score__min__rmsd>  (21) 
3.678494403858677

>  <meeko>  (21) 
{"free_energy": -5.24, "intermolecular_energy": -7.92, "internal_energy": -0.94, "cluster_size": 23, "cluster_id": 2, "rank_in_cluster": 5}

>  <energy>  (21) 
-4.86

>  <cluster_rmsd>  (21) 
0.83

>  <cluster>  (21) 
2

$$$$

     RDKit          3D

 44 46  0  0  0  0  0  0  0  0999 V2000
  141.4480   72.7730  221.6220 O   0  0  0  0  0  0  0  0  0  0  0  0
  140.4360   72.7450  222.3700 C   0  0  0  0  0  0  0  0  0  0  0  0
  139.4790   73.7990  222.3620 N   0  0  0  0  0  0  0  0  0  0  0  0
  139.6670   74.9150  221.4890 C   0  0  0  0  0  0  0  0  0  0  0  0
  139.0200   76.1370  222.0060 C   0  0  0  0  0  0  0  0  0  0  0  0
  137.7810   76.0830  222.2300 O   0  0  0  0  0  0  0  0  0  0  0  0
  139.7420   77.3210  222.2430 N   0  0  0  0  0  0  0  0  0  0  0  0
  141.1430   77.2440  221.9440 C   0  0  0  0  0  0  0  0  0  0  0  0
  141.7550   78.5690  221.5880 C   0  0  0  0  0  0  0  0  0  0  0  0
  141.8290   79.5000  222.7820 C   0  0  0  0  0  0  0  0  0  0  0  0
  140.5600   80.3500  222.8760 C   0  0  0  0  0  0  0  0  0  0  0  0
  139.4420   79.6950  222.0930 C   0  0  0  0  0  0  0  0  0  0  0  0
  138.9700   78.4390  222.7500 C   0  0  0  0  0  0  0  0  0  0  0  0
  140.1990   71.6190  223.2870 C   0  0  0  0  0  0  0  0  0  0  0  0
  139.4810   70.5220  222.8410 C   0  0  0  0  0  0  0  0  0  0  0  0
  139.2210   69.4300  223.6460 C   0  0  0  0  0  0  0  0  0  0  0  0
  139.7260   69.4920  224.9430 C   0  0  0  0  0  0  0  0  0  0  0  0
  139.4880   68.4120  225.7940 C   0  0  0  0  0  0  0  0  0  0  0  0
  139.9890   68.4760  227.0790 C   0  0  0  0  0  0  0  0  0  0  0  0
  140.7080   69.5570  227.5500 C   0  0  0  0  0  0  0  0  0  0  0  0
  140.9250   70.6060  226.6840 C   0  0  0  0  0  0  0  0  0  0  0  0
  140.4460   70.5920  225.3900 C   0  0  0  0  0  0  0  0  0  0  0  0
  140.6620   71.6220  224.5510 N   0  0  0  0  0  0  0  0  0  0  0  0
  138.6370   73.7560  222.9980 H   0  0  0  0  0  0  0  0  0  0  0  0
  140.7453   75.1030  221.3802 H   0  0  0  0  0  0  0  0  0  0  0  0
  139.2060   74.6702  220.5207 H   0  0  0  0  0  0  0  0  0  0  0  0
  141.6655   76.8452  222.8260 H   0  0  0  0  0  0  0  0  0  0  0  0
  141.2501   76.5921  221.0645 H   0  0  0  0  0  0  0  0  0  0  0  0
  142.7727   78.3990  221.2067 H   0  0  0  0  0  0  0  0  0  0  0  0
  141.1186   79.0434  220.8265 H   0  0  0  0  0  0  0  0  0  0  0  0
  141.9346   78.9038  223.7003 H   0  0  0  0  0  0  0  0  0  0  0  0
  142.6961   80.1660  222.6616 H   0  0  0  0  0  0  0  0  0  0  0  0
  140.2608   80.4433  223.9304 H   0  0  0  0  0  0  0  0  0  0  0  0
  140.7600   81.3471  222.4566 H   0  0  0  0  0  0  0  0  0  0  0  0
  138.5988   80.3976  222.0197 H   0  0  0  0  0  0  0  0  0  0  0  0
  139.8273   79.4366  221.0956 H   0  0  0  0  0  0  0  0  0  0  0  0
  139.1073   78.5183  223.8385 H   0  0  0  0  0  0  0  0  0  0  0  0
  137.9034   78.2835  222.5306 H   0  0  0  0  0  0  0  0  0  0  0  0
  139.1039   70.5202  221.8077 H   0  0  0  0  0  0  0  0  0  0  0  0
  138.6490   68.5627  223.2844 H   0  0  0  0  0  0  0  0  0  0  0  0
  138.9182   67.5357  225.4513 H   0  0  0  0  0  0  0  0  0  0  0  0
  139.8076   67.6291  227.7571 H   0  0  0  0  0  0  0  0  0  0  0  0
  141.0936   69.5795  228.5800 H   0  0  0  0  0  0  0  0  0  0  0  0
  141.4959   71.4789  227.0336 H   0  0  0  0  0  0  0  0  0  0  0  0
  1  2  2  0
  2  3  1  0
  3  4  1  0
  4  5  1  0
  5  6  2  0
  5  7  1  0
  7  8  1  0
  8  9  1  0
  9 10  1  0
 10 11  1  0
 11 12  1  0
 12 13  1  0
  2 14  1  0
 14 15  2  0
 15 16  1  0
 16 17  2  0
 17 18  1  0
 18 19  2  0
 19 20  1  0
 20 21  2  0
 21 22  1  0
 22 23  2  0
 13  7  1  0
 23 14  1  0
 22 17  1  0
  3 24  1  0
  4 25  1  0
  4 26  1  0
  8 27  1  0
  8 28  1  0
  9 29  1  0
  9 30  1  0
 10 31  1  0
 10 32  1  0
 11 33  1  0
 11 34  1  0
 12 35  1  0
 12 36  1  0
 13 37  1  0
 13 38  1  0
 15 39  1  0
 16 40  1  0
 18 41  1  0
 19 42  1  0
 20 43  1  0
 21 44  1  0
M  END
>  <smiles>  (22) 
O=C(NCC(=O)N1CCCCCC1)c1ccc2ccccc2n1

>  <score_type>  (22) 
oracle

>  <origin>  (22) 
autodockgpu

>  <m_score__min__energy>  (22) 
-5.8099999999999996

>  <m_primary>  (22) 
energy

>  <rmsd>  (22) 
3.2626296405249144

>  <m_score__min__rmsd>  (22) 
3.2626296405249144

>  <meeko>  (22) 
{"free_energy": -5.17, "intermolecular_energy": -7.86, "internal_energy": -0.99, "cluster_size": 7, "cluster_id": 4, "rank_in_cluster": 2}

>  <energy>  (22) 
-4.82

>  <cluster_rmsd>  (22) 
0.48

>  <cluster>  (22) 
2

$$$$

     RDKit          3D

 44 46  0  0  0  0  0  0  0  0999 V2000
  139.7860   70.9730  221.3470 O   0  0  0  0  0  0  0  0  0  0  0  0
  139.7840   71.5780  222.4520 C   0  0  0  0  0  0  0  0  0  0  0  0
  139.7190   72.9980  222.5190 N   0  0  0  0  0  0  0  0  0  0  0  0
  139.6550   73.7590  221.3100 C   0  0  0  0  0  0  0  0  0  0  0  0
  140.8530   74.6000  221.1210 C   0  0  0  0  0  0  0  0  0  0  0  0
  140.8790   75.7090  221.7190 O   0  0  0  0  0  0  0  0  0  0  0  0
  141.9280   74.1970  220.3100 N   0  0  0  0  0  0  0  0  0  0  0  0
  141.7680   72.9130  219.6880 C   0  0  0  0  0  0  0  0  0  0  0  0
  142.4980   71.8070  220.3940 C   0  0  0  0  0  0  0  0  0  0  0  0
  144.0010   71.9250  220.2320 C   0  0  0  0  0  0  0  0  0  0  0  0
  144.5050   73.2260  220.8590 C   0  0  0  0  0  0  0  0  0  0  0  0
  144.2840   74.3750  219.9000 C   0  0  0  0  0  0  0  0  0  0  0  0
  143.0360   75.1300  220.2200 C   0  0  0  0  0  0  0  0  0  0  0  0
  139.8500   70.8390  223.7220 C   0  0  0  0  0  0  0  0  0  0  0  0
  139.3720   69.5400  223.7760 C   0  0  0  0  0  0  0  0  0  0  0  0
  139.4020   68.7880  224.9330 C   0  0  0  0  0  0  0  0  0  0  0  0
  139.9440   69.4120  226.0560 C   0  0  0  0  0  0  0  0  0  0  0  0
  139.9950   68.6920  227.2490 C   0  0  0  0  0  0  0  0  0  0  0  0
  140.5320   69.3120  228.3590 C   0  0  0  0  0  0  0  0  0  0  0  0
  141.0160   70.6050  228.3340 C   0  0  0  0  0  0  0  0  0  0  0  0
  140.9510   71.2890  227.1400 C   0  0  0  0  0  0  0  0  0  0  0  0
  140.4230   70.7150  226.0010 C   0  0  0  0  0  0  0  0  0  0  0  0
  140.3630   71.3900  224.8390 N   0  0  0  0  0  0  0  0  0  0  0  0
  139.7190   73.4850  223.4550 H   0  0  0  0  0  0  0  0  0  0  0  0
  139.5692   73.0671  220.4592 H   0  0  0  0  0  0  0  0  0  0  0  0
  138.7805   74.4233  221.3730 H   0  0  0  0  0  0  0  0  0  0  0  0
  140.6962   72.6663  219.6706 H   0  0  0  0  0  0  0  0  0  0  0  0
  142.1968   72.9886  218.6779 H   0  0  0  0  0  0  0  0  0  0  0  0
  142.2520   71.8463  221.4654 H   0  0  0  0  0  0  0  0  0  0  0  0
  142.1820   70.8523  219.9482 H   0  0  0  0  0  0  0  0  0  0  0  0
  144.4870   71.0718  220.7278 H   0  0  0  0  0  0  0  0  0  0  0  0
  144.2448   71.9283  219.1594 H   0  0  0  0  0  0  0  0  0  0  0  0
  143.9559   73.4184  221.7925 H   0  0  0  0  0  0  0  0  0  0  0  0
  145.5798   73.1335  221.0742 H   0  0  0  0  0  0  0  0  0  0  0  0
  145.1415   75.0612  219.9623 H   0  0  0  0  0  0  0  0  0  0  0  0
  144.1833   73.9605  218.8861 H   0  0  0  0  0  0  0  0  0  0  0  0
  143.1571   75.6521  221.1806 H   0  0  0  0  0  0  0  0  0  0  0  0
  142.8360   75.8686  219.4297 H   0  0  0  0  0  0  0  0  0  0  0  0
  138.9531   69.0913  222.8632 H   0  0  0  0  0  0  0  0  0  0  0  0
  139.0206   67.7568  224.9672 H   0  0  0  0  0  0  0  0  0  0  0  0
  139.6182   67.6600  227.3039 H   0  0  0  0  0  0  0  0  0  0  0  0
  140.5764   68.7518  229.3046 H   0  0  0  0  0  0  0  0  0  0  0  0
  141.4386   71.0724  229.2357 H   0  0  0  0  0  0  0  0  0  0  0  0
  141.3301   72.3205  227.0929 H   0  0  0  0  0  0  0  0  0  0  0  0
  1  2  2  0
  2  3  1  0
  3  4  1  0
  4  5  1  0
  5  6  2  0
  5  7  1  0
  7  8  1  0
  8  9  1  0
  9 10  1  0
 10 11  1  0
 11 12  1  0
 12 13  1  0
  2 14  1  0
 14 15  2  0
 15 16  1  0
 16 17  2  0
 17 18  1  0
 18 19  2  0
 19 20  1  0
 20 21  2  0
 21 22  1  0
 22 23  2  0
 13  7  1  0
 23 14  1  0
 22 17  1  0
  3 24  1  0
  4 25  1  0
  4 26  1  0
  8 27  1  0
  8 28  1  0
  9 29  1  0
  9 30  1  0
 10 31  1  0
 10 32  1  0
 11 33  1  0
 11 34  1  0
 12 35  1  0
 12 36  1  0
 13 37  1  0
 13 38  1  0
 15 39  1  0
 16 40  1  0
 18 41  1  0
 19 42  1  0
 20 43  1  0
 21 44  1  0
M  END
>  <smiles>  (23) 
O=C(NCC(=O)N1CCCCCC1)c1ccc2ccccc2n1

>  <score_type>  (23) 
oracle

>  <origin>  (23) 
autodockgpu

>  <m_score__min__energy>  (23) 
-5.8099999999999996

>  <m_primary>  (23) 
energy

>  <rmsd>  (23) 
3.0589431604953763

>  <m_score__min__rmsd>  (23) 
3.0589431604953763

>  <meeko>  (23) 
{"free_energy": -5.46, "intermolecular_energy": -8.14, "internal_energy": -1.39, "cluster_size": 23, "cluster_id": 2, "rank_in_cluster": 1}

>  <energy>  (23) 
-4.79

>  <cluster_rmsd>  (23) 
0.6

>  <cluster>  (23) 
2

$$$$

     RDKit          3D

 44 46  0  0  0  0  0  0  0  0999 V2000
  140.0050   71.1710  221.1570 O   0  0  0  0  0  0  0  0  0  0  0  0
  139.8240   71.8210  222.2200 C   0  0  0  0  0  0  0  0  0  0  0  0
  139.4840   73.2030  222.1940 N   0  0  0  0  0  0  0  0  0  0  0  0
  139.3450   73.8720  220.9380 C   0  0  0  0  0  0  0  0  0  0  0  0
  140.6490   74.0980  220.2850 C   0  0  0  0  0  0  0  0  0  0  0  0
  140.9400   73.3590  219.3060 O   0  0  0  0  0  0  0  0  0  0  0  0
  141.5420   75.0920  220.7220 N   0  0  0  0  0  0  0  0  0  0  0  0
  141.0870   75.8610  221.8460 C   0  0  0  0  0  0  0  0  0  0  0  0
  141.0020   77.3350  221.5700 C   0  0  0  0  0  0  0  0  0  0  0  0
  140.9400   77.6340  220.0850 C   0  0  0  0  0  0  0  0  0  0  0  0
  142.3420   77.5960  219.4740 C   0  0  0  0  0  0  0  0  0  0  0  0
  142.6280   76.2160  218.9040 C   0  0  0  0  0  0  0  0  0  0  0  0
  142.7850   75.1950  219.9820 C   0  0  0  0  0  0  0  0  0  0  0  0
  139.9550   71.1780  223.5360 C   0  0  0  0  0  0  0  0  0  0  0  0
  139.5630   69.8580  223.6870 C   0  0  0  0  0  0  0  0  0  0  0  0
  139.6580   69.1910  224.8920 C   0  0  0  0  0  0  0  0  0  0  0  0
  140.1750   69.9240  225.9590 C   0  0  0  0  0  0  0  0  0  0  0  0
  140.2900   69.2920  227.1970 C   0  0  0  0  0  0  0  0  0  0  0  0
  140.8020   70.0200  228.2520 C   0  0  0  0  0  0  0  0  0  0  0  0
  141.2010   71.3370  228.1300 C   0  0  0  0  0  0  0  0  0  0  0  0
  141.0740   71.9310  226.8940 C   0  0  0  0  0  0  0  0  0  0  0  0
  140.5680   71.2470  225.8070 C   0  0  0  0  0  0  0  0  0  0  0  0
  140.4480   71.8350  224.6030 N   0  0  0  0  0  0  0  0  0  0  0  0
  139.3360   73.7300  223.0970 H   0  0  0  0  0  0  0  0  0  0  0  0
  138.7179   73.2572  220.2756 H   0  0  0  0  0  0  0  0  0  0  0  0
  138.8838   74.8530  221.1247 H   0  0  0  0  0  0  0  0  0  0  0  0
  140.0871   75.5022  222.1312 H   0  0  0  0  0  0  0  0  0  0  0  0
  141.8249   75.7250  222.6504 H   0  0  0  0  0  0  0  0  0  0  0  0
  140.0966   77.7343  222.0504 H   0  0  0  0  0  0  0  0  0  0  0  0
  141.9093   77.8083  221.9735 H   0  0  0  0  0  0  0  0  0  0  0  0
  140.3084   76.8817  219.5899 H   0  0  0  0  0  0  0  0  0  0  0  0
  140.5152   78.6384  219.9408 H   0  0  0  0  0  0  0  0  0  0  0  0
  142.4080   78.3427  218.6689 H   0  0  0  0  0  0  0  0  0  0  0  0
  143.0813   77.8218  220.2566 H   0  0  0  0  0  0  0  0  0  0  0  0
  141.7935   75.9199  218.2514 H   0  0  0  0  0  0  0  0  0  0  0  0
  143.5709   76.2667  218.3398 H   0  0  0  0  0  0  0  0  0  0  0  0
  143.0288   74.2205  219.5338 H   0  0  0  0  0  0  0  0  0  0  0  0
  143.5970   75.4944  220.6609 H   0  0  0  0  0  0  0  0  0  0  0  0
  139.1613   69.3215  222.8147 H   0  0  0  0  0  0  0  0  0  0  0  0
  139.3441   68.1426  225.0036 H   0  0  0  0  0  0  0  0  0  0  0  0
  139.9817   68.2443  227.3287 H   0  0  0  0  0  0  0  0  0  0  0  0
  140.8964   69.5303  229.2324 H   0  0  0  0  0  0  0  0  0  0  0  0
  141.6057   71.8915  228.9895 H   0  0  0  0  0  0  0  0  0  0  0  0
  141.3842   72.9790  226.7696 H   0  0  0  0  0  0  0  0  0  0  0  0
  1  2  2  0
  2  3  1  0
  3  4  1  0
  4  5  1  0
  5  6  2  0
  5  7  1  0
  7  8  1  0
  8  9  1  0
  9 10  1  0
 10 11  1  0
 11 12  1  0
 12 13  1  0
  2 14  1  0
 14 15  2  0
 15 16  1  0
 16 17  2  0
 17 18  1  0
 18 19  2  0
 19 20  1  0
 20 21  2  0
 21 22  1  0
 22 23  2  0
 13  7  1  0
 23 14  1  0
 22 17  1  0
  3 24  1  0
  4 25  1  0
  4 26  1  0
  8 27  1  0
  8 28  1  0
  9 29  1  0
  9 30  1  0
 10 31  1  0
 10 32  1  0
 11 33  1  0
 11 34  1  0
 12 35  1  0
 12 36  1  0
 13 37  1  0
 13 38  1  0
 15 39  1  0
 16 40  1  0
 18 41  1  0
 19 42  1  0
 20 43  1  0
 21 44  1  0
M  END
>  <smiles>  (24) 
O=C(NCC(=O)N1CCCCCC1)c1ccc2ccccc2n1

>  <score_type>  (24) 
oracle

>  <origin>  (24) 
autodockgpu

>  <m_score__min__energy>  (24) 
-5.8099999999999996

>  <m_primary>  (24) 
energy

>  <rmsd>  (24) 
2.206015245249841

>  <m_score__min__rmsd>  (24) 
2.206015245249841

>  <meeko>  (24) 
{"free_energy": -4.23, "intermolecular_energy": -6.91, "internal_energy": -1.14, "cluster_size": 23, "cluster_id": 2, "rank_in_cluster": 23}

>  <energy>  (24) 
-4.78

>  <cluster_rmsd>  (24) 
0.46

>  <cluster>  (24) 
2

$$$$

     RDKit          3D

 44 46  0  0  0  0  0  0  0  0999 V2000
  135.7680   69.5100  224.2790 O   0  0  0  0  0  0  0  0  0  0  0  0
  135.7820   70.7470  224.5130 C   0  0  0  0  0  0  0  0  0  0  0  0
  136.8490   71.5740  224.0630 N   0  0  0  0  0  0  0  0  0  0  0  0
  137.9300   70.9950  223.3300 C   0  0  0  0  0  0  0  0  0  0  0  0
  139.2260   71.1840  224.0110 C   0  0  0  0  0  0  0  0  0  0  0  0
  139.9330   72.1600  223.6440 O   0  0  0  0  0  0  0  0  0  0  0  0
  139.6670   70.3210  225.0300 N   0  0  0  0  0  0  0  0  0  0  0  0
  138.7650   69.2510  225.3490 C   0  0  0  0  0  0  0  0  0  0  0  0
  139.4060   68.1350  226.1230 C   0  0  0  0  0  0  0  0  0  0  0  0
  139.6640   68.5190  227.5670 C   0  0  0  0  0  0  0  0  0  0  0  0
  140.9890   69.2750  227.6880 C   0  0  0  0  0  0  0  0  0  0  0  0
  140.8410   70.6590  227.0920 C   0  0  0  0  0  0  0  0  0  0  0  0
  140.9620   70.6330  225.6040 C   0  0  0  0  0  0  0  0  0  0  0  0
  134.6930   71.3900  225.2640 C   0  0  0  0  0  0  0  0  0  0  0  0
  133.7510   70.6000  225.9030 C   0  0  0  0  0  0  0  0  0  0  0  0
  132.7030   71.1340  226.6250 C   0  0  0  0  0  0  0  0  0  0  0  0
  132.6420   72.5260  226.6770 C   0  0  0  0  0  0  0  0  0  0  0  0
  131.6000   73.1130  227.3950 C   0  0  0  0  0  0  0  0  0  0  0  0
  131.5420   74.4910  227.4450 C   0  0  0  0  0  0  0  0  0  0  0  0
  132.4660   75.3030  226.8180 C   0  0  0  0  0  0  0  0  0  0  0  0
  133.4820   74.6920  226.1180 C   0  0  0  0  0  0  0  0  0  0  0  0
  133.5860   73.3180  226.0370 C   0  0  0  0  0  0  0  0  0  0  0  0
  134.5830   72.7290  225.3500 N   0  0  0  0  0  0  0  0  0  0  0  0
  136.8410   72.6100  224.2700 H   0  0  0  0  0  0  0  0  0  0  0  0
  137.7435   69.9171  223.2149 H   0  0  0  0  0  0  0  0  0  0  0  0
  137.9842   71.4969  222.3527 H   0  0  0  0  0  0  0  0  0  0  0  0
  137.9384   69.6600  225.9485 H   0  0  0  0  0  0  0  0  0  0  0  0
  138.4194   68.8253  224.3954 H   0  0  0  0  0  0  0  0  0  0  0  0
  138.7397   67.2600  226.1020 H   0  0  0  0  0  0  0  0  0  0  0  0
  140.3749   67.9093  225.6536 H   0  0  0  0  0  0  0  0  0  0  0  0
  138.8457   69.1621  227.9230 H   0  0  0  0  0  0  0  0  0  0  0  0
  139.7174   67.6045  228.1759 H   0  0  0  0  0  0  0  0  0  0  0  0
  141.2656   69.3612  228.7492 H   0  0  0  0  0  0  0  0  0  0  0  0
  141.7733   68.7261  227.1461 H   0  0  0  0  0  0  0  0  0  0  0  0
  139.8533   71.0604  227.3628 H   0  0  0  0  0  0  0  0  0  0  0  0
  141.6461   71.2933  227.4914 H   0  0  0  0  0  0  0  0  0  0  0  0
  141.2975   71.6168  225.2441 H   0  0  0  0  0  0  0  0  0  0  0  0
  141.6950   69.8695  225.3042 H   0  0  0  0  0  0  0  0  0  0  0  0
  133.8419   69.5060  225.8322 H   0  0  0  0  0  0  0  0  0  0  0  0
  131.9599   70.4990  227.1295 H   0  0  0  0  0  0  0  0  0  0  0  0
  130.8467   72.4957  227.9063 H   0  0  0  0  0  0  0  0  0  0  0  0
  130.7240   74.9629  228.0090 H   0  0  0  0  0  0  0  0  0  0  0  0
  132.3930   76.3991  226.8757 H   0  0  0  0  0  0  0  0  0  0  0  0
  134.2315   75.3160  225.6092 H   0  0  0  0  0  0  0  0  0  0  0  0
  1  2  2  0
  2  3  1  0
  3  4  1  0
  4  5  1  0
  5  6  2  0
  5  7  1  0
  7  8  1  0
  8  9  1  0
  9 10  1  0
 10 11  1  0
 11 12  1  0
 12 13  1  0
  2 14  1  0
 14 15  2  0
 15 16  1  0
 16 17  2  0
 17 18  1  0
 18 19  2  0
 19 20  1  0
 20 21  2  0
 21 22  1  0
 22 23  2  0
 13  7  1  0
 23 14  1  0
 22 17  1  0
  3 24  1  0
  4 25  1  0
  4 26  1  0
  8 27  1  0
  8 28  1  0
  9 29  1  0
  9 30  1  0
 10 31  1  0
 10 32  1  0
 11 33  1  0
 11 34  1  0
 12 35  1  0
 12 36  1  0
 13 37  1  0
 13 38  1  0
 15 39  1  0
 16 40  1  0
 18 41  1  0
 19 42  1  0
 20 43  1  0
 21 44  1  0
M  END
>  <smiles>  (25) 
O=C(NCC(=O)N1CCCCCC1)c1ccc2ccccc2n1

>  <score_type>  (25) 
oracle

>  <origin>  (25) 
autodockgpu

>  <m_score__min__energy>  (25) 
-5.8099999999999996

>  <m_primary>  (25) 
energy

>  <rmsd>  (25) 
8.203437641053041

>  <m_score__min__rmsd>  (25) 
8.203437641053041

>  <meeko>  (25) 
{"free_energy": -5.0, "intermolecular_energy": -7.69, "internal_energy": -1.3, "cluster_size": 7, "cluster_id": 3, "rank_in_cluster": 5}

>  <energy>  (25) 
-4.66

>  <cluster_rmsd>  (25) 
0.51

>  <cluster>  (25) 
2

$$$$

     RDKit          3D

 44 46  0  0  0  0  0  0  0  0999 V2000
  139.8900   73.6130  222.6870 O   0  0  0  0  0  0  0  0  0  0  0  0
  139.9560   72.3660  222.5260 C   0  0  0  0  0  0  0  0  0  0  0  0
  140.0290   71.7890  221.2270 N   0  0  0  0  0  0  0  0  0  0  0  0
  140.0260   72.6390  220.0770 C   0  0  0  0  0  0  0  0  0  0  0  0
  141.0900   73.6600  220.1410 C   0  0  0  0  0  0  0  0  0  0  0  0
  140.7290   74.8610  220.2720 O   0  0  0  0  0  0  0  0  0  0  0  0
  142.4530   73.3260  220.0610 N   0  0  0  0  0  0  0  0  0  0  0  0
  142.7240   71.9240  219.9120 C   0  0  0  0  0  0  0  0  0  0  0  0
  144.0470   71.5040  220.4860 C   0  0  0  0  0  0  0  0  0  0  0  0
  145.2060   71.9020  219.5940 C   0  0  0  0  0  0  0  0  0  0  0  0
  145.6040   73.3560  219.8550 C   0  0  0  0  0  0  0  0  0  0  0  0
  144.6280   73.9860  220.8240 C   0  0  0  0  0  0  0  0  0  0  0  0
  143.3810   74.4380  220.1380 C   0  0  0  0  0  0  0  0  0  0  0  0
  139.9600   71.4510  223.6780 C   0  0  0  0  0  0  0  0  0  0  0  0
  139.4560   70.1700  223.5270 C   0  0  0  0  0  0  0  0  0  0  0  0
  139.4290   69.2590  224.5640 C   0  0  0  0  0  0  0  0  0  0  0  0
  139.9410   69.7010  225.7820 C   0  0  0  0  0  0  0  0  0  0  0  0
  139.9350   68.8160  226.8600 C   0  0  0  0  0  0  0  0  0  0  0  0
  140.4420   69.2570  228.0660 C   0  0  0  0  0  0  0  0  0  0  0  0
  140.9510   70.5280  228.2440 C   0  0  0  0  0  0  0  0  0  0  0  0
  140.9420   71.3780  227.1600 C   0  0  0  0  0  0  0  0  0  0  0  0
  140.4460   70.9860  225.9330 C   0  0  0  0  0  0  0  0  0  0  0  0
  140.4420   71.8230  224.8790 N   0  0  0  0  0  0  0  0  0  0  0  0
  140.0830   70.7410  221.1140 H   0  0  0  0  0  0  0  0  0  0  0  0
  140.1793   72.0222  219.1792 H   0  0  0  0  0  0  0  0  0  0  0  0
  139.0575   73.1594  220.0418 H   0  0  0  0  0  0  0  0  0  0  0  0
  141.9289   71.3599  220.4214 H   0  0  0  0  0  0  0  0  0  0  0  0
  142.7591   71.7147  218.8327 H   0  0  0  0  0  0  0  0  0  0  0  0
  144.1752   71.9813  221.4687 H   0  0  0  0  0  0  0  0  0  0  0  0
  144.0465   70.4074  220.5728 H   0  0  0  0  0  0  0  0  0  0  0  0
  146.0654   71.2478  219.8026 H   0  0  0  0  0  0  0  0  0  0  0  0
  144.8993   71.7989  218.5427 H   0  0  0  0  0  0  0  0  0  0  0  0
  146.6164   73.3865  220.2841 H   0  0  0  0  0  0  0  0  0  0  0  0
  145.5874   73.9139  218.9071 H   0  0  0  0  0  0  0  0  0  0  0  0
  144.3630   73.2465  221.5941 H   0  0  0  0  0  0  0  0  0  0  0  0
  145.1108   74.8669  221.2722 H   0  0  0  0  0  0  0  0  0  0  0  0
  142.9242   75.2604  220.7081 H   0  0  0  0  0  0  0  0  0  0  0  0
  143.6222   74.7907  219.1244 H   0  0  0  0  0  0  0  0  0  0  0  0
  139.0629   69.8674  222.5452 H   0  0  0  0  0  0  0  0  0  0  0  0
  139.0267   68.2433  224.4360 H   0  0  0  0  0  0  0  0  0  0  0  0
  139.5377   67.7959  226.7524 H   0  0  0  0  0  0  0  0  0  0  0  0
  140.4404   68.5660  228.9219 H   0  0  0  0  0  0  0  0  0  0  0  0
  141.3497   70.8505  229.2172 H   0  0  0  0  0  0  0  0  0  0  0  0
  141.3409   72.3966  227.2754 H   0  0  0  0  0  0  0  0  0  0  0  0
  1  2  2  0
  2  3  1  0
  3  4  1  0
  4  5  1  0
  5  6  2  0
  5  7  1  0
  7  8  1  0
  8  9  1  0
  9 10  1  0
 10 11  1  0
 11 12  1  0
 12 13  1  0
  2 14  1  0
 14 15  2  0
 15 16  1  0
 16 17  2  0
 17 18  1  0
 18 19  2  0
 19 20  1  0
 20 21  2  0
 21 22  1  0
 22 23  2  0
 13  7  1  0
 23 14  1  0
 22 17  1  0
  3 24  1  0
  4 25  1  0
  4 26  1  0
  8 27  1  0
  8 28  1  0
  9 29  1  0
  9 30  1  0
 10 31  1  0
 10 32  1  0
 11 33  1  0
 11 34  1  0
 12 35  1  0
 12 36  1  0
 13 37  1  0
 13 38  1  0
 15 39  1  0
 16 40  1  0
 18 41  1  0
 19 42  1  0
 20 43  1  0
 21 44  1  0
M  END
>  <smiles>  (26) 
O=C(NCC(=O)N1CCCCCC1)c1ccc2ccccc2n1

>  <score_type>  (26) 
oracle

>  <origin>  (26) 
autodockgpu

>  <m_score__min__energy>  (26) 
-5.8099999999999996

>  <m_primary>  (26) 
energy

>  <rmsd>  (26) 
3.598756196813097

>  <m_score__min__rmsd>  (26) 
3.598756196813097

>  <meeko>  (26) 
{"free_energy": -5.25, "intermolecular_energy": -7.94, "internal_energy": -0.93, "cluster_size": 23, "cluster_id": 2, "rank_in_cluster": 4}

>  <energy>  (26) 
-4.5

>  <cluster_rmsd>  (26) 
0.96

>  <cluster>  (26) 
2

$$$$

     RDKit          3D

 44 46  0  0  0  0  0  0  0  0999 V2000
  139.4110   70.5100  221.9070 O   0  0  0  0  0  0  0  0  0  0  0  0
  139.8910   71.5150  222.4960 C   0  0  0  0  0  0  0  0  0  0  0  0
  139.5230   71.8360  223.8320 N   0  0  0  0  0  0  0  0  0  0  0  0
  138.5890   71.0050  224.5270 C   0  0  0  0  0  0  0  0  0  0  0  0
  139.2040   69.7440  224.9840 C   0  0  0  0  0  0  0  0  0  0  0  0
  138.6230   68.6710  224.6690 O   0  0  0  0  0  0  0  0  0  0  0  0
  140.3890   69.7220  225.7410 N   0  0  0  0  0  0  0  0  0  0  0  0
  140.9460   71.0130  226.0300 C   0  0  0  0  0  0  0  0  0  0  0  0
  140.4730   71.5930  227.3330 C   0  0  0  0  0  0  0  0  0  0  0  0
  140.0670   70.5170  228.3210 C   0  0  0  0  0  0  0  0  0  0  0  0
  141.1300   69.4180  228.3790 C   0  0  0  0  0  0  0  0  0  0  0  0
  140.6650   68.2150  227.5850 C   0  0  0  0  0  0  0  0  0  0  0  0
  140.8720   68.4070  226.1190 C   0  0  0  0  0  0  0  0  0  0  0  0
  140.8540   72.4000  221.8240 C   0  0  0  0  0  0  0  0  0  0  0  0
  142.0200   71.8630  221.3030 C   0  0  0  0  0  0  0  0  0  0  0  0
  142.9680   72.6330  220.6600 C   0  0  0  0  0  0  0  0  0  0  0  0
  142.6860   73.9950  220.5620 C   0  0  0  0  0  0  0  0  0  0  0  0
  143.6150   74.8150  219.9210 C   0  0  0  0  0  0  0  0  0  0  0  0
  143.3340   76.1630  219.8250 C   0  0  0  0  0  0  0  0  0  0  0  0
  142.1800   76.7260  220.3350 C   0  0  0  0  0  0  0  0  0  0  0  0
  141.2840   75.8880  220.9620 C   0  0  0  0  0  0  0  0  0  0  0  0
  141.5180   74.5340  221.0840 C   0  0  0  0  0  0  0  0  0  0  0  0
  140.6360   73.7230  221.6990 N   0  0  0  0  0  0  0  0  0  0  0  0
  139.9370   72.6830  224.3080 H   0  0  0  0  0  0  0  0  0  0  0  0
  138.2094   71.5525  225.4023 H   0  0  0  0  0  0  0  0  0  0  0  0
  137.7751   70.7533  223.8312 H   0  0  0  0  0  0  0  0  0  0  0  0
  142.0413   70.9188  226.0683 H   0  0  0  0  0  0  0  0  0  0  0  0
  140.6129   71.6943  225.2332 H   0  0  0  0  0  0  0  0  0  0  0  0
  141.2864   72.1894  227.7721 H   0  0  0  0  0  0  0  0  0  0  0  0
  139.5895   72.2149  227.1266 H   0  0  0  0  0  0  0  0  0  0  0  0
  139.9542   70.9653  229.3192 H   0  0  0  0  0  0  0  0  0  0  0  0
  139.1138   70.0748  227.9955 H   0  0  0  0  0  0  0  0  0  0  0  0
  142.0706   69.7963  227.9522 H   0  0  0  0  0  0  0  0  0  0  0  0
  141.2917   69.1227  229.4262 H   0  0  0  0  0  0  0  0  0  0  0  0
  141.2321   67.3311  227.9123 H   0  0  0  0  0  0  0  0  0  0  0  0
  139.5880   68.0813  227.7645 H   0  0  0  0  0  0  0  0  0  0  0  0
  141.9437   68.3264  225.8844 H   0  0  0  0  0  0  0  0  0  0  0  0
  140.3210   67.6349  225.5620 H   0  0  0  0  0  0  0  0  0  0  0  0
  142.1969   70.7822  221.4056 H   0  0  0  0  0  0  0  0  0  0  0  0
  143.8911   72.1980  220.2493 H   0  0  0  0  0  0  0  0  0  0  0  0
  144.5443   74.3994  219.5043 H   0  0  0  0  0  0  0  0  0  0  0  0
  144.0603   76.8173  219.3206 H   0  0  0  0  0  0  0  0  0  0  0  0
  141.9836   77.8045  220.2438 H   0  0  0  0  0  0  0  0  0  0  0  0
  140.3567   76.3101  221.3766 H   0  0  0  0  0  0  0  0  0  0  0  0
  1  2  2  0
  2  3  1  0
  3  4  1  0
  4  5  1  0
  5  6  2  0
  5  7  1  0
  7  8  1  0
  8  9  1  0
  9 10  1  0
 10 11  1  0
 11 12  1  0
 12 13  1  0
  2 14  1  0
 14 15  2  0
 15 16  1  0
 16 17  2  0
 17 18  1  0
 18 19  2  0
 19 20  1  0
 20 21  2  0
 21 22  1  0
 22 23  2  0
 13  7  1  0
 23 14  1  0
 22 17  1  0
  3 24  1  0
  4 25  1  0
  4 26  1  0
  8 27  1  0
  8 28  1  0
  9 29  1  0
  9 30  1  0
 10 31  1  0
 10 32  1  0
 11 33  1  0
 11 34  1  0
 12 35  1  0
 12 36  1  0
 13 37  1  0
 13 38  1  0
 15 39  1  0
 16 40  1  0
 18 41  1  0
 19 42  1  0
 20 43  1  0
 21 44  1  0
M  END
>  <smiles>  (27) 
O=C(NCC(=O)N1CCCCCC1)c1ccc2ccccc2n1

>  <score_type>  (27) 
oracle

>  <origin>  (27) 
autodockgpu

>  <m_score__min__energy>  (27) 
-5.8099999999999996

>  <m_primary>  (27) 
energy

>  <rmsd>  (27) 
8.25418535445328

>  <m_score__min__rmsd>  (27) 
8.25418535445328

>  <meeko>  (27) 
{"free_energy": -5.0, "intermolecular_energy": -7.68, "internal_energy": -0.96, "cluster_size": 6, "cluster_id": 1, "rank_in_cluster": 6}

>  <energy>  (27) 
-4.43

>  <cluster_rmsd>  (27) 
0.47

>  <cluster>  (27) 
2

$$$$

     RDKit          3D

 44 46  0  0  0  0  0  0  0  0999 V2000
  139.6940   70.8700  221.1830 O   0  0  0  0  0  0  0  0  0  0  0  0
  139.7680   71.4570  222.2940 C   0  0  0  0  0  0  0  0  0  0  0  0
  139.8370   72.8760  222.3790 N   0  0  0  0  0  0  0  0  0  0  0  0
  139.8220   73.6560  221.1810 C   0  0  0  0  0  0  0  0  0  0  0  0
  141.0590   74.4460  221.0190 C   0  0  0  0  0  0  0  0  0  0  0  0
  141.2220   75.4260  221.7940 O   0  0  0  0  0  0  0  0  0  0  0  0
  142.0230   74.1320  220.0450 N   0  0  0  0  0  0  0  0  0  0  0  0
  141.7110   72.9930  219.2290 C   0  0  0  0  0  0  0  0  0  0  0  0
  142.2320   71.6970  219.7820 C   0  0  0  0  0  0  0  0  0  0  0  0
  143.5590   71.8750  220.4940 C   0  0  0  0  0  0  0  0  0  0  0  0
  144.4390   72.8730  219.7390 C   0  0  0  0  0  0  0  0  0  0  0  0
  144.3890   74.2220  220.4250 C   0  0  0  0  0  0  0  0  0  0  0  0
  143.1850   75.0000  220.0060 C   0  0  0  0  0  0  0  0  0  0  0  0
  139.7870   70.6990  223.5540 C   0  0  0  0  0  0  0  0  0  0  0  0
  139.1860   69.4520  223.6040 C   0  0  0  0  0  0  0  0  0  0  0  0
  139.1650   68.6860  224.7520 C   0  0  0  0  0  0  0  0  0  0  0  0
  139.7880   69.2390  225.8690 C   0  0  0  0  0  0  0  0  0  0  0  0
  139.7930   68.5010  227.0530 C   0  0  0  0  0  0  0  0  0  0  0  0
  140.4100   69.0510  228.1580 C   0  0  0  0  0  0  0  0  0  0  0  0
  141.0180   70.2910  228.1370 C   0  0  0  0  0  0  0  0  0  0  0  0
  140.9960   70.9930  226.9520 C   0  0  0  0  0  0  0  0  0  0  0  0
  140.3910   70.4890  225.8190 C   0  0  0  0  0  0  0  0  0  0  0  0
  140.3740   71.1820  224.6660 N   0  0  0  0  0  0  0  0  0  0  0  0
  139.8980   73.3490  223.3200 H   0  0  0  0  0  0  0  0  0  0  0  0
  139.7165   72.9808  220.3190 H   0  0  0  0  0  0  0  0  0  0  0  0
  138.9769   74.3574  221.2431 H   0  0  0  0  0  0  0  0  0  0  0  0
  140.6172   72.9183  219.1395 H   0  0  0  0  0  0  0  0  0  0  0  0
  142.2004   73.1489  218.2563 H   0  0  0  0  0  0  0  0  0  0  0  0
  141.4976   71.2946  220.4952 H   0  0  0  0  0  0  0  0  0  0  0  0
  142.3885   71.0070  218.9397 H   0  0  0  0  0  0  0  0  0  0  0  0
  143.3768   72.2500  221.5120 H   0  0  0  0  0  0  0  0  0  0  0  0
  144.0749   70.9044  220.5357 H   0  0  0  0  0  0  0  0  0  0  0  0
  145.4766   72.5081  219.7260 H   0  0  0  0  0  0  0  0  0  0  0  0
  144.0694   72.9758  218.7080 H   0  0  0  0  0  0  0  0  0  0  0  0
  144.3557   74.0692  221.5138 H   0  0  0  0  0  0  0  0  0  0  0  0
  145.2863   74.7903  220.1388 H   0  0  0  0  0  0  0  0  0  0  0  0
  143.0359   75.8465  220.6925 H   0  0  0  0  0  0  0  0  0  0  0  0
  143.3277   75.3833  218.9849 H   0  0  0  0  0  0  0  0  0  0  0  0
  138.7078   69.0576  222.6953 H   0  0  0  0  0  0  0  0  0  0  0  0
  138.6846   67.6969  224.7833 H   0  0  0  0  0  0  0  0  0  0  0  0
  139.3190   67.5097  227.1042 H   0  0  0  0  0  0  0  0  0  0  0  0
  140.4180   68.4770  229.0963 H   0  0  0  0  0  0  0  0  0  0  0  0
  141.5025   70.7032  229.0344 H   0  0  0  0  0  0  0  0  0  0  0  0
  141.4740   71.9827  226.9078 H   0  0  0  0  0  0  0  0  0  0  0  0
  1  2  2  0
  2  3  1  0
  3  4  1  0
  4  5  1  0
  5  6  2  0
  5  7  1  0
  7  8  1  0
  8  9  1  0
  9 10  1  0
 10 11  1  0
 11 12  1  0
 12 13  1  0
  2 14  1  0
 14 15  2  0
 15 16  1  0
 16 17  2  0
 17 18  1  0
 18 19  2  0
 19 20  1  0
 20 21  2  0
 21 22  1  0
 22 23  2  0
 13  7  1  0
 23 14  1  0
 22 17  1  0
  3 24  1  0
  4 25  1  0
  4 26  1  0
  8 27  1  0
  8 28  1  0
  9 29  1  0
  9 30  1  0
 10 31  1  0
 10 32  1  0
 11 33  1  0
 11 34  1  0
 12 35  1  0
 12 36  1  0
 13 37  1  0
 13 38  1  0
 15 39  1  0
 16 40  1  0
 18 41  1  0
 19 42  1  0
 20 43  1  0
 21 44  1  0
M  END
>  <smiles>  (28) 
O=C(NCC(=O)N1CCCCCC1)c1ccc2ccccc2n1

>  <score_type>  (28) 
oracle

>  <origin>  (28) 
autodockgpu

>  <m_score__min__energy>  (28) 
-5.8099999999999996

>  <m_primary>  (28) 
energy

>  <rmsd>  (28) 
3.0476563405407764

>  <m_score__min__rmsd>  (28) 
3.0476563405407764

>  <meeko>  (28) 
{"free_energy": -4.38, "intermolecular_energy": -7.06, "internal_energy": -1.44, "cluster_size": 23, "cluster_id": 2, "rank_in_cluster": 22}

>  <energy>  (28) 
-4.38

>  <cluster_rmsd>  (28) 
0.48

>  <cluster>  (28) 
2

$$$$

     RDKit          3D

 44 46  0  0  0  0  0  0  0  0999 V2000
  138.2480   71.0020  222.0470 O   0  0  0  0  0  0  0  0  0  0  0  0
  139.2650   71.1890  222.7650 C   0  0  0  0  0  0  0  0  0  0  0  0
  140.2390   72.1710  222.4280 N   0  0  0  0  0  0  0  0  0  0  0  0
  140.0640   72.9630  221.2510 C   0  0  0  0  0  0  0  0  0  0  0  0
  141.1000   74.0070  221.1280 C   0  0  0  0  0  0  0  0  0  0  0  0
  141.0730   74.9480  221.9650 O   0  0  0  0  0  0  0  0  0  0  0  0
  142.0830   73.9690  220.1230 N   0  0  0  0  0  0  0  0  0  0  0  0
  141.9980   72.8430  219.2360 C   0  0  0  0  0  0  0  0  0  0  0  0
  142.7990   71.6570  219.6920 C   0  0  0  0  0  0  0  0  0  0  0  0
  144.0640   72.0710  220.4200 C   0  0  0  0  0  0  0  0  0  0  0  0
  144.7110   73.2700  219.7240 C   0  0  0  0  0  0  0  0  0  0  0  0
  144.3840   74.5380  220.4840 C   0  0  0  0  0  0  0  0  0  0  0  0
  143.0330   75.0650  220.1280 C   0  0  0  0  0  0  0  0  0  0  0  0
  139.4890   70.3990  223.9850 C   0  0  0  0  0  0  0  0  0  0  0  0
  139.0180   69.0980  224.0460 C   0  0  0  0  0  0  0  0  0  0  0  0
  139.1920   68.2990  225.1590 C   0  0  0  0  0  0  0  0  0  0  0  0
  139.8750   68.8780  226.2270 C   0  0  0  0  0  0  0  0  0  0  0  0
  140.0750   68.1090  227.3740 C   0  0  0  0  0  0  0  0  0  0  0  0
  140.7500   68.6850  228.4310 C   0  0  0  0  0  0  0  0  0  0  0  0
  141.2300   69.9790  228.3990 C   0  0  0  0  0  0  0  0  0  0  0  0
  141.0160   70.7110  227.2510 C   0  0  0  0  0  0  0  0  0  0  0  0
  140.3460   70.1830  226.1660 C   0  0  0  0  0  0  0  0  0  0  0  0
  140.1410   70.9050  225.0490 N   0  0  0  0  0  0  0  0  0  0  0  0
  141.0840   72.3120  223.0440 H   0  0  0  0  0  0  0  0  0  0  0  0
  140.1153   72.3062  220.3701 H   0  0  0  0  0  0  0  0  0  0  0  0
  139.0858   73.4614  221.3192 H   0  0  0  0  0  0  0  0  0  0  0  0
  140.9432   72.5409  219.1574 H   0  0  0  0  0  0  0  0  0  0  0  0
  142.4149   73.1616  218.2692 H   0  0  0  0  0  0  0  0  0  0  0  0
  142.1810   71.0509  220.3707 H   0  0  0  0  0  0  0  0  0  0  0  0
  143.0925   71.0825  218.8010 H   0  0  0  0  0  0  0  0  0  0  0  0
  143.8133   72.3447  221.4555 H   0  0  0  0  0  0  0  0  0  0  0  0
  144.7719   71.2291  220.4127 H   0  0  0  0  0  0  0  0  0  0  0  0
  145.8019   73.1316  219.6957 H   0  0  0  0  0  0  0  0  0  0  0  0
  144.3222   73.3494  218.6981 H   0  0  0  0  0  0  0  0  0  0  0  0
  144.4096   74.3233  221.5625 H   0  0  0  0  0  0  0  0  0  0  0  0
  145.1302   75.3001  220.2148 H   0  0  0  0  0  0  0  0  0  0  0  0
  142.7239   75.8171  220.8688 H   0  0  0  0  0  0  0  0  0  0  0  0
  143.0672   75.5307  219.1321 H   0  0  0  0  0  0  0  0  0  0  0  0
  138.4858   68.6859  223.1760 H   0  0  0  0  0  0  0  0  0  0  0  0
  138.8139   67.2668  225.2001 H   0  0  0  0  0  0  0  0  0  0  0  0
  139.7057   67.0746  227.4339 H   0  0  0  0  0  0  0  0  0  0  0  0
  140.9128   68.0864  229.3394 H   0  0  0  0  0  0  0  0  0  0  0  0
  141.7639   70.4102  229.2586 H   0  0  0  0  0  0  0  0  0  0  0  0
  141.3894   71.7443  227.1980 H   0  0  0  0  0  0  0  0  0  0  0  0
  1  2  2  0
  2  3  1  0
  3  4  1  0
  4  5  1  0
  5  6  2  0
  5  7  1  0
  7  8  1  0
  8  9  1  0
  9 10  1  0
 10 11  1  0
 11 12  1  0
 12 13  1  0
  2 14  1  0
 14 15  2  0
 15 16  1  0
 16 17  2  0
 17 18  1  0
 18 19  2  0
 19 20  1  0
 20 21  2  0
 21 22  1  0
 22 23  2  0
 13  7  1  0
 23 14  1  0
 22 17  1  0
  3 24  1  0
  4 25  1  0
  4 26  1  0
  8 27  1  0
  8 28  1  0
  9 29  1  0
  9 30  1  0
 10 31  1  0
 10 32  1  0
 11 33  1  0
 11 34  1  0
 12 35  1  0
 12 36  1  0
 13 37  1  0
 13 38  1  0
 15 39  1  0
 16 40  1  0
 18 41  1  0
 19 42  1  0
 20 43  1  0
 21 44  1  0
M  END
>  <smiles>  (29) 
O=C(NCC(=O)N1CCCCCC1)c1ccc2ccccc2n1

>  <score_type>  (29) 
oracle

>  <origin>  (29) 
autodockgpu

>  <m_score__min__energy>  (29) 
-5.8099999999999996

>  <m_primary>  (29) 
energy

>  <rmsd>  (29) 
3.1636850510659373

>  <m_score__min__rmsd>  (29) 
3.1636850510659373

>  <meeko>  (29) 
{"free_energy": -4.86, "intermolecular_energy": -7.54, "internal_energy": -1.22, "cluster_size": 23, "cluster_id": 2, "rank_in_cluster": 15}

>  <energy>  (29) 
-4.23

>  <cluster_rmsd>  (29) 
1.76

>  <cluster>  (29) 
2

$$$$

     RDKit          3D

 44 46  0  0  0  0  0  0  0  0999 V2000
  139.9350   73.3960  222.4110 O   0  0  0  0  0  0  0  0  0  0  0  0
  140.1670   72.1590  222.4310 C   0  0  0  0  0  0  0  0  0  0  0  0
  140.4960   71.4470  221.2430 N   0  0  0  0  0  0  0  0  0  0  0  0
  140.5660   72.1460  219.9980 C   0  0  0  0  0  0  0  0  0  0  0  0
  141.3650   73.3830  220.1020 C   0  0  0  0  0  0  0  0  0  0  0  0
  140.7830   74.4690  219.8380 O   0  0  0  0  0  0  0  0  0  0  0  0
  142.7200   73.3680  220.4780 N   0  0  0  0  0  0  0  0  0  0  0  0
  143.2570   72.0650  220.7490 C   0  0  0  0  0  0  0  0  0  0  0  0
  144.2990   71.6260  219.7600 C   0  0  0  0  0  0  0  0  0  0  0  0
  145.6690   72.1850  220.0920 C   0  0  0  0  0  0  0  0  0  0  0  0
  145.5360   73.4800  220.8960 C   0  0  0  0  0  0  0  0  0  0  0  0
  144.7870   74.5140  220.0780 C   0  0  0  0  0  0  0  0  0  0  0  0
  143.3730   74.6610  220.5350 C   0  0  0  0  0  0  0  0  0  0  0  0
  140.1060   71.3950  223.6870 C   0  0  0  0  0  0  0  0  0  0  0  0
  139.5180   70.1410  223.6900 C   0  0  0  0  0  0  0  0  0  0  0  0
  139.4270   69.3690  224.8310 C   0  0  0  0  0  0  0  0  0  0  0  0
  139.9630   69.9250  225.9910 C   0  0  0  0  0  0  0  0  0  0  0  0
  139.8940   69.1830  227.1700 C   0  0  0  0  0  0  0  0  0  0  0  0
  140.4240   69.7360  228.3170 C   0  0  0  0  0  0  0  0  0  0  0  0
  141.0160   70.9830  228.3440 C   0  0  0  0  0  0  0  0  0  0  0  0
  141.0680   71.6900  227.1630 C   0  0  0  0  0  0  0  0  0  0  0  0
  140.5520   71.1830  225.9880 C   0  0  0  0  0  0  0  0  0  0  0  0
  140.6070   71.8810  224.8380 N   0  0  0  0  0  0  0  0  0  0  0  0
  140.6860   70.4090  221.2820 H   0  0  0  0  0  0  0  0  0  0  0  0
  141.0268   71.4878  219.2467 H   0  0  0  0  0  0  0  0  0  0  0  0
  139.5426   72.4261  219.7078 H   0  0  0  0  0  0  0  0  0  0  0  0
  143.7117   72.0778  221.7505 H   0  0  0  0  0  0  0  0  0  0  0  0
  142.4231   71.3512  220.6770 H   0  0  0  0  0  0  0  0  0  0  0  0
  144.3530   70.5273  219.7652 H   0  0  0  0  0  0  0  0  0  0  0  0
  144.0083   72.0055  218.7693 H   0  0  0  0  0  0  0  0  0  0  0  0
  146.2281   71.4461  220.6848 H   0  0  0  0  0  0  0  0  0  0  0  0
  146.2034   72.4000  219.1549 H   0  0  0  0  0  0  0  0  0  0  0  0
  144.9832   73.2784  221.8254 H   0  0  0  0  0  0  0  0  0  0  0  0
  146.5382   73.8632  221.1384 H   0  0  0  0  0  0  0  0  0  0  0  0
  145.2963   75.4840  220.1769 H   0  0  0  0  0  0  0  0  0  0  0  0
  144.7758   74.1798  219.0301 H   0  0  0  0  0  0  0  0  0  0  0  0
  143.3570   75.0366  221.5688 H   0  0  0  0  0  0  0  0  0  0  0  0
  142.8446   75.3724  219.8833 H   0  0  0  0  0  0  0  0  0  0  0  0
  139.1085   69.7456  222.7487 H   0  0  0  0  0  0  0  0  0  0  0  0
  138.9589   68.3736  224.8248 H   0  0  0  0  0  0  0  0  0  0  0  0
  139.4303   68.1856  227.1846 H   0  0  0  0  0  0  0  0  0  0  0  0
  140.3728   69.1580  229.2515 H   0  0  0  0  0  0  0  0  0  0  0  0
  141.4311   71.3969  229.2748 H   0  0  0  0  0  0  0  0  0  0  0  0
  141.5338   72.6865  227.1564 H   0  0  0  0  0  0  0  0  0  0  0  0
  1  2  2  0
  2  3  1  0
  3  4  1  0
  4  5  1  0
  5  6  2  0
  5  7  1  0
  7  8  1  0
  8  9  1  0
  9 10  1  0
 10 11  1  0
 11 12  1  0
 12 13  1  0
  2 14  1  0
 14 15  2  0
 15 16  1  0
 16 17  2  0
 17 18  1  0
 18 19  2  0
 19 20  1  0
 20 21  2  0
 21 22  1  0
 22 23  2  0
 13  7  1  0
 23 14  1  0
 22 17  1  0
  3 24  1  0
  4 25  1  0
  4 26  1  0
  8 27  1  0
  8 28  1  0
  9 29  1  0
  9 30  1  0
 10 31  1  0
 10 32  1  0
 11 33  1  0
 11 34  1  0
 12 35  1  0
 12 36  1  0
 13 37  1  0
 13 38  1  0
 15 39  1  0
 16 40  1  0
 18 41  1  0
 19 42  1  0
 20 43  1  0
 21 44  1  0
M  END
>  <smiles>  (30) 
O=C(NCC(=O)N1CCCCCC1)c1ccc2ccccc2n1

>  <score_type>  (30) 
oracle

>  <origin>  (30) 
autodockgpu

>  <m_score__min__energy>  (30) 
-5.8099999999999996

>  <m_primary>  (30) 
energy

>  <rmsd>  (30) 
3.625504839210807

>  <m_score__min__rmsd>  (30) 
3.625504839210807

>  <meeko>  (30) 
{"free_energy": -5.19, "intermolecular_energy": -7.88, "internal_energy": -0.85, "cluster_size": 23, "cluster_id": 2, "rank_in_cluster": 7}

>  <energy>  (30) 
-5.33

>  <cluster_rmsd>  (30) 
0.0

>  <cluster>  (30) 
3

$$$$

     RDKit          3D

 44 46  0  0  0  0  0  0  0  0999 V2000
  136.1170   68.8660  224.3160 O   0  0  0  0  0  0  0  0  0  0  0  0
  136.2440   70.0510  224.7210 C   0  0  0  0  0  0  0  0  0  0  0  0
  137.4790   70.7480  224.5960 N   0  0  0  0  0  0  0  0  0  0  0  0
  138.6020   70.0930  224.0010 C   0  0  0  0  0  0  0  0  0  0  0  0
  139.1410   69.0240  224.8630 C   0  0  0  0  0  0  0  0  0  0  0  0
  138.5420   67.9150  224.8510 O   0  0  0  0  0  0  0  0  0  0  0  0
  140.2750   69.2180  225.6720 N   0  0  0  0  0  0  0  0  0  0  0  0
  140.8590   70.5270  225.5910 C   0  0  0  0  0  0  0  0  0  0  0  0
  140.3060   71.4940  226.5980 C   0  0  0  0  0  0  0  0  0  0  0  0
  140.3170   70.9220  228.0020 C   0  0  0  0  0  0  0  0  0  0  0  0
  141.3620   69.8110  228.1170 C   0  0  0  0  0  0  0  0  0  0  0  0
  140.7030   68.4650  227.9080 C   0  0  0  0  0  0  0  0  0  0  0  0
  140.6870   68.0760  226.4660 C   0  0  0  0  0  0  0  0  0  0  0  0
  135.1190   70.7670  225.3410 C   0  0  0  0  0  0  0  0  0  0  0  0
  134.1030   70.0420  225.9420 C   0  0  0  0  0  0  0  0  0  0  0  0
  133.0170   70.6470  226.5430 C   0  0  0  0  0  0  0  0  0  0  0  0
  132.9980   72.0400  226.5130 C   0  0  0  0  0  0  0  0  0  0  0  0
  131.9210   72.6970  227.1070 C   0  0  0  0  0  0  0  0  0  0  0  0
  131.9040   74.0770  227.0750 C   0  0  0  0  0  0  0  0  0  0  0  0
  132.9020   74.8250  226.4840 C   0  0  0  0  0  0  0  0  0  0  0  0
  133.9520   74.1460  225.9060 C   0  0  0  0  0  0  0  0  0  0  0  0
  134.0170   72.7670  225.9100 C   0  0  0  0  0  0  0  0  0  0  0  0
  135.0460   72.1110  225.3430 N   0  0  0  0  0  0  0  0  0  0  0  0
  137.5650   71.7410  224.9430 H   0  0  0  0  0  0  0  0  0  0  0  0
  138.2891   69.6523  223.0429 H   0  0  0  0  0  0  0  0  0  0  0  0
  139.3937   70.8427  223.8555 H   0  0  0  0  0  0  0  0  0  0  0  0
  141.9428   70.4353  225.7553 H   0  0  0  0  0  0  0  0  0  0  0  0
  140.6199   70.9264  224.5943 H   0  0  0  0  0  0  0  0  0  0  0  0
  140.9157   72.4095  226.5830 H   0  0  0  0  0  0  0  0  0  0  0  0
  139.2614   71.7064  226.3264 H   0  0  0  0  0  0  0  0  0  0  0  0
  140.5583   71.7220  228.7174 H   0  0  0  0  0  0  0  0  0  0  0  0
  139.3246   70.5028  228.2243 H   0  0  0  0  0  0  0  0  0  0  0  0
  142.1391   69.9599  227.3529 H   0  0  0  0  0  0  0  0  0  0  0  0
  141.8166   69.8417  229.1182 H   0  0  0  0  0  0  0  0  0  0  0  0
  141.2581   67.7042  228.4764 H   0  0  0  0  0  0  0  0  0  0  0  0
  139.6618   68.5351  228.2560 H   0  0  0  0  0  0  0  0  0  0  0  0
  141.6942   67.7577  226.1589 H   0  0  0  0  0  0  0  0  0  0  0  0
  139.9829   67.2447  226.3137 H   0  0  0  0  0  0  0  0  0  0  0  0
  134.1636   68.9437  225.9404 H   0  0  0  0  0  0  0  0  0  0  0  0
  132.2141   70.0637  227.0175 H   0  0  0  0  0  0  0  0  0  0  0  0
  131.1085   72.1320  227.5872 H   0  0  0  0  0  0  0  0  0  0  0  0
  131.0580   74.6035  227.5409 H   0  0  0  0  0  0  0  0  0  0  0  0
  132.8604   75.9242  226.4748 H   0  0  0  0  0  0  0  0  0  0  0  0
  134.7608   74.7183  225.4282 H   0  0  0  0  0  0  0  0  0  0  0  0
  1  2  2  0
  2  3  1  0
  3  4  1  0
  4  5  1  0
  5  6  2  0
  5  7  1  0
  7  8  1  0
  8  9  1  0
  9 10  1  0
 10 11  1  0
 11 12  1  0
 12 13  1  0
  2 14  1  0
 14 15  2  0
 15 16  1  0
 16 17  2  0
 17 18  1  0
 18 19  2  0
 19 20  1  0
 20 21  2  0
 21 22  1  0
 22 23  2  0
 13  7  1  0
 23 14  1  0
 22 17  1  0
  3 24  1  0
  4 25  1  0
  4 26  1  0
  8 27  1  0
  8 28  1  0
  9 29  1  0
  9 30  1  0
 10 31  1  0
 10 32  1  0
 11 33  1  0
 11 34  1  0
 12 35  1  0
 12 36  1  0
 13 37  1  0
 13 38  1  0
 15 39  1  0
 16 40  1  0
 18 41  1  0
 19 42  1  0
 20 43  1  0
 21 44  1  0
M  END
>  <smiles>  (31) 
O=C(NCC(=O)N1CCCCCC1)c1ccc2ccccc2n1

>  <score_type>  (31) 
oracle

>  <origin>  (31) 
autodockgpu

>  <m_score__min__energy>  (31) 
-5.8099999999999996

>  <m_primary>  (31) 
energy

>  <rmsd>  (31) 
8.282337535843773

>  <m_score__min__rmsd>  (31) 
8.282337535843773

>  <meeko>  (31) 
{"free_energy": -5.25, "intermolecular_energy": -7.93, "internal_energy": -1.22, "cluster_size": 7, "cluster_id": 3, "rank_in_cluster": 2}

>  <energy>  (31) 
-5.25

>  <cluster_rmsd>  (31) 
0.48

>  <cluster>  (31) 
3

$$$$

     RDKit          3D

 44 46  0  0  0  0  0  0  0  0999 V2000
  136.1440   68.9000  224.3930 O   0  0  0  0  0  0  0  0  0  0  0  0
  136.1700   70.1360  224.6320 C   0  0  0  0  0  0  0  0  0  0  0  0
  137.3090   70.9280  224.3150 N   0  0  0  0  0  0  0  0  0  0  0  0
  138.4510   70.3130  223.7140 C   0  0  0  0  0  0  0  0  0  0  0  0
  139.0760   69.3160  224.6040 C   0  0  0  0  0  0  0  0  0  0  0  0
  138.6150   68.1440  224.5710 O   0  0  0  0  0  0  0  0  0  0  0  0
  140.1430   69.6440  225.4600 N   0  0  0  0  0  0  0  0  0  0  0  0
  140.5690   71.0130  225.3980 C   0  0  0  0  0  0  0  0  0  0  0  0
  141.3310   71.4610  226.6130 C   0  0  0  0  0  0  0  0  0  0  0  0
  140.4730   71.4350  227.8630 C   0  0  0  0  0  0  0  0  0  0  0  0
  139.6640   70.1370  227.9280 C   0  0  0  0  0  0  0  0  0  0  0  0
  140.5800   68.9550  227.7140 C   0  0  0  0  0  0  0  0  0  0  0  0
  140.6530   68.5580  226.2770 C   0  0  0  0  0  0  0  0  0  0  0  0
  135.0200   70.8140  225.2500 C   0  0  0  0  0  0  0  0  0  0  0  0
  133.9650   70.0560  225.7300 C   0  0  0  0  0  0  0  0  0  0  0  0
  132.8540   70.6250  226.3210 C   0  0  0  0  0  0  0  0  0  0  0  0
  132.8530   72.0160  226.4100 C   0  0  0  0  0  0  0  0  0  0  0  0
  131.7520   72.6370  227.0000 C   0  0  0  0  0  0  0  0  0  0  0  0
  131.7520   74.0140  227.0870 C   0  0  0  0  0  0  0  0  0  0  0  0
  132.7900   74.7940  226.6170 C   0  0  0  0  0  0  0  0  0  0  0  0
  133.8630   74.1500  226.0410 C   0  0  0  0  0  0  0  0  0  0  0  0
  133.9110   72.7750  225.9290 C   0  0  0  0  0  0  0  0  0  0  0  0
  134.9630   72.1540  225.3640 N   0  0  0  0  0  0  0  0  0  0  0  0
  137.3100   71.9630  224.5240 H   0  0  0  0  0  0  0  0  0  0  0  0
  138.1374   69.8130  222.7858 H   0  0  0  0  0  0  0  0  0  0  0  0
  139.1929   71.0996  223.5120 H   0  0  0  0  0  0  0  0  0  0  0  0
  141.2157   71.1365  224.5168 H   0  0  0  0  0  0  0  0  0  0  0  0
  139.6610   71.6313  225.3403 H   0  0  0  0  0  0  0  0  0  0  0  0
  142.1918   70.7919  226.7591 H   0  0  0  0  0  0  0  0  0  0  0  0
  141.6572   72.4982  226.4462 H   0  0  0  0  0  0  0  0  0  0  0  0
  141.1213   71.5028  228.7491 H   0  0  0  0  0  0  0  0  0  0  0  0
  139.7784   72.2875  227.8368 H   0  0  0  0  0  0  0  0  0  0  0  0
  139.1844   70.0541  228.9144 H   0  0  0  0  0  0  0  0  0  0  0  0
  138.8939   70.1480  227.1426 H   0  0  0  0  0  0  0  0  0  0  0  0
  141.5895   69.2205  228.0610 H   0  0  0  0  0  0  0  0  0  0  0  0
  140.1755   68.1041  228.2818 H   0  0  0  0  0  0  0  0  0  0  0  0
  141.6983   68.3509  226.0043 H   0  0  0  0  0  0  0  0  0  0  0  0
  140.0502   67.6530  226.1105 H   0  0  0  0  0  0  0  0  0  0  0  0
  134.0137   68.9610  225.6371 H   0  0  0  0  0  0  0  0  0  0  0  0
  132.0193   70.0165  226.6991 H   0  0  0  0  0  0  0  0  0  0  0  0
  130.9080   72.0458  227.3849 H   0  0  0  0  0  0  0  0  0  0  0  0
  130.8878   74.5120  227.5508 H   0  0  0  0  0  0  0  0  0  0  0  0
  132.7611   75.8905  226.6996 H   0  0  0  0  0  0  0  0  0  0  0  0
  134.7043   74.7476  225.6600 H   0  0  0  0  0  0  0  0  0  0  0  0
  1  2  2  0
  2  3  1  0
  3  4  1  0
  4  5  1  0
  5  6  2  0
  5  7  1  0
  7  8  1  0
  8  9  1  0
  9 10  1  0
 10 11  1  0
 11 12  1  0
 12 13  1  0
  2 14  1  0
 14 15  2  0
 15 16  1  0
 16 17  2  0
 17 18  1  0
 18 19  2  0
 19 20  1  0
 20 21  2  0
 21 22  1  0
 22 23  2  0
 13  7  1  0
 23 14  1  0
 22 17  1  0
  3 24  1  0
  4 25  1  0
  4 26  1  0
  8 27  1  0
  8 28  1  0
  9 29  1  0
  9 30  1  0
 10 31  1  0
 10 32  1  0
 11 33  1  0
 11 34  1  0
 12 35  1  0
 12 36  1  0
 13 37  1  0
 13 38  1  0
 15 39  1  0
 16 40  1  0
 18 41  1  0
 19 42  1  0
 20 43  1  0
 21 44  1  0
M  END
>  <smiles>  (32) 
O=C(NCC(=O)N1CCCCCC1)c1ccc2ccccc2n1

>  <score_type>  (32) 
oracle

>  <origin>  (32) 
autodockgpu

>  <m_score__min__energy>  (32) 
-5.8099999999999996

>  <m_primary>  (32) 
energy

>  <rmsd>  (32) 
8.11023853779015

>  <m_score__min__rmsd>  (32) 
8.11023853779015

>  <meeko>  (32) 
{"free_energy": -5.05, "intermolecular_energy": -7.73, "internal_energy": -1.29, "cluster_size": 7, "cluster_id": 3, "rank_in_cluster": 4}

>  <energy>  (32) 
-5.17

>  <cluster_rmsd>  (32) 
0.92

>  <cluster>  (32) 
3

$$$$

     RDKit          3D

 44 46  0  0  0  0  0  0  0  0999 V2000
  141.0040   71.6170  221.3370 O   0  0  0  0  0  0  0  0  0  0  0  0
  140.4580   72.1520  222.3370 C   0  0  0  0  0  0  0  0  0  0  0  0
  140.0130   73.5040  222.3030 N   0  0  0  0  0  0  0  0  0  0  0  0
  140.1880   74.2740  221.1110 C   0  0  0  0  0  0  0  0  0  0  0  0
  140.4690   75.6930  221.4060 C   0  0  0  0  0  0  0  0  0  0  0  0
  139.8370   76.2200  222.3600 O   0  0  0  0  0  0  0  0  0  0  0  0
  141.3980   76.4410  220.6610 N   0  0  0  0  0  0  0  0  0  0  0  0
  142.0450   75.7200  219.6030 C   0  0  0  0  0  0  0  0  0  0  0  0
  141.3990   75.9140  218.2610 C   0  0  0  0  0  0  0  0  0  0  0  0
  141.5270   77.3430  217.7700 C   0  0  0  0  0  0  0  0  0  0  0  0
  142.3750   78.1670  218.7410 C   0  0  0  0  0  0  0  0  0  0  0  0
  141.5100   78.6970  219.8580 C   0  0  0  0  0  0  0  0  0  0  0  0
  141.5660   77.8240  221.0680 C   0  0  0  0  0  0  0  0  0  0  0  0
  140.2560   71.4010  223.5850 C   0  0  0  0  0  0  0  0  0  0  0  0
  139.5980   70.1830  223.5440 C   0  0  0  0  0  0  0  0  0  0  0  0
  139.3730   69.4240  224.6760 C   0  0  0  0  0  0  0  0  0  0  0  0
  139.8490   69.9560  225.8740 C   0  0  0  0  0  0  0  0  0  0  0  0
  139.6450   69.2260  227.0450 C   0  0  0  0  0  0  0  0  0  0  0  0
  140.1160   69.7540  228.2290 C   0  0  0  0  0  0  0  0  0  0  0  0
  140.7750   70.9660  228.3000 C   0  0  0  0  0  0  0  0  0  0  0  0
  140.9590   71.6610  227.1250 C   0  0  0  0  0  0  0  0  0  0  0  0
  140.5080   71.1780  225.9150 C   0  0  0  0  0  0  0  0  0  0  0  0
  140.6920   71.8640  224.7720 N   0  0  0  0  0  0  0  0  0  0  0  0
  139.5570   73.9340  223.1520 H   0  0  0  0  0  0  0  0  0  0  0  0
  141.0298   73.8567  220.5389 H   0  0  0  0  0  0  0  0  0  0  0  0
  139.2524   74.2254  220.5345 H   0  0  0  0  0  0  0  0  0  0  0  0
  143.0893   76.0595  219.5387 H   0  0  0  0  0  0  0  0  0  0  0  0
  141.9674   74.6502  219.8469 H   0  0  0  0  0  0  0  0  0  0  0  0
  141.8820   75.2442  217.5343 H   0  0  0  0  0  0  0  0  0  0  0  0
  140.3281   75.6846  218.3632 H   0  0  0  0  0  0  0  0  0  0  0  0
  142.0058   77.3444  216.7797 H   0  0  0  0  0  0  0  0  0  0  0  0
  140.5236   77.7892  217.7056 H   0  0  0  0  0  0  0  0  0  0  0  0
  143.1668   77.5310  219.1636 H   0  0  0  0  0  0  0  0  0  0  0  0
  142.8253   79.0124  218.2001 H   0  0  0  0  0  0  0  0  0  0  0  0
  141.8581   79.7044  220.1299 H   0  0  0  0  0  0  0  0  0  0  0  0
  140.4695   78.7196  219.5019 H   0  0  0  0  0  0  0  0  0  0  0  0
  142.5390   77.9462  221.5662 H   0  0  0  0  0  0  0  0  0  0  0  0
  140.7646   78.1057  221.7669 H   0  0  0  0  0  0  0  0  0  0  0  0
  139.2414   69.8061  222.5741 H   0  0  0  0  0  0  0  0  0  0  0  0
  138.8495   68.4574  224.6349 H   0  0  0  0  0  0  0  0  0  0  0  0
  139.1238   68.2576  227.0248 H   0  0  0  0  0  0  0  0  0  0  0  0
  139.9600   69.1850  229.1574 H   0  0  0  0  0  0  0  0  0  0  0  0
  141.1394   71.3616  229.2595 H   0  0  0  0  0  0  0  0  0  0  0  0
  141.4807   72.6290  227.1529 H   0  0  0  0  0  0  0  0  0  0  0  0
  1  2  2  0
  2  3  1  0
  3  4  1  0
  4  5  1  0
  5  6  2  0
  5  7  1  0
  7  8  1  0
  8  9  1  0
  9 10  1  0
 10 11  1  0
 11 12  1  0
 12 13  1  0
  2 14  1  0
 14 15  2  0
 15 16  1  0
 16 17  2  0
 17 18  1  0
 18 19  2  0
 19 20  1  0
 20 21  2  0
 21 22  1  0
 22 23  2  0
 13  7  1  0
 23 14  1  0
 22 17  1  0
  3 24  1  0
  4 25  1  0
  4 26  1  0
  8 27  1  0
  8 28  1  0
  9 29  1  0
  9 30  1  0
 10 31  1  0
 10 32  1  0
 11 33  1  0
 11 34  1  0
 12 35  1  0
 12 36  1  0
 13 37  1  0
 13 38  1  0
 15 39  1  0
 16 40  1  0
 18 41  1  0
 19 42  1  0
 20 43  1  0
 21 44  1  0
M  END
>  <smiles>  (33) 
O=C(NCC(=O)N1CCCCCC1)c1ccc2ccccc2n1

>  <score_type>  (33) 
oracle

>  <origin>  (33) 
autodockgpu

>  <m_score__min__energy>  (33) 
-5.8099999999999996

>  <m_primary>  (33) 
energy

>  <rmsd>  (33) 
2.399098573276909

>  <m_score__min__rmsd>  (33) 
2.399098573276909

>  <meeko>  (33) 
{"free_energy": -4.65, "intermolecular_energy": -7.34, "internal_energy": -1.26, "cluster_size": 2, "cluster_id": 6, "rank_in_cluster": 2}

>  <energy>  (33) 
-5.05

>  <cluster_rmsd>  (33) 
0.51

>  <cluster>  (33) 
3

$$$$

     RDKit          3D

 44 46  0  0  0  0  0  0  0  0999 V2000
  139.4770   70.7720  221.2870 O   0  0  0  0  0  0  0  0  0  0  0  0
  139.5420   71.4200  222.3640 C   0  0  0  0  0  0  0  0  0  0  0  0
  139.4810   72.8420  222.3790 N   0  0  0  0  0  0  0  0  0  0  0  0
  139.3420   73.5550  221.1470 C   0  0  0  0  0  0  0  0  0  0  0  0
  140.3910   74.5800  220.9800 C   0  0  0  0  0  0  0  0  0  0  0  0
  140.1040   75.7590  221.3210 O   0  0  0  0  0  0  0  0  0  0  0  0
  141.6620   74.2720  220.4630 N   0  0  0  0  0  0  0  0  0  0  0  0
  141.8540   72.8930  220.1140 C   0  0  0  0  0  0  0  0  0  0  0  0
  143.0400   72.2630  220.7870 C   0  0  0  0  0  0  0  0  0  0  0  0
  144.3400   72.6040  220.0850 C   0  0  0  0  0  0  0  0  0  0  0  0
  144.7030   74.0710  220.3200 C   0  0  0  0  0  0  0  0  0  0  0  0
  143.7640   74.9630  219.5400 C   0  0  0  0  0  0  0  0  0  0  0  0
  142.5870   75.3840  220.3560 C   0  0  0  0  0  0  0  0  0  0  0  0
  139.6860   70.7330  223.6570 C   0  0  0  0  0  0  0  0  0  0  0  0
  139.2630   69.4190  223.7760 C   0  0  0  0  0  0  0  0  0  0  0  0
  139.3660   68.7120  224.9570 C   0  0  0  0  0  0  0  0  0  0  0  0
  139.9250   69.3980  226.0340 C   0  0  0  0  0  0  0  0  0  0  0  0
  140.0500   68.7250  227.2500 C   0  0  0  0  0  0  0  0  0  0  0  0
  140.6030   69.4070  228.3150 C   0  0  0  0  0  0  0  0  0  0  0  0
  141.0330   70.7160  228.2250 C   0  0  0  0  0  0  0  0  0  0  0  0
  140.8950   71.3520  227.0110 C   0  0  0  0  0  0  0  0  0  0  0  0
  140.3480   70.7150  225.9150 C   0  0  0  0  0  0  0  0  0  0  0  0
  140.2170   71.3440  224.7320 N   0  0  0  0  0  0  0  0  0  0  0  0
  139.5370   73.3660  223.2930 H   0  0  0  0  0  0  0  0  0  0  0  0
  139.4080   72.8402  220.3136 H   0  0  0  0  0  0  0  0  0  0  0  0
  138.3673   74.0648  221.1576 H   0  0  0  0  0  0  0  0  0  0  0  0
  140.9523   72.3325  220.4016 H   0  0  0  0  0  0  0  0  0  0  0  0
  142.0405   72.8569  219.0305 H   0  0  0  0  0  0  0  0  0  0  0  0
  143.0920   72.6233  221.8250 H   0  0  0  0  0  0  0  0  0  0  0  0
  142.9107   71.1712  220.7503 H   0  0  0  0  0  0  0  0  0  0  0  0
  145.1434   71.9641  220.4788 H   0  0  0  0  0  0  0  0  0  0  0  0
  144.2177   72.4349  219.0050 H   0  0  0  0  0  0  0  0  0  0  0  0
  144.6182   74.3008  221.3924 H   0  0  0  0  0  0  0  0  0  0  0  0
  145.7351   74.2479  219.9832 H   0  0  0  0  0  0  0  0  0  0  0  0
  144.3123   75.8605  219.2177 H   0  0  0  0  0  0  0  0  0  0  0  0
  143.3923   74.3927  218.6759 H   0  0  0  0  0  0  0  0  0  0  0  0
  142.9226   75.6820  221.3603 H   0  0  0  0  0  0  0  0  0  0  0  0
  142.0873   76.2369  219.8734 H   0  0  0  0  0  0  0  0  0  0  0  0
  138.8290   68.9207  222.8966 H   0  0  0  0  0  0  0  0  0  0  0  0
  139.0270   67.6691  225.0432 H   0  0  0  0  0  0  0  0  0  0  0  0
  139.7177   67.6818  227.3567 H   0  0  0  0  0  0  0  0  0  0  0  0
  140.7056   68.8848  229.2777 H   0  0  0  0  0  0  0  0  0  0  0  0
  141.4703   71.2327  229.0921 H   0  0  0  0  0  0  0  0  0  0  0  0
  141.2295   72.3952  226.9121 H   0  0  0  0  0  0  0  0  0  0  0  0
  1  2  2  0
  2  3  1  0
  3  4  1  0
  4  5  1  0
  5  6  2  0
  5  7  1  0
  7  8  1  0
  8  9  1  0
  9 10  1  0
 10 11  1  0
 11 12  1  0
 12 13  1  0
  2 14  1  0
 14 15  2  0
 15 16  1  0
 16 17  2  0
 17 18  1  0
 18 19  2  0
 19 20  1  0
 20 21  2  0
 21 22  1  0
 22 23  2  0
 13  7  1  0
 23 14  1  0
 22 17  1  0
  3 24  1  0
  4 25  1  0
  4 26  1  0
  8 27  1  0
  8 28  1  0
  9 29  1  0
  9 30  1  0
 10 31  1  0
 10 32  1  0
 11 33  1  0
 11 34  1  0
 12 35  1  0
 12 36  1  0
 13 37  1  0
 13 38  1  0
 15 39  1  0
 16 40  1  0
 18 41  1  0
 19 42  1  0
 20 43  1  0
 21 44  1  0
M  END
>  <smiles>  (34) 
O=C(NCC(=O)N1CCCCCC1)c1ccc2ccccc2n1

>  <score_type>  (34) 
oracle

>  <origin>  (34) 
autodockgpu

>  <m_score__min__energy>  (34) 
-5.8099999999999996

>  <m_primary>  (34) 
energy

>  <rmsd>  (34) 
2.8724619398844338

>  <m_score__min__rmsd>  (34) 
2.8724619398844338

>  <meeko>  (34) 
{"free_energy": -4.82, "intermolecular_energy": -7.5, "internal_energy": -1.31, "cluster_size": 23, "cluster_id": 2, "rank_in_cluster": 16}

>  <energy>  (34) 
-5.0

>  <cluster_rmsd>  (34) 
1.29

>  <cluster>  (34) 
3

$$$$

     RDKit          3D

 44 46  0  0  0  0  0  0  0  0999 V2000
  134.9960   76.9130  224.1230 O   0  0  0  0  0  0  0  0  0  0  0  0
  135.6340   75.8410  223.9520 C   0  0  0  0  0  0  0  0  0  0  0  0
  136.8750   75.8200  223.2550 N   0  0  0  0  0  0  0  0  0  0  0  0
  137.4120   77.0390  222.7350 C   0  0  0  0  0  0  0  0  0  0  0  0
  138.8800   76.9790  222.5910 C   0  0  0  0  0  0  0  0  0  0  0  0
  139.3940   75.8490  222.3780 O   0  0  0  0  0  0  0  0  0  0  0  0
  139.6870   78.1270  222.6860 N   0  0  0  0  0  0  0  0  0  0  0  0
  138.9740   79.3490  222.9320 C   0  0  0  0  0  0  0  0  0  0  0  0
  139.6330   80.5600  222.3370 C   0  0  0  0  0  0  0  0  0  0  0  0
  140.8020   81.0410  223.1750 C   0  0  0  0  0  0  0  0  0  0  0  0
  142.0420   80.1900  222.8980 C   0  0  0  0  0  0  0  0  0  0  0  0
  141.8500   78.8020  223.4700 C   0  0  0  0  0  0  0  0  0  0  0  0
  141.1120   77.9120  222.5250 C   0  0  0  0  0  0  0  0  0  0  0  0
  135.1230   74.5620  224.4680 C   0  0  0  0  0  0  0  0  0  0  0  0
  135.6280   73.3760  223.9620 C   0  0  0  0  0  0  0  0  0  0  0  0
  135.1940   72.1410  224.3990 C   0  0  0  0  0  0  0  0  0  0  0  0
  134.2120   72.1500  225.3870 C   0  0  0  0  0  0  0  0  0  0  0  0
  133.7420   70.9260  225.8610 C   0  0  0  0  0  0  0  0  0  0  0  0
  132.7680   70.9380  226.8390 C   0  0  0  0  0  0  0  0  0  0  0  0
  132.2460   72.1050  227.3620 C   0  0  0  0  0  0  0  0  0  0  0  0
  132.7320   73.2970  226.8720 C   0  0  0  0  0  0  0  0  0  0  0  0
  133.7050   73.3400  225.8950 C   0  0  0  0  0  0  0  0  0  0  0  0
  134.1730   74.5100  225.4220 N   0  0  0  0  0  0  0  0  0  0  0  0
  137.3940   74.9110  223.1230 H   0  0  0  0  0  0  0  0  0  0  0  0
  136.9658   77.2313  221.7481 H   0  0  0  0  0  0  0  0  0  0  0  0
  137.1726   77.8456  223.4436 H   0  0  0  0  0  0  0  0  0  0  0  0
  137.9656   79.2557  222.5026 H   0  0  0  0  0  0  0  0  0  0  0  0
  138.9528   79.4962  224.0219 H   0  0  0  0  0  0  0  0  0  0  0  0
  139.9979   80.3071  221.3306 H   0  0  0  0  0  0  0  0  0  0  0  0
  138.8875   81.3679  222.2990 H   0  0  0  0  0  0  0  0  0  0  0  0
  141.0193   82.0901  222.9258 H   0  0  0  0  0  0  0  0  0  0  0  0
  140.5387   80.9522  224.2393 H   0  0  0  0  0  0  0  0  0  0  0  0
  142.2006   80.1186  221.8118 H   0  0  0  0  0  0  0  0  0  0  0  0
  142.9174   80.6595  223.3705 H   0  0  0  0  0  0  0  0  0  0  0  0
  142.8368   78.3621  223.6768 H   0  0  0  0  0  0  0  0  0  0  0  0
  141.2565   78.8903  224.3919 H   0  0  0  0  0  0  0  0  0  0  0  0
  141.4057   78.1478  221.4915 H   0  0  0  0  0  0  0  0  0  0  0  0
  141.3549   76.8608  222.7396 H   0  0  0  0  0  0  0  0  0  0  0  0
  136.4036   73.4199  223.1832 H   0  0  0  0  0  0  0  0  0  0  0  0
  135.6000   71.2037  223.9908 H   0  0  0  0  0  0  0  0  0  0  0  0
  134.1361   69.9777  225.4668 H   0  0  0  0  0  0  0  0  0  0  0  0
  132.3912   69.9767  227.2183 H   0  0  0  0  0  0  0  0  0  0  0  0
  131.4703   72.0832  228.1416 H   0  0  0  0  0  0  0  0  0  0  0  0
  132.3330   74.2413  227.2709 H   0  0  0  0  0  0  0  0  0  0  0  0
  1  2  2  0
  2  3  1  0
  3  4  1  0
  4  5  1  0
  5  6  2  0
  5  7  1  0
  7  8  1  0
  8  9  1  0
  9 10  1  0
 10 11  1  0
 11 12  1  0
 12 13  1  0
  2 14  1  0
 14 15  2  0
 15 16  1  0
 16 17  2  0
 17 18  1  0
 18 19  2  0
 19 20  1  0
 20 21  2  0
 21 22  1  0
 22 23  2  0
 13  7  1  0
 23 14  1  0
 22 17  1  0
  3 24  1  0
  4 25  1  0
  4 26  1  0
  8 27  1  0
  8 28  1  0
  9 29  1  0
  9 30  1  0
 10 31  1  0
 10 32  1  0
 11 33  1  0
 11 34  1  0
 12 35  1  0
 12 36  1  0
 13 37  1  0
 13 38  1  0
 15 39  1  0
 16 40  1  0
 18 41  1  0
 19 42  1  0
 20 43  1  0
 21 44  1  0
M  END
>  <smiles>  (35) 
O=C(NCC(=O)N1CCCCCC1)c1ccc2ccccc2n1

>  <score_type>  (35) 
oracle

>  <origin>  (35) 
autodockgpu

>  <m_score__min__energy>  (35) 
-5.8099999999999996

>  <m_primary>  (35) 
energy

>  <rmsd>  (35) 
6.090250175676613

>  <m_score__min__rmsd>  (35) 
6.090250175676613

>  <meeko>  (35) 
{"free_energy": -4.5, "intermolecular_energy": -7.19, "internal_energy": -1.21, "cluster_size": 2, "cluster_id": 7, "rank_in_cluster": 1}

>  <energy>  (35) 
-4.7

>  <cluster_rmsd>  (35) 
1.43

>  <cluster>  (35) 
3

$$$$

     RDKit          3D

 44 46  0  0  0  0  0  0  0  0999 V2000
  140.2330   70.4260  222.0040 O   0  0  0  0  0  0  0  0  0  0  0  0
  140.2490   71.6140  222.4190 C   0  0  0  0  0  0  0  0  0  0  0  0
  139.5320   72.0010  223.5860 N   0  0  0  0  0  0  0  0  0  0  0  0
  138.7760   71.0250  224.3060 C   0  0  0  0  0  0  0  0  0  0  0  0
  139.6140   69.8970  224.7570 C   0  0  0  0  0  0  0  0  0  0  0  0
  139.4450   68.7870  224.1840 O   0  0  0  0  0  0  0  0  0  0  0  0
  140.5670   70.0370  225.7820 N   0  0  0  0  0  0  0  0  0  0  0  0
  140.6560   71.3530  226.3480 C   0  0  0  0  0  0  0  0  0  0  0  0
  140.5720   71.3690  227.8480 C   0  0  0  0  0  0  0  0  0  0  0  0
  139.7850   70.1900  228.3860 C   0  0  0  0  0  0  0  0  0  0  0  0
  140.6890   68.9640  228.5240 C   0  0  0  0  0  0  0  0  0  0  0  0
  140.6370   68.1430  227.2500 C   0  0  0  0  0  0  0  0  0  0  0  0
  141.3150   68.8400  226.1170 C   0  0  0  0  0  0  0  0  0  0  0  0
  141.0120   72.6550  221.7130 C   0  0  0  0  0  0  0  0  0  0  0  0
  142.1040   72.2900  220.9430 C   0  0  0  0  0  0  0  0  0  0  0  0
  142.8650   73.2130  220.2540 C   0  0  0  0  0  0  0  0  0  0  0  0
  142.4720   74.5440  220.3750 C   0  0  0  0  0  0  0  0  0  0  0  0
  143.2110   75.5140  219.6960 C   0  0  0  0  0  0  0  0  0  0  0  0
  142.8200   76.8320  219.8190 C   0  0  0  0  0  0  0  0  0  0  0  0
  141.7360   77.2240  220.5790 C   0  0  0  0  0  0  0  0  0  0  0  0
  141.0270   76.2420  221.2360 C   0  0  0  0  0  0  0  0  0  0  0  0
  141.3770   74.9100  221.1470 C   0  0  0  0  0  0  0  0  0  0  0  0
  140.6790   73.9570  221.7930 N   0  0  0  0  0  0  0  0  0  0  0  0
  139.5590   73.0030  223.9170 H   0  0  0  0  0  0  0  0  0  0  0  0
  138.3236   71.5051  225.1862 H   0  0  0  0  0  0  0  0  0  0  0  0
  138.0057   70.6260  223.6296 H   0  0  0  0  0  0  0  0  0  0  0  0
  141.6173   71.7961  226.0487 H   0  0  0  0  0  0  0  0  0  0  0  0
  139.7960   71.9256  225.9704 H   0  0  0  0  0  0  0  0  0  0  0  0
  141.5909   71.3339  228.2610 H   0  0  0  0  0  0  0  0  0  0  0  0
  140.0518   72.2903  228.1491 H   0  0  0  0  0  0  0  0  0  0  0  0
  139.3727   70.4492  229.3723 H   0  0  0  0  0  0  0  0  0  0  0  0
  138.9700   69.9554  227.6854 H   0  0  0  0  0  0  0  0  0  0  0  0
  141.7233   69.2913  228.7059 H   0  0  0  0  0  0  0  0  0  0  0  0
  140.3417   68.3491  229.3674 H   0  0  0  0  0  0  0  0  0  0  0  0
  141.1369   67.1791  227.4262 H   0  0  0  0  0  0  0  0  0  0  0  0
  139.5810   67.9952  226.9796 H   0  0  0  0  0  0  0  0  0  0  0  0
  142.3380   69.1154  226.4129 H   0  0  0  0  0  0  0  0  0  0  0  0
  141.3585   68.1729  225.2435 H   0  0  0  0  0  0  0  0  0  0  0  0
  142.3747   71.2258  220.8781 H   0  0  0  0  0  0  0  0  0  0  0  0
  143.7312   72.9149  219.6450 H   0  0  0  0  0  0  0  0  0  0  0  0
  144.0796   75.2362  219.0809 H   0  0  0  0  0  0  0  0  0  0  0  0
  143.3971   77.6036  219.2885 H   0  0  0  0  0  0  0  0  0  0  0  0
  141.4485   78.2829  220.6572 H   0  0  0  0  0  0  0  0  0  0  0  0
  140.1586   76.5274  221.8479 H   0  0  0  0  0  0  0  0  0  0  0  0
  1  2  2  0
  2  3  1  0
  3  4  1  0
  4  5  1  0
  5  6  2  0
  5  7  1  0
  7  8  1  0
  8  9  1  0
  9 10  1  0
 10 11  1  0
 11 12  1  0
 12 13  1  0
  2 14  1  0
 14 15  2  0
 15 16  1  0
 16 17  2  0
 17 18  1  0
 18 19  2  0
 19 20  1  0
 20 21  2  0
 21 22  1  0
 22 23  2  0
 13  7  1  0
 23 14  1  0
 22 17  1  0
  3 24  1  0
  4 25  1  0
  4 26  1  0
  8 27  1  0
  8 28  1  0
  9 29  1  0
  9 30  1  0
 10 31  1  0
 10 32  1  0
 11 33  1  0
 11 34  1  0
 12 35  1  0
 12 36  1  0
 13 37  1  0
 13 38  1  0
 15 39  1  0
 16 40  1  0
 18 41  1  0
 19 42  1  0
 20 43  1  0
 21 44  1  0
M  END
>  <smiles>  (36) 
O=C(NCC(=O)N1CCCCCC1)c1ccc2ccccc2n1

>  <score_type>  (36) 
oracle

>  <origin>  (36) 
autodockgpu

>  <m_score__min__energy>  (36) 
-5.8099999999999996

>  <m_primary>  (36) 
energy

>  <rmsd>  (36) 
8.389658965002566

>  <m_score__min__rmsd>  (36) 
8.389658965002566

>  <meeko>  (36) 
{"free_energy": -5.16, "intermolecular_energy": -7.85, "internal_energy": -1.18, "cluster_size": 6, "cluster_id": 1, "rank_in_cluster": 4}

>  <energy>  (36) 
-4.35

>  <cluster_rmsd>  (36) 
1.32

>  <cluster>  (36) 
3

$$$$

     RDKit          3D

 44 46  0  0  0  0  0  0  0  0999 V2000
  137.2660   76.3970  222.3840 O   0  0  0  0  0  0  0  0  0  0  0  0
  138.5230   76.4590  222.4070 C   0  0  0  0  0  0  0  0  0  0  0  0
  139.3270   75.3200  222.1170 N   0  0  0  0  0  0  0  0  0  0  0  0
  138.6990   74.0780  221.7930 C   0  0  0  0  0  0  0  0  0  0  0  0
  139.4130   72.9270  222.3810 C   0  0  0  0  0  0  0  0  0  0  0  0
  140.6720   72.9750  222.3930 O   0  0  0  0  0  0  0  0  0  0  0  0
  138.7310   71.8150  222.9080 N   0  0  0  0  0  0  0  0  0  0  0  0
  137.3000   71.8900  222.8290 C   0  0  0  0  0  0  0  0  0  0  0  0
  136.6090   70.6200  223.2360 C   0  0  0  0  0  0  0  0  0  0  0  0
  136.9850   69.4550  222.3410 C   0  0  0  0  0  0  0  0  0  0  0  0
  138.2250   68.7430  222.8860 C   0  0  0  0  0  0  0  0  0  0  0  0
  139.4620   69.5560  222.5740 C   0  0  0  0  0  0  0  0  0  0  0  0
  139.5680   70.7610  223.4500 C   0  0  0  0  0  0  0  0  0  0  0  0
  139.2160   77.7140  222.7350 C   0  0  0  0  0  0  0  0  0  0  0  0
  138.4710   78.8260  223.0910 C   0  0  0  0  0  0  0  0  0  0  0  0
  139.0540   80.0360  223.4110 C   0  0  0  0  0  0  0  0  0  0  0  0
  140.4460   80.0790  223.3570 C   0  0  0  0  0  0  0  0  0  0  0  0
  141.0800   81.2810  223.6720 C   0  0  0  0  0  0  0  0  0  0  0  0
  142.4590   81.3210  223.6170 C   0  0  0  0  0  0  0  0  0  0  0  0
  143.2270   80.2280  223.2670 C   0  0  0  0  0  0  0  0  0  0  0  0
  142.5690   79.0570  222.9620 C   0  0  0  0  0  0  0  0  0  0  0  0
  141.1930   78.9640  223.0000 C   0  0  0  0  0  0  0  0  0  0  0  0
  140.5580   77.8160  222.7010 N   0  0  0  0  0  0  0  0  0  0  0  0
  140.3800   75.3940  222.1420 H   0  0  0  0  0  0  0  0  0  0  0  0
  137.6683   74.0904  222.1771 H   0  0  0  0  0  0  0  0  0  0  0  0
  138.7147   73.9646  220.6990 H   0  0  0  0  0  0  0  0  0  0  0  0
  136.9570   72.6999  223.4896 H   0  0  0  0  0  0  0  0  0  0  0  0
  137.0438   72.0737  221.7751 H   0  0  0  0  0  0  0  0  0  0  0  0
  136.8920   70.3781  224.2711 H   0  0  0  0  0  0  0  0  0  0  0  0
  135.5244   70.7803  223.1463 H   0  0  0  0  0  0  0  0  0  0  0  0
  136.1469   68.7437  222.3005 H   0  0  0  0  0  0  0  0  0  0  0  0
  137.2061   69.8359  221.3330 H   0  0  0  0  0  0  0  0  0  0  0  0
  138.1298   68.6267  223.9757 H   0  0  0  0  0  0  0  0  0  0  0  0
  138.3123   67.7535  222.4136 H   0  0  0  0  0  0  0  0  0  0  0  0
  140.3505   68.9256  222.7263 H   0  0  0  0  0  0  0  0  0  0  0  0
  139.3937   69.8964  221.5302 H   0  0  0  0  0  0  0  0  0  0  0  0
  139.2312   70.5087  224.4663 H   0  0  0  0  0  0  0  0  0  0  0  0
  140.6135   71.1005  223.4896 H   0  0  0  0  0  0  0  0  0  0  0  0
  137.3746   78.7421  223.1199 H   0  0  0  0  0  0  0  0  0  0  0  0
  138.4549   80.9147  223.6921 H   0  0  0  0  0  0  0  0  0  0  0  0
  140.4985   82.1706  223.9558 H   0  0  0  0  0  0  0  0  0  0  0  0
  142.9681   82.2646  223.8627 H   0  0  0  0  0  0  0  0  0  0  0  0
  144.3247   80.2903  223.2330 H   0  0  0  0  0  0  0  0  0  0  0  0
  143.1571   78.1711  222.6802 H   0  0  0  0  0  0  0  0  0  0  0  0
  1  2  2  0
  2  3  1  0
  3  4  1  0
  4  5  1  0
  5  6  2  0
  5  7  1  0
  7  8  1  0
  8  9  1  0
  9 10  1  0
 10 11  1  0
 11 12  1  0
 12 13  1  0
  2 14  1  0
 14 15  2  0
 15 16  1  0
 16 17  2  0
 17 18  1  0
 18 19  2  0
 19 20  1  0
 20 21  2  0
 21 22  1  0
 22 23  2  0
 13  7  1  0
 23 14  1  0
 22 17  1  0
  3 24  1  0
  4 25  1  0
  4 26  1  0
  8 27  1  0
  8 28  1  0
  9 29  1  0
  9 30  1  0
 10 31  1  0
 10 32  1  0
 11 33  1  0
 11 34  1  0
 12 35  1  0
 12 36  1  0
 13 37  1  0
 13 38  1  0
 15 39  1  0
 16 40  1  0
 18 41  1  0
 19 42  1  0
 20 43  1  0
 21 44  1  0
M  END
>  <smiles>  (37) 
O=C(NCC(=O)N1CCCCCC1)c1ccc2ccccc2n1

>  <score_type>  (37) 
oracle

>  <origin>  (37) 
autodockgpu

>  <m_score__min__energy>  (37) 
-5.8099999999999996

>  <m_primary>  (37) 
energy

>  <rmsd>  (37) 
8.541821344072895

>  <m_score__min__rmsd>  (37) 
8.541821344072895

>  <meeko>  (37) 
{"free_energy": -3.98, "intermolecular_energy": -6.67, "internal_energy": -1.43, "cluster_size": 1, "cluster_id": 8, "rank_in_cluster": 1}

>  <energy>  (37) 
-5.2

>  <cluster_rmsd>  (37) 
0.0

>  <cluster>  (37) 
4

$$$$

     RDKit          3D

 44 46  0  0  0  0  0  0  0  0999 V2000
  136.0000   68.9520  224.2530 O   0  0  0  0  0  0  0  0  0  0  0  0
  136.1600   70.1530  224.5940 C   0  0  0  0  0  0  0  0  0  0  0  0
  137.3600   70.8560  224.2910 N   0  0  0  0  0  0  0  0  0  0  0  0
  138.4090   70.1890  223.5860 C   0  0  0  0  0  0  0  0  0  0  0  0
  139.0950   69.1900  224.4280 C   0  0  0  0  0  0  0  0  0  0  0  0
  138.7540   67.9850  224.2860 O   0  0  0  0  0  0  0  0  0  0  0  0
  140.0880   69.5500  225.3560 N   0  0  0  0  0  0  0  0  0  0  0  0
  140.3780   70.9550  225.4160 C   0  0  0  0  0  0  0  0  0  0  0  0
  140.8430   71.4150  226.7680 C   0  0  0  0  0  0  0  0  0  0  0  0
  139.9820   70.8570  227.8850 C   0  0  0  0  0  0  0  0  0  0  0  0
  140.5330   69.5120  228.3620 C   0  0  0  0  0  0  0  0  0  0  0  0
  140.0340   68.4070  227.4620 C   0  0  0  0  0  0  0  0  0  0  0  0
  140.6710   68.4580  226.1120 C   0  0  0  0  0  0  0  0  0  0  0  0
  135.1100   70.8820  225.3210 C   0  0  0  0  0  0  0  0  0  0  0  0
  134.2020   70.1730  226.0910 C   0  0  0  0  0  0  0  0  0  0  0  0
  133.1910   70.7910  226.8000 C   0  0  0  0  0  0  0  0  0  0  0  0
  133.1330   72.1800  226.6990 C   0  0  0  0  0  0  0  0  0  0  0  0
  132.1280   72.8490  227.3980 C   0  0  0  0  0  0  0  0  0  0  0  0
  132.0710   74.2240  227.2960 C   0  0  0  0  0  0  0  0  0  0  0  0
  132.9630   74.9570  226.5360 C   0  0  0  0  0  0  0  0  0  0  0  0
  133.9430   74.2650  225.8590 C   0  0  0  0  0  0  0  0  0  0  0  0
  134.0420   72.8910  225.9270 C   0  0  0  0  0  0  0  0  0  0  0  0
  135.0030   72.2230  225.2620 N   0  0  0  0  0  0  0  0  0  0  0  0
  137.4730   71.8630  224.5860 H   0  0  0  0  0  0  0  0  0  0  0  0
  137.9802   69.6803  222.7100 H   0  0  0  0  0  0  0  0  0  0  0  0
  139.1495   70.9449  223.2854 H   0  0  0  0  0  0  0  0  0  0  0  0
  141.1662   71.1792  224.6822 H   0  0  0  0  0  0  0  0  0  0  0  0
  139.4406   71.4878  225.1984 H   0  0  0  0  0  0  0  0  0  0  0  0
  141.8804   71.0820  226.9191 H   0  0  0  0  0  0  0  0  0  0  0  0
  140.7691   72.5121  226.7977 H   0  0  0  0  0  0  0  0  0  0  0  0
  139.9763   71.5653  228.7266 H   0  0  0  0  0  0  0  0  0  0  0  0
  138.9592   70.7100  227.5077 H   0  0  0  0  0  0  0  0  0  0  0  0
  141.6324   69.5372  228.3343 H   0  0  0  0  0  0  0  0  0  0  0  0
  140.1925   69.3242  229.3910 H   0  0  0  0  0  0  0  0  0  0  0  0
  140.2647   67.4375  227.9277 H   0  0  0  0  0  0  0  0  0  0  0  0
  138.9494   68.5365  227.3323 H   0  0  0  0  0  0  0  0  0  0  0  0
  141.7534   68.6212  226.2208 H   0  0  0  0  0  0  0  0  0  0  0  0
  140.5006   67.5080  225.5844 H   0  0  0  0  0  0  0  0  0  0  0  0
  134.2898   69.0776  226.1392 H   0  0  0  0  0  0  0  0  0  0  0  0
  132.4737   70.2208  227.4086 H   0  0  0  0  0  0  0  0  0  0  0  0
  131.4021   72.2965  228.0126 H   0  0  0  0  0  0  0  0  0  0  0  0
  131.2815   74.7599  227.8432 H   0  0  0  0  0  0  0  0  0  0  0  0
  132.8929   76.0530  226.4740 H   0  0  0  0  0  0  0  0  0  0  0  0
  134.6666   74.8237  225.2472 H   0  0  0  0  0  0  0  0  0  0  0  0
  1  2  2  0
  2  3  1  0
  3  4  1  0
  4  5  1  0
  5  6  2  0
  5  7  1  0
  7  8  1  0
  8  9  1  0
  9 10  1  0
 10 11  1  0
 11 12  1  0
 12 13  1  0
  2 14  1  0
 14 15  2  0
 15 16  1  0
 16 17  2  0
 17 18  1  0
 18 19  2  0
 19 20  1  0
 20 21  2  0
 21 22  1  0
 22 23  2  0
 13  7  1  0
 23 14  1  0
 22 17  1  0
  3 24  1  0
  4 25  1  0
  4 26  1  0
  8 27  1  0
  8 28  1  0
  9 29  1  0
  9 30  1  0
 10 31  1  0
 10 32  1  0
 11 33  1  0
 11 34  1  0
 12 35  1  0
 12 36  1  0
 13 37  1  0
 13 38  1  0
 15 39  1  0
 16 40  1  0
 18 41  1  0
 19 42  1  0
 20 43  1  0
 21 44  1  0
M  END
>  <smiles>  (38) 
O=C(NCC(=O)N1CCCCCC1)c1ccc2ccccc2n1

>  <score_type>  (38) 
oracle

>  <origin>  (38) 
autodockgpu

>  <m_score__min__energy>  (38) 
-5.8099999999999996

>  <m_primary>  (38) 
energy

>  <rmsd>  (38) 
8.154472309028073

>  <m_score__min__rmsd>  (38) 
8.154472309028073

>  <meeko>  (38) 
{"free_energy": -5.33, "intermolecular_energy": -8.01, "internal_energy": -1.29, "cluster_size": 7, "cluster_id": 3, "rank_in_cluster": 1}

>  <energy>  (38) 
-5.17

>  <cluster_rmsd>  (38) 
0.43

>  <cluster>  (38) 
4

$$$$

     RDKit          3D

 44 46  0  0  0  0  0  0  0  0999 V2000
  139.9300   71.0170  221.2860 O   0  0  0  0  0  0  0  0  0  0  0  0
  139.8970   71.6680  222.3630 C   0  0  0  0  0  0  0  0  0  0  0  0
  139.9110   73.0910  222.3690 N   0  0  0  0  0  0  0  0  0  0  0  0
  139.9660   73.8010  221.1300 C   0  0  0  0  0  0  0  0  0  0  0  0
  141.1900   74.6170  221.0120 C   0  0  0  0  0  0  0  0  0  0  0  0
  141.2590   75.6590  221.7170 O   0  0  0  0  0  0  0  0  0  0  0  0
  142.2450   74.2610  220.1540 N   0  0  0  0  0  0  0  0  0  0  0  0
  142.0360   73.0520  219.4090 C   0  0  0  0  0  0  0  0  0  0  0  0
  142.5380   71.8210  220.1080 C   0  0  0  0  0  0  0  0  0  0  0  0
  143.9200   72.0250  220.6980 C   0  0  0  0  0  0  0  0  0  0  0  0
  144.6980   73.0620  219.8870 C   0  0  0  0  0  0  0  0  0  0  0  0
  144.6010   74.4100  220.5710 C   0  0  0  0  0  0  0  0  0  0  0  0
  143.3830   75.1610  220.1450 C   0  0  0  0  0  0  0  0  0  0  0  0
  139.8410   70.9820  223.6630 C   0  0  0  0  0  0  0  0  0  0  0  0
  139.3490   69.6890  223.7270 C   0  0  0  0  0  0  0  0  0  0  0  0
  139.2670   68.9860  224.9120 C   0  0  0  0  0  0  0  0  0  0  0  0
  139.7120   69.6530  226.0520 C   0  0  0  0  0  0  0  0  0  0  0  0
  139.6490   68.9830  227.2740 C   0  0  0  0  0  0  0  0  0  0  0  0
  140.0890   69.6460  228.4010 C   0  0  0  0  0  0  0  0  0  0  0  0
  140.5850   70.9350  228.3680 C   0  0  0  0  0  0  0  0  0  0  0  0
  140.6330   71.5680  227.1450 C   0  0  0  0  0  0  0  0  0  0  0  0
  140.2050   70.9500  225.9880 C   0  0  0  0  0  0  0  0  0  0  0  0
  140.2560   71.5760  224.7980 N   0  0  0  0  0  0  0  0  0  0  0  0
  139.8830   73.6180  223.2840 H   0  0  0  0  0  0  0  0  0  0  0  0
  139.9425   73.0751  220.3038 H   0  0  0  0  0  0  0  0  0  0  0  0
  139.1012   74.4795  221.0896 H   0  0  0  0  0  0  0  0  0  0  0  0
  140.9568   72.9353  219.2311 H   0  0  0  0  0  0  0  0  0  0  0  0
  142.6063   73.1469  218.4732 H   0  0  0  0  0  0  0  0  0  0  0  0
  141.8404   71.5638  220.9187 H   0  0  0  0  0  0  0  0  0  0  0  0
  142.6021   71.0117  219.3657 H   0  0  0  0  0  0  0  0  0  0  0  0
  143.8228   72.3754  221.7362 H   0  0  0  0  0  0  0  0  0  0  0  0
  144.4642   71.0694  220.6710 H   0  0  0  0  0  0  0  0  0  0  0  0
  145.7534   72.7593  219.8201 H   0  0  0  0  0  0  0  0  0  0  0  0
  144.2731   73.1317  218.8748 H   0  0  0  0  0  0  0  0  0  0  0  0
  144.5614   74.2551  221.6593 H   0  0  0  0  0  0  0  0  0  0  0  0
  145.4841   75.0016  220.2880 H   0  0  0  0  0  0  0  0  0  0  0  0
  143.2006   75.9929  220.8412 H   0  0  0  0  0  0  0  0  0  0  0  0
  143.5302   75.5633  219.1318 H   0  0  0  0  0  0  0  0  0  0  0  0
  139.0111   69.2043  222.7992 H   0  0  0  0  0  0  0  0  0  0  0  0
  138.8736   67.9596  224.9542 H   0  0  0  0  0  0  0  0  0  0  0  0
  139.2599   67.9561  227.3371 H   0  0  0  0  0  0  0  0  0  0  0  0
  140.0429   69.1252  229.3688 H   0  0  0  0  0  0  0  0  0  0  0  0
  140.9289   71.4374  229.2841 H   0  0  0  0  0  0  0  0  0  0  0  0
  141.0235   72.5949  227.0895 H   0  0  0  0  0  0  0  0  0  0  0  0
  1  2  2  0
  2  3  1  0
  3  4  1  0
  4  5  1  0
  5  6  2  0
  5  7  1  0
  7  8  1  0
  8  9  1  0
  9 10  1  0
 10 11  1  0
 11 12  1  0
 12 13  1  0
  2 14  1  0
 14 15  2  0
 15 16  1  0
 16 17  2  0
 17 18  1  0
 18 19  2  0
 19 20  1  0
 20 21  2  0
 21 22  1  0
 22 23  2  0
 13  7  1  0
 23 14  1  0
 22 17  1  0
  3 24  1  0
  4 25  1  0
  4 26  1  0
  8 27  1  0
  8 28  1  0
  9 29  1  0
  9 30  1  0
 10 31  1  0
 10 32  1  0
 11 33  1  0
 11 34  1  0
 12 35  1  0
 12 36  1  0
 13 37  1  0
 13 38  1  0
 15 39  1  0
 16 40  1  0
 18 41  1  0
 19 42  1  0
 20 43  1  0
 21 44  1  0
M  END
>  <smiles>  (39) 
O=C(NCC(=O)N1CCCCCC1)c1ccc2ccccc2n1

>  <score_type>  (39) 
oracle

>  <origin>  (39) 
autodockgpu

>  <m_score__min__energy>  (39) 
-5.8099999999999996

>  <m_primary>  (39) 
energy

>  <rmsd>  (39) 
3.151678602465812

>  <m_score__min__rmsd>  (39) 
3.151678602465812

>  <meeko>  (39) 
{"free_energy": -4.43, "intermolecular_energy": -7.12, "internal_energy": -1.43, "cluster_size": 23, "cluster_id": 2, "rank_in_cluster": 21}

>  <energy>  (39) 
-5.11

>  <cluster_rmsd>  (39) 
1.02

>  <cluster>  (39) 
4

$$$$

     RDKit          3D

 44 46  0  0  0  0  0  0  0  0999 V2000
  139.6800   70.4390  221.3340 O   0  0  0  0  0  0  0  0  0  0  0  0
  139.7370   71.1930  222.3400 C   0  0  0  0  0  0  0  0  0  0  0  0
  139.7620   72.6100  222.2030 N   0  0  0  0  0  0  0  0  0  0  0  0
  139.7220   73.1930  220.8990 C   0  0  0  0  0  0  0  0  0  0  0  0
  140.6830   74.3050  220.7600 C   0  0  0  0  0  0  0  0  0  0  0  0
  140.3340   75.4290  221.2120 O   0  0  0  0  0  0  0  0  0  0  0  0
  141.9400   74.1350  220.1520 N   0  0  0  0  0  0  0  0  0  0  0  0
  142.2080   72.8060  219.6810 C   0  0  0  0  0  0  0  0  0  0  0  0
  143.3420   72.1320  220.4000 C   0  0  0  0  0  0  0  0  0  0  0  0
  144.6940   72.6090  219.9040 C   0  0  0  0  0  0  0  0  0  0  0  0
  144.9180   74.0710  220.2930 C   0  0  0  0  0  0  0  0  0  0  0  0
  144.0660   74.9690  219.4240 C   0  0  0  0  0  0  0  0  0  0  0  0
  142.7750   75.3190  220.0870 C   0  0  0  0  0  0  0  0  0  0  0  0
  139.7810   70.6410  223.7030 C   0  0  0  0  0  0  0  0  0  0  0  0
  139.2770   69.3720  223.9360 C   0  0  0  0  0  0  0  0  0  0  0  0
  139.2840   68.7910  225.1880 C   0  0  0  0  0  0  0  0  0  0  0  0
  139.8330   69.5570  226.2160 C   0  0  0  0  0  0  0  0  0  0  0  0
  139.8630   69.0120  227.4990 C   0  0  0  0  0  0  0  0  0  0  0  0
  140.4050   69.7730  228.5150 C   0  0  0  0  0  0  0  0  0  0  0  0
  140.9150   71.0400  228.3120 C   0  0  0  0  0  0  0  0  0  0  0  0
  140.8700   71.5480  227.0320 C   0  0  0  0  0  0  0  0  0  0  0  0
  140.3380   70.8290  225.9820 C   0  0  0  0  0  0  0  0  0  0  0  0
  140.2980   71.3340  224.7350 N   0  0  0  0  0  0  0  0  0  0  0  0
  139.8100   73.2250  223.0600 H   0  0  0  0  0  0  0  0  0  0  0  0
  139.9651   72.4188  220.1564 H   0  0  0  0  0  0  0  0  0  0  0  0
  138.7111   73.5958  220.7381 H   0  0  0  0  0  0  0  0  0  0  0  0
  141.3005   72.1992  219.8162 H   0  0  0  0  0  0  0  0  0  0  0  0
  142.5001   72.8904  218.6239 H   0  0  0  0  0  0  0  0  0  0  0  0
  143.2608   72.3509  221.4749 H   0  0  0  0  0  0  0  0  0  0  0  0
  143.2717   71.0513  220.2071 H   0  0  0  0  0  0  0  0  0  0  0  0
  145.4842   71.9892  220.3528 H   0  0  0  0  0  0  0  0  0  0  0  0
  144.7232   72.5225  218.8078 H   0  0  0  0  0  0  0  0  0  0  0  0
  144.6415   74.2146  221.3480 H   0  0  0  0  0  0  0  0  0  0  0  0
  145.9782   74.3265  220.1495 H   0  0  0  0  0  0  0  0  0  0  0  0
  144.6220   75.8950  219.2160 H   0  0  0  0  0  0  0  0  0  0  0  0
  143.8372   74.4280  218.4939 H   0  0  0  0  0  0  0  0  0  0  0  0
  142.9713   75.6878  221.1046 H   0  0  0  0  0  0  0  0  0  0  0  0
  142.2625   76.1034  219.5107 H   0  0  0  0  0  0  0  0  0  0  0  0
  138.8555   68.8063  223.0920 H   0  0  0  0  0  0  0  0  0  0  0  0
  138.8803   67.7831  225.3646 H   0  0  0  0  0  0  0  0  0  0  0  0
  139.4664   68.0050  227.6957 H   0  0  0  0  0  0  0  0  0  0  0  0
  140.4318   69.3517  229.5308 H   0  0  0  0  0  0  0  0  0  0  0  0
  141.3416   71.6225  229.1419 H   0  0  0  0  0  0  0  0  0  0  0  0
  141.2695   72.5551  226.8422 H   0  0  0  0  0  0  0  0  0  0  0  0
  1  2  2  0
  2  3  1  0
  3  4  1  0
  4  5  1  0
  5  6  2  0
  5  7  1  0
  7  8  1  0
  8  9  1  0
  9 10  1  0
 10 11  1  0
 11 12  1  0
 12 13  1  0
  2 14  1  0
 14 15  2  0
 15 16  1  0
 16 17  2  0
 17 18  1  0
 18 19  2  0
 19 20  1  0
 20 21  2  0
 21 22  1  0
 22 23  2  0
 13  7  1  0
 23 14  1  0
 22 17  1  0
  3 24  1  0
  4 25  1  0
  4 26  1  0
  8 27  1  0
  8 28  1  0
  9 29  1  0
  9 30  1  0
 10 31  1  0
 10 32  1  0
 11 33  1  0
 11 34  1  0
 12 35  1  0
 12 36  1  0
 13 37  1  0
 13 38  1  0
 15 39  1  0
 16 40  1  0
 18 41  1  0
 19 42  1  0
 20 43  1  0
 21 44  1  0
M  END
>  <smiles>  (40) 
O=C(NCC(=O)N1CCCCCC1)c1ccc2ccccc2n1

>  <score_type>  (40) 
oracle

>  <origin>  (40) 
autodockgpu

>  <m_score__min__energy>  (40) 
-5.8099999999999996

>  <m_primary>  (40) 
energy

>  <rmsd>  (40) 
2.977505936336065

>  <m_score__min__rmsd>  (40) 
2.977505936336065

>  <meeko>  (40) 
{"free_energy": -4.91, "intermolecular_energy": -7.6, "internal_energy": -1.28, "cluster_size": 23, "cluster_id": 2, "rank_in_cluster": 14}

>  <energy>  (40) 
-5.05

>  <cluster_rmsd>  (40) 
0.63

>  <cluster>  (40) 
4

$$$$

     RDKit          3D

 44 46  0  0  0  0  0  0  0  0999 V2000
  139.9930   72.5390  220.7310 O   0  0  0  0  0  0  0  0  0  0  0  0
  139.8450   72.8960  221.9280 C   0  0  0  0  0  0  0  0  0  0  0  0
  139.5960   74.2550  222.2710 N   0  0  0  0  0  0  0  0  0  0  0  0
  139.5110   75.2390  221.2370 C   0  0  0  0  0  0  0  0  0  0  0  0
  138.8410   76.4700  221.6980 C   0  0  0  0  0  0  0  0  0  0  0  0
  137.6200   76.6030  221.4140 O   0  0  0  0  0  0  0  0  0  0  0  0
  139.5210   77.4640  222.4240 N   0  0  0  0  0  0  0  0  0  0  0  0
  140.9060   77.1860  222.6770 C   0  0  0  0  0  0  0  0  0  0  0  0
  141.6640   78.3610  223.2250 C   0  0  0  0  0  0  0  0  0  0  0  0
  141.6320   79.5490  222.2820 C   0  0  0  0  0  0  0  0  0  0  0  0
  140.4190   80.4330  222.5800 C   0  0  0  0  0  0  0  0  0  0  0  0
  139.1700   79.7990  222.0070 C   0  0  0  0  0  0  0  0  0  0  0  0
  138.7300   78.6180  222.8080 C   0  0  0  0  0  0  0  0  0  0  0  0
  139.9240   71.9220  223.0270 C   0  0  0  0  0  0  0  0  0  0  0  0
  139.5010   70.6210  222.8110 C   0  0  0  0  0  0  0  0  0  0  0  0
  139.5470   69.6540  223.7960 C   0  0  0  0  0  0  0  0  0  0  0  0
  140.0460   70.0620  225.0320 C   0  0  0  0  0  0  0  0  0  0  0  0
  140.1110   69.1200  226.0590 C   0  0  0  0  0  0  0  0  0  0  0  0
  140.6050   69.5260  227.2820 C   0  0  0  0  0  0  0  0  0  0  0  0
  141.0340   70.8160  227.5260 C   0  0  0  0  0  0  0  0  0  0  0  0
  140.9560   71.7210  226.4900 C   0  0  0  0  0  0  0  0  0  0  0  0
  140.4700   71.3660  225.2490 C   0  0  0  0  0  0  0  0  0  0  0  0
  140.3980   72.2580  224.2430 N   0  0  0  0  0  0  0  0  0  0  0  0
  139.4750   74.5340  223.2820 H   0  0  0  0  0  0  0  0  0  0  0  0
  140.5282   75.4921  220.9034 H   0  0  0  0  0  0  0  0  0  0  0  0
  138.9156   74.8163  220.4143 H   0  0  0  0  0  0  0  0  0  0  0  0
  140.9685   76.3623  223.4034 H   0  0  0  0  0  0  0  0  0  0  0  0
  141.3651   76.9275  221.7114 H   0  0  0  0  0  0  0  0  0  0  0  0
  141.2147   78.6571  224.1844 H   0  0  0  0  0  0  0  0  0  0  0  0
  142.7136   78.0578  223.3534 H   0  0  0  0  0  0  0  0  0  0  0  0
  142.5513   80.1392  222.4110 H   0  0  0  0  0  0  0  0  0  0  0  0
  141.5610   79.1820  221.2475 H   0  0  0  0  0  0  0  0  0  0  0  0
  140.3061   80.5434  223.6686 H   0  0  0  0  0  0  0  0  0  0  0  0
  140.5682   81.4214  222.1209 H   0  0  0  0  0  0  0  0  0  0  0  0
  138.3624   80.5458  222.0007 H   0  0  0  0  0  0  0  0  0  0  0  0
  139.3982   79.4548  220.9875 H   0  0  0  0  0  0  0  0  0  0  0  0
  138.8747   78.8243  223.8787 H   0  0  0  0  0  0  0  0  0  0  0  0
  137.6651   78.4174  222.6191 H   0  0  0  0  0  0  0  0  0  0  0  0
  139.1141   70.3478  221.8182 H   0  0  0  0  0  0  0  0  0  0  0  0
  139.2097   68.6226  223.6158 H   0  0  0  0  0  0  0  0  0  0  0  0
  139.7782   68.0839  225.8986 H   0  0  0  0  0  0  0  0  0  0  0  0
  140.6595   68.7903  228.0979 H   0  0  0  0  0  0  0  0  0  0  0  0
  141.4238   71.1102  228.5117 H   0  0  0  0  0  0  0  0  0  0  0  0
  141.2906   72.7554  226.6573 H   0  0  0  0  0  0  0  0  0  0  0  0
  1  2  2  0
  2  3  1  0
  3  4  1  0
  4  5  1  0
  5  6  2  0
  5  7  1  0
  7  8  1  0
  8  9  1  0
  9 10  1  0
 10 11  1  0
 11 12  1  0
 12 13  1  0
  2 14  1  0
 14 15  2  0
 15 16  1  0
 16 17  2  0
 17 18  1  0
 18 19  2  0
 19 20  1  0
 20 21  2  0
 21 22  1  0
 22 23  2  0
 13  7  1  0
 23 14  1  0
 22 17  1  0
  3 24  1  0
  4 25  1  0
  4 26  1  0
  8 27  1  0
  8 28  1  0
  9 29  1  0
  9 30  1  0
 10 31  1  0
 10 32  1  0
 11 33  1  0
 11 34  1  0
 12 35  1  0
 12 36  1  0
 13 37  1  0
 13 38  1  0
 15 39  1  0
 16 40  1  0
 18 41  1  0
 19 42  1  0
 20 43  1  0
 21 44  1  0
M  END
>  <smiles>  (41) 
O=C(NCC(=O)N1CCCCCC1)c1ccc2ccccc2n1

>  <score_type>  (41) 
oracle

>  <origin>  (41) 
autodockgpu

>  <m_score__min__energy>  (41) 
-5.8099999999999996

>  <m_primary>  (41) 
energy

>  <rmsd>  (41) 
3.521766909544144

>  <m_score__min__rmsd>  (41) 
3.521766909544144

>  <meeko>  (41) 
{"free_energy": -5.05, "intermolecular_energy": -7.73, "internal_energy": -1.03, "cluster_size": 7, "cluster_id": 4, "rank_in_cluster": 4}

>  <energy>  (41) 
-4.98

>  <cluster_rmsd>  (41) 
0.59

>  <cluster>  (41) 
4

$$$$

     RDKit          3D

 44 46  0  0  0  0  0  0  0  0999 V2000
  139.8480   69.8890  222.3220 O   0  0  0  0  0  0  0  0  0  0  0  0
  139.7250   71.0800  222.7110 C   0  0  0  0  0  0  0  0  0  0  0  0
  138.9190   71.4120  223.8360 N   0  0  0  0  0  0  0  0  0  0  0  0
  138.2320   70.3760  224.5430 C   0  0  0  0  0  0  0  0  0  0  0  0
  139.1580   69.3450  225.0520 C   0  0  0  0  0  0  0  0  0  0  0  0
  138.8370   68.1410  224.8670 O   0  0  0  0  0  0  0  0  0  0  0  0
  140.3510   69.6760  225.7170 N   0  0  0  0  0  0  0  0  0  0  0  0
  140.5940   71.0840  225.8610 C   0  0  0  0  0  0  0  0  0  0  0  0
  140.3720   71.5920  227.2560 C   0  0  0  0  0  0  0  0  0  0  0  0
  140.8200   70.5920  228.3040 C   0  0  0  0  0  0  0  0  0  0  0  0
  139.9800   69.3160  228.2170 C   0  0  0  0  0  0  0  0  0  0  0  0
  140.7890   68.2160  227.5680 C   0  0  0  0  0  0  0  0  0  0  0  0
  141.1580   68.5550  226.1610 C   0  0  0  0  0  0  0  0  0  0  0  0
  140.4110   72.1800  222.0170 C   0  0  0  0  0  0  0  0  0  0  0  0
  141.4180   71.8880  221.1130 C   0  0  0  0  0  0  0  0  0  0  0  0
  142.1050   72.8690  220.4260 C   0  0  0  0  0  0  0  0  0  0  0  0
  141.7260   74.1830  220.6940 C   0  0  0  0  0  0  0  0  0  0  0  0
  142.3910   75.2100  220.0240 C   0  0  0  0  0  0  0  0  0  0  0  0
  142.0150   76.5110  220.2920 C   0  0  0  0  0  0  0  0  0  0  0  0
  141.0150   76.8320  221.1890 C   0  0  0  0  0  0  0  0  0  0  0  0
  140.3780   75.7940  221.8330 C   0  0  0  0  0  0  0  0  0  0  0  0
  140.7170   74.4770  221.6020 C   0  0  0  0  0  0  0  0  0  0  0  0
  140.0890   73.4690  222.2360 N   0  0  0  0  0  0  0  0  0  0  0  0
  138.8290   72.4170  224.1460 H   0  0  0  0  0  0  0  0  0  0  0  0
  137.6953   70.8221  225.3933 H   0  0  0  0  0  0  0  0  0  0  0  0
  137.5359   69.8912  223.8428 H   0  0  0  0  0  0  0  0  0  0  0  0
  141.6374   71.2876  225.5786 H   0  0  0  0  0  0  0  0  0  0  0  0
  139.8757   71.6038  225.2100 H   0  0  0  0  0  0  0  0  0  0  0  0
  140.9406   72.5242  227.3889 H   0  0  0  0  0  0  0  0  0  0  0  0
  139.2931   71.7611  227.3878 H   0  0  0  0  0  0  0  0  0  0  0  0
  141.8780   70.3415  228.1372 H   0  0  0  0  0  0  0  0  0  0  0  0
  140.6899   71.0377  229.3012 H   0  0  0  0  0  0  0  0  0  0  0  0
  139.6840   69.0035  229.2293 H   0  0  0  0  0  0  0  0  0  0  0  0
  139.0817   69.5120  227.6131 H   0  0  0  0  0  0  0  0  0  0  0  0
  141.7095   68.0604  228.1498 H   0  0  0  0  0  0  0  0  0  0  0  0
  140.1737   67.3044  227.5499 H   0  0  0  0  0  0  0  0  0  0  0  0
  142.2230   68.8262  226.1144 H   0  0  0  0  0  0  0  0  0  0  0  0
  140.9772   67.6867  225.5103 H   0  0  0  0  0  0  0  0  0  0  0  0
  141.6807   70.8347  220.9354 H   0  0  0  0  0  0  0  0  0  0  0  0
  142.9041   72.6277  219.7096 H   0  0  0  0  0  0  0  0  0  0  0  0
  143.1919   74.9896  219.3029 H   0  0  0  0  0  0  0  0  0  0  0  0
  142.5343   77.3273  219.7685 H   0  0  0  0  0  0  0  0  0  0  0  0
  140.7372   77.8787  221.3822 H   0  0  0  0  0  0  0  0  0  0  0  0
  139.5768   76.0218  222.5514 H   0  0  0  0  0  0  0  0  0  0  0  0
  1  2  2  0
  2  3  1  0
  3  4  1  0
  4  5  1  0
  5  6  2  0
  5  7  1  0
  7  8  1  0
  8  9  1  0
  9 10  1  0
 10 11  1  0
 11 12  1  0
 12 13  1  0
  2 14  1  0
 14 15  2  0
 15 16  1  0
 16 17  2  0
 17 18  1  0
 18 19  2  0
 19 20  1  0
 20 21  2  0
 21 22  1  0
 22 23  2  0
 13  7  1  0
 23 14  1  0
 22 17  1  0
  3 24  1  0
  4 25  1  0
  4 26  1  0
  8 27  1  0
  8 28  1  0
  9 29  1  0
  9 30  1  0
 10 31  1  0
 10 32  1  0
 11 33  1  0
 11 34  1  0
 12 35  1  0
 12 36  1  0
 13 37  1  0
 13 38  1  0
 15 39  1  0
 16 40  1  0
 18 41  1  0
 19 42  1  0
 20 43  1  0
 21 44  1  0
M  END
>  <smiles>  (42) 
O=C(NCC(=O)N1CCCCCC1)c1ccc2ccccc2n1

>  <score_type>  (42) 
oracle

>  <origin>  (42) 
autodockgpu

>  <m_score__min__energy>  (42) 
-5.8099999999999996

>  <m_primary>  (42) 
energy

>  <rmsd>  (42) 
8.121963760675504

>  <m_score__min__rmsd>  (42) 
8.121963760675504

>  <meeko>  (42) 
{"free_energy": -5.81, "intermolecular_energy": -8.5, "internal_energy": -1.05, "cluster_size": 6, "cluster_id": 1, "rank_in_cluster": 1}

>  <energy>  (42) 
-4.82

>  <cluster_rmsd>  (42) 
1.59

>  <cluster>  (42) 
4

$$$$

     RDKit          3D

 44 46  0  0  0  0  0  0  0  0999 V2000
  139.2010   70.6370  221.3260 O   0  0  0  0  0  0  0  0  0  0  0  0
  139.5000   71.2100  222.4060 C   0  0  0  0  0  0  0  0  0  0  0  0
  139.7140   72.6160  222.4640 N   0  0  0  0  0  0  0  0  0  0  0  0
  139.5880   73.3990  221.2740 C   0  0  0  0  0  0  0  0  0  0  0  0
  140.7020   74.3540  221.1190 C   0  0  0  0  0  0  0  0  0  0  0  0
  140.7470   75.3230  221.9240 O   0  0  0  0  0  0  0  0  0  0  0  0
  141.6810   74.2040  220.1210 N   0  0  0  0  0  0  0  0  0  0  0  0
  141.5100   73.0590  219.2730 C   0  0  0  0  0  0  0  0  0  0  0  0
  142.2710   71.8490  219.7360 C   0  0  0  0  0  0  0  0  0  0  0  0
  143.7670   72.0960  219.7650 C   0  0  0  0  0  0  0  0  0  0  0  0
  144.0990   73.2530  220.7080 C   0  0  0  0  0  0  0  0  0  0  0  0
  144.0460   74.5630  219.9520 C   0  0  0  0  0  0  0  0  0  0  0  0
  142.7140   75.2230  220.0920 C   0  0  0  0  0  0  0  0  0  0  0  0
  139.6420   70.4490  223.6570 C   0  0  0  0  0  0  0  0  0  0  0  0
  139.1590   69.1520  223.7190 C   0  0  0  0  0  0  0  0  0  0  0  0
  139.2580   68.3790  224.8590 C   0  0  0  0  0  0  0  0  0  0  0  0
  139.8750   68.9800  225.9540 C   0  0  0  0  0  0  0  0  0  0  0  0
  139.9980   68.2380  227.1290 C   0  0  0  0  0  0  0  0  0  0  0  0
  140.6080   68.8360  228.2130 C   0  0  0  0  0  0  0  0  0  0  0  0
  141.0990   70.1260  228.1800 C   0  0  0  0  0  0  0  0  0  0  0  0
  140.9620   70.8310  227.0040 C   0  0  0  0  0  0  0  0  0  0  0  0
  140.3580   70.2800  225.8920 C   0  0  0  0  0  0  0  0  0  0  0  0
  140.2290   70.9770  224.7480 N   0  0  0  0  0  0  0  0  0  0  0  0
  139.9640   73.0770  223.3800 H   0  0  0  0  0  0  0  0  0  0  0  0
  139.5751   72.7246  220.4051 H   0  0  0  0  0  0  0  0  0  0  0  0
  138.6540   73.9757  221.3446 H   0  0  0  0  0  0  0  0  0  0  0  0
  140.4399   72.8060  219.2418 H   0  0  0  0  0  0  0  0  0  0  0  0
  141.9049   73.3291  218.2825 H   0  0  0  0  0  0  0  0  0  0  0  0
  141.9350   71.5844  220.7494 H   0  0  0  0  0  0  0  0  0  0  0  0
  142.0751   71.0320  219.0260 H   0  0  0  0  0  0  0  0  0  0  0  0
  144.2777   71.1863  220.1139 H   0  0  0  0  0  0  0  0  0  0  0  0
  144.1053   72.3546  218.7507 H   0  0  0  0  0  0  0  0  0  0  0  0
  143.3677   73.2758  221.5294 H   0  0  0  0  0  0  0  0  0  0  0  0
  145.1106   73.1100  221.1156 H   0  0  0  0  0  0  0  0  0  0  0  0
  144.8213   75.2355  220.3477 H   0  0  0  0  0  0  0  0  0  0  0  0
  144.2163   74.3529  218.8858 H   0  0  0  0  0  0  0  0  0  0  0  0
  142.6863   75.8026  221.0265 H   0  0  0  0  0  0  0  0  0  0  0  0
  142.5440   75.8996  219.2416 H   0  0  0  0  0  0  0  0  0  0  0  0
  138.6790   68.7222  222.8274 H   0  0  0  0  0  0  0  0  0  0  0  0
  138.8725   67.3496  224.9001 H   0  0  0  0  0  0  0  0  0  0  0  0
  139.6200   67.2068  227.1897 H   0  0  0  0  0  0  0  0  0  0  0  0
  140.7074   68.2594  229.1445 H   0  0  0  0  0  0  0  0  0  0  0  0
  141.5820   70.5747  229.0605 H   0  0  0  0  0  0  0  0  0  0  0  0
  141.3444   71.8610  226.9500 H   0  0  0  0  0  0  0  0  0  0  0  0
  1  2  2  0
  2  3  1  0
  3  4  1  0
  4  5  1  0
  5  6  2  0
  5  7  1  0
  7  8  1  0
  8  9  1  0
  9 10  1  0
 10 11  1  0
 11 12  1  0
 12 13  1  0
  2 14  1  0
 14 15  2  0
 15 16  1  0
 16 17  2  0
 17 18  1  0
 18 19  2  0
 19 20  1  0
 20 21  2  0
 21 22  1  0
 22 23  2  0
 13  7  1  0
 23 14  1  0
 22 17  1  0
  3 24  1  0
  4 25  1  0
  4 26  1  0
  8 27  1  0
  8 28  1  0
  9 29  1  0
  9 30  1  0
 10 31  1  0
 10 32  1  0
 11 33  1  0
 11 34  1  0
 12 35  1  0
 12 36  1  0
 13 37  1  0
 13 38  1  0
 15 39  1  0
 16 40  1  0
 18 41  1  0
 19 42  1  0
 20 43  1  0
 21 44  1  0
M  END
>  <smiles>  (43) 
O=C(NCC(=O)N1CCCCCC1)c1ccc2ccccc2n1

>  <score_type>  (43) 
oracle

>  <origin>  (43) 
autodockgpu

>  <m_score__min__energy>  (43) 
-5.8099999999999996

>  <m_primary>  (43) 
energy

>  <rmsd>  (43) 
2.910914135666956

>  <m_score__min__rmsd>  (43) 
2.910914135666956

>  <meeko>  (43) 
{"free_energy": -4.78, "intermolecular_energy": -7.46, "internal_energy": -1.46, "cluster_size": 23, "cluster_id": 2, "rank_in_cluster": 18}

>  <energy>  (43) 
-4.4

>  <cluster_rmsd>  (43) 
1.04

>  <cluster>  (43) 
4

$$$$

     RDKit          3D

 44 46  0  0  0  0  0  0  0  0999 V2000
  139.8040   71.1630  221.2400 O   0  0  0  0  0  0  0  0  0  0  0  0
  139.7570   71.8120  222.3170 C   0  0  0  0  0  0  0  0  0  0  0  0
  139.6120   73.2270  222.3240 N   0  0  0  0  0  0  0  0  0  0  0  0
  139.5170   73.9330  221.0840 C   0  0  0  0  0  0  0  0  0  0  0  0
  140.6520   74.8540  220.8830 C   0  0  0  0  0  0  0  0  0  0  0  0
  140.6640   75.9120  221.5680 O   0  0  0  0  0  0  0  0  0  0  0  0
  141.6840   74.5790  219.9690 N   0  0  0  0  0  0  0  0  0  0  0  0
  141.5460   73.3420  219.2550 C   0  0  0  0  0  0  0  0  0  0  0  0
  142.2590   72.1910  219.9030 C   0  0  0  0  0  0  0  0  0  0  0  0
  143.7540   72.4300  220.0000 C   0  0  0  0  0  0  0  0  0  0  0  0
  144.0400   73.6870  220.8240 C   0  0  0  0  0  0  0  0  0  0  0  0
  144.0600   74.8990  219.9180 C   0  0  0  0  0  0  0  0  0  0  0  0
  142.7320   75.5800  219.8800 C   0  0  0  0  0  0  0  0  0  0  0  0
  139.8520   71.1310  223.6180 C   0  0  0  0  0  0  0  0  0  0  0  0
  139.4430   69.8120  223.7240 C   0  0  0  0  0  0  0  0  0  0  0  0
  139.5030   69.1120  224.9130 C   0  0  0  0  0  0  0  0  0  0  0  0
  140.0020   69.8100  226.0110 C   0  0  0  0  0  0  0  0  0  0  0  0
  140.0820   69.1440  227.2340 C   0  0  0  0  0  0  0  0  0  0  0  0
  140.5750   69.8390  228.3200 C   0  0  0  0  0  0  0  0  0  0  0  0
  140.9890   71.1540  228.2440 C   0  0  0  0  0  0  0  0  0  0  0  0
  140.8970   71.7820  227.0210 C   0  0  0  0  0  0  0  0  0  0  0  0
  140.4110   71.1330  225.9050 C   0  0  0  0  0  0  0  0  0  0  0  0
  140.3250   71.7550  224.7140 N   0  0  0  0  0  0  0  0  0  0  0  0
  139.5750   73.7530  223.2390 H   0  0  0  0  0  0  0  0  0  0  0  0
  139.5015   73.2038  220.2606 H   0  0  0  0  0  0  0  0  0  0  0  0
  138.5940   74.5311  221.1038 H   0  0  0  0  0  0  0  0  0  0  0  0
  140.4759   73.0958  219.1897 H   0  0  0  0  0  0  0  0  0  0  0  0
  142.0030   73.4883  218.2652 H   0  0  0  0  0  0  0  0  0  0  0  0
  141.8557   72.0487  220.9165 H   0  0  0  0  0  0  0  0  0  0  0  0
  142.0975   71.2981  219.2812 H   0  0  0  0  0  0  0  0  0  0  0  0
  144.2291   71.5636  220.4835 H   0  0  0  0  0  0  0  0  0  0  0  0
  144.1603   72.5669  218.9870 H   0  0  0  0  0  0  0  0  0  0  0  0
  143.2548   73.8120  221.5842 H   0  0  0  0  0  0  0  0  0  0  0  0
  145.0185   73.5845  221.3159 H   0  0  0  0  0  0  0  0  0  0  0  0
  144.8145   75.6088  220.2882 H   0  0  0  0  0  0  0  0  0  0  0  0
  144.3029   74.5625  218.8993 H   0  0  0  0  0  0  0  0  0  0  0  0
  142.6501   76.2759  220.7280 H   0  0  0  0  0  0  0  0  0  0  0  0
  142.6297   76.1422  218.9401 H   0  0  0  0  0  0  0  0  0  0  0  0
  139.0563   69.3035  222.8285 H   0  0  0  0  0  0  0  0  0  0  0  0
  139.1760   68.0645  224.9889 H   0  0  0  0  0  0  0  0  0  0  0  0
  139.7617   68.0961  227.3302 H   0  0  0  0  0  0  0  0  0  0  0  0
  140.6409   69.3223  229.2889 H   0  0  0  0  0  0  0  0  0  0  0  0
  141.3781   71.6811  229.1276 H   0  0  0  0  0  0  0  0  0  0  0  0
  141.2200   72.8297  226.9321 H   0  0  0  0  0  0  0  0  0  0  0  0
  1  2  2  0
  2  3  1  0
  3  4  1  0
  4  5  1  0
  5  6  2  0
  5  7  1  0
  7  8  1  0
  8  9  1  0
  9 10  1  0
 10 11  1  0
 11 12  1  0
 12 13  1  0
  2 14  1  0
 14 15  2  0
 15 16  1  0
 16 17  2  0
 17 18  1  0
 18 19  2  0
 19 20  1  0
 20 21  2  0
 21 22  1  0
 22 23  2  0
 13  7  1  0
 23 14  1  0
 22 17  1  0
  3 24  1  0
  4 25  1  0
  4 26  1  0
  8 27  1  0
  8 28  1  0
  9 29  1  0
  9 30  1  0
 10 31  1  0
 10 32  1  0
 11 33  1  0
 11 34  1  0
 12 35  1  0
 12 36  1  0
 13 37  1  0
 13 38  1  0
 15 39  1  0
 16 40  1  0
 18 41  1  0
 19 42  1  0
 20 43  1  0
 21 44  1  0
M  END
>  <smiles>  (44) 
O=C(NCC(=O)N1CCCCCC1)c1ccc2ccccc2n1

>  <score_type>  (44) 
oracle

>  <origin>  (44) 
autodockgpu

>  <m_score__min__energy>  (44) 
-5.8099999999999996

>  <m_primary>  (44) 
energy

>  <rmsd>  (44) 
2.860263597375865

>  <m_score__min__rmsd>  (44) 
2.860263597375865

>  <meeko>  (44) 
{"free_energy": -5.07, "intermolecular_energy": -7.76, "internal_energy": -1.44, "cluster_size": 23, "cluster_id": 2, "rank_in_cluster": 10}

>  <energy>  (44) 
-4.86

>  <cluster_rmsd>  (44) 
0.0

>  <cluster>  (44) 
5

$$$$

     RDKit          3D

 44 46  0  0  0  0  0  0  0  0999 V2000
  139.8490   69.9330  222.2620 O   0  0  0  0  0  0  0  0  0  0  0  0
  139.6610   71.0960  222.7060 C   0  0  0  0  0  0  0  0  0  0  0  0
  138.8090   71.3350  223.8200 N   0  0  0  0  0  0  0  0  0  0  0  0
  138.1490   70.2360  224.4520 C   0  0  0  0  0  0  0  0  0  0  0  0
  139.1020   69.2080  224.9130 C   0  0  0  0  0  0  0  0  0  0  0  0
  138.8930   68.0210  224.5450 O   0  0  0  0  0  0  0  0  0  0  0  0
  140.2030   69.5230  225.7300 N   0  0  0  0  0  0  0  0  0  0  0  0
  140.3220   70.9110  226.0750 C   0  0  0  0  0  0  0  0  0  0  0  0
  140.6890   71.1430  227.5130 C   0  0  0  0  0  0  0  0  0  0  0  0
  140.0630   70.1120  228.4330 C   0  0  0  0  0  0  0  0  0  0  0  0
  140.9630   68.8800  228.5430 C   0  0  0  0  0  0  0  0  0  0  0  0
  140.6280   67.8990  227.4410 C   0  0  0  0  0  0  0  0  0  0  0  0
  141.0520   68.4070  226.1030 C   0  0  0  0  0  0  0  0  0  0  0  0
  140.3170   72.2590  222.0900 C   0  0  0  0  0  0  0  0  0  0  0  0
  139.6020   73.4340  221.9290 C   0  0  0  0  0  0  0  0  0  0  0  0
  140.1530   74.5640  221.3590 C   0  0  0  0  0  0  0  0  0  0  0  0
  141.4810   74.4580  220.9500 C   0  0  0  0  0  0  0  0  0  0  0  0
  142.0820   75.5750  220.3680 C   0  0  0  0  0  0  0  0  0  0  0  0
  143.3970   75.4670  219.9630 C   0  0  0  0  0  0  0  0  0  0  0  0
  144.1340   74.3090  220.1110 C   0  0  0  0  0  0  0  0  0  0  0  0
  143.5110   73.2250  220.6890 C   0  0  0  0  0  0  0  0  0  0  0  0
  142.1980   73.2800  221.1110 C   0  0  0  0  0  0  0  0  0  0  0  0
  141.5980   72.2160  221.6750 N   0  0  0  0  0  0  0  0  0  0  0  0
  138.6650   72.3180  224.1770 H   0  0  0  0  0  0  0  0  0  0  0  0
  137.5853   70.6115  225.3187 H   0  0  0  0  0  0  0  0  0  0  0  0
  137.4803   69.7713  223.7125 H   0  0  0  0  0  0  0  0  0  0  0  0
  141.0993   71.3618  225.4405 H   0  0  0  0  0  0  0  0  0  0  0  0
  139.3348   71.3692  225.9157 H   0  0  0  0  0  0  0  0  0  0  0  0
  141.7832   71.0905  227.6131 H   0  0  0  0  0  0  0  0  0  0  0  0
  140.3097   72.1334  227.8048 H   0  0  0  0  0  0  0  0  0  0  0  0
  139.9274   70.5523  229.4319 H   0  0  0  0  0  0  0  0  0  0  0  0
  139.0903   69.8078  228.0191 H   0  0  0  0  0  0  0  0  0  0  0  0
  142.0152   69.1873  228.4507 H   0  0  0  0  0  0  0  0  0  0  0  0
  140.8011   68.3985  229.5187 H   0  0  0  0  0  0  0  0  0  0  0  0
  141.1435   66.9481  227.6412 H   0  0  0  0  0  0  0  0  0  0  0  0
  139.5370   67.7598  227.4253 H   0  0  0  0  0  0  0  0  0  0  0  0
  142.0993   68.7401  226.1500 H   0  0  0  0  0  0  0  0  0  0  0  0
  140.9611   67.6052  225.3555 H   0  0  0  0  0  0  0  0  0  0  0  0
  138.5561   73.4681  222.2680 H   0  0  0  0  0  0  0  0  0  0  0  0
  139.5778   75.4934  221.2349 H   0  0  0  0  0  0  0  0  0  0  0  0
  141.5241   76.5138  220.2359 H   0  0  0  0  0  0  0  0  0  0  0  0
  143.8789   76.3419  219.5021 H   0  0  0  0  0  0  0  0  0  0  0  0
  145.1813   74.2540  219.7792 H   0  0  0  0  0  0  0  0  0  0  0  0
  144.0755   72.2897  220.8178 H   0  0  0  0  0  0  0  0  0  0  0  0
  1  2  2  0
  2  3  1  0
  3  4  1  0
  4  5  1  0
  5  6  2  0
  5  7  1  0
  7  8  1  0
  8  9  1  0
  9 10  1  0
 10 11  1  0
 11 12  1  0
 12 13  1  0
  2 14  1  0
 14 15  2  0
 15 16  1  0
 16 17  2  0
 17 18  1  0
 18 19  2  0
 19 20  1  0
 20 21  2  0
 21 22  1  0
 22 23  2  0
 13  7  1  0
 23 14  1  0
 22 17  1  0
  3 24  1  0
  4 25  1  0
  4 26  1  0
  8 27  1  0
  8 28  1  0
  9 29  1  0
  9 30  1  0
 10 31  1  0
 10 32  1  0
 11 33  1  0
 11 34  1  0
 12 35  1  0
 12 36  1  0
 13 37  1  0
 13 38  1  0
 15 39  1  0
 16 40  1  0
 18 41  1  0
 19 42  1  0
 20 43  1  0
 21 44  1  0
M  END
>  <smiles>  (45) 
O=C(NCC(=O)N1CCCCCC1)c1ccc2ccccc2n1

>  <score_type>  (45) 
oracle

>  <origin>  (45) 
autodockgpu

>  <m_score__min__energy>  (45) 
-5.8099999999999996

>  <m_primary>  (45) 
energy

>  <rmsd>  (45) 
8.287879866072638

>  <m_score__min__rmsd>  (45) 
8.287879866072638

>  <meeko>  (45) 
{"free_energy": -5.1, "intermolecular_energy": -7.78, "internal_energy": -0.86, "cluster_size": 6, "cluster_id": 1, "rank_in_cluster": 5}

>  <energy>  (45) 
-4.81

>  <cluster_rmsd>  (45) 
0.0

>  <cluster>  (45) 
6

$$$$

     RDKit          3D

 44 46  0  0  0  0  0  0  0  0999 V2000
  139.4510   71.1810  221.2730 O   0  0  0  0  0  0  0  0  0  0  0  0
  139.5660   71.8480  222.3350 C   0  0  0  0  0  0  0  0  0  0  0  0
  139.5310   73.2710  222.3230 N   0  0  0  0  0  0  0  0  0  0  0  0
  139.3640   73.9620  221.0830 C   0  0  0  0  0  0  0  0  0  0  0  0
  140.5170   74.8290  220.7720 C   0  0  0  0  0  0  0  0  0  0  0  0
  140.3890   76.0620  221.0000 O   0  0  0  0  0  0  0  0  0  0  0  0
  141.7150   74.3180  220.2420 N   0  0  0  0  0  0  0  0  0  0  0  0
  141.7240   72.8980  220.0310 C   0  0  0  0  0  0  0  0  0  0  0  0
  142.6110   72.1540  220.9880 C   0  0  0  0  0  0  0  0  0  0  0  0
  144.0780   72.2980  220.6340 C   0  0  0  0  0  0  0  0  0  0  0  0
  144.5270   73.7510  220.8040 C   0  0  0  0  0  0  0  0  0  0  0  0
  144.0220   74.5740  219.6440 C   0  0  0  0  0  0  0  0  0  0  0  0
  142.7590   75.2920  219.9870 C   0  0  0  0  0  0  0  0  0  0  0  0
  139.7410   71.1830  223.6350 C   0  0  0  0  0  0  0  0  0  0  0  0
  139.4130   69.8430  223.7600 C   0  0  0  0  0  0  0  0  0  0  0  0
  139.5520   69.1550  224.9490 C   0  0  0  0  0  0  0  0  0  0  0  0
  140.0450   69.8880  226.0270 C   0  0  0  0  0  0  0  0  0  0  0  0
  140.2020   69.2360  227.2500 C   0  0  0  0  0  0  0  0  0  0  0  0
  140.6900   69.9640  228.3160 C   0  0  0  0  0  0  0  0  0  0  0  0
  141.0250   71.3000  228.2200 C   0  0  0  0  0  0  0  0  0  0  0  0
  140.8580   71.9140  226.9980 C   0  0  0  0  0  0  0  0  0  0  0  0
  140.3730   71.2310  225.9020 C   0  0  0  0  0  0  0  0  0  0  0  0
  140.2130   71.8390  224.7110 N   0  0  0  0  0  0  0  0  0  0  0  0
  139.6300   73.8110  223.2240 H   0  0  0  0  0  0  0  0  0  0  0  0
  139.2488   73.2221  220.2772 H   0  0  0  0  0  0  0  0  0  0  0  0
  138.4725   74.6008  221.1681 H   0  0  0  0  0  0  0  0  0  0  0  0
  140.6964   72.5228  220.1458 H   0  0  0  0  0  0  0  0  0  0  0  0
  142.1221   72.7243  219.0204 H   0  0  0  0  0  0  0  0  0  0  0  0
  142.4501   72.5497  222.0017 H   0  0  0  0  0  0  0  0  0  0  0  0
  142.3516   71.0866  220.9308 H   0  0  0  0  0  0  0  0  0  0  0  0
  144.6756   71.6540  221.2960 H   0  0  0  0  0  0  0  0  0  0  0  0
  144.2232   71.9998  219.5852 H   0  0  0  0  0  0  0  0  0  0  0  0
  144.1195   74.1529  221.7433 H   0  0  0  0  0  0  0  0  0  0  0  0
  145.6258   73.7937  220.8323 H   0  0  0  0  0  0  0  0  0  0  0  0
  144.7894   75.3130  219.3700 H   0  0  0  0  0  0  0  0  0  0  0  0
  143.8136   73.8938  218.8050 H   0  0  0  0  0  0  0  0  0  0  0  0
  142.9169   75.9068  220.8854 H   0  0  0  0  0  0  0  0  0  0  0  0
  142.4632   75.9427  219.1509 H   0  0  0  0  0  0  0  0  0  0  0  0
  139.0277   69.3074  222.8798 H   0  0  0  0  0  0  0  0  0  0  0  0
  139.2891   68.0908  225.0401 H   0  0  0  0  0  0  0  0  0  0  0  0
  139.9443   68.1724  227.3616 H   0  0  0  0  0  0  0  0  0  0  0  0
  140.8177   69.4579  229.2843 H   0  0  0  0  0  0  0  0  0  0  0  0
  141.4113   71.8543  229.0880 H   0  0  0  0  0  0  0  0  0  0  0  0
  141.1185   72.9776  226.8935 H   0  0  0  0  0  0  0  0  0  0  0  0
  1  2  2  0
  2  3  1  0
  3  4  1  0
  4  5  1  0
  5  6  2  0
  5  7  1  0
  7  8  1  0
  8  9  1  0
  9 10  1  0
 10 11  1  0
 11 12  1  0
 12 13  1  0
  2 14  1  0
 14 15  2  0
 15 16  1  0
 16 17  2  0
 17 18  1  0
 18 19  2  0
 19 20  1  0
 20 21  2  0
 21 22  1  0
 22 23  2  0
 13  7  1  0
 23 14  1  0
 22 17  1  0
  3 24  1  0
  4 25  1  0
  4 26  1  0
  8 27  1  0
  8 28  1  0
  9 29  1  0
  9 30  1  0
 10 31  1  0
 10 32  1  0
 11 33  1  0
 11 34  1  0
 12 35  1  0
 12 36  1  0
 13 37  1  0
 13 38  1  0
 15 39  1  0
 16 40  1  0
 18 41  1  0
 19 42  1  0
 20 43  1  0
 21 44  1  0
M  END
>  <smiles>  (46) 
O=C(NCC(=O)N1CCCCCC1)c1ccc2ccccc2n1

>  <score_type>  (46) 
oracle

>  <origin>  (46) 
autodockgpu

>  <m_score__min__energy>  (46) 
-5.8099999999999996

>  <m_primary>  (46) 
energy

>  <rmsd>  (46) 
2.9665538216877025

>  <m_score__min__rmsd>  (46) 
2.9665538216877025

>  <meeko>  (46) 
{"free_energy": -4.66, "intermolecular_energy": -7.34, "internal_energy": -1.41, "cluster_size": 23, "cluster_id": 2, "rank_in_cluster": 19}

>  <energy>  (46) 
-4.65

>  <cluster_rmsd>  (46) 
0.45

>  <cluster>  (46) 
6

$$$$

     RDKit          3D

 44 46  0  0  0  0  0  0  0  0999 V2000
  141.4590   72.9640  221.4960 O   0  0  0  0  0  0  0  0  0  0  0  0
  140.4830   72.9770  222.2900 C   0  0  0  0  0  0  0  0  0  0  0  0
  139.5710   74.0690  222.3240 N   0  0  0  0  0  0  0  0  0  0  0  0
  139.7630   75.1770  221.4410 C   0  0  0  0  0  0  0  0  0  0  0  0
  139.0060   76.3680  221.8740 C   0  0  0  0  0  0  0  0  0  0  0  0
  137.7490   76.3060  221.8140 O   0  0  0  0  0  0  0  0  0  0  0  0
  139.6450   77.5320  222.3370 N   0  0  0  0  0  0  0  0  0  0  0  0
  141.0790   77.4690  222.3520 C   0  0  0  0  0  0  0  0  0  0  0  0
  141.7070   78.3240  223.4160 C   0  0  0  0  0  0  0  0  0  0  0  0
  141.7360   79.7890  223.0240 C   0  0  0  0  0  0  0  0  0  0  0  0
  140.3730   80.4360  223.2790 C   0  0  0  0  0  0  0  0  0  0  0  0
  139.3690   79.9130  222.2780 C   0  0  0  0  0  0  0  0  0  0  0  0
  138.7690   78.6210  222.7260 C   0  0  0  0  0  0  0  0  0  0  0  0
  140.2430   71.8610  223.2170 C   0  0  0  0  0  0  0  0  0  0  0  0
  139.5480   70.7480  222.7730 C   0  0  0  0  0  0  0  0  0  0  0  0
  139.2870   69.6650  223.5890 C   0  0  0  0  0  0  0  0  0  0  0  0
  139.7640   69.7520  224.8950 C   0  0  0  0  0  0  0  0  0  0  0  0
  139.5240   68.6820  225.7570 C   0  0  0  0  0  0  0  0  0  0  0  0
  139.9970   68.7710  227.0500 C   0  0  0  0  0  0  0  0  0  0  0  0
  140.6930   69.8680  227.5200 C   0  0  0  0  0  0  0  0  0  0  0  0
  140.9130   70.9080  226.6430 C   0  0  0  0  0  0  0  0  0  0  0  0
  140.4600   70.8690  225.3400 C   0  0  0  0  0  0  0  0  0  0  0  0
  140.6800   71.8890  224.4910 N   0  0  0  0  0  0  0  0  0  0  0  0
  138.7580   74.0610  222.9970 H   0  0  0  0  0  0  0  0  0  0  0  0
  140.8337   75.4276  221.4135 H   0  0  0  0  0  0  0  0  0  0  0  0
  139.3965   74.8853  220.4457 H   0  0  0  0  0  0  0  0  0  0  0  0
  141.3795   76.4247  222.5226 H   0  0  0  0  0  0  0  0  0  0  0  0
  141.4291   77.8517  221.3820 H   0  0  0  0  0  0  0  0  0  0  0  0
  141.1285   78.2164  224.3454 H   0  0  0  0  0  0  0  0  0  0  0  0
  142.7455   77.9882  223.5527 H   0  0  0  0  0  0  0  0  0  0  0  0
  142.5011   80.3086  223.6196 H   0  0  0  0  0  0  0  0  0  0  0  0
  141.9736   79.8673  221.9528 H   0  0  0  0  0  0  0  0  0  0  0  0
  140.0363   80.1914  224.2973 H   0  0  0  0  0  0  0  0  0  0  0  0
  140.4608   81.5273  223.1726 H   0  0  0  0  0  0  0  0  0  0  0  0
  138.5669   80.6557  222.1554 H   0  0  0  0  0  0  0  0  0  0  0  0
  139.8912   79.7383  221.3257 H   0  0  0  0  0  0  0  0  0  0  0  0
  138.6532   78.6281  223.8199 H   0  0  0  0  0  0  0  0  0  0  0  0
  137.7821   78.4884  222.2587 H   0  0  0  0  0  0  0  0  0  0  0  0
  139.1911   70.7261  221.7327 H   0  0  0  0  0  0  0  0  0  0  0  0
  138.7345   68.7847  223.2287 H   0  0  0  0  0  0  0  0  0  0  0  0
  138.9735   67.7929  225.4158 H   0  0  0  0  0  0  0  0  0  0  0  0
  139.8119   67.9319  227.7367 H   0  0  0  0  0  0  0  0  0  0  0  0
  141.0583   69.9098  228.5567 H   0  0  0  0  0  0  0  0  0  0  0  0
  141.4648   71.7936  226.9911 H   0  0  0  0  0  0  0  0  0  0  0  0
  1  2  2  0
  2  3  1  0
  3  4  1  0
  4  5  1  0
  5  6  2  0
  5  7  1  0
  7  8  1  0
  8  9  1  0
  9 10  1  0
 10 11  1  0
 11 12  1  0
 12 13  1  0
  2 14  1  0
 14 15  2  0
 15 16  1  0
 16 17  2  0
 17 18  1  0
 18 19  2  0
 19 20  1  0
 20 21  2  0
 21 22  1  0
 22 23  2  0
 13  7  1  0
 23 14  1  0
 22 17  1  0
  3 24  1  0
  4 25  1  0
  4 26  1  0
  8 27  1  0
  8 28  1  0
  9 29  1  0
  9 30  1  0
 10 31  1  0
 10 32  1  0
 11 33  1  0
 11 34  1  0
 12 35  1  0
 12 36  1  0
 13 37  1  0
 13 38  1  0
 15 39  1  0
 16 40  1  0
 18 41  1  0
 19 42  1  0
 20 43  1  0
 21 44  1  0
M  END
>  <smiles>  (47) 
O=C(NCC(=O)N1CCCCCC1)c1ccc2ccccc2n1

>  <score_type>  (47) 
oracle

>  <origin>  (47) 
autodockgpu

>  <m_score__min__energy>  (47) 
-5.8099999999999996

>  <m_primary>  (47) 
energy

>  <rmsd>  (47) 
3.60248367867722

>  <m_score__min__rmsd>  (47) 
3.60248367867722

>  <meeko>  (47) 
{"free_energy": -5.2, "intermolecular_energy": -7.89, "internal_energy": -0.93, "cluster_size": 7, "cluster_id": 4, "rank_in_cluster": 1}

>  <energy>  (47) 
-4.5

>  <cluster_rmsd>  (47) 
0.0

>  <cluster>  (47) 
7

$$$$

     RDKit          3D

 44 46  0  0  0  0  0  0  0  0999 V2000
  135.7760   77.8610  222.5520 O   0  0  0  0  0  0  0  0  0  0  0  0
  136.1130   76.7400  223.0140 C   0  0  0  0  0  0  0  0  0  0  0  0
  137.3400   76.1230  222.6390 N   0  0  0  0  0  0  0  0  0  0  0  0
  138.2110   76.7860  221.7200 C   0  0  0  0  0  0  0  0  0  0  0  0
  139.5590   76.9910  222.2850 C   0  0  0  0  0  0  0  0  0  0  0  0
  140.3560   76.0150  222.2460 O   0  0  0  0  0  0  0  0  0  0  0  0
  139.9550   78.2180  222.8470 N   0  0  0  0  0  0  0  0  0  0  0  0
  138.9500   79.2430  222.8280 C   0  0  0  0  0  0  0  0  0  0  0  0
  139.4130   80.5490  223.4090 C   0  0  0  0  0  0  0  0  0  0  0  0
  140.5210   81.1770  222.5860 C   0  0  0  0  0  0  0  0  0  0  0  0
  141.8860   80.6690  223.0530 C   0  0  0  0  0  0  0  0  0  0  0  0
  142.0990   79.2530  222.5650 C   0  0  0  0  0  0  0  0  0  0  0  0
  141.3100   78.2680  223.3630 C   0  0  0  0  0  0  0  0  0  0  0  0
  135.2510   76.0180  223.9620 C   0  0  0  0  0  0  0  0  0  0  0  0
  134.3610   76.7330  224.7470 C   0  0  0  0  0  0  0  0  0  0  0  0
  133.5210   76.1220  225.6570 C   0  0  0  0  0  0  0  0  0  0  0  0
  133.6190   74.7340  225.7450 C   0  0  0  0  0  0  0  0  0  0  0  0
  132.7910   74.0720  226.6510 C   0  0  0  0  0  0  0  0  0  0  0  0
  132.8900   72.6980  226.7370 C   0  0  0  0  0  0  0  0  0  0  0  0
  133.7680   71.9610  225.9680 C   0  0  0  0  0  0  0  0  0  0  0  0
  134.5710   72.6450  225.0820 C   0  0  0  0  0  0  0  0  0  0  0  0
  134.5120   74.0180  224.9580 C   0  0  0  0  0  0  0  0  0  0  0  0
  135.3010   74.6790  224.0910 N   0  0  0  0  0  0  0  0  0  0  0  0
  137.6040   75.1820  223.0380 H   0  0  0  0  0  0  0  0  0  0  0  0
  138.2969   76.1756  220.8089 H   0  0  0  0  0  0  0  0  0  0  0  0
  137.7819   77.7743  221.4981 H   0  0  0  0  0  0  0  0  0  0  0  0
  138.6474   79.4143  221.7844 H   0  0  0  0  0  0  0  0  0  0  0  0
  138.1162   78.8893  223.4522 H   0  0  0  0  0  0  0  0  0  0  0  0
  138.5606   81.2434  223.4453 H   0  0  0  0  0  0  0  0  0  0  0  0
  139.8088   80.3511  224.4160 H   0  0  0  0  0  0  0  0  0  0  0  0
  140.3794   80.9143  221.5272 H   0  0  0  0  0  0  0  0  0  0  0  0
  140.4844   82.2690  222.7129 H   0  0  0  0  0  0  0  0  0  0  0  0
  142.6759   81.3181  222.6470 H   0  0  0  0  0  0  0  0  0  0  0  0
  141.9230   80.6842  224.1523 H   0  0  0  0  0  0  0  0  0  0  0  0
  141.7883   79.1886  221.5118 H   0  0  0  0  0  0  0  0  0  0  0  0
  143.1656   79.0089  222.6776 H   0  0  0  0  0  0  0  0  0  0  0  0
  141.7723   77.2732  223.2819 H   0  0  0  0  0  0  0  0  0  0  0  0
  141.2939   78.5740  224.4195 H   0  0  0  0  0  0  0  0  0  0  0  0
  134.3221   77.8272  224.6415 H   0  0  0  0  0  0  0  0  0  0  0  0
  132.8161   76.6965  226.2759 H   0  0  0  0  0  0  0  0  0  0  0  0
  132.0797   74.6286  227.2788 H   0  0  0  0  0  0  0  0  0  0  0  0
  132.2411   72.1673  227.4492 H   0  0  0  0  0  0  0  0  0  0  0  0
  133.8245   70.8663  226.0594 H   0  0  0  0  0  0  0  0  0  0  0  0
  135.2786   72.0812  224.4563 H   0  0  0  0  0  0  0  0  0  0  0  0
  1  2  2  0
  2  3  1  0
  3  4  1  0
  4  5  1  0
  5  6  2  0
  5  7  1  0
  7  8  1  0
  8  9  1  0
  9 10  1  0
 10 11  1  0
 11 12  1  0
 12 13  1  0
  2 14  1  0
 14 15  2  0
 15 16  1  0
 16 17  2  0
 17 18  1  0
 18 19  2  0
 19 20  1  0
 20 21  2  0
 21 22  1  0
 22 23  2  0
 13  7  1  0
 23 14  1  0
 22 17  1  0
  3 24  1  0
  4 25  1  0
  4 26  1  0
  8 27  1  0
  8 28  1  0
  9 29  1  0
  9 30  1  0
 10 31  1  0
 10 32  1  0
 11 33  1  0
 11 34  1  0
 12 35  1  0
 12 36  1  0
 13 37  1  0
 13 38  1  0
 15 39  1  0
 16 40  1  0
 18 41  1  0
 19 42  1  0
 20 43  1  0
 21 44  1  0
M  END
>  <smiles>  (48) 
O=C(NCC(=O)N1CCCCCC1)c1ccc2ccccc2n1

>  <score_type>  (48) 
oracle

>  <origin>  (48) 
autodockgpu

>  <m_score__min__energy>  (48) 
-5.8099999999999996

>  <m_primary>  (48) 
energy

>  <rmsd>  (48) 
6.8250519631532915

>  <m_score__min__rmsd>  (48) 
6.8250519631532915

>  <meeko>  (48) 
{"free_energy": -4.33, "intermolecular_energy": -7.01, "internal_energy": -1.2, "cluster_size": 2, "cluster_id": 7, "rank_in_cluster": 2}

>  <energy>  (48) 
-4.33

>  <cluster_rmsd>  (48) 
1.19

>  <cluster>  (48) 
7

$$$$

     RDKit          3D

 44 46  0  0  0  0  0  0  0  0999 V2000
  140.8170   71.3170  221.3860 O   0  0  0  0  0  0  0  0  0  0  0  0
  140.3640   71.9100  222.4000 C   0  0  0  0  0  0  0  0  0  0  0  0
  139.9950   73.2830  222.3520 N   0  0  0  0  0  0  0  0  0  0  0  0
  140.1400   74.0100  221.1300 C   0  0  0  0  0  0  0  0  0  0  0  0
  140.4570   75.4320  221.3650 C   0  0  0  0  0  0  0  0  0  0  0  0
  140.0160   75.9540  222.4250 O   0  0  0  0  0  0  0  0  0  0  0  0
  141.2170   76.1890  220.4560 N   0  0  0  0  0  0  0  0  0  0  0  0
  141.6540   75.4730  219.2910 C   0  0  0  0  0  0  0  0  0  0  0  0
  141.0200   75.9530  218.0170 C   0  0  0  0  0  0  0  0  0  0  0  0
  141.6520   77.2380  217.5160 C   0  0  0  0  0  0  0  0  0  0  0  0
  141.3470   78.3910  218.4740 C   0  0  0  0  0  0  0  0  0  0  0  0
  142.1920   78.2530  219.7220 C   0  0  0  0  0  0  0  0  0  0  0  0
  141.4450   77.5740  220.8230 C   0  0  0  0  0  0  0  0  0  0  0  0
  140.1970   71.2050  223.6810 C   0  0  0  0  0  0  0  0  0  0  0  0
  139.5680   69.9710  223.6990 C   0  0  0  0  0  0  0  0  0  0  0  0
  139.3780   69.2540  224.8630 C   0  0  0  0  0  0  0  0  0  0  0  0
  139.8570   69.8440  226.0310 C   0  0  0  0  0  0  0  0  0  0  0  0
  139.6870   69.1580  227.2330 C   0  0  0  0  0  0  0  0  0  0  0  0
  140.1620   69.7440  228.3890 C   0  0  0  0  0  0  0  0  0  0  0  0
  140.7930   70.9730  228.4010 C   0  0  0  0  0  0  0  0  0  0  0  0
  140.9440   71.6240  227.1970 C   0  0  0  0  0  0  0  0  0  0  0  0
  140.4870   71.0820  226.0130 C   0  0  0  0  0  0  0  0  0  0  0  0
  140.6400   71.7260  224.8410 N   0  0  0  0  0  0  0  0  0  0  0  0
  139.6170   73.7620  223.2140 H   0  0  0  0  0  0  0  0  0  0  0  0
  140.9525   73.5578  220.5424 H   0  0  0  0  0  0  0  0  0  0  0  0
  139.1826   73.9608  220.5906 H   0  0  0  0  0  0  0  0  0  0  0  0
  142.7444   75.5873  219.2013 H   0  0  0  0  0  0  0  0  0  0  0  0
  141.3529   74.4236  219.4256 H   0  0  0  0  0  0  0  0  0  0  0  0
  141.1375   75.1760  217.2473 H   0  0  0  0  0  0  0  0  0  0  0  0
  139.9580   76.1541  218.2210 H   0  0  0  0  0  0  0  0  0  0  0  0
  142.7415   77.1030  217.4465 H   0  0  0  0  0  0  0  0  0  0  0  0
  141.2369   77.4774  216.5259 H   0  0  0  0  0  0  0  0  0  0  0  0
  141.5765   79.3470  217.9807 H   0  0  0  0  0  0  0  0  0  0  0  0
  140.2824   78.3643  218.7496 H   0  0  0  0  0  0  0  0  0  0  0  0
  143.0882   77.6621  219.4821 H   0  0  0  0  0  0  0  0  0  0  0  0
  142.4650   79.2621  220.0644 H   0  0  0  0  0  0  0  0  0  0  0  0
  142.0352   77.6173  221.7503 H   0  0  0  0  0  0  0  0  0  0  0  0
  140.4811   78.0789  220.9842 H   0  0  0  0  0  0  0  0  0  0  0  0
  139.2065   69.5468  222.7506 H   0  0  0  0  0  0  0  0  0  0  0  0
  138.8778   68.2743  224.8683 H   0  0  0  0  0  0  0  0  0  0  0  0
  139.1886   68.1778  227.2593 H   0  0  0  0  0  0  0  0  0  0  0  0
  140.0326   69.2095  229.3416 H   0  0  0  0  0  0  0  0  0  0  0  0
  141.1614   71.4154  229.3383 H   0  0  0  0  0  0  0  0  0  0  0  0
  141.4432   72.6041  227.1785 H   0  0  0  0  0  0  0  0  0  0  0  0
  1  2  2  0
  2  3  1  0
  3  4  1  0
  4  5  1  0
  5  6  2  0
  5  7  1  0
  7  8  1  0
  8  9  1  0
  9 10  1  0
 10 11  1  0
 11 12  1  0
 12 13  1  0
  2 14  1  0
 14 15  2  0
 15 16  1  0
 16 17  2  0
 17 18  1  0
 18 19  2  0
 19 20  1  0
 20 21  2  0
 21 22  1  0
 22 23  2  0
 13  7  1  0
 23 14  1  0
 22 17  1  0
  3 24  1  0
  4 25  1  0
  4 26  1  0
  8 27  1  0
  8 28  1  0
  9 29  1  0
  9 30  1  0
 10 31  1  0
 10 32  1  0
 11 33  1  0
 11 34  1  0
 12 35  1  0
 12 36  1  0
 13 37  1  0
 13 38  1  0
 15 39  1  0
 16 40  1  0
 18 41  1  0
 19 42  1  0
 20 43  1  0
 21 44  1  0
M  END
>  <smiles>  (49) 
O=C(NCC(=O)N1CCCCCC1)c1ccc2ccccc2n1

>  <score_type>  (49) 
oracle

>  <origin>  (49) 
autodockgpu

>  <m_score__min__energy>  (49) 
-5.8099999999999996

>  <m_primary>  (49) 
energy

>  <rmsd>  (49) 
2.2178724873798115

>  <m_score__min__rmsd>  (49) 
2.2178724873798115

>  <meeko>  (49) 
{"free_energy": -4.81, "intermolecular_energy": -7.5, "internal_energy": -1.32, "cluster_size": 2, "cluster_id": 6, "rank_in_cluster": 1}

>  <energy>  (49) 
-3.98

>  <cluster_rmsd>  (49) 
0.0

>  <cluster>  (49) 
8

$$$$

     RDKit          3D

 44 46  0  0  0  0  0  0  0  0999 V2000
  141.1600   73.0030  222.2430 O   0  0  0  0  0  0  0  0  0  0  0  0
  140.0150   72.6890  222.6590 C   0  0  0  0  0  0  0  0  0  0  0  0
  138.8570   73.4170  222.2630 N   0  0  0  0  0  0  0  0  0  0  0  0
  138.9930   74.5290  221.3750 C   0  0  0  0  0  0  0  0  0  0  0  0
  139.5050   75.7290  222.0650 C   0  0  0  0  0  0  0  0  0  0  0  0
  138.8180   76.1830  223.0190 O   0  0  0  0  0  0  0  0  0  0  0  0
  140.7070   76.3520  221.6860 N   0  0  0  0  0  0  0  0  0  0  0  0
  141.3880   75.7330  220.5840 C   0  0  0  0  0  0  0  0  0  0  0  0
  142.3750   76.6380  219.9030 C   0  0  0  0  0  0  0  0  0  0  0  0
  141.6990   77.8280  219.2490 C   0  0  0  0  0  0  0  0  0  0  0  0
  140.6190   78.3990  220.1700 C   0  0  0  0  0  0  0  0  0  0  0  0
  141.2090   78.6920  221.5360 C   0  0  0  0  0  0  0  0  0  0  0  0
  141.0810   77.5230  222.4560 C   0  0  0  0  0  0  0  0  0  0  0  0
  139.8240   71.5530  223.5740 C   0  0  0  0  0  0  0  0  0  0  0  0
  138.8380   70.6200  223.2990 C   0  0  0  0  0  0  0  0  0  0  0  0
  138.6030   69.5300  224.1130 C   0  0  0  0  0  0  0  0  0  0  0  0
  139.4190   69.4180  225.2370 C   0  0  0  0  0  0  0  0  0  0  0  0
  139.2190   68.3330  226.0910 C   0  0  0  0  0  0  0  0  0  0  0  0
  140.0290   68.2240  227.2030 C   0  0  0  0  0  0  0  0  0  0  0  0
  141.0190   69.1390  227.5020 C   0  0  0  0  0  0  0  0  0  0  0  0
  141.1900   70.1990  226.6390 C   0  0  0  0  0  0  0  0  0  0  0  0
  140.4080   70.3540  225.5130 C   0  0  0  0  0  0  0  0  0  0  0  0
  140.5820   71.3930  224.6750 N   0  0  0  0  0  0  0  0  0  0  0  0
  137.9050   73.1370  222.6230 H   0  0  0  0  0  0  0  0  0  0  0  0
  139.6917   74.2571  220.5700 H   0  0  0  0  0  0  0  0  0  0  0  0
  137.9967   74.7671  220.9741 H   0  0  0  0  0  0  0  0  0  0  0  0
  141.9267   74.8504  220.9594 H   0  0  0  0  0  0  0  0  0  0  0  0
  140.6232   75.4700  219.8384 H   0  0  0  0  0  0  0  0  0  0  0  0
  143.0944   77.0047  220.6500 H   0  0  0  0  0  0  0  0  0  0  0  0
  142.8790   76.0588  219.1153 H   0  0  0  0  0  0  0  0  0  0  0  0
  142.4503   78.6053  219.0457 H   0  0  0  0  0  0  0  0  0  0  0  0
  141.2306   77.5008  218.3090 H   0  0  0  0  0  0  0  0  0  0  0  0
  140.2238   79.3293  219.7360 H   0  0  0  0  0  0  0  0  0  0  0  0
  139.8071   77.6644  220.2757 H   0  0  0  0  0  0  0  0  0  0  0  0
  142.2747   78.9380  221.4185 H   0  0  0  0  0  0  0  0  0  0  0  0
  140.6554   79.5353  221.9746 H   0  0  0  0  0  0  0  0  0  0  0  0
  142.0430   77.3421  222.9578 H   0  0  0  0  0  0  0  0  0  0  0  0
  140.3107   77.7301  223.2135 H   0  0  0  0  0  0  0  0  0  0  0  0
  138.2195   70.7524  222.3990 H   0  0  0  0  0  0  0  0  0  0  0  0
  137.8178   68.7933  223.8876 H   0  0  0  0  0  0  0  0  0  0  0  0
  138.4384   67.5862  225.8840 H   0  0  0  0  0  0  0  0  0  0  0  0
  139.8794   67.3707  227.8809 H   0  0  0  0  0  0  0  0  0  0  0  0
  141.6484   69.0256  228.3970 H   0  0  0  0  0  0  0  0  0  0  0  0
  141.9718   70.9425  226.8536 H   0  0  0  0  0  0  0  0  0  0  0  0
  1  2  2  0
  2  3  1  0
  3  4  1  0
  4  5  1  0
  5  6  2  0
  5  7  1  0
  7  8  1  0
  8  9  1  0
  9 10  1  0
 10 11  1  0
 11 12  1  0
 12 13  1  0
  2 14  1  0
 14 15  2  0
 15 16  1  0
 16 17  2  0
 17 18  1  0
 18 19  2  0
 19 20  1  0
 20 21  2  0
 21 22  1  0
 22 23  2  0
 13  7  1  0
 23 14  1  0
 22 17  1  0
  3 24  1  0
  4 25  1  0
  4 26  1  0
  8 27  1  0
  8 28  1  0
  9 29  1  0
  9 30  1  0
 10 31  1  0
 10 32  1  0
 11 33  1  0
 11 34  1  0
 12 35  1  0
 12 36  1  0
 13 37  1  0
 13 38  1  0
 15 39  1  0
 16 40  1  0
 18 41  1  0
 19 42  1  0
 20 43  1  0
 21 44  1  0
M  END
>  <smiles>  (50) 
O=C(NCC(=O)N1CCCCCC1)c1ccc2ccccc2n1

>  <score_type>  (50) 
oracle

>  <origin>  (50) 
autodockgpu

>  <m_score__min__energy>  (50) 
-5.8099999999999996

>  <m_primary>  (50) 
energy

>  <rmsd>  (50) 
2.720418805350503

>  <m_score__min__rmsd>  (50) 
2.720418805350503

>  <meeko>  (50) 
{"free_energy": -4.82, "intermolecular_energy": -7.5, "internal_energy": -1.0, "cluster_size": 7, "cluster_id": 4, "rank_in_cluster": 6}

>  <energy>  (50) 
-3.76

>  <cluster_rmsd>  (50) 
0.0

>  <cluster>  (50) 
9

$$$$
