
     RDKit          3D

 55 58  0  0  0  0  0  0  0  0999 V2000
  140.8300   71.4490  221.1740 O   0  0  0  0  0  0  0  0  0  0  0  0
  140.3290   71.9580  222.2330 C   0  0  0  0  0  0  0  0  0  0  0  0
  139.9720   73.3430  222.2840 N   0  0  0  0  0  0  0  0  0  0  0  0
  140.1740   74.1920  221.1320 C   0  0  0  0  0  0  0  0  0  0  0  0
  140.3390   75.6270  221.5440 C   0  0  0  0  0  0  0  0  0  0  0  0
  140.1440   76.0180  222.7090 O   0  0  0  0  0  0  0  0  0  0  0  0
  140.7370   76.5660  220.5510 N   0  0  0  0  0  0  0  0  0  0  0  0
  142.1350   76.6980  220.1840 C   0  0  0  0  0  0  0  0  0  0  0  0
  142.3420   76.7560  218.6890 C   0  0  0  0  0  0  0  0  0  0  0  0
  141.4870   77.8530  218.1300 C   0  0  0  0  0  0  0  0  0  0  0  0
  140.0560   77.5360  218.4030 C   0  0  0  0  0  0  0  0  0  0  0  0
  139.7710   77.4140  219.8800 C   0  0  2  0  0  0  0  0  0  0  0  0
  139.8550   78.7860  220.5420 C   0  0  0  0  0  0  0  0  0  0  0  0
  140.0090   78.6940  221.9790 N   0  0  0  0  0  0  0  0  0  0  0  0
  141.0120   79.4890  222.6290 C   0  0  0  0  0  0  0  0  0  0  0  0
  142.3640   79.2070  222.4450 C   0  0  0  0  0  0  0  0  0  0  0  0
  143.3320   79.9660  223.0650 C   0  0  0  0  0  0  0  0  0  0  0  0
  142.9600   81.0060  223.8680 C   0  0  0  0  0  0  0  0  0  0  0  0
  141.6120   81.2780  224.0440 C   0  0  0  0  0  0  0  0  0  0  0  0
  140.6770   80.5120  223.4190 N   0  0  0  0  0  0  0  0  0  0  0  0
  140.1140   71.1160  223.4120 C   0  0  0  0  0  0  0  0  0  0  0  0
  139.4270   69.9340  223.2920 C   0  0  0  0  0  0  0  0  0  0  0  0
  139.2480   69.1680  224.4420 C   0  0  0  0  0  0  0  0  0  0  0  0
  139.7540   69.5980  225.6690 C   0  0  0  0  0  0  0  0  0  0  0  0
  139.5810   68.8450  226.8100 C   0  0  0  0  0  0  0  0  0  0  0  0
  140.0940   69.2950  228.0130 C   0  0  0  0  0  0  0  0  0  0  0  0
  139.9490   68.5900  229.1640 F   0  0  0  0  0  0  0  0  0  0  0  0
  140.7820   70.5050  228.0690 C   0  0  0  0  0  0  0  0  0  0  0  0
  140.9660   71.2780  226.9230 C   0  0  0  0  0  0  0  0  0  0  0  0
  140.4370   70.7880  225.7440 C   0  0  0  0  0  0  0  0  0  0  0  0
  140.5890   71.5000  224.6110 N   0  0  0  0  0  0  0  0  0  0  0  0
  139.5650   73.7410  223.1530 H   0  0  0  0  0  0  0  0  0  0  0  0
  141.0782   73.8647  220.5979 H   0  0  0  0  0  0  0  0  0  0  0  0
  139.2919   74.1136  220.4796 H   0  0  0  0  0  0  0  0  0  0  0  0
  142.5302   77.6225  220.6302 H   0  0  0  0  0  0  0  0  0  0  0  0
  142.6623   75.8081  220.5582 H   0  0  0  0  0  0  0  0  0  0  0  0
  143.3999   76.9621  218.4691 H   0  0  0  0  0  0  0  0  0  0  0  0
  142.0643   75.7940  218.2336 H   0  0  0  0  0  0  0  0  0  0  0  0
  141.7516   78.8076  218.6083 H   0  0  0  0  0  0  0  0  0  0  0  0
  141.6500   77.9369  217.0454 H   0  0  0  0  0  0  0  0  0  0  0  0
  139.4296   78.3386  217.9864 H   0  0  0  0  0  0  0  0  0  0  0  0
  139.8293   76.5671  217.9341 H   0  0  0  0  0  0  0  0  0  0  0  0
  138.7655   76.9773  219.9706 H   0  0  0  0  0  0  0  0  0  0  0  0
  140.7187   79.3266  220.1275 H   0  0  0  0  0  0  0  0  0  0  0  0
  138.9134   79.3166  220.3376 H   0  0  0  0  0  0  0  0  0  0  0  0
  139.4160   78.0700  222.5650 H   0  0  0  0  0  0  0  0  0  0  0  0
  142.6617   78.3690  221.7975 H   0  0  0  0  0  0  0  0  0  0  0  0
  144.3971   79.7360  222.9143 H   0  0  0  0  0  0  0  0  0  0  0  0
  143.7215   81.6212  224.3697 H   0  0  0  0  0  0  0  0  0  0  0  0
  141.2985   82.1125  224.6885 H   0  0  0  0  0  0  0  0  0  0  0  0
  139.0311   69.6026  222.3207 H   0  0  0  0  0  0  0  0  0  0  0  0
  138.7023   68.2148  224.3819 H   0  0  0  0  0  0  0  0  0  0  0  0
  139.0371   67.8900  226.7642 H   0  0  0  0  0  0  0  0  0  0  0  0
  141.1857   70.8555  229.0304 H   0  0  0  0  0  0  0  0  0  0  0  0
  141.5078   72.2347  226.9560 H   0  0  0  0  0  0  0  0  0  0  0  0
  1  2  2  0
  2  3  1  0
  3  4  1  0
  4  5  1  0
  5  6  2  0
  5  7  1  0
  7  8  1  0
  8  9  1  0
  9 10  1  0
 10 11  1  0
 11 12  1  0
 12 13  1  0
 13 14  1  0
 14 15  1  0
 15 16  2  0
 16 17  1  0
 17 18  2  0
 18 19  1  0
 19 20  2  0
  2 21  1  0
 21 22  2  0
 22 23  1  0
 23 24  2  0
 24 25  1  0
 25 26  2  0
 26 27  1  0
 26 28  1  0
 28 29  2  0
 29 30  1  0
 30 31  2  0
 12  7  1  0
 20 15  1  0
 31 21  1  0
 30 24  1  0
  3 32  1  0
  4 33  1  0
  4 34  1  0
  8 35  1  0
  8 36  1  0
  9 37  1  0
  9 38  1  0
 10 39  1  0
 10 40  1  0
 11 41  1  0
 11 42  1  0
 12 43  1  6
 13 44  1  0
 13 45  1  0
 14 46  1  0
 16 47  1  0
 17 48  1  0
 18 49  1  0
 19 50  1  0
 22 51  1  0
 23 52  1  0
 25 53  1  0
 28 54  1  0
 29 55  1  0
M  END
>  <smiles>  (1) 
O=C(NCC(=O)N1CCCCC1CNc1ccccn1)c1ccc2cc(F)ccc2n1

>  <score_type>  (1) 
oracle

>  <origin>  (1) 
autodockgpu

>  <m_score__min__energy>  (1) 
-9.0299999999999994

>  <m_primary>  (1) 
energy

>  <rmsd>  (1) 
2.481635630414821

>  <m_score__min__rmsd>  (1) 
2.481635630414821

>  <meeko>  (1) 
{"free_energy": -8.0, "intermolecular_energy": -10.09, "internal_energy": -2.53, "cluster_size": 31, "cluster_id": 1, "rank_in_cluster": 23}

>  <energy>  (1) 
-9.03

>  <cluster_rmsd>  (1) 
0.0

>  <cluster>  (1) 
1

$$$$

     RDKit          3D

 55 58  0  0  0  0  0  0  0  0999 V2000
  141.0800   72.9040  222.3220 O   0  0  0  0  0  0  0  0  0  0  0  0
  139.9530   72.4490  222.7170 C   0  0  0  0  0  0  0  0  0  0  0  0
  138.7310   72.9010  222.1260 N   0  0  0  0  0  0  0  0  0  0  0  0
  138.7510   73.8830  221.0650 C   0  0  0  0  0  0  0  0  0  0  0  0
  139.2420   75.2090  221.5710 C   0  0  0  0  0  0  0  0  0  0  0  0
  140.3870   75.3720  222.0300 O   0  0  0  0  0  0  0  0  0  0  0  0
  138.3490   76.3170  221.5160 N   0  0  0  0  0  0  0  0  0  0  0  0
  138.0110   76.9240  220.2410 C   0  0  0  0  0  0  0  0  0  0  0  0
  136.5310   77.1880  220.0960 C   0  0  0  0  0  0  0  0  0  0  0  0
  136.0730   78.0020  221.2680 C   0  0  0  0  0  0  0  0  0  0  0  0
  136.2990   77.2190  222.5170 C   0  0  0  0  0  0  0  0  0  0  0  0
  137.7540   76.8720  222.7160 C   0  0  2  0  0  0  0  0  0  0  0  0
  138.5480   78.1280  223.0600 C   0  0  0  0  0  0  0  0  0  0  0  0
  139.9640   77.9710  222.8050 N   0  0  0  0  0  0  0  0  0  0  0  0
  140.8450   79.0800  223.0310 C   0  0  0  0  0  0  0  0  0  0  0  0
  142.1870   79.0030  222.6620 C   0  0  0  0  0  0  0  0  0  0  0  0
  143.0370   80.0660  222.8760 C   0  0  0  0  0  0  0  0  0  0  0  0
  142.5580   81.2060  223.4550 C   0  0  0  0  0  0  0  0  0  0  0  0
  141.2230   81.2720  223.8190 C   0  0  0  0  0  0  0  0  0  0  0  0
  140.4040   80.2080  223.5960 N   0  0  0  0  0  0  0  0  0  0  0  0
  139.9080   71.4530  223.7890 C   0  0  0  0  0  0  0  0  0  0  0  0
  139.2940   70.2450  223.5740 C   0  0  0  0  0  0  0  0  0  0  0  0
  139.2770   69.3290  224.6250 C   0  0  0  0  0  0  0  0  0  0  0  0
  139.8660   69.6410  225.8500 C   0  0  0  0  0  0  0  0  0  0  0  0
  139.8520   68.7410  226.8920 C   0  0  0  0  0  0  0  0  0  0  0  0
  140.4450   69.0760  228.0960 C   0  0  0  0  0  0  0  0  0  0  0  0
  140.4570   68.2240  229.1540 F   0  0  0  0  0  0  0  0  0  0  0  0
  141.0520   70.3210  228.2520 C   0  0  0  0  0  0  0  0  0  0  0  0
  141.0750   71.2430  227.2060 C   0  0  0  0  0  0  0  0  0  0  0  0
  140.4710   70.8640  226.0220 C   0  0  0  0  0  0  0  0  0  0  0  0
  140.4670   71.7210  224.9840 N   0  0  0  0  0  0  0  0  0  0  0  0
  137.8230   72.5210  222.4590 H   0  0  0  0  0  0  0  0  0  0  0  0
  139.4187   73.5337  220.2636 H   0  0  0  0  0  0  0  0  0  0  0  0
  137.7269   74.0096  220.6841 H   0  0  0  0  0  0  0  0  0  0  0  0
  138.5493   77.8791  220.1521 H   0  0  0  0  0  0  0  0  0  0  0  0
  138.3020   76.2182  219.4491 H   0  0  0  0  0  0  0  0  0  0  0  0
  136.3430   77.7416  219.1642 H   0  0  0  0  0  0  0  0  0  0  0  0
  135.9812   76.2359  220.0621 H   0  0  0  0  0  0  0  0  0  0  0  0
  136.6449   78.9406  221.3119 H   0  0  0  0  0  0  0  0  0  0  0  0
  135.0035   78.2372  221.1636 H   0  0  0  0  0  0  0  0  0  0  0  0
  135.9561   77.8149  223.3757 H   0  0  0  0  0  0  0  0  0  0  0  0
  135.7356   76.2780  222.4326 H   0  0  0  0  0  0  0  0  0  0  0  0
  137.7908   76.1304  223.5276 H   0  0  0  0  0  0  0  0  0  0  0  0
  138.1697   78.9630  222.4519 H   0  0  0  0  0  0  0  0  0  0  0  0
  138.4197   78.3227  224.1350 H   0  0  0  0  0  0  0  0  0  0  0  0
  140.3740   77.0770  222.4610 H   0  0  0  0  0  0  0  0  0  0  0  0
  142.5713   78.0841  222.1952 H   0  0  0  0  0  0  0  0  0  0  0  0
  144.0948   79.9967  222.5823 H   0  0  0  0  0  0  0  0  0  0  0  0
  143.2250   82.0629  223.6306 H   0  0  0  0  0  0  0  0  0  0  0  0
  140.8250   82.1839  224.2881 H   0  0  0  0  0  0  0  0  0  0  0  0
  138.8308   70.0072  222.6051 H   0  0  0  0  0  0  0  0  0  0  0  0
  138.7941   68.3504  224.4866 H   0  0  0  0  0  0  0  0  0  0  0  0
  139.3712   67.7595  226.7675 H   0  0  0  0  0  0  0  0  0  0  0  0
  141.5194   70.5799  229.2135 H   0  0  0  0  0  0  0  0  0  0  0  0
  141.5524   72.2276  227.3182 H   0  0  0  0  0  0  0  0  0  0  0  0
  1  2  2  0
  2  3  1  0
  3  4  1  0
  4  5  1  0
  5  6  2  0
  5  7  1  0
  7  8  1  0
  8  9  1  0
  9 10  1  0
 10 11  1  0
 11 12  1  0
 12 13  1  0
 13 14  1  0
 14 15  1  0
 15 16  2  0
 16 17  1  0
 17 18  2  0
 18 19  1  0
 19 20  2  0
  2 21  1  0
 21 22  2  0
 22 23  1  0
 23 24  2  0
 24 25  1  0
 25 26  2  0
 26 27  1  0
 26 28  1  0
 28 29  2  0
 29 30  1  0
 30 31  2  0
 12  7  1  0
 20 15  1  0
 31 21  1  0
 30 24  1  0
  3 32  1  0
  4 33  1  0
  4 34  1  0
  8 35  1  0
  8 36  1  0
  9 37  1  0
  9 38  1  0
 10 39  1  0
 10 40  1  0
 11 41  1  0
 11 42  1  0
 12 43  1  1
 13 44  1  0
 13 45  1  0
 14 46  1  0
 16 47  1  0
 17 48  1  0
 18 49  1  0
 19 50  1  0
 22 51  1  0
 23 52  1  0
 25 53  1  0
 28 54  1  0
 29 55  1  0
M  END
>  <smiles>  (2) 
O=C(NCC(=O)N1CCCCC1CNc1ccccn1)c1ccc2cc(F)ccc2n1

>  <score_type>  (2) 
oracle

>  <origin>  (2) 
autodockgpu

>  <m_score__min__energy>  (2) 
-9.0299999999999994

>  <m_primary>  (2) 
energy

>  <rmsd>  (2) 
3.1263329708486807

>  <m_score__min__rmsd>  (2) 
3.1263329708486807

>  <meeko>  (2) 
{"free_energy": -8.04, "intermolecular_energy": -10.13, "internal_energy": -1.94, "cluster_size": 3, "cluster_id": 4, "rank_in_cluster": 1}

>  <energy>  (2) 
-9.02

>  <cluster_rmsd>  (2) 
0.54

>  <cluster>  (2) 
1

$$$$

     RDKit          3D

 55 58  0  0  0  0  0  0  0  0999 V2000
  139.4500   70.5230  221.3180 O   0  0  0  0  0  0  0  0  0  0  0  0
  139.5350   71.1040  222.4510 C   0  0  0  0  0  0  0  0  0  0  0  0
  139.5450   72.5330  222.5450 N   0  0  0  0  0  0  0  0  0  0  0  0
  139.4570   73.3430  221.3520 C   0  0  0  0  0  0  0  0  0  0  0  0
  139.7610   74.7820  221.6560 C   0  0  0  0  0  0  0  0  0  0  0  0
  140.9000   75.1770  221.9670 O   0  0  0  0  0  0  0  0  0  0  0  0
  138.6930   75.7220  221.5810 N   0  0  0  0  0  0  0  0  0  0  0  0
  138.0280   75.9740  220.3170 C   0  0  0  0  0  0  0  0  0  0  0  0
  136.5230   76.0020  220.4470 C   0  0  0  0  0  0  0  0  0  0  0  0
  136.1520   76.9920  221.5080 C   0  0  0  0  0  0  0  0  0  0  0  0
  136.7360   76.5480  222.8060 C   0  0  0  0  0  0  0  0  0  0  0  0
  138.2420   76.4500  222.7500 C   0  0  2  0  0  0  0  0  0  0  0  0
  138.8520   77.8450  222.6630 C   0  0  0  0  0  0  0  0  0  0  0  0
  140.3000   77.8120  222.6630 N   0  0  0  0  0  0  0  0  0  0  0  0
  141.0280   78.9950  223.0190 C   0  0  0  0  0  0  0  0  0  0  0  0
  142.4140   79.0400  222.8780 C   0  0  0  0  0  0  0  0  0  0  0  0
  143.1190   80.1740  223.2170 C   0  0  0  0  0  0  0  0  0  0  0  0
  142.4510   81.2640  223.6960 C   0  0  0  0  0  0  0  0  0  0  0  0
  141.0730   81.2100  223.8320 C   0  0  0  0  0  0  0  0  0  0  0  0
  140.4010   80.0770  223.4890 N   0  0  0  0  0  0  0  0  0  0  0  0
  139.6240   70.3040  223.6740 C   0  0  0  0  0  0  0  0  0  0  0  0
  139.1040   69.0330  223.6980 C   0  0  0  0  0  0  0  0  0  0  0  0
  139.2130   68.3100  224.8840 C   0  0  0  0  0  0  0  0  0  0  0  0
  139.8300   68.8680  226.0040 C   0  0  0  0  0  0  0  0  0  0  0  0
  139.9410   68.1590  227.1790 C   0  0  0  0  0  0  0  0  0  0  0  0
  140.5580   68.7370  228.2740 C   0  0  0  0  0  0  0  0  0  0  0  0
  140.6910   68.0800  229.4540 F   0  0  0  0  0  0  0  0  0  0  0  0
  141.0650   70.0320  228.1850 C   0  0  0  0  0  0  0  0  0  0  0  0
  140.9610   70.7630  227.0030 C   0  0  0  0  0  0  0  0  0  0  0  0
  140.3370   70.1440  225.9360 C   0  0  0  0  0  0  0  0  0  0  0  0
  140.2130   70.8110  224.7720 N   0  0  0  0  0  0  0  0  0  0  0  0
  139.6140   72.9900  223.4750 H   0  0  0  0  0  0  0  0  0  0  0  0
  140.1796   72.9714  220.6106 H   0  0  0  0  0  0  0  0  0  0  0  0
  138.4323   73.2766  220.9576 H   0  0  0  0  0  0  0  0  0  0  0  0
  138.3661   76.9461  219.9288 H   0  0  0  0  0  0  0  0  0  0  0  0
  138.2879   75.1516  219.6343 H   0  0  0  0  0  0  0  0  0  0  0  0
  136.0740   76.3009  219.4883 H   0  0  0  0  0  0  0  0  0  0  0  0
  136.1513   75.0032  220.7193 H   0  0  0  0  0  0  0  0  0  0  0  0
  136.5493   77.9831  221.2438 H   0  0  0  0  0  0  0  0  0  0  0  0
  135.0571   77.0552  221.5933 H   0  0  0  0  0  0  0  0  0  0  0  0
  136.4568   77.2716  223.5861 H   0  0  0  0  0  0  0  0  0  0  0  0
  136.3404   75.5462  223.0293 H   0  0  0  0  0  0  0  0  0  0  0  0
  138.5577   75.9232  223.6626 H   0  0  0  0  0  0  0  0  0  0  0  0
  138.5090   78.3239  221.7340 H   0  0  0  0  0  0  0  0  0  0  0  0
  138.5280   78.4102  223.5493 H   0  0  0  0  0  0  0  0  0  0  0  0
  140.8390   76.9560  222.4130 H   0  0  0  0  0  0  0  0  0  0  0  0
  142.9505   78.1607  222.4920 H   0  0  0  0  0  0  0  0  0  0  0  0
  144.2127   80.2010  223.1025 H   0  0  0  0  0  0  0  0  0  0  0  0
  143.0011   82.1760  223.9712 H   0  0  0  0  0  0  0  0  0  0  0  0
  140.5229   82.0815  224.2166 H   0  0  0  0  0  0  0  0  0  0  0  0
  138.6180   68.6006  222.8110 H   0  0  0  0  0  0  0  0  0  0  0  0
  138.8083   67.2886  224.9379 H   0  0  0  0  0  0  0  0  0  0  0  0
  139.5405   67.1367  227.2468 H   0  0  0  0  0  0  0  0  0  0  0  0
  141.5544   70.4838  229.0604 H   0  0  0  0  0  0  0  0  0  0  0  0
  141.3574   71.7860  226.9228 H   0  0  0  0  0  0  0  0  0  0  0  0
  1  2  2  0
  2  3  1  0
  3  4  1  0
  4  5  1  0
  5  6  2  0
  5  7  1  0
  7  8  1  0
  8  9  1  0
  9 10  1  0
 10 11  1  0
 11 12  1  0
 12 13  1  0
 13 14  1  0
 14 15  1  0
 15 16  2  0
 16 17  1  0
 17 18  2  0
 18 19  1  0
 19 20  2  0
  2 21  1  0
 21 22  2  0
 22 23  1  0
 23 24  2  0
 24 25  1  0
 25 26  2  0
 26 27  1  0
 26 28  1  0
 28 29  2  0
 29 30  1  0
 30 31  2  0
 12  7  1  0
 20 15  1  0
 31 21  1  0
 30 24  1  0
  3 32  1  0
  4 33  1  0
  4 34  1  0
  8 35  1  0
  8 36  1  0
  9 37  1  0
  9 38  1  0
 10 39  1  0
 10 40  1  0
 11 41  1  0
 11 42  1  0
 12 43  1  1
 13 44  1  0
 13 45  1  0
 14 46  1  0
 16 47  1  0
 17 48  1  0
 18 49  1  0
 19 50  1  0
 22 51  1  0
 23 52  1  0
 25 53  1  0
 28 54  1  0
 29 55  1  0
M  END
>  <smiles>  (3) 
O=C(NCC(=O)N1CCCCC1CNc1ccccn1)c1ccc2cc(F)ccc2n1

>  <score_type>  (3) 
oracle

>  <origin>  (3) 
autodockgpu

>  <m_score__min__energy>  (3) 
-9.0299999999999994

>  <m_primary>  (3) 
energy

>  <rmsd>  (3) 
3.022083195572701

>  <m_score__min__rmsd>  (3) 
3.022083195572701

>  <meeko>  (3) 
{"free_energy": -8.19, "intermolecular_energy": -10.27, "internal_energy": -2.16, "cluster_size": 31, "cluster_id": 1, "rank_in_cluster": 15}

>  <energy>  (3) 
-8.98

>  <cluster_rmsd>  (3) 
0.38

>  <cluster>  (3) 
1

$$$$

     RDKit          3D

 55 58  0  0  0  0  0  0  0  0999 V2000
  140.2790   71.8440  221.0300 O   0  0  0  0  0  0  0  0  0  0  0  0
  139.9740   72.3200  222.1750 C   0  0  0  0  0  0  0  0  0  0  0  0
  139.6140   73.6970  222.3260 N   0  0  0  0  0  0  0  0  0  0  0  0
  139.5890   74.5760  221.1790 C   0  0  0  0  0  0  0  0  0  0  0  0
  139.7300   76.0110  221.5980 C   0  0  0  0  0  0  0  0  0  0  0  0
  139.3430   76.4290  222.7040 O   0  0  0  0  0  0  0  0  0  0  0  0
  140.3350   76.9180  220.6810 N   0  0  0  0  0  0  0  0  0  0  0  0
  139.6130   77.3580  219.5020 C   0  0  0  0  0  0  0  0  0  0  0  0
  139.7200   78.8490  219.2770 C   0  0  0  0  0  0  0  0  0  0  0  0
  141.1710   79.2250  219.2470 C   0  0  0  0  0  0  0  0  0  0  0  0
  141.7820   78.8950  220.5660 C   0  0  0  0  0  0  0  0  0  0  0  0
  141.6760   77.4250  220.8920 C   0  0  2  0  0  0  0  0  0  0  0  0
  142.5990   76.6220  219.9810 C   0  0  0  0  0  0  0  0  0  0  0  0
  142.4010   75.1940  220.1190 N   0  0  0  0  0  0  0  0  0  0  0  0
  143.5330   74.3520  220.3760 C   0  0  0  0  0  0  0  0  0  0  0  0
  144.8120   74.8980  220.4700 C   0  0  0  0  0  0  0  0  0  0  0  0
  145.9040   74.0940  220.7180 C   0  0  0  0  0  0  0  0  0  0  0  0
  145.7280   72.7490  220.8720 C   0  0  0  0  0  0  0  0  0  0  0  0
  144.4520   72.2160  220.7770 C   0  0  0  0  0  0  0  0  0  0  0  0
  143.3920   73.0330  220.5320 N   0  0  0  0  0  0  0  0  0  0  0  0
  139.9910   71.4490  223.3520 C   0  0  0  0  0  0  0  0  0  0  0  0
  139.5560   70.1510  223.2470 C   0  0  0  0  0  0  0  0  0  0  0  0
  139.5920   69.3610  224.3940 C   0  0  0  0  0  0  0  0  0  0  0  0
  140.0550   69.8810  225.6030 C   0  0  0  0  0  0  0  0  0  0  0  0
  140.0940   69.1050  226.7400 C   0  0  0  0  0  0  0  0  0  0  0  0
  140.5580   69.6460  227.9250 C   0  0  0  0  0  0  0  0  0  0  0  0
  140.6150   68.9230  229.0730 F   0  0  0  0  0  0  0  0  0  0  0  0
  140.9860   70.9720  227.9650 C   0  0  0  0  0  0  0  0  0  0  0  0
  140.9540   71.7700  226.8230 C   0  0  0  0  0  0  0  0  0  0  0  0
  140.4820   71.1860  225.6620 C   0  0  0  0  0  0  0  0  0  0  0  0
  140.4320   71.9180  224.5330 N   0  0  0  0  0  0  0  0  0  0  0  0
  139.3680   74.0680  223.2650 H   0  0  0  0  0  0  0  0  0  0  0  0
  140.4195   74.3142  220.5069 H   0  0  0  0  0  0  0  0  0  0  0  0
  138.6243   74.4541  220.6648 H   0  0  0  0  0  0  0  0  0  0  0  0
  140.0236   76.8389  218.6234 H   0  0  0  0  0  0  0  0  0  0  0  0
  138.5500   77.1197  219.6543 H   0  0  0  0  0  0  0  0  0  0  0  0
  139.2486   79.1140  218.3191 H   0  0  0  0  0  0  0  0  0  0  0  0
  139.2084   79.3891  220.0873 H   0  0  0  0  0  0  0  0  0  0  0  0
  141.6821   78.6621  218.4520 H   0  0  0  0  0  0  0  0  0  0  0  0
  141.2732   80.3019  219.0476 H   0  0  0  0  0  0  0  0  0  0  0  0
  142.8449   79.1773  220.5445 H   0  0  0  0  0  0  0  0  0  0  0  0
  141.2351   79.4528  221.3404 H   0  0  0  0  0  0  0  0  0  0  0  0
  141.9523   77.3172  221.9513 H   0  0  0  0  0  0  0  0  0  0  0  0
  142.4015   76.9073  218.9372 H   0  0  0  0  0  0  0  0  0  0  0  0
  143.6362   76.8474  220.2697 H   0  0  0  0  0  0  0  0  0  0  0  0
  141.4620   74.7510  220.0390 H   0  0  0  0  0  0  0  0  0  0  0  0
  144.9515   75.9819  220.3450 H   0  0  0  0  0  0  0  0  0  0  0  0
  146.9099   74.5330  220.7913 H   0  0  0  0  0  0  0  0  0  0  0  0
  146.5900   72.0949  221.0695 H   0  0  0  0  0  0  0  0  0  0  0  0
  144.2966   71.1340  220.8995 H   0  0  0  0  0  0  0  0  0  0  0  0
  139.1916   69.7487  222.2902 H   0  0  0  0  0  0  0  0  0  0  0  0
  139.2517   68.3161  224.3459 H   0  0  0  0  0  0  0  0  0  0  0  0
  139.7572   68.0584  226.7057 H   0  0  0  0  0  0  0  0  0  0  0  0
  141.3542   71.3945  228.9115 H   0  0  0  0  0  0  0  0  0  0  0  0
  141.2892   72.8175  226.8443 H   0  0  0  0  0  0  0  0  0  0  0  0
  1  2  2  0
  2  3  1  0
  3  4  1  0
  4  5  1  0
  5  6  2  0
  5  7  1  0
  7  8  1  0
  8  9  1  0
  9 10  1  0
 10 11  1  0
 11 12  1  0
 12 13  1  0
 13 14  1  0
 14 15  1  0
 15 16  2  0
 16 17  1  0
 17 18  2  0
 18 19  1  0
 19 20  2  0
  2 21  1  0
 21 22  2  0
 22 23  1  0
 23 24  2  0
 24 25  1  0
 25 26  2  0
 26 27  1  0
 26 28  1  0
 28 29  2  0
 29 30  1  0
 30 31  2  0
 12  7  1  0
 20 15  1  0
 31 21  1  0
 30 24  1  0
  3 32  1  0
  4 33  1  0
  4 34  1  0
  8 35  1  0
  8 36  1  0
  9 37  1  0
  9 38  1  0
 10 39  1  0
 10 40  1  0
 11 41  1  0
 11 42  1  0
 12 43  1  1
 13 44  1  0
 13 45  1  0
 14 46  1  0
 16 47  1  0
 17 48  1  0
 18 49  1  0
 19 50  1  0
 22 51  1  0
 23 52  1  0
 25 53  1  0
 28 54  1  0
 29 55  1  0
M  END
>  <smiles>  (4) 
O=C(NCC(=O)N1CCCCC1CNc1ccccn1)c1ccc2cc(F)ccc2n1

>  <score_type>  (4) 
oracle

>  <origin>  (4) 
autodockgpu

>  <m_score__min__energy>  (4) 
-9.0299999999999994

>  <m_primary>  (4) 
energy

>  <rmsd>  (4) 
4.217838180210246

>  <m_score__min__rmsd>  (4) 
4.217838180210246

>  <meeko>  (4) 
{"free_energy": -7.7, "intermolecular_energy": -9.79, "internal_energy": -2.05, "cluster_size": 5, "cluster_id": 3, "rank_in_cluster": 2}

>  <energy>  (4) 
-8.94

>  <cluster_rmsd>  (4) 
0.6

>  <cluster>  (4) 
1

$$$$

     RDKit          3D

 55 58  0  0  0  0  0  0  0  0999 V2000
  141.1840   72.1960  221.6110 O   0  0  0  0  0  0  0  0  0  0  0  0
  140.2390   72.3220  222.4600 C   0  0  0  0  0  0  0  0  0  0  0  0
  139.2660   73.3630  222.3270 N   0  0  0  0  0  0  0  0  0  0  0  0
  139.3380   74.2930  221.2220 C   0  0  0  0  0  0  0  0  0  0  0  0
  140.2990   75.4080  221.5210 C   0  0  0  0  0  0  0  0  0  0  0  0
  140.1550   76.1780  222.4880 O   0  0  0  0  0  0  0  0  0  0  0  0
  141.4160   75.5770  220.6540 N   0  0  0  0  0  0  0  0  0  0  0  0
  142.6120   74.7760  220.8340 C   0  0  0  0  0  0  0  0  0  0  0  0
  143.1400   74.2180  219.5340 C   0  0  0  0  0  0  0  0  0  0  0  0
  143.3370   75.3500  218.5710 C   0  0  0  0  0  0  0  0  0  0  0  0
  142.0190   75.9980  218.3140 C   0  0  0  0  0  0  0  0  0  0  0  0
  141.3970   76.5460  219.5750 C   0  0  2  0  0  0  0  0  0  0  0  0
  142.1830   77.7600  220.0590 C   0  0  0  0  0  0  0  0  0  0  0  0
  141.3220   78.8750  220.3930 N   0  0  0  0  0  0  0  0  0  0  0  0
  141.6010   79.6480  221.5690 C   0  0  0  0  0  0  0  0  0  0  0  0
  141.9760   79.0190  222.7550 C   0  0  0  0  0  0  0  0  0  0  0  0
  142.2460   79.7560  223.8870 C   0  0  0  0  0  0  0  0  0  0  0  0
  142.1440   81.1170  223.8440 C   0  0  0  0  0  0  0  0  0  0  0  0
  141.7710   81.7330  222.6600 C   0  0  0  0  0  0  0  0  0  0  0  0
  141.5110   80.9810  221.5560 N   0  0  0  0  0  0  0  0  0  0  0  0
  140.1450   71.3910  223.5870 C   0  0  0  0  0  0  0  0  0  0  0  0
  139.5740   70.1560  223.4060 C   0  0  0  0  0  0  0  0  0  0  0  0
  139.5070   69.3050  224.5080 C   0  0  0  0  0  0  0  0  0  0  0  0
  140.0070   69.7050  225.7480 C   0  0  0  0  0  0  0  0  0  0  0  0
  139.9450   68.8690  226.8400 C   0  0  0  0  0  0  0  0  0  0  0  0
  140.4480   69.2910  228.0570 C   0  0  0  0  0  0  0  0  0  0  0  0
  140.4090   68.5050  229.1630 F   0  0  0  0  0  0  0  0  0  0  0  0
  141.0160   70.5590  228.1750 C   0  0  0  0  0  0  0  0  0  0  0  0
  141.0870   71.4160  227.0780 C   0  0  0  0  0  0  0  0  0  0  0  0
  140.5720   70.9510  225.8830 C   0  0  0  0  0  0  0  0  0  0  0  0
  140.6170   71.7440  224.7960 N   0  0  0  0  0  0  0  0  0  0  0  0
  138.5030   73.4510  223.0260 H   0  0  0  0  0  0  0  0  0  0  0  0
  139.6761   73.7578  220.3224 H   0  0  0  0  0  0  0  0  0  0  0  0
  138.3391   74.7242  221.0602 H   0  0  0  0  0  0  0  0  0  0  0  0
  143.3913   75.4045  221.2897 H   0  0  0  0  0  0  0  0  0  0  0  0
  142.3481   73.9246  221.4785 H   0  0  0  0  0  0  0  0  0  0  0  0
  144.1001   73.7113  219.7113 H   0  0  0  0  0  0  0  0  0  0  0  0
  142.4248   73.4925  219.1191 H   0  0  0  0  0  0  0  0  0  0  0  0
  144.0325   76.0852  219.0021 H   0  0  0  0  0  0  0  0  0  0  0  0
  143.7562   74.9694  217.6279 H   0  0  0  0  0  0  0  0  0  0  0  0
  142.1634   76.8243  217.6023 H   0  0  0  0  0  0  0  0  0  0  0  0
  141.3405   75.2333  217.9078 H   0  0  0  0  0  0  0  0  0  0  0  0
  140.3576   76.8059  219.3256 H   0  0  0  0  0  0  0  0  0  0  0  0
  142.7570   77.4761  220.9534 H   0  0  0  0  0  0  0  0  0  0  0  0
  142.8454   78.0798  219.2411 H   0  0  0  0  0  0  0  0  0  0  0  0
  140.5010   79.1410  219.8090 H   0  0  0  0  0  0  0  0  0  0  0  0
  142.0572   77.9225  222.7873 H   0  0  0  0  0  0  0  0  0  0  0  0
  142.5417   79.2518  224.8189 H   0  0  0  0  0  0  0  0  0  0  0  0
  142.3558   81.7185  224.7403 H   0  0  0  0  0  0  0  0  0  0  0  0
  141.6852   82.8286  222.6126 H   0  0  0  0  0  0  0  0  0  0  0  0
  139.1827   69.8484  222.4250 H   0  0  0  0  0  0  0  0  0  0  0  0
  139.0554   68.3079  224.3991 H   0  0  0  0  0  0  0  0  0  0  0  0
  139.4970   67.8689  226.7448 H   0  0  0  0  0  0  0  0  0  0  0  0
  141.4134   70.8873  229.1468 H   0  0  0  0  0  0  0  0  0  0  0  0
  141.5332   72.4181  227.1599 H   0  0  0  0  0  0  0  0  0  0  0  0
  1  2  2  0
  2  3  1  0
  3  4  1  0
  4  5  1  0
  5  6  2  0
  5  7  1  0
  7  8  1  0
  8  9  1  0
  9 10  1  0
 10 11  1  0
 11 12  1  0
 12 13  1  0
 13 14  1  0
 14 15  1  0
 15 16  2  0
 16 17  1  0
 17 18  2  0
 18 19  1  0
 19 20  2  0
  2 21  1  0
 21 22  2  0
 22 23  1  0
 23 24  2  0
 24 25  1  0
 25 26  2  0
 26 27  1  0
 26 28  1  0
 28 29  2  0
 29 30  1  0
 30 31  2  0
 12  7  1  0
 20 15  1  0
 31 21  1  0
 30 24  1  0
  3 32  1  0
  4 33  1  0
  4 34  1  0
  8 35  1  0
  8 36  1  0
  9 37  1  0
  9 38  1  0
 10 39  1  0
 10 40  1  0
 11 41  1  0
 11 42  1  0
 12 43  1  6
 13 44  1  0
 13 45  1  0
 14 46  1  0
 16 47  1  0
 17 48  1  0
 18 49  1  0
 19 50  1  0
 22 51  1  0
 23 52  1  0
 25 53  1  0
 28 54  1  0
 29 55  1  0
M  END
>  <smiles>  (5) 
O=C(NCC(=O)N1CCCCC1CNc1ccccn1)c1ccc2cc(F)ccc2n1

>  <score_type>  (5) 
oracle

>  <origin>  (5) 
autodockgpu

>  <m_score__min__energy>  (5) 
-9.0299999999999994

>  <m_primary>  (5) 
energy

>  <rmsd>  (5) 
2.5225944359566723

>  <m_score__min__rmsd>  (5) 
2.5225944359566723

>  <meeko>  (5) 
{"free_energy": -8.59, "intermolecular_energy": -10.67, "internal_energy": -1.58, "cluster_size": 31, "cluster_id": 1, "rank_in_cluster": 11}

>  <energy>  (5) 
-8.91

>  <cluster_rmsd>  (5) 
0.67

>  <cluster>  (5) 
1

$$$$

     RDKit          3D

 55 58  0  0  0  0  0  0  0  0999 V2000
  138.7000   70.7150  221.5620 O   0  0  0  0  0  0  0  0  0  0  0  0
  139.1440   71.2380  222.6400 C   0  0  0  0  0  0  0  0  0  0  0  0
  139.4170   72.6400  222.7180 N   0  0  0  0  0  0  0  0  0  0  0  0
  139.1930   73.4930  221.5720 C   0  0  0  0  0  0  0  0  0  0  0  0
  140.4520   74.2150  221.1850 C   0  0  0  0  0  0  0  0  0  0  0  0
  141.0810   74.9400  221.9770 O   0  0  0  0  0  0  0  0  0  0  0  0
  140.9350   74.0530  219.8550 N   0  0  0  0  0  0  0  0  0  0  0  0
  141.2940   72.7370  219.3620 C   0  0  0  0  0  0  0  0  0  0  0  0
  140.7520   72.4660  217.9780 C   0  0  0  0  0  0  0  0  0  0  0  0
  141.1930   73.5700  217.0660 C   0  0  0  0  0  0  0  0  0  0  0  0
  140.6250   74.8580  217.5590 C   0  0  0  0  0  0  0  0  0  0  0  0
  141.0830   75.1830  218.9600 C   0  0  2  0  0  0  0  0  0  0  0  0
  142.5630   75.5490  218.9530 C   0  0  0  0  0  0  0  0  0  0  0  0
  143.2290   75.1710  220.1820 N   0  0  0  0  0  0  0  0  0  0  0  0
  144.2700   74.1850  220.1410 C   0  0  0  0  0  0  0  0  0  0  0  0
  145.2210   74.1200  221.1590 C   0  0  0  0  0  0  0  0  0  0  0  0
  146.2230   73.1760  221.1260 C   0  0  0  0  0  0  0  0  0  0  0  0
  146.2840   72.2950  220.0840 C   0  0  0  0  0  0  0  0  0  0  0  0
  145.3350   72.3680  219.0770 C   0  0  0  0  0  0  0  0  0  0  0  0
  144.3550   73.3100  219.1350 N   0  0  0  0  0  0  0  0  0  0  0  0
  139.3770   70.3940  223.8130 C   0  0  0  0  0  0  0  0  0  0  0  0
  138.9960   69.0750  223.7940 C   0  0  0  0  0  0  0  0  0  0  0  0
  139.2390   68.3130  224.9350 C   0  0  0  0  0  0  0  0  0  0  0  0
  139.8490   68.8810  226.0530 C   0  0  0  0  0  0  0  0  0  0  0  0
  140.0920   68.1320  227.1840 C   0  0  0  0  0  0  0  0  0  0  0  0
  140.6990   68.7210  228.2790 C   0  0  0  0  0  0  0  0  0  0  0  0
  140.9590   68.0270  229.4160 F   0  0  0  0  0  0  0  0  0  0  0  0
  141.0610   70.0660  228.2360 C   0  0  0  0  0  0  0  0  0  0  0  0
  140.8220   70.8360  227.0990 C   0  0  0  0  0  0  0  0  0  0  0  0
  140.2150   70.2060  226.0300 C   0  0  0  0  0  0  0  0  0  0  0  0
  139.9630   70.9090  224.9090 N   0  0  0  0  0  0  0  0  0  0  0  0
  139.7770   73.0490  223.6020 H   0  0  0  0  0  0  0  0  0  0  0  0
  138.8567   72.8769  220.7251 H   0  0  0  0  0  0  0  0  0  0  0  0
  138.4275   74.2384  221.8338 H   0  0  0  0  0  0  0  0  0  0  0  0
  142.3909   72.6594  219.3320 H   0  0  0  0  0  0  0  0  0  0  0  0
  140.8527   71.9947  220.0433 H   0  0  0  0  0  0  0  0  0  0  0  0
  141.1397   71.5046  217.6101 H   0  0  0  0  0  0  0  0  0  0  0  0
  139.6534   72.4200  218.0076 H   0  0  0  0  0  0  0  0  0  0  0  0
  142.2914   73.6285  217.0609 H   0  0  0  0  0  0  0  0  0  0  0  0
  140.8390   73.3731  216.0433 H   0  0  0  0  0  0  0  0  0  0  0  0
  140.9439   75.6669  216.8853 H   0  0  0  0  0  0  0  0  0  0  0  0
  139.5295   74.7600  217.5757 H   0  0  0  0  0  0  0  0  0  0  0  0
  140.4578   76.0182  219.3086 H   0  0  0  0  0  0  0  0  0  0  0  0
  143.0510   75.0328  218.1131 H   0  0  0  0  0  0  0  0  0  0  0  0
  142.6387   76.6417  218.8519 H   0  0  0  0  0  0  0  0  0  0  0  0
  142.9800   75.5890  221.1030 H   0  0  0  0  0  0  0  0  0  0  0  0
  145.1701   74.8304  221.9973 H   0  0  0  0  0  0  0  0  0  0  0  0
  146.9691   73.1317  221.9331 H   0  0  0  0  0  0  0  0  0  0  0  0
  147.0785   71.5352  220.0447 H   0  0  0  0  0  0  0  0  0  0  0  0
  145.3739   71.6652  218.2317 H   0  0  0  0  0  0  0  0  0  0  0  0
  138.5152   68.6347  222.9080 H   0  0  0  0  0  0  0  0  0  0  0  0
  138.9467   67.2527  224.9540 H   0  0  0  0  0  0  0  0  0  0  0  0
  139.8047   67.0707  227.2161 H   0  0  0  0  0  0  0  0  0  0  0  0
  141.5421   70.5264  229.1115 H   0  0  0  0  0  0  0  0  0  0  0  0
  141.1043   71.8983  227.0549 H   0  0  0  0  0  0  0  0  0  0  0  0
  1  2  2  0
  2  3  1  0
  3  4  1  0
  4  5  1  0
  5  6  2  0
  5  7  1  0
  7  8  1  0
  8  9  1  0
  9 10  1  0
 10 11  1  0
 11 12  1  0
 12 13  1  0
 13 14  1  0
 14 15  1  0
 15 16  2  0
 16 17  1  0
 17 18  2  0
 18 19  1  0
 19 20  2  0
  2 21  1  0
 21 22  2  0
 22 23  1  0
 23 24  2  0
 24 25  1  0
 25 26  2  0
 26 27  1  0
 26 28  1  0
 28 29  2  0
 29 30  1  0
 30 31  2  0
 12  7  1  0
 20 15  1  0
 31 21  1  0
 30 24  1  0
  3 32  1  0
  4 33  1  0
  4 34  1  0
  8 35  1  0
  8 36  1  0
  9 37  1  0
  9 38  1  0
 10 39  1  0
 10 40  1  0
 11 41  1  0
 11 42  1  0
 12 43  1  1
 13 44  1  0
 13 45  1  0
 14 46  1  0
 16 47  1  0
 17 48  1  0
 18 49  1  0
 19 50  1  0
 22 51  1  0
 23 52  1  0
 25 53  1  0
 28 54  1  0
 29 55  1  0
M  END
>  <smiles>  (6) 
O=C(NCC(=O)N1CCCCC1CNc1ccccn1)c1ccc2cc(F)ccc2n1

>  <score_type>  (6) 
oracle

>  <origin>  (6) 
autodockgpu

>  <m_score__min__energy>  (6) 
-9.0299999999999994

>  <m_primary>  (6) 
energy

>  <rmsd>  (6) 
4.403147276558716

>  <m_score__min__rmsd>  (6) 
4.403147276558716

>  <meeko>  (6) 
{"free_energy": -7.27, "intermolecular_energy": -9.36, "internal_energy": -2.69, "cluster_size": 5, "cluster_id": 3, "rank_in_cluster": 5}

>  <energy>  (6) 
-8.91

>  <cluster_rmsd>  (6) 
0.65

>  <cluster>  (6) 
1

$$$$

     RDKit          3D

 55 58  0  0  0  0  0  0  0  0999 V2000
  141.0490   72.9180  221.8720 O   0  0  0  0  0  0  0  0  0  0  0  0
  139.9940   72.6660  222.5460 C   0  0  0  0  0  0  0  0  0  0  0  0
  138.7820   73.3910  222.3120 N   0  0  0  0  0  0  0  0  0  0  0  0
  138.7330   74.4250  221.3040 C   0  0  0  0  0  0  0  0  0  0  0  0
  139.9930   75.2430  221.3110 C   0  0  0  0  0  0  0  0  0  0  0  0
  140.5140   75.6640  222.3590 O   0  0  0  0  0  0  0  0  0  0  0  0
  140.6050   75.5390  220.0590 N   0  0  0  0  0  0  0  0  0  0  0  0
  140.3190   74.7250  218.8930 C   0  0  0  0  0  0  0  0  0  0  0  0
  140.0460   75.5520  217.6580 C   0  0  0  0  0  0  0  0  0  0  0  0
  141.1960   76.4890  217.4460 C   0  0  0  0  0  0  0  0  0  0  0  0
  141.2970   77.4020  218.6210 C   0  0  0  0  0  0  0  0  0  0  0  0
  141.5250   76.6490  219.9100 C   0  0  2  0  0  0  0  0  0  0  0  0
  142.9320   76.0610  219.9280 C   0  0  0  0  0  0  0  0  0  0  0  0
  143.0240   74.8820  220.7640 N   0  0  0  0  0  0  0  0  0  0  0  0
  144.0640   73.9260  220.5150 C   0  0  0  0  0  0  0  0  0  0  0  0
  143.7660   72.6900  219.9460 C   0  0  0  0  0  0  0  0  0  0  0  0
  144.7600   71.7680  219.7040 C   0  0  0  0  0  0  0  0  0  0  0  0
  146.0520   72.0710  220.0260 C   0  0  0  0  0  0  0  0  0  0  0  0
  146.3390   73.3030  220.5910 C   0  0  0  0  0  0  0  0  0  0  0  0
  145.3370   74.1960  220.8190 N   0  0  0  0  0  0  0  0  0  0  0  0
  140.0200   71.6220  223.5720 C   0  0  0  0  0  0  0  0  0  0  0  0
  139.5610   70.3620  223.2770 C   0  0  0  0  0  0  0  0  0  0  0  0
  139.6060   69.4020  224.2860 C   0  0  0  0  0  0  0  0  0  0  0  0
  140.1020   69.7220  225.5500 C   0  0  0  0  0  0  0  0  0  0  0  0
  140.1500   68.7770  226.5520 C   0  0  0  0  0  0  0  0  0  0  0  0
  140.6480   69.1210  227.7960 C   0  0  0  0  0  0  0  0  0  0  0  0
  140.7140   68.2280  228.8160 F   0  0  0  0  0  0  0  0  0  0  0  0
  141.0980   70.4190  228.0320 C   0  0  0  0  0  0  0  0  0  0  0  0
  141.0570   71.3850  227.0280 C   0  0  0  0  0  0  0  0  0  0  0  0
  140.5530   70.9960  225.8020 C   0  0  0  0  0  0  0  0  0  0  0  0
  140.4920   71.8950  224.8020 N   0  0  0  0  0  0  0  0  0  0  0  0
  137.9330   73.1730  222.8690 H   0  0  0  0  0  0  0  0  0  0  0  0
  138.6125   73.9582  220.3153 H   0  0  0  0  0  0  0  0  0  0  0  0
  137.8831   75.0882  221.5229 H   0  0  0  0  0  0  0  0  0  0  0  0
  141.1841   74.0745  218.6970 H   0  0  0  0  0  0  0  0  0  0  0  0
  139.4122   74.1411  219.1094 H   0  0  0  0  0  0  0  0  0  0  0  0
  139.9409   74.8909  216.7851 H   0  0  0  0  0  0  0  0  0  0  0  0
  139.1148   76.1232  217.7866 H   0  0  0  0  0  0  0  0  0  0  0  0
  142.1278   75.9132  217.3444 H   0  0  0  0  0  0  0  0  0  0  0  0
  141.0348   77.0763  216.5300 H   0  0  0  0  0  0  0  0  0  0  0  0
  142.1374   78.0935  218.4612 H   0  0  0  0  0  0  0  0  0  0  0  0
  140.3441   77.9442  218.7105 H   0  0  0  0  0  0  0  0  0  0  0  0
  141.3737   77.3703  220.7266 H   0  0  0  0  0  0  0  0  0  0  0  0
  143.2150   75.7890  218.9004 H   0  0  0  0  0  0  0  0  0  0  0  0
  143.6095   76.8217  220.3431 H   0  0  0  0  0  0  0  0  0  0  0  0
  142.3600   74.6990  221.5450 H   0  0  0  0  0  0  0  0  0  0  0  0
  142.7248   72.4476  219.6870 H   0  0  0  0  0  0  0  0  0  0  0  0
  144.5149   70.7944  219.2545 H   0  0  0  0  0  0  0  0  0  0  0  0
  146.8565   71.3445  219.8387 H   0  0  0  0  0  0  0  0  0  0  0  0
  147.3756   73.5594  220.8552 H   0  0  0  0  0  0  0  0  0  0  0  0
  139.1709   70.1186  222.2777 H   0  0  0  0  0  0  0  0  0  0  0  0
  139.2470   68.3821  224.0839 H   0  0  0  0  0  0  0  0  0  0  0  0
  139.7938   67.7535  226.3634 H   0  0  0  0  0  0  0  0  0  0  0  0
  141.4910   70.6847  229.0245 H   0  0  0  0  0  0  0  0  0  0  0  0
  141.4104   72.4117  227.2041 H   0  0  0  0  0  0  0  0  0  0  0  0
  1  2  2  0
  2  3  1  0
  3  4  1  0
  4  5  1  0
  5  6  2  0
  5  7  1  0
  7  8  1  0
  8  9  1  0
  9 10  1  0
 10 11  1  0
 11 12  1  0
 12 13  1  0
 13 14  1  0
 14 15  1  0
 15 16  2  0
 16 17  1  0
 17 18  2  0
 18 19  1  0
 19 20  2  0
  2 21  1  0
 21 22  2  0
 22 23  1  0
 23 24  2  0
 24 25  1  0
 25 26  2  0
 26 27  1  0
 26 28  1  0
 28 29  2  0
 29 30  1  0
 30 31  2  0
 12  7  1  0
 20 15  1  0
 31 21  1  0
 30 24  1  0
  3 32  1  0
  4 33  1  0
  4 34  1  0
  8 35  1  0
  8 36  1  0
  9 37  1  0
  9 38  1  0
 10 39  1  0
 10 40  1  0
 11 41  1  0
 11 42  1  0
 12 43  1  1
 13 44  1  0
 13 45  1  0
 14 46  1  0
 16 47  1  0
 17 48  1  0
 18 49  1  0
 19 50  1  0
 22 51  1  0
 23 52  1  0
 25 53  1  0
 28 54  1  0
 29 55  1  0
M  END
>  <smiles>  (7) 
O=C(NCC(=O)N1CCCCC1CNc1ccccn1)c1ccc2cc(F)ccc2n1

>  <score_type>  (7) 
oracle

>  <origin>  (7) 
autodockgpu

>  <m_score__min__energy>  (7) 
-9.0299999999999994

>  <m_primary>  (7) 
energy

>  <rmsd>  (7) 
4.318576555205241

>  <m_score__min__rmsd>  (7) 
4.318576555205241

>  <meeko>  (7) 
{"free_energy": -7.51, "intermolecular_energy": -9.6, "internal_energy": -2.72, "cluster_size": 5, "cluster_id": 3, "rank_in_cluster": 4}

>  <energy>  (7) 
-8.63

>  <cluster_rmsd>  (7) 
0.99

>  <cluster>  (7) 
1

$$$$

     RDKit          3D

 55 58  0  0  0  0  0  0  0  0999 V2000
  141.0090   71.5680  221.2730 O   0  0  0  0  0  0  0  0  0  0  0  0
  140.4470   72.0250  222.3250 C   0  0  0  0  0  0  0  0  0  0  0  0
  140.0130   73.3880  222.3930 N   0  0  0  0  0  0  0  0  0  0  0  0
  140.2050   74.2720  221.2650 C   0  0  0  0  0  0  0  0  0  0  0  0
  139.8290   75.6820  221.6180 C   0  0  0  0  0  0  0  0  0  0  0  0
  139.2490   75.9780  222.6790 O   0  0  0  0  0  0  0  0  0  0  0  0
  140.1580   76.7130  220.6920 N   0  0  0  0  0  0  0  0  0  0  0  0
  141.5400   76.9480  220.3170 C   0  0  0  0  0  0  0  0  0  0  0  0
  141.7160   77.1280  218.8270 C   0  0  0  0  0  0  0  0  0  0  0  0
  140.7940   78.2150  218.3640 C   0  0  0  0  0  0  0  0  0  0  0  0
  139.3870   77.8010  218.6330 C   0  0  0  0  0  0  0  0  0  0  0  0
  139.1360   77.5540  220.1010 C   0  0  2  0  0  0  0  0  0  0  0  0
  139.1580   78.8760  220.8630 C   0  0  0  0  0  0  0  0  0  0  0  0
  139.5220   78.7020  222.2530 N   0  0  0  0  0  0  0  0  0  0  0  0
  140.6620   79.4010  222.7720 C   0  0  0  0  0  0  0  0  0  0  0  0
  140.5010   80.6020  223.4610 C   0  0  0  0  0  0  0  0  0  0  0  0
  141.5930   81.2770  223.9620 C   0  0  0  0  0  0  0  0  0  0  0  0
  142.8440   80.7620  223.7820 C   0  0  0  0  0  0  0  0  0  0  0  0
  142.9940   79.5670  223.0960 C   0  0  0  0  0  0  0  0  0  0  0  0
  141.8980   78.9200  222.6110 N   0  0  0  0  0  0  0  0  0  0  0  0
  140.2420   71.1480  223.4790 C   0  0  0  0  0  0  0  0  0  0  0  0
  139.5970   69.9470  223.3180 C   0  0  0  0  0  0  0  0  0  0  0  0
  139.4260   69.1470  224.4470 C   0  0  0  0  0  0  0  0  0  0  0  0
  139.8970   69.5620  225.6920 C   0  0  0  0  0  0  0  0  0  0  0  0
  139.7310   68.7760  226.8110 C   0  0  0  0  0  0  0  0  0  0  0  0
  140.2090   69.2120  228.0330 C   0  0  0  0  0  0  0  0  0  0  0  0
  140.0700   68.4750  229.1650 F   0  0  0  0  0  0  0  0  0  0  0  0
  140.8550   70.4430  228.1300 C   0  0  0  0  0  0  0  0  0  0  0  0
  141.0320   71.2500  227.0070 C   0  0  0  0  0  0  0  0  0  0  0  0
  140.5380   70.7730  225.8080 C   0  0  0  0  0  0  0  0  0  0  0  0
  140.6840   71.5170  224.6950 N   0  0  0  0  0  0  0  0  0  0  0  0
  139.5580   73.7440  223.2550 H   0  0  0  0  0  0  0  0  0  0  0  0
  141.2625   74.2462  220.9634 H   0  0  0  0  0  0  0  0  0  0  0  0
  139.5613   73.9331  220.4399 H   0  0  0  0  0  0  0  0  0  0  0  0
  141.8932   77.8571  220.8257 H   0  0  0  0  0  0  0  0  0  0  0  0
  142.1211   76.0633  220.6163 H   0  0  0  0  0  0  0  0  0  0  0  0
  142.7572   77.4071  218.6080 H   0  0  0  0  0  0  0  0  0  0  0  0
  141.4813   76.1887  218.3049 H   0  0  0  0  0  0  0  0  0  0  0  0
  141.0161   79.1446  218.9086 H   0  0  0  0  0  0  0  0  0  0  0  0
  140.9325   78.3878  217.2865 H   0  0  0  0  0  0  0  0  0  0  0  0
  138.7112   78.5970  218.2871 H   0  0  0  0  0  0  0  0  0  0  0  0
  139.2037   76.8587  218.0958 H   0  0  0  0  0  0  0  0  0  0  0  0
  138.1573   77.0571  220.1732 H   0  0  0  0  0  0  0  0  0  0  0  0
  139.8886   79.5466  220.3871 H   0  0  0  0  0  0  0  0  0  0  0  0
  138.1436   79.3002  220.8310 H   0  0  0  0  0  0  0  0  0  0  0  0
  138.9840   78.0860  222.8980 H   0  0  0  0  0  0  0  0  0  0  0  0
  139.4920   81.0152  223.6063 H   0  0  0  0  0  0  0  0  0  0  0  0
  141.4572   82.2248  224.5035 H   0  0  0  0  0  0  0  0  0  0  0  0
  143.7243   81.2899  224.1773 H   0  0  0  0  0  0  0  0  0  0  0  0
  143.9969   79.1417  222.9435 H   0  0  0  0  0  0  0  0  0  0  0  0
  139.2279   69.6269  222.3325 H   0  0  0  0  0  0  0  0  0  0  0  0
  138.9139   68.1779  224.3545 H   0  0  0  0  0  0  0  0  0  0  0  0
  139.2200   67.8050  226.7327 H   0  0  0  0  0  0  0  0  0  0  0  0
  141.2306   70.7828  229.1065 H   0  0  0  0  0  0  0  0  0  0  0  0
  141.5419   72.2225  227.0725 H   0  0  0  0  0  0  0  0  0  0  0  0
  1  2  2  0
  2  3  1  0
  3  4  1  0
  4  5  1  0
  5  6  2  0
  5  7  1  0
  7  8  1  0
  8  9  1  0
  9 10  1  0
 10 11  1  0
 11 12  1  0
 12 13  1  0
 13 14  1  0
 14 15  1  0
 15 16  2  0
 16 17  1  0
 17 18  2  0
 18 19  1  0
 19 20  2  0
  2 21  1  0
 21 22  2  0
 22 23  1  0
 23 24  2  0
 24 25  1  0
 25 26  2  0
 26 27  1  0
 26 28  1  0
 28 29  2  0
 29 30  1  0
 30 31  2  0
 12  7  1  0
 20 15  1  0
 31 21  1  0
 30 24  1  0
  3 32  1  0
  4 33  1  0
  4 34  1  0
  8 35  1  0
  8 36  1  0
  9 37  1  0
  9 38  1  0
 10 39  1  0
 10 40  1  0
 11 41  1  0
 11 42  1  0
 12 43  1  6
 13 44  1  0
 13 45  1  0
 14 46  1  0
 16 47  1  0
 17 48  1  0
 18 49  1  0
 19 50  1  0
 22 51  1  0
 23 52  1  0
 25 53  1  0
 28 54  1  0
 29 55  1  0
M  END
>  <smiles>  (8) 
O=C(NCC(=O)N1CCCCC1CNc1ccccn1)c1ccc2cc(F)ccc2n1

>  <score_type>  (8) 
oracle

>  <origin>  (8) 
autodockgpu

>  <m_score__min__energy>  (8) 
-9.0299999999999994

>  <m_primary>  (8) 
energy

>  <rmsd>  (8) 
2.6038046052539925

>  <m_score__min__rmsd>  (8) 
2.6038046052539925

>  <meeko>  (8) 
{"free_energy": -7.77, "intermolecular_energy": -9.86, "internal_energy": -2.63, "cluster_size": 31, "cluster_id": 1, "rank_in_cluster": 29}

>  <energy>  (8) 
-8.62

>  <cluster_rmsd>  (8) 
1.16

>  <cluster>  (8) 
1

$$$$

     RDKit          3D

 55 58  0  0  0  0  0  0  0  0999 V2000
  141.2040   72.1150  221.5650 O   0  0  0  0  0  0  0  0  0  0  0  0
  140.2150   72.2170  222.3670 C   0  0  0  0  0  0  0  0  0  0  0  0
  139.2060   73.2120  222.1670 N   0  0  0  0  0  0  0  0  0  0  0  0
  139.2900   74.1220  221.0470 C   0  0  0  0  0  0  0  0  0  0  0  0
  140.1270   75.3210  221.3910 C   0  0  0  0  0  0  0  0  0  0  0  0
  139.8660   76.0700  222.3490 O   0  0  0  0  0  0  0  0  0  0  0  0
  141.2640   75.5980  220.5790 N   0  0  0  0  0  0  0  0  0  0  0  0
  142.5110   74.8890  220.7980 C   0  0  0  0  0  0  0  0  0  0  0  0
  143.1380   74.4040  219.5120 C   0  0  0  0  0  0  0  0  0  0  0  0
  143.2860   75.5700  218.5820 C   0  0  0  0  0  0  0  0  0  0  0  0
  141.9340   76.1180  218.2770 C   0  0  0  0  0  0  0  0  0  0  0  0
  141.2160   76.5860  219.5200 C   0  0  2  0  0  0  0  0  0  0  0  0
  141.8810   77.8470  220.0630 C   0  0  0  0  0  0  0  0  0  0  0  0
  141.8470   77.9070  221.5090 N   0  0  0  0  0  0  0  0  0  0  0  0
  141.8880   79.1850  222.1590 C   0  0  0  0  0  0  0  0  0  0  0  0
  142.5160   79.3290  223.3950 C   0  0  0  0  0  0  0  0  0  0  0  0
  142.5600   80.5540  224.0230 C   0  0  0  0  0  0  0  0  0  0  0  0
  141.9830   81.6380  223.4270 C   0  0  0  0  0  0  0  0  0  0  0  0
  141.3610   81.4850  222.1970 C   0  0  0  0  0  0  0  0  0  0  0  0
  141.3330   80.2630  221.5980 N   0  0  0  0  0  0  0  0  0  0  0  0
  140.1090   71.3050  223.5070 C   0  0  0  0  0  0  0  0  0  0  0  0
  139.5160   70.0770  223.3470 C   0  0  0  0  0  0  0  0  0  0  0  0
  139.4380   69.2440  224.4620 C   0  0  0  0  0  0  0  0  0  0  0  0
  139.9480   69.6540  225.6940 C   0  0  0  0  0  0  0  0  0  0  0  0
  139.8740   68.8350  226.7990 C   0  0  0  0  0  0  0  0  0  0  0  0
  140.3880   69.2680  228.0080 C   0  0  0  0  0  0  0  0  0  0  0  0
  140.3390   68.4990  229.1260 F   0  0  0  0  0  0  0  0  0  0  0  0
  140.9780   70.5270  228.1060 C   0  0  0  0  0  0  0  0  0  0  0  0
  141.0610   71.3670  226.9960 C   0  0  0  0  0  0  0  0  0  0  0  0
  140.5340   70.8920  225.8090 C   0  0  0  0  0  0  0  0  0  0  0  0
  140.5900   71.6680  224.7100 N   0  0  0  0  0  0  0  0  0  0  0  0
  138.4080   73.2800  222.8280 H   0  0  0  0  0  0  0  0  0  0  0  0
  139.7438   73.5996  220.1919 H   0  0  0  0  0  0  0  0  0  0  0  0
  138.2750   74.4630  220.7948 H   0  0  0  0  0  0  0  0  0  0  0  0
  143.2174   75.5659  221.3008 H   0  0  0  0  0  0  0  0  0  0  0  0
  142.2876   74.0051  221.4134 H   0  0  0  0  0  0  0  0  0  0  0  0
  144.1267   73.9702  219.7224 H   0  0  0  0  0  0  0  0  0  0  0  0
  142.5017   73.6343  219.0509 H   0  0  0  0  0  0  0  0  0  0  0  0
  143.9006   76.3475  219.0593 H   0  0  0  0  0  0  0  0  0  0  0  0
  143.7754   75.2454  217.6519 H   0  0  0  0  0  0  0  0  0  0  0  0
  142.0435   76.9694  217.5891 H   0  0  0  0  0  0  0  0  0  0  0  0
  141.3368   75.3127  217.8244 H   0  0  0  0  0  0  0  0  0  0  0  0
  140.1712   76.7687  219.2286 H   0  0  0  0  0  0  0  0  0  0  0  0
  142.9301   77.8638  219.7328 H   0  0  0  0  0  0  0  0  0  0  0  0
  141.3244   78.7138  219.6771 H   0  0  0  0  0  0  0  0  0  0  0  0
  141.7920   77.0530  222.1020 H   0  0  0  0  0  0  0  0  0  0  0  0
  142.9814   78.4550  223.8740 H   0  0  0  0  0  0  0  0  0  0  0  0
  143.0570   80.6582  224.9988 H   0  0  0  0  0  0  0  0  0  0  0  0
  142.0111   82.6224  223.9171 H   0  0  0  0  0  0  0  0  0  0  0  0
  140.8909   82.3499  221.7061 H   0  0  0  0  0  0  0  0  0  0  0  0
  139.1161   69.7613  222.3721 H   0  0  0  0  0  0  0  0  0  0  0  0
  138.9694   68.2531  224.3694 H   0  0  0  0  0  0  0  0  0  0  0  0
  139.4084   67.8415  226.7204 H   0  0  0  0  0  0  0  0  0  0  0  0
  141.3836   70.8625  229.0719 H   0  0  0  0  0  0  0  0  0  0  0  0
  141.5247   72.3623  227.0616 H   0  0  0  0  0  0  0  0  0  0  0  0
  1  2  2  0
  2  3  1  0
  3  4  1  0
  4  5  1  0
  5  6  2  0
  5  7  1  0
  7  8  1  0
  8  9  1  0
  9 10  1  0
 10 11  1  0
 11 12  1  0
 12 13  1  0
 13 14  1  0
 14 15  1  0
 15 16  2  0
 16 17  1  0
 17 18  2  0
 18 19  1  0
 19 20  2  0
  2 21  1  0
 21 22  2  0
 22 23  1  0
 23 24  2  0
 24 25  1  0
 25 26  2  0
 26 27  1  0
 26 28  1  0
 28 29  2  0
 29 30  1  0
 30 31  2  0
 12  7  1  0
 20 15  1  0
 31 21  1  0
 30 24  1  0
  3 32  1  0
  4 33  1  0
  4 34  1  0
  8 35  1  0
  8 36  1  0
  9 37  1  0
  9 38  1  0
 10 39  1  0
 10 40  1  0
 11 41  1  0
 11 42  1  0
 12 43  1  6
 13 44  1  0
 13 45  1  0
 14 46  1  0
 16 47  1  0
 17 48  1  0
 18 49  1  0
 19 50  1  0
 22 51  1  0
 23 52  1  0
 25 53  1  0
 28 54  1  0
 29 55  1  0
M  END
>  <smiles>  (9) 
O=C(NCC(=O)N1CCCCC1CNc1ccccn1)c1ccc2cc(F)ccc2n1

>  <score_type>  (9) 
oracle

>  <origin>  (9) 
autodockgpu

>  <m_score__min__energy>  (9) 
-9.0299999999999994

>  <m_primary>  (9) 
energy

>  <rmsd>  (9) 
2.3913724986412688

>  <m_score__min__rmsd>  (9) 
2.3913724986412688

>  <meeko>  (9) 
{"free_energy": -8.94, "intermolecular_energy": -11.02, "internal_energy": -2.17, "cluster_size": 31, "cluster_id": 1, "rank_in_cluster": 4}

>  <energy>  (9) 
-8.61

>  <cluster_rmsd>  (9) 
0.77

>  <cluster>  (9) 
1

$$$$

     RDKit          3D

 55 58  0  0  0  0  0  0  0  0999 V2000
  138.7670   70.7270  221.5490 O   0  0  0  0  0  0  0  0  0  0  0  0
  139.1950   71.2470  222.6340 C   0  0  0  0  0  0  0  0  0  0  0  0
  139.4720   72.6490  222.7190 N   0  0  0  0  0  0  0  0  0  0  0  0
  139.2700   73.5030  221.5700 C   0  0  0  0  0  0  0  0  0  0  0  0
  140.5840   73.9290  220.9800 C   0  0  0  0  0  0  0  0  0  0  0  0
  141.4650   73.1160  220.6460 O   0  0  0  0  0  0  0  0  0  0  0  0
  140.8160   75.3220  220.8000 N   0  0  0  0  0  0  0  0  0  0  0  0
  142.1430   75.8080  220.4710 C   0  0  0  0  0  0  0  0  0  0  0  0
  142.1290   76.8320  219.3600 C   0  0  0  0  0  0  0  0  0  0  0  0
  141.1820   77.9310  219.7330 C   0  0  0  0  0  0  0  0  0  0  0  0
  139.8120   77.3600  219.8750 C   0  0  0  0  0  0  0  0  0  0  0  0
  139.7470   76.2920  220.9390 C   0  0  2  0  0  0  0  0  0  0  0  0
  139.9000   76.9210  222.3200 C   0  0  0  0  0  0  0  0  0  0  0  0
  141.2550   77.3640  222.5740 N   0  0  0  0  0  0  0  0  0  0  0  0
  141.4840   78.7210  222.9790 C   0  0  0  0  0  0  0  0  0  0  0  0
  140.4150   79.5430  223.3310 C   0  0  0  0  0  0  0  0  0  0  0  0
  140.6290   80.8470  223.7220 C   0  0  0  0  0  0  0  0  0  0  0  0
  141.9030   81.3370  223.7640 C   0  0  0  0  0  0  0  0  0  0  0  0
  142.9590   80.5110  223.4130 C   0  0  0  0  0  0  0  0  0  0  0  0
  142.7190   79.2270  223.0310 N   0  0  0  0  0  0  0  0  0  0  0  0
  139.4050   70.4010  223.8110 C   0  0  0  0  0  0  0  0  0  0  0  0
  138.9910   69.0920  223.7950 C   0  0  0  0  0  0  0  0  0  0  0  0
  139.2140   68.3280  224.9380 C   0  0  0  0  0  0  0  0  0  0  0  0
  139.8370   68.8830  226.0560 C   0  0  0  0  0  0  0  0  0  0  0  0
  140.0600   68.1320  227.1890 C   0  0  0  0  0  0  0  0  0  0  0  0
  140.6800   68.7090  228.2830 C   0  0  0  0  0  0  0  0  0  0  0  0
  140.9220   68.0110  229.4230 F   0  0  0  0  0  0  0  0  0  0  0  0
  141.0770   70.0440  228.2360 C   0  0  0  0  0  0  0  0  0  0  0  0
  140.8590   70.8170  227.0970 C   0  0  0  0  0  0  0  0  0  0  0  0
  140.2360   70.1980  226.0290 C   0  0  0  0  0  0  0  0  0  0  0  0
  140.0030   70.9040  224.9060 N   0  0  0  0  0  0  0  0  0  0  0  0
  139.8190   73.0550  223.6090 H   0  0  0  0  0  0  0  0  0  0  0  0
  138.6953   72.9537  220.8098 H   0  0  0  0  0  0  0  0  0  0  0  0
  138.7222   74.4009  221.8920 H   0  0  0  0  0  0  0  0  0  0  0  0
  142.5820   76.2682  221.3685 H   0  0  0  0  0  0  0  0  0  0  0  0
  142.7355   74.9486  220.1239 H   0  0  0  0  0  0  0  0  0  0  0  0
  143.1396   77.2444  219.2237 H   0  0  0  0  0  0  0  0  0  0  0  0
  141.8058   76.3612  218.4199 H   0  0  0  0  0  0  0  0  0  0  0  0
  141.4954   78.3807  220.6867 H   0  0  0  0  0  0  0  0  0  0  0  0
  141.1839   78.7059  218.9522 H   0  0  0  0  0  0  0  0  0  0  0  0
  139.1169   78.1694  220.1426 H   0  0  0  0  0  0  0  0  0  0  0  0
  139.5377   76.8977  218.9153 H   0  0  0  0  0  0  0  0  0  0  0  0
  138.7735   75.7931  220.8235 H   0  0  0  0  0  0  0  0  0  0  0  0
  139.2253   77.7869  222.3913 H   0  0  0  0  0  0  0  0  0  0  0  0
  139.6500   76.1549  223.0688 H   0  0  0  0  0  0  0  0  0  0  0  0
  142.0770   76.7320  222.4750 H   0  0  0  0  0  0  0  0  0  0  0  0
  139.3895   79.1467  223.2963 H   0  0  0  0  0  0  0  0  0  0  0  0
  139.7794   81.4888  223.9984 H   0  0  0  0  0  0  0  0  0  0  0  0
  142.0890   82.3761  224.0731 H   0  0  0  0  0  0  0  0  0  0  0  0
  143.9902   80.8928  223.4431 H   0  0  0  0  0  0  0  0  0  0  0  0
  138.5000   68.6614  222.9098 H   0  0  0  0  0  0  0  0  0  0  0  0
  138.8954   67.2754  224.9594 H   0  0  0  0  0  0  0  0  0  0  0  0
  139.7465   67.0782  227.2238 H   0  0  0  0  0  0  0  0  0  0  0  0
  141.5695   70.4942  229.1105 H   0  0  0  0  0  0  0  0  0  0  0  0
  141.1685   71.8715  227.0498 H   0  0  0  0  0  0  0  0  0  0  0  0
  1  2  2  0
  2  3  1  0
  3  4  1  0
  4  5  1  0
  5  6  2  0
  5  7  1  0
  7  8  1  0
  8  9  1  0
  9 10  1  0
 10 11  1  0
 11 12  1  0
 12 13  1  0
 13 14  1  0
 14 15  1  0
 15 16  2  0
 16 17  1  0
 17 18  2  0
 18 19  1  0
 19 20  2  0
  2 21  1  0
 21 22  2  0
 22 23  1  0
 23 24  2  0
 24 25  1  0
 25 26  2  0
 26 27  1  0
 26 28  1  0
 28 29  2  0
 29 30  1  0
 30 31  2  0
 12  7  1  0
 20 15  1  0
 31 21  1  0
 30 24  1  0
  3 32  1  0
  4 33  1  0
  4 34  1  0
  8 35  1  0
  8 36  1  0
  9 37  1  0
  9 38  1  0
 10 39  1  0
 10 40  1  0
 11 41  1  0
 11 42  1  0
 12 43  1  1
 13 44  1  0
 13 45  1  0
 14 46  1  0
 16 47  1  0
 17 48  1  0
 18 49  1  0
 19 50  1  0
 22 51  1  0
 23 52  1  0
 25 53  1  0
 28 54  1  0
 29 55  1  0
M  END
>  <smiles>  (10) 
O=C(NCC(=O)N1CCCCC1CNc1ccccn1)c1ccc2cc(F)ccc2n1

>  <score_type>  (10) 
oracle

>  <origin>  (10) 
autodockgpu

>  <m_score__min__energy>  (10) 
-9.0299999999999994

>  <m_primary>  (10) 
energy

>  <rmsd>  (10) 
2.388964804955609

>  <m_score__min__rmsd>  (10) 
2.388964804955609

>  <meeko>  (10) 
{"free_energy": -8.62, "intermolecular_energy": -10.7, "internal_energy": -1.47, "cluster_size": 31, "cluster_id": 1, "rank_in_cluster": 8}

>  <energy>  (10) 
-8.61

>  <cluster_rmsd>  (10) 
0.65

>  <cluster>  (10) 
1

$$$$

     RDKit          3D

 55 58  0  0  0  0  0  0  0  0999 V2000
  142.7820   77.2700  217.2510 O   0  0  0  0  0  0  0  0  0  0  0  0
  142.0920   77.1340  218.3170 C   0  0  0  0  0  0  0  0  0  0  0  0
  141.3430   75.9390  218.5610 N   0  0  0  0  0  0  0  0  0  0  0  0
  141.3570   74.8600  217.5980 C   0  0  0  0  0  0  0  0  0  0  0  0
  142.7310   74.2670  217.4750 C   0  0  0  0  0  0  0  0  0  0  0  0
  143.3270   74.1710  216.3870 O   0  0  0  0  0  0  0  0  0  0  0  0
  143.3670   73.8010  218.6620 N   0  0  0  0  0  0  0  0  0  0  0  0
  143.9170   72.4600  218.7200 C   0  0  0  0  0  0  0  0  0  0  0  0
  145.2960   72.4230  219.3350 C   0  0  0  0  0  0  0  0  0  0  0  0
  145.2400   73.0880  220.6770 C   0  0  0  0  0  0  0  0  0  0  0  0
  144.8360   74.5110  220.4930 C   0  0  0  0  0  0  0  0  0  0  0  0
  143.4820   74.6400  219.8390 C   0  0  2  0  0  0  0  0  0  0  0  0
  142.3910   74.1930  220.8070 C   0  0  0  0  0  0  0  0  0  0  0  0
  141.6930   75.3130  221.4030 N   0  0  0  0  0  0  0  0  0  0  0  0
  140.2600   75.2960  221.4570 C   0  0  0  0  0  0  0  0  0  0  0  0
  139.5800   76.0780  222.3890 C   0  0  0  0  0  0  0  0  0  0  0  0
  138.2030   76.0680  222.4460 C   0  0  0  0  0  0  0  0  0  0  0  0
  137.4990   75.2820  221.5790 C   0  0  0  0  0  0  0  0  0  0  0  0
  138.1850   74.5080  220.6560 C   0  0  0  0  0  0  0  0  0  0  0  0
  139.5450   74.5380  220.6210 N   0  0  0  0  0  0  0  0  0  0  0  0
  142.0640   78.2130  219.3070 C   0  0  0  0  0  0  0  0  0  0  0  0
  142.1650   79.5190  218.8970 C   0  0  0  0  0  0  0  0  0  0  0  0
  142.1330   80.5100  219.8760 C   0  0  0  0  0  0  0  0  0  0  0  0
  142.0040   80.1750  221.2240 C   0  0  0  0  0  0  0  0  0  0  0  0
  141.9720   81.1510  222.1960 C   0  0  0  0  0  0  0  0  0  0  0  0
  141.8420   80.7900  223.5250 C   0  0  0  0  0  0  0  0  0  0  0  0
  141.8070   81.7130  224.5200 F   0  0  0  0  0  0  0  0  0  0  0  0
  141.7450   79.4450  223.8770 C   0  0  0  0  0  0  0  0  0  0  0  0
  141.7750   78.4470  222.9040 C   0  0  0  0  0  0  0  0  0  0  0  0
  141.9050   78.8540  221.5900 C   0  0  0  0  0  0  0  0  0  0  0  0
  141.9400   77.9260  220.6160 N   0  0  0  0  0  0  0  0  0  0  0  0
  140.7880   75.8440  219.4330 H   0  0  0  0  0  0  0  0  0  0  0  0
  140.6554   74.0779  217.9237 H   0  0  0  0  0  0  0  0  0  0  0  0
  141.0590   75.2608  216.6179 H   0  0  0  0  0  0  0  0  0  0  0  0
  143.2459   71.8299  219.3221 H   0  0  0  0  0  0  0  0  0  0  0  0
  144.0031   72.0907  217.6874 H   0  0  0  0  0  0  0  0  0  0  0  0
  145.6214   71.3788  219.4523 H   0  0  0  0  0  0  0  0  0  0  0  0
  146.0111   72.9486  218.6851 H   0  0  0  0  0  0  0  0  0  0  0  0
  144.5043   72.5744  221.3134 H   0  0  0  0  0  0  0  0  0  0  0  0
  146.2277   73.0398  221.1589 H   0  0  0  0  0  0  0  0  0  0  0  0
  144.8015   74.9995  221.4780 H   0  0  0  0  0  0  0  0  0  0  0  0
  145.5758   74.9892  219.8342 H   0  0  0  0  0  0  0  0  0  0  0  0
  143.3686   75.6969  219.5561 H   0  0  0  0  0  0  0  0  0  0  0  0
  141.6646   73.5739  220.2601 H   0  0  0  0  0  0  0  0  0  0  0  0
  142.8719   73.6260  221.6177 H   0  0  0  0  0  0  0  0  0  0  0  0
  142.1930   76.1360  221.7970 H   0  0  0  0  0  0  0  0  0  0  0  0
  140.1487   76.7102  223.0868 H   0  0  0  0  0  0  0  0  0  0  0  0
  137.6747   76.6888  223.1846 H   0  0  0  0  0  0  0  0  0  0  0  0
  136.3997   75.2633  221.6127 H   0  0  0  0  0  0  0  0  0  0  0  0
  137.6303   73.8699  219.9523 H   0  0  0  0  0  0  0  0  0  0  0  0
  142.2677   79.7746  217.8320 H   0  0  0  0  0  0  0  0  0  0  0  0
  142.2103   81.5674  219.5829 H   0  0  0  0  0  0  0  0  0  0  0  0
  142.0495   82.2121  221.9165 H   0  0  0  0  0  0  0  0  0  0  0  0
  141.6434   79.1672  224.9365 H   0  0  0  0  0  0  0  0  0  0  0  0
  141.6985   77.3825  223.1706 H   0  0  0  0  0  0  0  0  0  0  0  0
  1  2  2  0
  2  3  1  0
  3  4  1  0
  4  5  1  0
  5  6  2  0
  5  7  1  0
  7  8  1  0
  8  9  1  0
  9 10  1  0
 10 11  1  0
 11 12  1  0
 12 13  1  0
 13 14  1  0
 14 15  1  0
 15 16  2  0
 16 17  1  0
 17 18  2  0
 18 19  1  0
 19 20  2  0
  2 21  1  0
 21 22  2  0
 22 23  1  0
 23 24  2  0
 24 25  1  0
 25 26  2  0
 26 27  1  0
 26 28  1  0
 28 29  2  0
 29 30  1  0
 30 31  2  0
 12  7  1  0
 20 15  1  0
 31 21  1  0
 30 24  1  0
  3 32  1  0
  4 33  1  0
  4 34  1  0
  8 35  1  0
  8 36  1  0
  9 37  1  0
  9 38  1  0
 10 39  1  0
 10 40  1  0
 11 41  1  0
 11 42  1  0
 12 43  1  6
 13 44  1  0
 13 45  1  0
 14 46  1  0
 16 47  1  0
 17 48  1  0
 18 49  1  0
 19 50  1  0
 22 51  1  0
 23 52  1  0
 25 53  1  0
 28 54  1  0
 29 55  1  0
M  END
>  <smiles>  (11) 
O=C(NCC(=O)N1CCCCC1CNc1ccccn1)c1ccc2cc(F)ccc2n1

>  <score_type>  (11) 
oracle

>  <origin>  (11) 
autodockgpu

>  <m_score__min__energy>  (11) 
-9.0299999999999994

>  <m_primary>  (11) 
energy

>  <rmsd>  (11) 
8.193959071756668

>  <m_score__min__rmsd>  (11) 
8.193959071756668

>  <meeko>  (11) 
{"free_energy": -6.02, "intermolecular_energy": -8.11, "internal_energy": -3.65, "cluster_size": 2, "cluster_id": 9, "rank_in_cluster": 2}

>  <energy>  (11) 
-8.59

>  <cluster_rmsd>  (11) 
0.91

>  <cluster>  (11) 
1

$$$$

     RDKit          3D

 55 58  0  0  0  0  0  0  0  0999 V2000
  142.1420   77.2380  217.8270 O   0  0  0  0  0  0  0  0  0  0  0  0
  142.1760   77.7720  218.9870 C   0  0  0  0  0  0  0  0  0  0  0  0
  142.5390   77.0050  220.1390 N   0  0  0  0  0  0  0  0  0  0  0  0
  142.8750   75.6050  220.0070 C   0  0  0  0  0  0  0  0  0  0  0  0
  141.7780   74.7350  220.5530 C   0  0  0  0  0  0  0  0  0  0  0  0
  141.9790   73.5760  220.9570 O   0  0  0  0  0  0  0  0  0  0  0  0
  140.4610   75.2740  220.6040 N   0  0  0  0  0  0  0  0  0  0  0  0
  139.7670   75.6320  219.3810 C   0  0  0  0  0  0  0  0  0  0  0  0
  138.3360   75.1480  219.3610 C   0  0  0  0  0  0  0  0  0  0  0  0
  137.6430   75.6500  220.5910 C   0  0  0  0  0  0  0  0  0  0  0  0
  138.3230   75.0840  221.7910 C   0  0  0  0  0  0  0  0  0  0  0  0
  139.7770   75.4830  221.8650 C   0  0  2  0  0  0  0  0  0  0  0  0
  139.8930   76.9690  222.1880 C   0  0  0  0  0  0  0  0  0  0  0  0
  141.1770   77.3070  222.7660 N   0  0  0  0  0  0  0  0  0  0  0  0
  141.5320   78.6880  222.9280 C   0  0  0  0  0  0  0  0  0  0  0  0
  140.7050   79.5490  223.6480 C   0  0  0  0  0  0  0  0  0  0  0  0
  141.0400   80.8760  223.8080 C   0  0  0  0  0  0  0  0  0  0  0  0
  142.1950   81.3500  223.2540 C   0  0  0  0  0  0  0  0  0  0  0  0
  143.0100   80.4860  222.5400 C   0  0  0  0  0  0  0  0  0  0  0  0
  142.6550   79.1790  222.3980 N   0  0  0  0  0  0  0  0  0  0  0  0
  141.8400   79.1890  219.1440 C   0  0  0  0  0  0  0  0  0  0  0  0
  142.5460   80.1400  218.4480 C   0  0  0  0  0  0  0  0  0  0  0  0
  142.1890   81.4740  218.6310 C   0  0  0  0  0  0  0  0  0  0  0  0
  141.1500   81.8210  219.4950 C   0  0  0  0  0  0  0  0  0  0  0  0
  140.7920   83.1390  219.6790 C   0  0  0  0  0  0  0  0  0  0  0  0
  139.7580   83.4550  220.5410 C   0  0  0  0  0  0  0  0  0  0  0  0
  139.3680   84.7370  220.7580 F   0  0  0  0  0  0  0  0  0  0  0  0
  139.0810   82.4420  221.2190 C   0  0  0  0  0  0  0  0  0  0  0  0
  139.4300   81.1040  221.0420 C   0  0  0  0  0  0  0  0  0  0  0  0
  140.4700   80.8370  220.1710 C   0  0  0  0  0  0  0  0  0  0  0  0
  140.8440   79.5590  219.9680 N   0  0  0  0  0  0  0  0  0  0  0  0
  142.5610   77.4550  221.0750 H   0  0  0  0  0  0  0  0  0  0  0  0
  143.0251   75.3697  218.9430 H   0  0  0  0  0  0  0  0  0  0  0  0
  143.7947   75.4096  220.5779 H   0  0  0  0  0  0  0  0  0  0  0  0
  139.7696   76.7276  219.2824 H   0  0  0  0  0  0  0  0  0  0  0  0
  140.2938   75.1478  218.5455 H   0  0  0  0  0  0  0  0  0  0  0  0
  137.8270   75.5340  218.4655 H   0  0  0  0  0  0  0  0  0  0  0  0
  138.3120   74.0485  219.3391 H   0  0  0  0  0  0  0  0  0  0  0  0
  137.6934   76.7484  220.6213 H   0  0  0  0  0  0  0  0  0  0  0  0
  136.5879   75.3394  220.5783 H   0  0  0  0  0  0  0  0  0  0  0  0
  137.8097   75.4477  222.6933 H   0  0  0  0  0  0  0  0  0  0  0  0
  138.2775   73.9873  221.7185 H   0  0  0  0  0  0  0  0  0  0  0  0
  140.2355   74.8582  222.6457 H   0  0  0  0  0  0  0  0  0  0  0  0
  139.7605   77.5442  221.2598 H   0  0  0  0  0  0  0  0  0  0  0  0
  139.1161   77.2145  222.9270 H   0  0  0  0  0  0  0  0  0  0  0  0
  141.8600   76.5830  223.0710 H   0  0  0  0  0  0  0  0  0  0  0  0
  139.7753   79.1650  224.0931 H   0  0  0  0  0  0  0  0  0  0  0  0
  140.3820   81.5487  224.3777 H   0  0  0  0  0  0  0  0  0  0  0  0
  142.4755   82.4069  223.3734 H   0  0  0  0  0  0  0  0  0  0  0  0
  143.9425   80.8555  222.0885 H   0  0  0  0  0  0  0  0  0  0  0  0
  143.3648   79.8579  217.7698 H   0  0  0  0  0  0  0  0  0  0  0  0
  142.7320   82.2620  218.0886 H   0  0  0  0  0  0  0  0  0  0  0  0
  141.3267   83.9365  219.1423 H   0  0  0  0  0  0  0  0  0  0  0  0
  138.2599   82.7023  221.9032 H   0  0  0  0  0  0  0  0  0  0  0  0
  138.9019   80.2972  221.5713 H   0  0  0  0  0  0  0  0  0  0  0  0
  1  2  2  0
  2  3  1  0
  3  4  1  0
  4  5  1  0
  5  6  2  0
  5  7  1  0
  7  8  1  0
  8  9  1  0
  9 10  1  0
 10 11  1  0
 11 12  1  0
 12 13  1  0
 13 14  1  0
 14 15  1  0
 15 16  2  0
 16 17  1  0
 17 18  2  0
 18 19  1  0
 19 20  2  0
  2 21  1  0
 21 22  2  0
 22 23  1  0
 23 24  2  0
 24 25  1  0
 25 26  2  0
 26 27  1  0
 26 28  1  0
 28 29  2  0
 29 30  1  0
 30 31  2  0
 12  7  1  0
 20 15  1  0
 31 21  1  0
 30 24  1  0
  3 32  1  0
  4 33  1  0
  4 34  1  0
  8 35  1  0
  8 36  1  0
  9 37  1  0
  9 38  1  0
 10 39  1  0
 10 40  1  0
 11 41  1  0
 11 42  1  0
 12 43  1  1
 13 44  1  0
 13 45  1  0
 14 46  1  0
 16 47  1  0
 17 48  1  0
 18 49  1  0
 19 50  1  0
 22 51  1  0
 23 52  1  0
 25 53  1  0
 28 54  1  0
 29 55  1  0
M  END
>  <smiles>  (12) 
O=C(NCC(=O)N1CCCCC1CNc1ccccn1)c1ccc2cc(F)ccc2n1

>  <score_type>  (12) 
oracle

>  <origin>  (12) 
autodockgpu

>  <m_score__min__energy>  (12) 
-9.0299999999999994

>  <m_primary>  (12) 
energy

>  <rmsd>  (12) 
8.858942008030802

>  <m_score__min__rmsd>  (12) 
8.858942008030802

>  <meeko>  (12) 
{"free_energy": -5.79, "intermolecular_energy": -7.88, "internal_energy": -3.87, "cluster_size": 1, "cluster_id": 11, "rank_in_cluster": 1}

>  <energy>  (12) 
-8.56

>  <cluster_rmsd>  (12) 
1.44

>  <cluster>  (12) 
1

$$$$

     RDKit          3D

 55 58  0  0  0  0  0  0  0  0999 V2000
  140.6000   70.8920  221.2530 O   0  0  0  0  0  0  0  0  0  0  0  0
  140.1180   71.4520  222.2950 C   0  0  0  0  0  0  0  0  0  0  0  0
  139.7330   72.8300  222.2760 N   0  0  0  0  0  0  0  0  0  0  0  0
  139.8840   73.6140  221.0710 C   0  0  0  0  0  0  0  0  0  0  0  0
  140.4090   74.9860  221.3860 C   0  0  0  0  0  0  0  0  0  0  0  0
  139.9980   75.6580  222.3490 O   0  0  0  0  0  0  0  0  0  0  0  0
  141.4180   75.5260  220.5380 N   0  0  0  0  0  0  0  0  0  0  0  0
  142.7290   74.9100  220.4750 C   0  0  0  0  0  0  0  0  0  0  0  0
  143.2310   74.7530  219.0580 C   0  0  0  0  0  0  0  0  0  0  0  0
  143.1830   76.0910  218.3830 C   0  0  0  0  0  0  0  0  0  0  0  0
  141.7680   76.5580  218.3400 C   0  0  0  0  0  0  0  0  0  0  0  0
  141.1720   76.6980  219.7200 C   0  0  2  0  0  0  0  0  0  0  0  0
  141.8050   77.8810  220.4440 C   0  0  0  0  0  0  0  0  0  0  0  0
  141.4340   77.9320  221.8430 N   0  0  0  0  0  0  0  0  0  0  0  0
  141.7590   79.0980  222.6120 C   0  0  0  0  0  0  0  0  0  0  0  0
  140.7510   79.9370  223.0830 C   0  0  0  0  0  0  0  0  0  0  0  0
  141.0560   81.0580  223.8240 C   0  0  0  0  0  0  0  0  0  0  0  0
  142.3620   81.3490  224.0980 C   0  0  0  0  0  0  0  0  0  0  0  0
  143.3580   80.5080  223.6250 C   0  0  0  0  0  0  0  0  0  0  0  0
  143.0280   79.4070  222.8970 N   0  0  0  0  0  0  0  0  0  0  0  0
  139.9550   70.6760  223.5260 C   0  0  0  0  0  0  0  0  0  0  0  0
  139.2470   69.5000  223.5040 C   0  0  0  0  0  0  0  0  0  0  0  0
  139.1190   68.7980  224.7010 C   0  0  0  0  0  0  0  0  0  0  0  0
  139.6940   69.2840  225.8760 C   0  0  0  0  0  0  0  0  0  0  0  0
  139.5710   68.5940  227.0620 C   0  0  0  0  0  0  0  0  0  0  0  0
  140.1520   69.0980  228.2120 C   0  0  0  0  0  0  0  0  0  0  0  0
  140.0590   68.4570  229.4050 F   0  0  0  0  0  0  0  0  0  0  0  0
  140.8580   70.2990  228.1680 C   0  0  0  0  0  0  0  0  0  0  0  0
  140.9920   71.0080  226.9750 C   0  0  0  0  0  0  0  0  0  0  0  0
  140.3950   70.4660  225.8520 C   0  0  0  0  0  0  0  0  0  0  0  0
  140.4960   71.1150  224.6770 N   0  0  0  0  0  0  0  0  0  0  0  0
  139.3420   73.2700  223.1320 H   0  0  0  0  0  0  0  0  0  0  0  0
  140.5881   73.1052  220.3962 H   0  0  0  0  0  0  0  0  0  0  0  0
  138.8988   73.7161  220.5925 H   0  0  0  0  0  0  0  0  0  0  0  0
  143.4399   75.5371  221.0330 H   0  0  0  0  0  0  0  0  0  0  0  0
  142.6452   73.9039  220.9117 H   0  0  0  0  0  0  0  0  0  0  0  0
  144.2661   74.3811  219.0705 H   0  0  0  0  0  0  0  0  0  0  0  0
  142.6010   74.0343  218.5134 H   0  0  0  0  0  0  0  0  0  0  0  0
  143.7930   76.8117  218.9474 H   0  0  0  0  0  0  0  0  0  0  0  0
  143.5799   76.0077  217.3605 H   0  0  0  0  0  0  0  0  0  0  0  0
  141.7328   77.5361  217.8379 H   0  0  0  0  0  0  0  0  0  0  0  0
  141.1805   75.8060  217.7929 H   0  0  0  0  0  0  0  0  0  0  0  0
  140.0894   76.8360  219.5820 H   0  0  0  0  0  0  0  0  0  0  0  0
  142.8993   77.7959  220.3711 H   0  0  0  0  0  0  0  0  0  0  0  0
  141.4408   78.8021  219.9656 H   0  0  0  0  0  0  0  0  0  0  0  0
  140.9370   77.1500  222.3170 H   0  0  0  0  0  0  0  0  0  0  0  0
  139.6997   79.7017  222.8607 H   0  0  0  0  0  0  0  0  0  0  0  0
  140.2533   81.7138  224.1922 H   0  0  0  0  0  0  0  0  0  0  0  0
  142.6210   82.2408  224.6875 H   0  0  0  0  0  0  0  0  0  0  0  0
  144.4139   80.7309  223.8382 H   0  0  0  0  0  0  0  0  0  0  0  0
  138.7962   69.1247  222.5734 H   0  0  0  0  0  0  0  0  0  0  0  0
  138.5591   67.8513  224.7199 H   0  0  0  0  0  0  0  0  0  0  0  0
  139.0133   67.6464  227.0945 H   0  0  0  0  0  0  0  0  0  0  0  0
  141.3158   70.6929  229.0873 H   0  0  0  0  0  0  0  0  0  0  0  0
  141.5478   71.9561  226.9293 H   0  0  0  0  0  0  0  0  0  0  0  0
  1  2  2  0
  2  3  1  0
  3  4  1  0
  4  5  1  0
  5  6  2  0
  5  7  1  0
  7  8  1  0
  8  9  1  0
  9 10  1  0
 10 11  1  0
 11 12  1  0
 12 13  1  0
 13 14  1  0
 14 15  1  0
 15 16  2  0
 16 17  1  0
 17 18  2  0
 18 19  1  0
 19 20  2  0
  2 21  1  0
 21 22  2  0
 22 23  1  0
 23 24  2  0
 24 25  1  0
 25 26  2  0
 26 27  1  0
 26 28  1  0
 28 29  2  0
 29 30  1  0
 30 31  2  0
 12  7  1  0
 20 15  1  0
 31 21  1  0
 30 24  1  0
  3 32  1  0
  4 33  1  0
  4 34  1  0
  8 35  1  0
  8 36  1  0
  9 37  1  0
  9 38  1  0
 10 39  1  0
 10 40  1  0
 11 41  1  0
 11 42  1  0
 12 43  1  6
 13 44  1  0
 13 45  1  0
 14 46  1  0
 16 47  1  0
 17 48  1  0
 18 49  1  0
 19 50  1  0
 22 51  1  0
 23 52  1  0
 25 53  1  0
 28 54  1  0
 29 55  1  0
M  END
>  <smiles>  (13) 
O=C(NCC(=O)N1CCCCC1CNc1ccccn1)c1ccc2cc(F)ccc2n1

>  <score_type>  (13) 
oracle

>  <origin>  (13) 
autodockgpu

>  <m_score__min__energy>  (13) 
-9.0299999999999994

>  <m_primary>  (13) 
energy

>  <rmsd>  (13) 
2.451603178176199

>  <m_score__min__rmsd>  (13) 
2.451603178176199

>  <meeko>  (13) 
{"free_energy": -8.61, "intermolecular_energy": -10.69, "internal_energy": -2.2, "cluster_size": 31, "cluster_id": 1, "rank_in_cluster": 10}

>  <energy>  (13) 
-8.32

>  <cluster_rmsd>  (13) 
1.57

>  <cluster>  (13) 
1

$$$$

     RDKit          3D

 55 58  0  0  0  0  0  0  0  0999 V2000
  139.5960   74.6240  222.3260 O   0  0  0  0  0  0  0  0  0  0  0  0
  139.9630   75.6110  221.6040 C   0  0  0  0  0  0  0  0  0  0  0  0
  140.2100   75.4460  220.2040 N   0  0  0  0  0  0  0  0  0  0  0  0
  140.0460   74.1520  219.5810 C   0  0  0  0  0  0  0  0  0  0  0  0
  141.2490   73.7960  218.7570 C   0  0  0  0  0  0  0  0  0  0  0  0
  141.2290   73.7720  217.5130 O   0  0  0  0  0  0  0  0  0  0  0  0
  142.4570   73.4760  219.4410 N   0  0  0  0  0  0  0  0  0  0  0  0
  142.4520   72.5100  220.5230 C   0  0  0  0  0  0  0  0  0  0  0  0
  143.5890   71.5200  220.4260 C   0  0  0  0  0  0  0  0  0  0  0  0
  144.8780   72.2790  220.3280 C   0  0  0  0  0  0  0  0  0  0  0  0
  144.8560   73.1080  219.0890 C   0  0  0  0  0  0  0  0  0  0  0  0
  143.7170   74.0980  219.0840 C   0  0  2  0  0  0  0  0  0  0  0  0
  143.9740   75.1930  220.1140 C   0  0  0  0  0  0  0  0  0  0  0  0
  142.8910   76.1530  220.1780 N   0  0  0  0  0  0  0  0  0  0  0  0
  142.6810   77.0470  219.0760 C   0  0  0  0  0  0  0  0  0  0  0  0
  142.1830   78.3310  219.2940 C   0  0  0  0  0  0  0  0  0  0  0  0
  141.9800   79.1950  218.2410 C   0  0  0  0  0  0  0  0  0  0  0  0
  142.2700   78.7880  216.9700 C   0  0  0  0  0  0  0  0  0  0  0  0
  142.7650   77.5090  216.7640 C   0  0  0  0  0  0  0  0  0  0  0  0
  142.9570   76.6770  217.8230 N   0  0  0  0  0  0  0  0  0  0  0  0
  140.1350   76.9310  222.2140 C   0  0  0  0  0  0  0  0  0  0  0  0
  139.0470   77.5960  222.7230 C   0  0  0  0  0  0  0  0  0  0  0  0
  139.2610   78.8490  223.2930 C   0  0  0  0  0  0  0  0  0  0  0  0
  140.5410   79.4010  223.3380 C   0  0  0  0  0  0  0  0  0  0  0  0
  140.7600   80.6400  223.9000 C   0  0  0  0  0  0  0  0  0  0  0  0
  142.0400   81.1630  223.9320 C   0  0  0  0  0  0  0  0  0  0  0  0
  142.3060   82.3790  224.4730 F   0  0  0  0  0  0  0  0  0  0  0  0
  143.1030   80.4380  223.3960 C   0  0  0  0  0  0  0  0  0  0  0  0
  142.8980   79.1830  222.8250 C   0  0  0  0  0  0  0  0  0  0  0  0
  141.6030   78.7010  222.8160 C   0  0  0  0  0  0  0  0  0  0  0  0
  141.3560   77.4940  222.2740 N   0  0  0  0  0  0  0  0  0  0  0  0
  140.5070   76.2600  219.6320 H   0  0  0  0  0  0  0  0  0  0  0  0
  139.9076   73.3910  220.3631 H   0  0  0  0  0  0  0  0  0  0  0  0
  139.1672   74.1896  218.9205 H   0  0  0  0  0  0  0  0  0  0  0  0
  142.5363   73.0503  221.4775 H   0  0  0  0  0  0  0  0  0  0  0  0
  141.5115   71.9432  220.4580 H   0  0  0  0  0  0  0  0  0  0  0  0
  143.6020   70.8819  221.3219 H   0  0  0  0  0  0  0  0  0  0  0  0
  143.4589   70.8847  219.5375 H   0  0  0  0  0  0  0  0  0  0  0  0
  144.9906   72.9310  221.2068 H   0  0  0  0  0  0  0  0  0  0  0  0
  145.7232   71.5759  220.2916 H   0  0  0  0  0  0  0  0  0  0  0  0
  145.8048   73.6597  219.0153 H   0  0  0  0  0  0  0  0  0  0  0  0
  144.7181   72.4311  218.2329 H   0  0  0  0  0  0  0  0  0  0  0  0
  143.6572   74.5032  218.0631 H   0  0  0  0  0  0  0  0  0  0  0  0
  144.0926   74.7271  221.1034 H   0  0  0  0  0  0  0  0  0  0  0  0
  144.8840   75.7321  219.8120 H   0  0  0  0  0  0  0  0  0  0  0  0
  142.2530   76.2200  220.9980 H   0  0  0  0  0  0  0  0  0  0  0  0
  141.9497   78.6574  220.3182 H   0  0  0  0  0  0  0  0  0  0  0  0
  141.5869   80.2062  218.4224 H   0  0  0  0  0  0  0  0  0  0  0  0
  142.1127   79.4671  216.1191 H   0  0  0  0  0  0  0  0  0  0  0  0
  143.0021   77.1677  215.7455 H   0  0  0  0  0  0  0  0  0  0  0  0
  138.0404   77.1543  222.6821 H   0  0  0  0  0  0  0  0  0  0  0  0
  138.4117   79.4087  223.7119 H   0  0  0  0  0  0  0  0  0  0  0  0
  139.9197   81.2111  224.3217 H   0  0  0  0  0  0  0  0  0  0  0  0
  144.1176   80.8620  223.4240 H   0  0  0  0  0  0  0  0  0  0  0  0
  143.7301   78.6022  222.4005 H   0  0  0  0  0  0  0  0  0  0  0  0
  1  2  2  0
  2  3  1  0
  3  4  1  0
  4  5  1  0
  5  6  2  0
  5  7  1  0
  7  8  1  0
  8  9  1  0
  9 10  1  0
 10 11  1  0
 11 12  1  0
 12 13  1  0
 13 14  1  0
 14 15  1  0
 15 16  2  0
 16 17  1  0
 17 18  2  0
 18 19  1  0
 19 20  2  0
  2 21  1  0
 21 22  2  0
 22 23  1  0
 23 24  2  0
 24 25  1  0
 25 26  2  0
 26 27  1  0
 26 28  1  0
 28 29  2  0
 29 30  1  0
 30 31  2  0
 12  7  1  0
 20 15  1  0
 31 21  1  0
 30 24  1  0
  3 32  1  0
  4 33  1  0
  4 34  1  0
  8 35  1  0
  8 36  1  0
  9 37  1  0
  9 38  1  0
 10 39  1  0
 10 40  1  0
 11 41  1  0
 11 42  1  0
 12 43  1  6
 13 44  1  0
 13 45  1  0
 14 46  1  0
 16 47  1  0
 17 48  1  0
 18 49  1  0
 19 50  1  0
 22 51  1  0
 23 52  1  0
 25 53  1  0
 28 54  1  0
 29 55  1  0
M  END
>  <smiles>  (14) 
O=C(NCC(=O)N1CCCCC1CNc1ccccn1)c1ccc2cc(F)ccc2n1

>  <score_type>  (14) 
oracle

>  <origin>  (14) 
autodockgpu

>  <m_score__min__energy>  (14) 
-9.0299999999999994

>  <m_primary>  (14) 
energy

>  <rmsd>  (14) 
7.217963888371704

>  <m_score__min__rmsd>  (14) 
7.217963888371704

>  <meeko>  (14) 
{"free_energy": -6.41, "intermolecular_energy": -8.5, "internal_energy": -3.27, "cluster_size": 2, "cluster_id": 9, "rank_in_cluster": 1}

>  <energy>  (14) 
-8.23

>  <cluster_rmsd>  (14) 
1.01

>  <cluster>  (14) 
1

$$$$

     RDKit          3D

 55 58  0  0  0  0  0  0  0  0999 V2000
  139.1490   70.6620  221.2010 O   0  0  0  0  0  0  0  0  0  0  0  0
  139.2090   71.2150  222.3510 C   0  0  0  0  0  0  0  0  0  0  0  0
  139.0970   72.6350  222.4900 N   0  0  0  0  0  0  0  0  0  0  0  0
  138.9130   73.4700  221.3240 C   0  0  0  0  0  0  0  0  0  0  0  0
  139.8940   74.6080  221.3180 C   0  0  0  0  0  0  0  0  0  0  0  0
  140.6820   74.8200  222.2570 O   0  0  0  0  0  0  0  0  0  0  0  0
  139.9100   75.4700  220.1840 N   0  0  0  0  0  0  0  0  0  0  0  0
  140.3210   74.9670  218.8870 C   0  0  0  0  0  0  0  0  0  0  0  0
  139.3980   75.4030  217.7740 C   0  0  0  0  0  0  0  0  0  0  0  0
  139.2800   76.8970  217.8080 C   0  0  0  0  0  0  0  0  0  0  0  0
  138.6820   77.3030  219.1130 C   0  0  0  0  0  0  0  0  0  0  0  0
  139.5230   76.8630  220.2860 C   0  0  2  0  0  0  0  0  0  0  0  0
  140.8130   77.6760  220.3370 C   0  0  0  0  0  0  0  0  0  0  0  0
  141.4650   77.5930  221.6280 N   0  0  0  0  0  0  0  0  0  0  0  0
  141.6390   78.7870  222.4030 C   0  0  0  0  0  0  0  0  0  0  0  0
  140.5580   79.3570  223.0740 C   0  0  0  0  0  0  0  0  0  0  0  0
  140.7180   80.5030  223.8210 C   0  0  0  0  0  0  0  0  0  0  0  0
  141.9510   81.0850  223.9050 C   0  0  0  0  0  0  0  0  0  0  0  0
  143.0190   80.5100  223.2350 C   0  0  0  0  0  0  0  0  0  0  0  0
  142.8320   79.3770  222.5040 N   0  0  0  0  0  0  0  0  0  0  0  0
  139.3940   70.3890  223.5460 C   0  0  0  0  0  0  0  0  0  0  0  0
  138.9590   69.0870  223.5510 C   0  0  0  0  0  0  0  0  0  0  0  0
  139.1570   68.3420  224.7110 C   0  0  0  0  0  0  0  0  0  0  0  0
  139.7770   68.9090  225.8240 C   0  0  0  0  0  0  0  0  0  0  0  0
  139.9760   68.1760  226.9740 C   0  0  0  0  0  0  0  0  0  0  0  0
  140.5940   68.7640  228.0630 C   0  0  0  0  0  0  0  0  0  0  0  0
  140.8130   68.0860  229.2190 F   0  0  0  0  0  0  0  0  0  0  0  0
  141.0130   70.0920  227.9950 C   0  0  0  0  0  0  0  0  0  0  0  0
  140.8190   70.8460  226.8380 C   0  0  0  0  0  0  0  0  0  0  0  0
  140.1980   70.2160  225.7760 C   0  0  0  0  0  0  0  0  0  0  0  0
  139.9880   70.9040  224.6370 N   0  0  0  0  0  0  0  0  0  0  0  0
  139.1470   73.0690  223.4320 H   0  0  0  0  0  0  0  0  0  0  0  0
  139.0611   72.8623  220.4191 H   0  0  0  0  0  0  0  0  0  0  0  0
  137.8944   73.8848  221.3465 H   0  0  0  0  0  0  0  0  0  0  0  0
  141.3336   75.3381  218.6703 H   0  0  0  0  0  0  0  0  0  0  0  0
  140.2916   73.8683  218.9320 H   0  0  0  0  0  0  0  0  0  0  0  0
  139.8105   75.0858  216.8049 H   0  0  0  0  0  0  0  0  0  0  0  0
  138.4068   74.9447  217.9066 H   0  0  0  0  0  0  0  0  0  0  0  0
  140.2772   77.3490  217.7018 H   0  0  0  0  0  0  0  0  0  0  0  0
  138.6406   77.2401  216.9813 H   0  0  0  0  0  0  0  0  0  0  0  0
  138.5893   78.3989  219.1347 H   0  0  0  0  0  0  0  0  0  0  0  0
  137.6992   76.8166  219.2004 H   0  0  0  0  0  0  0  0  0  0  0  0
  138.9092   77.0141  221.1862 H   0  0  0  0  0  0  0  0  0  0  0  0
  141.5014   77.2956  219.5680 H   0  0  0  0  0  0  0  0  0  0  0  0
  140.5536   78.7299  220.1584 H   0  0  0  0  0  0  0  0  0  0  0  0
  141.8150   76.6930  222.0190 H   0  0  0  0  0  0  0  0  0  0  0  0
  139.5662   78.8862  223.0061 H   0  0  0  0  0  0  0  0  0  0  0  0
  139.8592   80.9464  224.3462 H   0  0  0  0  0  0  0  0  0  0  0  0
  142.0945   82.0002  224.4981 H   0  0  0  0  0  0  0  0  0  0  0  0
  144.0171   80.9687  223.2938 H   0  0  0  0  0  0  0  0  0  0  0  0
  138.4707   68.6471  222.6689 H   0  0  0  0  0  0  0  0  0  0  0  0
  138.8208   67.2954  224.7496 H   0  0  0  0  0  0  0  0  0  0  0  0
  139.6450   67.1283  227.0257 H   0  0  0  0  0  0  0  0  0  0  0  0
  141.5034   70.5514  228.8659 H   0  0  0  0  0  0  0  0  0  0  0  0
  141.1454   71.8945  226.7735 H   0  0  0  0  0  0  0  0  0  0  0  0
  1  2  2  0
  2  3  1  0
  3  4  1  0
  4  5  1  0
  5  6  2  0
  5  7  1  0
  7  8  1  0
  8  9  1  0
  9 10  1  0
 10 11  1  0
 11 12  1  0
 12 13  1  0
 13 14  1  0
 14 15  1  0
 15 16  2  0
 16 17  1  0
 17 18  2  0
 18 19  1  0
 19 20  2  0
  2 21  1  0
 21 22  2  0
 22 23  1  0
 23 24  2  0
 24 25  1  0
 25 26  2  0
 26 27  1  0
 26 28  1  0
 28 29  2  0
 29 30  1  0
 30 31  2  0
 12  7  1  0
 20 15  1  0
 31 21  1  0
 30 24  1  0
  3 32  1  0
  4 33  1  0
  4 34  1  0
  8 35  1  0
  8 36  1  0
  9 37  1  0
  9 38  1  0
 10 39  1  0
 10 40  1  0
 11 41  1  0
 11 42  1  0
 12 43  1  1
 13 44  1  0
 13 45  1  0
 14 46  1  0
 16 47  1  0
 17 48  1  0
 18 49  1  0
 19 50  1  0
 22 51  1  0
 23 52  1  0
 25 53  1  0
 28 54  1  0
 29 55  1  0
M  END
>  <smiles>  (15) 
O=C(NCC(=O)N1CCCCC1CNc1ccccn1)c1ccc2cc(F)ccc2n1

>  <score_type>  (15) 
oracle

>  <origin>  (15) 
autodockgpu

>  <m_score__min__energy>  (15) 
-9.0299999999999994

>  <m_primary>  (15) 
energy

>  <rmsd>  (15) 
2.0077381220604344

>  <m_score__min__rmsd>  (15) 
2.0077381220604344

>  <meeko>  (15) 
{"free_energy": -7.97, "intermolecular_energy": -10.06, "internal_energy": -2.24, "cluster_size": 31, "cluster_id": 1, "rank_in_cluster": 24}

>  <energy>  (15) 
-8.19

>  <cluster_rmsd>  (15) 
1.88

>  <cluster>  (15) 
1

$$$$

     RDKit          3D

 55 58  0  0  0  0  0  0  0  0999 V2000
  139.9410   73.7250  222.5480 O   0  0  0  0  0  0  0  0  0  0  0  0
  140.3900   72.5340  222.4410 C   0  0  0  0  0  0  0  0  0  0  0  0
  141.0670   72.1080  221.2540 N   0  0  0  0  0  0  0  0  0  0  0  0
  141.2530   73.0240  220.1510 C   0  0  0  0  0  0  0  0  0  0  0  0
  142.4250   73.9310  220.3980 C   0  0  0  0  0  0  0  0  0  0  0  0
  143.5390   73.5070  220.7560 O   0  0  0  0  0  0  0  0  0  0  0  0
  142.2380   75.3300  220.2090 N   0  0  0  0  0  0  0  0  0  0  0  0
  143.3340   76.1590  219.7420 C   0  0  0  0  0  0  0  0  0  0  0  0
  142.9150   77.1150  218.6500 C   0  0  0  0  0  0  0  0  0  0  0  0
  141.7460   77.9160  219.1360 C   0  0  0  0  0  0  0  0  0  0  0  0
  140.6130   76.9890  219.4210 C   0  0  0  0  0  0  0  0  0  0  0  0
  140.9630   75.9660  220.4740 C   0  0  2  0  0  0  0  0  0  0  0  0
  141.0830   76.6410  221.8360 C   0  0  0  0  0  0  0  0  0  0  0  0
  140.3300   77.8760  221.9060 N   0  0  0  0  0  0  0  0  0  0  0  0
  140.9670   79.0580  222.4110 C   0  0  0  0  0  0  0  0  0  0  0  0
  141.9900   78.9620  223.3520 C   0  0  0  0  0  0  0  0  0  0  0  0
  142.6060   80.0930  223.8400 C   0  0  0  0  0  0  0  0  0  0  0  0
  142.2090   81.3210  223.3950 C   0  0  0  0  0  0  0  0  0  0  0  0
  141.1910   81.4070  222.4580 C   0  0  0  0  0  0  0  0  0  0  0  0
  140.6000   80.2730  221.9930 N   0  0  0  0  0  0  0  0  0  0  0  0
  140.2150   71.5900  223.5460 C   0  0  0  0  0  0  0  0  0  0  0  0
  139.5750   70.3950  223.3290 C   0  0  0  0  0  0  0  0  0  0  0  0
  139.4320   69.5290  224.4110 C   0  0  0  0  0  0  0  0  0  0  0  0
  139.9250   69.8750  225.6690 C   0  0  0  0  0  0  0  0  0  0  0  0
  139.7870   69.0240  226.7430 C   0  0  0  0  0  0  0  0  0  0  0  0
  140.2860   69.3920  227.9800 C   0  0  0  0  0  0  0  0  0  0  0  0
  140.1740   68.5890  229.0690 F   0  0  0  0  0  0  0  0  0  0  0  0
  140.9260   70.6210  228.1350 C   0  0  0  0  0  0  0  0  0  0  0  0
  141.0740   71.4930  227.0580 C   0  0  0  0  0  0  0  0  0  0  0  0
  140.5600   71.0820  225.8430 C   0  0  0  0  0  0  0  0  0  0  0  0
  140.6780   71.8910  224.7730 N   0  0  0  0  0  0  0  0  0  0  0  0
  141.4270   71.1360  221.1840 H   0  0  0  0  0  0  0  0  0  0  0  0
  141.4311   72.4481  219.2309 H   0  0  0  0  0  0  0  0  0  0  0  0
  140.3474   73.6402  220.0498 H   0  0  0  0  0  0  0  0  0  0  0  0
  143.7214   76.7417  220.5908 H   0  0  0  0  0  0  0  0  0  0  0  0
  144.1019   75.4915  219.3238 H   0  0  0  0  0  0  0  0  0  0  0  0
  143.7500   77.7886  218.4071 H   0  0  0  0  0  0  0  0  0  0  0  0
  142.6350   76.5531  217.7467 H   0  0  0  0  0  0  0  0  0  0  0  0
  142.0230   78.4545  220.0543 H   0  0  0  0  0  0  0  0  0  0  0  0
  141.4479   78.6454  218.3685 H   0  0  0  0  0  0  0  0  0  0  0  0
  139.7531   77.5783  219.7720 H   0  0  0  0  0  0  0  0  0  0  0  0
  140.3769   76.4494  218.4920 H   0  0  0  0  0  0  0  0  0  0  0  0
  140.1608   75.2134  220.4600 H   0  0  0  0  0  0  0  0  0  0  0  0
  140.7056   75.9525  222.6064 H   0  0  0  0  0  0  0  0  0  0  0  0
  142.1434   76.8839  221.9987 H   0  0  0  0  0  0  0  0  0  0  0  0
  139.3360   77.9420  221.6020 H   0  0  0  0  0  0  0  0  0  0  0  0
  142.3092   77.9718  223.7092 H   0  0  0  0  0  0  0  0  0  0  0  0
  143.4124   80.0074  224.5832 H   0  0  0  0  0  0  0  0  0  0  0  0
  142.6919   82.2329  223.7761 H   0  0  0  0  0  0  0  0  0  0  0  0
  140.8616   82.3903  222.0910 H   0  0  0  0  0  0  0  0  0  0  0  0
  139.1880   70.1301  222.3340 H   0  0  0  0  0  0  0  0  0  0  0  0
  138.9252   68.5627  224.2717 H   0  0  0  0  0  0  0  0  0  0  0  0
  139.2818   68.0549  226.6178 H   0  0  0  0  0  0  0  0  0  0  0  0
  141.3198   70.9065  229.1216 H   0  0  0  0  0  0  0  0  0  0  0  0
  141.5773   72.4646  227.1701 H   0  0  0  0  0  0  0  0  0  0  0  0
  1  2  2  0
  2  3  1  0
  3  4  1  0
  4  5  1  0
  5  6  2  0
  5  7  1  0
  7  8  1  0
  8  9  1  0
  9 10  1  0
 10 11  1  0
 11 12  1  0
 12 13  1  0
 13 14  1  0
 14 15  1  0
 15 16  2  0
 16 17  1  0
 17 18  2  0
 18 19  1  0
 19 20  2  0
  2 21  1  0
 21 22  2  0
 22 23  1  0
 23 24  2  0
 24 25  1  0
 25 26  2  0
 26 27  1  0
 26 28  1  0
 28 29  2  0
 29 30  1  0
 30 31  2  0
 12  7  1  0
 20 15  1  0
 31 21  1  0
 30 24  1  0
  3 32  1  0
  4 33  1  0
  4 34  1  0
  8 35  1  0
  8 36  1  0
  9 37  1  0
  9 38  1  0
 10 39  1  0
 10 40  1  0
 11 41  1  0
 11 42  1  0
 12 43  1  1
 13 44  1  0
 13 45  1  0
 14 46  1  0
 16 47  1  0
 17 48  1  0
 18 49  1  0
 19 50  1  0
 22 51  1  0
 23 52  1  0
 25 53  1  0
 28 54  1  0
 29 55  1  0
M  END
>  <smiles>  (16) 
O=C(NCC(=O)N1CCCCC1CNc1ccccn1)c1ccc2cc(F)ccc2n1

>  <score_type>  (16) 
oracle

>  <origin>  (16) 
autodockgpu

>  <m_score__min__energy>  (16) 
-9.0299999999999994

>  <m_primary>  (16) 
energy

>  <rmsd>  (16) 
2.7751544279855125

>  <m_score__min__rmsd>  (16) 
2.7751544279855125

>  <meeko>  (16) 
{"free_energy": -8.56, "intermolecular_energy": -10.65, "internal_energy": -1.59, "cluster_size": 31, "cluster_id": 1, "rank_in_cluster": 12}

>  <energy>  (16) 
-8.18

>  <cluster_rmsd>  (16) 
1.19

>  <cluster>  (16) 
1

$$$$

     RDKit          3D

 55 58  0  0  0  0  0  0  0  0999 V2000
  137.7550   70.2140  221.6420 O   0  0  0  0  0  0  0  0  0  0  0  0
  138.1820   70.8870  222.6400 C   0  0  0  0  0  0  0  0  0  0  0  0
  138.1190   72.3170  222.6440 N   0  0  0  0  0  0  0  0  0  0  0  0
  137.5660   73.0260  221.5110 C   0  0  0  0  0  0  0  0  0  0  0  0
  137.9260   74.4830  221.5630 C   0  0  0  0  0  0  0  0  0  0  0  0
  137.0920   75.3730  221.8100 O   0  0  0  0  0  0  0  0  0  0  0  0
  139.2810   74.8470  221.3180 N   0  0  0  0  0  0  0  0  0  0  0  0
  140.3210   73.8350  221.3140 C   0  0  0  0  0  0  0  0  0  0  0  0
  141.2690   73.9800  220.1470 C   0  0  0  0  0  0  0  0  0  0  0  0
  141.8140   75.3760  220.1420 C   0  0  0  0  0  0  0  0  0  0  0  0
  140.6850   76.3330  219.9630 C   0  0  0  0  0  0  0  0  0  0  0  0
  139.6630   76.2220  221.0680 C   0  0  2  0  0  0  0  0  0  0  0  0
  140.2450   76.7610  222.3710 C   0  0  0  0  0  0  0  0  0  0  0  0
  141.4300   77.5630  222.1540 N   0  0  0  0  0  0  0  0  0  0  0  0
  141.5030   78.8770  222.7260 C   0  0  0  0  0  0  0  0  0  0  0  0
  142.7390   79.4710  222.9750 C   0  0  0  0  0  0  0  0  0  0  0  0
  142.8160   80.7320  223.5230 C   0  0  0  0  0  0  0  0  0  0  0  0
  141.6670   81.4060  223.8260 C   0  0  0  0  0  0  0  0  0  0  0  0
  140.4430   80.8070  223.5740 C   0  0  0  0  0  0  0  0  0  0  0  0
  140.3970   79.5600  223.0310 N   0  0  0  0  0  0  0  0  0  0  0  0
  138.7450   70.1900  223.7980 C   0  0  0  0  0  0  0  0  0  0  0  0
  138.6660   68.8220  223.8770 C   0  0  0  0  0  0  0  0  0  0  0  0
  139.2170   68.2040  224.9980 C   0  0  0  0  0  0  0  0  0  0  0  0
  139.8240   68.9600  226.0010 C   0  0  0  0  0  0  0  0  0  0  0  0
  140.3690   68.3550  227.1120 C   0  0  0  0  0  0  0  0  0  0  0  0
  140.9660   69.1290  228.0910 C   0  0  0  0  0  0  0  0  0  0  0  0
  141.5170   68.5820  229.2050 F   0  0  0  0  0  0  0  0  0  0  0  0
  141.0130   70.5160  227.9520 C   0  0  0  0  0  0  0  0  0  0  0  0
  140.4660   71.1420  226.8330 C   0  0  0  0  0  0  0  0  0  0  0  0
  139.8810   70.3280  225.8810 C   0  0  0  0  0  0  0  0  0  0  0  0
  139.3380   70.8880  224.7840 N   0  0  0  0  0  0  0  0  0  0  0  0
  138.4700   72.8490  223.4640 H   0  0  0  0  0  0  0  0  0  0  0  0
  137.9647   72.5894  220.5834 H   0  0  0  0  0  0  0  0  0  0  0  0
  136.4703   72.9335  221.5392 H   0  0  0  0  0  0  0  0  0  0  0  0
  140.8966   73.9178  222.2477 H   0  0  0  0  0  0  0  0  0  0  0  0
  139.8308   72.8543  221.2248 H   0  0  0  0  0  0  0  0  0  0  0  0
  142.0948   73.2605  220.2492 H   0  0  0  0  0  0  0  0  0  0  0  0
  140.7370   73.7817  219.2048 H   0  0  0  0  0  0  0  0  0  0  0  0
  142.3217   75.5779  221.0967 H   0  0  0  0  0  0  0  0  0  0  0  0
  142.5356   75.4921  219.3199 H   0  0  0  0  0  0  0  0  0  0  0  0
  141.0867   77.3570  219.9535 H   0  0  0  0  0  0  0  0  0  0  0  0
  140.1841   76.0907  219.0141 H   0  0  0  0  0  0  0  0  0  0  0  0
  138.7847   76.7989  220.7426 H   0  0  0  0  0  0  0  0  0  0  0  0
  139.4845   77.3811  222.8681 H   0  0  0  0  0  0  0  0  0  0  0  0
  140.5311   75.9000  222.9929 H   0  0  0  0  0  0  0  0  0  0  0  0
  142.2400   77.2220  221.5940 H   0  0  0  0  0  0  0  0  0  0  0  0
  143.6632   78.9265  222.7311 H   0  0  0  0  0  0  0  0  0  0  0  0
  143.7959   81.1934  223.7154 H   0  0  0  0  0  0  0  0  0  0  0  0
  141.7129   82.4134  224.2653 H   0  0  0  0  0  0  0  0  0  0  0  0
  139.5100   81.3387  223.8125 H   0  0  0  0  0  0  0  0  0  0  0  0
  138.1841   68.2334  223.0824 H   0  0  0  0  0  0  0  0  0  0  0  0
  139.1728   67.1090  225.0929 H   0  0  0  0  0  0  0  0  0  0  0  0
  140.3297   67.2611  227.2203 H   0  0  0  0  0  0  0  0  0  0  0  0
  141.4881   71.1241  228.7359 H   0  0  0  0  0  0  0  0  0  0  0  0
  140.4984   72.2349  226.7129 H   0  0  0  0  0  0  0  0  0  0  0  0
  1  2  2  0
  2  3  1  0
  3  4  1  0
  4  5  1  0
  5  6  2  0
  5  7  1  0
  7  8  1  0
  8  9  1  0
  9 10  1  0
 10 11  1  0
 11 12  1  0
 12 13  1  0
 13 14  1  0
 14 15  1  0
 15 16  2  0
 16 17  1  0
 17 18  2  0
 18 19  1  0
 19 20  2  0
  2 21  1  0
 21 22  2  0
 22 23  1  0
 23 24  2  0
 24 25  1  0
 25 26  2  0
 26 27  1  0
 26 28  1  0
 28 29  2  0
 29 30  1  0
 30 31  2  0
 12  7  1  0
 20 15  1  0
 31 21  1  0
 30 24  1  0
  3 32  1  0
  4 33  1  0
  4 34  1  0
  8 35  1  0
  8 36  1  0
  9 37  1  0
  9 38  1  0
 10 39  1  0
 10 40  1  0
 11 41  1  0
 11 42  1  0
 12 43  1  6
 13 44  1  0
 13 45  1  0
 14 46  1  0
 16 47  1  0
 17 48  1  0
 18 49  1  0
 19 50  1  0
 22 51  1  0
 23 52  1  0
 25 53  1  0
 28 54  1  0
 29 55  1  0
M  END
>  <smiles>  (17) 
O=C(NCC(=O)N1CCCCC1CNc1ccccn1)c1ccc2cc(F)ccc2n1

>  <score_type>  (17) 
oracle

>  <origin>  (17) 
autodockgpu

>  <m_score__min__energy>  (17) 
-9.0299999999999994

>  <m_primary>  (17) 
energy

>  <rmsd>  (17) 
2.318958409343191

>  <m_score__min__rmsd>  (17) 
2.318958409343191

>  <meeko>  (17) 
{"free_energy": -8.32, "intermolecular_energy": -10.41, "internal_energy": -1.51, "cluster_size": 31, "cluster_id": 1, "rank_in_cluster": 13}

>  <energy>  (17) 
-8.15

>  <cluster_rmsd>  (17) 
1.48

>  <cluster>  (17) 
1

$$$$

     RDKit          3D

 55 58  0  0  0  0  0  0  0  0999 V2000
  137.9010   70.3610  221.9460 O   0  0  0  0  0  0  0  0  0  0  0  0
  138.6110   70.8680  222.8780 C   0  0  0  0  0  0  0  0  0  0  0  0
  139.0070   72.2430  222.8350 N   0  0  0  0  0  0  0  0  0  0  0  0
  138.6060   73.0840  221.7290 C   0  0  0  0  0  0  0  0  0  0  0  0
  139.1490   74.4750  221.8870 C   0  0  0  0  0  0  0  0  0  0  0  0
  140.3300   74.7030  222.2050 O   0  0  0  0  0  0  0  0  0  0  0  0
  138.2640   75.5680  221.6600 N   0  0  0  0  0  0  0  0  0  0  0  0
  137.7980   75.8660  220.3190 C   0  0  0  0  0  0  0  0  0  0  0  0
  136.3120   76.1380  220.2660 C   0  0  0  0  0  0  0  0  0  0  0  0
  135.9890   77.2220  221.2490 C   0  0  0  0  0  0  0  0  0  0  0  0
  136.3410   76.7500  222.6190 C   0  0  0  0  0  0  0  0  0  0  0  0
  137.8060   76.4100  222.7470 C   0  0  2  0  0  0  0  0  0  0  0  0
  138.6420   77.6850  222.6980 C   0  0  0  0  0  0  0  0  0  0  0  0
  140.0640   77.4100  222.6880 N   0  0  0  0  0  0  0  0  0  0  0  0
  140.9900   78.5050  222.7180 C   0  0  0  0  0  0  0  0  0  0  0  0
  141.2980   79.2020  221.5510 C   0  0  0  0  0  0  0  0  0  0  0  0
  142.1850   80.2550  221.5730 C   0  0  0  0  0  0  0  0  0  0  0  0
  142.7690   80.6190  222.7530 C   0  0  0  0  0  0  0  0  0  0  0  0
  142.4570   79.9190  223.9080 C   0  0  0  0  0  0  0  0  0  0  0  0
  141.5760   78.8830  223.8570 N   0  0  0  0  0  0  0  0  0  0  0  0
  139.0290   70.0360  224.0090 C   0  0  0  0  0  0  0  0  0  0  0  0
  138.8060   68.6820  223.9790 C   0  0  0  0  0  0  0  0  0  0  0  0
  139.2220   67.9330  225.0780 C   0  0  0  0  0  0  0  0  0  0  0  0
  139.8400   68.5480  226.1670 C   0  0  0  0  0  0  0  0  0  0  0  0
  140.2530   67.8130  227.2560 C   0  0  0  0  0  0  0  0  0  0  0  0
  140.8640   68.4490  228.3210 C   0  0  0  0  0  0  0  0  0  0  0  0
  141.2870   67.7690  229.4180 F   0  0  0  0  0  0  0  0  0  0  0  0
  141.0600   69.8280  228.2910 C   0  0  0  0  0  0  0  0  0  0  0  0
  140.6490   70.5860  227.1950 C   0  0  0  0  0  0  0  0  0  0  0  0
  140.0430   69.9070  226.1540 C   0  0  0  0  0  0  0  0  0  0  0  0
  139.6280   70.5970  225.0750 N   0  0  0  0  0  0  0  0  0  0  0  0
  139.5840   72.6410  223.6020 H   0  0  0  0  0  0  0  0  0  0  0  0
  138.9883   72.6528  220.7920 H   0  0  0  0  0  0  0  0  0  0  0  0
  137.5074   73.1366  221.7087 H   0  0  0  0  0  0  0  0  0  0  0  0
  138.3319   76.7541  219.9499 H   0  0  0  0  0  0  0  0  0  0  0  0
  137.9972   74.9832  219.6937 H   0  0  0  0  0  0  0  0  0  0  0  0
  136.0302   76.4605  219.2528 H   0  0  0  0  0  0  0  0  0  0  0  0
  135.7535   75.2242  220.5173 H   0  0  0  0  0  0  0  0  0  0  0  0
  136.5702   78.1243  221.0083 H   0  0  0  0  0  0  0  0  0  0  0  0
  134.9166   77.4623  221.2009 H   0  0  0  0  0  0  0  0  0  0  0  0
  136.0974   77.5438  223.3405 H   0  0  0  0  0  0  0  0  0  0  0  0
  135.7637   75.8353  222.8193 H   0  0  0  0  0  0  0  0  0  0  0  0
  137.9236   75.8802  223.7038 H   0  0  0  0  0  0  0  0  0  0  0  0
  138.3832   78.2428  221.7860 H   0  0  0  0  0  0  0  0  0  0  0  0
  138.4186   78.2688  223.6031 H   0  0  0  0  0  0  0  0  0  0  0  0
  140.4450   76.4410  222.6600 H   0  0  0  0  0  0  0  0  0  0  0  0
  140.8271   78.9075  220.6015 H   0  0  0  0  0  0  0  0  0  0  0  0
  142.4216   80.7993  220.6468 H   0  0  0  0  0  0  0  0  0  0  0  0
  143.4791   81.4584  222.7863 H   0  0  0  0  0  0  0  0  0  0  0  0
  142.9210   80.2006  224.8648 H   0  0  0  0  0  0  0  0  0  0  0  0
  138.3160   68.2048  223.1175 H   0  0  0  0  0  0  0  0  0  0  0  0
  139.0613   66.8448  225.0869 H   0  0  0  0  0  0  0  0  0  0  0  0
  140.0974   66.7243  227.2785 H   0  0  0  0  0  0  0  0  0  0  0  0
  141.5455   70.3257  229.1434 H   0  0  0  0  0  0  0  0  0  0  0  0
  140.8001   71.6750  227.1602 H   0  0  0  0  0  0  0  0  0  0  0  0
  1  2  2  0
  2  3  1  0
  3  4  1  0
  4  5  1  0
  5  6  2  0
  5  7  1  0
  7  8  1  0
  8  9  1  0
  9 10  1  0
 10 11  1  0
 11 12  1  0
 12 13  1  0
 13 14  1  0
 14 15  1  0
 15 16  2  0
 16 17  1  0
 17 18  2  0
 18 19  1  0
 19 20  2  0
  2 21  1  0
 21 22  2  0
 22 23  1  0
 23 24  2  0
 24 25  1  0
 25 26  2  0
 26 27  1  0
 26 28  1  0
 28 29  2  0
 29 30  1  0
 30 31  2  0
 12  7  1  0
 20 15  1  0
 31 21  1  0
 30 24  1  0
  3 32  1  0
  4 33  1  0
  4 34  1  0
  8 35  1  0
  8 36  1  0
  9 37  1  0
  9 38  1  0
 10 39  1  0
 10 40  1  0
 11 41  1  0
 11 42  1  0
 12 43  1  1
 13 44  1  0
 13 45  1  0
 14 46  1  0
 16 47  1  0
 17 48  1  0
 18 49  1  0
 19 50  1  0
 22 51  1  0
 23 52  1  0
 25 53  1  0
 28 54  1  0
 29 55  1  0
M  END
>  <smiles>  (18) 
O=C(NCC(=O)N1CCCCC1CNc1ccccn1)c1ccc2cc(F)ccc2n1

>  <score_type>  (18) 
oracle

>  <origin>  (18) 
autodockgpu

>  <m_score__min__energy>  (18) 
-9.0299999999999994

>  <m_primary>  (18) 
energy

>  <rmsd>  (18) 
3.0306043753391947

>  <m_score__min__rmsd>  (18) 
3.0306043753391947

>  <meeko>  (18) 
{"free_energy": -7.95, "intermolecular_energy": -10.04, "internal_energy": -2.36, "cluster_size": 3, "cluster_id": 4, "rank_in_cluster": 3}

>  <energy>  (18) 
-8.14

>  <cluster_rmsd>  (18) 
0.85

>  <cluster>  (18) 
1

$$$$

     RDKit          3D

 55 58  0  0  0  0  0  0  0  0999 V2000
  139.0220   70.5820  221.4170 O   0  0  0  0  0  0  0  0  0  0  0  0
  139.3060   71.1540  222.5230 C   0  0  0  0  0  0  0  0  0  0  0  0
  139.4450   72.5760  222.6000 N   0  0  0  0  0  0  0  0  0  0  0  0
  139.2640   73.3930  221.4210 C   0  0  0  0  0  0  0  0  0  0  0  0
  139.5840   74.8310  221.7100 C   0  0  0  0  0  0  0  0  0  0  0  0
  140.7230   75.2150  222.0330 O   0  0  0  0  0  0  0  0  0  0  0  0
  138.5310   75.7850  221.6030 N   0  0  0  0  0  0  0  0  0  0  0  0
  137.9230   76.0640  220.3150 C   0  0  0  0  0  0  0  0  0  0  0  0
  136.4150   76.1070  220.3810 C   0  0  0  0  0  0  0  0  0  0  0  0
  136.0100   77.0860  221.4410 C   0  0  0  0  0  0  0  0  0  0  0  0
  136.5330   76.6170  222.7560 C   0  0  0  0  0  0  0  0  0  0  0  0
  138.0380   76.5010  222.7630 C   0  0  2  0  0  0  0  0  0  0  0  0
  138.6680   77.8890  222.7240 C   0  0  0  0  0  0  0  0  0  0  0  0
  140.1150   77.8360  222.7020 N   0  0  0  0  0  0  0  0  0  0  0  0
  140.8640   79.0110  223.0400 C   0  0  0  0  0  0  0  0  0  0  0  0
  142.2530   79.0220  222.9200 C   0  0  0  0  0  0  0  0  0  0  0  0
  142.9790   80.1480  223.2420 C   0  0  0  0  0  0  0  0  0  0  0  0
  142.3290   81.2640  223.6840 C   0  0  0  0  0  0  0  0  0  0  0  0
  140.9480   81.2440  223.8000 C   0  0  0  0  0  0  0  0  0  0  0  0
  140.2550   80.1180  223.4740 N   0  0  0  0  0  0  0  0  0  0  0  0
  139.4930   70.3470  223.7310 C   0  0  0  0  0  0  0  0  0  0  0  0
  139.0780   69.0390  223.7500 C   0  0  0  0  0  0  0  0  0  0  0  0
  139.2770   68.3120  224.9220 C   0  0  0  0  0  0  0  0  0  0  0  0
  139.8780   68.9040  226.0320 C   0  0  0  0  0  0  0  0  0  0  0  0
  140.0780   68.1900  227.1940 C   0  0  0  0  0  0  0  0  0  0  0  0
  140.6780   68.8020  228.2800 C   0  0  0  0  0  0  0  0  0  0  0  0
  140.8960   68.1430  229.4470 F   0  0  0  0  0  0  0  0  0  0  0  0
  141.0770   70.1350  228.1970 C   0  0  0  0  0  0  0  0  0  0  0  0
  140.8820   70.8700  227.0290 C   0  0  0  0  0  0  0  0  0  0  0  0
  140.2800   70.2170  225.9700 C   0  0  0  0  0  0  0  0  0  0  0  0
  140.0700   70.8860  224.8200 N   0  0  0  0  0  0  0  0  0  0  0  0
  139.6760   73.0250  223.5080 H   0  0  0  0  0  0  0  0  0  0  0  0
  139.9303   73.0289  220.6251 H   0  0  0  0  0  0  0  0  0  0  0  0
  138.2128   73.3242  221.1043 H   0  0  0  0  0  0  0  0  0  0  0  0
  138.2878   77.0381  219.9570 H   0  0  0  0  0  0  0  0  0  0  0  0
  138.2031   75.2492  219.6312 H   0  0  0  0  0  0  0  0  0  0  0  0
  136.0105   76.4252  219.4088 H   0  0  0  0  0  0  0  0  0  0  0  0
  136.0210   75.1086  220.6216 H   0  0  0  0  0  0  0  0  0  0  0  0
  136.4290   78.0762  221.2088 H   0  0  0  0  0  0  0  0  0  0  0  0
  134.9132   77.1600  221.4808 H   0  0  0  0  0  0  0  0  0  0  0  0
  136.2294   77.3332  223.5337 H   0  0  0  0  0  0  0  0  0  0  0  0
  136.1165   75.6171  222.9477 H   0  0  0  0  0  0  0  0  0  0  0  0
  138.3072   75.9564  223.6800 H   0  0  0  0  0  0  0  0  0  0  0  0
  138.3194   78.4103  221.8202 H   0  0  0  0  0  0  0  0  0  0  0  0
  138.3649   78.4216  223.6375 H   0  0  0  0  0  0  0  0  0  0  0  0
  140.6380   76.9720  222.4500 H   0  0  0  0  0  0  0  0  0  0  0  0
  142.7752   78.1216  222.5642 H   0  0  0  0  0  0  0  0  0  0  0  0
  144.0746   80.1476  223.1436 H   0  0  0  0  0  0  0  0  0  0  0  0
  142.8955   82.1700  223.9455 H   0  0  0  0  0  0  0  0  0  0  0  0
  140.4123   82.1368  224.1550 H   0  0  0  0  0  0  0  0  0  0  0  0
  138.6043   68.5800  222.8697 H   0  0  0  0  0  0  0  0  0  0  0  0
  138.9568   67.2608  224.9719 H   0  0  0  0  0  0  0  0  0  0  0  0
  139.7620   67.1383  227.2575 H   0  0  0  0  0  0  0  0  0  0  0  0
  141.5526   70.6137  229.0658 H   0  0  0  0  0  0  0  0  0  0  0  0
  141.1932   71.9224  226.9534 H   0  0  0  0  0  0  0  0  0  0  0  0
  1  2  2  0
  2  3  1  0
  3  4  1  0
  4  5  1  0
  5  6  2  0
  5  7  1  0
  7  8  1  0
  8  9  1  0
  9 10  1  0
 10 11  1  0
 11 12  1  0
 12 13  1  0
 13 14  1  0
 14 15  1  0
 15 16  2  0
 16 17  1  0
 17 18  2  0
 18 19  1  0
 19 20  2  0
  2 21  1  0
 21 22  2  0
 22 23  1  0
 23 24  2  0
 24 25  1  0
 25 26  2  0
 26 27  1  0
 26 28  1  0
 28 29  2  0
 29 30  1  0
 30 31  2  0
 12  7  1  0
 20 15  1  0
 31 21  1  0
 30 24  1  0
  3 32  1  0
  4 33  1  0
  4 34  1  0
  8 35  1  0
  8 36  1  0
  9 37  1  0
  9 38  1  0
 10 39  1  0
 10 40  1  0
 11 41  1  0
 11 42  1  0
 12 43  1  1
 13 44  1  0
 13 45  1  0
 14 46  1  0
 16 47  1  0
 17 48  1  0
 18 49  1  0
 19 50  1  0
 22 51  1  0
 23 52  1  0
 25 53  1  0
 28 54  1  0
 29 55  1  0
M  END
>  <smiles>  (19) 
O=C(NCC(=O)N1CCCCC1CNc1ccccn1)c1ccc2cc(F)ccc2n1

>  <score_type>  (19) 
oracle

>  <origin>  (19) 
autodockgpu

>  <m_score__min__energy>  (19) 
-9.0299999999999994

>  <m_primary>  (19) 
energy

>  <rmsd>  (19) 
3.0450219160601275

>  <m_score__min__rmsd>  (19) 
3.0450219160601275

>  <meeko>  (19) 
{"free_energy": -8.11, "intermolecular_energy": -10.2, "internal_energy": -2.24, "cluster_size": 31, "cluster_id": 1, "rank_in_cluster": 19}

>  <energy>  (19) 
-8.11

>  <cluster_rmsd>  (19) 
1.98

>  <cluster>  (19) 
1

$$$$

     RDKit          3D

 55 58  0  0  0  0  0  0  0  0999 V2000
  141.3190   72.1640  221.4440 O   0  0  0  0  0  0  0  0  0  0  0  0
  140.4130   72.4280  222.3050 C   0  0  0  0  0  0  0  0  0  0  0  0
  139.5830   73.5860  222.1660 N   0  0  0  0  0  0  0  0  0  0  0  0
  139.7580   74.4800  221.0430 C   0  0  0  0  0  0  0  0  0  0  0  0
  140.8970   75.4290  221.2840 C   0  0  0  0  0  0  0  0  0  0  0  0
  141.0470   76.0400  222.3580 O   0  0  0  0  0  0  0  0  0  0  0  0
  141.8370   75.6250  220.2320 N   0  0  0  0  0  0  0  0  0  0  0  0
  143.1360   74.9820  220.2810 C   0  0  0  0  0  0  0  0  0  0  0  0
  143.5220   74.3490  218.9640 C   0  0  0  0  0  0  0  0  0  0  0  0
  143.4260   75.3880  217.8880 C   0  0  0  0  0  0  0  0  0  0  0  0
  142.0140   75.8590  217.7970 C   0  0  0  0  0  0  0  0  0  0  0  0
  141.5320   76.4660  219.0920 C   0  0  2  0  0  0  0  0  0  0  0  0
  142.2270   77.8030  219.3310 C   0  0  0  0  0  0  0  0  0  0  0  0
  141.3170   78.8150  219.8250 N   0  0  0  0  0  0  0  0  0  0  0  0
  141.1970   79.0200  221.2400 C   0  0  0  0  0  0  0  0  0  0  0  0
  142.2990   79.4300  221.9890 C   0  0  0  0  0  0  0  0  0  0  0  0
  142.1900   79.6300  223.3480 C   0  0  0  0  0  0  0  0  0  0  0  0
  140.9900   79.4240  223.9650 C   0  0  0  0  0  0  0  0  0  0  0  0
  139.9010   79.0160  223.2110 C   0  0  0  0  0  0  0  0  0  0  0  0
  140.0360   78.8270  221.8700 N   0  0  0  0  0  0  0  0  0  0  0  0
  140.2170   71.5370  223.4500 C   0  0  0  0  0  0  0  0  0  0  0  0
  139.5560   70.3450  223.2830 C   0  0  0  0  0  0  0  0  0  0  0  0
  139.3950   69.5310  224.4020 C   0  0  0  0  0  0  0  0  0  0  0  0
  139.8900   69.9240  225.6450 C   0  0  0  0  0  0  0  0  0  0  0  0
  139.7330   69.1230  226.7550 C   0  0  0  0  0  0  0  0  0  0  0  0
  140.2350   69.5370  227.9760 C   0  0  0  0  0  0  0  0  0  0  0  0
  140.1060   68.7850  229.0990 F   0  0  0  0  0  0  0  0  0  0  0  0
  140.8960   70.7600  228.0800 C   0  0  0  0  0  0  0  0  0  0  0  0
  141.0640   71.5800  226.9660 C   0  0  0  0  0  0  0  0  0  0  0  0
  140.5460   71.1250  225.7670 C   0  0  0  0  0  0  0  0  0  0  0  0
  140.6820   71.8840  224.6630 N   0  0  0  0  0  0  0  0  0  0  0  0
  138.8500   73.7860  222.8750 H   0  0  0  0  0  0  0  0  0  0  0  0
  139.9682   73.8873  220.1405 H   0  0  0  0  0  0  0  0  0  0  0  0
  138.8355   75.0649  220.9131 H   0  0  0  0  0  0  0  0  0  0  0  0
  143.8924   75.7359  220.5445 H   0  0  0  0  0  0  0  0  0  0  0  0
  143.0825   74.1805  221.0325 H   0  0  0  0  0  0  0  0  0  0  0  0
  144.5532   73.9705  219.0228 H   0  0  0  0  0  0  0  0  0  0  0  0
  142.8471   73.5103  218.7380 H   0  0  0  0  0  0  0  0  0  0  0  0
  144.0830   76.2355  218.1332 H   0  0  0  0  0  0  0  0  0  0  0  0
  143.7385   74.9578  216.9251 H   0  0  0  0  0  0  0  0  0  0  0  0
  141.9436   76.6166  217.0026 H   0  0  0  0  0  0  0  0  0  0  0  0
  141.3804   74.9875  217.5756 H   0  0  0  0  0  0  0  0  0  0  0  0
  140.4424   76.5835  218.9977 H   0  0  0  0  0  0  0  0  0  0  0  0
  143.0291   77.6576  220.0696 H   0  0  0  0  0  0  0  0  0  0  0  0
  142.6266   78.1515  218.3672 H   0  0  0  0  0  0  0  0  0  0  0  0
  140.7410   79.4050  219.1890 H   0  0  0  0  0  0  0  0  0  0  0  0
  143.2653   79.5955  221.4901 H   0  0  0  0  0  0  0  0  0  0  0  0
  143.0643   79.9535  223.9318 H   0  0  0  0  0  0  0  0  0  0  0  0
  140.8883   79.5802  225.0491 H   0  0  0  0  0  0  0  0  0  0  0  0
  138.9286   78.8451  223.6959 H   0  0  0  0  0  0  0  0  0  0  0  0
  139.1670   70.0432  222.2993 H   0  0  0  0  0  0  0  0  0  0  0  0
  138.8720   68.5683  224.3040 H   0  0  0  0  0  0  0  0  0  0  0  0
  139.2108   68.1585  226.6708 H   0  0  0  0  0  0  0  0  0  0  0  0
  141.2904   71.0822  229.0550 H   0  0  0  0  0  0  0  0  0  0  0  0
  141.5853   72.5460  227.0370 H   0  0  0  0  0  0  0  0  0  0  0  0
  1  2  2  0
  2  3  1  0
  3  4  1  0
  4  5  1  0
  5  6  2  0
  5  7  1  0
  7  8  1  0
  8  9  1  0
  9 10  1  0
 10 11  1  0
 11 12  1  0
 12 13  1  0
 13 14  1  0
 14 15  1  0
 15 16  2  0
 16 17  1  0
 17 18  2  0
 18 19  1  0
 19 20  2  0
  2 21  1  0
 21 22  2  0
 22 23  1  0
 23 24  2  0
 24 25  1  0
 25 26  2  0
 26 27  1  0
 26 28  1  0
 28 29  2  0
 29 30  1  0
 30 31  2  0
 12  7  1  0
 20 15  1  0
 31 21  1  0
 30 24  1  0
  3 32  1  0
  4 33  1  0
  4 34  1  0
  8 35  1  0
  8 36  1  0
  9 37  1  0
  9 38  1  0
 10 39  1  0
 10 40  1  0
 11 41  1  0
 11 42  1  0
 12 43  1  6
 13 44  1  0
 13 45  1  0
 14 46  1  0
 16 47  1  0
 17 48  1  0
 18 49  1  0
 19 50  1  0
 22 51  1  0
 23 52  1  0
 25 53  1  0
 28 54  1  0
 29 55  1  0
M  END
>  <smiles>  (20) 
O=C(NCC(=O)N1CCCCC1CNc1ccccn1)c1ccc2cc(F)ccc2n1

>  <score_type>  (20) 
oracle

>  <origin>  (20) 
autodockgpu

>  <m_score__min__energy>  (20) 
-9.0299999999999994

>  <m_primary>  (20) 
energy

>  <rmsd>  (20) 
2.672942770857527

>  <m_score__min__rmsd>  (20) 
2.672942770857527

>  <meeko>  (20) 
{"free_energy": -8.18, "intermolecular_energy": -10.26, "internal_energy": -1.83, "cluster_size": 31, "cluster_id": 1, "rank_in_cluster": 16}

>  <energy>  (20) 
-8.09

>  <cluster_rmsd>  (20) 
1.43

>  <cluster>  (20) 
1

$$$$

     RDKit          3D

 55 58  0  0  0  0  0  0  0  0999 V2000
  140.4520   71.2810  220.9660 O   0  0  0  0  0  0  0  0  0  0  0  0
  139.8340   71.7550  221.9780 C   0  0  0  0  0  0  0  0  0  0  0  0
  139.1840   73.0290  221.9120 N   0  0  0  0  0  0  0  0  0  0  0  0
  139.2180   73.8030  220.6910 C   0  0  0  0  0  0  0  0  0  0  0  0
  139.7640   75.1800  220.9430 C   0  0  0  0  0  0  0  0  0  0  0  0
  139.1280   76.0530  221.5600 O   0  0  0  0  0  0  0  0  0  0  0  0
  141.0650   75.4830  220.4500 N   0  0  0  0  0  0  0  0  0  0  0  0
  142.2310   74.8200  221.0030 C   0  0  0  0  0  0  0  0  0  0  0  0
  143.1870   74.3370  219.9360 C   0  0  0  0  0  0  0  0  0  0  0  0
  143.5400   75.4940  219.0510 C   0  0  0  0  0  0  0  0  0  0  0  0
  142.2990   75.9920  218.3920 C   0  0  0  0  0  0  0  0  0  0  0  0
  141.2670   76.4540  219.3930 C   0  0  2  0  0  0  0  0  0  0  0  0
  141.7310   77.7440  220.0620 C   0  0  0  0  0  0  0  0  0  0  0  0
  141.1080   77.9470  221.3530 N   0  0  0  0  0  0  0  0  0  0  0  0
  141.4670   79.0980  222.1300 C   0  0  0  0  0  0  0  0  0  0  0  0
  141.9120   78.9530  223.4430 C   0  0  0  0  0  0  0  0  0  0  0  0
  142.2590   80.0540  224.1950 C   0  0  0  0  0  0  0  0  0  0  0  0
  142.1650   81.3010  223.6460 C   0  0  0  0  0  0  0  0  0  0  0  0
  141.7210   81.4350  222.3390 C   0  0  0  0  0  0  0  0  0  0  0  0
  141.3850   80.3300  221.6190 N   0  0  0  0  0  0  0  0  0  0  0  0
  139.7860   70.9880  223.2240 C   0  0  0  0  0  0  0  0  0  0  0  0
  139.1060   69.7960  223.2680 C   0  0  0  0  0  0  0  0  0  0  0  0
  139.0890   69.1030  224.4760 C   0  0  0  0  0  0  0  0  0  0  0  0
  139.7430   69.6120  225.5980 C   0  0  0  0  0  0  0  0  0  0  0  0
  139.7300   68.9310  226.7960 C   0  0  0  0  0  0  0  0  0  0  0  0
  140.3880   69.4590  227.8920 C   0  0  0  0  0  0  0  0  0  0  0  0
  140.4030   68.8280  229.0940 F   0  0  0  0  0  0  0  0  0  0  0  0
  141.0600   70.6760  227.7830 C   0  0  0  0  0  0  0  0  0  0  0  0
  141.0830   71.3760  226.5780 C   0  0  0  0  0  0  0  0  0  0  0  0
  140.4130   70.8100  225.5100 C   0  0  0  0  0  0  0  0  0  0  0  0
  140.4060   71.4500  224.3250 N   0  0  0  0  0  0  0  0  0  0  0  0
  138.6860   73.4000  222.7440 H   0  0  0  0  0  0  0  0  0  0  0  0
  139.8581   73.2906  219.9577 H   0  0  0  0  0  0  0  0  0  0  0  0
  138.1917   73.8972  220.3064 H   0  0  0  0  0  0  0  0  0  0  0  0
  142.7615   75.5278  221.6569 H   0  0  0  0  0  0  0  0  0  0  0  0
  141.8799   73.9382  221.5591 H   0  0  0  0  0  0  0  0  0  0  0  0
  144.0980   73.9394  220.4071 H   0  0  0  0  0  0  0  0  0  0  0  0
  142.7159   73.5398  219.3423 H   0  0  0  0  0  0  0  0  0  0  0  0
  143.9862   76.2982  219.6545 H   0  0  0  0  0  0  0  0  0  0  0  0
  144.2648   75.1732  218.2883 H   0  0  0  0  0  0  0  0  0  0  0  0
  142.5601   76.8364  217.7372 H   0  0  0  0  0  0  0  0  0  0  0  0
  141.8642   75.1600  217.8186 H   0  0  0  0  0  0  0  0  0  0  0  0
  140.3299   76.5978  218.8352 H   0  0  0  0  0  0  0  0  0  0  0  0
  142.8216   77.6996  220.1983 H   0  0  0  0  0  0  0  0  0  0  0  0
  141.4418   78.5834  219.4125 H   0  0  0  0  0  0  0  0  0  0  0  0
  140.4040   77.2870  221.7440 H   0  0  0  0  0  0  0  0  0  0  0  0
  141.9870   77.9480  223.8838 H   0  0  0  0  0  0  0  0  0  0  0  0
  142.6093   79.9296  225.2303 H   0  0  0  0  0  0  0  0  0  0  0  0
  142.4385   82.1894  224.2341 H   0  0  0  0  0  0  0  0  0  0  0  0
  141.6405   82.4335  221.8846 H   0  0  0  0  0  0  0  0  0  0  0  0
  138.5919   69.4016  222.3791 H   0  0  0  0  0  0  0  0  0  0  0  0
  138.5543   68.1443  224.5460 H   0  0  0  0  0  0  0  0  0  0  0  0
  139.1986   67.9716  226.8802 H   0  0  0  0  0  0  0  0  0  0  0  0
  141.5792   71.0893  228.6603 H   0  0  0  0  0  0  0  0  0  0  0  0
  141.6109   72.3362  226.4814 H   0  0  0  0  0  0  0  0  0  0  0  0
  1  2  2  0
  2  3  1  0
  3  4  1  0
  4  5  1  0
  5  6  2  0
  5  7  1  0
  7  8  1  0
  8  9  1  0
  9 10  1  0
 10 11  1  0
 11 12  1  0
 12 13  1  0
 13 14  1  0
 14 15  1  0
 15 16  2  0
 16 17  1  0
 17 18  2  0
 18 19  1  0
 19 20  2  0
  2 21  1  0
 21 22  2  0
 22 23  1  0
 23 24  2  0
 24 25  1  0
 25 26  2  0
 26 27  1  0
 26 28  1  0
 28 29  2  0
 29 30  1  0
 30 31  2  0
 12  7  1  0
 20 15  1  0
 31 21  1  0
 30 24  1  0
  3 32  1  0
  4 33  1  0
  4 34  1  0
  8 35  1  0
  8 36  1  0
  9 37  1  0
  9 38  1  0
 10 39  1  0
 10 40  1  0
 11 41  1  0
 11 42  1  0
 12 43  1  6
 13 44  1  0
 13 45  1  0
 14 46  1  0
 16 47  1  0
 17 48  1  0
 18 49  1  0
 19 50  1  0
 22 51  1  0
 23 52  1  0
 25 53  1  0
 28 54  1  0
 29 55  1  0
M  END
>  <smiles>  (21) 
O=C(NCC(=O)N1CCCCC1CNc1ccccn1)c1ccc2cc(F)ccc2n1

>  <score_type>  (21) 
oracle

>  <origin>  (21) 
autodockgpu

>  <m_score__min__energy>  (21) 
-9.0299999999999994

>  <m_primary>  (21) 
energy

>  <rmsd>  (21) 
2.4550093376856785

>  <m_score__min__rmsd>  (21) 
2.4550093376856785

>  <meeko>  (21) 
{"free_energy": -7.92, "intermolecular_energy": -10.01, "internal_energy": -2.2, "cluster_size": 31, "cluster_id": 1, "rank_in_cluster": 25}

>  <energy>  (21) 
-8.02

>  <cluster_rmsd>  (21) 
1.62

>  <cluster>  (21) 
1

$$$$

     RDKit          3D

 55 58  0  0  0  0  0  0  0  0999 V2000
  139.5710   71.1880  221.0330 O   0  0  0  0  0  0  0  0  0  0  0  0
  139.5960   71.7370  222.1860 C   0  0  0  0  0  0  0  0  0  0  0  0
  139.5350   73.1610  222.3230 N   0  0  0  0  0  0  0  0  0  0  0  0
  139.4440   74.0040  221.1530 C   0  0  0  0  0  0  0  0  0  0  0  0
  140.1520   75.3100  221.3740 C   0  0  0  0  0  0  0  0  0  0  0  0
  139.7860   76.1360  222.2290 O   0  0  0  0  0  0  0  0  0  0  0  0
  141.2880   75.5990  220.5660 N   0  0  0  0  0  0  0  0  0  0  0  0
  142.5450   74.9110  220.7940 C   0  0  0  0  0  0  0  0  0  0  0  0
  143.1850   74.4280  219.5140 C   0  0  0  0  0  0  0  0  0  0  0  0
  143.3200   75.5910  218.5780 C   0  0  0  0  0  0  0  0  0  0  0  0
  141.9600   76.1170  218.2640 C   0  0  0  0  0  0  0  0  0  0  0  0
  141.2290   76.5810  219.5010 C   0  0  2  0  0  0  0  0  0  0  0  0
  141.8730   77.8540  220.0400 C   0  0  0  0  0  0  0  0  0  0  0  0
  141.8430   77.9160  221.4860 N   0  0  0  0  0  0  0  0  0  0  0  0
  141.9270   79.1920  222.1350 C   0  0  0  0  0  0  0  0  0  0  0  0
  142.4730   79.3000  223.4130 C   0  0  0  0  0  0  0  0  0  0  0  0
  142.5580   80.5230  224.0420 C   0  0  0  0  0  0  0  0  0  0  0  0
  142.1020   81.6400  223.4040 C   0  0  0  0  0  0  0  0  0  0  0  0
  141.5600   81.5230  222.1330 C   0  0  0  0  0  0  0  0  0  0  0  0
  141.4890   80.3030  221.5360 N   0  0  0  0  0  0  0  0  0  0  0  0
  139.6870   70.9030  223.3860 C   0  0  0  0  0  0  0  0  0  0  0  0
  139.2340   69.6070  223.3530 C   0  0  0  0  0  0  0  0  0  0  0  0
  139.3430   68.8530  224.5200 C   0  0  0  0  0  0  0  0  0  0  0  0
  139.8940   69.4060  225.6760 C   0  0  0  0  0  0  0  0  0  0  0  0
  140.0040   68.6650  226.8330 C   0  0  0  0  0  0  0  0  0  0  0  0
  140.5550   69.2390  227.9640 C   0  0  0  0  0  0  0  0  0  0  0  0
  140.6850   68.5510  229.1280 F   0  0  0  0  0  0  0  0  0  0  0  0
  140.9970   70.5600  227.9320 C   0  0  0  0  0  0  0  0  0  0  0  0
  140.8930   71.3220  226.7690 C   0  0  0  0  0  0  0  0  0  0  0  0
  140.3360   70.7070  225.6640 C   0  0  0  0  0  0  0  0  0  0  0  0
  140.2140   71.4040  224.5180 N   0  0  0  0  0  0  0  0  0  0  0  0
  139.5560   73.5910  223.2680 H   0  0  0  0  0  0  0  0  0  0  0  0
  139.9044   73.4852  220.2992 H   0  0  0  0  0  0  0  0  0  0  0  0
  138.3825   74.2106  220.9517 H   0  0  0  0  0  0  0  0  0  0  0  0
  143.2386   75.6020  221.2954 H   0  0  0  0  0  0  0  0  0  0  0  0
  142.3327   74.0273  221.4137 H   0  0  0  0  0  0  0  0  0  0  0  0
  144.1790   74.0101  219.7315 H   0  0  0  0  0  0  0  0  0  0  0  0
  142.5624   73.6462  219.0544 H   0  0  0  0  0  0  0  0  0  0  0  0
  143.9207   76.3803  219.0536 H   0  0  0  0  0  0  0  0  0  0  0  0
  143.8187   75.2690  217.6519 H   0  0  0  0  0  0  0  0  0  0  0  0
  142.0596   76.9661  217.5718 H   0  0  0  0  0  0  0  0  0  0  0  0
  141.3773   75.2999  217.8136 H   0  0  0  0  0  0  0  0  0  0  0  0
  140.1828   76.7466  219.2042 H   0  0  0  0  0  0  0  0  0  0  0  0
  142.9206   77.8890  219.7062 H   0  0  0  0  0  0  0  0  0  0  0  0
  141.2994   78.7100  219.6548 H   0  0  0  0  0  0  0  0  0  0  0  0
  141.7610   77.0640  222.0790 H   0  0  0  0  0  0  0  0  0  0  0  0
  142.8403   78.3985  223.9253 H   0  0  0  0  0  0  0  0  0  0  0  0
  142.9901   80.5985  225.0508 H   0  0  0  0  0  0  0  0  0  0  0  0
  142.1638   82.6233  223.8932 H   0  0  0  0  0  0  0  0  0  0  0  0
  141.1881   82.4155  221.6084 H   0  0  0  0  0  0  0  0  0  0  0  0
  138.8002   69.1789  222.4373 H   0  0  0  0  0  0  0  0  0  0  0  0
  138.9909   67.8109  224.5296 H   0  0  0  0  0  0  0  0  0  0  0  0
  139.6552   67.6220  226.8566 H   0  0  0  0  0  0  0  0  0  0  0  0
  141.4340   71.0079  228.8367 H   0  0  0  0  0  0  0  0  0  0  0  0
  141.2388   72.3656  226.7327 H   0  0  0  0  0  0  0  0  0  0  0  0
  1  2  2  0
  2  3  1  0
  3  4  1  0
  4  5  1  0
  5  6  2  0
  5  7  1  0
  7  8  1  0
  8  9  1  0
  9 10  1  0
 10 11  1  0
 11 12  1  0
 12 13  1  0
 13 14  1  0
 14 15  1  0
 15 16  2  0
 16 17  1  0
 17 18  2  0
 18 19  1  0
 19 20  2  0
  2 21  1  0
 21 22  2  0
 22 23  1  0
 23 24  2  0
 24 25  1  0
 25 26  2  0
 26 27  1  0
 26 28  1  0
 28 29  2  0
 29 30  1  0
 30 31  2  0
 12  7  1  0
 20 15  1  0
 31 21  1  0
 30 24  1  0
  3 32  1  0
  4 33  1  0
  4 34  1  0
  8 35  1  0
  8 36  1  0
  9 37  1  0
  9 38  1  0
 10 39  1  0
 10 40  1  0
 11 41  1  0
 11 42  1  0
 12 43  1  6
 13 44  1  0
 13 45  1  0
 14 46  1  0
 16 47  1  0
 17 48  1  0
 18 49  1  0
 19 50  1  0
 22 51  1  0
 23 52  1  0
 25 53  1  0
 28 54  1  0
 29 55  1  0
M  END
>  <smiles>  (22) 
O=C(NCC(=O)N1CCCCC1CNc1ccccn1)c1ccc2cc(F)ccc2n1

>  <score_type>  (22) 
oracle

>  <origin>  (22) 
autodockgpu

>  <m_score__min__energy>  (22) 
-9.0299999999999994

>  <m_primary>  (22) 
energy

>  <rmsd>  (22) 
2.351157810274425

>  <m_score__min__rmsd>  (22) 
2.351157810274425

>  <meeko>  (22) 
{"free_energy": -8.61, "intermolecular_energy": -10.7, "internal_energy": -2.29, "cluster_size": 31, "cluster_id": 1, "rank_in_cluster": 9}

>  <energy>  (22) 
-8.02

>  <cluster_rmsd>  (22) 
0.96

>  <cluster>  (22) 
1

$$$$

     RDKit          3D

 55 58  0  0  0  0  0  0  0  0999 V2000
  137.7630   70.4760  222.0540 O   0  0  0  0  0  0  0  0  0  0  0  0
  138.5770   70.9750  222.9020 C   0  0  0  0  0  0  0  0  0  0  0  0
  139.0530   72.3180  222.7610 N   0  0  0  0  0  0  0  0  0  0  0  0
  138.6170   73.1340  221.6500 C   0  0  0  0  0  0  0  0  0  0  0  0
  139.5700   74.2710  221.4130 C   0  0  0  0  0  0  0  0  0  0  0  0
  140.6550   74.3750  222.0130 O   0  0  0  0  0  0  0  0  0  0  0  0
  139.2020   75.2630  220.4590 N   0  0  0  0  0  0  0  0  0  0  0  0
  139.1860   74.9480  219.0430 C   0  0  0  0  0  0  0  0  0  0  0  0
  137.9440   75.4550  218.3480 C   0  0  0  0  0  0  0  0  0  0  0  0
  137.8100   76.9230  218.6200 C   0  0  0  0  0  0  0  0  0  0  0  0
  137.6540   77.1300  220.0880 C   0  0  0  0  0  0  0  0  0  0  0  0
  138.8380   76.6060  220.8660 C   0  0  2  0  0  0  0  0  0  0  0  0
  140.0570   77.4880  220.6160 C   0  0  0  0  0  0  0  0  0  0  0  0
  141.0550   77.3530  221.6570 N   0  0  0  0  0  0  0  0  0  0  0  0
  141.5740   78.5330  222.2860 C   0  0  0  0  0  0  0  0  0  0  0  0
  141.9030   79.6530  221.5240 C   0  0  0  0  0  0  0  0  0  0  0  0
  142.4020   80.7890  222.1230 C   0  0  0  0  0  0  0  0  0  0  0  0
  142.5750   80.8160  223.4770 C   0  0  0  0  0  0  0  0  0  0  0  0
  142.2460   79.6970  224.2260 C   0  0  0  0  0  0  0  0  0  0  0  0
  141.7540   78.5880  223.6090 N   0  0  0  0  0  0  0  0  0  0  0  0
  139.0310   70.1670  224.0350 C   0  0  0  0  0  0  0  0  0  0  0  0
  138.8240   68.8100  224.0340 C   0  0  0  0  0  0  0  0  0  0  0  0
  139.2740   68.0840  225.1350 C   0  0  0  0  0  0  0  0  0  0  0  0
  139.9120   68.7250  226.1970 C   0  0  0  0  0  0  0  0  0  0  0  0
  140.3600   68.0120  227.2880 C   0  0  0  0  0  0  0  0  0  0  0  0
  140.9910   68.6730  228.3270 C   0  0  0  0  0  0  0  0  0  0  0  0
  141.4480   68.0170  229.4230 F   0  0  0  0  0  0  0  0  0  0  0  0
  141.1700   70.0540  228.2680 C   0  0  0  0  0  0  0  0  0  0  0  0
  140.7240   70.7880  227.1700 C   0  0  0  0  0  0  0  0  0  0  0  0
  140.1000   70.0860  226.1560 C   0  0  0  0  0  0  0  0  0  0  0  0
  139.6510   70.7520  225.0760 N   0  0  0  0  0  0  0  0  0  0  0  0
  139.7150   72.7090  223.4600 H   0  0  0  0  0  0  0  0  0  0  0  0
  138.5664   72.5118  220.7443 H   0  0  0  0  0  0  0  0  0  0  0  0
  137.6264   73.5495  221.8867 H   0  0  0  0  0  0  0  0  0  0  0  0
  140.0665   75.4074  218.5701 H   0  0  0  0  0  0  0  0  0  0  0  0
  139.1980   73.8524  218.9457 H   0  0  0  0  0  0  0  0  0  0  0  0
  138.0300   75.2851  217.2646 H   0  0  0  0  0  0  0  0  0  0  0  0
  137.0586   74.9207  218.7230 H   0  0  0  0  0  0  0  0  0  0  0  0
  138.7100   77.4476  218.2667 H   0  0  0  0  0  0  0  0  0  0  0  0
  136.9309   77.3210  218.0921 H   0  0  0  0  0  0  0  0  0  0  0  0
  137.5491   78.2071  220.2849 H   0  0  0  0  0  0  0  0  0  0  0  0
  136.7622   76.5751  220.4149 H   0  0  0  0  0  0  0  0  0  0  0  0
  138.5437   76.6073  221.9259 H   0  0  0  0  0  0  0  0  0  0  0  0
  140.5083   77.2035  219.6540 H   0  0  0  0  0  0  0  0  0  0  0  0
  139.7192   78.5348  220.6069 H   0  0  0  0  0  0  0  0  0  0  0  0
  141.4130   76.4270  221.9700 H   0  0  0  0  0  0  0  0  0  0  0  0
  141.7628   79.6296  220.4332 H   0  0  0  0  0  0  0  0  0  0  0  0
  142.6593   81.6684  221.5143 H   0  0  0  0  0  0  0  0  0  0  0  0
  142.9715   81.7167  223.9686 H   0  0  0  0  0  0  0  0  0  0  0  0
  142.3823   79.7052  225.3175 H   0  0  0  0  0  0  0  0  0  0  0  0
  138.3199   68.3124  223.1924 H   0  0  0  0  0  0  0  0  0  0  0  0
  139.1246   66.9947  225.1670 H   0  0  0  0  0  0  0  0  0  0  0  0
  140.2166   66.9223  227.3326 H   0  0  0  0  0  0  0  0  0  0  0  0
  141.6702   70.5720  229.0996 H   0  0  0  0  0  0  0  0  0  0  0  0
  140.8626   71.8778  227.1131 H   0  0  0  0  0  0  0  0  0  0  0  0
  1  2  2  0
  2  3  1  0
  3  4  1  0
  4  5  1  0
  5  6  2  0
  5  7  1  0
  7  8  1  0
  8  9  1  0
  9 10  1  0
 10 11  1  0
 11 12  1  0
 12 13  1  0
 13 14  1  0
 14 15  1  0
 15 16  2  0
 16 17  1  0
 17 18  2  0
 18 19  1  0
 19 20  2  0
  2 21  1  0
 21 22  2  0
 22 23  1  0
 23 24  2  0
 24 25  1  0
 25 26  2  0
 26 27  1  0
 26 28  1  0
 28 29  2  0
 29 30  1  0
 30 31  2  0
 12  7  1  0
 20 15  1  0
 31 21  1  0
 30 24  1  0
  3 32  1  0
  4 33  1  0
  4 34  1  0
  8 35  1  0
  8 36  1  0
  9 37  1  0
  9 38  1  0
 10 39  1  0
 10 40  1  0
 11 41  1  0
 11 42  1  0
 12 43  1  1
 13 44  1  0
 13 45  1  0
 14 46  1  0
 16 47  1  0
 17 48  1  0
 18 49  1  0
 19 50  1  0
 22 51  1  0
 23 52  1  0
 25 53  1  0
 28 54  1  0
 29 55  1  0
M  END
>  <smiles>  (23) 
O=C(NCC(=O)N1CCCCC1CNc1ccccn1)c1ccc2cc(F)ccc2n1

>  <score_type>  (23) 
oracle

>  <origin>  (23) 
autodockgpu

>  <m_score__min__energy>  (23) 
-9.0299999999999994

>  <m_primary>  (23) 
energy

>  <rmsd>  (23) 
2.232308154070892

>  <m_score__min__rmsd>  (23) 
2.232308154070892

>  <meeko>  (23) 
{"free_energy": -7.61, "intermolecular_energy": -9.7, "internal_energy": -2.43, "cluster_size": 31, "cluster_id": 1, "rank_in_cluster": 31}

>  <energy>  (23) 
-8.0

>  <cluster_rmsd>  (23) 
1.06

>  <cluster>  (23) 
1

$$$$

     RDKit          3D

 55 58  0  0  0  0  0  0  0  0999 V2000
  140.0100   71.4940  220.9240 O   0  0  0  0  0  0  0  0  0  0  0  0
  139.8720   72.0440  222.0690 C   0  0  0  0  0  0  0  0  0  0  0  0
  139.7460   73.4650  222.1910 N   0  0  0  0  0  0  0  0  0  0  0  0
  139.7730   74.3040  221.0140 C   0  0  0  0  0  0  0  0  0  0  0  0
  140.5770   75.5480  221.2600 C   0  0  0  0  0  0  0  0  0  0  0  0
  141.1560   75.7720  222.3390 O   0  0  0  0  0  0  0  0  0  0  0  0
  140.6730   76.5020  220.2060 N   0  0  0  0  0  0  0  0  0  0  0  0
  139.4820   76.9310  219.4960 C   0  0  0  0  0  0  0  0  0  0  0  0
  139.4270   78.4290  219.3060 C   0  0  0  0  0  0  0  0  0  0  0  0
  140.6950   78.8740  218.6410 C   0  0  0  0  0  0  0  0  0  0  0  0
  141.8460   78.5470  219.5300 C   0  0  0  0  0  0  0  0  0  0  0  0
  141.9470   77.0670  219.8100 C   0  0  2  0  0  0  0  0  0  0  0  0
  142.3850   76.3270  218.5510 C   0  0  0  0  0  0  0  0  0  0  0  0
  143.6810   75.6990  218.7050 N   0  0  0  0  0  0  0  0  0  0  0  0
  143.7850   74.4820  219.4560 C   0  0  0  0  0  0  0  0  0  0  0  0
  144.9580   74.1750  220.1440 C   0  0  0  0  0  0  0  0  0  0  0  0
  145.0640   73.0080  220.8680 C   0  0  0  0  0  0  0  0  0  0  0  0
  144.0070   72.1440  220.9130 C   0  0  0  0  0  0  0  0  0  0  0  0
  142.8450   72.4590  220.2260 C   0  0  0  0  0  0  0  0  0  0  0  0
  142.7670   73.6190  219.5190 N   0  0  0  0  0  0  0  0  0  0  0  0
  139.8410   71.2140  223.2740 C   0  0  0  0  0  0  0  0  0  0  0  0
  139.3060   69.9510  223.2200 C   0  0  0  0  0  0  0  0  0  0  0  0
  139.2990   69.1990  224.3930 C   0  0  0  0  0  0  0  0  0  0  0  0
  139.8200   69.7220  225.5770 C   0  0  0  0  0  0  0  0  0  0  0  0
  139.8160   68.9830  226.7400 C   0  0  0  0  0  0  0  0  0  0  0  0
  140.3390   69.5270  227.8990 C   0  0  0  0  0  0  0  0  0  0  0  0
  140.3580   68.8400  229.0710 F   0  0  0  0  0  0  0  0  0  0  0  0
  140.8670   70.8170  227.8880 C   0  0  0  0  0  0  0  0  0  0  0  0
  140.8790   71.5760  226.7190 C   0  0  0  0  0  0  0  0  0  0  0  0
  140.3460   70.9920  225.5860 C   0  0  0  0  0  0  0  0  0  0  0  0
  140.3350   71.6870  224.4330 N   0  0  0  0  0  0  0  0  0  0  0  0
  139.6330   73.8960  223.1290 H   0  0  0  0  0  0  0  0  0  0  0  0
  140.2236   73.7428  220.1821 H   0  0  0  0  0  0  0  0  0  0  0  0
  138.7415   74.5958  220.7671 H   0  0  0  0  0  0  0  0  0  0  0  0
  139.4688   76.4497  218.5070 H   0  0  0  0  0  0  0  0  0  0  0  0
  138.6105   76.6395  220.1006 H   0  0  0  0  0  0  0  0  0  0  0  0
  138.5656   78.6910  218.6741 H   0  0  0  0  0  0  0  0  0  0  0  0
  139.3189   78.9276  220.2805 H   0  0  0  0  0  0  0  0  0  0  0  0
  140.8108   78.3520  217.6797 H   0  0  0  0  0  0  0  0  0  0  0  0
  140.6603   79.9583  218.4593 H   0  0  0  0  0  0  0  0  0  0  0  0
  142.7749   78.8799  219.0439 H   0  0  0  0  0  0  0  0  0  0  0  0
  141.6894   79.0625  220.4890 H   0  0  0  0  0  0  0  0  0  0  0  0
  142.6756   76.9509  220.6259 H   0  0  0  0  0  0  0  0  0  0  0  0
  141.6409   75.5505  218.3202 H   0  0  0  0  0  0  0  0  0  0  0  0
  142.4626   77.0636  217.7377 H   0  0  0  0  0  0  0  0  0  0  0  0
  144.5480   76.0980  218.2880 H   0  0  0  0  0  0  0  0  0  0  0  0
  145.8080   74.8722  220.1083 H   0  0  0  0  0  0  0  0  0  0  0  0
  145.9940   72.7733  221.4065 H   0  0  0  0  0  0  0  0  0  0  0  0
  144.0771   71.2088  221.4879 H   0  0  0  0  0  0  0  0  0  0  0  0
  141.9865   71.7717  220.2523 H   0  0  0  0  0  0  0  0  0  0  0  0
  138.8967   69.5463  222.2826 H   0  0  0  0  0  0  0  0  0  0  0  0
  138.8784   68.1826  224.3855 H   0  0  0  0  0  0  0  0  0  0  0  0
  139.3988   67.9652  226.7466 H   0  0  0  0  0  0  0  0  0  0  0  0
  141.2800   71.2419  228.8148 H   0  0  0  0  0  0  0  0  0  0  0  0
  141.2943   72.5944  226.6994 H   0  0  0  0  0  0  0  0  0  0  0  0
  1  2  2  0
  2  3  1  0
  3  4  1  0
  4  5  1  0
  5  6  2  0
  5  7  1  0
  7  8  1  0
  8  9  1  0
  9 10  1  0
 10 11  1  0
 11 12  1  0
 12 13  1  0
 13 14  1  0
 14 15  1  0
 15 16  2  0
 16 17  1  0
 17 18  2  0
 18 19  1  0
 19 20  2  0
  2 21  1  0
 21 22  2  0
 22 23  1  0
 23 24  2  0
 24 25  1  0
 25 26  2  0
 26 27  1  0
 26 28  1  0
 28 29  2  0
 29 30  1  0
 30 31  2  0
 12  7  1  0
 20 15  1  0
 31 21  1  0
 30 24  1  0
  3 32  1  0
  4 33  1  0
  4 34  1  0
  8 35  1  0
  8 36  1  0
  9 37  1  0
  9 38  1  0
 10 39  1  0
 10 40  1  0
 11 41  1  0
 11 42  1  0
 12 43  1  1
 13 44  1  0
 13 45  1  0
 14 46  1  0
 16 47  1  0
 17 48  1  0
 18 49  1  0
 19 50  1  0
 22 51  1  0
 23 52  1  0
 25 53  1  0
 28 54  1  0
 29 55  1  0
M  END
>  <smiles>  (24) 
O=C(NCC(=O)N1CCCCC1CNc1ccccn1)c1ccc2cc(F)ccc2n1

>  <score_type>  (24) 
oracle

>  <origin>  (24) 
autodockgpu

>  <m_score__min__energy>  (24) 
-9.0299999999999994

>  <m_primary>  (24) 
energy

>  <rmsd>  (24) 
4.187167238216998

>  <m_score__min__rmsd>  (24) 
4.187167238216998

>  <meeko>  (24) 
{"free_energy": -7.57, "intermolecular_energy": -9.66, "internal_energy": -2.28, "cluster_size": 5, "cluster_id": 3, "rank_in_cluster": 3}

>  <energy>  (24) 
-7.97

>  <cluster_rmsd>  (24) 
1.33

>  <cluster>  (24) 
1

$$$$

     RDKit          3D

 55 58  0  0  0  0  0  0  0  0999 V2000
  141.3020   72.1070  221.3520 O   0  0  0  0  0  0  0  0  0  0  0  0
  140.3930   72.3740  222.2090 C   0  0  0  0  0  0  0  0  0  0  0  0
  139.5500   73.5210  222.0520 N   0  0  0  0  0  0  0  0  0  0  0  0
  139.7150   74.3980  220.9150 C   0  0  0  0  0  0  0  0  0  0  0  0
  140.7060   75.4870  221.2160 C   0  0  0  0  0  0  0  0  0  0  0  0
  140.7730   76.0470  222.3250 O   0  0  0  0  0  0  0  0  0  0  0  0
  141.5990   75.8820  220.1800 N   0  0  0  0  0  0  0  0  0  0  0  0
  142.9110   75.2720  220.0710 C   0  0  0  0  0  0  0  0  0  0  0  0
  143.2560   74.8810  218.6520 C   0  0  0  0  0  0  0  0  0  0  0  0
  143.0980   76.0840  217.7730 C   0  0  0  0  0  0  0  0  0  0  0  0
  141.6750   76.5290  217.8150 C   0  0  0  0  0  0  0  0  0  0  0  0
  141.2340   76.8960  219.2110 C   0  0  2  0  0  0  0  0  0  0  0  0
  141.9140   78.1890  219.6490 C   0  0  0  0  0  0  0  0  0  0  0  0
  142.1130   78.2470  221.0820 N   0  0  0  0  0  0  0  0  0  0  0  0
  142.0160   79.5120  221.7530 C   0  0  0  0  0  0  0  0  0  0  0  0
  142.4480   79.6460  223.0710 C   0  0  0  0  0  0  0  0  0  0  0  0
  142.3590   80.8580  223.7210 C   0  0  0  0  0  0  0  0  0  0  0  0
  141.8420   81.9380  223.0640 C   0  0  0  0  0  0  0  0  0  0  0  0
  141.4150   81.7930  221.7530 C   0  0  0  0  0  0  0  0  0  0  0  0
  141.5160   80.5850  221.1350 N   0  0  0  0  0  0  0  0  0  0  0  0
  140.2070   71.4990  223.3670 C   0  0  0  0  0  0  0  0  0  0  0  0
  139.5610   70.2970  223.2190 C   0  0  0  0  0  0  0  0  0  0  0  0
  139.4080   69.4990  224.3510 C   0  0  0  0  0  0  0  0  0  0  0  0
  139.8990   69.9170  225.5880 C   0  0  0  0  0  0  0  0  0  0  0  0
  139.7520   69.1320  226.7110 C   0  0  0  0  0  0  0  0  0  0  0  0
  140.2490   69.5700  227.9250 C   0  0  0  0  0  0  0  0  0  0  0  0
  140.1280   68.8350  229.0590 F   0  0  0  0  0  0  0  0  0  0  0  0
  140.8960   70.8020  228.0090 C   0  0  0  0  0  0  0  0  0  0  0  0
  141.0540   71.6070  226.8820 C   0  0  0  0  0  0  0  0  0  0  0  0
  140.5410   71.1280  225.6910 C   0  0  0  0  0  0  0  0  0  0  0  0
  140.6690   71.8710  224.5750 N   0  0  0  0  0  0  0  0  0  0  0  0
  138.8160   73.7230  222.7580 H   0  0  0  0  0  0  0  0  0  0  0  0
  140.0746   73.8112  220.0569 H   0  0  0  0  0  0  0  0  0  0  0  0
  138.7440   74.8607  220.6847 H   0  0  0  0  0  0  0  0  0  0  0  0
  143.6635   75.9888  220.4315 H   0  0  0  0  0  0  0  0  0  0  0  0
  142.9019   74.3534  220.6761 H   0  0  0  0  0  0  0  0  0  0  0  0
  144.2955   74.5240  218.6083 H   0  0  0  0  0  0  0  0  0  0  0  0
  142.5883   74.0761  218.3110 H   0  0  0  0  0  0  0  0  0  0  0  0
  143.7490   76.8936  218.1345 H   0  0  0  0  0  0  0  0  0  0  0  0
  143.3791   75.8306  216.7401 H   0  0  0  0  0  0  0  0  0  0  0  0
  141.5593   77.4082  217.1642 H   0  0  0  0  0  0  0  0  0  0  0  0
  141.0490   75.6922  217.4719 H   0  0  0  0  0  0  0  0  0  0  0  0
  140.1396   77.0011  219.1769 H   0  0  0  0  0  0  0  0  0  0  0  0
  142.8932   78.2594  219.1527 H   0  0  0  0  0  0  0  0  0  0  0  0
  141.2591   79.0263  219.3660 H   0  0  0  0  0  0  0  0  0  0  0  0
  142.3240   77.4010  221.6510 H   0  0  0  0  0  0  0  0  0  0  0  0
  142.8645   78.7751  223.5983 H   0  0  0  0  0  0  0  0  0  0  0  0
  142.7019   80.9549  224.7617 H   0  0  0  0  0  0  0  0  0  0  0  0
  141.7653   82.9120  223.5694 H   0  0  0  0  0  0  0  0  0  0  0  0
  140.9947   82.6541  221.2127 H   0  0  0  0  0  0  0  0  0  0  0  0
  139.1771   69.9746  222.2399 H   0  0  0  0  0  0  0  0  0  0  0  0
  138.8948   68.5296  224.2684 H   0  0  0  0  0  0  0  0  0  0  0  0
  139.2411   68.1603  226.6421 H   0  0  0  0  0  0  0  0  0  0  0  0
  141.2874   71.1438  228.9785 H   0  0  0  0  0  0  0  0  0  0  0  0
  141.5641   72.5800  226.9379 H   0  0  0  0  0  0  0  0  0  0  0  0
  1  2  2  0
  2  3  1  0
  3  4  1  0
  4  5  1  0
  5  6  2  0
  5  7  1  0
  7  8  1  0
  8  9  1  0
  9 10  1  0
 10 11  1  0
 11 12  1  0
 12 13  1  0
 13 14  1  0
 14 15  1  0
 15 16  2  0
 16 17  1  0
 17 18  2  0
 18 19  1  0
 19 20  2  0
  2 21  1  0
 21 22  2  0
 22 23  1  0
 23 24  2  0
 24 25  1  0
 25 26  2  0
 26 27  1  0
 26 28  1  0
 28 29  2  0
 29 30  1  0
 30 31  2  0
 12  7  1  0
 20 15  1  0
 31 21  1  0
 30 24  1  0
  3 32  1  0
  4 33  1  0
  4 34  1  0
  8 35  1  0
  8 36  1  0
  9 37  1  0
  9 38  1  0
 10 39  1  0
 10 40  1  0
 11 41  1  0
 11 42  1  0
 12 43  1  6
 13 44  1  0
 13 45  1  0
 14 46  1  0
 16 47  1  0
 17 48  1  0
 18 49  1  0
 19 50  1  0
 22 51  1  0
 23 52  1  0
 25 53  1  0
 28 54  1  0
 29 55  1  0
M  END
>  <smiles>  (25) 
O=C(NCC(=O)N1CCCCC1CNc1ccccn1)c1ccc2cc(F)ccc2n1

>  <score_type>  (25) 
oracle

>  <origin>  (25) 
autodockgpu

>  <m_score__min__energy>  (25) 
-9.0299999999999994

>  <m_primary>  (25) 
energy

>  <rmsd>  (25) 
2.3221150782273074

>  <m_score__min__rmsd>  (25) 
2.3221150782273074

>  <meeko>  (25) 
{"free_energy": -8.91, "intermolecular_energy": -11.0, "internal_energy": -2.15, "cluster_size": 31, "cluster_id": 1, "rank_in_cluster": 6}

>  <energy>  (25) 
-7.92

>  <cluster_rmsd>  (25) 
0.83

>  <cluster>  (25) 
1

$$$$

     RDKit          3D

 55 58  0  0  0  0  0  0  0  0999 V2000
  139.2180   71.2190  221.0200 O   0  0  0  0  0  0  0  0  0  0  0  0
  139.3220   71.8030  222.1510 C   0  0  0  0  0  0  0  0  0  0  0  0
  139.2280   73.2270  222.2550 N   0  0  0  0  0  0  0  0  0  0  0  0
  139.0110   74.0320  221.0740 C   0  0  0  0  0  0  0  0  0  0  0  0
  139.6670   75.3760  221.2110 C   0  0  0  0  0  0  0  0  0  0  0  0
  139.1130   76.3400  221.7710 O   0  0  0  0  0  0  0  0  0  0  0  0
  140.9760   75.5390  220.6760 N   0  0  0  0  0  0  0  0  0  0  0  0
  142.0510   74.6570  221.0880 C   0  0  0  0  0  0  0  0  0  0  0  0
  142.8760   74.1610  219.9230 C   0  0  0  0  0  0  0  0  0  0  0  0
  143.3610   75.3440  219.1420 C   0  0  0  0  0  0  0  0  0  0  0  0
  142.1820   76.0880  218.6120 C   0  0  0  0  0  0  0  0  0  0  0  0
  141.2770   76.5810  219.7140 C   0  0  2  0  0  0  0  0  0  0  0  0
  141.9580   77.7080  220.4830 C   0  0  0  0  0  0  0  0  0  0  0  0
  141.4570   77.8310  221.8360 N   0  0  0  0  0  0  0  0  0  0  0  0
  141.7350   79.0260  222.5810 C   0  0  0  0  0  0  0  0  0  0  0  0
  140.6930   79.7970  223.0920 C   0  0  0  0  0  0  0  0  0  0  0  0
  140.9540   80.9450  223.8080 C   0  0  0  0  0  0  0  0  0  0  0  0
  142.2470   81.3290  224.0190 C   0  0  0  0  0  0  0  0  0  0  0  0
  143.2760   80.5540  223.5060 C   0  0  0  0  0  0  0  0  0  0  0  0
  142.9900   79.4250  222.8030 N   0  0  0  0  0  0  0  0  0  0  0  0
  139.5410   71.0080  223.3610 C   0  0  0  0  0  0  0  0  0  0  0  0
  139.2130   69.6750  223.3720 C   0  0  0  0  0  0  0  0  0  0  0  0
  139.4400   68.9610  224.5470 C   0  0  0  0  0  0  0  0  0  0  0  0
  139.9820   69.5890  225.6680 C   0  0  0  0  0  0  0  0  0  0  0  0
  140.2090   68.8880  226.8320 C   0  0  0  0  0  0  0  0  0  0  0  0
  140.7480   69.5360  227.9290 C   0  0  0  0  0  0  0  0  0  0  0  0
  140.9890   68.8900  229.0990 F   0  0  0  0  0  0  0  0  0  0  0  0
  141.0600   70.8920  227.8540 C   0  0  0  0  0  0  0  0  0  0  0  0
  140.8370   71.6150  226.6830 C   0  0  0  0  0  0  0  0  0  0  0  0
  140.2970   70.9260  225.6130 C   0  0  0  0  0  0  0  0  0  0  0  0
  140.0630   71.5820  224.4610 N   0  0  0  0  0  0  0  0  0  0  0  0
  139.3140   73.6860  223.1820 H   0  0  0  0  0  0  0  0  0  0  0  0
  139.4342   73.5124  220.2017 H   0  0  0  0  0  0  0  0  0  0  0  0
  137.9288   74.1816  220.9457 H   0  0  0  0  0  0  0  0  0  0  0  0
  142.7099   75.2037  221.7786 H   0  0  0  0  0  0  0  0  0  0  0  0
  141.5952   73.7797  221.5703 H   0  0  0  0  0  0  0  0  0  0  0  0
  143.7360   73.5857  220.2964 H   0  0  0  0  0  0  0  0  0  0  0  0
  142.2647   73.5112  219.2796 H   0  0  0  0  0  0  0  0  0  0  0  0
  143.9497   76.0030  219.7971 H   0  0  0  0  0  0  0  0  0  0  0  0
  143.9947   75.0065  218.3086 H   0  0  0  0  0  0  0  0  0  0  0  0
  142.5395   76.9527  218.0337 H   0  0  0  0  0  0  0  0  0  0  0  0
  141.6020   75.3974  217.9822 H   0  0  0  0  0  0  0  0  0  0  0  0
  140.3491   76.9200  219.2301 H   0  0  0  0  0  0  0  0  0  0  0  0
  143.0386   77.5064  220.5229 H   0  0  0  0  0  0  0  0  0  0  0  0
  141.7443   78.6507  219.9580 H   0  0  0  0  0  0  0  0  0  0  0  0
  140.8980   77.0820  222.2950 H   0  0  0  0  0  0  0  0  0  0  0  0
  139.6516   79.4861  222.9221 H   0  0  0  0  0  0  0  0  0  0  0  0
  140.1255   81.5485  224.2072 H   0  0  0  0  0  0  0  0  0  0  0  0
  142.4699   82.2427  224.5894 H   0  0  0  0  0  0  0  0  0  0  0  0
  144.3226   80.8518  223.6673 H   0  0  0  0  0  0  0  0  0  0  0  0
  138.7856   69.1871  222.4836 H   0  0  0  0  0  0  0  0  0  0  0  0
  139.1891   67.8909  224.5907 H   0  0  0  0  0  0  0  0  0  0  0  0
  139.9627   67.8174  226.8889 H   0  0  0  0  0  0  0  0  0  0  0  0
  141.4883   71.3992  228.7311 H   0  0  0  0  0  0  0  0  0  0  0  0
  141.0798   72.6856  226.6136 H   0  0  0  0  0  0  0  0  0  0  0  0
  1  2  2  0
  2  3  1  0
  3  4  1  0
  4  5  1  0
  5  6  2  0
  5  7  1  0
  7  8  1  0
  8  9  1  0
  9 10  1  0
 10 11  1  0
 11 12  1  0
 12 13  1  0
 13 14  1  0
 14 15  1  0
 15 16  2  0
 16 17  1  0
 17 18  2  0
 18 19  1  0
 19 20  2  0
  2 21  1  0
 21 22  2  0
 22 23  1  0
 23 24  2  0
 24 25  1  0
 25 26  2  0
 26 27  1  0
 26 28  1  0
 28 29  2  0
 29 30  1  0
 30 31  2  0
 12  7  1  0
 20 15  1  0
 31 21  1  0
 30 24  1  0
  3 32  1  0
  4 33  1  0
  4 34  1  0
  8 35  1  0
  8 36  1  0
  9 37  1  0
  9 38  1  0
 10 39  1  0
 10 40  1  0
 11 41  1  0
 11 42  1  0
 12 43  1  6
 13 44  1  0
 13 45  1  0
 14 46  1  0
 16 47  1  0
 17 48  1  0
 18 49  1  0
 19 50  1  0
 22 51  1  0
 23 52  1  0
 25 53  1  0
 28 54  1  0
 29 55  1  0
M  END
>  <smiles>  (26) 
O=C(NCC(=O)N1CCCCC1CNc1ccccn1)c1ccc2cc(F)ccc2n1

>  <score_type>  (26) 
oracle

>  <origin>  (26) 
autodockgpu

>  <m_score__min__energy>  (26) 
-9.0299999999999994

>  <m_primary>  (26) 
energy

>  <rmsd>  (26) 
2.431054304156231

>  <m_score__min__rmsd>  (26) 
2.431054304156231

>  <meeko>  (26) 
{"free_energy": -8.14, "intermolecular_energy": -10.23, "internal_energy": -2.32, "cluster_size": 31, "cluster_id": 1, "rank_in_cluster": 18}

>  <energy>  (26) 
-7.88

>  <cluster_rmsd>  (26) 
1.18

>  <cluster>  (26) 
1

$$$$

     RDKit          3D

 55 58  0  0  0  0  0  0  0  0999 V2000
  139.3390   71.0460  221.0270 O   0  0  0  0  0  0  0  0  0  0  0  0
  139.5290   71.6000  222.1620 C   0  0  0  0  0  0  0  0  0  0  0  0
  139.6850   73.0190  222.2700 N   0  0  0  0  0  0  0  0  0  0  0  0
  139.6290   73.8510  221.0900 C   0  0  0  0  0  0  0  0  0  0  0  0
  140.5110   75.0570  221.2410 C   0  0  0  0  0  0  0  0  0  0  0  0
  140.9790   75.4140  222.3380 O   0  0  0  0  0  0  0  0  0  0  0  0
  140.8170   75.8130  220.0730 N   0  0  0  0  0  0  0  0  0  0  0  0
  141.8910   75.3970  219.1910 C   0  0  0  0  0  0  0  0  0  0  0  0
  141.5000   75.4480  217.7330 C   0  0  0  0  0  0  0  0  0  0  0  0
  140.9910   76.8230  217.4220 C   0  0  0  0  0  0  0  0  0  0  0  0
  139.7810   77.0880  218.2520 C   0  0  0  0  0  0  0  0  0  0  0  0
  140.0750   77.0100  219.7300 C   0  0  2  0  0  0  0  0  0  0  0  0
  140.9340   78.1970  220.1540 C   0  0  0  0  0  0  0  0  0  0  0  0
  141.5550   77.9930  221.4460 N   0  0  0  0  0  0  0  0  0  0  0  0
  141.7170   79.1100  222.3310 C   0  0  0  0  0  0  0  0  0  0  0  0
  142.9790   79.4530  222.8110 C   0  0  0  0  0  0  0  0  0  0  0  0
  143.1420   80.5260  223.6610 C   0  0  0  0  0  0  0  0  0  0  0  0
  142.0530   81.2600  224.0340 C   0  0  0  0  0  0  0  0  0  0  0  0
  140.8010   80.9110  223.5500 C   0  0  0  0  0  0  0  0  0  0  0  0
  140.6700   79.8470  222.7120 N   0  0  0  0  0  0  0  0  0  0  0  0
  139.5870   70.7770  223.3720 C   0  0  0  0  0  0  0  0  0  0  0  0
  139.1230   69.4850  223.3420 C   0  0  0  0  0  0  0  0  0  0  0  0
  139.2000   68.7420  224.5180 C   0  0  0  0  0  0  0  0  0  0  0  0
  139.7320   69.3010  225.6800 C   0  0  0  0  0  0  0  0  0  0  0  0
  139.8110   68.5710  226.8460 C   0  0  0  0  0  0  0  0  0  0  0  0
  140.3430   69.1500  227.9840 C   0  0  0  0  0  0  0  0  0  0  0  0
  140.4410   68.4730  229.1570 F   0  0  0  0  0  0  0  0  0  0  0  0
  140.7960   70.4680  227.9490 C   0  0  0  0  0  0  0  0  0  0  0  0
  140.7240   71.2190  226.7770 C   0  0  0  0  0  0  0  0  0  0  0  0
  140.1850   70.5980  225.6650 C   0  0  0  0  0  0  0  0  0  0  0  0
  140.0940   71.2840  224.5100 N   0  0  0  0  0  0  0  0  0  0  0  0
  139.8370   73.4540  223.2010 H   0  0  0  0  0  0  0  0  0  0  0  0
  139.9646   73.2661  220.2209 H   0  0  0  0  0  0  0  0  0  0  0  0
  138.5921   74.1900  220.9484 H   0  0  0  0  0  0  0  0  0  0  0  0
  142.7529   76.0623  219.3478 H   0  0  0  0  0  0  0  0  0  0  0  0
  142.1346   74.3521  219.4336 H   0  0  0  0  0  0  0  0  0  0  0  0
  142.3766   75.2269  217.1063 H   0  0  0  0  0  0  0  0  0  0  0  0
  140.7178   74.7024  217.5275 H   0  0  0  0  0  0  0  0  0  0  0  0
  141.7682   77.5660  217.6542 H   0  0  0  0  0  0  0  0  0  0  0  0
  140.7342   76.8933  216.3547 H   0  0  0  0  0  0  0  0  0  0  0  0
  139.4048   78.0949  218.0184 H   0  0  0  0  0  0  0  0  0  0  0  0
  139.0337   76.3163  218.0153 H   0  0  0  0  0  0  0  0  0  0  0  0
  139.1023   77.0055  220.2437 H   0  0  0  0  0  0  0  0  0  0  0  0
  141.7228   78.3490  219.4026 H   0  0  0  0  0  0  0  0  0  0  0  0
  140.2777   79.0764  220.2315 H   0  0  0  0  0  0  0  0  0  0  0  0
  141.8920   77.0590  221.7620 H   0  0  0  0  0  0  0  0  0  0  0  0
  143.8553   78.8610  222.5084 H   0  0  0  0  0  0  0  0  0  0  0  0
  144.1422   80.7889  224.0359 H   0  0  0  0  0  0  0  0  0  0  0  0
  142.1673   82.1192  224.7113 H   0  0  0  0  0  0  0  0  0  0  0  0
  139.9152   81.4935  223.8432 H   0  0  0  0  0  0  0  0  0  0  0  0
  138.7050   69.0517  222.4214 H   0  0  0  0  0  0  0  0  0  0  0  0
  138.8374   67.7035  224.5303 H   0  0  0  0  0  0  0  0  0  0  0  0
  139.4523   67.5315  226.8717 H   0  0  0  0  0  0  0  0  0  0  0  0
  141.2161   70.9215  228.8589 H   0  0  0  0  0  0  0  0  0  0  0  0
  141.0800   72.2591  226.7382 H   0  0  0  0  0  0  0  0  0  0  0  0
  1  2  2  0
  2  3  1  0
  3  4  1  0
  4  5  1  0
  5  6  2  0
  5  7  1  0
  7  8  1  0
  8  9  1  0
  9 10  1  0
 10 11  1  0
 11 12  1  0
 12 13  1  0
 13 14  1  0
 14 15  1  0
 15 16  2  0
 16 17  1  0
 17 18  2  0
 18 19  1  0
 19 20  2  0
  2 21  1  0
 21 22  2  0
 22 23  1  0
 23 24  2  0
 24 25  1  0
 25 26  2  0
 26 27  1  0
 26 28  1  0
 28 29  2  0
 29 30  1  0
 30 31  2  0
 12  7  1  0
 20 15  1  0
 31 21  1  0
 30 24  1  0
  3 32  1  0
  4 33  1  0
  4 34  1  0
  8 35  1  0
  8 36  1  0
  9 37  1  0
  9 38  1  0
 10 39  1  0
 10 40  1  0
 11 41  1  0
 11 42  1  0
 12 43  1  1
 13 44  1  0
 13 45  1  0
 14 46  1  0
 16 47  1  0
 17 48  1  0
 18 49  1  0
 19 50  1  0
 22 51  1  0
 23 52  1  0
 25 53  1  0
 28 54  1  0
 29 55  1  0
M  END
>  <smiles>  (27) 
O=C(NCC(=O)N1CCCCC1CNc1ccccn1)c1ccc2cc(F)ccc2n1

>  <score_type>  (27) 
oracle

>  <origin>  (27) 
autodockgpu

>  <m_score__min__energy>  (27) 
-9.0299999999999994

>  <m_primary>  (27) 
energy

>  <rmsd>  (27) 
2.0880190118435182

>  <m_score__min__rmsd>  (27) 
2.0880190118435182

>  <meeko>  (27) 
{"free_energy": -8.02, "intermolecular_energy": -10.11, "internal_energy": -2.49, "cluster_size": 31, "cluster_id": 1, "rank_in_cluster": 22}

>  <energy>  (27) 
-7.88

>  <cluster_rmsd>  (27) 
1.66

>  <cluster>  (27) 
1

$$$$

     RDKit          3D

 55 58  0  0  0  0  0  0  0  0999 V2000
  139.0380   70.5500  221.4830 O   0  0  0  0  0  0  0  0  0  0  0  0
  139.3100   71.0940  222.6060 C   0  0  0  0  0  0  0  0  0  0  0  0
  139.4450   72.5140  222.7210 N   0  0  0  0  0  0  0  0  0  0  0  0
  139.2740   73.3600  221.5610 C   0  0  0  0  0  0  0  0  0  0  0  0
  140.5320   73.4080  220.7410 C   0  0  0  0  0  0  0  0  0  0  0  0
  140.9710   72.4200  220.1250 O   0  0  0  0  0  0  0  0  0  0  0  0
  141.2400   74.6420  220.6740 N   0  0  0  0  0  0  0  0  0  0  0  0
  142.6700   74.6540  220.4320 C   0  0  0  0  0  0  0  0  0  0  0  0
  143.0760   75.6810  219.4000 C   0  0  0  0  0  0  0  0  0  0  0  0
  142.5450   77.0180  219.8200 C   0  0  0  0  0  0  0  0  0  0  0  0
  141.0560   76.9510  219.8680 C   0  0  0  0  0  0  0  0  0  0  0  0
  140.5630   75.9130  220.8460 C   0  0  2  0  0  0  0  0  0  0  0  0
  140.8400   76.3690  222.2750 C   0  0  0  0  0  0  0  0  0  0  0  0
  141.4500   77.6820  222.3240 N   0  0  0  0  0  0  0  0  0  0  0  0
  140.6830   78.7930  222.8080 C   0  0  0  0  0  0  0  0  0  0  0  0
  141.2800   80.0410  222.9790 C   0  0  0  0  0  0  0  0  0  0  0  0
  140.5490   81.1130  223.4430 C   0  0  0  0  0  0  0  0  0  0  0  0
  139.2250   80.9490  223.7380 C   0  0  0  0  0  0  0  0  0  0  0  0
  138.6420   79.7030  223.5640 C   0  0  0  0  0  0  0  0  0  0  0  0
  139.3870   78.6620  223.1040 N   0  0  0  0  0  0  0  0  0  0  0  0
  139.4860   70.2570  223.7950 C   0  0  0  0  0  0  0  0  0  0  0  0
  139.0460   68.9570  223.7870 C   0  0  0  0  0  0  0  0  0  0  0  0
  139.2370   68.2010  224.9420 C   0  0  0  0  0  0  0  0  0  0  0  0
  139.8540   68.7570  226.0630 C   0  0  0  0  0  0  0  0  0  0  0  0
  140.0450   68.0140  227.2070 C   0  0  0  0  0  0  0  0  0  0  0  0
  140.6610   68.5900  228.3040 C   0  0  0  0  0  0  0  0  0  0  0  0
  140.8710   67.9010  229.4550 F   0  0  0  0  0  0  0  0  0  0  0  0
  141.0840   69.9170  228.2490 C   0  0  0  0  0  0  0  0  0  0  0  0
  140.8990   70.6810  227.0970 C   0  0  0  0  0  0  0  0  0  0  0  0
  140.2800   70.0630  226.0270 C   0  0  0  0  0  0  0  0  0  0  0  0
  140.0780   70.7610  224.8930 N   0  0  0  0  0  0  0  0  0  0  0  0
  139.6660   72.9410  223.6420 H   0  0  0  0  0  0  0  0  0  0  0  0
  138.4561   72.9618  220.9425 H   0  0  0  0  0  0  0  0  0  0  0  0
  139.0379   74.3790  221.9015 H   0  0  0  0  0  0  0  0  0  0  0  0
  143.1854   74.8812  221.3769 H   0  0  0  0  0  0  0  0  0  0  0  0
  142.9508   73.6634  220.0448 H   0  0  0  0  0  0  0  0  0  0  0  0
  144.1730   75.7232  219.3310 H   0  0  0  0  0  0  0  0  0  0  0  0
  142.6670   75.4068  218.4164 H   0  0  0  0  0  0  0  0  0  0  0  0
  142.9357   77.2746  220.8158 H   0  0  0  0  0  0  0  0  0  0  0  0
  142.8612   77.7881  219.1010 H   0  0  0  0  0  0  0  0  0  0  0  0
  140.6667   77.9347  220.1693 H   0  0  0  0  0  0  0  0  0  0  0  0
  140.6984   76.6683  218.8669 H   0  0  0  0  0  0  0  0  0  0  0  0
  139.4861   75.7910  220.6581 H   0  0  0  0  0  0  0  0  0  0  0  0
  139.8891   76.3997  222.8272 H   0  0  0  0  0  0  0  0  0  0  0  0
  141.5434   75.6538  222.7264 H   0  0  0  0  0  0  0  0  0  0  0  0
  142.4310   77.8530  222.0190 H   0  0  0  0  0  0  0  0  0  0  0  0
  142.3460   80.1715  222.7410 H   0  0  0  0  0  0  0  0  0  0  0  0
  141.0282   82.0943  223.5750 H   0  0  0  0  0  0  0  0  0  0  0  0
  138.6286   81.7955  224.1092 H   0  0  0  0  0  0  0  0  0  0  0  0
  137.5772   79.5564  223.7979 H   0  0  0  0  0  0  0  0  0  0  0  0
  138.5593   68.5266  222.8994 H   0  0  0  0  0  0  0  0  0  0  0  0
  138.8978   67.1550  224.9701 H   0  0  0  0  0  0  0  0  0  0  0  0
  139.7093   66.9673  227.2483 H   0  0  0  0  0  0  0  0  0  0  0  0
  141.5705   70.3679  229.1265 H   0  0  0  0  0  0  0  0  0  0  0  0
  141.2308   71.7283  227.0425 H   0  0  0  0  0  0  0  0  0  0  0  0
  1  2  2  0
  2  3  1  0
  3  4  1  0
  4  5  1  0
  5  6  2  0
  5  7  1  0
  7  8  1  0
  8  9  1  0
  9 10  1  0
 10 11  1  0
 11 12  1  0
 12 13  1  0
 13 14  1  0
 14 15  1  0
 15 16  2  0
 16 17  1  0
 17 18  2  0
 18 19  1  0
 19 20  2  0
  2 21  1  0
 21 22  2  0
 22 23  1  0
 23 24  2  0
 24 25  1  0
 25 26  2  0
 26 27  1  0
 26 28  1  0
 28 29  2  0
 29 30  1  0
 30 31  2  0
 12  7  1  0
 20 15  1  0
 31 21  1  0
 30 24  1  0
  3 32  1  0
  4 33  1  0
  4 34  1  0
  8 35  1  0
  8 36  1  0
  9 37  1  0
  9 38  1  0
 10 39  1  0
 10 40  1  0
 11 41  1  0
 11 42  1  0
 12 43  1  1
 13 44  1  0
 13 45  1  0
 14 46  1  0
 16 47  1  0
 17 48  1  0
 18 49  1  0
 19 50  1  0
 22 51  1  0
 23 52  1  0
 25 53  1  0
 28 54  1  0
 29 55  1  0
M  END
>  <smiles>  (28) 
O=C(NCC(=O)N1CCCCC1CNc1ccccn1)c1ccc2cc(F)ccc2n1

>  <score_type>  (28) 
oracle

>  <origin>  (28) 
autodockgpu

>  <m_score__min__energy>  (28) 
-9.0299999999999994

>  <m_primary>  (28) 
energy

>  <rmsd>  (28) 
2.3578367679793675

>  <m_score__min__rmsd>  (28) 
2.3578367679793675

>  <meeko>  (28) 
{"free_energy": -8.09, "intermolecular_energy": -10.18, "internal_energy": -1.41, "cluster_size": 31, "cluster_id": 1, "rank_in_cluster": 20}

>  <energy>  (28) 
-7.84

>  <cluster_rmsd>  (28) 
1.58

>  <cluster>  (28) 
1

$$$$

     RDKit          3D

 55 58  0  0  0  0  0  0  0  0999 V2000
  141.1960   71.6410  221.3070 O   0  0  0  0  0  0  0  0  0  0  0  0
  140.5590   72.0930  222.3170 C   0  0  0  0  0  0  0  0  0  0  0  0
  140.0770   73.4400  222.3390 N   0  0  0  0  0  0  0  0  0  0  0  0
  140.3050   74.3160  221.2120 C   0  0  0  0  0  0  0  0  0  0  0  0
  140.0090   75.7430  221.5710 C   0  0  0  0  0  0  0  0  0  0  0  0
  139.5390   76.0750  222.6750 O   0  0  0  0  0  0  0  0  0  0  0  0
  140.2840   76.7480  220.6000 N   0  0  0  0  0  0  0  0  0  0  0  0
  139.2620   77.1500  219.6520 C   0  0  0  0  0  0  0  0  0  0  0  0
  139.1630   78.6510  219.5050 C   0  0  0  0  0  0  0  0  0  0  0  0
  140.5200   79.1890  219.1630 C   0  0  0  0  0  0  0  0  0  0  0  0
  141.4570   78.8790  220.2800 C   0  0  0  0  0  0  0  0  0  0  0  0
  141.5800   77.3940  220.5250 C   0  0  2  0  0  0  0  0  0  0  0  0
  142.3340   76.7360  219.3740 C   0  0  0  0  0  0  0  0  0  0  0  0
  143.7100   76.4400  219.7170 N   0  0  0  0  0  0  0  0  0  0  0  0
  144.0860   75.0840  219.9980 C   0  0  0  0  0  0  0  0  0  0  0  0
  143.2540   74.0300  219.6250 C   0  0  0  0  0  0  0  0  0  0  0  0
  143.6100   72.7260  219.8900 C   0  0  0  0  0  0  0  0  0  0  0  0
  144.7900   72.4650  220.5250 C   0  0  0  0  0  0  0  0  0  0  0  0
  145.6100   73.5210  220.8920 C   0  0  0  0  0  0  0  0  0  0  0  0
  145.2350   74.8000  220.6170 N   0  0  0  0  0  0  0  0  0  0  0  0
  140.3150   71.2240  223.4700 C   0  0  0  0  0  0  0  0  0  0  0  0
  139.6150   70.0540  223.3080 C   0  0  0  0  0  0  0  0  0  0  0  0
  139.4090   69.2600  224.4350 C   0  0  0  0  0  0  0  0  0  0  0  0
  139.8990   69.6520  225.6810 C   0  0  0  0  0  0  0  0  0  0  0  0
  139.6990   68.8720  226.7990 C   0  0  0  0  0  0  0  0  0  0  0  0
  140.1970   69.2840  228.0210 C   0  0  0  0  0  0  0  0  0  0  0  0
  140.0250   68.5520  229.1520 F   0  0  0  0  0  0  0  0  0  0  0  0
  140.8990   70.4840  228.1200 C   0  0  0  0  0  0  0  0  0  0  0  0
  141.1110   71.2840  226.9980 C   0  0  0  0  0  0  0  0  0  0  0  0
  140.5950   70.8310  225.7980 C   0  0  0  0  0  0  0  0  0  0  0  0
  140.7740   71.5710  224.6860 N   0  0  0  0  0  0  0  0  0  0  0  0
  139.5590   73.7920  223.1680 H   0  0  0  0  0  0  0  0  0  0  0  0
  141.3566   74.2343  220.9000 H   0  0  0  0  0  0  0  0  0  0  0  0
  139.6353   74.0147  220.3930 H   0  0  0  0  0  0  0  0  0  0  0  0
  139.5014   76.7150  218.6704 H   0  0  0  0  0  0  0  0  0  0  0  0
  138.2950   76.7881  220.0315 H   0  0  0  0  0  0  0  0  0  0  0  0
  138.4531   78.8986  218.7021 H   0  0  0  0  0  0  0  0  0  0  0  0
  138.8078   79.0979  220.4453 H   0  0  0  0  0  0  0  0  0  0  0  0
  140.8811   78.7186  218.2366 H   0  0  0  0  0  0  0  0  0  0  0  0
  140.4633   80.2775  219.0149 H   0  0  0  0  0  0  0  0  0  0  0  0
  142.4504   79.2806  220.0310 H   0  0  0  0  0  0  0  0  0  0  0  0
  141.0568   79.3405  221.1948 H   0  0  0  0  0  0  0  0  0  0  0  0
  142.1113   77.2764  221.4809 H   0  0  0  0  0  0  0  0  0  0  0  0
  141.8256   75.7973  219.1087 H   0  0  0  0  0  0  0  0  0  0  0  0
  142.3415   77.4409  218.5296 H   0  0  0  0  0  0  0  0  0  0  0  0
  144.4430   77.1770  219.7680 H   0  0  0  0  0  0  0  0  0  0  0  0
  142.3033   74.2416  219.1137 H   0  0  0  0  0  0  0  0  0  0  0  0
  142.9476   71.9000  219.5918 H   0  0  0  0  0  0  0  0  0  0  0  0
  145.0869   71.4285  220.7430 H   0  0  0  0  0  0  0  0  0  0  0  0
  146.5631   73.3252  221.4051 H   0  0  0  0  0  0  0  0  0  0  0  0
  139.2299   69.7535  222.3224 H   0  0  0  0  0  0  0  0  0  0  0  0
  138.8544   68.3147  224.3410 H   0  0  0  0  0  0  0  0  0  0  0  0
  139.1451   67.9250  226.7195 H   0  0  0  0  0  0  0  0  0  0  0  0
  141.2911   70.8042  229.0966 H   0  0  0  0  0  0  0  0  0  0  0  0
  141.6638   72.2327  227.0645 H   0  0  0  0  0  0  0  0  0  0  0  0
  1  2  2  0
  2  3  1  0
  3  4  1  0
  4  5  1  0
  5  6  2  0
  5  7  1  0
  7  8  1  0
  8  9  1  0
  9 10  1  0
 10 11  1  0
 11 12  1  0
 12 13  1  0
 13 14  1  0
 14 15  1  0
 15 16  2  0
 16 17  1  0
 17 18  2  0
 18 19  1  0
 19 20  2  0
  2 21  1  0
 21 22  2  0
 22 23  1  0
 23 24  2  0
 24 25  1  0
 25 26  2  0
 26 27  1  0
 26 28  1  0
 28 29  2  0
 29 30  1  0
 30 31  2  0
 12  7  1  0
 20 15  1  0
 31 21  1  0
 30 24  1  0
  3 32  1  0
  4 33  1  0
  4 34  1  0
  8 35  1  0
  8 36  1  0
  9 37  1  0
  9 38  1  0
 10 39  1  0
 10 40  1  0
 11 41  1  0
 11 42  1  0
 12 43  1  1
 13 44  1  0
 13 45  1  0
 14 46  1  0
 16 47  1  0
 17 48  1  0
 18 49  1  0
 19 50  1  0
 22 51  1  0
 23 52  1  0
 25 53  1  0
 28 54  1  0
 29 55  1  0
M  END
>  <smiles>  (29) 
O=C(NCC(=O)N1CCCCC1CNc1ccccn1)c1ccc2cc(F)ccc2n1

>  <score_type>  (29) 
oracle

>  <origin>  (29) 
autodockgpu

>  <m_score__min__energy>  (29) 
-9.0299999999999994

>  <m_primary>  (29) 
energy

>  <rmsd>  (29) 
4.209736727436884

>  <m_score__min__rmsd>  (29) 
4.209736727436884

>  <meeko>  (29) 
{"free_energy": -8.21, "intermolecular_energy": -10.29, "internal_energy": -2.09, "cluster_size": 5, "cluster_id": 3, "rank_in_cluster": 1}

>  <energy>  (29) 
-7.77

>  <cluster_rmsd>  (29) 
1.24

>  <cluster>  (29) 
1

$$$$

     RDKit          3D

 55 58  0  0  0  0  0  0  0  0999 V2000
  138.1110   72.2610  222.8710 O   0  0  0  0  0  0  0  0  0  0  0  0
  139.2140   71.6180  222.9110 C   0  0  0  0  0  0  0  0  0  0  0  0
  140.2130   71.8120  221.9040 N   0  0  0  0  0  0  0  0  0  0  0  0
  139.9880   72.7420  220.8210 C   0  0  0  0  0  0  0  0  0  0  0  0
  140.4080   74.1310  221.2100 C   0  0  0  0  0  0  0  0  0  0  0  0
  139.7990   74.8030  222.0630 O   0  0  0  0  0  0  0  0  0  0  0  0
  141.5510   74.6880  220.5690 N   0  0  0  0  0  0  0  0  0  0  0  0
  142.8670   74.1220  220.7980 C   0  0  0  0  0  0  0  0  0  0  0  0
  143.6560   73.9480  219.5210 C   0  0  0  0  0  0  0  0  0  0  0  0
  143.7040   75.2640  218.8050 C   0  0  0  0  0  0  0  0  0  0  0  0
  142.3130   75.6740  218.4570 C   0  0  0  0  0  0  0  0  0  0  0  0
  141.4410   75.8260  219.6790 C   0  0  2  0  0  0  0  0  0  0  0  0
  141.8710   77.0530  220.4770 C   0  0  0  0  0  0  0  0  0  0  0  0
  141.1670   77.1640  221.7370 N   0  0  0  0  0  0  0  0  0  0  0  0
  141.1940   78.4090  222.4480 C   0  0  0  0  0  0  0  0  0  0  0  0
  142.3570   79.1780  222.4820 C   0  0  0  0  0  0  0  0  0  0  0  0
  142.3890   80.3750  223.1620 C   0  0  0  0  0  0  0  0  0  0  0  0
  141.2700   80.8130  223.8090 C   0  0  0  0  0  0  0  0  0  0  0  0
  140.1180   80.0420  223.7690 C   0  0  0  0  0  0  0  0  0  0  0  0
  140.1140   78.8630  223.0890 N   0  0  0  0  0  0  0  0  0  0  0  0
  139.4640   70.6720  223.9990 C   0  0  0  0  0  0  0  0  0  0  0  0
  139.1150   69.3520  223.8510 C   0  0  0  0  0  0  0  0  0  0  0  0
  139.3730   68.4900  224.9150 C   0  0  0  0  0  0  0  0  0  0  0  0
  139.9660   68.9610  226.0850 C   0  0  0  0  0  0  0  0  0  0  0  0
  140.2240   68.1130  227.1400 C   0  0  0  0  0  0  0  0  0  0  0  0
  140.8140   68.6080  228.2900 C   0  0  0  0  0  0  0  0  0  0  0  0
  141.0880   67.8140  229.3560 F   0  0  0  0  0  0  0  0  0  0  0  0
  141.1450   69.9590  228.3780 C   0  0  0  0  0  0  0  0  0  0  0  0
  140.8910   70.8290  227.3190 C   0  0  0  0  0  0  0  0  0  0  0  0
  140.3010   70.2900  226.1910 C   0  0  0  0  0  0  0  0  0  0  0  0
  140.0350   71.0920  225.1420 N   0  0  0  0  0  0  0  0  0  0  0  0
  141.1050   71.2820  221.9520 H   0  0  0  0  0  0  0  0  0  0  0  0
  140.5707   72.4219  219.9447 H   0  0  0  0  0  0  0  0  0  0  0  0
  138.9136   72.7531  220.5853 H   0  0  0  0  0  0  0  0  0  0  0  0
  143.4261   74.7908  221.4690 H   0  0  0  0  0  0  0  0  0  0  0  0
  142.7279   73.1251  221.2416 H   0  0  0  0  0  0  0  0  0  0  0  0
  144.6781   73.6182  219.7590 H   0  0  0  0  0  0  0  0  0  0  0  0
  143.1764   73.1907  218.8834 H   0  0  0  0  0  0  0  0  0  0  0  0
  144.1607   76.0230  219.4571 H   0  0  0  0  0  0  0  0  0  0  0  0
  144.3053   75.1688  217.8889 H   0  0  0  0  0  0  0  0  0  0  0  0
  142.3498   76.6367  217.9261 H   0  0  0  0  0  0  0  0  0  0  0  0
  141.8763   74.8855  217.8265 H   0  0  0  0  0  0  0  0  0  0  0  0
  140.4063   75.9165  219.3168 H   0  0  0  0  0  0  0  0  0  0  0  0
  142.9499   76.9827  220.6797 H   0  0  0  0  0  0  0  0  0  0  0  0
  141.6316   77.9443  219.8784 H   0  0  0  0  0  0  0  0  0  0  0  0
  140.6370   76.3700  222.1520 H   0  0  0  0  0  0  0  0  0  0  0  0
  143.2584   78.8245  221.9600 H   0  0  0  0  0  0  0  0  0  0  0  0
  143.3110   80.9746  223.1836 H   0  0  0  0  0  0  0  0  0  0  0  0
  141.2817   81.7672  224.3562 H   0  0  0  0  0  0  0  0  0  0  0  0
  139.2089   80.3828  224.2860 H   0  0  0  0  0  0  0  0  0  0  0  0
  138.6478   68.9877  222.9242 H   0  0  0  0  0  0  0  0  0  0  0  0
  139.1057   67.4263  224.8306 H   0  0  0  0  0  0  0  0  0  0  0  0
  139.9621   67.0470  227.0685 H   0  0  0  0  0  0  0  0  0  0  0  0
  141.6132   70.3440  229.2959 H   0  0  0  0  0  0  0  0  0  0  0  0
  141.1485   71.8968  227.3782 H   0  0  0  0  0  0  0  0  0  0  0  0
  1  2  2  0
  2  3  1  0
  3  4  1  0
  4  5  1  0
  5  6  2  0
  5  7  1  0
  7  8  1  0
  8  9  1  0
  9 10  1  0
 10 11  1  0
 11 12  1  0
 12 13  1  0
 13 14  1  0
 14 15  1  0
 15 16  2  0
 16 17  1  0
 17 18  2  0
 18 19  1  0
 19 20  2  0
  2 21  1  0
 21 22  2  0
 22 23  1  0
 23 24  2  0
 24 25  1  0
 25 26  2  0
 26 27  1  0
 26 28  1  0
 28 29  2  0
 29 30  1  0
 30 31  2  0
 12  7  1  0
 20 15  1  0
 31 21  1  0
 30 24  1  0
  3 32  1  0
  4 33  1  0
  4 34  1  0
  8 35  1  0
  8 36  1  0
  9 37  1  0
  9 38  1  0
 10 39  1  0
 10 40  1  0
 11 41  1  0
 11 42  1  0
 12 43  1  6
 13 44  1  0
 13 45  1  0
 14 46  1  0
 16 47  1  0
 17 48  1  0
 18 49  1  0
 19 50  1  0
 22 51  1  0
 23 52  1  0
 25 53  1  0
 28 54  1  0
 29 55  1  0
M  END
>  <smiles>  (30) 
O=C(NCC(=O)N1CCCCC1CNc1ccccn1)c1ccc2cc(F)ccc2n1

>  <score_type>  (30) 
oracle

>  <origin>  (30) 
autodockgpu

>  <m_score__min__energy>  (30) 
-9.0299999999999994

>  <m_primary>  (30) 
energy

>  <rmsd>  (30) 
2.6069911957323164

>  <m_score__min__rmsd>  (30) 
2.6069911957323164

>  <meeko>  (30) 
{"free_energy": -8.15, "intermolecular_energy": -10.24, "internal_energy": -1.95, "cluster_size": 31, "cluster_id": 1, "rank_in_cluster": 17}

>  <energy>  (30) 
-7.75

>  <cluster_rmsd>  (30) 
1.58

>  <cluster>  (30) 
1

$$$$

     RDKit          3D

 55 58  0  0  0  0  0  0  0  0999 V2000
  139.2810   74.8250  222.3670 O   0  0  0  0  0  0  0  0  0  0  0  0
  140.0100   75.0400  221.3400 C   0  0  0  0  0  0  0  0  0  0  0  0
  139.7520   76.1520  220.4760 N   0  0  0  0  0  0  0  0  0  0  0  0
  138.6570   77.0540  220.7540 C   0  0  0  0  0  0  0  0  0  0  0  0
  138.7570   77.6070  222.1470 C   0  0  0  0  0  0  0  0  0  0  0  0
  138.0860   77.1620  223.0960 O   0  0  0  0  0  0  0  0  0  0  0  0
  139.6610   78.6830  222.3750 N   0  0  0  0  0  0  0  0  0  0  0  0
  139.1900   80.0550  222.3460 C   0  0  0  0  0  0  0  0  0  0  0  0
  139.7160   80.8760  223.5000 C   0  0  0  0  0  0  0  0  0  0  0  0
  141.2110   80.7740  223.5180 C   0  0  0  0  0  0  0  0  0  0  0  0
  141.5940   79.3490  223.7310 C   0  0  0  0  0  0  0  0  0  0  0  0
  141.0660   78.4480  222.6410 C   0  0  2  0  0  0  0  0  0  0  0  0
  141.8120   78.7160  221.3370 C   0  0  0  0  0  0  0  0  0  0  0  0
  142.2110   77.4930  220.6710 N   0  0  0  0  0  0  0  0  0  0  0  0
  142.3150   77.4770  219.2400 C   0  0  0  0  0  0  0  0  0  0  0  0
  142.5000   78.6630  218.5320 C   0  0  0  0  0  0  0  0  0  0  0  0
  142.6010   78.6530  217.1580 C   0  0  0  0  0  0  0  0  0  0  0  0
  142.5200   77.4680  216.4850 C   0  0  0  0  0  0  0  0  0  0  0  0
  142.3350   76.2940  217.1990 C   0  0  0  0  0  0  0  0  0  0  0  0
  142.2390   76.3320  218.5560 N   0  0  0  0  0  0  0  0  0  0  0  0
  141.1250   74.1400  221.0400 C   0  0  0  0  0  0  0  0  0  0  0  0
  140.9040   72.7890  220.9370 C   0  0  0  0  0  0  0  0  0  0  0  0
  141.9970   71.9740  220.6490 C   0  0  0  0  0  0  0  0  0  0  0  0
  143.2680   72.5220  220.4750 C   0  0  0  0  0  0  0  0  0  0  0  0
  144.3520   71.7210  220.1900 C   0  0  0  0  0  0  0  0  0  0  0  0
  145.6010   72.2920  220.0220 C   0  0  0  0  0  0  0  0  0  0  0  0
  146.7000   71.5460  219.7410 F   0  0  0  0  0  0  0  0  0  0  0  0
  145.7590   73.6720  220.1400 C   0  0  0  0  0  0  0  0  0  0  0  0
  144.6720   74.4950  220.4260 C   0  0  0  0  0  0  0  0  0  0  0  0
  143.4440   73.8810  220.5860 C   0  0  0  0  0  0  0  0  0  0  0  0
  142.3640   74.6350  220.8650 N   0  0  0  0  0  0  0  0  0  0  0  0
  140.3550   76.3120  219.6460 H   0  0  0  0  0  0  0  0  0  0  0  0
  138.6837   77.8852  220.0340 H   0  0  0  0  0  0  0  0  0  0  0  0
  137.7124   76.4974  220.6643 H   0  0  0  0  0  0  0  0  0  0  0  0
  139.5182   80.5200  221.4047 H   0  0  0  0  0  0  0  0  0  0  0  0
  138.0932   80.0318  222.4272 H   0  0  0  0  0  0  0  0  0  0  0  0
  139.4179   81.9272  223.3730 H   0  0  0  0  0  0  0  0  0  0  0  0
  139.3026   80.5000  224.4475 H   0  0  0  0  0  0  0  0  0  0  0  0
  141.6170   81.1262  222.5582 H   0  0  0  0  0  0  0  0  0  0  0  0
  141.6177   81.3951  224.3297 H   0  0  0  0  0  0  0  0  0  0  0  0
  142.6914   79.2761  223.7503 H   0  0  0  0  0  0  0  0  0  0  0  0
  141.1543   79.0198  224.6840 H   0  0  0  0  0  0  0  0  0  0  0  0
  141.2107   77.4150  222.9902 H   0  0  0  0  0  0  0  0  0  0  0  0
  141.1550   79.2870  220.6644 H   0  0  0  0  0  0  0  0  0  0  0  0
  142.7245   79.2797  221.5809 H   0  0  0  0  0  0  0  0  0  0  0  0
  142.4280   76.6190  221.1930 H   0  0  0  0  0  0  0  0  0  0  0  0
  142.5661   79.6169  219.0757 H   0  0  0  0  0  0  0  0  0  0  0  0
  142.7460   79.5938  216.6068 H   0  0  0  0  0  0  0  0  0  0  0  0
  142.6006   77.4449  215.3882 H   0  0  0  0  0  0  0  0  0  0  0  0
  142.2659   75.3326  216.6690 H   0  0  0  0  0  0  0  0  0  0  0  0
  139.8989   72.3645  221.0770 H   0  0  0  0  0  0  0  0  0  0  0  0
  141.8561   70.8869  220.5579 H   0  0  0  0  0  0  0  0  0  0  0  0
  144.2251   70.6324  220.0964 H   0  0  0  0  0  0  0  0  0  0  0  0
  146.7558   74.1173  220.0054 H   0  0  0  0  0  0  0  0  0  0  0  0
  144.7859   75.5850  220.5203 H   0  0  0  0  0  0  0  0  0  0  0  0
  1  2  2  0
  2  3  1  0
  3  4  1  0
  4  5  1  0
  5  6  2  0
  5  7  1  0
  7  8  1  0
  8  9  1  0
  9 10  1  0
 10 11  1  0
 11 12  1  0
 12 13  1  0
 13 14  1  0
 14 15  1  0
 15 16  2  0
 16 17  1  0
 17 18  2  0
 18 19  1  0
 19 20  2  0
  2 21  1  0
 21 22  2  0
 22 23  1  0
 23 24  2  0
 24 25  1  0
 25 26  2  0
 26 27  1  0
 26 28  1  0
 28 29  2  0
 29 30  1  0
 30 31  2  0
 12  7  1  0
 20 15  1  0
 31 21  1  0
 30 24  1  0
  3 32  1  0
  4 33  1  0
  4 34  1  0
  8 35  1  0
  8 36  1  0
  9 37  1  0
  9 38  1  0
 10 39  1  0
 10 40  1  0
 11 41  1  0
 11 42  1  0
 12 43  1  1
 13 44  1  0
 13 45  1  0
 14 46  1  0
 16 47  1  0
 17 48  1  0
 18 49  1  0
 19 50  1  0
 22 51  1  0
 23 52  1  0
 25 53  1  0
 28 54  1  0
 29 55  1  0
M  END
>  <smiles>  (31) 
O=C(NCC(=O)N1CCCCC1CNc1ccccn1)c1ccc2cc(F)ccc2n1

>  <score_type>  (31) 
oracle

>  <origin>  (31) 
autodockgpu

>  <m_score__min__energy>  (31) 
-9.0299999999999994

>  <m_primary>  (31) 
energy

>  <rmsd>  (31) 
6.22526942051286

>  <m_score__min__rmsd>  (31) 
6.22526942051286

>  <meeko>  (31) 
{"free_energy": -6.81, "intermolecular_energy": -8.9, "internal_energy": -3.64, "cluster_size": 2, "cluster_id": 8, "rank_in_cluster": 1}

>  <energy>  (31) 
-7.61

>  <cluster_rmsd>  (31) 
1.76

>  <cluster>  (31) 
1

$$$$

     RDKit          3D

 55 58  0  0  0  0  0  0  0  0999 V2000
  140.8980   71.9790  221.2070 O   0  0  0  0  0  0  0  0  0  0  0  0
  140.1060   72.3610  222.1330 C   0  0  0  0  0  0  0  0  0  0  0  0
  139.3780   73.5870  222.0190 N   0  0  0  0  0  0  0  0  0  0  0  0
  139.5270   74.4180  220.8450 C   0  0  0  0  0  0  0  0  0  0  0  0
  140.5550   75.4890  221.0730 C   0  0  0  0  0  0  0  0  0  0  0  0
  141.7080   75.4230  220.6110 O   0  0  0  0  0  0  0  0  0  0  0  0
  140.1790   76.6220  221.8500 N   0  0  0  0  0  0  0  0  0  0  0  0
  141.0950   77.1750  222.8300 C   0  0  0  0  0  0  0  0  0  0  0  0
  141.1790   78.6820  222.7630 C   0  0  0  0  0  0  0  0  0  0  0  0
  139.7950   79.2440  222.8770 C   0  0  0  0  0  0  0  0  0  0  0  0
  138.9810   78.7590  221.7260 C   0  0  0  0  0  0  0  0  0  0  0  0
  138.8840   77.2530  221.6920 C   0  0  2  0  0  0  0  0  0  0  0  0
  138.0100   76.7610  222.8410 C   0  0  0  0  0  0  0  0  0  0  0  0
  136.8060   76.1070  222.3750 N   0  0  0  0  0  0  0  0  0  0  0  0
  136.3130   74.9600  223.0820 C   0  0  0  0  0  0  0  0  0  0  0  0
  135.5260   75.1170  224.2220 C   0  0  0  0  0  0  0  0  0  0  0  0
  135.0490   74.0190  224.9040 C   0  0  0  0  0  0  0  0  0  0  0  0
  135.3500   72.7650  224.4570 C   0  0  0  0  0  0  0  0  0  0  0  0
  136.1330   72.6190  223.3220 C   0  0  0  0  0  0  0  0  0  0  0  0
  136.5910   73.7210  222.6670 N   0  0  0  0  0  0  0  0  0  0  0  0
  139.9380   71.5350  223.3310 C   0  0  0  0  0  0  0  0  0  0  0  0
  139.1850   70.3880  223.2700 C   0  0  0  0  0  0  0  0  0  0  0  0
  139.0550   69.6360  224.4350 C   0  0  0  0  0  0  0  0  0  0  0  0
  139.6720   70.0430  225.6180 C   0  0  0  0  0  0  0  0  0  0  0  0
  139.5480   69.3030  226.7730 C   0  0  0  0  0  0  0  0  0  0  0  0
  140.1710   69.7290  227.9320 C   0  0  0  0  0  0  0  0  0  0  0  0
  140.0770   69.0360  229.0960 F   0  0  0  0  0  0  0  0  0  0  0  0
  140.9220   70.9040  227.9280 C   0  0  0  0  0  0  0  0  0  0  0  0
  141.0580   71.6630  226.7670 C   0  0  0  0  0  0  0  0  0  0  0  0
  140.4180   71.1970  225.6340 C   0  0  0  0  0  0  0  0  0  0  0  0
  140.5200   71.8970  224.4880 N   0  0  0  0  0  0  0  0  0  0  0  0
  138.7370   73.8820  222.7810 H   0  0  0  0  0  0  0  0  0  0  0  0
  139.8419   73.7911  219.9977 H   0  0  0  0  0  0  0  0  0  0  0  0
  138.5611   74.8983  220.6297 H   0  0  0  0  0  0  0  0  0  0  0  0
  140.7526   76.8858  223.8345 H   0  0  0  0  0  0  0  0  0  0  0  0
  142.0965   76.7760  222.6116 H   0  0  0  0  0  0  0  0  0  0  0  0
  141.7999   79.0556  223.5906 H   0  0  0  0  0  0  0  0  0  0  0  0
  141.6324   78.9908  221.8095 H   0  0  0  0  0  0  0  0  0  0  0  0
  139.3373   78.9100  223.8198 H   0  0  0  0  0  0  0  0  0  0  0  0
  139.8369   80.3432  222.8672 H   0  0  0  0  0  0  0  0  0  0  0  0
  137.9671   79.1777  221.8075 H   0  0  0  0  0  0  0  0  0  0  0  0
  139.4758   79.0870  220.7999 H   0  0  0  0  0  0  0  0  0  0  0  0
  138.4583   76.9878  220.7130 H   0  0  0  0  0  0  0  0  0  0  0  0
  138.5890   76.0470  223.4451 H   0  0  0  0  0  0  0  0  0  0  0  0
  137.7087   77.6375  223.4335 H   0  0  0  0  0  0  0  0  0  0  0  0
  136.2770   76.4380  221.5410 H   0  0  0  0  0  0  0  0  0  0  0  0
  135.2833   76.1281  224.5807 H   0  0  0  0  0  0  0  0  0  0  0  0
  134.4295   74.1522  225.8031 H   0  0  0  0  0  0  0  0  0  0  0  0
  134.9754   71.8796  224.9915 H   0  0  0  0  0  0  0  0  0  0  0  0
  136.3837   71.6141  222.9514 H   0  0  0  0  0  0  0  0  0  0  0  0
  138.7013   70.0741  222.3333 H   0  0  0  0  0  0  0  0  0  0  0  0
  138.4594   68.7113  224.4221 H   0  0  0  0  0  0  0  0  0  0  0  0
  138.9554   68.3762  226.7736 H   0  0  0  0  0  0  0  0  0  0  0  0
  141.4139   71.2364  228.8540 H   0  0  0  0  0  0  0  0  0  0  0  0
  141.6481   72.5912  226.7530 H   0  0  0  0  0  0  0  0  0  0  0  0
  1  2  2  0
  2  3  1  0
  3  4  1  0
  4  5  1  0
  5  6  2  0
  5  7  1  0
  7  8  1  0
  8  9  1  0
  9 10  1  0
 10 11  1  0
 11 12  1  0
 12 13  1  0
 13 14  1  0
 14 15  1  0
 15 16  2  0
 16 17  1  0
 17 18  2  0
 18 19  1  0
 19 20  2  0
  2 21  1  0
 21 22  2  0
 22 23  1  0
 23 24  2  0
 24 25  1  0
 25 26  2  0
 26 27  1  0
 26 28  1  0
 28 29  2  0
 29 30  1  0
 30 31  2  0
 12  7  1  0
 20 15  1  0
 31 21  1  0
 30 24  1  0
  3 32  1  0
  4 33  1  0
  4 34  1  0
  8 35  1  0
  8 36  1  0
  9 37  1  0
  9 38  1  0
 10 39  1  0
 10 40  1  0
 11 41  1  0
 11 42  1  0
 12 43  1  6
 13 44  1  0
 13 45  1  0
 14 46  1  0
 16 47  1  0
 17 48  1  0
 18 49  1  0
 19 50  1  0
 22 51  1  0
 23 52  1  0
 25 53  1  0
 28 54  1  0
 29 55  1  0
M  END
>  <smiles>  (32) 
O=C(NCC(=O)N1CCCCC1CNc1ccccn1)c1ccc2cc(F)ccc2n1

>  <score_type>  (32) 
oracle

>  <origin>  (32) 
autodockgpu

>  <m_score__min__energy>  (32) 
-9.0299999999999994

>  <m_primary>  (32) 
energy

>  <rmsd>  (32) 
5.0957244311376835

>  <m_score__min__rmsd>  (32) 
5.0957244311376835

>  <meeko>  (32) 
{"free_energy": -7.24, "intermolecular_energy": -9.32, "internal_energy": -2.6, "cluster_size": 1, "cluster_id": 7, "rank_in_cluster": 1}

>  <energy>  (32) 
-8.36

>  <cluster_rmsd>  (32) 
0.0

>  <cluster>  (32) 
2

$$$$

     RDKit          3D

 55 58  0  0  0  0  0  0  0  0999 V2000
  138.7870   72.9570  222.1060 O   0  0  0  0  0  0  0  0  0  0  0  0
  139.8660   72.3210  222.3600 C   0  0  0  0  0  0  0  0  0  0  0  0
  141.0270   72.4880  221.5400 N   0  0  0  0  0  0  0  0  0  0  0  0
  140.9980   73.3840  220.4060 C   0  0  0  0  0  0  0  0  0  0  0  0
  141.0430   74.8180  220.8520 C   0  0  0  0  0  0  0  0  0  0  0  0
  142.1100   75.4220  221.0640 O   0  0  0  0  0  0  0  0  0  0  0  0
  139.8060   75.5000  221.0360 N   0  0  0  0  0  0  0  0  0  0  0  0
  138.9170   75.7180  219.9110 C   0  0  0  0  0  0  0  0  0  0  0  0
  137.4760   75.4000  220.2380 C   0  0  0  0  0  0  0  0  0  0  0  0
  137.0780   76.1780  221.4550 C   0  0  0  0  0  0  0  0  0  0  0  0
  137.9340   75.7530  222.6000 C   0  0  0  0  0  0  0  0  0  0  0  0
  139.4010   75.9960  222.3360 C   0  0  2  0  0  0  0  0  0  0  0  0
  139.6920   77.4930  222.3470 C   0  0  0  0  0  0  0  0  0  0  0  0
  141.1040   77.7770  222.4940 N   0  0  0  0  0  0  0  0  0  0  0  0
  141.5130   79.0610  222.9870 C   0  0  0  0  0  0  0  0  0  0  0  0
  142.8660   79.3830  223.0780 C   0  0  0  0  0  0  0  0  0  0  0  0
  143.2650   80.6150  223.5500 C   0  0  0  0  0  0  0  0  0  0  0  0
  142.3240   81.5280  223.9310 C   0  0  0  0  0  0  0  0  0  0  0  0
  140.9810   81.1970  223.8360 C   0  0  0  0  0  0  0  0  0  0  0  0
  140.6140   79.9740  223.3650 N   0  0  0  0  0  0  0  0  0  0  0  0
  139.9190   71.4090  223.5040 C   0  0  0  0  0  0  0  0  0  0  0  0
  139.4570   70.1230  223.3740 C   0  0  0  0  0  0  0  0  0  0  0  0
  139.5290   69.2930  224.4910 C   0  0  0  0  0  0  0  0  0  0  0  0
  140.0540   69.7630  225.6950 C   0  0  0  0  0  0  0  0  0  0  0  0
  140.1280   68.9470  226.8020 C   0  0  0  0  0  0  0  0  0  0  0  0
  140.6540   69.4390  227.9830 C   0  0  0  0  0  0  0  0  0  0  0  0
  140.7470   68.6750  229.1020 F   0  0  0  0  0  0  0  0  0  0  0  0
  141.1060   70.7560  228.0500 C   0  0  0  0  0  0  0  0  0  0  0  0
  141.0380   71.5930  226.9380 C   0  0  0  0  0  0  0  0  0  0  0  0
  140.5060   71.0580  225.7800 C   0  0  0  0  0  0  0  0  0  0  0  0
  140.4190   71.8300  224.6800 N   0  0  0  0  0  0  0  0  0  0  0  0
  141.8960   71.9640  221.7600 H   0  0  0  0  0  0  0  0  0  0  0  0
  141.8672   73.1796  219.7636 H   0  0  0  0  0  0  0  0  0  0  0  0
  140.0622   73.2183  219.8521 H   0  0  0  0  0  0  0  0  0  0  0  0
  138.9848   76.7732  219.6079 H   0  0  0  0  0  0  0  0  0  0  0  0
  139.2318   75.0422  219.1021 H   0  0  0  0  0  0  0  0  0  0  0  0
  136.8331   75.6823  219.3913 H   0  0  0  0  0  0  0  0  0  0  0  0
  137.3632   74.3224  220.4279 H   0  0  0  0  0  0  0  0  0  0  0  0
  137.2177   77.2530  221.2683 H   0  0  0  0  0  0  0  0  0  0  0  0
  136.0201   75.9886  221.6895 H   0  0  0  0  0  0  0  0  0  0  0  0
  137.6363   76.3198  223.4945 H   0  0  0  0  0  0  0  0  0  0  0  0
  137.7914   74.6720  222.7455 H   0  0  0  0  0  0  0  0  0  0  0  0
  139.9546   75.4674  223.1260 H   0  0  0  0  0  0  0  0  0  0  0  0
  139.3402   77.9288  221.4002 H   0  0  0  0  0  0  0  0  0  0  0  0
  139.1689   77.9312  223.2097 H   0  0  0  0  0  0  0  0  0  0  0  0
  141.8410   77.0820  222.2540 H   0  0  0  0  0  0  0  0  0  0  0  0
  143.6229   78.6466  222.7701 H   0  0  0  0  0  0  0  0  0  0  0  0
  144.3349   80.8611  223.6193 H   0  0  0  0  0  0  0  0  0  0  0  0
  142.6280   82.5152  224.3091 H   0  0  0  0  0  0  0  0  0  0  0  0
  140.2125   81.9225  224.1411 H   0  0  0  0  0  0  0  0  0  0  0  0
  139.0442   69.7602  222.4211 H   0  0  0  0  0  0  0  0  0  0  0  0
  139.1680   68.2562  224.4227 H   0  0  0  0  0  0  0  0  0  0  0  0
  139.7703   67.9082  226.7472 H   0  0  0  0  0  0  0  0  0  0  0  0
  141.5219   71.1396  228.9933 H   0  0  0  0  0  0  0  0  0  0  0  0
  141.3921   72.6336  226.9800 H   0  0  0  0  0  0  0  0  0  0  0  0
  1  2  2  0
  2  3  1  0
  3  4  1  0
  4  5  1  0
  5  6  2  0
  5  7  1  0
  7  8  1  0
  8  9  1  0
  9 10  1  0
 10 11  1  0
 11 12  1  0
 12 13  1  0
 13 14  1  0
 14 15  1  0
 15 16  2  0
 16 17  1  0
 17 18  2  0
 18 19  1  0
 19 20  2  0
  2 21  1  0
 21 22  2  0
 22 23  1  0
 23 24  2  0
 24 25  1  0
 25 26  2  0
 26 27  1  0
 26 28  1  0
 28 29  2  0
 29 30  1  0
 30 31  2  0
 12  7  1  0
 20 15  1  0
 31 21  1  0
 30 24  1  0
  3 32  1  0
  4 33  1  0
  4 34  1  0
  8 35  1  0
  8 36  1  0
  9 37  1  0
  9 38  1  0
 10 39  1  0
 10 40  1  0
 11 41  1  0
 11 42  1  0
 12 43  1  1
 13 44  1  0
 13 45  1  0
 14 46  1  0
 16 47  1  0
 17 48  1  0
 18 49  1  0
 19 50  1  0
 22 51  1  0
 23 52  1  0
 25 53  1  0
 28 54  1  0
 29 55  1  0
M  END
>  <smiles>  (33) 
O=C(NCC(=O)N1CCCCC1CNc1ccccn1)c1ccc2cc(F)ccc2n1

>  <score_type>  (33) 
oracle

>  <origin>  (33) 
autodockgpu

>  <m_score__min__energy>  (33) 
-9.0299999999999994

>  <m_primary>  (33) 
energy

>  <rmsd>  (33) 
2.9477027728413003

>  <m_score__min__rmsd>  (33) 
2.9477027728413003

>  <meeko>  (33) 
{"free_energy": -8.02, "intermolecular_energy": -10.11, "internal_energy": -2.28, "cluster_size": 31, "cluster_id": 1, "rank_in_cluster": 21}

>  <energy>  (33) 
-6.96

>  <cluster_rmsd>  (33) 
1.47

>  <cluster>  (33) 
2

$$$$

     RDKit          3D

 55 58  0  0  0  0  0  0  0  0999 V2000
  139.0070   72.4520  221.2900 O   0  0  0  0  0  0  0  0  0  0  0  0
  140.0320   72.1640  221.9950 C   0  0  0  0  0  0  0  0  0  0  0  0
  141.3410   72.5830  221.5930 N   0  0  0  0  0  0  0  0  0  0  0  0
  141.5230   73.3430  220.3770 C   0  0  0  0  0  0  0  0  0  0  0  0
  141.4160   74.8170  220.6440 C   0  0  0  0  0  0  0  0  0  0  0  0
  142.4120   75.5520  220.7640 O   0  0  0  0  0  0  0  0  0  0  0  0
  140.1130   75.3820  220.7600 N   0  0  0  0  0  0  0  0  0  0  0  0
  139.3610   75.7390  219.5720 C   0  0  0  0  0  0  0  0  0  0  0  0
  137.9220   75.2830  219.6360 C   0  0  0  0  0  0  0  0  0  0  0  0
  137.3070   75.8130  220.8970 C   0  0  0  0  0  0  0  0  0  0  0  0
  138.0410   75.2480  222.0650 C   0  0  0  0  0  0  0  0  0  0  0  0
  139.5040   75.6190  222.0540 C   0  0  2  0  0  0  0  0  0  0  0  0
  139.6660   77.1060  222.3510 C   0  0  0  0  0  0  0  0  0  0  0  0
  141.0560   77.4990  222.4480 N   0  0  0  0  0  0  0  0  0  0  0  0
  141.3820   78.8190  222.9050 C   0  0  0  0  0  0  0  0  0  0  0  0
  142.6980   79.2760  222.8660 C   0  0  0  0  0  0  0  0  0  0  0  0
  143.0170   80.5430  223.3030 C   0  0  0  0  0  0  0  0  0  0  0  0
  142.0310   81.3590  223.7790 C   0  0  0  0  0  0  0  0  0  0  0  0
  140.7250   80.8960  223.8140 C   0  0  0  0  0  0  0  0  0  0  0  0
  140.4380   79.6400  223.3760 N   0  0  0  0  0  0  0  0  0  0  0  0
  139.8720   71.3960  223.2310 C   0  0  0  0  0  0  0  0  0  0  0  0
  139.0830   70.2730  223.2400 C   0  0  0  0  0  0  0  0  0  0  0  0
  138.9610   69.5760  224.4410 C   0  0  0  0  0  0  0  0  0  0  0  0
  139.6230   70.0130  225.5880 C   0  0  0  0  0  0  0  0  0  0  0  0
  139.5070   69.3280  226.7780 C   0  0  0  0  0  0  0  0  0  0  0  0
  140.1750   69.7840  227.9000 C   0  0  0  0  0  0  0  0  0  0  0  0
  140.0920   69.1450  229.0950 F   0  0  0  0  0  0  0  0  0  0  0  0
  140.9610   70.9330  227.8250 C   0  0  0  0  0  0  0  0  0  0  0  0
  141.0890   71.6360  226.6280 C   0  0  0  0  0  0  0  0  0  0  0  0
  140.4040   71.1430  225.5340 C   0  0  0  0  0  0  0  0  0  0  0  0
  140.4960   71.7900  224.3560 N   0  0  0  0  0  0  0  0  0  0  0  0
  142.1640   72.3410  222.1780 H   0  0  0  0  0  0  0  0  0  0  0  0
  142.5174   73.1238  219.9609 H   0  0  0  0  0  0  0  0  0  0  0  0
  140.7360   73.0575  219.6635 H   0  0  0  0  0  0  0  0  0  0  0  0
  139.3791   76.8330  219.4592 H   0  0  0  0  0  0  0  0  0  0  0  0
  139.8323   75.2348  218.7155 H   0  0  0  0  0  0  0  0  0  0  0  0
  137.3720   75.6689  218.7650 H   0  0  0  0  0  0  0  0  0  0  0  0
  137.8757   74.1840  219.6287 H   0  0  0  0  0  0  0  0  0  0  0  0
  137.3797   76.9105  220.9106 H   0  0  0  0  0  0  0  0  0  0  0  0
  136.2472   75.5227  220.9461 H   0  0  0  0  0  0  0  0  0  0  0  0
  137.5852   75.6325  222.9893 H   0  0  0  0  0  0  0  0  0  0  0  0
  137.9707   74.1517  222.0093 H   0  0  0  0  0  0  0  0  0  0  0  0
  139.9929   74.9945  222.8162 H   0  0  0  0  0  0  0  0  0  0  0  0
  139.1912   77.6818  221.5429 H   0  0  0  0  0  0  0  0  0  0  0  0
  139.1906   77.3088  223.3220 H   0  0  0  0  0  0  0  0  0  0  0  0
  141.8370   76.8570  222.1980 H   0  0  0  0  0  0  0  0  0  0  0  0
  143.4911   78.6176  222.4819 H   0  0  0  0  0  0  0  0  0  0  0  0
  144.0587   80.8948  223.2687 H   0  0  0  0  0  0  0  0  0  0  0  0
  142.2707   82.3732  224.1310 H   0  0  0  0  0  0  0  0  0  0  0  0
  139.9214   81.5432  224.1954 H   0  0  0  0  0  0  0  0  0  0  0  0
  138.5647   69.9346  222.3307 H   0  0  0  0  0  0  0  0  0  0  0  0
  138.3360   68.6718  224.4845 H   0  0  0  0  0  0  0  0  0  0  0  0
  138.8856   68.4221  226.8354 H   0  0  0  0  0  0  0  0  0  0  0  0
  141.4874   71.2897  228.7226 H   0  0  0  0  0  0  0  0  0  0  0  0
  141.7077   72.5428  226.5576 H   0  0  0  0  0  0  0  0  0  0  0  0
  1  2  2  0
  2  3  1  0
  3  4  1  0
  4  5  1  0
  5  6  2  0
  5  7  1  0
  7  8  1  0
  8  9  1  0
  9 10  1  0
 10 11  1  0
 11 12  1  0
 12 13  1  0
 13 14  1  0
 14 15  1  0
 15 16  2  0
 16 17  1  0
 17 18  2  0
 18 19  1  0
 19 20  2  0
  2 21  1  0
 21 22  2  0
 22 23  1  0
 23 24  2  0
 24 25  1  0
 25 26  2  0
 26 27  1  0
 26 28  1  0
 28 29  2  0
 29 30  1  0
 30 31  2  0
 12  7  1  0
 20 15  1  0
 31 21  1  0
 30 24  1  0
  3 32  1  0
  4 33  1  0
  4 34  1  0
  8 35  1  0
  8 36  1  0
  9 37  1  0
  9 38  1  0
 10 39  1  0
 10 40  1  0
 11 41  1  0
 11 42  1  0
 12 43  1  1
 13 44  1  0
 13 45  1  0
 14 46  1  0
 16 47  1  0
 17 48  1  0
 18 49  1  0
 19 50  1  0
 22 51  1  0
 23 52  1  0
 25 53  1  0
 28 54  1  0
 29 55  1  0
M  END
>  <smiles>  (34) 
O=C(NCC(=O)N1CCCCC1CNc1ccccn1)c1ccc2cc(F)ccc2n1

>  <score_type>  (34) 
oracle

>  <origin>  (34) 
autodockgpu

>  <m_score__min__energy>  (34) 
-9.0299999999999994

>  <m_primary>  (34) 
energy

>  <rmsd>  (34) 
2.8644434416324223

>  <m_score__min__rmsd>  (34) 
2.8644434416324223

>  <meeko>  (34) 
{"free_energy": -7.75, "intermolecular_energy": -9.83, "internal_energy": -2.51, "cluster_size": 31, "cluster_id": 1, "rank_in_cluster": 30}

>  <energy>  (34) 
-8.21

>  <cluster_rmsd>  (34) 
0.0

>  <cluster>  (34) 
3

$$$$

     RDKit          3D

 55 58  0  0  0  0  0  0  0  0999 V2000
  140.2180   74.1270  222.3000 O   0  0  0  0  0  0  0  0  0  0  0  0
  139.2420   74.9330  222.1340 C   0  0  0  0  0  0  0  0  0  0  0  0
  137.9630   74.4600  221.6990 N   0  0  0  0  0  0  0  0  0  0  0  0
  137.7550   73.0530  221.4400 C   0  0  0  0  0  0  0  0  0  0  0  0
  137.2300   72.3540  222.6620 C   0  0  0  0  0  0  0  0  0  0  0  0
  136.3040   72.8140  223.3530 O   0  0  0  0  0  0  0  0  0  0  0  0
  137.8270   71.1140  223.0300 N   0  0  0  0  0  0  0  0  0  0  0  0
  137.3750   70.4060  224.2130 C   0  0  0  0  0  0  0  0  0  0  0  0
  137.1770   68.9290  223.9670 C   0  0  0  0  0  0  0  0  0  0  0  0
  138.4440   68.3640  223.4000 C   0  0  0  0  0  0  0  0  0  0  0  0
  138.7280   69.0320  222.0970 C   0  0  0  0  0  0  0  0  0  0  0  0
  138.8950   70.5250  222.2470 C   0  0  2  0  0  0  0  0  0  0  0  0
  140.1980   70.8340  222.9760 C   0  0  0  0  0  0  0  0  0  0  0  0
  140.0140   71.7840  224.0530 N   0  0  0  0  0  0  0  0  0  0  0  0
  140.3240   71.3900  225.3970 C   0  0  0  0  0  0  0  0  0  0  0  0
  140.0680   70.0890  225.8280 C   0  0  0  0  0  0  0  0  0  0  0  0
  140.3640   69.7040  227.1170 C   0  0  0  0  0  0  0  0  0  0  0  0
  140.9150   70.6070  227.9800 C   0  0  0  0  0  0  0  0  0  0  0  0
  141.1650   71.8980  227.5420 C   0  0  0  0  0  0  0  0  0  0  0  0
  140.8630   72.2520  226.2630 N   0  0  0  0  0  0  0  0  0  0  0  0
  139.4290   76.3630  222.3910 C   0  0  0  0  0  0  0  0  0  0  0  0
  138.3460   77.1500  222.6960 C   0  0  0  0  0  0  0  0  0  0  0  0
  138.5750   78.5040  222.9330 C   0  0  0  0  0  0  0  0  0  0  0  0
  139.8640   79.0310  222.8590 C   0  0  0  0  0  0  0  0  0  0  0  0
  140.0970   80.3690  223.0920 C   0  0  0  0  0  0  0  0  0  0  0  0
  141.3860   80.8650  223.0130 C   0  0  0  0  0  0  0  0  0  0  0  0
  141.6660   82.1750  223.2320 F   0  0  0  0  0  0  0  0  0  0  0  0
  142.4430   80.0130  222.6970 C   0  0  0  0  0  0  0  0  0  0  0  0
  142.2240   78.6570  222.4600 C   0  0  0  0  0  0  0  0  0  0  0  0
  140.9200   78.2070  222.5510 C   0  0  0  0  0  0  0  0  0  0  0  0
  140.6590   76.9050  222.3280 N   0  0  0  0  0  0  0  0  0  0  0  0
  137.1800   75.1290  221.5690 H   0  0  0  0  0  0  0  0  0  0  0  0
  137.0288   72.9411  220.6214 H   0  0  0  0  0  0  0  0  0  0  0  0
  138.7188   72.6006  221.1636 H   0  0  0  0  0  0  0  0  0  0  0  0
  138.1250   70.5332  225.0075 H   0  0  0  0  0  0  0  0  0  0  0  0
  136.4014   70.8286  224.5020 H   0  0  0  0  0  0  0  0  0  0  0  0
  136.9379   68.4244  224.9147 H   0  0  0  0  0  0  0  0  0  0  0  0
  136.3477   68.7737  223.2612 H   0  0  0  0  0  0  0  0  0  0  0  0
  139.2747   68.5464  224.0976 H   0  0  0  0  0  0  0  0  0  0  0  0
  138.3344   67.2801  223.2480 H   0  0  0  0  0  0  0  0  0  0  0  0
  139.6543   68.6121  221.6779 H   0  0  0  0  0  0  0  0  0  0  0  0
  137.8708   68.8529  221.4313 H   0  0  0  0  0  0  0  0  0  0  0  0
  138.8872   70.9452  221.2304 H   0  0  0  0  0  0  0  0  0  0  0  0
  140.5996   69.8991  223.3939 H   0  0  0  0  0  0  0  0  0  0  0  0
  140.8923   71.2804  222.2489 H   0  0  0  0  0  0  0  0  0  0  0  0
  139.6620   72.7510  223.8900 H   0  0  0  0  0  0  0  0  0  0  0  0
  139.6249   69.3622  225.1312 H   0  0  0  0  0  0  0  0  0  0  0  0
  140.1578   68.6757  227.4488 H   0  0  0  0  0  0  0  0  0  0  0  0
  141.1579   70.3132  229.0118 H   0  0  0  0  0  0  0  0  0  0  0  0
  141.6071   72.6359  228.2276 H   0  0  0  0  0  0  0  0  0  0  0  0
  137.3324   76.7262  222.7514 H   0  0  0  0  0  0  0  0  0  0  0  0
  137.7305   79.1638  223.1810 H   0  0  0  0  0  0  0  0  0  0  0  0
  139.2614   81.0400  223.3398 H   0  0  0  0  0  0  0  0  0  0  0  0
  143.4644   80.4165  222.6338 H   0  0  0  0  0  0  0  0  0  0  0  0
  143.0513   77.9758  222.2118 H   0  0  0  0  0  0  0  0  0  0  0  0
  1  2  2  0
  2  3  1  0
  3  4  1  0
  4  5  1  0
  5  6  2  0
  5  7  1  0
  7  8  1  0
  8  9  1  0
  9 10  1  0
 10 11  1  0
 11 12  1  0
 12 13  1  0
 13 14  1  0
 14 15  1  0
 15 16  2  0
 16 17  1  0
 17 18  2  0
 18 19  1  0
 19 20  2  0
  2 21  1  0
 21 22  2  0
 22 23  1  0
 23 24  2  0
 24 25  1  0
 25 26  2  0
 26 27  1  0
 26 28  1  0
 28 29  2  0
 29 30  1  0
 30 31  2  0
 12  7  1  0
 20 15  1  0
 31 21  1  0
 30 24  1  0
  3 32  1  0
  4 33  1  0
  4 34  1  0
  8 35  1  0
  8 36  1  0
  9 37  1  0
  9 38  1  0
 10 39  1  0
 10 40  1  0
 11 41  1  0
 11 42  1  0
 12 43  1  6
 13 44  1  0
 13 45  1  0
 14 46  1  0
 16 47  1  0
 17 48  1  0
 18 49  1  0
 19 50  1  0
 22 51  1  0
 23 52  1  0
 25 53  1  0
 28 54  1  0
 29 55  1  0
M  END
>  <smiles>  (35) 
O=C(NCC(=O)N1CCCCC1CNc1ccccn1)c1ccc2cc(F)ccc2n1

>  <score_type>  (35) 
oracle

>  <origin>  (35) 
autodockgpu

>  <m_score__min__energy>  (35) 
-9.0299999999999994

>  <m_primary>  (35) 
energy

>  <rmsd>  (35) 
9.288024827775885

>  <m_score__min__rmsd>  (35) 
9.288024827775885

>  <meeko>  (35) 
{"free_energy": -7.66, "intermolecular_energy": -9.75, "internal_energy": -2.46, "cluster_size": 1, "cluster_id": 5, "rank_in_cluster": 1}

>  <energy>  (35) 
-7.7

>  <cluster_rmsd>  (35) 
1.01

>  <cluster>  (35) 
3

$$$$

     RDKit          3D

 55 58  0  0  0  0  0  0  0  0999 V2000
  141.3400   72.0320  221.4450 O   0  0  0  0  0  0  0  0  0  0  0  0
  140.3760   72.2270  222.2590 C   0  0  0  0  0  0  0  0  0  0  0  0
  139.4520   73.3020  222.0600 N   0  0  0  0  0  0  0  0  0  0  0  0
  139.5970   74.1880  220.9270 C   0  0  0  0  0  0  0  0  0  0  0  0
  140.3880   75.4100  221.2980 C   0  0  0  0  0  0  0  0  0  0  0  0
  140.2310   76.0090  222.3780 O   0  0  0  0  0  0  0  0  0  0  0  0
  141.3540   75.8890  220.3680 N   0  0  0  0  0  0  0  0  0  0  0  0
  142.6620   75.2680  220.2850 C   0  0  0  0  0  0  0  0  0  0  0  0
  143.0960   75.0140  218.8600 C   0  0  0  0  0  0  0  0  0  0  0  0
  143.0130   76.3010  218.0970 C   0  0  0  0  0  0  0  0  0  0  0  0
  141.5970   76.7670  218.0900 C   0  0  0  0  0  0  0  0  0  0  0  0
  141.0670   77.0020  219.4840 C   0  0  2  0  0  0  0  0  0  0  0  0
  141.7320   78.2310  220.0940 C   0  0  0  0  0  0  0  0  0  0  0  0
  141.8580   78.1320  221.5330 N   0  0  0  0  0  0  0  0  0  0  0  0
  141.9600   79.3310  222.3130 C   0  0  0  0  0  0  0  0  0  0  0  0
  141.1160   80.4110  222.0590 C   0  0  0  0  0  0  0  0  0  0  0  0
  141.2080   81.5660  222.8050 C   0  0  0  0  0  0  0  0  0  0  0  0
  142.1360   81.6520  223.8030 C   0  0  0  0  0  0  0  0  0  0  0  0
  142.9700   80.5720  224.0470 C   0  0  0  0  0  0  0  0  0  0  0  0
  142.8570   79.4430  223.2950 N   0  0  0  0  0  0  0  0  0  0  0  0
  140.2080   71.3410  223.4130 C   0  0  0  0  0  0  0  0  0  0  0  0
  139.5720   70.1350  223.2620 C   0  0  0  0  0  0  0  0  0  0  0  0
  139.4370   69.3260  224.3890 C   0  0  0  0  0  0  0  0  0  0  0  0
  139.9350   69.7400  225.6250 C   0  0  0  0  0  0  0  0  0  0  0  0
  139.8050   68.9450  226.7430 C   0  0  0  0  0  0  0  0  0  0  0  0
  140.3090   69.3800  227.9550 C   0  0  0  0  0  0  0  0  0  0  0  0
  140.2050   68.6340  229.0850 F   0  0  0  0  0  0  0  0  0  0  0  0
  140.9450   70.6170  228.0430 C   0  0  0  0  0  0  0  0  0  0  0  0
  141.0850   71.4320  226.9210 C   0  0  0  0  0  0  0  0  0  0  0  0
  140.5670   70.9560  225.7310 C   0  0  0  0  0  0  0  0  0  0  0  0
  140.6770   71.7080  224.6200 N   0  0  0  0  0  0  0  0  0  0  0  0
  138.6730   73.4470  222.7310 H   0  0  0  0  0  0  0  0  0  0  0  0
  140.1170   73.6548  220.1175 H   0  0  0  0  0  0  0  0  0  0  0  0
  138.5959   74.5044  220.5987 H   0  0  0  0  0  0  0  0  0  0  0  0
  143.3976   75.9307  220.7644 H   0  0  0  0  0  0  0  0  0  0  0  0
  142.6010   74.2942  220.7930 H   0  0  0  0  0  0  0  0  0  0  0  0
  144.1314   74.6429  218.8488 H   0  0  0  0  0  0  0  0  0  0  0  0
  142.4418   74.2605  218.3971 H   0  0  0  0  0  0  0  0  0  0  0  0
  143.6486   77.0581  218.5795 H   0  0  0  0  0  0  0  0  0  0  0  0
  143.3596   76.1456  217.0647 H   0  0  0  0  0  0  0  0  0  0  0  0
  141.5368   77.7087  217.5247 H   0  0  0  0  0  0  0  0  0  0  0  0
  140.9850   75.9806  217.6242 H   0  0  0  0  0  0  0  0  0  0  0  0
  139.9788   77.1314  219.3886 H   0  0  0  0  0  0  0  0  0  0  0  0
  142.7358   78.3427  219.6581 H   0  0  0  0  0  0  0  0  0  0  0  0
  141.0974   79.1015  219.8715 H   0  0  0  0  0  0  0  0  0  0  0  0
  141.8770   77.2160  222.0300 H   0  0  0  0  0  0  0  0  0  0  0  0
  140.3688   80.3405  221.2548 H   0  0  0  0  0  0  0  0  0  0  0  0
  140.5380   82.4135  222.5978 H   0  0  0  0  0  0  0  0  0  0  0  0
  142.2208   82.5678  224.4064 H   0  0  0  0  0  0  0  0  0  0  0  0
  143.7224   80.6273  224.8475 H   0  0  0  0  0  0  0  0  0  0  0  0
  139.1816   69.8169  222.2840 H   0  0  0  0  0  0  0  0  0  0  0  0
  138.9331   68.3520  224.3032 H   0  0  0  0  0  0  0  0  0  0  0  0
  139.3027   67.9690  226.6717 H   0  0  0  0  0  0  0  0  0  0  0  0
  141.3421   70.9549  229.0116 H   0  0  0  0  0  0  0  0  0  0  0  0
  141.5852   72.4099  226.9798 H   0  0  0  0  0  0  0  0  0  0  0  0
  1  2  2  0
  2  3  1  0
  3  4  1  0
  4  5  1  0
  5  6  2  0
  5  7  1  0
  7  8  1  0
  8  9  1  0
  9 10  1  0
 10 11  1  0
 11 12  1  0
 12 13  1  0
 13 14  1  0
 14 15  1  0
 15 16  2  0
 16 17  1  0
 17 18  2  0
 18 19  1  0
 19 20  2  0
  2 21  1  0
 21 22  2  0
 22 23  1  0
 23 24  2  0
 24 25  1  0
 25 26  2  0
 26 27  1  0
 26 28  1  0
 28 29  2  0
 29 30  1  0
 30 31  2  0
 12  7  1  0
 20 15  1  0
 31 21  1  0
 30 24  1  0
  3 32  1  0
  4 33  1  0
  4 34  1  0
  8 35  1  0
  8 36  1  0
  9 37  1  0
  9 38  1  0
 10 39  1  0
 10 40  1  0
 11 41  1  0
 11 42  1  0
 12 43  1  6
 13 44  1  0
 13 45  1  0
 14 46  1  0
 16 47  1  0
 17 48  1  0
 18 49  1  0
 19 50  1  0
 22 51  1  0
 23 52  1  0
 25 53  1  0
 28 54  1  0
 29 55  1  0
M  END
>  <smiles>  (36) 
O=C(NCC(=O)N1CCCCC1CNc1ccccn1)c1ccc2cc(F)ccc2n1

>  <score_type>  (36) 
oracle

>  <origin>  (36) 
autodockgpu

>  <m_score__min__energy>  (36) 
-9.0299999999999994

>  <m_primary>  (36) 
energy

>  <rmsd>  (36) 
2.3207209455149727

>  <m_score__min__rmsd>  (36) 
2.3207209455149727

>  <meeko>  (36) 
{"free_energy": -9.03, "intermolecular_energy": -11.12, "internal_energy": -2.11, "cluster_size": 31, "cluster_id": 1, "rank_in_cluster": 1}

>  <energy>  (36) 
-7.57

>  <cluster_rmsd>  (36) 
0.92

>  <cluster>  (36) 
3

$$$$

     RDKit          3D

 55 58  0  0  0  0  0  0  0  0999 V2000
  140.4350   71.0450  221.0950 O   0  0  0  0  0  0  0  0  0  0  0  0
  140.0990   71.6300  222.1790 C   0  0  0  0  0  0  0  0  0  0  0  0
  139.8590   73.0400  222.2080 N   0  0  0  0  0  0  0  0  0  0  0  0
  139.9930   73.8290  221.0050 C   0  0  0  0  0  0  0  0  0  0  0  0
  140.5100   75.2040  221.3180 C   0  0  0  0  0  0  0  0  0  0  0  0
  140.1510   75.8440  222.3240 O   0  0  0  0  0  0  0  0  0  0  0  0
  141.4500   75.7860  220.4200 N   0  0  0  0  0  0  0  0  0  0  0  0
  142.8040   75.2710  220.3420 C   0  0  0  0  0  0  0  0  0  0  0  0
  143.2790   75.0960  218.9180 C   0  0  0  0  0  0  0  0  0  0  0  0
  143.1070   76.3970  218.1930 C   0  0  0  0  0  0  0  0  0  0  0  0
  141.6590   76.7510  218.1750 C   0  0  0  0  0  0  0  0  0  0  0  0
  141.0910   76.9000  219.5650 C   0  0  2  0  0  0  0  0  0  0  0  0
  141.6480   78.1580  220.2230 C   0  0  0  0  0  0  0  0  0  0  0  0
  141.7700   78.0190  221.6600 N   0  0  0  0  0  0  0  0  0  0  0  0
  141.7880   79.1960  222.4790 C   0  0  0  0  0  0  0  0  0  0  0  0
  142.9980   79.7470  222.8970 C   0  0  0  0  0  0  0  0  0  0  0  0
  143.0230   80.8780  223.6830 C   0  0  0  0  0  0  0  0  0  0  0  0
  141.8480   81.4650  224.0550 C   0  0  0  0  0  0  0  0  0  0  0  0
  140.6490   80.9100  223.6340 C   0  0  0  0  0  0  0  0  0  0  0  0
  140.6540   79.7930  222.8570 N   0  0  0  0  0  0  0  0  0  0  0  0
  139.9550   70.8500  223.4100 C   0  0  0  0  0  0  0  0  0  0  0  0
  139.3430   69.6220  223.3740 C   0  0  0  0  0  0  0  0  0  0  0  0
  139.2300   68.9190  224.5720 C   0  0  0  0  0  0  0  0  0  0  0  0
  139.7250   69.4540  225.7610 C   0  0  0  0  0  0  0  0  0  0  0  0
  139.6170   68.7630  226.9480 C   0  0  0  0  0  0  0  0  0  0  0  0
  140.1170   69.3170  228.1120 C   0  0  0  0  0  0  0  0  0  0  0  0
  140.0340   68.6770  229.3070 F   0  0  0  0  0  0  0  0  0  0  0  0
  140.7280   70.5690  228.0820 C   0  0  0  0  0  0  0  0  0  0  0  0
  140.8460   71.2800  226.8890 C   0  0  0  0  0  0  0  0  0  0  0  0
  140.3320   70.6870  225.7510 C   0  0  0  0  0  0  0  0  0  0  0  0
  140.4220   71.3360  224.5750 N   0  0  0  0  0  0  0  0  0  0  0  0
  139.5850   73.5000  223.0990 H   0  0  0  0  0  0  0  0  0  0  0  0
  140.6948   73.3276  220.3223 H   0  0  0  0  0  0  0  0  0  0  0  0
  139.0023   73.9253  220.5368 H   0  0  0  0  0  0  0  0  0  0  0  0
  143.4780   75.9734  220.8542 H   0  0  0  0  0  0  0  0  0  0  0  0
  142.8111   74.2800  220.8194 H   0  0  0  0  0  0  0  0  0  0  0  0
  144.3404   74.8072  218.9143 H   0  0  0  0  0  0  0  0  0  0  0  0
  142.6937   74.3085  218.4207 H   0  0  0  0  0  0  0  0  0  0  0  0
  143.6737   77.1856  218.7097 H   0  0  0  0  0  0  0  0  0  0  0  0
  143.4807   76.3022  217.1628 H   0  0  0  0  0  0  0  0  0  0  0  0
  141.5336   77.7024  217.6373 H   0  0  0  0  0  0  0  0  0  0  0  0
  141.1180   75.9341  217.6751 H   0  0  0  0  0  0  0  0  0  0  0  0
  139.9976   76.9469  219.4543 H   0  0  0  0  0  0  0  0  0  0  0  0
  142.6426   78.3666  219.8021 H   0  0  0  0  0  0  0  0  0  0  0  0
  140.9464   78.9812  220.0229 H   0  0  0  0  0  0  0  0  0  0  0  0
  141.8440   77.0910  222.1260 H   0  0  0  0  0  0  0  0  0  0  0  0
  143.9440   79.2733  222.5958 H   0  0  0  0  0  0  0  0  0  0  0  0
  143.9830   81.3051  224.0086 H   0  0  0  0  0  0  0  0  0  0  0  0
  141.8523   82.3687  224.6821 H   0  0  0  0  0  0  0  0  0  0  0  0
  139.6950   81.3722  223.9278 H   0  0  0  0  0  0  0  0  0  0  0  0
  138.9551   69.2070  222.4320 H   0  0  0  0  0  0  0  0  0  0  0  0
  138.7452   67.9316  224.5799 H   0  0  0  0  0  0  0  0  0  0  0  0
  139.1349   67.7745  226.9696 H   0  0  0  0  0  0  0  0  0  0  0  0
  141.1227   71.0023  229.0129 H   0  0  0  0  0  0  0  0  0  0  0  0
  141.3267   72.2688  226.8546 H   0  0  0  0  0  0  0  0  0  0  0  0
  1  2  2  0
  2  3  1  0
  3  4  1  0
  4  5  1  0
  5  6  2  0
  5  7  1  0
  7  8  1  0
  8  9  1  0
  9 10  1  0
 10 11  1  0
 11 12  1  0
 12 13  1  0
 13 14  1  0
 14 15  1  0
 15 16  2  0
 16 17  1  0
 17 18  2  0
 18 19  1  0
 19 20  2  0
  2 21  1  0
 21 22  2  0
 22 23  1  0
 23 24  2  0
 24 25  1  0
 25 26  2  0
 26 27  1  0
 26 28  1  0
 28 29  2  0
 29 30  1  0
 30 31  2  0
 12  7  1  0
 20 15  1  0
 31 21  1  0
 30 24  1  0
  3 32  1  0
  4 33  1  0
  4 34  1  0
  8 35  1  0
  8 36  1  0
  9 37  1  0
  9 38  1  0
 10 39  1  0
 10 40  1  0
 11 41  1  0
 11 42  1  0
 12 43  1  6
 13 44  1  0
 13 45  1  0
 14 46  1  0
 16 47  1  0
 17 48  1  0
 18 49  1  0
 19 50  1  0
 22 51  1  0
 23 52  1  0
 25 53  1  0
 28 54  1  0
 29 55  1  0
M  END
>  <smiles>  (37) 
O=C(NCC(=O)N1CCCCC1CNc1ccccn1)c1ccc2cc(F)ccc2n1

>  <score_type>  (37) 
oracle

>  <origin>  (37) 
autodockgpu

>  <m_score__min__energy>  (37) 
-9.0299999999999994

>  <m_primary>  (37) 
energy

>  <rmsd>  (37) 
2.3906238207438086

>  <m_score__min__rmsd>  (37) 
2.3906238207438086

>  <meeko>  (37) 
{"free_energy": -8.91, "intermolecular_energy": -11.0, "internal_energy": -2.3, "cluster_size": 31, "cluster_id": 1, "rank_in_cluster": 5}

>  <energy>  (37) 
-7.51

>  <cluster_rmsd>  (37) 
1.33

>  <cluster>  (37) 
3

$$$$

     RDKit          3D

 55 58  0  0  0  0  0  0  0  0999 V2000
  139.9930   73.0030  222.6620 O   0  0  0  0  0  0  0  0  0  0  0  0
  140.0210   71.7380  222.8350 C   0  0  0  0  0  0  0  0  0  0  0  0
  139.7680   70.8410  221.7490 N   0  0  0  0  0  0  0  0  0  0  0  0
  139.4750   71.3570  220.4300 C   0  0  0  0  0  0  0  0  0  0  0  0
  140.5360   70.9510  219.4470 C   0  0  0  0  0  0  0  0  0  0  0  0
  140.3840   70.0120  218.6450 O   0  0  0  0  0  0  0  0  0  0  0  0
  141.7580   71.6810  219.4430 N   0  0  0  0  0  0  0  0  0  0  0  0
  142.2150   72.3400  218.2340 C   0  0  0  0  0  0  0  0  0  0  0  0
  142.7030   73.7480  218.4860 C   0  0  0  0  0  0  0  0  0  0  0  0
  143.7490   73.7070  219.5580 C   0  0  0  0  0  0  0  0  0  0  0  0
  143.1350   73.1810  220.8110 C   0  0  0  0  0  0  0  0  0  0  0  0
  142.5790   71.7890  220.6330 C   0  0  2  0  0  0  0  0  0  0  0  0
  143.7200   70.7890  220.4740 C   0  0  0  0  0  0  0  0  0  0  0  0
  143.3310   69.6320  219.6950 N   0  0  0  0  0  0  0  0  0  0  0  0
  144.3360   68.6950  219.2820 C   0  0  0  0  0  0  0  0  0  0  0  0
  144.2700   68.0980  218.0240 C   0  0  0  0  0  0  0  0  0  0  0  0
  145.2320   67.1980  217.6210 C   0  0  0  0  0  0  0  0  0  0  0  0
  146.2610   66.8890  218.4650 C   0  0  0  0  0  0  0  0  0  0  0  0
  146.3170   67.4890  219.7130 C   0  0  0  0  0  0  0  0  0  0  0  0
  145.3530   68.3750  220.0850 N   0  0  0  0  0  0  0  0  0  0  0  0
  140.3170   71.1930  224.1620 C   0  0  0  0  0  0  0  0  0  0  0  0
  140.8330   72.0100  225.1360 C   0  0  0  0  0  0  0  0  0  0  0  0
  141.0980   71.4460  226.3830 C   0  0  0  0  0  0  0  0  0  0  0  0
  140.8440   70.0950  226.6210 C   0  0  0  0  0  0  0  0  0  0  0  0
  141.1030   69.5320  227.8510 C   0  0  0  0  0  0  0  0  0  0  0  0
  140.8410   68.1890  228.0590 C   0  0  0  0  0  0  0  0  0  0  0  0
  141.0800   67.5870  229.2520 F   0  0  0  0  0  0  0  0  0  0  0  0
  140.3170   67.4130  227.0270 C   0  0  0  0  0  0  0  0  0  0  0  0
  140.0480   67.9690  225.7780 C   0  0  0  0  0  0  0  0  0  0  0  0
  140.3260   69.3130  225.6160 C   0  0  0  0  0  0  0  0  0  0  0  0
  140.0840   69.8950  224.4260 N   0  0  0  0  0  0  0  0  0  0  0  0
  139.7960   69.8150  221.9070 H   0  0  0  0  0  0  0  0  0  0  0  0
  138.5044   70.9614  220.0960 H   0  0  0  0  0  0  0  0  0  0  0  0
  139.4455   72.4554  220.4812 H   0  0  0  0  0  0  0  0  0  0  0  0
  143.0401   71.7533  217.8038 H   0  0  0  0  0  0  0  0  0  0  0  0
  141.3589   72.4032  217.5462 H   0  0  0  0  0  0  0  0  0  0  0  0
  143.1348   74.1613  217.5626 H   0  0  0  0  0  0  0  0  0  0  0  0
  141.8644   74.3851  218.8036 H   0  0  0  0  0  0  0  0  0  0  0  0
  144.5726   73.0483  219.2454 H   0  0  0  0  0  0  0  0  0  0  0  0
  144.1442   74.7186  219.7324 H   0  0  0  0  0  0  0  0  0  0  0  0
  143.9023   73.1579  221.5988 H   0  0  0  0  0  0  0  0  0  0  0  0
  142.3015   73.8452  221.0832 H   0  0  0  0  0  0  0  0  0  0  0  0
  141.9712   71.5766  221.5249 H   0  0  0  0  0  0  0  0  0  0  0  0
  144.5607   71.2884  219.9702 H   0  0  0  0  0  0  0  0  0  0  0  0
  144.0040   70.4395  221.4776 H   0  0  0  0  0  0  0  0  0  0  0  0
  142.3430   69.4500  219.4200 H   0  0  0  0  0  0  0  0  0  0  0  0
  143.4409   68.3482  217.3458 H   0  0  0  0  0  0  0  0  0  0  0  0
  145.1721   66.7314  216.6267 H   0  0  0  0  0  0  0  0  0  0  0  0
  147.0364   66.1720  218.1574 H   0  0  0  0  0  0  0  0  0  0  0  0
  147.1399   67.2494  220.4025 H   0  0  0  0  0  0  0  0  0  0  0  0
  141.0309   73.0741  224.9396 H   0  0  0  0  0  0  0  0  0  0  0  0
  141.5115   72.0723  227.1872 H   0  0  0  0  0  0  0  0  0  0  0  0
  141.5161   70.1468  228.6642 H   0  0  0  0  0  0  0  0  0  0  0  0
  140.1128   66.3462  227.2009 H   0  0  0  0  0  0  0  0  0  0  0  0
  139.6329   67.3652  224.9576 H   0  0  0  0  0  0  0  0  0  0  0  0
  1  2  2  0
  2  3  1  0
  3  4  1  0
  4  5  1  0
  5  6  2  0
  5  7  1  0
  7  8  1  0
  8  9  1  0
  9 10  1  0
 10 11  1  0
 11 12  1  0
 12 13  1  0
 13 14  1  0
 14 15  1  0
 15 16  2  0
 16 17  1  0
 17 18  2  0
 18 19  1  0
 19 20  2  0
  2 21  1  0
 21 22  2  0
 22 23  1  0
 23 24  2  0
 24 25  1  0
 25 26  2  0
 26 27  1  0
 26 28  1  0
 28 29  2  0
 29 30  1  0
 30 31  2  0
 12  7  1  0
 20 15  1  0
 31 21  1  0
 30 24  1  0
  3 32  1  0
  4 33  1  0
  4 34  1  0
  8 35  1  0
  8 36  1  0
  9 37  1  0
  9 38  1  0
 10 39  1  0
 10 40  1  0
 11 41  1  0
 11 42  1  0
 12 43  1  1
 13 44  1  0
 13 45  1  0
 14 46  1  0
 16 47  1  0
 17 48  1  0
 18 49  1  0
 19 50  1  0
 22 51  1  0
 23 52  1  0
 25 53  1  0
 28 54  1  0
 29 55  1  0
M  END
>  <smiles>  (38) 
O=C(NCC(=O)N1CCCCC1CNc1ccccn1)c1ccc2cc(F)ccc2n1

>  <score_type>  (38) 
oracle

>  <origin>  (38) 
autodockgpu

>  <m_score__min__energy>  (38) 
-9.0299999999999994

>  <m_primary>  (38) 
energy

>  <rmsd>  (38) 
7.187538386813908

>  <m_score__min__rmsd>  (38) 
7.187538386813908

>  <meeko>  (38) 
{"free_energy": -6.96, "intermolecular_energy": -9.05, "internal_energy": -2.63, "cluster_size": 2, "cluster_id": 2, "rank_in_cluster": 2}

>  <energy>  (38) 
-7.27

>  <cluster_rmsd>  (38) 
1.8

>  <cluster>  (38) 
3

$$$$

     RDKit          3D

 55 58  0  0  0  0  0  0  0  0999 V2000
  141.4130   72.3610  221.5320 O   0  0  0  0  0  0  0  0  0  0  0  0
  140.4020   72.5040  222.2990 C   0  0  0  0  0  0  0  0  0  0  0  0
  139.4530   73.5520  222.0780 N   0  0  0  0  0  0  0  0  0  0  0  0
  139.6250   74.4720  220.9750 C   0  0  0  0  0  0  0  0  0  0  0  0
  140.7620   75.4180  221.2380 C   0  0  0  0  0  0  0  0  0  0  0  0
  141.1430   75.7090  222.3860 O   0  0  0  0  0  0  0  0  0  0  0  0
  141.4220   75.9970  220.1160 N   0  0  0  0  0  0  0  0  0  0  0  0
  142.8670   75.9350  220.0040 C   0  0  0  0  0  0  0  0  0  0  0  0
  143.3270   75.5360  218.6210 C   0  0  0  0  0  0  0  0  0  0  0  0
  142.7040   76.4650  217.6230 C   0  0  0  0  0  0  0  0  0  0  0  0
  141.2220   76.3240  217.6930 C   0  0  0  0  0  0  0  0  0  0  0  0
  140.6810   76.6610  219.0620 C   0  0  2  0  0  0  0  0  0  0  0  0
  140.8030   78.1600  219.3150 C   0  0  0  0  0  0  0  0  0  0  0  0
  140.1960   78.5570  220.5680 N   0  0  0  0  0  0  0  0  0  0  0  0
  141.0210   79.1110  221.6030 C   0  0  0  0  0  0  0  0  0  0  0  0
  141.0400   78.5370  222.8730 C   0  0  0  0  0  0  0  0  0  0  0  0
  141.8310   79.0630  223.8710 C   0  0  0  0  0  0  0  0  0  0  0  0
  142.6040   80.1580  223.6110 C   0  0  0  0  0  0  0  0  0  0  0  0
  142.5770   80.7210  222.3440 C   0  0  0  0  0  0  0  0  0  0  0  0
  141.7870   80.1810  221.3770 N   0  0  0  0  0  0  0  0  0  0  0  0
  140.2070   71.5830  223.4210 C   0  0  0  0  0  0  0  0  0  0  0  0
  139.5230   70.4080  223.2300 C   0  0  0  0  0  0  0  0  0  0  0  0
  139.3630   69.5660  224.3280 C   0  0  0  0  0  0  0  0  0  0  0  0
  139.8840   69.9140  225.5750 C   0  0  0  0  0  0  0  0  0  0  0  0
  139.7290   69.0850  226.6640 C   0  0  0  0  0  0  0  0  0  0  0  0
  140.2560   69.4550  227.8880 C   0  0  0  0  0  0  0  0  0  0  0  0
  140.1290   68.6740  228.9910 F   0  0  0  0  0  0  0  0  0  0  0  0
  140.9390   70.6630  228.0170 C   0  0  0  0  0  0  0  0  0  0  0  0
  141.1050   71.5120  226.9240 C   0  0  0  0  0  0  0  0  0  0  0  0
  140.5620   71.1000  225.7210 C   0  0  0  0  0  0  0  0  0  0  0  0
  140.6960   71.8880  224.6370 N   0  0  0  0  0  0  0  0  0  0  0  0
  138.6360   73.6530  222.7110 H   0  0  0  0  0  0  0  0  0  0  0  0
  139.8364   73.9006  220.0591 H   0  0  0  0  0  0  0  0  0  0  0  0
  138.7009   75.0572  220.8582 H   0  0  0  0  0  0  0  0  0  0  0  0
  143.2814   76.9261  220.2406 H   0  0  0  0  0  0  0  0  0  0  0  0
  143.2226   75.1676  220.7073 H   0  0  0  0  0  0  0  0  0  0  0  0
  144.4230   75.6076  218.5600 H   0  0  0  0  0  0  0  0  0  0  0  0
  143.0252   74.4997  218.4091 H   0  0  0  0  0  0  0  0  0  0  0  0
  142.9878   77.5019  217.8561 H   0  0  0  0  0  0  0  0  0  0  0  0
  143.0551   76.2151  216.6109 H   0  0  0  0  0  0  0  0  0  0  0  0
  140.7665   77.0012  216.9555 H   0  0  0  0  0  0  0  0  0  0  0  0
  140.9722   75.2741  217.4802 H   0  0  0  0  0  0  0  0  0  0  0  0
  139.6327   76.3280  219.0769 H   0  0  0  0  0  0  0  0  0  0  0  0
  141.8693   78.4293  219.3375 H   0  0  0  0  0  0  0  0  0  0  0  0
  140.2737   78.6822  218.5044 H   0  0  0  0  0  0  0  0  0  0  0  0
  139.1750   78.4570  220.7500 H   0  0  0  0  0  0  0  0  0  0  0  0
  140.4168   77.6547  223.0807 H   0  0  0  0  0  0  0  0  0  0  0  0
  141.8397   78.6038  224.8705 H   0  0  0  0  0  0  0  0  0  0  0  0
  143.2410   80.5887  224.3976 H   0  0  0  0  0  0  0  0  0  0  0  0
  143.1941   81.6039  222.1209 H   0  0  0  0  0  0  0  0  0  0  0  0
  139.1154   70.1408  222.2439 H   0  0  0  0  0  0  0  0  0  0  0  0
  138.8201   68.6165  224.2109 H   0  0  0  0  0  0  0  0  0  0  0  0
  139.1883   68.1326  226.5606 H   0  0  0  0  0  0  0  0  0  0  0  0
  141.3528   70.9504  228.9948 H   0  0  0  0  0  0  0  0  0  0  0  0
  141.6437   72.4668  227.0144 H   0  0  0  0  0  0  0  0  0  0  0  0
  1  2  2  0
  2  3  1  0
  3  4  1  0
  4  5  1  0
  5  6  2  0
  5  7  1  0
  7  8  1  0
  8  9  1  0
  9 10  1  0
 10 11  1  0
 11 12  1  0
 12 13  1  0
 13 14  1  0
 14 15  1  0
 15 16  2  0
 16 17  1  0
 17 18  2  0
 18 19  1  0
 19 20  2  0
  2 21  1  0
 21 22  2  0
 22 23  1  0
 23 24  2  0
 24 25  1  0
 25 26  2  0
 26 27  1  0
 26 28  1  0
 28 29  2  0
 29 30  1  0
 30 31  2  0
 12  7  1  0
 20 15  1  0
 31 21  1  0
 30 24  1  0
  3 32  1  0
  4 33  1  0
  4 34  1  0
  8 35  1  0
  8 36  1  0
  9 37  1  0
  9 38  1  0
 10 39  1  0
 10 40  1  0
 11 41  1  0
 11 42  1  0
 12 43  1  6
 13 44  1  0
 13 45  1  0
 14 46  1  0
 16 47  1  0
 17 48  1  0
 18 49  1  0
 19 50  1  0
 22 51  1  0
 23 52  1  0
 25 53  1  0
 28 54  1  0
 29 55  1  0
M  END
>  <smiles>  (39) 
O=C(NCC(=O)N1CCCCC1CNc1ccccn1)c1ccc2cc(F)ccc2n1

>  <score_type>  (39) 
oracle

>  <origin>  (39) 
autodockgpu

>  <m_score__min__energy>  (39) 
-9.0299999999999994

>  <m_primary>  (39) 
energy

>  <rmsd>  (39) 
2.600648281424119

>  <m_score__min__rmsd>  (39) 
2.600648281424119

>  <meeko>  (39) 
{"free_energy": -8.23, "intermolecular_energy": -10.32, "internal_energy": -1.7, "cluster_size": 31, "cluster_id": 1, "rank_in_cluster": 14}

>  <energy>  (39) 
-8.04

>  <cluster_rmsd>  (39) 
0.0

>  <cluster>  (39) 
4

$$$$

     RDKit          3D

 55 58  0  0  0  0  0  0  0  0999 V2000
  141.4020   72.1650  221.4410 O   0  0  0  0  0  0  0  0  0  0  0  0
  140.4440   72.4080  222.2500 C   0  0  0  0  0  0  0  0  0  0  0  0
  139.5770   73.5290  222.0460 N   0  0  0  0  0  0  0  0  0  0  0  0
  139.7740   74.4080  220.9160 C   0  0  0  0  0  0  0  0  0  0  0  0
  140.8190   75.4450  221.2160 C   0  0  0  0  0  0  0  0  0  0  0  0
  141.0830   75.8150  222.3740 O   0  0  0  0  0  0  0  0  0  0  0  0
  141.5270   76.0160  220.1210 N   0  0  0  0  0  0  0  0  0  0  0  0
  142.8440   75.5220  219.7620 C   0  0  0  0  0  0  0  0  0  0  0  0
  143.0020   75.3150  218.2740 C   0  0  0  0  0  0  0  0  0  0  0  0
  142.6470   76.5910  217.5730 C   0  0  0  0  0  0  0  0  0  0  0  0
  141.2220   76.9190  217.8610 C   0  0  0  0  0  0  0  0  0  0  0  0
  140.9660   77.0990  219.3380 C   0  0  2  0  0  0  0  0  0  0  0  0
  141.6240   78.3850  219.8280 C   0  0  0  0  0  0  0  0  0  0  0  0
  142.1090   78.2700  221.1880 N   0  0  0  0  0  0  0  0  0  0  0  0
  142.1280   79.4340  222.0260 C   0  0  0  0  0  0  0  0  0  0  0  0
  141.3290   80.5350  221.7220 C   0  0  0  0  0  0  0  0  0  0  0  0
  141.3420   81.6550  222.5240 C   0  0  0  0  0  0  0  0  0  0  0  0
  142.1450   81.6850  223.6280 C   0  0  0  0  0  0  0  0  0  0  0  0
  142.9360   80.5850  223.9210 C   0  0  0  0  0  0  0  0  0  0  0  0
  142.9030   79.4910  223.1120 N   0  0  0  0  0  0  0  0  0  0  0  0
  140.2250   71.5310  223.4010 C   0  0  0  0  0  0  0  0  0  0  0  0
  139.5480   70.3480  223.2400 C   0  0  0  0  0  0  0  0  0  0  0  0
  139.3650   69.5470  224.3660 C   0  0  0  0  0  0  0  0  0  0  0  0
  139.8560   69.9440  225.6090 C   0  0  0  0  0  0  0  0  0  0  0  0
  139.6780   69.1560  226.7250 C   0  0  0  0  0  0  0  0  0  0  0  0
  140.1760   69.5740  227.9460 C   0  0  0  0  0  0  0  0  0  0  0  0
  140.0260   68.8350  229.0750 F   0  0  0  0  0  0  0  0  0  0  0  0
  140.8550   70.7880  228.0440 C   0  0  0  0  0  0  0  0  0  0  0  0
  141.0430   71.5950  226.9240 C   0  0  0  0  0  0  0  0  0  0  0  0
  140.5290   71.1370  225.7260 C   0  0  0  0  0  0  0  0  0  0  0  0
  140.6850   71.8830  224.6160 N   0  0  0  0  0  0  0  0  0  0  0  0
  138.8020   73.7120  222.7130 H   0  0  0  0  0  0  0  0  0  0  0  0
  140.0966   73.8126  220.0491 H   0  0  0  0  0  0  0  0  0  0  0  0
  138.8244   74.9197  220.7004 H   0  0  0  0  0  0  0  0  0  0  0  0
  143.5969   76.2501  220.0981 H   0  0  0  0  0  0  0  0  0  0  0  0
  142.9774   74.5452  220.2499 H   0  0  0  0  0  0  0  0  0  0  0  0
  144.0436   75.0445  218.0461 H   0  0  0  0  0  0  0  0  0  0  0  0
  142.3407   74.5038  217.9353 H   0  0  0  0  0  0  0  0  0  0  0  0
  143.2936   77.4038  217.9354 H   0  0  0  0  0  0  0  0  0  0  0  0
  142.7909   76.4734  216.4888 H   0  0  0  0  0  0  0  0  0  0  0  0
  140.9608   77.8518  217.3398 H   0  0  0  0  0  0  0  0  0  0  0  0
  140.6044   76.0787  217.5109 H   0  0  0  0  0  0  0  0  0  0  0  0
  139.8739   77.1248  219.4671 H   0  0  0  0  0  0  0  0  0  0  0  0
  142.4720   78.6220  219.1687 H   0  0  0  0  0  0  0  0  0  0  0  0
  140.8648   79.1808  219.8073 H   0  0  0  0  0  0  0  0  0  0  0  0
  142.4480   77.3690  221.5850 H   0  0  0  0  0  0  0  0  0  0  0  0
  140.6817   80.5093  220.8330 H   0  0  0  0  0  0  0  0  0  0  0  0
  140.7092   82.5201  222.2765 H   0  0  0  0  0  0  0  0  0  0  0  0
  142.1640   82.5724  224.2778 H   0  0  0  0  0  0  0  0  0  0  0  0
  143.5893   80.5963  224.8059 H   0  0  0  0  0  0  0  0  0  0  0  0
  139.1630   70.0424  222.2560 H   0  0  0  0  0  0  0  0  0  0  0  0
  138.8276   68.5917  224.2729 H   0  0  0  0  0  0  0  0  0  0  0  0
  139.1422   68.1986  226.6455 H   0  0  0  0  0  0  0  0  0  0  0  0
  141.2475   71.1129  229.0189 H   0  0  0  0  0  0  0  0  0  0  0  0
  141.5770   72.5544  226.9905 H   0  0  0  0  0  0  0  0  0  0  0  0
  1  2  2  0
  2  3  1  0
  3  4  1  0
  4  5  1  0
  5  6  2  0
  5  7  1  0
  7  8  1  0
  8  9  1  0
  9 10  1  0
 10 11  1  0
 11 12  1  0
 12 13  1  0
 13 14  1  0
 14 15  1  0
 15 16  2  0
 16 17  1  0
 17 18  2  0
 18 19  1  0
 19 20  2  0
  2 21  1  0
 21 22  2  0
 22 23  1  0
 23 24  2  0
 24 25  1  0
 25 26  2  0
 26 27  1  0
 26 28  1  0
 28 29  2  0
 29 30  1  0
 30 31  2  0
 12  7  1  0
 20 15  1  0
 31 21  1  0
 30 24  1  0
  3 32  1  0
  4 33  1  0
  4 34  1  0
  8 35  1  0
  8 36  1  0
  9 37  1  0
  9 38  1  0
 10 39  1  0
 10 40  1  0
 11 41  1  0
 11 42  1  0
 12 43  1  6
 13 44  1  0
 13 45  1  0
 14 46  1  0
 16 47  1  0
 17 48  1  0
 18 49  1  0
 19 50  1  0
 22 51  1  0
 23 52  1  0
 25 53  1  0
 28 54  1  0
 29 55  1  0
M  END
>  <smiles>  (40) 
O=C(NCC(=O)N1CCCCC1CNc1ccccn1)c1ccc2cc(F)ccc2n1

>  <score_type>  (40) 
oracle

>  <origin>  (40) 
autodockgpu

>  <m_score__min__energy>  (40) 
-9.0299999999999994

>  <m_primary>  (40) 
energy

>  <rmsd>  (40) 
2.3029932090037213

>  <m_score__min__rmsd>  (40) 
2.3029932090037213

>  <meeko>  (40) 
{"free_energy": -8.98, "intermolecular_energy": -11.07, "internal_energy": -2.07, "cluster_size": 31, "cluster_id": 1, "rank_in_cluster": 3}

>  <energy>  (40) 
-8.03

>  <cluster_rmsd>  (40) 
1.05

>  <cluster>  (40) 
4

$$$$

     RDKit          3D

 55 58  0  0  0  0  0  0  0  0999 V2000
  140.2880   73.6010  222.3420 O   0  0  0  0  0  0  0  0  0  0  0  0
  140.4510   72.3380  222.2430 C   0  0  0  0  0  0  0  0  0  0  0  0
  140.8460   71.7430  221.0020 N   0  0  0  0  0  0  0  0  0  0  0  0
  141.0690   72.5670  219.8360 C   0  0  0  0  0  0  0  0  0  0  0  0
  142.3070   72.1360  219.1020 C   0  0  0  0  0  0  0  0  0  0  0  0
  142.2880   71.2820  218.1970 O   0  0  0  0  0  0  0  0  0  0  0  0
  143.5450   72.7380  219.4680 N   0  0  0  0  0  0  0  0  0  0  0  0
  143.8810   74.0680  218.9950 C   0  0  0  0  0  0  0  0  0  0  0  0
  144.4400   74.9490  220.0870 C   0  0  0  0  0  0  0  0  0  0  0  0
  145.6010   74.2460  220.7220 C   0  0  0  0  0  0  0  0  0  0  0  0
  145.1190   72.9750  221.3340 C   0  0  0  0  0  0  0  0  0  0  0  0
  144.5000   72.0500  220.3140 C   0  0  2  0  0  0  0  0  0  0  0  0
  145.5810   71.4920  219.3940 C   0  0  0  0  0  0  0  0  0  0  0  0
  145.0450   70.5690  218.4140 N   0  0  0  0  0  0  0  0  0  0  0  0
  145.3580   69.1730  218.5210 C   0  0  0  0  0  0  0  0  0  0  0  0
  145.3260   68.3540  217.3940 C   0  0  0  0  0  0  0  0  0  0  0  0
  145.6260   67.0130  217.4900 C   0  0  0  0  0  0  0  0  0  0  0  0
  145.9590   66.4830  218.7030 C   0  0  0  0  0  0  0  0  0  0  0  0
  145.9890   67.3060  219.8180 C   0  0  0  0  0  0  0  0  0  0  0  0
  145.6880   68.6270  219.6950 N   0  0  0  0  0  0  0  0  0  0  0  0
  140.2310   71.4830  223.4110 C   0  0  0  0  0  0  0  0  0  0  0  0
  139.5470   70.3010  223.2750 C   0  0  0  0  0  0  0  0  0  0  0  0
  139.3630   69.5220  224.4160 C   0  0  0  0  0  0  0  0  0  0  0  0
  139.8610   69.9400  225.6500 C   0  0  0  0  0  0  0  0  0  0  0  0
  139.6830   69.1740  226.7810 C   0  0  0  0  0  0  0  0  0  0  0  0
  140.1890   69.6120  227.9920 C   0  0  0  0  0  0  0  0  0  0  0  0
  140.0390   68.8950  229.1350 F   0  0  0  0  0  0  0  0  0  0  0  0
  140.8740   70.8230  228.0650 C   0  0  0  0  0  0  0  0  0  0  0  0
  141.0630   71.6090  226.9290 C   0  0  0  0  0  0  0  0  0  0  0  0
  140.5420   71.1310  225.7410 C   0  0  0  0  0  0  0  0  0  0  0  0
  140.6980   71.8550  224.6170 N   0  0  0  0  0  0  0  0  0  0  0  0
  140.9740   70.7140  220.9390 H   0  0  0  0  0  0  0  0  0  0  0  0
  140.2031   72.4803  219.1631 H   0  0  0  0  0  0  0  0  0  0  0  0
  141.1998   73.6092  220.1627 H   0  0  0  0  0  0  0  0  0  0  0  0
  144.6315   73.9785  218.1958 H   0  0  0  0  0  0  0  0  0  0  0  0
  142.9545   74.5360  218.6310 H   0  0  0  0  0  0  0  0  0  0  0  0
  144.7755   75.9042  219.6570 H   0  0  0  0  0  0  0  0  0  0  0  0
  143.6647   75.1501  220.8410 H   0  0  0  0  0  0  0  0  0  0  0  0
  146.3607   74.0234  219.9582 H   0  0  0  0  0  0  0  0  0  0  0  0
  146.0471   74.8872  221.4965 H   0  0  0  0  0  0  0  0  0  0  0  0
  145.9711   72.4633  221.8053 H   0  0  0  0  0  0  0  0  0  0  0  0
  144.3453   73.2284  222.0737 H   0  0  0  0  0  0  0  0  0  0  0  0
  143.9924   71.2537  220.8782 H   0  0  0  0  0  0  0  0  0  0  0  0
  146.0628   72.3282  218.8662 H   0  0  0  0  0  0  0  0  0  0  0  0
  146.3020   70.9416  220.0163 H   0  0  0  0  0  0  0  0  0  0  0  0
  144.4370   70.8810  217.6290 H   0  0  0  0  0  0  0  0  0  0  0  0
  145.0583   68.7830  216.4171 H   0  0  0  0  0  0  0  0  0  0  0  0
  145.5974   66.3737  216.5953 H   0  0  0  0  0  0  0  0  0  0  0  0
  146.2010   65.4139  218.7948 H   0  0  0  0  0  0  0  0  0  0  0  0
  146.2559   66.8914  220.8013 H   0  0  0  0  0  0  0  0  0  0  0  0
  139.1570   69.9792  222.2981 H   0  0  0  0  0  0  0  0  0  0  0  0
  138.8198   68.5683  224.3426 H   0  0  0  0  0  0  0  0  0  0  0  0
  139.1411   68.2186  226.7217 H   0  0  0  0  0  0  0  0  0  0  0  0
  141.2713   71.1638  229.0325 H   0  0  0  0  0  0  0  0  0  0  0  0
  141.6025   72.5665  226.9759 H   0  0  0  0  0  0  0  0  0  0  0  0
  1  2  2  0
  2  3  1  0
  3  4  1  0
  4  5  1  0
  5  6  2  0
  5  7  1  0
  7  8  1  0
  8  9  1  0
  9 10  1  0
 10 11  1  0
 11 12  1  0
 12 13  1  0
 13 14  1  0
 14 15  1  0
 15 16  2  0
 16 17  1  0
 17 18  2  0
 18 19  1  0
 19 20  2  0
  2 21  1  0
 21 22  2  0
 22 23  1  0
 23 24  2  0
 24 25  1  0
 25 26  2  0
 26 27  1  0
 26 28  1  0
 28 29  2  0
 29 30  1  0
 30 31  2  0
 12  7  1  0
 20 15  1  0
 31 21  1  0
 30 24  1  0
  3 32  1  0
  4 33  1  0
  4 34  1  0
  8 35  1  0
  8 36  1  0
  9 37  1  0
  9 38  1  0
 10 39  1  0
 10 40  1  0
 11 41  1  0
 11 42  1  0
 12 43  1  1
 13 44  1  0
 13 45  1  0
 14 46  1  0
 16 47  1  0
 17 48  1  0
 18 49  1  0
 19 50  1  0
 22 51  1  0
 23 52  1  0
 25 53  1  0
 28 54  1  0
 29 55  1  0
M  END
>  <smiles>  (41) 
O=C(NCC(=O)N1CCCCC1CNc1ccccn1)c1ccc2cc(F)ccc2n1

>  <score_type>  (41) 
oracle

>  <origin>  (41) 
autodockgpu

>  <m_score__min__energy>  (41) 
-9.0299999999999994

>  <m_primary>  (41) 
energy

>  <rmsd>  (41) 
7.240723069304482

>  <m_score__min__rmsd>  (41) 
7.240723069304482

>  <meeko>  (41) 
{"free_energy": -8.36, "intermolecular_energy": -10.45, "internal_energy": -2.05, "cluster_size": 2, "cluster_id": 2, "rank_in_cluster": 1}

>  <energy>  (41) 
-7.95

>  <cluster_rmsd>  (41) 
1.28

>  <cluster>  (41) 
4

$$$$

     RDKit          3D

 55 58  0  0  0  0  0  0  0  0999 V2000
  138.9260   72.5480  221.5180 O   0  0  0  0  0  0  0  0  0  0  0  0
  140.0010   72.1510  222.0810 C   0  0  0  0  0  0  0  0  0  0  0  0
  141.2820   72.4940  221.5430 N   0  0  0  0  0  0  0  0  0  0  0  0
  141.3790   73.3010  220.3470 C   0  0  0  0  0  0  0  0  0  0  0  0
  141.3280   74.7640  220.6800 C   0  0  0  0  0  0  0  0  0  0  0  0
  142.3520   75.4520  220.8460 O   0  0  0  0  0  0  0  0  0  0  0  0
  140.0490   75.3770  220.8070 N   0  0  0  0  0  0  0  0  0  0  0  0
  139.2950   75.7510  219.6250 C   0  0  0  0  0  0  0  0  0  0  0  0
  137.8420   75.3470  219.7090 C   0  0  0  0  0  0  0  0  0  0  0  0
  137.2610   75.9080  220.9720 C   0  0  0  0  0  0  0  0  0  0  0  0
  137.9880   75.3260  222.1360 C   0  0  0  0  0  0  0  0  0  0  0  0
  139.4630   75.6450  222.1050 C   0  0  2  0  0  0  0  0  0  0  0  0
  139.6810   77.1280  222.3890 C   0  0  0  0  0  0  0  0  0  0  0  0
  141.0860   77.4690  222.4790 N   0  0  0  0  0  0  0  0  0  0  0  0
  141.4610   78.7850  222.9090 C   0  0  0  0  0  0  0  0  0  0  0  0
  142.7830   79.2130  222.8010 C   0  0  0  0  0  0  0  0  0  0  0  0
  143.1500   80.4760  223.2100 C   0  0  0  0  0  0  0  0  0  0  0  0
  142.2060   81.3170  223.7280 C   0  0  0  0  0  0  0  0  0  0  0  0
  140.8940   80.8820  223.8310 C   0  0  0  0  0  0  0  0  0  0  0  0
  140.5590   79.6290  223.4180 N   0  0  0  0  0  0  0  0  0  0  0  0
  139.9270   71.3340  223.2940 C   0  0  0  0  0  0  0  0  0  0  0  0
  139.2730   70.1280  223.2670 C   0  0  0  0  0  0  0  0  0  0  0  0
  139.2300   69.3870  224.4460 C   0  0  0  0  0  0  0  0  0  0  0  0
  139.8330   69.8640  225.6090 C   0  0  0  0  0  0  0  0  0  0  0  0
  139.7940   69.1360  226.7780 C   0  0  0  0  0  0  0  0  0  0  0  0
  140.4020   69.6330  227.9170 C   0  0  0  0  0  0  0  0  0  0  0  0
  140.3900   68.9550  229.0930 F   0  0  0  0  0  0  0  0  0  0  0  0
  141.0500   70.8670  227.8790 C   0  0  0  0  0  0  0  0  0  0  0  0
  141.1000   71.6150  226.7040 C   0  0  0  0  0  0  0  0  0  0  0  0
  140.4790   71.0780  225.5920 C   0  0  0  0  0  0  0  0  0  0  0  0
  140.4990   71.7640  224.4340 N   0  0  0  0  0  0  0  0  0  0  0  0
  142.1470   72.1640  222.0130 H   0  0  0  0  0  0  0  0  0  0  0  0
  142.3300   73.0803  219.8402 H   0  0  0  0  0  0  0  0  0  0  0  0
  140.5286   73.0607  219.6919 H   0  0  0  0  0  0  0  0  0  0  0  0
  139.3503   76.8428  219.5031 H   0  0  0  0  0  0  0  0  0  0  0  0
  139.7378   75.2232  218.7674 H   0  0  0  0  0  0  0  0  0  0  0  0
  137.2960   75.7454  218.8412 H   0  0  0  0  0  0  0  0  0  0  0  0
  137.7568   74.2503  219.7113 H   0  0  0  0  0  0  0  0  0  0  0  0
  137.3728   77.0023  220.9760 H   0  0  0  0  0  0  0  0  0  0  0  0
  136.1921   75.6561  221.0354 H   0  0  0  0  0  0  0  0  0  0  0  0
  137.5570   75.7333  223.0624 H   0  0  0  0  0  0  0  0  0  0  0  0
  137.8782   74.2325  222.0901 H   0  0  0  0  0  0  0  0  0  0  0  0
  139.9380   75.0088  222.8663 H   0  0  0  0  0  0  0  0  0  0  0  0
  139.2258   77.7144  221.5773 H   0  0  0  0  0  0  0  0  0  0  0  0
  139.2159   77.3571  223.3592 H   0  0  0  0  0  0  0  0  0  0  0  0
  141.8410   76.7920  222.2440 H   0  0  0  0  0  0  0  0  0  0  0  0
  143.5419   78.5344  222.3844 H   0  0  0  0  0  0  0  0  0  0  0  0
  144.1957   80.8052  223.1203 H   0  0  0  0  0  0  0  0  0  0  0  0
  142.4842   82.3283  224.0597 H   0  0  0  0  0  0  0  0  0  0  0  0
  140.1240   81.5489  224.2462 H   0  0  0  0  0  0  0  0  0  0  0  0
  138.7988   69.7588  222.3457 H   0  0  0  0  0  0  0  0  0  0  0  0
  138.7148   68.4152  224.4594 H   0  0  0  0  0  0  0  0  0  0  0  0
  139.2814   68.1632  226.8056 H   0  0  0  0  0  0  0  0  0  0  0  0
  141.5288   71.2559  228.7898 H   0  0  0  0  0  0  0  0  0  0  0  0
  141.6105   72.5885  226.6634 H   0  0  0  0  0  0  0  0  0  0  0  0
  1  2  2  0
  2  3  1  0
  3  4  1  0
  4  5  1  0
  5  6  2  0
  5  7  1  0
  7  8  1  0
  8  9  1  0
  9 10  1  0
 10 11  1  0
 11 12  1  0
 12 13  1  0
 13 14  1  0
 14 15  1  0
 15 16  2  0
 16 17  1  0
 17 18  2  0
 18 19  1  0
 19 20  2  0
  2 21  1  0
 21 22  2  0
 22 23  1  0
 23 24  2  0
 24 25  1  0
 25 26  2  0
 26 27  1  0
 26 28  1  0
 28 29  2  0
 29 30  1  0
 30 31  2  0
 12  7  1  0
 20 15  1  0
 31 21  1  0
 30 24  1  0
  3 32  1  0
  4 33  1  0
  4 34  1  0
  8 35  1  0
  8 36  1  0
  9 37  1  0
  9 38  1  0
 10 39  1  0
 10 40  1  0
 11 41  1  0
 11 42  1  0
 12 43  1  1
 13 44  1  0
 13 45  1  0
 14 46  1  0
 16 47  1  0
 17 48  1  0
 18 49  1  0
 19 50  1  0
 22 51  1  0
 23 52  1  0
 25 53  1  0
 28 54  1  0
 29 55  1  0
M  END
>  <smiles>  (42) 
O=C(NCC(=O)N1CCCCC1CNc1ccccn1)c1ccc2cc(F)ccc2n1

>  <score_type>  (42) 
oracle

>  <origin>  (42) 
autodockgpu

>  <m_score__min__energy>  (42) 
-9.0299999999999994

>  <m_primary>  (42) 
energy

>  <rmsd>  (42) 
2.860447869171843

>  <m_score__min__rmsd>  (42) 
2.860447869171843

>  <meeko>  (42) 
{"free_energy": -7.84, "intermolecular_energy": -9.92, "internal_energy": -2.42, "cluster_size": 31, "cluster_id": 1, "rank_in_cluster": 28}

>  <energy>  (42) 
-7.66

>  <cluster_rmsd>  (42) 
0.0

>  <cluster>  (42) 
5

$$$$

     RDKit          3D

 55 58  0  0  0  0  0  0  0  0999 V2000
  138.2320   70.4720  221.7510 O   0  0  0  0  0  0  0  0  0  0  0  0
  138.8180   71.0230  222.7440 C   0  0  0  0  0  0  0  0  0  0  0  0
  139.1380   72.4180  222.7270 N   0  0  0  0  0  0  0  0  0  0  0  0
  138.8000   73.2300  221.5800 C   0  0  0  0  0  0  0  0  0  0  0  0
  139.2240   74.6560  221.7880 C   0  0  0  0  0  0  0  0  0  0  0  0
  140.3980   74.9770  222.0440 O   0  0  0  0  0  0  0  0  0  0  0  0
  138.2300   75.6710  221.6840 N   0  0  0  0  0  0  0  0  0  0  0  0
  137.5940   75.9450  220.4090 C   0  0  0  0  0  0  0  0  0  0  0  0
  136.0940   76.0880  220.5260 C   0  0  0  0  0  0  0  0  0  0  0  0
  135.7910   77.1260  221.5640 C   0  0  0  0  0  0  0  0  0  0  0  0
  136.3320   76.6680  222.8750 C   0  0  0  0  0  0  0  0  0  0  0  0
  137.8260   76.4560  222.8340 C   0  0  2  0  0  0  0  0  0  0  0  0
  138.5400   77.7990  222.7230 C   0  0  0  0  0  0  0  0  0  0  0  0
  139.9810   77.6550  222.7040 N   0  0  0  0  0  0  0  0  0  0  0  0
  140.8030   78.7970  222.9820 C   0  0  0  0  0  0  0  0  0  0  0  0
  142.1570   78.7900  222.6500 C   0  0  0  0  0  0  0  0  0  0  0  0
  142.9520   79.8840  222.9140 C   0  0  0  0  0  0  0  0  0  0  0  0
  142.4050   80.9870  223.5050 C   0  0  0  0  0  0  0  0  0  0  0  0
  141.0580   80.9840  223.8310 C   0  0  0  0  0  0  0  0  0  0  0  0
  140.2950   79.8900  223.5590 N   0  0  0  0  0  0  0  0  0  0  0  0
  139.1690   70.2200  223.9160 C   0  0  0  0  0  0  0  0  0  0  0  0
  138.8880   68.8760  223.9330 C   0  0  0  0  0  0  0  0  0  0  0  0
  139.2410   68.1540  225.0720 C   0  0  0  0  0  0  0  0  0  0  0  0
  139.8570   68.7850  226.1520 C   0  0  0  0  0  0  0  0  0  0  0  0
  140.2080   68.0770  227.2810 C   0  0  0  0  0  0  0  0  0  0  0  0
  140.8190   68.7290  228.3370 C   0  0  0  0  0  0  0  0  0  0  0  0
  141.1830   68.0760  229.4710 F   0  0  0  0  0  0  0  0  0  0  0  0
  141.0760   70.0960  228.2580 C   0  0  0  0  0  0  0  0  0  0  0  0
  140.7270   70.8270  227.1230 C   0  0  0  0  0  0  0  0  0  0  0  0
  140.1200   70.1330  226.0930 C   0  0  0  0  0  0  0  0  0  0  0  0
  139.7640   70.7960  224.9760 N   0  0  0  0  0  0  0  0  0  0  0  0
  139.6130   72.8500  223.5430 H   0  0  0  0  0  0  0  0  0  0  0  0
  139.3101   72.8287  220.6919 H   0  0  0  0  0  0  0  0  0  0  0  0
  137.7091   73.2048  221.4412 H   0  0  0  0  0  0  0  0  0  0  0  0
  138.0064   76.8807  220.0035 H   0  0  0  0  0  0  0  0  0  0  0  0
  137.7963   75.0911  219.7457 H   0  0  0  0  0  0  0  0  0  0  0  0
  135.6749   76.3991  219.5577 H   0  0  0  0  0  0  0  0  0  0  0  0
  135.6467   75.1257  220.8157 H   0  0  0  0  0  0  0  0  0  0  0  0
  136.2626   78.0790  221.2822 H   0  0  0  0  0  0  0  0  0  0  0  0
  134.7034   77.2721  221.6395 H   0  0  0  0  0  0  0  0  0  0  0  0
  136.1030   77.4273  223.6372 H   0  0  0  0  0  0  0  0  0  0  0  0
  135.8611   75.7035  223.1157 H   0  0  0  0  0  0  0  0  0  0  0  0
  138.0942   75.9265  223.7601 H   0  0  0  0  0  0  0  0  0  0  0  0
  138.2215   78.2933  221.7934 H   0  0  0  0  0  0  0  0  0  0  0  0
  138.2729   78.3964  223.6072 H   0  0  0  0  0  0  0  0  0  0  0  0
  140.4480   76.7480  222.4950 H   0  0  0  0  0  0  0  0  0  0  0  0
  142.5954   77.9015  222.1721 H   0  0  0  0  0  0  0  0  0  0  0  0
  144.0199   79.8691  222.6506 H   0  0  0  0  0  0  0  0  0  0  0  0
  143.0270   81.8684  223.7200 H   0  0  0  0  0  0  0  0  0  0  0  0
  140.6056   81.8653  224.3093 H   0  0  0  0  0  0  0  0  0  0  0  0
  138.4010   68.3859  223.0771 H   0  0  0  0  0  0  0  0  0  0  0  0
  139.0314   67.0752  225.1192 H   0  0  0  0  0  0  0  0  0  0  0  0
  140.0032   66.9980  227.3422 H   0  0  0  0  0  0  0  0  0  0  0  0
  141.5613   70.6060  229.1032 H   0  0  0  0  0  0  0  0  0  0  0  0
  140.9256   71.9065  227.0506 H   0  0  0  0  0  0  0  0  0  0  0  0
  1  2  2  0
  2  3  1  0
  3  4  1  0
  4  5  1  0
  5  6  2  0
  5  7  1  0
  7  8  1  0
  8  9  1  0
  9 10  1  0
 10 11  1  0
 11 12  1  0
 12 13  1  0
 13 14  1  0
 14 15  1  0
 15 16  2  0
 16 17  1  0
 17 18  2  0
 18 19  1  0
 19 20  2  0
  2 21  1  0
 21 22  2  0
 22 23  1  0
 23 24  2  0
 24 25  1  0
 25 26  2  0
 26 27  1  0
 26 28  1  0
 28 29  2  0
 29 30  1  0
 30 31  2  0
 12  7  1  0
 20 15  1  0
 31 21  1  0
 30 24  1  0
  3 32  1  0
  4 33  1  0
  4 34  1  0
  8 35  1  0
  8 36  1  0
  9 37  1  0
  9 38  1  0
 10 39  1  0
 10 40  1  0
 11 41  1  0
 11 42  1  0
 12 43  1  1
 13 44  1  0
 13 45  1  0
 14 46  1  0
 16 47  1  0
 17 48  1  0
 18 49  1  0
 19 50  1  0
 22 51  1  0
 23 52  1  0
 25 53  1  0
 28 54  1  0
 29 55  1  0
M  END
>  <smiles>  (43) 
O=C(NCC(=O)N1CCCCC1CNc1ccccn1)c1ccc2cc(F)ccc2n1

>  <score_type>  (43) 
oracle

>  <origin>  (43) 
autodockgpu

>  <m_score__min__energy>  (43) 
-9.0299999999999994

>  <m_primary>  (43) 
energy

>  <rmsd>  (43) 
3.140103780341457

>  <m_score__min__rmsd>  (43) 
3.140103780341457

>  <meeko>  (43) 
{"free_energy": -8.03, "intermolecular_energy": -10.12, "internal_energy": -2.3, "cluster_size": 3, "cluster_id": 4, "rank_in_cluster": 2}

>  <energy>  (43) 
-7.31

>  <cluster_rmsd>  (43) 
0.0

>  <cluster>  (43) 
6

$$$$

     RDKit          3D

 55 58  0  0  0  0  0  0  0  0999 V2000
  141.4010   72.3860  221.7260 O   0  0  0  0  0  0  0  0  0  0  0  0
  140.3390   72.4140  222.4350 C   0  0  0  0  0  0  0  0  0  0  0  0
  139.2930   73.3490  222.1550 N   0  0  0  0  0  0  0  0  0  0  0  0
  139.4220   74.2820  221.0580 C   0  0  0  0  0  0  0  0  0  0  0  0
  140.3050   75.4370  221.4350 C   0  0  0  0  0  0  0  0  0  0  0  0
  140.2680   75.9710  222.5580 O   0  0  0  0  0  0  0  0  0  0  0  0
  141.2170   75.9280  220.4580 N   0  0  0  0  0  0  0  0  0  0  0  0
  142.4490   75.2150  220.1820 C   0  0  0  0  0  0  0  0  0  0  0  0
  142.7200   75.0730  218.7020 C   0  0  0  0  0  0  0  0  0  0  0  0
  142.6820   76.4340  218.0760 C   0  0  0  0  0  0  0  0  0  0  0  0
  141.3200   77.0100  218.2590 C   0  0  0  0  0  0  0  0  0  0  0  0
  140.9490   77.1450  219.7170 C   0  0  2  0  0  0  0  0  0  0  0  0
  141.7780   78.2480  220.3660 C   0  0  0  0  0  0  0  0  0  0  0  0
  141.8590   78.1010  221.8040 N   0  0  0  0  0  0  0  0  0  0  0  0
  141.9120   79.2740  222.6270 C   0  0  0  0  0  0  0  0  0  0  0  0
  143.1350   79.7600  223.0860 C   0  0  0  0  0  0  0  0  0  0  0  0
  143.1930   80.8880  223.8760 C   0  0  0  0  0  0  0  0  0  0  0  0
  142.0380   81.5340  224.2110 C   0  0  0  0  0  0  0  0  0  0  0  0
  140.8270   81.0430  223.7500 C   0  0  0  0  0  0  0  0  0  0  0  0
  140.7990   79.9280  222.9700 N   0  0  0  0  0  0  0  0  0  0  0  0
  140.1860   71.4780  223.5510 C   0  0  0  0  0  0  0  0  0  0  0  0
  139.5550   70.2750  223.3520 C   0  0  0  0  0  0  0  0  0  0  0  0
  139.4340   69.4180  224.4440 C   0  0  0  0  0  0  0  0  0  0  0  0
  139.9390   69.7810  225.6930 C   0  0  0  0  0  0  0  0  0  0  0  0
  139.8230   68.9380  226.7760 C   0  0  0  0  0  0  0  0  0  0  0  0
  140.3340   69.3220  228.0030 C   0  0  0  0  0  0  0  0  0  0  0  0
  140.2430   68.5280  229.1000 F   0  0  0  0  0  0  0  0  0  0  0  0
  140.9630   70.5580  228.1400 C   0  0  0  0  0  0  0  0  0  0  0  0
  141.0900   71.4220  227.0520 C   0  0  0  0  0  0  0  0  0  0  0  0
  140.5650   70.9950  225.8470 C   0  0  0  0  0  0  0  0  0  0  0  0
  140.6620   71.7950  224.7690 N   0  0  0  0  0  0  0  0  0  0  0  0
  138.4360   73.3580  222.7410 H   0  0  0  0  0  0  0  0  0  0  0  0
  139.8595   73.7620  220.1930 H   0  0  0  0  0  0  0  0  0  0  0  0
  138.4235   74.6707  220.8092 H   0  0  0  0  0  0  0  0  0  0  0  0
  143.2841   75.7637  220.6419 H   0  0  0  0  0  0  0  0  0  0  0  0
  142.3488   74.2027  220.6007 H   0  0  0  0  0  0  0  0  0  0  0  0
  143.7115   74.6221  218.5484 H   0  0  0  0  0  0  0  0  0  0  0  0
  141.9590   74.4261  218.2411 H   0  0  0  0  0  0  0  0  0  0  0  0
  143.4261   77.0840  218.5595 H   0  0  0  0  0  0  0  0  0  0  0  0
  142.9142   76.3582  217.0035 H   0  0  0  0  0  0  0  0  0  0  0  0
  141.2908   78.0057  217.7923 H   0  0  0  0  0  0  0  0  0  0  0  0
  140.5981   76.3262  217.7887 H   0  0  0  0  0  0  0  0  0  0  0  0
  139.8731   77.3719  219.7485 H   0  0  0  0  0  0  0  0  0  0  0  0
  142.7956   78.2172  219.9495 H   0  0  0  0  0  0  0  0  0  0  0  0
  141.2855   79.2083  220.1532 H   0  0  0  0  0  0  0  0  0  0  0  0
  141.8810   77.1690  222.2690 H   0  0  0  0  0  0  0  0  0  0  0  0
  144.0642   79.2376  222.8148 H   0  0  0  0  0  0  0  0  0  0  0  0
  144.1625   81.2648  224.2338 H   0  0  0  0  0  0  0  0  0  0  0  0
  142.0683   82.4354  224.8407 H   0  0  0  0  0  0  0  0  0  0  0  0
  139.8893   81.5538  224.0142 H   0  0  0  0  0  0  0  0  0  0  0  0
  139.1585   69.9972  222.3643 H   0  0  0  0  0  0  0  0  0  0  0  0
  138.9353   68.4454  224.3201 H   0  0  0  0  0  0  0  0  0  0  0  0
  139.3259   67.9630  226.6658 H   0  0  0  0  0  0  0  0  0  0  0  0
  141.3649   70.8565  229.1195 H   0  0  0  0  0  0  0  0  0  0  0  0
  141.5857   72.3992  227.1489 H   0  0  0  0  0  0  0  0  0  0  0  0
  1  2  2  0
  2  3  1  0
  3  4  1  0
  4  5  1  0
  5  6  2  0
  5  7  1  0
  7  8  1  0
  8  9  1  0
  9 10  1  0
 10 11  1  0
 11 12  1  0
 12 13  1  0
 13 14  1  0
 14 15  1  0
 15 16  2  0
 16 17  1  0
 17 18  2  0
 18 19  1  0
 19 20  2  0
  2 21  1  0
 21 22  2  0
 22 23  1  0
 23 24  2  0
 24 25  1  0
 25 26  2  0
 26 27  1  0
 26 28  1  0
 28 29  2  0
 29 30  1  0
 30 31  2  0
 12  7  1  0
 20 15  1  0
 31 21  1  0
 30 24  1  0
  3 32  1  0
  4 33  1  0
  4 34  1  0
  8 35  1  0
  8 36  1  0
  9 37  1  0
  9 38  1  0
 10 39  1  0
 10 40  1  0
 11 41  1  0
 11 42  1  0
 12 43  1  6
 13 44  1  0
 13 45  1  0
 14 46  1  0
 16 47  1  0
 17 48  1  0
 18 49  1  0
 19 50  1  0
 22 51  1  0
 23 52  1  0
 25 53  1  0
 28 54  1  0
 29 55  1  0
M  END
>  <smiles>  (44) 
O=C(NCC(=O)N1CCCCC1CNc1ccccn1)c1ccc2cc(F)ccc2n1

>  <score_type>  (44) 
oracle

>  <origin>  (44) 
autodockgpu

>  <m_score__min__energy>  (44) 
-9.0299999999999994

>  <m_primary>  (44) 
energy

>  <rmsd>  (44) 
2.376799665090553

>  <m_score__min__rmsd>  (44) 
2.376799665090553

>  <meeko>  (44) 
{"free_energy": -9.02, "intermolecular_energy": -11.11, "internal_energy": -2.1, "cluster_size": 31, "cluster_id": 1, "rank_in_cluster": 2}

>  <energy>  (44) 
-7.24

>  <cluster_rmsd>  (44) 
0.0

>  <cluster>  (44) 
7

$$$$

     RDKit          3D

 55 58  0  0  0  0  0  0  0  0999 V2000
  141.5890   77.7070  217.6170 O   0  0  0  0  0  0  0  0  0  0  0  0
  142.3270   77.3550  218.5980 C   0  0  0  0  0  0  0  0  0  0  0  0
  142.4570   78.1880  219.7550 N   0  0  0  0  0  0  0  0  0  0  0  0
  141.7500   79.4470  219.8320 C   0  0  0  0  0  0  0  0  0  0  0  0
  141.5360   79.8570  221.2610 C   0  0  0  0  0  0  0  0  0  0  0  0
  142.2140   80.7410  221.8150 O   0  0  0  0  0  0  0  0  0  0  0  0
  140.5110   79.1990  221.9990 N   0  0  0  0  0  0  0  0  0  0  0  0
  140.0010   79.7830  223.2250 C   0  0  0  0  0  0  0  0  0  0  0  0
  138.4920   79.7520  223.3000 C   0  0  0  0  0  0  0  0  0  0  0  0
  138.0310   78.3420  223.0910 C   0  0  0  0  0  0  0  0  0  0  0  0
  138.4510   77.8940  221.7330 C   0  0  0  0  0  0  0  0  0  0  0  0
  139.9500   77.9380  221.5560 C   0  0  2  0  0  0  0  0  0  0  0  0
  140.6060   76.8450  222.3940 C   0  0  0  0  0  0  0  0  0  0  0  0
  141.4340   75.9640  221.5980 N   0  0  0  0  0  0  0  0  0  0  0  0
  140.9730   74.6370  221.3130 C   0  0  0  0  0  0  0  0  0  0  0  0
  140.8470   74.2010  219.9940 C   0  0  0  0  0  0  0  0  0  0  0  0
  140.4050   72.9270  219.7140 C   0  0  0  0  0  0  0  0  0  0  0  0
  140.0880   72.0830  220.7390 C   0  0  0  0  0  0  0  0  0  0  0  0
  140.2160   72.5250  222.0460 C   0  0  0  0  0  0  0  0  0  0  0  0
  140.6560   73.7890  222.2950 N   0  0  0  0  0  0  0  0  0  0  0  0
  143.0520   76.0840  218.5430 C   0  0  0  0  0  0  0  0  0  0  0  0
  143.0570   75.3500  217.3830 C   0  0  0  0  0  0  0  0  0  0  0  0
  143.7600   74.1470  217.3800 C   0  0  0  0  0  0  0  0  0  0  0  0
  144.4320   73.7130  218.5220 C   0  0  0  0  0  0  0  0  0  0  0  0
  145.1300   72.5250  218.5250 C   0  0  0  0  0  0  0  0  0  0  0  0
  145.7880   72.1190  219.6720 C   0  0  0  0  0  0  0  0  0  0  0  0
  146.4880   70.9570  219.7260 F   0  0  0  0  0  0  0  0  0  0  0  0
  145.7440   72.9100  220.8190 C   0  0  0  0  0  0  0  0  0  0  0  0
  145.0440   74.1150  220.8310 C   0  0  0  0  0  0  0  0  0  0  0  0
  144.4020   74.4800  219.6620 C   0  0  0  0  0  0  0  0  0  0  0  0
  143.7110   75.6360  219.6260 N   0  0  0  0  0  0  0  0  0  0  0  0
  143.0600   77.8870  220.5450 H   0  0  0  0  0  0  0  0  0  0  0  0
  142.3387   80.2222  219.3196 H   0  0  0  0  0  0  0  0  0  0  0  0
  140.7682   79.3279  219.3505 H   0  0  0  0  0  0  0  0  0  0  0  0
  140.4077   79.2210  224.0787 H   0  0  0  0  0  0  0  0  0  0  0  0
  140.3140   80.8373  223.2470 H   0  0  0  0  0  0  0  0  0  0  0  0
  138.1629   80.1067  224.2878 H   0  0  0  0  0  0  0  0  0  0  0  0
  138.0642   80.4055  222.5255 H   0  0  0  0  0  0  0  0  0  0  0  0
  138.4833   77.6889  223.8518 H   0  0  0  0  0  0  0  0  0  0  0  0
  136.9357   78.2908  223.1786 H   0  0  0  0  0  0  0  0  0  0  0  0
  138.1062   76.8609  221.5784 H   0  0  0  0  0  0  0  0  0  0  0  0
  138.0039   78.5795  220.9980 H   0  0  0  0  0  0  0  0  0  0  0  0
  140.1440   77.8006  220.4820 H   0  0  0  0  0  0  0  0  0  0  0  0
  141.2322   77.3182  223.1647 H   0  0  0  0  0  0  0  0  0  0  0  0
  139.8051   76.2391  222.8428 H   0  0  0  0  0  0  0  0  0  0  0  0
  142.3590   76.2580  221.2200 H   0  0  0  0  0  0  0  0  0  0  0  0
  141.1033   74.8818  219.1689 H   0  0  0  0  0  0  0  0  0  0  0  0
  140.3080   72.5917  218.6709 H   0  0  0  0  0  0  0  0  0  0  0  0
  139.7346   71.0626  220.5296 H   0  0  0  0  0  0  0  0  0  0  0  0
  139.9625   71.8555  222.8812 H   0  0  0  0  0  0  0  0  0  0  0  0
  142.5242   75.6996  216.4864 H   0  0  0  0  0  0  0  0  0  0  0  0
  143.7851   73.5334  216.4674 H   0  0  0  0  0  0  0  0  0  0  0  0
  145.1638   71.9020  217.6190 H   0  0  0  0  0  0  0  0  0  0  0  0
  146.2690   72.5785  221.7270 H   0  0  0  0  0  0  0  0  0  0  0  0
  145.0040   74.7474  221.7301 H   0  0  0  0  0  0  0  0  0  0  0  0
  1  2  2  0
  2  3  1  0
  3  4  1  0
  4  5  1  0
  5  6  2  0
  5  7  1  0
  7  8  1  0
  8  9  1  0
  9 10  1  0
 10 11  1  0
 11 12  1  0
 12 13  1  0
 13 14  1  0
 14 15  1  0
 15 16  2  0
 16 17  1  0
 17 18  2  0
 18 19  1  0
 19 20  2  0
  2 21  1  0
 21 22  2  0
 22 23  1  0
 23 24  2  0
 24 25  1  0
 25 26  2  0
 26 27  1  0
 26 28  1  0
 28 29  2  0
 29 30  1  0
 30 31  2  0
 12  7  1  0
 20 15  1  0
 31 21  1  0
 30 24  1  0
  3 32  1  0
  4 33  1  0
  4 34  1  0
  8 35  1  0
  8 36  1  0
  9 37  1  0
  9 38  1  0
 10 39  1  0
 10 40  1  0
 11 41  1  0
 11 42  1  0
 12 43  1  6
 13 44  1  0
 13 45  1  0
 14 46  1  0
 16 47  1  0
 17 48  1  0
 18 49  1  0
 19 50  1  0
 22 51  1  0
 23 52  1  0
 25 53  1  0
 28 54  1  0
 29 55  1  0
M  END
>  <smiles>  (45) 
O=C(NCC(=O)N1CCCCC1CNc1ccccn1)c1ccc2cc(F)ccc2n1

>  <score_type>  (45) 
oracle

>  <origin>  (45) 
autodockgpu

>  <m_score__min__energy>  (45) 
-9.0299999999999994

>  <m_primary>  (45) 
energy

>  <rmsd>  (45) 
7.8265136342777515

>  <m_score__min__rmsd>  (45) 
7.8265136342777515

>  <meeko>  (45) 
{"free_energy": -6.4, "intermolecular_energy": -8.48, "internal_energy": -3.41, "cluster_size": 1, "cluster_id": 10, "rank_in_cluster": 1}

>  <energy>  (45) 
-6.81

>  <cluster_rmsd>  (45) 
0.0

>  <cluster>  (45) 
8

$$$$

     RDKit          3D

 55 58  0  0  0  0  0  0  0  0999 V2000
  139.2560   74.8480  222.3490 O   0  0  0  0  0  0  0  0  0  0  0  0
  139.9840   75.0620  221.3210 C   0  0  0  0  0  0  0  0  0  0  0  0
  139.7270   76.1760  220.4600 N   0  0  0  0  0  0  0  0  0  0  0  0
  138.6360   77.0810  220.7420 C   0  0  0  0  0  0  0  0  0  0  0  0
  138.7490   77.6450  222.1290 C   0  0  0  0  0  0  0  0  0  0  0  0
  138.0450   77.2480  223.0750 O   0  0  0  0  0  0  0  0  0  0  0  0
  139.7080   78.6740  222.3560 N   0  0  0  0  0  0  0  0  0  0  0  0
  139.2970   80.0650  222.3770 C   0  0  0  0  0  0  0  0  0  0  0  0
  139.8950   80.8310  223.5350 C   0  0  0  0  0  0  0  0  0  0  0  0
  141.3840   80.6630  223.5020 C   0  0  0  0  0  0  0  0  0  0  0  0
  141.7100   79.2170  223.6650 C   0  0  0  0  0  0  0  0  0  0  0  0
  141.1090   78.3700  222.5690 C   0  0  2  0  0  0  0  0  0  0  0  0
  141.8240   78.6410  221.2500 C   0  0  0  0  0  0  0  0  0  0  0  0
  142.2170   77.4200  220.5770 N   0  0  0  0  0  0  0  0  0  0  0  0
  142.2320   77.3840  219.1430 C   0  0  0  0  0  0  0  0  0  0  0  0
  143.3090   76.8170  218.4630 C   0  0  0  0  0  0  0  0  0  0  0  0
  143.3290   76.7780  217.0860 C   0  0  0  0  0  0  0  0  0  0  0  0
  142.2830   77.3010  216.3820 C   0  0  0  0  0  0  0  0  0  0  0  0
  141.2170   77.8620  217.0680 C   0  0  0  0  0  0  0  0  0  0  0  0
  141.2230   77.8870  218.4280 N   0  0  0  0  0  0  0  0  0  0  0  0
  141.0950   74.1600  221.0170 C   0  0  0  0  0  0  0  0  0  0  0  0
  140.8680   72.8110  220.9000 C   0  0  0  0  0  0  0  0  0  0  0  0
  141.9580   71.9930  220.6100 C   0  0  0  0  0  0  0  0  0  0  0  0
  143.2320   72.5360  220.4450 C   0  0  0  0  0  0  0  0  0  0  0  0
  144.3140   71.7320  220.1570 C   0  0  0  0  0  0  0  0  0  0  0  0
  145.5660   72.2980  219.9990 C   0  0  0  0  0  0  0  0  0  0  0  0
  146.6630   71.5490  219.7160 F   0  0  0  0  0  0  0  0  0  0  0  0
  145.7310   73.6760  220.1310 C   0  0  0  0  0  0  0  0  0  0  0  0
  144.6460   74.5020  220.4210 C   0  0  0  0  0  0  0  0  0  0  0  0
  143.4150   73.8930  220.5700 C   0  0  0  0  0  0  0  0  0  0  0  0
  142.3370   74.6500  220.8520 N   0  0  0  0  0  0  0  0  0  0  0  0
  140.3290   76.3370  219.6290 H   0  0  0  0  0  0  0  0  0  0  0  0
  138.6565   77.9065  220.0153 H   0  0  0  0  0  0  0  0  0  0  0  0
  137.6904   76.5241  220.6663 H   0  0  0  0  0  0  0  0  0  0  0  0
  139.6159   80.5407  221.4378 H   0  0  0  0  0  0  0  0  0  0  0  0
  138.2033   80.0873  222.4924 H   0  0  0  0  0  0  0  0  0  0  0  0
  139.6404   81.8973  223.4448 H   0  0  0  0  0  0  0  0  0  0  0  0
  139.4948   80.4480  224.4854 H   0  0  0  0  0  0  0  0  0  0  0  0
  141.7752   81.0236  222.5392 H   0  0  0  0  0  0  0  0  0  0  0  0
  141.8429   81.2429  224.3163 H   0  0  0  0  0  0  0  0  0  0  0  0
  142.8032   79.0961  223.6471 H   0  0  0  0  0  0  0  0  0  0  0  0
  141.2858   78.8810  224.6227 H   0  0  0  0  0  0  0  0  0  0  0  0
  141.2191   77.3222  222.8852 H   0  0  0  0  0  0  0  0  0  0  0  0
  141.1486   79.2065  220.5911 H   0  0  0  0  0  0  0  0  0  0  0  0
  142.7377   79.2113  221.4734 H   0  0  0  0  0  0  0  0  0  0  0  0
  142.4920   76.5600  221.0960 H   0  0  0  0  0  0  0  0  0  0  0  0
  144.1514   76.3965  219.0318 H   0  0  0  0  0  0  0  0  0  0  0  0
  144.1824   76.3283  216.5573 H   0  0  0  0  0  0  0  0  0  0  0  0
  142.2859   77.2776  215.2823 H   0  0  0  0  0  0  0  0  0  0  0  0
  140.3673   78.2864  216.5132 H   0  0  0  0  0  0  0  0  0  0  0  0
  139.8600   72.3904  221.0307 H   0  0  0  0  0  0  0  0  0  0  0  0
  141.8122   70.9073  220.5101 H   0  0  0  0  0  0  0  0  0  0  0  0
  144.1822   70.6449  220.0533 H   0  0  0  0  0  0  0  0  0  0  0  0
  146.7306   74.1174  220.0046 H   0  0  0  0  0  0  0  0  0  0  0  0
  144.7648   75.5905  220.5265 H   0  0  0  0  0  0  0  0  0  0  0  0
  1  2  2  0
  2  3  1  0
  3  4  1  0
  4  5  1  0
  5  6  2  0
  5  7  1  0
  7  8  1  0
  8  9  1  0
  9 10  1  0
 10 11  1  0
 11 12  1  0
 12 13  1  0
 13 14  1  0
 14 15  1  0
 15 16  2  0
 16 17  1  0
 17 18  2  0
 18 19  1  0
 19 20  2  0
  2 21  1  0
 21 22  2  0
 22 23  1  0
 23 24  2  0
 24 25  1  0
 25 26  2  0
 26 27  1  0
 26 28  1  0
 28 29  2  0
 29 30  1  0
 30 31  2  0
 12  7  1  0
 20 15  1  0
 31 21  1  0
 30 24  1  0
  3 32  1  0
  4 33  1  0
  4 34  1  0
  8 35  1  0
  8 36  1  0
  9 37  1  0
  9 38  1  0
 10 39  1  0
 10 40  1  0
 11 41  1  0
 11 42  1  0
 12 43  1  1
 13 44  1  0
 13 45  1  0
 14 46  1  0
 16 47  1  0
 17 48  1  0
 18 49  1  0
 19 50  1  0
 22 51  1  0
 23 52  1  0
 25 53  1  0
 28 54  1  0
 29 55  1  0
M  END
>  <smiles>  (46) 
O=C(NCC(=O)N1CCCCC1CNc1ccccn1)c1ccc2cc(F)ccc2n1

>  <score_type>  (46) 
oracle

>  <origin>  (46) 
autodockgpu

>  <m_score__min__energy>  (46) 
-9.0299999999999994

>  <m_primary>  (46) 
energy

>  <rmsd>  (46) 
6.284703930198432

>  <m_score__min__rmsd>  (46) 
6.284703930198432

>  <meeko>  (46) 
{"free_energy": -6.71, "intermolecular_energy": -8.8, "internal_energy": -3.66, "cluster_size": 2, "cluster_id": 8, "rank_in_cluster": 2}

>  <energy>  (46) 
-6.71

>  <cluster_rmsd>  (46) 
0.53

>  <cluster>  (46) 
8

$$$$

     RDKit          3D

 55 58  0  0  0  0  0  0  0  0999 V2000
  140.4610   71.9210  221.4820 O   0  0  0  0  0  0  0  0  0  0  0  0
  139.5800   71.9670  222.4060 C   0  0  0  0  0  0  0  0  0  0  0  0
  138.5020   72.9060  222.3460 N   0  0  0  0  0  0  0  0  0  0  0  0
  138.3920   73.8230  221.2340 C   0  0  0  0  0  0  0  0  0  0  0  0
  138.9720   75.1640  221.5830 C   0  0  0  0  0  0  0  0  0  0  0  0
  138.4560   75.9190  222.4260 O   0  0  0  0  0  0  0  0  0  0  0  0
  140.1610   75.5730  220.9140 N   0  0  0  0  0  0  0  0  0  0  0  0
  141.4600   75.3130  221.5050 C   0  0  0  0  0  0  0  0  0  0  0  0
  142.4530   74.7640  220.5070 C   0  0  0  0  0  0  0  0  0  0  0  0
  142.5220   75.6970  219.3370 C   0  0  0  0  0  0  0  0  0  0  0  0
  141.1790   75.7590  218.6910 C   0  0  0  0  0  0  0  0  0  0  0  0
  140.1140   76.2570  219.6370 C   0  0  2  0  0  0  0  0  0  0  0  0
  140.3230   77.7400  219.9230 C   0  0  0  0  0  0  0  0  0  0  0  0
  139.9380   78.0990  221.2720 N   0  0  0  0  0  0  0  0  0  0  0  0
  140.8740   78.7960  222.1060 C   0  0  0  0  0  0  0  0  0  0  0  0
  141.7020   79.7800  221.5680 C   0  0  0  0  0  0  0  0  0  0  0  0
  142.6030   80.4530  222.3640 C   0  0  0  0  0  0  0  0  0  0  0  0
  142.6840   80.1520  223.6940 C   0  0  0  0  0  0  0  0  0  0  0  0
  141.8560   79.1720  224.2190 C   0  0  0  0  0  0  0  0  0  0  0  0
  140.9750   78.5230  223.4100 N   0  0  0  0  0  0  0  0  0  0  0  0
  139.6700   71.0480  223.5420 C   0  0  0  0  0  0  0  0  0  0  0  0
  139.1910   69.7670  223.4240 C   0  0  0  0  0  0  0  0  0  0  0  0
  139.3000   68.9290  224.5320 C   0  0  0  0  0  0  0  0  0  0  0  0
  139.8770   69.3880  225.7170 C   0  0  0  0  0  0  0  0  0  0  0  0
  139.9870   68.5640  226.8160 C   0  0  0  0  0  0  0  0  0  0  0  0
  140.5640   69.0450  227.9780 C   0  0  0  0  0  0  0  0  0  0  0  0
  140.6950   68.2740  229.0880 F   0  0  0  0  0  0  0  0  0  0  0  0
  141.0310   70.3570  228.0340 C   0  0  0  0  0  0  0  0  0  0  0  0
  140.9270   71.2020  226.9290 C   0  0  0  0  0  0  0  0  0  0  0  0
  140.3440   70.6780  225.7910 C   0  0  0  0  0  0  0  0  0  0  0  0
  140.2210   71.4570  224.6990 N   0  0  0  0  0  0  0  0  0  0  0  0
  137.7940   72.9300  223.1050 H   0  0  0  0  0  0  0  0  0  0  0  0
  138.9353   73.4095  220.3716 H   0  0  0  0  0  0  0  0  0  0  0  0
  137.3270   73.9540  220.9917 H   0  0  0  0  0  0  0  0  0  0  0  0
  141.8556   76.2543  221.9143 H   0  0  0  0  0  0  0  0  0  0  0  0
  141.3231   74.5550  222.2903 H   0  0  0  0  0  0  0  0  0  0  0  0
  143.4446   74.6847  220.9765 H   0  0  0  0  0  0  0  0  0  0  0  0
  142.1357   73.7653  220.1724 H   0  0  0  0  0  0  0  0  0  0  0  0
  142.8133   76.7004  219.6811 H   0  0  0  0  0  0  0  0  0  0  0  0
  143.2678   75.3349  218.6141 H   0  0  0  0  0  0  0  0  0  0  0  0
  141.2321   76.4388  217.8278 H   0  0  0  0  0  0  0  0  0  0  0  0
  140.9058   74.7395  218.3813 H   0  0  0  0  0  0  0  0  0  0  0  0
  139.1465   76.0683  219.1487 H   0  0  0  0  0  0  0  0  0  0  0  0
  141.3871   77.9808  219.7829 H   0  0  0  0  0  0  0  0  0  0  0  0
  139.6875   78.3095  219.2288 H   0  0  0  0  0  0  0  0  0  0  0  0
  139.0010   77.8700  221.6650 H   0  0  0  0  0  0  0  0  0  0  0  0
  141.6353   80.0216  220.4969 H   0  0  0  0  0  0  0  0  0  0  0  0
  143.2530   81.2278  221.9313 H   0  0  0  0  0  0  0  0  0  0  0  0
  143.3985   80.6815  224.3414 H   0  0  0  0  0  0  0  0  0  0  0  0
  141.9110   78.9193  225.2882 H   0  0  0  0  0  0  0  0  0  0  0  0
  138.7365   69.4140  222.4866 H   0  0  0  0  0  0  0  0  0  0  0  0
  138.9277   67.8957  224.4721 H   0  0  0  0  0  0  0  0  0  0  0  0
  139.6179   67.5288  226.7697 H   0  0  0  0  0  0  0  0  0  0  0  0
  141.4878   70.7312  228.9621 H   0  0  0  0  0  0  0  0  0  0  0  0
  141.2927   72.2389  226.9620 H   0  0  0  0  0  0  0  0  0  0  0  0
  1  2  2  0
  2  3  1  0
  3  4  1  0
  4  5  1  0
  5  6  2  0
  5  7  1  0
  7  8  1  0
  8  9  1  0
  9 10  1  0
 10 11  1  0
 11 12  1  0
 12 13  1  0
 13 14  1  0
 14 15  1  0
 15 16  2  0
 16 17  1  0
 17 18  2  0
 18 19  1  0
 19 20  2  0
  2 21  1  0
 21 22  2  0
 22 23  1  0
 23 24  2  0
 24 25  1  0
 25 26  2  0
 26 27  1  0
 26 28  1  0
 28 29  2  0
 29 30  1  0
 30 31  2  0
 12  7  1  0
 20 15  1  0
 31 21  1  0
 30 24  1  0
  3 32  1  0
  4 33  1  0
  4 34  1  0
  8 35  1  0
  8 36  1  0
  9 37  1  0
  9 38  1  0
 10 39  1  0
 10 40  1  0
 11 41  1  0
 11 42  1  0
 12 43  1  6
 13 44  1  0
 13 45  1  0
 14 46  1  0
 16 47  1  0
 17 48  1  0
 18 49  1  0
 19 50  1  0
 22 51  1  0
 23 52  1  0
 25 53  1  0
 28 54  1  0
 29 55  1  0
M  END
>  <smiles>  (47) 
O=C(NCC(=O)N1CCCCC1CNc1ccccn1)c1ccc2cc(F)ccc2n1

>  <score_type>  (47) 
oracle

>  <origin>  (47) 
autodockgpu

>  <m_score__min__energy>  (47) 
-9.0299999999999994

>  <m_primary>  (47) 
energy

>  <rmsd>  (47) 
2.4512161849880014

>  <m_score__min__rmsd>  (47) 
2.4512161849880014

>  <meeko>  (47) 
{"free_energy": -7.88, "intermolecular_energy": -9.97, "internal_energy": -2.44, "cluster_size": 31, "cluster_id": 1, "rank_in_cluster": 26}

>  <energy>  (47) 
-6.41

>  <cluster_rmsd>  (47) 
0.0

>  <cluster>  (47) 
9

$$$$

     RDKit          3D

 55 58  0  0  0  0  0  0  0  0999 V2000
  141.3830   72.3430  221.5870 O   0  0  0  0  0  0  0  0  0  0  0  0
  140.3670   72.4750  222.3490 C   0  0  0  0  0  0  0  0  0  0  0  0
  139.4040   73.5090  222.1180 N   0  0  0  0  0  0  0  0  0  0  0  0
  139.5680   74.4250  221.0120 C   0  0  0  0  0  0  0  0  0  0  0  0
  140.7350   75.3420  221.2410 C   0  0  0  0  0  0  0  0  0  0  0  0
  141.0310   75.7840  222.3660 O   0  0  0  0  0  0  0  0  0  0  0  0
  141.5270   75.7100  220.1160 N   0  0  0  0  0  0  0  0  0  0  0  0
  142.9270   75.3380  220.0520 C   0  0  0  0  0  0  0  0  0  0  0  0
  143.3200   74.7810  218.7030 C   0  0  0  0  0  0  0  0  0  0  0  0
  142.9310   75.7690  217.6450 C   0  0  0  0  0  0  0  0  0  0  0  0
  141.4520   75.9490  217.6760 C   0  0  0  0  0  0  0  0  0  0  0  0
  140.9670   76.4620  219.0100 C   0  0  2  0  0  0  0  0  0  0  0  0
  141.4010   77.9120  219.1990 C   0  0  0  0  0  0  0  0  0  0  0  0
  142.2010   78.0950  220.3920 N   0  0  0  0  0  0  0  0  0  0  0  0
  141.5990   78.6750  221.5580 C   0  0  0  0  0  0  0  0  0  0  0  0
  142.3760   79.3690  222.4830 C   0  0  0  0  0  0  0  0  0  0  0  0
  141.8040   79.9280  223.6050 C   0  0  0  0  0  0  0  0  0  0  0  0
  140.4600   79.8010  223.8100 C   0  0  0  0  0  0  0  0  0  0  0  0
  139.6950   79.1080  222.8840 C   0  0  0  0  0  0  0  0  0  0  0  0
  140.2870   78.5660  221.7850 N   0  0  0  0  0  0  0  0  0  0  0  0
  140.1800   71.5590  223.4760 C   0  0  0  0  0  0  0  0  0  0  0  0
  139.5020   70.3790  223.2920 C   0  0  0  0  0  0  0  0  0  0  0  0
  139.3500   69.5400  224.3940 C   0  0  0  0  0  0  0  0  0  0  0  0
  139.8720   69.8970  225.6370 C   0  0  0  0  0  0  0  0  0  0  0  0
  139.7260   69.0710  226.7310 C   0  0  0  0  0  0  0  0  0  0  0  0
  140.2540   69.4490  227.9520 C   0  0  0  0  0  0  0  0  0  0  0  0
  140.1350   68.6720  229.0580 F   0  0  0  0  0  0  0  0  0  0  0  0
  140.9310   70.6610  228.0730 C   0  0  0  0  0  0  0  0  0  0  0  0
  141.0890   71.5070  226.9760 C   0  0  0  0  0  0  0  0  0  0  0  0
  140.5450   71.0870  225.7770 C   0  0  0  0  0  0  0  0  0  0  0  0
  140.6710   71.8710  224.6890 N   0  0  0  0  0  0  0  0  0  0  0  0
  138.5830   73.6030  222.7480 H   0  0  0  0  0  0  0  0  0  0  0  0
  139.7384   73.8492  220.0903 H   0  0  0  0  0  0  0  0  0  0  0  0
  138.6562   75.0338  220.9231 H   0  0  0  0  0  0  0  0  0  0  0  0
  143.5380   76.2296  220.2565 H   0  0  0  0  0  0  0  0  0  0  0  0
  143.0964   74.5494  220.7999 H   0  0  0  0  0  0  0  0  0  0  0  0
  144.4070   74.6150  218.6732 H   0  0  0  0  0  0  0  0  0  0  0  0
  142.8080   73.8231  218.5287 H   0  0  0  0  0  0  0  0  0  0  0  0
  143.4248   76.7325  217.8395 H   0  0  0  0  0  0  0  0  0  0  0  0
  143.2418   75.3997  216.6566 H   0  0  0  0  0  0  0  0  0  0  0  0
  141.1665   76.6688  216.8948 H   0  0  0  0  0  0  0  0  0  0  0  0
  140.9889   74.9662  217.5040 H   0  0  0  0  0  0  0  0  0  0  0  0
  139.8717   76.3603  219.0069 H   0  0  0  0  0  0  0  0  0  0  0  0
  141.9933   78.2208  218.3250 H   0  0  0  0  0  0  0  0  0  0  0  0
  140.4931   78.5239  219.3054 H   0  0  0  0  0  0  0  0  0  0  0  0
  143.2040   77.8210  220.4390 H   0  0  0  0  0  0  0  0  0  0  0  0
  143.4583   79.4718  222.3157 H   0  0  0  0  0  0  0  0  0  0  0  0
  142.4258   80.4728  224.3306 H   0  0  0  0  0  0  0  0  0  0  0  0
  139.9892   80.2437  224.7001 H   0  0  0  0  0  0  0  0  0  0  0  0
  138.6115   78.9966  223.0375 H   0  0  0  0  0  0  0  0  0  0  0  0
  139.0929   70.1055  222.3082 H   0  0  0  0  0  0  0  0  0  0  0  0
  138.8129   68.5865  224.2825 H   0  0  0  0  0  0  0  0  0  0  0  0
  139.1914   68.1146  226.6331 H   0  0  0  0  0  0  0  0  0  0  0  0
  141.3468   70.9546  229.0482 H   0  0  0  0  0  0  0  0  0  0  0  0
  141.6224   72.4652  227.0610 H   0  0  0  0  0  0  0  0  0  0  0  0
  1  2  2  0
  2  3  1  0
  3  4  1  0
  4  5  1  0
  5  6  2  0
  5  7  1  0
  7  8  1  0
  8  9  1  0
  9 10  1  0
 10 11  1  0
 11 12  1  0
 12 13  1  0
 13 14  1  0
 14 15  1  0
 15 16  2  0
 16 17  1  0
 17 18  2  0
 18 19  1  0
 19 20  2  0
  2 21  1  0
 21 22  2  0
 22 23  1  0
 23 24  2  0
 24 25  1  0
 25 26  2  0
 26 27  1  0
 26 28  1  0
 28 29  2  0
 29 30  1  0
 30 31  2  0
 12  7  1  0
 20 15  1  0
 31 21  1  0
 30 24  1  0
  3 32  1  0
  4 33  1  0
  4 34  1  0
  8 35  1  0
  8 36  1  0
  9 37  1  0
  9 38  1  0
 10 39  1  0
 10 40  1  0
 11 41  1  0
 11 42  1  0
 12 43  1  6
 13 44  1  0
 13 45  1  0
 14 46  1  0
 16 47  1  0
 17 48  1  0
 18 49  1  0
 19 50  1  0
 22 51  1  0
 23 52  1  0
 25 53  1  0
 28 54  1  0
 29 55  1  0
M  END
>  <smiles>  (48) 
O=C(NCC(=O)N1CCCCC1CNc1ccccn1)c1ccc2cc(F)ccc2n1

>  <score_type>  (48) 
oracle

>  <origin>  (48) 
autodockgpu

>  <m_score__min__energy>  (48) 
-9.0299999999999994

>  <m_primary>  (48) 
energy

>  <rmsd>  (48) 
2.499193645256311

>  <m_score__min__rmsd>  (48) 
2.499193645256311

>  <meeko>  (48) 
{"free_energy": -8.63, "intermolecular_energy": -10.71, "internal_energy": -1.73, "cluster_size": 31, "cluster_id": 1, "rank_in_cluster": 7}

>  <energy>  (48) 
-6.02

>  <cluster_rmsd>  (48) 
1.9

>  <cluster>  (48) 
9

$$$$

     RDKit          3D

 55 58  0  0  0  0  0  0  0  0999 V2000
  137.9880   70.5160  221.8550 O   0  0  0  0  0  0  0  0  0  0  0  0
  138.6990   71.0330  222.7810 C   0  0  0  0  0  0  0  0  0  0  0  0
  139.1260   72.3970  222.7040 N   0  0  0  0  0  0  0  0  0  0  0  0
  138.7570   73.2150  221.5700 C   0  0  0  0  0  0  0  0  0  0  0  0
  139.7050   74.3690  221.4090 C   0  0  0  0  0  0  0  0  0  0  0  0
  140.6820   74.5460  222.1590 O   0  0  0  0  0  0  0  0  0  0  0  0
  139.4640   75.2880  220.3480 N   0  0  0  0  0  0  0  0  0  0  0  0
  139.5220   74.8460  218.9680 C   0  0  0  0  0  0  0  0  0  0  0  0
  138.3640   75.3570  218.1430 C   0  0  0  0  0  0  0  0  0  0  0  0
  138.3030   76.8490  218.2760 C   0  0  0  0  0  0  0  0  0  0  0  0
  138.0640   77.1970  219.7050 C   0  0  0  0  0  0  0  0  0  0  0  0
  139.1580   76.6810  220.6090 C   0  0  2  0  0  0  0  0  0  0  0  0
  140.4430   77.4670  220.3710 C   0  0  0  0  0  0  0  0  0  0  0  0
  141.3430   77.4030  221.5040 N   0  0  0  0  0  0  0  0  0  0  0  0
  141.7060   78.6150  222.1800 C   0  0  0  0  0  0  0  0  0  0  0  0
  141.8640   78.6300  223.5650 C   0  0  0  0  0  0  0  0  0  0  0  0
  142.2130   79.7910  224.2200 C   0  0  0  0  0  0  0  0  0  0  0  0
  142.4070   80.9370  223.5030 C   0  0  0  0  0  0  0  0  0  0  0  0
  142.2480   80.9110  222.1270 C   0  0  0  0  0  0  0  0  0  0  0  0
  141.9030   79.7500  221.5050 N   0  0  0  0  0  0  0  0  0  0  0  0
  139.0840   70.2250  223.9390 C   0  0  0  0  0  0  0  0  0  0  0  0
  138.8200   68.8770  223.9500 C   0  0  0  0  0  0  0  0  0  0  0  0
  139.2060   68.1500  225.0740 C   0  0  0  0  0  0  0  0  0  0  0  0
  139.8370   68.7800  226.1470 C   0  0  0  0  0  0  0  0  0  0  0  0
  140.2200   68.0660  227.2610 C   0  0  0  0  0  0  0  0  0  0  0  0
  140.8450   68.7160  228.3110 C   0  0  0  0  0  0  0  0  0  0  0  0
  141.2410   68.0580  229.4300 F   0  0  0  0  0  0  0  0  0  0  0  0
  141.0840   70.0870  228.2390 C   0  0  0  0  0  0  0  0  0  0  0  0
  140.7030   70.8230  227.1180 C   0  0  0  0  0  0  0  0  0  0  0  0
  140.0820   70.1310  226.0940 C   0  0  0  0  0  0  0  0  0  0  0  0
  139.6950   70.7990  224.9910 N   0  0  0  0  0  0  0  0  0  0  0  0
  139.7040   72.8030  223.4660 H   0  0  0  0  0  0  0  0  0  0  0  0
  138.7815   72.5992  220.6588 H   0  0  0  0  0  0  0  0  0  0  0  0
  137.7454   73.6127  221.7385 H   0  0  0  0  0  0  0  0  0  0  0  0
  140.4595   75.2088  218.5214 H   0  0  0  0  0  0  0  0  0  0  0  0
  139.4703   73.7472  218.9686 H   0  0  0  0  0  0  0  0  0  0  0  0
  138.5124   75.0849  217.0876 H   0  0  0  0  0  0  0  0  0  0  0  0
  137.4238   74.9095  218.4977 H   0  0  0  0  0  0  0  0  0  0  0  0
  139.2548   77.2886  217.9432 H   0  0  0  0  0  0  0  0  0  0  0  0
  137.4866   77.2454  217.6544 H   0  0  0  0  0  0  0  0  0  0  0  0
  138.0137   78.2918  219.7992 H   0  0  0  0  0  0  0  0  0  0  0  0
  137.1200   76.7245  220.0141 H   0  0  0  0  0  0  0  0  0  0  0  0
  138.7946   76.7954  221.6409 H   0  0  0  0  0  0  0  0  0  0  0  0
  140.9536   77.0521  219.4895 H   0  0  0  0  0  0  0  0  0  0  0  0
  140.1696   78.5213  220.2169 H   0  0  0  0  0  0  0  0  0  0  0  0
  141.7410   76.5050  221.8510 H   0  0  0  0  0  0  0  0  0  0  0  0
  141.7085   77.7057  224.1408 H   0  0  0  0  0  0  0  0  0  0  0  0
  142.3345   79.7947  225.3133 H   0  0  0  0  0  0  0  0  0  0  0  0
  142.6866   81.8709  224.0127 H   0  0  0  0  0  0  0  0  0  0  0  0
  142.4003   81.8272  221.5377 H   0  0  0  0  0  0  0  0  0  0  0  0
  138.3209   68.3882  223.1003 H   0  0  0  0  0  0  0  0  0  0  0  0
  139.0112   67.0682  225.1159 H   0  0  0  0  0  0  0  0  0  0  0  0
  140.0299   66.9839  227.3159 H   0  0  0  0  0  0  0  0  0  0  0  0
  141.5803   70.5957  229.0786 H   0  0  0  0  0  0  0  0  0  0  0  0
  140.8879   71.9053  227.0509 H   0  0  0  0  0  0  0  0  0  0  0  0
  1  2  2  0
  2  3  1  0
  3  4  1  0
  4  5  1  0
  5  6  2  0
  5  7  1  0
  7  8  1  0
  8  9  1  0
  9 10  1  0
 10 11  1  0
 11 12  1  0
 12 13  1  0
 13 14  1  0
 14 15  1  0
 15 16  2  0
 16 17  1  0
 17 18  2  0
 18 19  1  0
 19 20  2  0
  2 21  1  0
 21 22  2  0
 22 23  1  0
 23 24  2  0
 24 25  1  0
 25 26  2  0
 26 27  1  0
 26 28  1  0
 28 29  2  0
 29 30  1  0
 30 31  2  0
 12  7  1  0
 20 15  1  0
 31 21  1  0
 30 24  1  0
  3 32  1  0
  4 33  1  0
  4 34  1  0
  8 35  1  0
  8 36  1  0
  9 37  1  0
  9 38  1  0
 10 39  1  0
 10 40  1  0
 11 41  1  0
 11 42  1  0
 12 43  1  1
 13 44  1  0
 13 45  1  0
 14 46  1  0
 16 47  1  0
 17 48  1  0
 18 49  1  0
 19 50  1  0
 22 51  1  0
 23 52  1  0
 25 53  1  0
 28 54  1  0
 29 55  1  0
M  END
>  <smiles>  (49) 
O=C(NCC(=O)N1CCCCC1CNc1ccccn1)c1ccc2cc(F)ccc2n1

>  <score_type>  (49) 
oracle

>  <origin>  (49) 
autodockgpu

>  <m_score__min__energy>  (49) 
-9.0299999999999994

>  <m_primary>  (49) 
energy

>  <rmsd>  (49) 
2.2074870040804924

>  <m_score__min__rmsd>  (49) 
2.2074870040804924

>  <meeko>  (49) 
{"free_energy": -7.88, "intermolecular_energy": -9.97, "internal_energy": -2.43, "cluster_size": 31, "cluster_id": 1, "rank_in_cluster": 27}

>  <energy>  (49) 
-6.4

>  <cluster_rmsd>  (49) 
0.0

>  <cluster>  (49) 
10

$$$$

     RDKit          3D

 55 58  0  0  0  0  0  0  0  0999 V2000
  139.5400   73.5640  222.3490 O   0  0  0  0  0  0  0  0  0  0  0  0
  140.2660   72.5130  222.3580 C   0  0  0  0  0  0  0  0  0  0  0  0
  141.1750   72.2390  221.2870 N   0  0  0  0  0  0  0  0  0  0  0  0
  141.2860   73.1530  220.1720 C   0  0  0  0  0  0  0  0  0  0  0  0
  141.6450   74.5340  220.6430 C   0  0  0  0  0  0  0  0  0  0  0  0
  142.8180   74.8860  220.8600 O   0  0  0  0  0  0  0  0  0  0  0  0
  140.5870   75.4670  220.8450 N   0  0  0  0  0  0  0  0  0  0  0  0
  139.4860   75.5400  219.9040 C   0  0  0  0  0  0  0  0  0  0  0  0
  138.1400   75.6070  220.5880 C   0  0  0  0  0  0  0  0  0  0  0  0
  138.1530   76.7480  221.5600 C   0  0  0  0  0  0  0  0  0  0  0  0
  139.2010   76.4920  222.5890 C   0  0  0  0  0  0  0  0  0  0  0  0
  140.5770   76.3650  221.9830 C   0  0  2  0  0  0  0  0  0  0  0  0
  141.0510   77.7230  221.4760 C   0  0  0  0  0  0  0  0  0  0  0  0
  142.1980   77.6130  220.5990 N   0  0  0  0  0  0  0  0  0  0  0  0
  142.2040   78.3340  219.3590 C   0  0  0  0  0  0  0  0  0  0  0  0
  141.8890   79.6920  219.3300 C   0  0  0  0  0  0  0  0  0  0  0  0
  141.8940   80.3910  218.1430 C   0  0  0  0  0  0  0  0  0  0  0  0
  142.2110   79.7440  216.9830 C   0  0  0  0  0  0  0  0  0  0  0  0
  142.5220   78.3940  217.0220 C   0  0  0  0  0  0  0  0  0  0  0  0
  142.5100   77.7280  218.2090 N   0  0  0  0  0  0  0  0  0  0  0  0
  140.1700   71.5740  223.4770 C   0  0  0  0  0  0  0  0  0  0  0  0
  139.6130   70.3340  223.2830 C   0  0  0  0  0  0  0  0  0  0  0  0
  139.5450   69.4750  224.3780 C   0  0  0  0  0  0  0  0  0  0  0  0
  140.0290   69.8720  225.6250 C   0  0  0  0  0  0  0  0  0  0  0  0
  139.9640   69.0270  226.7110 C   0  0  0  0  0  0  0  0  0  0  0  0
  140.4520   69.4460  227.9360 C   0  0  0  0  0  0  0  0  0  0  0  0
  140.4110   68.6520  229.0360 F   0  0  0  0  0  0  0  0  0  0  0  0
  141.0060   70.7190  228.0670 C   0  0  0  0  0  0  0  0  0  0  0  0
  141.0790   71.5840  226.9770 C   0  0  0  0  0  0  0  0  0  0  0  0
  140.5800   71.1220  225.7740 C   0  0  0  0  0  0  0  0  0  0  0  0
  140.6270   71.9230  224.6930 N   0  0  0  0  0  0  0  0  0  0  0  0
  141.7580   71.3810  221.3090 H   0  0  0  0  0  0  0  0  0  0  0  0
  142.0672   72.7919  219.4870 H   0  0  0  0  0  0  0  0  0  0  0  0
  140.3146   73.1990  219.6578 H   0  0  0  0  0  0  0  0  0  0  0  0
  139.6114   76.4401  219.2843 H   0  0  0  0  0  0  0  0  0  0  0  0
  139.5056   74.6231  219.2966 H   0  0  0  0  0  0  0  0  0  0  0  0
  137.3512   75.7679  219.8384 H   0  0  0  0  0  0  0  0  0  0  0  0
  137.9410   74.6641  221.1184 H   0  0  0  0  0  0  0  0  0  0  0  0
  138.3783   77.6841  221.0280 H   0  0  0  0  0  0  0  0  0  0  0  0
  137.1691   76.8377  222.0436 H   0  0  0  0  0  0  0  0  0  0  0  0
  139.2053   77.3267  223.3054 H   0  0  0  0  0  0  0  0  0  0  0  0
  138.9615   75.5397  223.0847 H   0  0  0  0  0  0  0  0  0  0  0  0
  141.2334   75.9727  222.7737 H   0  0  0  0  0  0  0  0  0  0  0  0
  140.2284   78.2012  220.9241 H   0  0  0  0  0  0  0  0  0  0  0  0
  141.3511   78.3217  222.3486 H   0  0  0  0  0  0  0  0  0  0  0  0
  143.0260   77.0270  220.8340 H   0  0  0  0  0  0  0  0  0  0  0  0
  141.6336   80.2110  220.2656 H   0  0  0  0  0  0  0  0  0  0  0  0
  141.6445   81.4623  218.1297 H   0  0  0  0  0  0  0  0  0  0  0  0
  142.2194   80.2887  216.0274 H   0  0  0  0  0  0  0  0  0  0  0  0
  142.7783   77.8612  216.0944 H   0  0  0  0  0  0  0  0  0  0  0  0
  139.2334   70.0291  222.2966 H   0  0  0  0  0  0  0  0  0  0  0  0
  139.1053   68.4738  224.2582 H   0  0  0  0  0  0  0  0  0  0  0  0
  139.5261   68.0236  226.6047 H   0  0  0  0  0  0  0  0  0  0  0  0
  141.3908   71.0449  229.0446 H   0  0  0  0  0  0  0  0  0  0  0  0
  141.5144   72.5898  227.0700 H   0  0  0  0  0  0  0  0  0  0  0  0
  1  2  2  0
  2  3  1  0
  3  4  1  0
  4  5  1  0
  5  6  2  0
  5  7  1  0
  7  8  1  0
  8  9  1  0
  9 10  1  0
 10 11  1  0
 11 12  1  0
 12 13  1  0
 13 14  1  0
 14 15  1  0
 15 16  2  0
 16 17  1  0
 17 18  2  0
 18 19  1  0
 19 20  2  0
  2 21  1  0
 21 22  2  0
 22 23  1  0
 23 24  2  0
 24 25  1  0
 25 26  2  0
 26 27  1  0
 26 28  1  0
 28 29  2  0
 29 30  1  0
 30 31  2  0
 12  7  1  0
 20 15  1  0
 31 21  1  0
 30 24  1  0
  3 32  1  0
  4 33  1  0
  4 34  1  0
  8 35  1  0
  8 36  1  0
  9 37  1  0
  9 38  1  0
 10 39  1  0
 10 40  1  0
 11 41  1  0
 11 42  1  0
 12 43  1  1
 13 44  1  0
 13 45  1  0
 14 46  1  0
 16 47  1  0
 17 48  1  0
 18 49  1  0
 19 50  1  0
 22 51  1  0
 23 52  1  0
 25 53  1  0
 28 54  1  0
 29 55  1  0
M  END
>  <smiles>  (50) 
O=C(NCC(=O)N1CCCCC1CNc1ccccn1)c1ccc2cc(F)ccc2n1

>  <score_type>  (50) 
oracle

>  <origin>  (50) 
autodockgpu

>  <m_score__min__energy>  (50) 
-9.0299999999999994

>  <m_primary>  (50) 
energy

>  <rmsd>  (50) 
2.8664122640274208

>  <m_score__min__rmsd>  (50) 
2.8664122640274208

>  <meeko>  (50) 
{"free_energy": -7.31, "intermolecular_energy": -9.4, "internal_energy": -2.35, "cluster_size": 1, "cluster_id": 6, "rank_in_cluster": 1}

>  <energy>  (50) 
-5.79

>  <cluster_rmsd>  (50) 
0.0

>  <cluster>  (50) 
11

$$$$

     RDKit          3D

 55 58  0  0  0  0  0  0  0  0999 V2000
  140.2950   70.8360  221.6990 O   0  0  0  0  0  0  0  0  0  0  0  0
  140.1170   71.6190  222.6880 C   0  0  0  0  0  0  0  0  0  0  0  0
  139.8080   72.9980  222.5210 N   0  0  0  0  0  0  0  0  0  0  0  0
  139.6930   73.5290  221.1680 C   0  0  0  0  0  0  0  0  0  0  0  0
  140.1500   74.9290  221.2210 C   0  0  0  0  0  0  0  0  0  0  0  0
  139.9530   75.6920  222.2190 O   0  0  0  0  0  0  0  0  0  0  0  0
  140.8670   75.5530  220.1310 N   0  0  0  0  0  0  0  0  0  0  0  0
  140.3680   75.2290  218.7990 C   0  0  0  0  0  0  0  0  0  0  0  0
  141.3750   75.2760  217.7200 C   0  0  0  0  0  0  0  0  0  0  0  0
  142.6510   75.9690  217.9760 C   0  0  0  0  0  0  0  0  0  0  0  0
  143.0570   76.1750  219.3850 C   0  0  0  0  0  0  0  0  0  0  0  0
  141.9740   76.4140  220.3830 C   0  0  1  0  0  0  0  0  0  0  0  0
  141.6300   77.8720  220.5460 C   0  0  0  0  0  0  0  0  0  0  0  0
  140.9480   78.2110  221.7470 N   0  0  0  0  0  0  0  0  0  0  0  0
  141.4500   79.2940  222.5350 C   0  0  0  0  0  0  0  0  0  0  0  0
  142.7950   79.4580  222.7790 C   0  0  0  0  0  0  0  0  0  0  0  0
  143.3030   80.4890  223.5310 C   0  0  0  0  0  0  0  0  0  0  0  0
  142.4410   81.4130  224.0750 C   0  0  0  0  0  0  0  0  0  0  0  0
  141.1000   81.2510  223.8320 C   0  0  0  0  0  0  0  0  0  0  0  0
  140.6240   80.2150  223.0800 N   0  0  0  0  0  0  0  0  0  0  0  0
  140.2320   71.0860  224.0450 C   0  0  0  0  0  0  0  0  0  0  0  0
  140.6940   71.8900  225.0710 C   0  0  0  0  0  0  0  0  0  0  0  0
  140.8240   71.4440  226.3730 C   0  0  0  0  0  0  0  0  0  0  0  0
  140.4750   70.1380  226.6590 C   0  0  0  0  0  0  0  0  0  0  0  0
  140.6040   69.6880  227.9580 C   0  0  0  0  0  0  0  0  0  0  0  0
  140.2520   68.3820  228.2320 C   0  0  0  0  0  0  0  0  0  0  0  0
  140.3710   67.9200  229.5050 F   0  0  0  0  0  0  0  0  0  0  0  0
  139.7910   67.5850  227.2020 C   0  0  0  0  0  0  0  0  0  0  0  0
  139.6620   68.0320  225.9010 C   0  0  0  0  0  0  0  0  0  0  0  0
  140.0140   69.3400  225.6290 C   0  0  0  0  0  0  0  0  0  0  0  0
  139.9010   69.8190  224.3640 N   0  0  0  0  0  0  0  0  0  0  0  0
  139.6610   73.6410  223.3350 H   0  0  0  0  0  0  0  0  0  0  0  0
  140.3251   72.9499  220.4787 H   0  0  0  0  0  0  0  0  0  0  0  0
  138.6565   73.4651  220.8052 H   0  0  0  0  0  0  0  0  0  0  0  0
  139.9506   74.2117  218.8304 H   0  0  0  0  0  0  0  0  0  0  0  0
  139.6247   76.0026  218.5558 H   0  0  0  0  0  0  0  0  0  0  0  0
  141.6178   74.2358  217.4574 H   0  0  0  0  0  0  0  0  0  0  0  0
  140.8966   75.8766  216.9323 H   0  0  0  0  0  0  0  0  0  0  0  0
  143.4449   75.3842  217.4885 H   0  0  0  0  0  0  0  0  0  0  0  0
  142.4973   76.9844  217.5819 H   0  0  0  0  0  0  0  0  0  0  0  0
  143.6080   75.2781  219.7042 H   0  0  0  0  0  0  0  0  0  0  0  0
  143.6423   77.1063  219.3761 H   0  0  0  0  0  0  0  0  0  0  0  0
  142.3512   76.1397  221.3792 H   0  0  0  0  0  0  0  0  0  0  0  0
  142.5675   78.4466  220.5153 H   0  0  0  0  0  0  0  0  0  0  0  0
  140.9354   78.1111  219.7273 H   0  0  0  0  0  0  0  0  0  0  0  0
  140.0960   77.7240  222.1030 H   0  0  0  0  0  0  0  0  0  0  0  0
  143.4972   78.7276  222.3507 H   0  0  0  0  0  0  0  0  0  0  0  0
  144.3871   80.5750  223.6965 H   0  0  0  0  0  0  0  0  0  0  0  0
  142.8130   82.2511  224.6826 H   0  0  0  0  0  0  0  0  0  0  0  0
  140.3887   81.9758  224.2547 H   0  0  0  0  0  0  0  0  0  0  0  0
  140.9701   72.9297  224.8410 H   0  0  0  0  0  0  0  0  0  0  0  0
  141.1965   72.1130  227.1627 H   0  0  0  0  0  0  0  0  0  0  0  0
  140.9768   70.3517  228.7520 H   0  0  0  0  0  0  0  0  0  0  0  0
  139.5134   66.5450  227.4285 H   0  0  0  0  0  0  0  0  0  0  0  0
  139.2908   67.3675  225.1069 H   0  0  0  0  0  0  0  0  0  0  0  0
  1  2  2  0
  2  3  1  0
  3  4  1  0
  4  5  1  0
  5  6  2  0
  5  7  1  0
  7  8  1  0
  8  9  1  0
  9 10  1  0
 10 11  1  0
 11 12  1  0
 12 13  1  0
 13 14  1  0
 14 15  1  0
 15 16  2  0
 16 17  1  0
 17 18  2  0
 18 19  1  0
 19 20  2  0
  2 21  1  0
 21 22  2  0
 22 23  1  0
 23 24  2  0
 24 25  1  0
 25 26  2  0
 26 27  1  0
 26 28  1  0
 28 29  2  0
 29 30  1  0
 30 31  2  0
 12  7  1  0
 20 15  1  0
 31 21  1  0
 30 24  1  0
  3 32  1  0
  4 33  1  0
  4 34  1  0
  8 35  1  0
  8 36  1  0
  9 37  1  0
  9 38  1  0
 10 39  1  0
 10 40  1  0
 11 41  1  0
 11 42  1  0
 12 43  1  1
 13 44  1  0
 13 45  1  0
 14 46  1  0
 16 47  1  0
 17 48  1  0
 18 49  1  0
 19 50  1  0
 22 51  1  0
 23 52  1  0
 25 53  1  0
 28 54  1  0
 29 55  1  0
M  END
>  <smiles>  (51) 
O=C(NCC(=O)N1CCCCC1CNc1ccccn1)c1ccc2cc(F)ccc2n1

>  <score_type>  (51) 
oracle

>  <origin>  (51) 
autodockgpu

>  <m_score__min__energy>  (51) 
-8.8000000000000007

>  <m_primary>  (51) 
energy

>  <rmsd>  (51) 
2.8920565537257086

>  <m_score__min__rmsd>  (51) 
2.8920565537257086

>  <meeko>  (51) 
{"free_energy": -8.38, "intermolecular_energy": -10.46, "internal_energy": -2.24, "cluster_size": 30, "cluster_id": 1, "rank_in_cluster": 5}

>  <energy>  (51) 
-8.8

>  <cluster_rmsd>  (51) 
0.0

>  <cluster>  (51) 
1

$$$$

     RDKit          3D

 55 58  0  0  0  0  0  0  0  0999 V2000
  137.7910   70.8710  222.0300 O   0  0  0  0  0  0  0  0  0  0  0  0
  138.6420   71.3320  222.8580 C   0  0  0  0  0  0  0  0  0  0  0  0
  139.2080   72.6300  222.7230 N   0  0  0  0  0  0  0  0  0  0  0  0
  138.7980   73.4570  221.5960 C   0  0  0  0  0  0  0  0  0  0  0  0
  139.6180   74.6810  221.6450 C   0  0  0  0  0  0  0  0  0  0  0  0
  140.8190   74.7010  222.0640 O   0  0  0  0  0  0  0  0  0  0  0  0
  139.1190   75.9690  221.2170 N   0  0  0  0  0  0  0  0  0  0  0  0
  138.2250   76.6290  222.1630 C   0  0  0  0  0  0  0  0  0  0  0  0
  137.2310   77.5400  221.5590 C   0  0  0  0  0  0  0  0  0  0  0  0
  137.4360   77.9870  220.1700 C   0  0  0  0  0  0  0  0  0  0  0  0
  138.3300   77.1790  219.3070 C   0  0  0  0  0  0  0  0  0  0  0  0
  139.4970   76.5170  219.9570 C   0  0  1  0  0  0  0  0  0  0  0  0
  140.7320   77.3800  219.9760 C   0  0  0  0  0  0  0  0  0  0  0  0
  141.4560   77.3880  221.2010 N   0  0  0  0  0  0  0  0  0  0  0  0
  141.6390   78.6350  221.8760 C   0  0  0  0  0  0  0  0  0  0  0  0
  141.7860   78.7120  223.2420 C   0  0  0  0  0  0  0  0  0  0  0  0
  141.9640   79.8970  223.9150 C   0  0  0  0  0  0  0  0  0  0  0  0
  142.0010   81.0740  223.2050 C   0  0  0  0  0  0  0  0  0  0  0  0
  141.8540   80.9980  221.8420 C   0  0  0  0  0  0  0  0  0  0  0  0
  141.6790   79.8060  221.2010 N   0  0  0  0  0  0  0  0  0  0  0  0
  139.0530   70.5020  223.9900 C   0  0  0  0  0  0  0  0  0  0  0  0
  138.8140   69.1390  223.9770 C   0  0  0  0  0  0  0  0  0  0  0  0
  139.1790   68.3040  225.0150 C   0  0  0  0  0  0  0  0  0  0  0  0
  139.8100   68.8560  226.1120 C   0  0  0  0  0  0  0  0  0  0  0  0
  140.1770   68.0250  227.1530 C   0  0  0  0  0  0  0  0  0  0  0  0
  140.8070   68.5880  228.2450 C   0  0  0  0  0  0  0  0  0  0  0  0
  141.1750   67.7860  229.2790 F   0  0  0  0  0  0  0  0  0  0  0  0
  141.0420   69.9490  228.2510 C   0  0  0  0  0  0  0  0  0  0  0  0
  140.6760   70.7830  227.2120 C   0  0  0  0  0  0  0  0  0  0  0  0
  140.0460   70.2180  226.1200 C   0  0  0  0  0  0  0  0  0  0  0  0
  139.6710   71.0030  225.0770 N   0  0  0  0  0  0  0  0  0  0  0  0
  139.9080   73.0090  223.4060 H   0  0  0  0  0  0  0  0  0  0  0  0
  138.9722   72.9221  220.6507 H   0  0  0  0  0  0  0  0  0  0  0  0
  137.7261   73.6976  221.6524 H   0  0  0  0  0  0  0  0  0  0  0  0
  137.6803   75.8500  222.7166 H   0  0  0  0  0  0  0  0  0  0  0  0
  138.8651   77.2558  222.8013 H   0  0  0  0  0  0  0  0  0  0  0  0
  136.2582   77.0278  221.5945 H   0  0  0  0  0  0  0  0  0  0  0  0
  137.3168   78.4620  222.1528 H   0  0  0  0  0  0  0  0  0  0  0  0
  136.4489   78.0138  219.6853 H   0  0  0  0  0  0  0  0  0  0  0  0
  137.9460   78.9570  220.2644 H   0  0  0  0  0  0  0  0  0  0  0  0
  137.7182   76.3900  218.8453 H   0  0  0  0  0  0  0  0  0  0  0  0
  138.7717   77.9016  218.6051 H   0  0  0  0  0  0  0  0  0  0  0  0
  139.8052   75.6637  219.3351 H   0  0  0  0  0  0  0  0  0  0  0  0
  141.4078   77.0217  219.1855 H   0  0  0  0  0  0  0  0  0  0  0  0
  140.3813   78.4118  219.8262 H   0  0  0  0  0  0  0  0  0  0  0  0
  141.8700   76.5420  221.6510 H   0  0  0  0  0  0  0  0  0  0  0  0
  141.7597   77.7790  223.8241 H   0  0  0  0  0  0  0  0  0  0  0  0
  142.0756   79.9038  225.0093 H   0  0  0  0  0  0  0  0  0  0  0  0
  142.1431   82.0407  223.7103 H   0  0  0  0  0  0  0  0  0  0  0  0
  141.8780   81.9246  221.2496 H   0  0  0  0  0  0  0  0  0  0  0  0
  138.3114   68.7014  223.1018 H   0  0  0  0  0  0  0  0  0  0  0  0
  138.9718   67.2247  224.9687 H   0  0  0  0  0  0  0  0  0  0  0  0
  139.9729   66.9448  227.1129 H   0  0  0  0  0  0  0  0  0  0  0  0
  141.5445   70.3900  229.1245 H   0  0  0  0  0  0  0  0  0  0  0  0
  140.8799   71.8632  227.2530 H   0  0  0  0  0  0  0  0  0  0  0  0
  1  2  2  0
  2  3  1  0
  3  4  1  0
  4  5  1  0
  5  6  2  0
  5  7  1  0
  7  8  1  0
  8  9  1  0
  9 10  1  0
 10 11  1  0
 11 12  1  0
 12 13  1  0
 13 14  1  0
 14 15  1  0
 15 16  2  0
 16 17  1  0
 17 18  2  0
 18 19  1  0
 19 20  2  0
  2 21  1  0
 21 22  2  0
 22 23  1  0
 23 24  2  0
 24 25  1  0
 25 26  2  0
 26 27  1  0
 26 28  1  0
 28 29  2  0
 29 30  1  0
 30 31  2  0
 12  7  1  0
 20 15  1  0
 31 21  1  0
 30 24  1  0
  3 32  1  0
  4 33  1  0
  4 34  1  0
  8 35  1  0
  8 36  1  0
  9 37  1  0
  9 38  1  0
 10 39  1  0
 10 40  1  0
 11 41  1  0
 11 42  1  0
 12 43  1  6
 13 44  1  0
 13 45  1  0
 14 46  1  0
 16 47  1  0
 17 48  1  0
 18 49  1  0
 19 50  1  0
 22 51  1  0
 23 52  1  0
 25 53  1  0
 28 54  1  0
 29 55  1  0
M  END
>  <smiles>  (52) 
O=C(NCC(=O)N1CCCCC1CNc1ccccn1)c1ccc2cc(F)ccc2n1

>  <score_type>  (52) 
oracle

>  <origin>  (52) 
autodockgpu

>  <m_score__min__energy>  (52) 
-8.8000000000000007

>  <m_primary>  (52) 
energy

>  <rmsd>  (52) 
2.6208226159276613

>  <m_score__min__rmsd>  (52) 
2.6208226159276613

>  <meeko>  (52) 
{"free_energy": -8.27, "intermolecular_energy": -10.36, "internal_energy": -2.76, "cluster_size": 30, "cluster_id": 1, "rank_in_cluster": 10}

>  <energy>  (52) 
-8.6

>  <cluster_rmsd>  (52) 
1.67

>  <cluster>  (52) 
1

$$$$

     RDKit          3D

 55 58  0  0  0  0  0  0  0  0999 V2000
  140.8800   71.9320  221.1130 O   0  0  0  0  0  0  0  0  0  0  0  0
  140.3850   72.4230  222.1790 C   0  0  0  0  0  0  0  0  0  0  0  0
  139.9780   73.7830  222.2710 N   0  0  0  0  0  0  0  0  0  0  0  0
  140.1350   74.6400  221.1020 C   0  0  0  0  0  0  0  0  0  0  0  0
  140.2410   76.0240  221.6010 C   0  0  0  0  0  0  0  0  0  0  0  0
  139.7810   76.3990  222.7250 O   0  0  0  0  0  0  0  0  0  0  0  0
  140.8830   77.0750  220.8430 N   0  0  0  0  0  0  0  0  0  0  0  0
  141.4250   78.1680  221.6440 C   0  0  0  0  0  0  0  0  0  0  0  0
  141.4800   79.4790  220.9650 C   0  0  0  0  0  0  0  0  0  0  0  0
  141.3480   79.5190  219.4970 C   0  0  0  0  0  0  0  0  0  0  0  0
  140.7210   78.3560  218.8260 C   0  0  0  0  0  0  0  0  0  0  0  0
  140.9590   77.0100  219.4220 C   0  0  1  0  0  0  0  0  0  0  0  0
  142.1860   76.3280  218.8740 C   0  0  0  0  0  0  0  0  0  0  0  0
  143.3120   76.3000  219.7440 N   0  0  0  0  0  0  0  0  0  0  0  0
  143.8590   75.0310  220.1100 C   0  0  0  0  0  0  0  0  0  0  0  0
  145.1750   74.8820  220.4830 C   0  0  0  0  0  0  0  0  0  0  0  0
  145.7260   73.6740  220.8400 C   0  0  0  0  0  0  0  0  0  0  0  0
  144.9370   72.5480  220.8300 C   0  0  0  0  0  0  0  0  0  0  0  0
  143.6240   72.6940  220.4570 C   0  0  0  0  0  0  0  0  0  0  0  0
  143.1050   73.9080  220.1080 N   0  0  0  0  0  0  0  0  0  0  0  0
  140.2260   71.5630  223.3510 C   0  0  0  0  0  0  0  0  0  0  0  0
  139.5740   70.3480  223.2390 C   0  0  0  0  0  0  0  0  0  0  0  0
  139.3920   69.4930  224.3090 C   0  0  0  0  0  0  0  0  0  0  0  0
  139.8870   69.8700  225.5430 C   0  0  0  0  0  0  0  0  0  0  0  0
  139.7080   69.0180  226.6150 C   0  0  0  0  0  0  0  0  0  0  0  0
  140.2060   69.4050  227.8430 C   0  0  0  0  0  0  0  0  0  0  0  0
  140.0400   68.5800  228.9110 F   0  0  0  0  0  0  0  0  0  0  0  0
  140.8560   70.6190  227.9470 C   0  0  0  0  0  0  0  0  0  0  0  0
  141.0360   71.4730  226.8760 C   0  0  0  0  0  0  0  0  0  0  0  0
  140.5380   71.0850  225.6480 C   0  0  0  0  0  0  0  0  0  0  0  0
  140.6940   71.8950  224.5700 N   0  0  0  0  0  0  0  0  0  0  0  0
  139.5690   74.1870  223.1480 H   0  0  0  0  0  0  0  0  0  0  0  0
  141.0462   74.3653  220.5504 H   0  0  0  0  0  0  0  0  0  0  0  0
  139.2826   74.5317  220.4152 H   0  0  0  0  0  0  0  0  0  0  0  0
  140.7979   78.2757  222.5413 H   0  0  0  0  0  0  0  0  0  0  0  0
  142.4673   77.8956  221.8661 H   0  0  0  0  0  0  0  0  0  0  0  0
  140.6680   80.0938  221.3805 H   0  0  0  0  0  0  0  0  0  0  0  0
  142.5036   79.8356  221.1523 H   0  0  0  0  0  0  0  0  0  0  0  0
  140.7470   80.4054  219.2460 H   0  0  0  0  0  0  0  0  0  0  0  0
  142.3838   79.5262  219.1267 H   0  0  0  0  0  0  0  0  0  0  0  0
  139.6342   78.5260  218.8181 H   0  0  0  0  0  0  0  0  0  0  0  0
  141.1961   78.3130  217.8349 H   0  0  0  0  0  0  0  0  0  0  0  0
  140.1462   76.3399  219.1054 H   0  0  0  0  0  0  0  0  0  0  0  0
  141.9173   75.2887  218.6341 H   0  0  0  0  0  0  0  0  0  0  0  0
  142.4949   76.9195  217.9995 H   0  0  0  0  0  0  0  0  0  0  0  0
  143.7750   77.1460  220.1420 H   0  0  0  0  0  0  0  0  0  0  0  0
  145.8185   75.7741  220.4962 H   0  0  0  0  0  0  0  0  0  0  0  0
  146.7851   73.6091  221.1301 H   0  0  0  0  0  0  0  0  0  0  0  0
  145.3434   71.5652  221.1109 H   0  0  0  0  0  0  0  0  0  0  0  0
  142.9717   71.8084  220.4387 H   0  0  0  0  0  0  0  0  0  0  0  0
  139.1834   70.0495  222.2550 H   0  0  0  0  0  0  0  0  0  0  0  0
  138.8658   68.5354  224.1817 H   0  0  0  0  0  0  0  0  0  0  0  0
  139.1837   68.0586  226.4939 H   0  0  0  0  0  0  0  0  0  0  0  0
  141.2491   70.9203  228.9292 H   0  0  0  0  0  0  0  0  0  0  0  0
  141.5599   72.4325  226.9978 H   0  0  0  0  0  0  0  0  0  0  0  0
  1  2  2  0
  2  3  1  0
  3  4  1  0
  4  5  1  0
  5  6  2  0
  5  7  1  0
  7  8  1  0
  8  9  1  0
  9 10  1  0
 10 11  1  0
 11 12  1  0
 12 13  1  0
 13 14  1  0
 14 15  1  0
 15 16  2  0
 16 17  1  0
 17 18  2  0
 18 19  1  0
 19 20  2  0
  2 21  1  0
 21 22  2  0
 22 23  1  0
 23 24  2  0
 24 25  1  0
 25 26  2  0
 26 27  1  0
 26 28  1  0
 28 29  2  0
 29 30  1  0
 30 31  2  0
 12  7  1  0
 20 15  1  0
 31 21  1  0
 30 24  1  0
  3 32  1  0
  4 33  1  0
  4 34  1  0
  8 35  1  0
  8 36  1  0
  9 37  1  0
  9 38  1  0
 10 39  1  0
 10 40  1  0
 11 41  1  0
 11 42  1  0
 12 43  1  6
 13 44  1  0
 13 45  1  0
 14 46  1  0
 16 47  1  0
 17 48  1  0
 18 49  1  0
 19 50  1  0
 22 51  1  0
 23 52  1  0
 25 53  1  0
 28 54  1  0
 29 55  1  0
M  END
>  <smiles>  (53) 
O=C(NCC(=O)N1CCCCC1CNc1ccccn1)c1ccc2cc(F)ccc2n1

>  <score_type>  (53) 
oracle

>  <origin>  (53) 
autodockgpu

>  <m_score__min__energy>  (53) 
-8.8000000000000007

>  <m_primary>  (53) 
energy

>  <rmsd>  (53) 
4.416503012142802

>  <m_score__min__rmsd>  (53) 
4.416503012142802

>  <meeko>  (53) 
{"free_energy": -8.6, "intermolecular_energy": -10.69, "internal_energy": -2.39, "cluster_size": 12, "cluster_id": 2, "rank_in_cluster": 5}

>  <energy>  (53) 
-8.59

>  <cluster_rmsd>  (53) 
0.86

>  <cluster>  (53) 
1

$$$$

     RDKit          3D

 55 58  0  0  0  0  0  0  0  0999 V2000
  141.0640   71.8920  221.3180 O   0  0  0  0  0  0  0  0  0  0  0  0
  140.4380   72.3640  222.3220 C   0  0  0  0  0  0  0  0  0  0  0  0
  139.9120   73.6860  222.3370 N   0  0  0  0  0  0  0  0  0  0  0  0
  140.0980   74.5250  221.1600 C   0  0  0  0  0  0  0  0  0  0  0  0
  139.9840   75.9240  221.6130 C   0  0  0  0  0  0  0  0  0  0  0  0
  139.1720   76.3020  222.5160 O   0  0  0  0  0  0  0  0  0  0  0  0
  140.7930   76.9870  221.0610 N   0  0  0  0  0  0  0  0  0  0  0  0
  141.4230   77.8580  222.0490 C   0  0  0  0  0  0  0  0  0  0  0  0
  141.6800   79.2400  221.5970 C   0  0  0  0  0  0  0  0  0  0  0  0
  141.6340   79.5300  220.1530 C   0  0  0  0  0  0  0  0  0  0  0  0
  140.9050   78.5830  219.2790 C   0  0  0  0  0  0  0  0  0  0  0  0
  140.9380   77.1400  219.6520 C   0  0  1  0  0  0  0  0  0  0  0  0
  142.0990   76.3970  219.0410 C   0  0  0  0  0  0  0  0  0  0  0  0
  143.2770   76.3390  219.8370 N   0  0  0  0  0  0  0  0  0  0  0  0
  143.8630   75.0610  220.0960 C   0  0  0  0  0  0  0  0  0  0  0  0
  143.1650   73.8880  219.9190 C   0  0  0  0  0  0  0  0  0  0  0  0
  143.7040   72.6470  220.1600 C   0  0  0  0  0  0  0  0  0  0  0  0
  145.0040   72.5530  220.6000 C   0  0  0  0  0  0  0  0  0  0  0  0
  145.7010   73.7230  220.7770 C   0  0  0  0  0  0  0  0  0  0  0  0
  145.1380   74.9410  220.5290 N   0  0  0  0  0  0  0  0  0  0  0  0
  140.2500   71.5210  223.5020 C   0  0  0  0  0  0  0  0  0  0  0  0
  139.5780   70.3170  223.3970 C   0  0  0  0  0  0  0  0  0  0  0  0
  139.3690   69.4780  224.4740 C   0  0  0  0  0  0  0  0  0  0  0  0
  139.8550   69.8610  225.7100 C   0  0  0  0  0  0  0  0  0  0  0  0
  139.6480   69.0260  226.7900 C   0  0  0  0  0  0  0  0  0  0  0  0
  140.1380   69.4190  228.0190 C   0  0  0  0  0  0  0  0  0  0  0  0
  139.9450   68.6100  229.0950 F   0  0  0  0  0  0  0  0  0  0  0  0
  140.8080   70.6220  228.1170 C   0  0  0  0  0  0  0  0  0  0  0  0
  141.0160   71.4600  227.0380 C   0  0  0  0  0  0  0  0  0  0  0  0
  140.5260   71.0650  225.8090 C   0  0  0  0  0  0  0  0  0  0  0  0
  140.7090   71.8590  224.7230 N   0  0  0  0  0  0  0  0  0  0  0  0
  139.3960   74.0730  223.1630 H   0  0  0  0  0  0  0  0  0  0  0  0
  141.0914   74.3484  220.7219 H   0  0  0  0  0  0  0  0  0  0  0  0
  139.3471   74.2967  220.3893 H   0  0  0  0  0  0  0  0  0  0  0  0
  140.7655   77.9049  222.9296 H   0  0  0  0  0  0  0  0  0  0  0  0
  142.4089   77.4176  222.2591 H   0  0  0  0  0  0  0  0  0  0  0  0
  140.9310   79.8840  222.0810 H   0  0  0  0  0  0  0  0  0  0  0  0
  142.7290   79.4219  221.8737 H   0  0  0  0  0  0  0  0  0  0  0  0
  141.1629   80.5166  220.0319 H   0  0  0  0  0  0  0  0  0  0  0  0
  142.6812   79.4588  219.8239 H   0  0  0  0  0  0  0  0  0  0  0  0
  139.8504   78.8952  219.2617 H   0  0  0  0  0  0  0  0  0  0  0  0
  141.4261   78.6352  218.3117 H   0  0  0  0  0  0  0  0  0  0  0  0
  140.0658   76.6435  219.2017 H   0  0  0  0  0  0  0  0  0  0  0  0
  141.7737   75.3653  218.8416 H   0  0  0  0  0  0  0  0  0  0  0  0
  142.3738   76.9584  218.1359 H   0  0  0  0  0  0  0  0  0  0  0  0
  143.7540   77.1700  220.2510 H   0  0  0  0  0  0  0  0  0  0  0  0
  142.1244   73.9468  219.5673 H   0  0  0  0  0  0  0  0  0  0  0  0
  143.1028   71.7393  220.0029 H   0  0  0  0  0  0  0  0  0  0  0  0
  145.4682   71.5765  220.8026 H   0  0  0  0  0  0  0  0  0  0  0  0
  146.7423   73.6770  221.1285 H   0  0  0  0  0  0  0  0  0  0  0  0
  139.1929   70.0141  222.4122 H   0  0  0  0  0  0  0  0  0  0  0  0
  138.8287   68.5277  224.3511 H   0  0  0  0  0  0  0  0  0  0  0  0
  139.1080   68.0747  226.6742 H   0  0  0  0  0  0  0  0  0  0  0  0
  141.1945   70.9280  229.1003 H   0  0  0  0  0  0  0  0  0  0  0  0
  141.5550   72.4118  227.1545 H   0  0  0  0  0  0  0  0  0  0  0  0
  1  2  2  0
  2  3  1  0
  3  4  1  0
  4  5  1  0
  5  6  2  0
  5  7  1  0
  7  8  1  0
  8  9  1  0
  9 10  1  0
 10 11  1  0
 11 12  1  0
 12 13  1  0
 13 14  1  0
 14 15  1  0
 15 16  2  0
 16 17  1  0
 17 18  2  0
 18 19  1  0
 19 20  2  0
  2 21  1  0
 21 22  2  0
 22 23  1  0
 23 24  2  0
 24 25  1  0
 25 26  2  0
 26 27  1  0
 26 28  1  0
 28 29  2  0
 29 30  1  0
 30 31  2  0
 12  7  1  0
 20 15  1  0
 31 21  1  0
 30 24  1  0
  3 32  1  0
  4 33  1  0
  4 34  1  0
  8 35  1  0
  8 36  1  0
  9 37  1  0
  9 38  1  0
 10 39  1  0
 10 40  1  0
 11 41  1  0
 11 42  1  0
 12 43  1  6
 13 44  1  0
 13 45  1  0
 14 46  1  0
 16 47  1  0
 17 48  1  0
 18 49  1  0
 19 50  1  0
 22 51  1  0
 23 52  1  0
 25 53  1  0
 28 54  1  0
 29 55  1  0
M  END
>  <smiles>  (54) 
O=C(NCC(=O)N1CCCCC1CNc1ccccn1)c1ccc2cc(F)ccc2n1

>  <score_type>  (54) 
oracle

>  <origin>  (54) 
autodockgpu

>  <m_score__min__energy>  (54) 
-8.8000000000000007

>  <m_primary>  (54) 
energy

>  <rmsd>  (54) 
4.477747159817595

>  <m_score__min__rmsd>  (54) 
4.477747159817595

>  <meeko>  (54) 
{"free_energy": -8.76, "intermolecular_energy": -10.85, "internal_energy": -2.25, "cluster_size": 12, "cluster_id": 2, "rank_in_cluster": 1}

>  <energy>  (54) 
-8.41

>  <cluster_rmsd>  (54) 
1.04

>  <cluster>  (54) 
1

$$$$

     RDKit          3D

 55 58  0  0  0  0  0  0  0  0999 V2000
  138.7430   71.0180  221.2060 O   0  0  0  0  0  0  0  0  0  0  0  0
  139.1370   71.6550  222.2370 C   0  0  0  0  0  0  0  0  0  0  0  0
  139.2900   73.0690  222.2450 N   0  0  0  0  0  0  0  0  0  0  0  0
  138.9830   73.8120  221.0290 C   0  0  0  0  0  0  0  0  0  0  0  0
  139.7120   75.0910  221.1160 C   0  0  0  0  0  0  0  0  0  0  0  0
  140.2030   75.5430  222.1990 O   0  0  0  0  0  0  0  0  0  0  0  0
  139.9290   75.9410  219.9680 N   0  0  0  0  0  0  0  0  0  0  0  0
  138.7140   76.4030  219.3040 C   0  0  0  0  0  0  0  0  0  0  0  0
  138.8520   76.6840  217.8610 C   0  0  0  0  0  0  0  0  0  0  0  0
  140.2060   76.8340  217.2980 C   0  0  0  0  0  0  0  0  0  0  0  0
  141.3400   76.2600  218.0590 C   0  0  0  0  0  0  0  0  0  0  0  0
  141.2480   76.2790  219.5470 C   0  0  1  0  0  0  0  0  0  0  0  0
  141.8160   77.5330  220.1590 C   0  0  0  0  0  0  0  0  0  0  0  0
  141.7480   77.6080  221.5790 N   0  0  0  0  0  0  0  0  0  0  0  0
  141.8860   78.8870  222.2010 C   0  0  0  0  0  0  0  0  0  0  0  0
  142.2280   79.0220  223.5280 C   0  0  0  0  0  0  0  0  0  0  0  0
  142.3680   80.2400  224.1500 C   0  0  0  0  0  0  0  0  0  0  0  0
  142.1610   81.3910  223.4270 C   0  0  0  0  0  0  0  0  0  0  0  0
  141.8210   81.2580  222.1030 C   0  0  0  0  0  0  0  0  0  0  0  0
  141.6890   80.0350  221.5120 N   0  0  0  0  0  0  0  0  0  0  0  0
  139.4440   70.9100  223.4570 C   0  0  0  0  0  0  0  0  0  0  0  0
  139.1540   69.5590  223.5400 C   0  0  0  0  0  0  0  0  0  0  0  0
  139.4190   68.8020  224.6650 C   0  0  0  0  0  0  0  0  0  0  0  0
  140.0020   69.4230  225.7530 C   0  0  0  0  0  0  0  0  0  0  0  0
  140.2690   68.6710  226.8790 C   0  0  0  0  0  0  0  0  0  0  0  0
  140.8500   69.3020  227.9610 C   0  0  0  0  0  0  0  0  0  0  0  0
  141.1220   68.5780  229.0790 F   0  0  0  0  0  0  0  0  0  0  0  0
  141.1370   70.6500  227.8710 C   0  0  0  0  0  0  0  0  0  0  0  0
  140.8700   71.4060  226.7460 C   0  0  0  0  0  0  0  0  0  0  0  0
  140.2890   70.7730  225.6650 C   0  0  0  0  0  0  0  0  0  0  0  0
  140.0110   71.4790  224.5390 N   0  0  0  0  0  0  0  0  0  0  0  0
  139.6140   73.5920  223.0940 H   0  0  0  0  0  0  0  0  0  0  0  0
  139.3145   73.2464  220.1457 H   0  0  0  0  0  0  0  0  0  0  0  0
  137.9003   73.9805  220.9320 H   0  0  0  0  0  0  0  0  0  0  0  0
  137.9435   75.6277  219.4272 H   0  0  0  0  0  0  0  0  0  0  0  0
  138.4541   77.3614  219.7773 H   0  0  0  0  0  0  0  0  0  0  0  0
  138.3663   75.8574  217.3217 H   0  0  0  0  0  0  0  0  0  0  0  0
  138.3980   77.6782  217.7366 H   0  0  0  0  0  0  0  0  0  0  0  0
  140.2030   76.3586  216.3060 H   0  0  0  0  0  0  0  0  0  0  0  0
  140.3894   77.9186  217.3052 H   0  0  0  0  0  0  0  0  0  0  0  0
  141.4479   75.2102  217.7486 H   0  0  0  0  0  0  0  0  0  0  0  0
  142.1952   76.9099  217.8220 H   0  0  0  0  0  0  0  0  0  0  0  0
  141.9051   75.4927  219.9471 H   0  0  0  0  0  0  0  0  0  0  0  0
  142.8740   77.6036  219.8663 H   0  0  0  0  0  0  0  0  0  0  0  0
  141.1954   78.3598  219.7832 H   0  0  0  0  0  0  0  0  0  0  0  0
  141.6030   76.7890  222.2100 H   0  0  0  0  0  0  0  0  0  0  0  0
  142.3976   78.1103  224.1196 H   0  0  0  0  0  0  0  0  0  0  0  0
  142.6425   80.2931  225.2139 H   0  0  0  0  0  0  0  0  0  0  0  0
  142.2640   82.3825  223.8922 H   0  0  0  0  0  0  0  0  0  0  0  0
  141.6502   82.1632  221.5017 H   0  0  0  0  0  0  0  0  0  0  0  0
  138.6921   69.0663  222.6717 H   0  0  0  0  0  0  0  0  0  0  0  0
  139.1718   67.7305  224.6938 H   0  0  0  0  0  0  0  0  0  0  0  0
  140.0257   67.5988  226.9135 H   0  0  0  0  0  0  0  0  0  0  0  0
  141.6005   71.1455  228.7368 H   0  0  0  0  0  0  0  0  0  0  0  0
  141.1126   72.4784  226.7124 H   0  0  0  0  0  0  0  0  0  0  0  0
  1  2  2  0
  2  3  1  0
  3  4  1  0
  4  5  1  0
  5  6  2  0
  5  7  1  0
  7  8  1  0
  8  9  1  0
  9 10  1  0
 10 11  1  0
 11 12  1  0
 12 13  1  0
 13 14  1  0
 14 15  1  0
 15 16  2  0
 16 17  1  0
 17 18  2  0
 18 19  1  0
 19 20  2  0
  2 21  1  0
 21 22  2  0
 22 23  1  0
 23 24  2  0
 24 25  1  0
 25 26  2  0
 26 27  1  0
 26 28  1  0
 28 29  2  0
 29 30  1  0
 30 31  2  0
 12  7  1  0
 20 15  1  0
 31 21  1  0
 30 24  1  0
  3 32  1  0
  4 33  1  0
  4 34  1  0
  8 35  1  0
  8 36  1  0
  9 37  1  0
  9 38  1  0
 10 39  1  0
 10 40  1  0
 11 41  1  0
 11 42  1  0
 12 43  1  1
 13 44  1  0
 13 45  1  0
 14 46  1  0
 16 47  1  0
 17 48  1  0
 18 49  1  0
 19 50  1  0
 22 51  1  0
 23 52  1  0
 25 53  1  0
 28 54  1  0
 29 55  1  0
M  END
>  <smiles>  (55) 
O=C(NCC(=O)N1CCCCC1CNc1ccccn1)c1ccc2cc(F)ccc2n1

>  <score_type>  (55) 
oracle

>  <origin>  (55) 
autodockgpu

>  <m_score__min__energy>  (55) 
-8.8000000000000007

>  <m_primary>  (55) 
energy

>  <rmsd>  (55) 
1.8527635496115855

>  <m_score__min__rmsd>  (55) 
1.8527635496115855

>  <meeko>  (55) 
{"free_energy": -7.7, "intermolecular_energy": -9.78, "internal_energy": -2.63, "cluster_size": 30, "cluster_id": 1, "rank_in_cluster": 28}

>  <energy>  (55) 
-8.38

>  <cluster_rmsd>  (55) 
1.6

>  <cluster>  (55) 
1

$$$$

     RDKit          3D

 55 58  0  0  0  0  0  0  0  0999 V2000
  139.9830   70.9100  221.6560 O   0  0  0  0  0  0  0  0  0  0  0  0
  139.9140   71.6870  222.6630 C   0  0  0  0  0  0  0  0  0  0  0  0
  139.6610   73.0810  222.5320 N   0  0  0  0  0  0  0  0  0  0  0  0
  139.4740   73.6350  221.1970 C   0  0  0  0  0  0  0  0  0  0  0  0
  139.8160   75.0670  221.2780 C   0  0  0  0  0  0  0  0  0  0  0  0
  140.2040   75.6330  222.3490 O   0  0  0  0  0  0  0  0  0  0  0  0
  139.7380   75.9500  220.1370 N   0  0  0  0  0  0  0  0  0  0  0  0
  138.4140   76.5090  219.8790 C   0  0  0  0  0  0  0  0  0  0  0  0
  138.1340   76.8410  218.4670 C   0  0  0  0  0  0  0  0  0  0  0  0
  139.2660   76.9360  217.5280 C   0  0  0  0  0  0  0  0  0  0  0  0
  140.5340   76.2660  217.9000 C   0  0  0  0  0  0  0  0  0  0  0  0
  140.8910   76.2290  219.3470 C   0  0  1  0  0  0  0  0  0  0  0  0
  141.7000   77.4210  219.7890 C   0  0  0  0  0  0  0  0  0  0  0  0
  141.8210   77.5930  221.1960 N   0  0  0  0  0  0  0  0  0  0  0  0
  141.7980   78.9210  221.7250 C   0  0  0  0  0  0  0  0  0  0  0  0
  142.5050   79.2710  222.8540 C   0  0  0  0  0  0  0  0  0  0  0  0
  142.5010   80.5390  223.3820 C   0  0  0  0  0  0  0  0  0  0  0  0
  141.7600   81.5210  222.7660 C   0  0  0  0  0  0  0  0  0  0  0  0
  141.0550   81.1730  221.6400 C   0  0  0  0  0  0  0  0  0  0  0  0
  141.0780   79.9040  221.1390 N   0  0  0  0  0  0  0  0  0  0  0  0
  140.1000   71.1320  224.0030 C   0  0  0  0  0  0  0  0  0  0  0  0
  140.7160   71.8820  224.9880 C   0  0  0  0  0  0  0  0  0  0  0  0
  140.9200   71.4120  226.2720 C   0  0  0  0  0  0  0  0  0  0  0  0
  140.4870   70.1380  226.5820 C   0  0  0  0  0  0  0  0  0  0  0  0
  140.6880   69.6640  227.8630 C   0  0  0  0  0  0  0  0  0  0  0  0
  140.2510   68.3890  228.1620 C   0  0  0  0  0  0  0  0  0  0  0  0
  140.4400   67.9050  229.4180 F   0  0  0  0  0  0  0  0  0  0  0  0
  139.6370   67.6460  227.1740 C   0  0  0  0  0  0  0  0  0  0  0  0
  139.4340   68.1170  225.8910 C   0  0  0  0  0  0  0  0  0  0  0  0
  139.8720   69.3930  225.5930 C   0  0  0  0  0  0  0  0  0  0  0  0
  139.6910   69.8940  224.3440 N   0  0  0  0  0  0  0  0  0  0  0  0
  139.6030   73.7200  223.3610 H   0  0  0  0  0  0  0  0  0  0  0  0
  140.1363   73.1275  220.4803 H   0  0  0  0  0  0  0  0  0  0  0  0
  138.4384   73.4955  220.8534 H   0  0  0  0  0  0  0  0  0  0  0  0
  137.6646   75.7753  220.2108 H   0  0  0  0  0  0  0  0  0  0  0  0
  138.3725   77.4604  220.4296 H   0  0  0  0  0  0  0  0  0  0  0  0
  137.4555   76.0665  218.0800 H   0  0  0  0  0  0  0  0  0  0  0  0
  137.7308   77.8637  218.5062 H   0  0  0  0  0  0  0  0  0  0  0  0
  138.9356   76.5039  216.5719 H   0  0  0  0  0  0  0  0  0  0  0  0
  139.5164   78.0069  217.5056 H   0  0  0  0  0  0  0  0  0  0  0  0
  140.4730   75.2255  217.5484 H   0  0  0  0  0  0  0  0  0  0  0  0
  141.3217   76.8740  217.4311 H   0  0  0  0  0  0  0  0  0  0  0  0
  141.5830   75.3902  219.5133 H   0  0  0  0  0  0  0  0  0  0  0  0
  142.7126   77.3163  219.3723 H   0  0  0  0  0  0  0  0  0  0  0  0
  141.1582   78.3055  219.4227 H   0  0  0  0  0  0  0  0  0  0  0  0
  141.9270   76.8130  221.8820 H   0  0  0  0  0  0  0  0  0  0  0  0
  143.1024   78.4968  223.3577 H   0  0  0  0  0  0  0  0  0  0  0  0
  143.0835   80.7667  224.2869 H   0  0  0  0  0  0  0  0  0  0  0  0
  141.7332   82.5473  223.1609 H   0  0  0  0  0  0  0  0  0  0  0  0
  140.4547   81.9391  221.1274 H   0  0  0  0  0  0  0  0  0  0  0  0
  141.0587   72.8971  224.7390 H   0  0  0  0  0  0  0  0  0  0  0  0
  141.4155   72.0380  227.0287 H   0  0  0  0  0  0  0  0  0  0  0  0
  141.1826   70.2850  228.6244 H   0  0  0  0  0  0  0  0  0  0  0  0
  139.2929   66.6305  227.4197 H   0  0  0  0  0  0  0  0  0  0  0  0
  138.9390   67.4953  225.1304 H   0  0  0  0  0  0  0  0  0  0  0  0
  1  2  2  0
  2  3  1  0
  3  4  1  0
  4  5  1  0
  5  6  2  0
  5  7  1  0
  7  8  1  0
  8  9  1  0
  9 10  1  0
 10 11  1  0
 11 12  1  0
 12 13  1  0
 13 14  1  0
 14 15  1  0
 15 16  2  0
 16 17  1  0
 17 18  2  0
 18 19  1  0
 19 20  2  0
  2 21  1  0
 21 22  2  0
 22 23  1  0
 23 24  2  0
 24 25  1  0
 25 26  2  0
 26 27  1  0
 26 28  1  0
 28 29  2  0
 29 30  1  0
 30 31  2  0
 12  7  1  0
 20 15  1  0
 31 21  1  0
 30 24  1  0
  3 32  1  0
  4 33  1  0
  4 34  1  0
  8 35  1  0
  8 36  1  0
  9 37  1  0
  9 38  1  0
 10 39  1  0
 10 40  1  0
 11 41  1  0
 11 42  1  0
 12 43  1  6
 13 44  1  0
 13 45  1  0
 14 46  1  0
 16 47  1  0
 17 48  1  0
 18 49  1  0
 19 50  1  0
 22 51  1  0
 23 52  1  0
 25 53  1  0
 28 54  1  0
 29 55  1  0
M  END
>  <smiles>  (56) 
O=C(NCC(=O)N1CCCCC1CNc1ccccn1)c1ccc2cc(F)ccc2n1

>  <score_type>  (56) 
oracle

>  <origin>  (56) 
autodockgpu

>  <m_score__min__energy>  (56) 
-8.8000000000000007

>  <m_primary>  (56) 
energy

>  <rmsd>  (56) 
2.7045660786551022

>  <m_score__min__rmsd>  (56) 
2.7045660786551022

>  <meeko>  (56) 
{"free_energy": -7.97, "intermolecular_energy": -10.06, "internal_energy": -2.49, "cluster_size": 30, "cluster_id": 1, "rank_in_cluster": 22}

>  <energy>  (56) 
-8.36

>  <cluster_rmsd>  (56) 
1.15

>  <cluster>  (56) 
1

$$$$

     RDKit          3D

 55 58  0  0  0  0  0  0  0  0999 V2000
  140.6510   71.5110  221.0380 O   0  0  0  0  0  0  0  0  0  0  0  0
  140.1060   72.1030  222.0250 C   0  0  0  0  0  0  0  0  0  0  0  0
  139.6340   73.4430  221.9430 N   0  0  0  0  0  0  0  0  0  0  0  0
  139.7810   74.1590  220.6820 C   0  0  0  0  0  0  0  0  0  0  0  0
  139.4640   75.5720  220.9560 C   0  0  0  0  0  0  0  0  0  0  0  0
  138.2820   75.9980  221.1500 O   0  0  0  0  0  0  0  0  0  0  0  0
  140.4820   76.5970  221.0260 N   0  0  0  0  0  0  0  0  0  0  0  0
  140.9570   76.9020  222.3720 C   0  0  0  0  0  0  0  0  0  0  0  0
  141.4490   78.2810  222.5680 C   0  0  0  0  0  0  0  0  0  0  0  0
  141.7630   79.0940  221.3790 C   0  0  0  0  0  0  0  0  0  0  0  0
  141.1580   78.6940  220.0880 C   0  0  0  0  0  0  0  0  0  0  0  0
  140.9580   77.2360  219.8450 C   0  0  1  0  0  0  0  0  0  0  0  0
  142.1450   76.5770  219.1910 C   0  0  0  0  0  0  0  0  0  0  0  0
  143.2660   76.3520  220.0380 N   0  0  0  0  0  0  0  0  0  0  0  0
  143.6990   75.0070  220.2530 C   0  0  0  0  0  0  0  0  0  0  0  0
  145.0200   74.6910  220.4770 C   0  0  0  0  0  0  0  0  0  0  0  0
  145.4620   73.4070  220.6870 C   0  0  0  0  0  0  0  0  0  0  0  0
  144.5540   72.3730  220.6770 C   0  0  0  0  0  0  0  0  0  0  0  0
  143.2360   72.6870  220.4530 C   0  0  0  0  0  0  0  0  0  0  0  0
  142.8260   73.9730  220.2480 N   0  0  0  0  0  0  0  0  0  0  0  0
  139.9570   71.3840  223.2900 C   0  0  0  0  0  0  0  0  0  0  0  0
  139.2170   70.2170  223.3450 C   0  0  0  0  0  0  0  0  0  0  0  0
  139.0400   69.4940  224.5090 C   0  0  0  0  0  0  0  0  0  0  0  0
  139.6310   69.9590  225.6670 C   0  0  0  0  0  0  0  0  0  0  0  0
  139.4570   69.2400  226.8330 C   0  0  0  0  0  0  0  0  0  0  0  0
  140.0520   69.7140  227.9850 C   0  0  0  0  0  0  0  0  0  0  0  0
  139.8920   69.0200  229.1430 F   0  0  0  0  0  0  0  0  0  0  0  0
  140.7900   70.8800  227.9240 C   0  0  0  0  0  0  0  0  0  0  0  0
  140.9650   71.6020  226.7590 C   0  0  0  0  0  0  0  0  0  0  0  0
  140.3700   71.1260  225.6070 C   0  0  0  0  0  0  0  0  0  0  0  0
  140.5180   71.8050  224.4410 N   0  0  0  0  0  0  0  0  0  0  0  0
  139.1850   73.9290  222.7560 H   0  0  0  0  0  0  0  0  0  0  0  0
  140.8129   74.0671  220.3123 H   0  0  0  0  0  0  0  0  0  0  0  0
  139.1117   73.7460  219.9129 H   0  0  0  0  0  0  0  0  0  0  0  0
  140.1255   76.7346  223.0724 H   0  0  0  0  0  0  0  0  0  0  0  0
  141.8194   76.2423  222.5481 H   0  0  0  0  0  0  0  0  0  0  0  0
  140.6786   78.8223  223.1367 H   0  0  0  0  0  0  0  0  0  0  0  0
  142.4202   78.1507  223.0678 H   0  0  0  0  0  0  0  0  0  0  0  0
  141.4357   80.1228  221.5896 H   0  0  0  0  0  0  0  0  0  0  0  0
  142.8447   78.9602  221.2305 H   0  0  0  0  0  0  0  0  0  0  0  0
  140.1722   79.1776  220.0219 H   0  0  0  0  0  0  0  0  0  0  0  0
  141.8873   79.0081  219.3268 H   0  0  0  0  0  0  0  0  0  0  0  0
  140.1653   77.1124  219.0924 H   0  0  0  0  0  0  0  0  0  0  0  0
  141.8175   75.6036  218.7970 H   0  0  0  0  0  0  0  0  0  0  0  0
  142.4890   77.2771  218.4154 H   0  0  0  0  0  0  0  0  0  0  0  0
  143.8040   77.1040  220.5210 H   0  0  0  0  0  0  0  0  0  0  0  0
  145.7581   75.5065  220.4885 H   0  0  0  0  0  0  0  0  0  0  0  0
  146.5297   73.2079  220.8611 H   0  0  0  0  0  0  0  0  0  0  0  0
  144.8722   71.3331  220.8424 H   0  0  0  0  0  0  0  0  0  0  0  0
  142.4893   71.8794  220.4383 H   0  0  0  0  0  0  0  0  0  0  0  0
  138.7484   69.8479  222.4208 H   0  0  0  0  0  0  0  0  0  0  0  0
  138.4427   68.5703  224.5131 H   0  0  0  0  0  0  0  0  0  0  0  0
  138.8610   68.3155  226.8436 H   0  0  0  0  0  0  0  0  0  0  0  0
  141.2606   71.2513  228.8463 H   0  0  0  0  0  0  0  0  0  0  0  0
  141.5598   72.5273  226.7493 H   0  0  0  0  0  0  0  0  0  0  0  0
  1  2  2  0
  2  3  1  0
  3  4  1  0
  4  5  1  0
  5  6  2  0
  5  7  1  0
  7  8  1  0
  8  9  1  0
  9 10  1  0
 10 11  1  0
 11 12  1  0
 12 13  1  0
 13 14  1  0
 14 15  1  0
 15 16  2  0
 16 17  1  0
 17 18  2  0
 18 19  1  0
 19 20  2  0
  2 21  1  0
 21 22  2  0
 22 23  1  0
 23 24  2  0
 24 25  1  0
 25 26  2  0
 26 27  1  0
 26 28  1  0
 28 29  2  0
 29 30  1  0
 30 31  2  0
 12  7  1  0
 20 15  1  0
 31 21  1  0
 30 24  1  0
  3 32  1  0
  4 33  1  0
  4 34  1  0
  8 35  1  0
  8 36  1  0
  9 37  1  0
  9 38  1  0
 10 39  1  0
 10 40  1  0
 11 41  1  0
 11 42  1  0
 12 43  1  6
 13 44  1  0
 13 45  1  0
 14 46  1  0
 16 47  1  0
 17 48  1  0
 18 49  1  0
 19 50  1  0
 22 51  1  0
 23 52  1  0
 25 53  1  0
 28 54  1  0
 29 55  1  0
M  END
>  <smiles>  (57) 
O=C(NCC(=O)N1CCCCC1CNc1ccccn1)c1ccc2cc(F)ccc2n1

>  <score_type>  (57) 
oracle

>  <origin>  (57) 
autodockgpu

>  <m_score__min__energy>  (57) 
-8.8000000000000007

>  <m_primary>  (57) 
energy

>  <rmsd>  (57) 
4.43835455037363

>  <m_score__min__rmsd>  (57) 
4.43835455037363

>  <meeko>  (57) 
{"free_energy": -8.49, "intermolecular_energy": -10.58, "internal_energy": -2.0, "cluster_size": 12, "cluster_id": 2, "rank_in_cluster": 7}

>  <energy>  (57) 
-8.33

>  <cluster_rmsd>  (57) 
1.42

>  <cluster>  (57) 
1

$$$$

     RDKit          3D

 55 58  0  0  0  0  0  0  0  0999 V2000
  141.1660   72.1120  221.3820 O   0  0  0  0  0  0  0  0  0  0  0  0
  140.3670   72.4320  222.3200 C   0  0  0  0  0  0  0  0  0  0  0  0
  139.5840   73.6190  222.2800 N   0  0  0  0  0  0  0  0  0  0  0  0
  139.7050   74.4970  221.1230 C   0  0  0  0  0  0  0  0  0  0  0  0
  140.0440   75.8360  221.6380 C   0  0  0  0  0  0  0  0  0  0  0  0
  139.6090   76.2900  222.7440 O   0  0  0  0  0  0  0  0  0  0  0  0
  140.9050   76.7490  220.9220 N   0  0  0  0  0  0  0  0  0  0  0  0
  141.4170   77.8640  221.7130 C   0  0  0  0  0  0  0  0  0  0  0  0
  141.7170   79.0930  220.9500 C   0  0  0  0  0  0  0  0  0  0  0  0
  141.8330   79.0010  219.4830 C   0  0  0  0  0  0  0  0  0  0  0  0
  141.2110   77.8380  218.8100 C   0  0  0  0  0  0  0  0  0  0  0  0
  141.2080   76.5400  219.5450 C   0  0  1  0  0  0  0  0  0  0  0  0
  142.4330   75.7050  219.2760 C   0  0  0  0  0  0  0  0  0  0  0  0
  142.4820   74.4530  219.9510 N   0  0  0  0  0  0  0  0  0  0  0  0
  143.7580   73.8480  220.1720 C   0  0  0  0  0  0  0  0  0  0  0  0
  143.9990   72.5230  219.8860 C   0  0  0  0  0  0  0  0  0  0  0  0
  145.2160   71.9180  220.0890 C   0  0  0  0  0  0  0  0  0  0  0  0
  146.2570   72.6560  220.6020 C   0  0  0  0  0  0  0  0  0  0  0  0
  146.0180   73.9780  220.8880 C   0  0  0  0  0  0  0  0  0  0  0  0
  144.7980   74.5520  220.6760 N   0  0  0  0  0  0  0  0  0  0  0  0
  140.2450   71.5510  223.4810 C   0  0  0  0  0  0  0  0  0  0  0  0
  139.6450   70.3110  223.3530 C   0  0  0  0  0  0  0  0  0  0  0  0
  139.5000   69.4350  224.4120 C   0  0  0  0  0  0  0  0  0  0  0  0
  139.9780   69.8160  225.6500 C   0  0  0  0  0  0  0  0  0  0  0  0
  139.8350   68.9430  226.7110 C   0  0  0  0  0  0  0  0  0  0  0  0
  140.3170   69.3350  227.9450 C   0  0  0  0  0  0  0  0  0  0  0  0
  140.1860   68.4900  229.0020 F   0  0  0  0  0  0  0  0  0  0  0  0
  140.9150   70.5740  228.0650 C   0  0  0  0  0  0  0  0  0  0  0  0
  141.0580   71.4490  227.0060 C   0  0  0  0  0  0  0  0  0  0  0  0
  140.5770   71.0560  225.7720 C   0  0  0  0  0  0  0  0  0  0  0  0
  140.6980   71.8860  224.7050 N   0  0  0  0  0  0  0  0  0  0  0  0
  138.9260   73.8820  223.0530 H   0  0  0  0  0  0  0  0  0  0  0  0
  140.5007   74.1356  220.4550 H   0  0  0  0  0  0  0  0  0  0  0  0
  138.7686   74.5214  220.5464 H   0  0  0  0  0  0  0  0  0  0  0  0
  140.6652   78.1128  222.4765 H   0  0  0  0  0  0  0  0  0  0  0  0
  142.3754   77.5247  222.1330 H   0  0  0  0  0  0  0  0  0  0  0  0
  140.9151   79.8138  221.1675 H   0  0  0  0  0  0  0  0  0  0  0  0
  142.7268   79.3758  221.2822 H   0  0  0  0  0  0  0  0  0  0  0  0
  141.3746   79.9074  219.0608 H   0  0  0  0  0  0  0  0  0  0  0  0
  142.9109   78.8821  219.2987 H   0  0  0  0  0  0  0  0  0  0  0  0
  140.1637   78.1001  218.5991 H   0  0  0  0  0  0  0  0  0  0  0  0
  141.8373   77.6579  217.9238 H   0  0  0  0  0  0  0  0  0  0  0  0
  140.3946   75.9154  219.1470 H   0  0  0  0  0  0  0  0  0  0  0  0
  142.4786   75.5089  218.1946 H   0  0  0  0  0  0  0  0  0  0  0  0
  143.2848   76.2871  219.6576 H   0  0  0  0  0  0  0  0  0  0  0  0
  141.6470   73.9350  220.3020 H   0  0  0  0  0  0  0  0  0  0  0  0
  143.1768   71.9189  219.4747 H   0  0  0  0  0  0  0  0  0  0  0  0
  145.3561   70.8549  219.8438 H   0  0  0  0  0  0  0  0  0  0  0  0
  147.2446   72.2042  220.7768 H   0  0  0  0  0  0  0  0  0  0  0  0
  146.8330   74.5915  221.2996 H   0  0  0  0  0  0  0  0  0  0  0  0
  139.2668   70.0091  222.3651 H   0  0  0  0  0  0  0  0  0  0  0  0
  139.0153   68.4575  224.2719 H   0  0  0  0  0  0  0  0  0  0  0  0
  139.3514   67.9641  226.5772 H   0  0  0  0  0  0  0  0  0  0  0  0
  141.2956   70.8786  229.0511 H   0  0  0  0  0  0  0  0  0  0  0  0
  141.5400   72.4285  227.1409 H   0  0  0  0  0  0  0  0  0  0  0  0
  1  2  2  0
  2  3  1  0
  3  4  1  0
  4  5  1  0
  5  6  2  0
  5  7  1  0
  7  8  1  0
  8  9  1  0
  9 10  1  0
 10 11  1  0
 11 12  1  0
 12 13  1  0
 13 14  1  0
 14 15  1  0
 15 16  2  0
 16 17  1  0
 17 18  2  0
 18 19  1  0
 19 20  2  0
  2 21  1  0
 21 22  2  0
 22 23  1  0
 23 24  2  0
 24 25  1  0
 25 26  2  0
 26 27  1  0
 26 28  1  0
 28 29  2  0
 29 30  1  0
 30 31  2  0
 12  7  1  0
 20 15  1  0
 31 21  1  0
 30 24  1  0
  3 32  1  0
  4 33  1  0
  4 34  1  0
  8 35  1  0
  8 36  1  0
  9 37  1  0
  9 38  1  0
 10 39  1  0
 10 40  1  0
 11 41  1  0
 11 42  1  0
 12 43  1  6
 13 44  1  0
 13 45  1  0
 14 46  1  0
 16 47  1  0
 17 48  1  0
 18 49  1  0
 19 50  1  0
 22 51  1  0
 23 52  1  0
 25 53  1  0
 28 54  1  0
 29 55  1  0
M  END
>  <smiles>  (58) 
O=C(NCC(=O)N1CCCCC1CNc1ccccn1)c1ccc2cc(F)ccc2n1

>  <score_type>  (58) 
oracle

>  <origin>  (58) 
autodockgpu

>  <m_score__min__energy>  (58) 
-8.8000000000000007

>  <m_primary>  (58) 
energy

>  <rmsd>  (58) 
4.681284662271525

>  <m_score__min__rmsd>  (58) 
4.681284662271525

>  <meeko>  (58) 
{"free_energy": -8.23, "intermolecular_energy": -10.31, "internal_energy": -2.44, "cluster_size": 12, "cluster_id": 2, "rank_in_cluster": 9}

>  <energy>  (58) 
-8.32

>  <cluster_rmsd>  (58) 
0.86

>  <cluster>  (58) 
1

$$$$

     RDKit          3D

 55 58  0  0  0  0  0  0  0  0999 V2000
  137.4920   71.3250  222.8820 O   0  0  0  0  0  0  0  0  0  0  0  0
  138.7410   71.1880  223.0900 C   0  0  0  0  0  0  0  0  0  0  0  0
  139.7220   71.8340  222.2860 N   0  0  0  0  0  0  0  0  0  0  0  0
  139.2760   72.6800  221.1860 C   0  0  0  0  0  0  0  0  0  0  0  0
  139.7370   74.0480  221.4880 C   0  0  0  0  0  0  0  0  0  0  0  0
  140.8570   74.3040  222.0310 O   0  0  0  0  0  0  0  0  0  0  0  0
  138.9440   75.2190  221.1860 N   0  0  0  0  0  0  0  0  0  0  0  0
  137.5040   74.9890  221.1250 C   0  0  0  0  0  0  0  0  0  0  0  0
  136.7580   75.9010  220.2330 C   0  0  0  0  0  0  0  0  0  0  0  0
  137.4150   77.1420  219.7850 C   0  0  0  0  0  0  0  0  0  0  0  0
  138.8930   77.2070  219.8520 C   0  0  0  0  0  0  0  0  0  0  0  0
  139.5620   76.4850  220.9720 C   0  0  1  0  0  0  0  0  0  0  0  0
  139.7340   77.3330  222.2050 C   0  0  0  0  0  0  0  0  0  0  0  0
  141.0790   77.6080  222.5780 N   0  0  0  0  0  0  0  0  0  0  0  0
  141.4410   78.9590  222.8780 C   0  0  0  0  0  0  0  0  0  0  0  0
  140.6620   80.0270  222.4940 C   0  0  0  0  0  0  0  0  0  0  0  0
  140.9870   81.3330  222.7690 C   0  0  0  0  0  0  0  0  0  0  0  0
  142.1430   81.6060  223.4630 C   0  0  0  0  0  0  0  0  0  0  0  0
  142.9200   80.5420  223.8470 C   0  0  0  0  0  0  0  0  0  0  0  0
  142.5720   79.2540  223.5580 N   0  0  0  0  0  0  0  0  0  0  0  0
  139.1890   70.3400  224.1940 C   0  0  0  0  0  0  0  0  0  0  0  0
  138.9100   68.9850  224.1880 C   0  0  0  0  0  0  0  0  0  0  0  0
  139.3060   68.1340  225.2020 C   0  0  0  0  0  0  0  0  0  0  0  0
  140.0120   68.6610  226.2660 C   0  0  0  0  0  0  0  0  0  0  0  0
  140.4090   67.8140  227.2810 C   0  0  0  0  0  0  0  0  0  0  0  0
  141.1140   68.3520  228.3390 C   0  0  0  0  0  0  0  0  0  0  0  0
  141.5140   67.5340  229.3490 F   0  0  0  0  0  0  0  0  0  0  0  0
  141.3880   69.7050  228.3380 C   0  0  0  0  0  0  0  0  0  0  0  0
  140.9910   70.5550  227.3250 C   0  0  0  0  0  0  0  0  0  0  0  0
  140.2870   70.0160  226.2660 C   0  0  0  0  0  0  0  0  0  0  0  0
  139.8790   70.8170  225.2490 N   0  0  0  0  0  0  0  0  0  0  0  0
  140.7500   71.7220  222.4590 H   0  0  0  0  0  0  0  0  0  0  0  0
  139.7148   72.3327  220.2390 H   0  0  0  0  0  0  0  0  0  0  0  0
  138.1816   72.6462  221.0801 H   0  0  0  0  0  0  0  0  0  0  0  0
  137.3384   73.9595  220.7746 H   0  0  0  0  0  0  0  0  0  0  0  0
  137.1221   75.1748  222.1397 H   0  0  0  0  0  0  0  0  0  0  0  0
  136.4950   75.3292  219.3308 H   0  0  0  0  0  0  0  0  0  0  0  0
  135.9161   76.2500  220.8489 H   0  0  0  0  0  0  0  0  0  0  0  0
  137.1272   77.3046  218.7358 H   0  0  0  0  0  0  0  0  0  0  0  0
  137.0728   77.9076  220.4968 H   0  0  0  0  0  0  0  0  0  0  0  0
  139.2844   76.7919  218.9115 H   0  0  0  0  0  0  0  0  0  0  0  0
  139.1200   78.2690  220.0269 H   0  0  0  0  0  0  0  0  0  0  0  0
  140.6000   76.2705  220.6780 H   0  0  0  0  0  0  0  0  0  0  0  0
  139.2284   78.2938  222.0284 H   0  0  0  0  0  0  0  0  0  0  0  0
  139.3045   76.7507  223.0336 H   0  0  0  0  0  0  0  0  0  0  0  0
  141.8330   76.8900  222.6520 H   0  0  0  0  0  0  0  0  0  0  0  0
  139.7337   79.8247  221.9397 H   0  0  0  0  0  0  0  0  0  0  0  0
  140.3304   82.1512  222.4381 H   0  0  0  0  0  0  0  0  0  0  0  0
  142.4340   82.6397  223.7015 H   0  0  0  0  0  0  0  0  0  0  0  0
  143.8496   80.7324  224.4035 H   0  0  0  0  0  0  0  0  0  0  0  0
  138.3487   68.5670  223.3393 H   0  0  0  0  0  0  0  0  0  0  0  0
  139.0646   67.0615  225.1629 H   0  0  0  0  0  0  0  0  0  0  0  0
  140.1704   66.7407  227.2478 H   0  0  0  0  0  0  0  0  0  0  0  0
  141.9496   70.1261  229.1849 H   0  0  0  0  0  0  0  0  0  0  0  0
  141.2281   71.6286  227.3603 H   0  0  0  0  0  0  0  0  0  0  0  0
  1  2  2  0
  2  3  1  0
  3  4  1  0
  4  5  1  0
  5  6  2  0
  5  7  1  0
  7  8  1  0
  8  9  1  0
  9 10  1  0
 10 11  1  0
 11 12  1  0
 12 13  1  0
 13 14  1  0
 14 15  1  0
 15 16  2  0
 16 17  1  0
 17 18  2  0
 18 19  1  0
 19 20  2  0
  2 21  1  0
 21 22  2  0
 22 23  1  0
 23 24  2  0
 24 25  1  0
 25 26  2  0
 26 27  1  0
 26 28  1  0
 28 29  2  0
 29 30  1  0
 30 31  2  0
 12  7  1  0
 20 15  1  0
 31 21  1  0
 30 24  1  0
  3 32  1  0
  4 33  1  0
  4 34  1  0
  8 35  1  0
  8 36  1  0
  9 37  1  0
  9 38  1  0
 10 39  1  0
 10 40  1  0
 11 41  1  0
 11 42  1  0
 12 43  1  6
 13 44  1  0
 13 45  1  0
 14 46  1  0
 16 47  1  0
 17 48  1  0
 18 49  1  0
 19 50  1  0
 22 51  1  0
 23 52  1  0
 25 53  1  0
 28 54  1  0
 29 55  1  0
M  END
>  <smiles>  (59) 
O=C(NCC(=O)N1CCCCC1CNc1ccccn1)c1ccc2cc(F)ccc2n1

>  <score_type>  (59) 
oracle

>  <origin>  (59) 
autodockgpu

>  <m_score__min__energy>  (59) 
-8.8000000000000007

>  <m_primary>  (59) 
energy

>  <rmsd>  (59) 
2.3865158882202206

>  <m_score__min__rmsd>  (59) 
2.3865158882202206

>  <meeko>  (59) 
{"free_energy": -8.05, "intermolecular_energy": -10.14, "internal_energy": -1.55, "cluster_size": 30, "cluster_id": 1, "rank_in_cluster": 14}

>  <energy>  (59) 
-8.29

>  <cluster_rmsd>  (59) 
0.88

>  <cluster>  (59) 
1

$$$$

     RDKit          3D

 55 58  0  0  0  0  0  0  0  0999 V2000
  141.3940   72.2590  221.4240 O   0  0  0  0  0  0  0  0  0  0  0  0
  140.5620   72.5660  222.3380 C   0  0  0  0  0  0  0  0  0  0  0  0
  139.8400   73.7930  222.3290 N   0  0  0  0  0  0  0  0  0  0  0  0
  140.0650   74.7270  221.2330 C   0  0  0  0  0  0  0  0  0  0  0  0
  139.8450   76.0800  221.7760 C   0  0  0  0  0  0  0  0  0  0  0  0
  138.8380   76.3930  222.4870 O   0  0  0  0  0  0  0  0  0  0  0  0
  140.7650   77.1700  221.5420 N   0  0  0  0  0  0  0  0  0  0  0  0
  141.0510   77.9980  222.7100 C   0  0  0  0  0  0  0  0  0  0  0  0
  141.4090   79.4000  222.4160 C   0  0  0  0  0  0  0  0  0  0  0  0
  141.8000   79.7540  221.0400 C   0  0  0  0  0  0  0  0  0  0  0  0
  141.3870   78.8450  219.9460 C   0  0  0  0  0  0  0  0  0  0  0  0
  141.3300   77.3860  220.2520 C   0  0  1  0  0  0  0  0  0  0  0  0
  142.6330   76.6750  219.9930 C   0  0  0  0  0  0  0  0  0  0  0  0
  142.5200   75.3410  219.5120 N   0  0  0  0  0  0  0  0  0  0  0  0
  143.5470   74.4050  219.8490 C   0  0  0  0  0  0  0  0  0  0  0  0
  144.7180   74.7940  220.4600 C   0  0  0  0  0  0  0  0  0  0  0  0
  145.7200   73.9150  220.7950 C   0  0  0  0  0  0  0  0  0  0  0  0
  145.5620   72.5770  220.5150 C   0  0  0  0  0  0  0  0  0  0  0  0
  144.3950   72.1890  219.9050 C   0  0  0  0  0  0  0  0  0  0  0  0
  143.4170   73.0850  219.5840 N   0  0  0  0  0  0  0  0  0  0  0  0
  140.3350   71.6280  223.4370 C   0  0  0  0  0  0  0  0  0  0  0  0
  139.6890   70.4270  223.2050 C   0  0  0  0  0  0  0  0  0  0  0  0
  139.4450   69.5010  224.2010 C   0  0  0  0  0  0  0  0  0  0  0  0
  139.8680   69.7890  225.4840 C   0  0  0  0  0  0  0  0  0  0  0  0
  139.6280   68.8670  226.4820 C   0  0  0  0  0  0  0  0  0  0  0  0
  140.0550   69.1650  227.7610 C   0  0  0  0  0  0  0  0  0  0  0  0
  139.8270   68.2690  228.7580 F   0  0  0  0  0  0  0  0  0  0  0  0
  140.6990   70.3650  227.9850 C   0  0  0  0  0  0  0  0  0  0  0  0
  140.9410   71.2910  226.9890 C   0  0  0  0  0  0  0  0  0  0  0  0
  140.5140   70.9910  225.7100 C   0  0  0  0  0  0  0  0  0  0  0  0
  140.7320   71.8720  224.7010 N   0  0  0  0  0  0  0  0  0  0  0  0
  139.1550   74.0450  223.0810 H   0  0  0  0  0  0  0  0  0  0  0  0
  141.0952   74.6316  220.8593 H   0  0  0  0  0  0  0  0  0  0  0  0
  139.3843   74.5226  220.3935 H   0  0  0  0  0  0  0  0  0  0  0  0
  140.1569   78.0026  223.3507 H   0  0  0  0  0  0  0  0  0  0  0  0
  141.9345   77.5523  223.1904 H   0  0  0  0  0  0  0  0  0  0  0  0
  140.5369   80.0185  222.6747 H   0  0  0  0  0  0  0  0  0  0  0  0
  142.3202   79.5740  223.0071 H   0  0  0  0  0  0  0  0  0  0  0  0
  141.3723   80.7438  220.8224 H   0  0  0  0  0  0  0  0  0  0  0  0
  142.8987   79.7000  221.0432 H   0  0  0  0  0  0  0  0  0  0  0  0
  140.3823   79.1538  219.6216 H   0  0  0  0  0  0  0  0  0  0  0  0
  142.1756   78.9429  219.1854 H   0  0  0  0  0  0  0  0  0  0  0  0
  140.6450   76.9065  219.5373 H   0  0  0  0  0  0  0  0  0  0  0  0
  143.1939   77.2574  219.2472 H   0  0  0  0  0  0  0  0  0  0  0  0
  143.1350   76.6016  220.9690 H   0  0  0  0  0  0  0  0  0  0  0  0
  141.7340   74.9880  218.9240 H   0  0  0  0  0  0  0  0  0  0  0  0
  144.8584   75.8602  220.6913 H   0  0  0  0  0  0  0  0  0  0  0  0
  146.6378   74.2769  221.2814 H   0  0  0  0  0  0  0  0  0  0  0  0
  146.3423   71.8451  220.7706 H   0  0  0  0  0  0  0  0  0  0  0  0
  144.2439   71.1255  219.6682 H   0  0  0  0  0  0  0  0  0  0  0  0
  139.3547   70.1991  222.1821 H   0  0  0  0  0  0  0  0  0  0  0  0
  138.9263   68.5570  223.9776 H   0  0  0  0  0  0  0  0  0  0  0  0
  139.1109   67.9207  226.2649 H   0  0  0  0  0  0  0  0  0  0  0  0
  141.0360   70.5952  229.0065 H   0  0  0  0  0  0  0  0  0  0  0  0
  141.4574   72.2374  227.2074 H   0  0  0  0  0  0  0  0  0  0  0  0
  1  2  2  0
  2  3  1  0
  3  4  1  0
  4  5  1  0
  5  6  2  0
  5  7  1  0
  7  8  1  0
  8  9  1  0
  9 10  1  0
 10 11  1  0
 11 12  1  0
 12 13  1  0
 13 14  1  0
 14 15  1  0
 15 16  2  0
 16 17  1  0
 17 18  2  0
 18 19  1  0
 19 20  2  0
  2 21  1  0
 21 22  2  0
 22 23  1  0
 23 24  2  0
 24 25  1  0
 25 26  2  0
 26 27  1  0
 26 28  1  0
 28 29  2  0
 29 30  1  0
 30 31  2  0
 12  7  1  0
 20 15  1  0
 31 21  1  0
 30 24  1  0
  3 32  1  0
  4 33  1  0
  4 34  1  0
  8 35  1  0
  8 36  1  0
  9 37  1  0
  9 38  1  0
 10 39  1  0
 10 40  1  0
 11 41  1  0
 11 42  1  0
 12 43  1  6
 13 44  1  0
 13 45  1  0
 14 46  1  0
 16 47  1  0
 17 48  1  0
 18 49  1  0
 19 50  1  0
 22 51  1  0
 23 52  1  0
 25 53  1  0
 28 54  1  0
 29 55  1  0
M  END
>  <smiles>  (60) 
O=C(NCC(=O)N1CCCCC1CNc1ccccn1)c1ccc2cc(F)ccc2n1

>  <score_type>  (60) 
oracle

>  <origin>  (60) 
autodockgpu

>  <m_score__min__energy>  (60) 
-8.8000000000000007

>  <m_primary>  (60) 
energy

>  <rmsd>  (60) 
4.644471154588164

>  <m_score__min__rmsd>  (60) 
4.644471154588164

>  <meeko>  (60) 
{"free_energy": -8.59, "intermolecular_energy": -10.68, "internal_energy": -1.94, "cluster_size": 12, "cluster_id": 2, "rank_in_cluster": 6}

>  <energy>  (60) 
-8.27

>  <cluster_rmsd>  (60) 
0.84

>  <cluster>  (60) 
1

$$$$

     RDKit          3D

 55 58  0  0  0  0  0  0  0  0999 V2000
  140.1880   77.8650  218.6630 O   0  0  0  0  0  0  0  0  0  0  0  0
  141.4390   77.7730  218.8840 C   0  0  0  0  0  0  0  0  0  0  0  0
  142.2690   78.9170  219.0470 N   0  0  0  0  0  0  0  0  0  0  0  0
  141.6620   80.2390  218.9560 C   0  0  0  0  0  0  0  0  0  0  0  0
  140.7170   80.3510  220.0830 C   0  0  0  0  0  0  0  0  0  0  0  0
  139.4700   80.5540  219.9320 O   0  0  0  0  0  0  0  0  0  0  0  0
  141.1350   80.2380  221.4620 N   0  0  0  0  0  0  0  0  0  0  0  0
  140.7840   81.3740  222.3080 C   0  0  0  0  0  0  0  0  0  0  0  0
  141.6890   81.6140  223.4500 C   0  0  0  0  0  0  0  0  0  0  0  0
  142.6110   80.5370  223.8560 C   0  0  0  0  0  0  0  0  0  0  0  0
  142.9210   79.4800  222.8660 C   0  0  0  0  0  0  0  0  0  0  0  0
  141.8380   79.0860  221.9200 C   0  0  1  0  0  0  0  0  0  0  0  0
  140.9700   77.9710  222.4450 C   0  0  0  0  0  0  0  0  0  0  0  0
  141.2720   76.6730  221.9470 N   0  0  0  0  0  0  0  0  0  0  0  0
  140.2360   75.6880  221.9390 C   0  0  0  0  0  0  0  0  0  0  0  0
  138.9030   76.0290  221.8960 C   0  0  0  0  0  0  0  0  0  0  0  0
  137.8880   75.1030  221.8860 C   0  0  0  0  0  0  0  0  0  0  0  0
  138.2010   73.7640  221.9210 C   0  0  0  0  0  0  0  0  0  0  0  0
  139.5300   73.4220  221.9630 C   0  0  0  0  0  0  0  0  0  0  0  0
  140.5160   74.3650  221.9720 N   0  0  0  0  0  0  0  0  0  0  0  0
  142.0480   76.4470  218.9770 C   0  0  0  0  0  0  0  0  0  0  0  0
  141.4760   75.3710  218.3230 C   0  0  0  0  0  0  0  0  0  0  0  0
  142.0040   74.0950  218.3720 C   0  0  0  0  0  0  0  0  0  0  0  0
  143.1550   73.8880  219.1070 C   0  0  0  0  0  0  0  0  0  0  0  0
  143.6870   72.6150  219.1600 C   0  0  0  0  0  0  0  0  0  0  0  0
  144.8370   72.4200  219.8970 C   0  0  0  0  0  0  0  0  0  0  0  0
  145.3760   71.1730  219.9610 F   0  0  0  0  0  0  0  0  0  0  0  0
  145.4030   73.4990  220.5480 C   0  0  0  0  0  0  0  0  0  0  0  0
  144.8740   74.7730  220.4980 C   0  0  0  0  0  0  0  0  0  0  0  0
  143.7230   74.9670  219.7590 C   0  0  0  0  0  0  0  0  0  0  0  0
  143.1700   76.2050  219.6830 N   0  0  0  0  0  0  0  0  0  0  0  0
  143.2980   78.8410  219.2310 H   0  0  0  0  0  0  0  0  0  0  0  0
  142.4357   81.0172  219.0315 H   0  0  0  0  0  0  0  0  0  0  0  0
  141.1467   80.3719  217.9933 H   0  0  0  0  0  0  0  0  0  0  0  0
  140.7820   82.2773  221.6803 H   0  0  0  0  0  0  0  0  0  0  0  0
  139.8017   81.1373  222.7429 H   0  0  0  0  0  0  0  0  0  0  0  0
  142.3043   82.4903  223.1980 H   0  0  0  0  0  0  0  0  0  0  0  0
  141.0127   81.7278  224.3100 H   0  0  0  0  0  0  0  0  0  0  0  0
  143.5629   81.0101  224.1390 H   0  0  0  0  0  0  0  0  0  0  0  0
  142.0818   80.0111  224.6643 H   0  0  0  0  0  0  0  0  0  0  0  0
  143.7726   79.8309  222.2647 H   0  0  0  0  0  0  0  0  0  0  0  0
  143.1104   78.5786  223.4674 H   0  0  0  0  0  0  0  0  0  0  0  0
  142.3001   78.6372  221.0283 H   0  0  0  0  0  0  0  0  0  0  0  0
  141.0748   77.9468  223.5397 H   0  0  0  0  0  0  0  0  0  0  0  0
  139.9493   78.1960  222.1020 H   0  0  0  0  0  0  0  0  0  0  0  0
  142.2050   76.3800  221.5820 H   0  0  0  0  0  0  0  0  0  0  0  0
  138.6372   77.0960  221.8683 H   0  0  0  0  0  0  0  0  0  0  0  0
  136.8379   75.4285  221.8504 H   0  0  0  0  0  0  0  0  0  0  0  0
  137.4147   72.9948  221.9155 H   0  0  0  0  0  0  0  0  0  0  0  0
  139.8076   72.3580  221.9901 H   0  0  0  0  0  0  0  0  0  0  0  0
  140.5598   75.5384  217.7377 H   0  0  0  0  0  0  0  0  0  0  0  0
  141.5193   73.2640  217.8385 H   0  0  0  0  0  0  0  0  0  0  0  0
  143.2073   71.7794  218.6293 H   0  0  0  0  0  0  0  0  0  0  0  0
  146.3192   73.3351  221.1343 H   0  0  0  0  0  0  0  0  0  0  0  0
  145.3539   75.6077  221.0300 H   0  0  0  0  0  0  0  0  0  0  0  0
  1  2  2  0
  2  3  1  0
  3  4  1  0
  4  5  1  0
  5  6  2  0
  5  7  1  0
  7  8  1  0
  8  9  1  0
  9 10  1  0
 10 11  1  0
 11 12  1  0
 12 13  1  0
 13 14  1  0
 14 15  1  0
 15 16  2  0
 16 17  1  0
 17 18  2  0
 18 19  1  0
 19 20  2  0
  2 21  1  0
 21 22  2  0
 22 23  1  0
 23 24  2  0
 24 25  1  0
 25 26  2  0
 26 27  1  0
 26 28  1  0
 28 29  2  0
 29 30  1  0
 30 31  2  0
 12  7  1  0
 20 15  1  0
 31 21  1  0
 30 24  1  0
  3 32  1  0
  4 33  1  0
  4 34  1  0
  8 35  1  0
  8 36  1  0
  9 37  1  0
  9 38  1  0
 10 39  1  0
 10 40  1  0
 11 41  1  0
 11 42  1  0
 12 43  1  6
 13 44  1  0
 13 45  1  0
 14 46  1  0
 16 47  1  0
 17 48  1  0
 18 49  1  0
 19 50  1  0
 22 51  1  0
 23 52  1  0
 25 53  1  0
 28 54  1  0
 29 55  1  0
M  END
>  <smiles>  (61) 
O=C(NCC(=O)N1CCCCC1CNc1ccccn1)c1ccc2cc(F)ccc2n1

>  <score_type>  (61) 
oracle

>  <origin>  (61) 
autodockgpu

>  <m_score__min__energy>  (61) 
-8.8000000000000007

>  <m_primary>  (61) 
energy

>  <rmsd>  (61) 
7.665456785052743

>  <m_score__min__rmsd>  (61) 
7.665456785052743

>  <meeko>  (61) 
{"free_energy": -6.94, "intermolecular_energy": -9.03, "internal_energy": -3.34, "cluster_size": 2, "cluster_id": 5, "rank_in_cluster": 1}

>  <energy>  (61) 
-8.25

>  <cluster_rmsd>  (61) 
1.69

>  <cluster>  (61) 
1

$$$$

     RDKit          3D

 55 58  0  0  0  0  0  0  0  0999 V2000
  141.3740   72.4550  221.5830 O   0  0  0  0  0  0  0  0  0  0  0  0
  140.4410   72.6180  222.4350 C   0  0  0  0  0  0  0  0  0  0  0  0
  139.5290   73.7080  222.3650 N   0  0  0  0  0  0  0  0  0  0  0  0
  139.6720   74.6700  221.2790 C   0  0  0  0  0  0  0  0  0  0  0  0
  138.6520   75.7110  221.4970 C   0  0  0  0  0  0  0  0  0  0  0  0
  137.4310   75.4530  221.7420 O   0  0  0  0  0  0  0  0  0  0  0  0
  138.9600   77.1230  221.4490 N   0  0  0  0  0  0  0  0  0  0  0  0
  138.7890   77.8350  222.7110 C   0  0  0  0  0  0  0  0  0  0  0  0
  138.4560   79.2680  222.5860 C   0  0  0  0  0  0  0  0  0  0  0  0
  138.6770   79.9330  221.2880 C   0  0  0  0  0  0  0  0  0  0  0  0
  138.7720   79.0800  220.0810 C   0  0  0  0  0  0  0  0  0  0  0  0
  139.3970   77.7350  220.2380 C   0  0  1  0  0  0  0  0  0  0  0  0
  140.8880   77.7460  220.0240 C   0  0  0  0  0  0  0  0  0  0  0  0
  141.6770   77.5960  221.1990 N   0  0  0  0  0  0  0  0  0  0  0  0
  141.8510   78.7300  222.0530 C   0  0  0  0  0  0  0  0  0  0  0  0
  142.0470   79.9970  221.5540 C   0  0  0  0  0  0  0  0  0  0  0  0
  142.2160   81.1030  222.3510 C   0  0  0  0  0  0  0  0  0  0  0  0
  142.1890   80.9560  223.7190 C   0  0  0  0  0  0  0  0  0  0  0  0
  141.9930   79.6920  224.2180 C   0  0  0  0  0  0  0  0  0  0  0  0
  141.8290   78.6110  223.4000 N   0  0  0  0  0  0  0  0  0  0  0  0
  140.2970   71.6520  223.5240 C   0  0  0  0  0  0  0  0  0  0  0  0
  139.6910   70.4300  223.2940 C   0  0  0  0  0  0  0  0  0  0  0  0
  139.5260   69.4770  224.2810 C   0  0  0  0  0  0  0  0  0  0  0  0
  139.9890   69.7600  225.5510 C   0  0  0  0  0  0  0  0  0  0  0  0
  139.8260   68.8110  226.5410 C   0  0  0  0  0  0  0  0  0  0  0  0
  140.2920   69.1040  227.8070 C   0  0  0  0  0  0  0  0  0  0  0  0
  140.1410   68.1820  228.7950 F   0  0  0  0  0  0  0  0  0  0  0  0
  140.8960   70.3260  228.0290 C   0  0  0  0  0  0  0  0  0  0  0  0
  141.0600   71.2770  227.0410 C   0  0  0  0  0  0  0  0  0  0  0  0
  140.5940   70.9820  225.7750 C   0  0  0  0  0  0  0  0  0  0  0  0
  140.7350   71.8900  224.7750 N   0  0  0  0  0  0  0  0  0  0  0  0
  138.7610   73.8400  223.0660 H   0  0  0  0  0  0  0  0  0  0  0  0
  140.6777   75.1152  221.2972 H   0  0  0  0  0  0  0  0  0  0  0  0
  139.5386   74.1846  220.3009 H   0  0  0  0  0  0  0  0  0  0  0  0
  137.9785   77.3452  223.2706 H   0  0  0  0  0  0  0  0  0  0  0  0
  139.7635   77.7920  223.2194 H   0  0  0  0  0  0  0  0  0  0  0  0
  137.3883   79.3752  222.8277 H   0  0  0  0  0  0  0  0  0  0  0  0
  139.1605   79.7678  223.2671 H   0  0  0  0  0  0  0  0  0  0  0  0
  137.8417   80.6313  221.1310 H   0  0  0  0  0  0  0  0  0  0  0  0
  139.6714   80.3942  221.3795 H   0  0  0  0  0  0  0  0  0  0  0  0
  137.7500   78.9269  219.7040 H   0  0  0  0  0  0  0  0  0  0  0  0
  139.4454   79.6255  219.4036 H   0  0  0  0  0  0  0  0  0  0  0  0
  139.0400   77.0866  219.4243 H   0  0  0  0  0  0  0  0  0  0  0  0
  141.1383   76.9215  219.3403 H   0  0  0  0  0  0  0  0  0  0  0  0
  141.1282   78.7422  219.6242 H   0  0  0  0  0  0  0  0  0  0  0  0
  142.1460   76.7100  221.4900 H   0  0  0  0  0  0  0  0  0  0  0  0
  142.0695   80.1311  220.4624 H   0  0  0  0  0  0  0  0  0  0  0  0
  142.3711   82.0947  221.9009 H   0  0  0  0  0  0  0  0  0  0  0  0
  142.3196   81.8193  224.3880 H   0  0  0  0  0  0  0  0  0  0  0  0
  141.9673   79.5460  225.3080 H   0  0  0  0  0  0  0  0  0  0  0  0
  139.3244   70.2071  222.2811 H   0  0  0  0  0  0  0  0  0  0  0  0
  139.0377   68.5163  224.0605 H   0  0  0  0  0  0  0  0  0  0  0  0
  139.3385   67.8485  226.3267 H   0  0  0  0  0  0  0  0  0  0  0  0
  141.2638   70.5526  229.0406 H   0  0  0  0  0  0  0  0  0  0  0  0
  141.5468   72.2397  227.2559 H   0  0  0  0  0  0  0  0  0  0  0  0
  1  2  2  0
  2  3  1  0
  3  4  1  0
  4  5  1  0
  5  6  2  0
  5  7  1  0
  7  8  1  0
  8  9  1  0
  9 10  1  0
 10 11  1  0
 11 12  1  0
 12 13  1  0
 13 14  1  0
 14 15  1  0
 15 16  2  0
 16 17  1  0
 17 18  2  0
 18 19  1  0
 19 20  2  0
  2 21  1  0
 21 22  2  0
 22 23  1  0
 23 24  2  0
 24 25  1  0
 25 26  2  0
 26 27  1  0
 26 28  1  0
 28 29  2  0
 29 30  1  0
 30 31  2  0
 12  7  1  0
 20 15  1  0
 31 21  1  0
 30 24  1  0
  3 32  1  0
  4 33  1  0
  4 34  1  0
  8 35  1  0
  8 36  1  0
  9 37  1  0
  9 38  1  0
 10 39  1  0
 10 40  1  0
 11 41  1  0
 11 42  1  0
 12 43  1  6
 13 44  1  0
 13 45  1  0
 14 46  1  0
 16 47  1  0
 17 48  1  0
 18 49  1  0
 19 50  1  0
 22 51  1  0
 23 52  1  0
 25 53  1  0
 28 54  1  0
 29 55  1  0
M  END
>  <smiles>  (62) 
O=C(NCC(=O)N1CCCCC1CNc1ccccn1)c1ccc2cc(F)ccc2n1

>  <score_type>  (62) 
oracle

>  <origin>  (62) 
autodockgpu

>  <m_score__min__energy>  (62) 
-8.8000000000000007

>  <m_primary>  (62) 
energy

>  <rmsd>  (62) 
3.0911418131436745

>  <m_score__min__rmsd>  (62) 
3.0911418131436745

>  <meeko>  (62) 
{"free_energy": -8.36, "intermolecular_energy": -10.45, "internal_energy": -2.06, "cluster_size": 30, "cluster_id": 1, "rank_in_cluster": 6}

>  <energy>  (62) 
-8.22

>  <cluster_rmsd>  (62) 
1.04

>  <cluster>  (62) 
1

$$$$

     RDKit          3D

 55 58  0  0  0  0  0  0  0  0999 V2000
  141.2370   71.9890  221.3950 O   0  0  0  0  0  0  0  0  0  0  0  0
  140.4910   72.4050  222.3400 C   0  0  0  0  0  0  0  0  0  0  0  0
  139.8400   73.6700  222.2950 N   0  0  0  0  0  0  0  0  0  0  0  0
  140.0370   74.5150  221.1240 C   0  0  0  0  0  0  0  0  0  0  0  0
  139.7160   75.8940  221.5370 C   0  0  0  0  0  0  0  0  0  0  0  0
  138.6530   76.2080  222.1590 O   0  0  0  0  0  0  0  0  0  0  0  0
  140.5950   77.0100  221.2660 N   0  0  0  0  0  0  0  0  0  0  0  0
  141.2370   77.5890  222.4410 C   0  0  0  0  0  0  0  0  0  0  0  0
  141.5770   79.0220  222.3320 C   0  0  0  0  0  0  0  0  0  0  0  0
  141.5900   79.6440  220.9950 C   0  0  0  0  0  0  0  0  0  0  0  0
  140.8410   78.9690  219.9100 C   0  0  0  0  0  0  0  0  0  0  0  0
  140.7910   77.4790  219.9340 C   0  0  1  0  0  0  0  0  0  0  0  0
  141.9310   76.8350  219.1870 C   0  0  0  0  0  0  0  0  0  0  0  0
  143.0840   76.5390  219.9660 N   0  0  0  0  0  0  0  0  0  0  0  0
  143.5710   75.1940  219.9790 C   0  0  0  0  0  0  0  0  0  0  0  0
  144.8160   74.8720  220.4680 C   0  0  0  0  0  0  0  0  0  0  0  0
  145.3070   73.5890  220.4920 C   0  0  0  0  0  0  0  0  0  0  0  0
  144.5290   72.5620  220.0090 C   0  0  0  0  0  0  0  0  0  0  0  0
  143.2860   72.8830  219.5200 C   0  0  0  0  0  0  0  0  0  0  0  0
  142.8260   74.1670  219.5090 N   0  0  0  0  0  0  0  0  0  0  0  0
  140.2930   71.5560  223.5140 C   0  0  0  0  0  0  0  0  0  0  0  0
  139.6150   70.3560  223.3980 C   0  0  0  0  0  0  0  0  0  0  0  0
  139.3960   69.5110  224.4700 C   0  0  0  0  0  0  0  0  0  0  0  0
  139.8780   69.8840  225.7100 C   0  0  0  0  0  0  0  0  0  0  0  0
  139.6610   69.0440  226.7830 C   0  0  0  0  0  0  0  0  0  0  0  0
  140.1470   69.4260  228.0180 C   0  0  0  0  0  0  0  0  0  0  0  0
  139.9440   68.6120  229.0870 F   0  0  0  0  0  0  0  0  0  0  0  0
  140.8230   70.6260  228.1260 C   0  0  0  0  0  0  0  0  0  0  0  0
  141.0400   71.4690  227.0540 C   0  0  0  0  0  0  0  0  0  0  0  0
  140.5540   71.0850  225.8190 C   0  0  0  0  0  0  0  0  0  0  0  0
  140.7470   71.8840  224.7390 N   0  0  0  0  0  0  0  0  0  0  0  0
  139.2260   74.0110  223.0730 H   0  0  0  0  0  0  0  0  0  0  0  0
  141.0815   74.4545  220.7843 H   0  0  0  0  0  0  0  0  0  0  0  0
  139.3953   74.1922  220.2909 H   0  0  0  0  0  0  0  0  0  0  0  0
  140.5561   77.4653  223.2960 H   0  0  0  0  0  0  0  0  0  0  0  0
  142.1928   77.0574  222.5586 H   0  0  0  0  0  0  0  0  0  0  0  0
  140.8468   79.5758  222.9403 H   0  0  0  0  0  0  0  0  0  0  0  0
  142.6246   79.0753  222.6631 H   0  0  0  0  0  0  0  0  0  0  0  0
  141.1729   80.6564  221.1005 H   0  0  0  0  0  0  0  0  0  0  0  0
  142.6419   79.5936  220.6772 H   0  0  0  0  0  0  0  0  0  0  0  0
  139.8042   79.3345  219.9481 H   0  0  0  0  0  0  0  0  0  0  0  0
  141.3928   79.2169  218.9913 H   0  0  0  0  0  0  0  0  0  0  0  0
  139.9099   77.1506  219.3632 H   0  0  0  0  0  0  0  0  0  0  0  0
  141.5634   75.8929  218.7542 H   0  0  0  0  0  0  0  0  0  0  0  0
  142.2545   77.5712  218.4364 H   0  0  0  0  0  0  0  0  0  0  0  0
  143.6100   77.2360  220.5370 H   0  0  0  0  0  0  0  0  0  0  0  0
  145.4496   75.6817  220.8591 H   0  0  0  0  0  0  0  0  0  0  0  0
  146.3109   73.3851  220.8929 H   0  0  0  0  0  0  0  0  0  0  0  0
  144.8890   71.5226  220.0142 H   0  0  0  0  0  0  0  0  0  0  0  0
  142.6434   72.0818  219.1261 H   0  0  0  0  0  0  0  0  0  0  0  0
  139.2333   70.0611  222.4094 H   0  0  0  0  0  0  0  0  0  0  0  0
  138.8511   68.5645  224.3389 H   0  0  0  0  0  0  0  0  0  0  0  0
  139.1161   68.0966  226.6582 H   0  0  0  0  0  0  0  0  0  0  0  0
  141.2066   70.9241  229.1129 H   0  0  0  0  0  0  0  0  0  0  0  0
  141.5832   72.4173  227.1795 H   0  0  0  0  0  0  0  0  0  0  0  0
  1  2  2  0
  2  3  1  0
  3  4  1  0
  4  5  1  0
  5  6  2  0
  5  7  1  0
  7  8  1  0
  8  9  1  0
  9 10  1  0
 10 11  1  0
 11 12  1  0
 12 13  1  0
 13 14  1  0
 14 15  1  0
 15 16  2  0
 16 17  1  0
 17 18  2  0
 18 19  1  0
 19 20  2  0
  2 21  1  0
 21 22  2  0
 22 23  1  0
 23 24  2  0
 24 25  1  0
 25 26  2  0
 26 27  1  0
 26 28  1  0
 28 29  2  0
 29 30  1  0
 30 31  2  0
 12  7  1  0
 20 15  1  0
 31 21  1  0
 30 24  1  0
  3 32  1  0
  4 33  1  0
  4 34  1  0
  8 35  1  0
  8 36  1  0
  9 37  1  0
  9 38  1  0
 10 39  1  0
 10 40  1  0
 11 41  1  0
 11 42  1  0
 12 43  1  6
 13 44  1  0
 13 45  1  0
 14 46  1  0
 16 47  1  0
 17 48  1  0
 18 49  1  0
 19 50  1  0
 22 51  1  0
 23 52  1  0
 25 53  1  0
 28 54  1  0
 29 55  1  0
M  END
>  <smiles>  (63) 
O=C(NCC(=O)N1CCCCC1CNc1ccccn1)c1ccc2cc(F)ccc2n1

>  <score_type>  (63) 
oracle

>  <origin>  (63) 
autodockgpu

>  <m_score__min__energy>  (63) 
-8.8000000000000007

>  <m_primary>  (63) 
energy

>  <rmsd>  (63) 
4.456399921754118

>  <m_score__min__rmsd>  (63) 
4.456399921754118

>  <meeko>  (63) 
{"free_energy": -8.66, "intermolecular_energy": -10.74, "internal_energy": -2.15, "cluster_size": 12, "cluster_id": 2, "rank_in_cluster": 3}

>  <energy>  (63) 
-8.21

>  <cluster_rmsd>  (63) 
1.52

>  <cluster>  (63) 
1

$$$$

     RDKit          3D

 55 58  0  0  0  0  0  0  0  0999 V2000
  140.0920   70.8200  221.6930 O   0  0  0  0  0  0  0  0  0  0  0  0
  139.9930   71.5980  222.6960 C   0  0  0  0  0  0  0  0  0  0  0  0
  139.6660   72.9770  222.5600 N   0  0  0  0  0  0  0  0  0  0  0  0
  139.4380   73.5120  221.2240 C   0  0  0  0  0  0  0  0  0  0  0  0
  140.0810   74.8380  221.1810 C   0  0  0  0  0  0  0  0  0  0  0  0
  139.8720   75.7440  222.0490 O   0  0  0  0  0  0  0  0  0  0  0  0
  141.0080   75.2180  220.1400 N   0  0  0  0  0  0  0  0  0  0  0  0
  140.7190   74.6600  218.8230 C   0  0  0  0  0  0  0  0  0  0  0  0
  141.8940   74.4670  217.9490 C   0  0  0  0  0  0  0  0  0  0  0  0
  143.1500   75.1560  218.2940 C   0  0  0  0  0  0  0  0  0  0  0  0
  143.3270   75.6160  219.6910 C   0  0  0  0  0  0  0  0  0  0  0  0
  142.1110   76.0770  220.4200 C   0  0  1  0  0  0  0  0  0  0  0  0
  141.8390   77.5490  220.2490 C   0  0  0  0  0  0  0  0  0  0  0  0
  140.9190   78.1150  221.1760 N   0  0  0  0  0  0  0  0  0  0  0  0
  141.3460   79.2260  221.9670 C   0  0  0  0  0  0  0  0  0  0  0  0
  142.1330   79.0680  223.0850 C   0  0  0  0  0  0  0  0  0  0  0  0
  142.5580   80.1190  223.8620 C   0  0  0  0  0  0  0  0  0  0  0  0
  142.1890   81.3990  223.5210 C   0  0  0  0  0  0  0  0  0  0  0  0
  141.4040   81.5580  222.4060 C   0  0  0  0  0  0  0  0  0  0  0  0
  140.9970   80.4950  221.6530 N   0  0  0  0  0  0  0  0  0  0  0  0
  140.2210   71.0610  224.0370 C   0  0  0  0  0  0  0  0  0  0  0  0
  140.7240   71.8750  225.0370 C   0  0  0  0  0  0  0  0  0  0  0  0
  140.9600   71.4260  226.3220 C   0  0  0  0  0  0  0  0  0  0  0  0
  140.6800   70.1060  226.6190 C   0  0  0  0  0  0  0  0  0  0  0  0
  140.9150   69.6530  227.9020 C   0  0  0  0  0  0  0  0  0  0  0  0
  140.6320   68.3320  228.1880 C   0  0  0  0  0  0  0  0  0  0  0  0
  140.8560   67.8670  229.4450 F   0  0  0  0  0  0  0  0  0  0  0  0
  140.1300   67.5260  227.1850 C   0  0  0  0  0  0  0  0  0  0  0  0
  139.8950   67.9760  225.9000 C   0  0  0  0  0  0  0  0  0  0  0  0
  140.1780   69.2980  225.6160 C   0  0  0  0  0  0  0  0  0  0  0  0
  139.9610   69.7810  224.3660 N   0  0  0  0  0  0  0  0  0  0  0  0
  139.5840   73.6170  223.3870 H   0  0  0  0  0  0  0  0  0  0  0  0
  139.8860   72.8492  220.4691 H   0  0  0  0  0  0  0  0  0  0  0  0
  138.3622   73.5877  221.0073 H   0  0  0  0  0  0  0  0  0  0  0  0
  140.2374   73.6815  218.9664 H   0  0  0  0  0  0  0  0  0  0  0  0
  140.0783   75.3954  218.3143 H   0  0  0  0  0  0  0  0  0  0  0  0
  142.1103   73.3887  217.9298 H   0  0  0  0  0  0  0  0  0  0  0  0
  141.5939   74.9192  216.9922 H   0  0  0  0  0  0  0  0  0  0  0  0
  143.9754   74.4643  218.0698 H   0  0  0  0  0  0  0  0  0  0  0  0
  143.1295   76.0812  217.6994 H   0  0  0  0  0  0  0  0  0  0  0  0
  143.7569   74.7798  220.2619 H   0  0  0  0  0  0  0  0  0  0  0  0
  143.9651   76.5088  219.6148 H   0  0  0  0  0  0  0  0  0  0  0  0
  142.2983   75.9887  221.5003 H   0  0  0  0  0  0  0  0  0  0  0  0
  142.7947   78.0841  220.3508 H   0  0  0  0  0  0  0  0  0  0  0  0
  141.3733   77.6564  219.2583 H   0  0  0  0  0  0  0  0  0  0  0  0
  139.9430   77.7770  221.3240 H   0  0  0  0  0  0  0  0  0  0  0  0
  142.4369   78.0502  223.3708 H   0  0  0  0  0  0  0  0  0  0  0  0
  143.1862   79.9383  224.7467 H   0  0  0  0  0  0  0  0  0  0  0  0
  142.5110   82.2638  224.1197 H   0  0  0  0  0  0  0  0  0  0  0  0
  141.0941   82.5714  222.1110 H   0  0  0  0  0  0  0  0  0  0  0  0
  140.9456   72.9256  224.7981 H   0  0  0  0  0  0  0  0  0  0  0  0
  141.3613   72.1032  227.0904 H   0  0  0  0  0  0  0  0  0  0  0  0
  141.3163   70.3254  228.6745 H   0  0  0  0  0  0  0  0  0  0  0  0
  139.9065   66.4750  227.4206 H   0  0  0  0  0  0  0  0  0  0  0  0
  139.4952   67.3028  225.1274 H   0  0  0  0  0  0  0  0  0  0  0  0
  1  2  2  0
  2  3  1  0
  3  4  1  0
  4  5  1  0
  5  6  2  0
  5  7  1  0
  7  8  1  0
  8  9  1  0
  9 10  1  0
 10 11  1  0
 11 12  1  0
 12 13  1  0
 13 14  1  0
 14 15  1  0
 15 16  2  0
 16 17  1  0
 17 18  2  0
 18 19  1  0
 19 20  2  0
  2 21  1  0
 21 22  2  0
 22 23  1  0
 23 24  2  0
 24 25  1  0
 25 26  2  0
 26 27  1  0
 26 28  1  0
 28 29  2  0
 29 30  1  0
 30 31  2  0
 12  7  1  0
 20 15  1  0
 31 21  1  0
 30 24  1  0
  3 32  1  0
  4 33  1  0
  4 34  1  0
  8 35  1  0
  8 36  1  0
  9 37  1  0
  9 38  1  0
 10 39  1  0
 10 40  1  0
 11 41  1  0
 11 42  1  0
 12 43  1  1
 13 44  1  0
 13 45  1  0
 14 46  1  0
 16 47  1  0
 17 48  1  0
 18 49  1  0
 19 50  1  0
 22 51  1  0
 23 52  1  0
 25 53  1  0
 28 54  1  0
 29 55  1  0
M  END
>  <smiles>  (64) 
O=C(NCC(=O)N1CCCCC1CNc1ccccn1)c1ccc2cc(F)ccc2n1

>  <score_type>  (64) 
oracle

>  <origin>  (64) 
autodockgpu

>  <m_score__min__energy>  (64) 
-8.8000000000000007

>  <m_primary>  (64) 
energy

>  <rmsd>  (64) 
2.916111775494267

>  <m_score__min__rmsd>  (64) 
2.916111775494267

>  <meeko>  (64) 
{"free_energy": -8.25, "intermolecular_energy": -10.34, "internal_energy": -2.11, "cluster_size": 30, "cluster_id": 1, "rank_in_cluster": 11}

>  <energy>  (64) 
-8.05

>  <cluster_rmsd>  (64) 
1.37

>  <cluster>  (64) 
1

$$$$

     RDKit          3D

 55 58  0  0  0  0  0  0  0  0999 V2000
  141.4350   72.7780  221.2550 O   0  0  0  0  0  0  0  0  0  0  0  0
  140.5840   72.9660  222.1840 C   0  0  0  0  0  0  0  0  0  0  0  0
  139.8900   74.1990  222.3410 N   0  0  0  0  0  0  0  0  0  0  0  0
  140.1660   75.2800  221.4040 C   0  0  0  0  0  0  0  0  0  0  0  0
  139.6320   76.5140  222.0090 C   0  0  0  0  0  0  0  0  0  0  0  0
  138.6600   76.5260  222.8290 O   0  0  0  0  0  0  0  0  0  0  0  0
  140.1760   77.8210  221.7160 N   0  0  0  0  0  0  0  0  0  0  0  0
  139.7490   78.3950  220.4440 C   0  0  0  0  0  0  0  0  0  0  0  0
  140.7080   79.3320  219.8230 C   0  0  0  0  0  0  0  0  0  0  0  0
  141.7940   79.8830  220.6530 C   0  0  0  0  0  0  0  0  0  0  0  0
  142.1580   79.1550  221.8910 C   0  0  0  0  0  0  0  0  0  0  0  0
  141.0600   78.4660  222.6290 C   0  0  1  0  0  0  0  0  0  0  0  0
  140.3940   79.3450  223.6560 C   0  0  0  0  0  0  0  0  0  0  0  0
  138.9740   79.2700  223.7000 N   0  0  0  0  0  0  0  0  0  0  0  0
  138.2330   80.4790  223.8780 C   0  0  0  0  0  0  0  0  0  0  0  0
  137.6930   80.8340  225.0930 C   0  0  0  0  0  0  0  0  0  0  0  0
  136.9770   81.9900  225.2910 C   0  0  0  0  0  0  0  0  0  0  0  0
  136.7810   82.8480  224.2340 C   0  0  0  0  0  0  0  0  0  0  0  0
  137.3190   82.4950  223.0210 C   0  0  0  0  0  0  0  0  0  0  0  0
  138.0250   81.3390  222.8550 N   0  0  0  0  0  0  0  0  0  0  0  0
  140.3060   71.8810  223.1230 C   0  0  0  0  0  0  0  0  0  0  0  0
  139.6100   70.7600  222.7060 C   0  0  0  0  0  0  0  0  0  0  0  0
  139.3170   69.7030  223.5460 C   0  0  0  0  0  0  0  0  0  0  0  0
  139.7400   69.7700  224.8590 C   0  0  0  0  0  0  0  0  0  0  0  0
  139.4500   68.7160  225.7020 C   0  0  0  0  0  0  0  0  0  0  0  0
  139.8770   68.7930  227.0130 C   0  0  0  0  0  0  0  0  0  0  0  0
  139.6010   67.7650  227.8580 F   0  0  0  0  0  0  0  0  0  0  0  0
  140.5720   69.9140  227.4220 C   0  0  0  0  0  0  0  0  0  0  0  0
  140.8630   70.9710  226.5810 C   0  0  0  0  0  0  0  0  0  0  0  0
  140.4350   70.8920  225.2710 C   0  0  0  0  0  0  0  0  0  0  0  0
  140.7020   71.9080  224.4110 N   0  0  0  0  0  0  0  0  0  0  0  0
  139.1890   74.3530  223.1050 H   0  0  0  0  0  0  0  0  0  0  0  0
  141.2501   75.3750  221.2440 H   0  0  0  0  0  0  0  0  0  0  0  0
  139.6992   75.0849  220.4273 H   0  0  0  0  0  0  0  0  0  0  0  0
  139.5755   77.5687  219.7389 H   0  0  0  0  0  0  0  0  0  0  0  0
  138.8455   78.9832  220.6626 H   0  0  0  0  0  0  0  0  0  0  0  0
  141.1794   78.8031  218.9815 H   0  0  0  0  0  0  0  0  0  0  0  0
  140.0967   80.2092  219.5644 H   0  0  0  0  0  0  0  0  0  0  0  0
  142.6952   79.9305  220.0240 H   0  0  0  0  0  0  0  0  0  0  0  0
  141.4079   80.8508  221.0055 H   0  0  0  0  0  0  0  0  0  0  0  0
  142.9022   78.3921  221.6187 H   0  0  0  0  0  0  0  0  0  0  0  0
  142.5159   79.9335  222.5808 H   0  0  0  0  0  0  0  0  0  0  0  0
  141.5004   77.6658  223.2419 H   0  0  0  0  0  0  0  0  0  0  0  0
  140.7790   79.0602  224.6463 H   0  0  0  0  0  0  0  0  0  0  0  0
  140.6323   80.3794  223.3674 H   0  0  0  0  0  0  0  0  0  0  0  0
  138.4240   78.3870  223.6110 H   0  0  0  0  0  0  0  0  0  0  0  0
  137.8420   80.1586  225.9484 H   0  0  0  0  0  0  0  0  0  0  0  0
  136.5654   82.2265  226.2833 H   0  0  0  0  0  0  0  0  0  0  0  0
  136.2140   83.7827  224.3559 H   0  0  0  0  0  0  0  0  0  0  0  0
  137.1769   83.1629  222.1586 H   0  0  0  0  0  0  0  0  0  0  0  0
  139.2752   70.7082  221.6594 H   0  0  0  0  0  0  0  0  0  0  0  0
  138.7600   68.8288  223.1778 H   0  0  0  0  0  0  0  0  0  0  0  0
  138.8940   67.8389  225.3394 H   0  0  0  0  0  0  0  0  0  0  0  0
  140.9101   69.9681  228.4673 H   0  0  0  0  0  0  0  0  0  0  0  0
  141.4185   71.8482  226.9441 H   0  0  0  0  0  0  0  0  0  0  0  0
  1  2  2  0
  2  3  1  0
  3  4  1  0
  4  5  1  0
  5  6  2  0
  5  7  1  0
  7  8  1  0
  8  9  1  0
  9 10  1  0
 10 11  1  0
 11 12  1  0
 12 13  1  0
 13 14  1  0
 14 15  1  0
 15 16  2  0
 16 17  1  0
 17 18  2  0
 18 19  1  0
 19 20  2  0
  2 21  1  0
 21 22  2  0
 22 23  1  0
 23 24  2  0
 24 25  1  0
 25 26  2  0
 26 27  1  0
 26 28  1  0
 28 29  2  0
 29 30  1  0
 30 31  2  0
 12  7  1  0
 20 15  1  0
 31 21  1  0
 30 24  1  0
  3 32  1  0
  4 33  1  0
  4 34  1  0
  8 35  1  0
  8 36  1  0
  9 37  1  0
  9 38  1  0
 10 39  1  0
 10 40  1  0
 11 41  1  0
 11 42  1  0
 12 43  1  1
 13 44  1  0
 13 45  1  0
 14 46  1  0
 16 47  1  0
 17 48  1  0
 18 49  1  0
 19 50  1  0
 22 51  1  0
 23 52  1  0
 25 53  1  0
 28 54  1  0
 29 55  1  0
M  END
>  <smiles>  (65) 
O=C(NCC(=O)N1CCCCC1CNc1ccccn1)c1ccc2cc(F)ccc2n1

>  <score_type>  (65) 
oracle

>  <origin>  (65) 
autodockgpu

>  <m_score__min__energy>  (65) 
-8.8000000000000007

>  <m_primary>  (65) 
energy

>  <rmsd>  (65) 
3.483614190906452

>  <m_score__min__rmsd>  (65) 
3.483614190906452

>  <meeko>  (65) 
{"free_energy": -7.28, "intermolecular_energy": -9.37, "internal_energy": -2.61, "cluster_size": 2, "cluster_id": 4, "rank_in_cluster": 2}

>  <energy>  (65) 
-8.04

>  <cluster_rmsd>  (65) 
1.72

>  <cluster>  (65) 
1

$$$$

     RDKit          3D

 55 58  0  0  0  0  0  0  0  0999 V2000
  137.8650   70.8080  221.9190 O   0  0  0  0  0  0  0  0  0  0  0  0
  138.6220   71.3350  222.7970 C   0  0  0  0  0  0  0  0  0  0  0  0
  139.0700   72.6820  222.7060 N   0  0  0  0  0  0  0  0  0  0  0  0
  138.6450   73.4840  221.5650 C   0  0  0  0  0  0  0  0  0  0  0  0
  139.5450   74.6500  221.5060 C   0  0  0  0  0  0  0  0  0  0  0  0
  140.4870   74.8480  222.3370 O   0  0  0  0  0  0  0  0  0  0  0  0
  139.4260   75.6720  220.4910 N   0  0  0  0  0  0  0  0  0  0  0  0
  138.2020   76.4640  220.5520 C   0  0  0  0  0  0  0  0  0  0  0  0
  137.7410   77.0120  219.2610 C   0  0  0  0  0  0  0  0  0  0  0  0
  138.6850   77.0430  218.1300 C   0  0  0  0  0  0  0  0  0  0  0  0
  139.8560   76.1370  218.1810 C   0  0  0  0  0  0  0  0  0  0  0  0
  140.4520   75.8600  219.5190 C   0  0  1  0  0  0  0  0  0  0  0  0
  141.5290   76.8410  219.9030 C   0  0  0  0  0  0  0  0  0  0  0  0
  141.7190   77.0280  221.3010 N   0  0  0  0  0  0  0  0  0  0  0  0
  141.7390   78.3620  221.8140 C   0  0  0  0  0  0  0  0  0  0  0  0
  141.8300   78.6260  223.1620 C   0  0  0  0  0  0  0  0  0  0  0  0
  141.8520   79.8980  223.6810 C   0  0  0  0  0  0  0  0  0  0  0  0
  141.7810   80.9740  222.8260 C   0  0  0  0  0  0  0  0  0  0  0  0
  141.6910   80.7120  221.4820 C   0  0  0  0  0  0  0  0  0  0  0  0
  141.6720   79.4370  220.9950 N   0  0  0  0  0  0  0  0  0  0  0  0
  139.0460   70.5310  223.9430 C   0  0  0  0  0  0  0  0  0  0  0  0
  138.8330   69.1650  223.9520 C   0  0  0  0  0  0  0  0  0  0  0  0
  139.2110   68.3530  225.0040 C   0  0  0  0  0  0  0  0  0  0  0  0
  139.8300   68.9350  226.0930 C   0  0  0  0  0  0  0  0  0  0  0  0
  140.2100   68.1280  227.1480 C   0  0  0  0  0  0  0  0  0  0  0  0
  140.8280   68.7200  228.2310 C   0  0  0  0  0  0  0  0  0  0  0  0
  141.2100   67.9420  229.2790 F   0  0  0  0  0  0  0  0  0  0  0  0
  141.0380   70.0850  228.2150 C   0  0  0  0  0  0  0  0  0  0  0  0
  140.6590   70.8950  227.1630 C   0  0  0  0  0  0  0  0  0  0  0  0
  140.0410   70.3010  226.0790 C   0  0  0  0  0  0  0  0  0  0  0  0
  139.6530   71.0610  225.0230 N   0  0  0  0  0  0  0  0  0  0  0  0
  139.6920   73.1160  223.4300 H   0  0  0  0  0  0  0  0  0  0  0  0
  138.7248   72.8966  220.6384 H   0  0  0  0  0  0  0  0  0  0  0  0
  137.5966   73.7993  221.6724 H   0  0  0  0  0  0  0  0  0  0  0  0
  137.4028   75.8243  220.9546 H   0  0  0  0  0  0  0  0  0  0  0  0
  138.4326   77.3325  221.1865 H   0  0  0  0  0  0  0  0  0  0  0  0
  136.8755   76.4114  218.9445 H   0  0  0  0  0  0  0  0  0  0  0  0
  137.5444   78.0729  219.4751 H   0  0  0  0  0  0  0  0  0  0  0  0
  138.1168   76.7935  217.2218 H   0  0  0  0  0  0  0  0  0  0  0  0
  139.1166   78.0544  218.1579 H   0  0  0  0  0  0  0  0  0  0  0  0
  139.5459   75.1727  217.7520 H   0  0  0  0  0  0  0  0  0  0  0  0
  140.6449   76.6658  217.6260 H   0  0  0  0  0  0  0  0  0  0  0  0
  140.9988   74.9070  219.4662 H   0  0  0  0  0  0  0  0  0  0  0  0
  142.4787   76.4853  219.4768 H   0  0  0  0  0  0  0  0  0  0  0  0
  141.2032   77.8154  219.5101 H   0  0  0  0  0  0  0  0  0  0  0  0
  141.8470   76.2550  221.9900 H   0  0  0  0  0  0  0  0  0  0  0  0
  141.8880   77.7764  223.8582 H   0  0  0  0  0  0  0  0  0  0  0  0
  141.9255   80.0545  224.7673 H   0  0  0  0  0  0  0  0  0  0  0  0
  141.7959   82.0062  223.2060 H   0  0  0  0  0  0  0  0  0  0  0  0
  141.6324   81.5540  220.7766 H   0  0  0  0  0  0  0  0  0  0  0  0
  138.3407   68.7041  223.0830 H   0  0  0  0  0  0  0  0  0  0  0  0
  139.0236   67.2695  224.9750 H   0  0  0  0  0  0  0  0  0  0  0  0
  140.0252   67.0439  227.1256 H   0  0  0  0  0  0  0  0  0  0  0  0
  141.5308   70.5491  229.0820 H   0  0  0  0  0  0  0  0  0  0  0  0
  140.8432   71.9792  227.1870 H   0  0  0  0  0  0  0  0  0  0  0  0
  1  2  2  0
  2  3  1  0
  3  4  1  0
  4  5  1  0
  5  6  2  0
  5  7  1  0
  7  8  1  0
  8  9  1  0
  9 10  1  0
 10 11  1  0
 11 12  1  0
 12 13  1  0
 13 14  1  0
 14 15  1  0
 15 16  2  0
 16 17  1  0
 17 18  2  0
 18 19  1  0
 19 20  2  0
  2 21  1  0
 21 22  2  0
 22 23  1  0
 23 24  2  0
 24 25  1  0
 25 26  2  0
 26 27  1  0
 26 28  1  0
 28 29  2  0
 29 30  1  0
 30 31  2  0
 12  7  1  0
 20 15  1  0
 31 21  1  0
 30 24  1  0
  3 32  1  0
  4 33  1  0
  4 34  1  0
  8 35  1  0
  8 36  1  0
  9 37  1  0
  9 38  1  0
 10 39  1  0
 10 40  1  0
 11 41  1  0
 11 42  1  0
 12 43  1  6
 13 44  1  0
 13 45  1  0
 14 46  1  0
 16 47  1  0
 17 48  1  0
 18 49  1  0
 19 50  1  0
 22 51  1  0
 23 52  1  0
 25 53  1  0
 28 54  1  0
 29 55  1  0
M  END
>  <smiles>  (66) 
O=C(NCC(=O)N1CCCCC1CNc1ccccn1)c1ccc2cc(F)ccc2n1

>  <score_type>  (66) 
oracle

>  <origin>  (66) 
autodockgpu

>  <m_score__min__energy>  (66) 
-8.8000000000000007

>  <m_primary>  (66) 
energy

>  <rmsd>  (66) 
2.059236452763309

>  <m_score__min__rmsd>  (66) 
2.059236452763309

>  <meeko>  (66) 
{"free_energy": -7.67, "intermolecular_energy": -9.76, "internal_energy": -2.82, "cluster_size": 30, "cluster_id": 1, "rank_in_cluster": 29}

>  <energy>  (66) 
-8.03

>  <cluster_rmsd>  (66) 
1.11

>  <cluster>  (66) 
1

$$$$

     RDKit          3D

 55 58  0  0  0  0  0  0  0  0999 V2000
  137.9340   70.9240  221.9950 O   0  0  0  0  0  0  0  0  0  0  0  0
  138.7590   71.3820  222.8500 C   0  0  0  0  0  0  0  0  0  0  0  0
  139.3260   72.6830  222.7400 N   0  0  0  0  0  0  0  0  0  0  0  0
  138.9460   73.5160  221.6070 C   0  0  0  0  0  0  0  0  0  0  0  0
  139.7550   74.7460  221.6930 C   0  0  0  0  0  0  0  0  0  0  0  0
  140.9780   74.7550  222.0430 O   0  0  0  0  0  0  0  0  0  0  0  0
  139.2190   76.0520  221.3830 N   0  0  0  0  0  0  0  0  0  0  0  0
  138.3320   76.6110  222.3980 C   0  0  0  0  0  0  0  0  0  0  0  0
  137.3060   77.5450  221.8930 C   0  0  0  0  0  0  0  0  0  0  0  0
  137.4700   78.1090  220.5410 C   0  0  0  0  0  0  0  0  0  0  0  0
  138.3600   77.3960  219.5960 C   0  0  0  0  0  0  0  0  0  0  0  0
  139.5560   76.7100  220.1640 C   0  0  1  0  0  0  0  0  0  0  0  0
  140.7730   77.5970  220.2280 C   0  0  0  0  0  0  0  0  0  0  0  0
  141.4590   77.6080  221.4750 N   0  0  0  0  0  0  0  0  0  0  0  0
  141.5920   78.8520  222.1680 C   0  0  0  0  0  0  0  0  0  0  0  0
  142.5470   79.0480  223.1400 C   0  0  0  0  0  0  0  0  0  0  0  0
  142.6970   80.2330  223.8200 C   0  0  0  0  0  0  0  0  0  0  0  0
  141.8610   81.2860  223.5280 C   0  0  0  0  0  0  0  0  0  0  0  0
  140.9080   81.0910  222.5590 C   0  0  0  0  0  0  0  0  0  0  0  0
  140.7830   79.9020  221.9000 N   0  0  0  0  0  0  0  0  0  0  0  0
  139.1400   70.5460  223.9880 C   0  0  0  0  0  0  0  0  0  0  0  0
  138.8650   69.1900  223.9780 C   0  0  0  0  0  0  0  0  0  0  0  0
  139.1990   68.3490  225.0230 C   0  0  0  0  0  0  0  0  0  0  0  0
  139.8370   68.8890  226.1230 C   0  0  0  0  0  0  0  0  0  0  0  0
  140.1720   68.0520  227.1690 C   0  0  0  0  0  0  0  0  0  0  0  0
  140.8090   68.6030  228.2640 C   0  0  0  0  0  0  0  0  0  0  0  0
  141.1480   67.7950  229.3040 F   0  0  0  0  0  0  0  0  0  0  0  0
  141.0800   69.9570  228.2670 C   0  0  0  0  0  0  0  0  0  0  0  0
  140.7450   70.7960  227.2220 C   0  0  0  0  0  0  0  0  0  0  0  0
  140.1080   70.2440  226.1280 C   0  0  0  0  0  0  0  0  0  0  0  0
  139.7620   71.0340  225.0790 N   0  0  0  0  0  0  0  0  0  0  0  0
  140.0040   73.0590  223.4460 H   0  0  0  0  0  0  0  0  0  0  0  0
  139.1549   72.9904  220.6635 H   0  0  0  0  0  0  0  0  0  0  0  0
  137.8710   73.7479  221.6302 H   0  0  0  0  0  0  0  0  0  0  0  0
  137.8165   75.7765  222.8959 H   0  0  0  0  0  0  0  0  0  0  0  0
  138.9727   77.1980  223.0724 H   0  0  0  0  0  0  0  0  0  0  0  0
  136.3452   77.0096  221.9067 H   0  0  0  0  0  0  0  0  0  0  0  0
  137.3857   78.4169  222.5590 H   0  0  0  0  0  0  0  0  0  0  0  0
  136.4717   78.1529  220.0811 H   0  0  0  0  0  0  0  0  0  0  0  0
  137.9619   79.0792  220.7046 H   0  0  0  0  0  0  0  0  0  0  0  0
  137.7545   76.6336  219.0840 H   0  0  0  0  0  0  0  0  0  0  0  0
  138.7697   78.1838  218.9468 H   0  0  0  0  0  0  0  0  0  0  0  0
  139.8677   75.9181  219.4670 H   0  0  0  0  0  0  0  0  0  0  0  0
  141.4795   77.2590  219.4556 H   0  0  0  0  0  0  0  0  0  0  0  0
  140.4068   78.6231  220.0760 H   0  0  0  0  0  0  0  0  0  0  0  0
  141.8780   76.7670  221.9290 H   0  0  0  0  0  0  0  0  0  0  0  0
  143.2231   78.2155  223.3844 H   0  0  0  0  0  0  0  0  0  0  0  0
  143.4766   80.3383  224.5889 H   0  0  0  0  0  0  0  0  0  0  0  0
  141.9527   82.2490  224.0517 H   0  0  0  0  0  0  0  0  0  0  0  0
  140.2259   81.9162  222.3065 H   0  0  0  0  0  0  0  0  0  0  0  0
  138.3585   68.7625  223.1001 H   0  0  0  0  0  0  0  0  0  0  0  0
  138.9625   67.2756  224.9798 H   0  0  0  0  0  0  0  0  0  0  0  0
  139.9384   66.9777  227.1314 H   0  0  0  0  0  0  0  0  0  0  0  0
  141.5867   70.3879  229.1431 H   0  0  0  0  0  0  0  0  0  0  0  0
  140.9783   71.8703  227.2600 H   0  0  0  0  0  0  0  0  0  0  0  0
  1  2  2  0
  2  3  1  0
  3  4  1  0
  4  5  1  0
  5  6  2  0
  5  7  1  0
  7  8  1  0
  8  9  1  0
  9 10  1  0
 10 11  1  0
 11 12  1  0
 12 13  1  0
 13 14  1  0
 14 15  1  0
 15 16  2  0
 16 17  1  0
 17 18  2  0
 18 19  1  0
 19 20  2  0
  2 21  1  0
 21 22  2  0
 22 23  1  0
 23 24  2  0
 24 25  1  0
 25 26  2  0
 26 27  1  0
 26 28  1  0
 28 29  2  0
 29 30  1  0
 30 31  2  0
 12  7  1  0
 20 15  1  0
 31 21  1  0
 30 24  1  0
  3 32  1  0
  4 33  1  0
  4 34  1  0
  8 35  1  0
  8 36  1  0
  9 37  1  0
  9 38  1  0
 10 39  1  0
 10 40  1  0
 11 41  1  0
 11 42  1  0
 12 43  1  6
 13 44  1  0
 13 45  1  0
 14 46  1  0
 16 47  1  0
 17 48  1  0
 18 49  1  0
 19 50  1  0
 22 51  1  0
 23 52  1  0
 25 53  1  0
 28 54  1  0
 29 55  1  0
M  END
>  <smiles>  (67) 
O=C(NCC(=O)N1CCCCC1CNc1ccccn1)c1ccc2cc(F)ccc2n1

>  <score_type>  (67) 
oracle

>  <origin>  (67) 
autodockgpu

>  <m_score__min__energy>  (67) 
-8.8000000000000007

>  <m_primary>  (67) 
energy

>  <rmsd>  (67) 
2.674696333352116

>  <m_score__min__rmsd>  (67) 
2.674696333352116

>  <meeko>  (67) 
{"free_energy": -8.32, "intermolecular_energy": -10.41, "internal_energy": -2.68, "cluster_size": 30, "cluster_id": 1, "rank_in_cluster": 8}

>  <energy>  (67) 
-8.03

>  <cluster_rmsd>  (67) 
1.11

>  <cluster>  (67) 
1

$$$$

     RDKit          3D

 55 58  0  0  0  0  0  0  0  0999 V2000
  138.4810   70.8310  221.6770 O   0  0  0  0  0  0  0  0  0  0  0  0
  139.0540   71.3680  222.6790 C   0  0  0  0  0  0  0  0  0  0  0  0
  139.4280   72.7410  222.6960 N   0  0  0  0  0  0  0  0  0  0  0  0
  139.1420   73.5570  221.5220 C   0  0  0  0  0  0  0  0  0  0  0  0
  139.8700   74.8260  221.6990 C   0  0  0  0  0  0  0  0  0  0  0  0
  141.1070   74.8880  221.9880 O   0  0  0  0  0  0  0  0  0  0  0  0
  139.2300   76.1150  221.5570 N   0  0  0  0  0  0  0  0  0  0  0  0
  138.4160   76.5280  222.6950 C   0  0  0  0  0  0  0  0  0  0  0  0
  137.2910   77.4290  222.3720 C   0  0  0  0  0  0  0  0  0  0  0  0
  137.2890   78.1130  221.0660 C   0  0  0  0  0  0  0  0  0  0  0  0
  138.1240   77.5410  219.9830 C   0  0  0  0  0  0  0  0  0  0  0  0
  139.4080   76.8930  220.3760 C   0  0  1  0  0  0  0  0  0  0  0  0
  140.5700   77.8510  220.4060 C   0  0  0  0  0  0  0  0  0  0  0  0
  141.3920   77.7820  221.5660 N   0  0  0  0  0  0  0  0  0  0  0  0
  141.5740   78.9680  222.3430 C   0  0  0  0  0  0  0  0  0  0  0  0
  140.5120   79.7340  222.7670 C   0  0  0  0  0  0  0  0  0  0  0  0
  140.6590   80.8770  223.5160 C   0  0  0  0  0  0  0  0  0  0  0  0
  141.9220   81.2910  223.8680 C   0  0  0  0  0  0  0  0  0  0  0  0
  142.9820   80.5280  223.4450 C   0  0  0  0  0  0  0  0  0  0  0  0
  142.8050   79.3970  222.7030 N   0  0  0  0  0  0  0  0  0  0  0  0
  139.3390   70.5500  223.8570 C   0  0  0  0  0  0  0  0  0  0  0  0
  138.9970   69.2100  223.8730 C   0  0  0  0  0  0  0  0  0  0  0  0
  139.2400   68.3860  224.9560 C   0  0  0  0  0  0  0  0  0  0  0  0
  139.8540   68.9270  226.0690 C   0  0  0  0  0  0  0  0  0  0  0  0
  140.0990   68.1080  227.1530 C   0  0  0  0  0  0  0  0  0  0  0  0
  140.7120   68.6600  228.2600 C   0  0  0  0  0  0  0  0  0  0  0  0
  140.9620   67.8700  229.3380 F   0  0  0  0  0  0  0  0  0  0  0  0
  141.0510   69.9980  228.2370 C   0  0  0  0  0  0  0  0  0  0  0  0
  140.8070   70.8210  227.1540 C   0  0  0  0  0  0  0  0  0  0  0  0
  140.1940   70.2670  226.0470 C   0  0  0  0  0  0  0  0  0  0  0  0
  139.9360   71.0400  224.9610 N   0  0  0  0  0  0  0  0  0  0  0  0
  139.8990   73.1830  223.5220 H   0  0  0  0  0  0  0  0  0  0  0  0
  139.4880   73.0455  220.6117 H   0  0  0  0  0  0  0  0  0  0  0  0
  138.0613   73.7329  221.4169 H   0  0  0  0  0  0  0  0  0  0  0  0
  138.0027   75.6227  223.1637 H   0  0  0  0  0  0  0  0  0  0  0  0
  139.0842   77.1001  223.3555 H   0  0  0  0  0  0  0  0  0  0  0  0
  136.3698   76.8303  222.4262 H   0  0  0  0  0  0  0  0  0  0  0  0
  137.3823   78.2458  223.1031 H   0  0  0  0  0  0  0  0  0  0  0  0
  136.2499   78.1280  220.7055 H   0  0  0  0  0  0  0  0  0  0  0  0
  137.7363   79.0972  221.2690 H   0  0  0  0  0  0  0  0  0  0  0  0
  137.5178   76.7841  219.4638 H   0  0  0  0  0  0  0  0  0  0  0  0
  138.4210   78.4051  219.3706 H   0  0  0  0  0  0  0  0  0  0  0  0
  139.6978   76.1843  219.5862 H   0  0  0  0  0  0  0  0  0  0  0  0
  141.2023   77.6442  219.5300 H   0  0  0  0  0  0  0  0  0  0  0  0
  140.1299   78.8591  220.4076 H   0  0  0  0  0  0  0  0  0  0  0  0
  141.8790   76.9210  221.8970 H   0  0  0  0  0  0  0  0  0  0  0  0
  139.4954   79.4157  222.4929 H   0  0  0  0  0  0  0  0  0  0  0  0
  139.7766   81.4538  223.8302 H   0  0  0  0  0  0  0  0  0  0  0  0
  142.0775   82.2006  224.4668 H   0  0  0  0  0  0  0  0  0  0  0  0
  144.0032   80.8374  223.7120 H   0  0  0  0  0  0  0  0  0  0  0  0
  138.5101   68.7810  222.9848 H   0  0  0  0  0  0  0  0  0  0  0  0
  138.9514   67.3248  224.9321 H   0  0  0  0  0  0  0  0  0  0  0  0
  139.8139   67.0457  227.1352 H   0  0  0  0  0  0  0  0  0  0  0  0
  141.5388   70.4298  229.1233 H   0  0  0  0  0  0  0  0  0  0  0  0
  141.0918   71.8833  227.1729 H   0  0  0  0  0  0  0  0  0  0  0  0
  1  2  2  0
  2  3  1  0
  3  4  1  0
  4  5  1  0
  5  6  2  0
  5  7  1  0
  7  8  1  0
  8  9  1  0
  9 10  1  0
 10 11  1  0
 11 12  1  0
 12 13  1  0
 13 14  1  0
 14 15  1  0
 15 16  2  0
 16 17  1  0
 17 18  2  0
 18 19  1  0
 19 20  2  0
  2 21  1  0
 21 22  2  0
 22 23  1  0
 23 24  2  0
 24 25  1  0
 25 26  2  0
 26 27  1  0
 26 28  1  0
 28 29  2  0
 29 30  1  0
 30 31  2  0
 12  7  1  0
 20 15  1  0
 31 21  1  0
 30 24  1  0
  3 32  1  0
  4 33  1  0
  4 34  1  0
  8 35  1  0
  8 36  1  0
  9 37  1  0
  9 38  1  0
 10 39  1  0
 10 40  1  0
 11 41  1  0
 11 42  1  0
 12 43  1  6
 13 44  1  0
 13 45  1  0
 14 46  1  0
 16 47  1  0
 17 48  1  0
 18 49  1  0
 19 50  1  0
 22 51  1  0
 23 52  1  0
 25 53  1  0
 28 54  1  0
 29 55  1  0
M  END
>  <smiles>  (68) 
O=C(NCC(=O)N1CCCCC1CNc1ccccn1)c1ccc2cc(F)ccc2n1

>  <score_type>  (68) 
oracle

>  <origin>  (68) 
autodockgpu

>  <m_score__min__energy>  (68) 
-8.8000000000000007

>  <m_primary>  (68) 
energy

>  <rmsd>  (68) 
2.8031952819557504

>  <m_score__min__rmsd>  (68) 
2.8031952819557504

>  <meeko>  (68) 
{"free_energy": -8.59, "intermolecular_energy": -10.67, "internal_energy": -2.55, "cluster_size": 30, "cluster_id": 1, "rank_in_cluster": 3}

>  <energy>  (68) 
-8.02

>  <cluster_rmsd>  (68) 
0.89

>  <cluster>  (68) 
1

$$$$

     RDKit          3D

 55 58  0  0  0  0  0  0  0  0999 V2000
  141.2400   72.9270  221.1210 O   0  0  0  0  0  0  0  0  0  0  0  0
  140.3490   73.0550  222.0210 C   0  0  0  0  0  0  0  0  0  0  0  0
  139.4530   74.1610  222.0520 N   0  0  0  0  0  0  0  0  0  0  0  0
  139.5650   75.1790  221.0160 C   0  0  0  0  0  0  0  0  0  0  0  0
  140.4840   76.2110  221.5310 C   0  0  0  0  0  0  0  0  0  0  0  0
  140.6980   76.4010  222.7700 O   0  0  0  0  0  0  0  0  0  0  0  0
  141.2220   77.0970  220.6600 N   0  0  0  0  0  0  0  0  0  0  0  0
  141.4230   78.4460  221.1790 C   0  0  0  0  0  0  0  0  0  0  0  0
  141.5580   79.5030  220.1560 C   0  0  0  0  0  0  0  0  0  0  0  0
  141.8410   79.1050  218.7650 C   0  0  0  0  0  0  0  0  0  0  0  0
  141.5290   77.7130  218.3650 C   0  0  0  0  0  0  0  0  0  0  0  0
  141.7010   76.6480  219.3950 C   0  0  1  0  0  0  0  0  0  0  0  0
  143.0860   76.0530  219.4070 C   0  0  0  0  0  0  0  0  0  0  0  0
  143.3550   75.1470  220.4690 N   0  0  0  0  0  0  0  0  0  0  0  0
  144.2210   74.0370  220.2160 C   0  0  0  0  0  0  0  0  0  0  0  0
  145.4360   73.8980  220.8480 C   0  0  0  0  0  0  0  0  0  0  0  0
  146.2860   72.8420  220.6230 C   0  0  0  0  0  0  0  0  0  0  0  0
  145.9210   71.8650  219.7250 C   0  0  0  0  0  0  0  0  0  0  0  0
  144.7090   72.0030  219.0940 C   0  0  0  0  0  0  0  0  0  0  0  0
  143.8860   73.0640  219.3380 N   0  0  0  0  0  0  0  0  0  0  0  0
  140.2360   72.0330  223.0600 C   0  0  0  0  0  0  0  0  0  0  0  0
  139.6600   70.8080  222.7720 C   0  0  0  0  0  0  0  0  0  0  0  0
  139.5250   69.8030  223.7100 C   0  0  0  0  0  0  0  0  0  0  0  0
  139.9880   70.0330  224.9910 C   0  0  0  0  0  0  0  0  0  0  0  0
  139.8560   69.0320  225.9330 C   0  0  0  0  0  0  0  0  0  0  0  0
  140.3220   69.2730  227.2100 C   0  0  0  0  0  0  0  0  0  0  0  0
  140.2000   68.2990  228.1510 F   0  0  0  0  0  0  0  0  0  0  0  0
  140.8950   70.4970  227.4900 C   0  0  0  0  0  0  0  0  0  0  0  0
  141.0290   71.5020  226.5510 C   0  0  0  0  0  0  0  0  0  0  0  0
  140.5630   71.2590  225.2740 C   0  0  0  0  0  0  0  0  0  0  0  0
  140.6750   72.2190  224.3200 N   0  0  0  0  0  0  0  0  0  0  0  0
  138.7190   74.2650  222.7930 H   0  0  0  0  0  0  0  0  0  0  0  0
  139.9699   74.7376  220.0934 H   0  0  0  0  0  0  0  0  0  0  0  0
  138.5813   75.6097  220.7775 H   0  0  0  0  0  0  0  0  0  0  0  0
  140.5615   78.6971  221.8153 H   0  0  0  0  0  0  0  0  0  0  0  0
  142.3800   78.4236  221.7210 H   0  0  0  0  0  0  0  0  0  0  0  0
  140.6141   80.0677  220.1463 H   0  0  0  0  0  0  0  0  0  0  0  0
  142.4543   80.0617  220.4634 H   0  0  0  0  0  0  0  0  0  0  0  0
  141.2620   79.7719  218.1092 H   0  0  0  0  0  0  0  0  0  0  0  0
  142.9347   79.1796  218.6739 H   0  0  0  0  0  0  0  0  0  0  0  0
  140.4785   77.6908  218.0396 H   0  0  0  0  0  0  0  0  0  0  0  0
  142.2668   77.4722  217.5855 H   0  0  0  0  0  0  0  0  0  0  0  0
  141.0695   75.7909  219.1181 H   0  0  0  0  0  0  0  0  0  0  0  0
  143.2320   75.5157  218.4583 H   0  0  0  0  0  0  0  0  0  0  0  0
  143.7758   76.8979  219.5496 H   0  0  0  0  0  0  0  0  0  0  0  0
  142.9650   75.2300  221.4330 H   0  0  0  0  0  0  0  0  0  0  0  0
  145.7416   74.6706  221.5689 H   0  0  0  0  0  0  0  0  0  0  0  0
  147.2470   72.7783  221.1544 H   0  0  0  0  0  0  0  0  0  0  0  0
  146.5759   71.0053  219.5202 H   0  0  0  0  0  0  0  0  0  0  0  0
  144.3926   71.2365  218.3713 H   0  0  0  0  0  0  0  0  0  0  0  0
  139.2935   70.6266  221.7509 H   0  0  0  0  0  0  0  0  0  0  0  0
  139.0599   68.8425  223.4433 H   0  0  0  0  0  0  0  0  0  0  0  0
  139.3923   68.0690  225.6730 H   0  0  0  0  0  0  0  0  0  0  0  0
  141.2629   70.6815  228.5101 H   0  0  0  0  0  0  0  0  0  0  0  0
  141.4921   72.4649  226.8125 H   0  0  0  0  0  0  0  0  0  0  0  0
  1  2  2  0
  2  3  1  0
  3  4  1  0
  4  5  1  0
  5  6  2  0
  5  7  1  0
  7  8  1  0
  8  9  1  0
  9 10  1  0
 10 11  1  0
 11 12  1  0
 12 13  1  0
 13 14  1  0
 14 15  1  0
 15 16  2  0
 16 17  1  0
 17 18  2  0
 18 19  1  0
 19 20  2  0
  2 21  1  0
 21 22  2  0
 22 23  1  0
 23 24  2  0
 24 25  1  0
 25 26  2  0
 26 27  1  0
 26 28  1  0
 28 29  2  0
 29 30  1  0
 30 31  2  0
 12  7  1  0
 20 15  1  0
 31 21  1  0
 30 24  1  0
  3 32  1  0
  4 33  1  0
  4 34  1  0
  8 35  1  0
  8 36  1  0
  9 37  1  0
  9 38  1  0
 10 39  1  0
 10 40  1  0
 11 41  1  0
 11 42  1  0
 12 43  1  6
 13 44  1  0
 13 45  1  0
 14 46  1  0
 16 47  1  0
 17 48  1  0
 18 49  1  0
 19 50  1  0
 22 51  1  0
 23 52  1  0
 25 53  1  0
 28 54  1  0
 29 55  1  0
M  END
>  <smiles>  (69) 
O=C(NCC(=O)N1CCCCC1CNc1ccccn1)c1ccc2cc(F)ccc2n1

>  <score_type>  (69) 
oracle

>  <origin>  (69) 
autodockgpu

>  <m_score__min__energy>  (69) 
-8.8000000000000007

>  <m_primary>  (69) 
energy

>  <rmsd>  (69) 
4.728297517043902

>  <m_score__min__rmsd>  (69) 
4.728297517043902

>  <meeko>  (69) 
{"free_energy": -8.21, "intermolecular_energy": -10.3, "internal_energy": -1.92, "cluster_size": 12, "cluster_id": 2, "rank_in_cluster": 10}

>  <energy>  (69) 
-8.02

>  <cluster_rmsd>  (69) 
1.36

>  <cluster>  (69) 
1

$$$$

     RDKit          3D

 55 58  0  0  0  0  0  0  0  0999 V2000
  141.3240   72.5090  221.6120 O   0  0  0  0  0  0  0  0  0  0  0  0
  140.3640   72.6180  222.4420 C   0  0  0  0  0  0  0  0  0  0  0  0
  139.3920   73.6530  222.3490 N   0  0  0  0  0  0  0  0  0  0  0  0
  139.5020   74.6190  221.2640 C   0  0  0  0  0  0  0  0  0  0  0  0
  138.5160   75.6810  221.5370 C   0  0  0  0  0  0  0  0  0  0  0  0
  137.3070   75.4470  221.8550 O   0  0  0  0  0  0  0  0  0  0  0  0
  138.8480   77.0860  221.4660 N   0  0  0  0  0  0  0  0  0  0  0  0
  138.6760   77.8240  222.7130 C   0  0  0  0  0  0  0  0  0  0  0  0
  138.3680   79.2600  222.5580 C   0  0  0  0  0  0  0  0  0  0  0  0
  138.6120   79.8960  221.2510 C   0  0  0  0  0  0  0  0  0  0  0  0
  138.7050   79.0200  220.0600 C   0  0  0  0  0  0  0  0  0  0  0  0
  139.3060   77.6680  220.2490 C   0  0  1  0  0  0  0  0  0  0  0  0
  140.8000   77.6510  220.0500 C   0  0  0  0  0  0  0  0  0  0  0  0
  141.5760   77.5690  221.2400 N   0  0  0  0  0  0  0  0  0  0  0  0
  141.7890   78.7630  221.9980 C   0  0  0  0  0  0  0  0  0  0  0  0
  141.9100   78.7470  223.3690 C   0  0  0  0  0  0  0  0  0  0  0  0
  142.1150   79.8780  224.1210 C   0  0  0  0  0  0  0  0  0  0  0  0
  142.2090   81.0970  223.4890 C   0  0  0  0  0  0  0  0  0  0  0  0
  142.0890   81.1140  222.1210 C   0  0  0  0  0  0  0  0  0  0  0  0
  141.8850   79.9730  221.4010 N   0  0  0  0  0  0  0  0  0  0  0  0
  140.2520   71.6470  223.5310 C   0  0  0  0  0  0  0  0  0  0  0  0
  139.6610   70.4170  223.3070 C   0  0  0  0  0  0  0  0  0  0  0  0
  139.5260   69.4590  224.2940 C   0  0  0  0  0  0  0  0  0  0  0  0
  140.0050   69.7450  225.5580 C   0  0  0  0  0  0  0  0  0  0  0  0
  139.8730   68.7910  226.5470 C   0  0  0  0  0  0  0  0  0  0  0  0
  140.3540   69.0890  227.8070 C   0  0  0  0  0  0  0  0  0  0  0  0
  140.2330   68.1620  228.7940 F   0  0  0  0  0  0  0  0  0  0  0  0
  140.9430   70.3190  228.0220 C   0  0  0  0  0  0  0  0  0  0  0  0
  141.0770   71.2760  227.0340 C   0  0  0  0  0  0  0  0  0  0  0  0
  140.5950   70.9770  225.7750 C   0  0  0  0  0  0  0  0  0  0  0  0
  140.7070   71.8890  224.7760 N   0  0  0  0  0  0  0  0  0  0  0  0
  138.6010   73.7410  223.0320 H   0  0  0  0  0  0  0  0  0  0  0  0
  140.5167   75.0427  221.2357 H   0  0  0  0  0  0  0  0  0  0  0  0
  139.3101   74.1431  220.2910 H   0  0  0  0  0  0  0  0  0  0  0  0
  137.8518   77.3580  223.2730 H   0  0  0  0  0  0  0  0  0  0  0  0
  139.6444   77.7745  223.2324 H   0  0  0  0  0  0  0  0  0  0  0  0
  137.3000   79.3893  222.7874 H   0  0  0  0  0  0  0  0  0  0  0  0
  139.0743   79.7609  223.2364 H   0  0  0  0  0  0  0  0  0  0  0  0
  137.7897   80.6046  221.0730 H   0  0  0  0  0  0  0  0  0  0  0  0
  139.6132   80.3419  221.3441 H   0  0  0  0  0  0  0  0  0  0  0  0
  137.6846   78.8768  219.6749 H   0  0  0  0  0  0  0  0  0  0  0  0
  139.3937   79.5419  219.3793 H   0  0  0  0  0  0  0  0  0  0  0  0
  138.9455   77.0104  219.4442 H   0  0  0  0  0  0  0  0  0  0  0  0
  141.0484   76.7820  219.4230 H   0  0  0  0  0  0  0  0  0  0  0  0
  141.0542   78.6173  219.5899 H   0  0  0  0  0  0  0  0  0  0  0  0
  142.0080   76.6930  221.6080 H   0  0  0  0  0  0  0  0  0  0  0  0
  141.8390   77.7800  223.8885 H   0  0  0  0  0  0  0  0  0  0  0  0
  142.2030   79.8103  225.2154 H   0  0  0  0  0  0  0  0  0  0  0  0
  142.3741   82.0235  224.0586 H   0  0  0  0  0  0  0  0  0  0  0  0
  142.1594   82.0750  221.5905 H   0  0  0  0  0  0  0  0  0  0  0  0
  139.2818   70.1912  222.2994 H   0  0  0  0  0  0  0  0  0  0  0  0
  139.0485   68.4918  224.0783 H   0  0  0  0  0  0  0  0  0  0  0  0
  139.3983   67.8211  226.3376 H   0  0  0  0  0  0  0  0  0  0  0  0
  141.3240   70.5483  229.0281 H   0  0  0  0  0  0  0  0  0  0  0  0
  141.5526   72.2454  227.2439 H   0  0  0  0  0  0  0  0  0  0  0  0
  1  2  2  0
  2  3  1  0
  3  4  1  0
  4  5  1  0
  5  6  2  0
  5  7  1  0
  7  8  1  0
  8  9  1  0
  9 10  1  0
 10 11  1  0
 11 12  1  0
 12 13  1  0
 13 14  1  0
 14 15  1  0
 15 16  2  0
 16 17  1  0
 17 18  2  0
 18 19  1  0
 19 20  2  0
  2 21  1  0
 21 22  2  0
 22 23  1  0
 23 24  2  0
 24 25  1  0
 25 26  2  0
 26 27  1  0
 26 28  1  0
 28 29  2  0
 29 30  1  0
 30 31  2  0
 12  7  1  0
 20 15  1  0
 31 21  1  0
 30 24  1  0
  3 32  1  0
  4 33  1  0
  4 34  1  0
  8 35  1  0
  8 36  1  0
  9 37  1  0
  9 38  1  0
 10 39  1  0
 10 40  1  0
 11 41  1  0
 11 42  1  0
 12 43  1  6
 13 44  1  0
 13 45  1  0
 14 46  1  0
 16 47  1  0
 17 48  1  0
 18 49  1  0
 19 50  1  0
 22 51  1  0
 23 52  1  0
 25 53  1  0
 28 54  1  0
 29 55  1  0
M  END
>  <smiles>  (70) 
O=C(NCC(=O)N1CCCCC1CNc1ccccn1)c1ccc2cc(F)ccc2n1

>  <score_type>  (70) 
oracle

>  <origin>  (70) 
autodockgpu

>  <m_score__min__energy>  (70) 
-8.8000000000000007

>  <m_primary>  (70) 
energy

>  <rmsd>  (70) 
3.1368853252661353

>  <m_score__min__rmsd>  (70) 
3.1368853252661353

>  <meeko>  (70) 
{"free_energy": -8.41, "intermolecular_energy": -10.49, "internal_energy": -2.1, "cluster_size": 30, "cluster_id": 1, "rank_in_cluster": 4}

>  <energy>  (70) 
-7.98

>  <cluster_rmsd>  (70) 
0.97

>  <cluster>  (70) 
1

$$$$

     RDKit          3D

 55 58  0  0  0  0  0  0  0  0999 V2000
  138.6040   71.0340  221.2980 O   0  0  0  0  0  0  0  0  0  0  0  0
  139.0930   71.6140  222.3210 C   0  0  0  0  0  0  0  0  0  0  0  0
  139.3890   73.0060  222.3380 N   0  0  0  0  0  0  0  0  0  0  0  0
  139.1230   73.7900  221.1390 C   0  0  0  0  0  0  0  0  0  0  0  0
  140.1940   74.8000  221.0450 C   0  0  0  0  0  0  0  0  0  0  0  0
  141.0300   75.0210  221.9770 O   0  0  0  0  0  0  0  0  0  0  0  0
  140.3820   75.6250  219.8730 N   0  0  0  0  0  0  0  0  0  0  0  0
  139.2510   75.6540  218.9510 C   0  0  0  0  0  0  0  0  0  0  0  0
  139.5970   75.9030  217.5370 C   0  0  0  0  0  0  0  0  0  0  0  0
  140.9310   76.4470  217.2230 C   0  0  0  0  0  0  0  0  0  0  0  0
  141.9990   76.2910  218.2360 C   0  0  0  0  0  0  0  0  0  0  0  0
  141.5970   76.3430  219.6720 C   0  0  1  0  0  0  0  0  0  0  0  0
  141.6230   77.7370  220.2440 C   0  0  0  0  0  0  0  0  0  0  0  0
  141.7680   77.8170  221.6570 N   0  0  0  0  0  0  0  0  0  0  0  0
  141.8250   79.1100  222.2640 C   0  0  0  0  0  0  0  0  0  0  0  0
  141.1150   80.1810  221.7690 C   0  0  0  0  0  0  0  0  0  0  0  0
  141.1510   81.4340  222.3340 C   0  0  0  0  0  0  0  0  0  0  0  0
  141.9280   81.6460  223.4490 C   0  0  0  0  0  0  0  0  0  0  0  0
  142.6360   80.5780  223.9430 C   0  0  0  0  0  0  0  0  0  0  0  0
  142.5810   79.3450  223.3600 N   0  0  0  0  0  0  0  0  0  0  0  0
  139.3580   70.8270  223.5250 C   0  0  0  0  0  0  0  0  0  0  0  0
  138.9870   69.4950  223.5820 C   0  0  0  0  0  0  0  0  0  0  0  0
  139.2100   68.7010  224.6890 C   0  0  0  0  0  0  0  0  0  0  0  0
  139.8340   69.2620  225.7860 C   0  0  0  0  0  0  0  0  0  0  0  0
  140.0600   68.4720  226.8960 C   0  0  0  0  0  0  0  0  0  0  0  0
  140.6840   69.0440  227.9860 C   0  0  0  0  0  0  0  0  0  0  0  0
  140.9160   68.2820  229.0880 F   0  0  0  0  0  0  0  0  0  0  0  0
  141.0530   70.3730  227.9220 C   0  0  0  0  0  0  0  0  0  0  0  0
  140.8280   71.1670  226.8140 C   0  0  0  0  0  0  0  0  0  0  0  0
  140.2040   70.5930  225.7240 C   0  0  0  0  0  0  0  0  0  0  0  0
  139.9640   71.3380  224.6140 N   0  0  0  0  0  0  0  0  0  0  0  0
  139.7910   73.4820  223.1810 H   0  0  0  0  0  0  0  0  0  0  0  0
  139.1356   73.1406  220.2512 H   0  0  0  0  0  0  0  0  0  0  0  0
  138.1333   74.2673  221.1906 H   0  0  0  0  0  0  0  0  0  0  0  0
  138.7394   74.6820  219.0098 H   0  0  0  0  0  0  0  0  0  0  0  0
  138.6237   76.5013  219.2649 H   0  0  0  0  0  0  0  0  0  0  0  0
  139.5047   74.9437  217.0066 H   0  0  0  0  0  0  0  0  0  0  0  0
  138.9029   76.6979  217.2266 H   0  0  0  0  0  0  0  0  0  0  0  0
  141.2776   75.9536  216.3030 H   0  0  0  0  0  0  0  0  0  0  0  0
  140.7757   77.5336  217.1513 H   0  0  0  0  0  0  0  0  0  0  0  0
  142.4781   75.3161  218.0627 H   0  0  0  0  0  0  0  0  0  0  0  0
  142.6504   77.1660  218.0946 H   0  0  0  0  0  0  0  0  0  0  0  0
  142.3603   75.8215  220.2682 H   0  0  0  0  0  0  0  0  0  0  0  0
  142.4657   78.2755  219.7859 H   0  0  0  0  0  0  0  0  0  0  0  0
  140.6401   78.1751  220.0162 H   0  0  0  0  0  0  0  0  0  0  0  0
  141.8380   76.9930  222.2940 H   0  0  0  0  0  0  0  0  0  0  0  0
  140.4885   80.0266  220.8781 H   0  0  0  0  0  0  0  0  0  0  0  0
  140.5652   82.2573  221.8993 H   0  0  0  0  0  0  0  0  0  0  0  0
  141.9804   82.6350  223.9276 H   0  0  0  0  0  0  0  0  0  0  0  0
  143.2654   80.7202  224.8339 H   0  0  0  0  0  0  0  0  0  0  0  0
  138.4925   69.0492  222.7064 H   0  0  0  0  0  0  0  0  0  0  0  0
  138.8980   67.6462  224.6972 H   0  0  0  0  0  0  0  0  0  0  0  0
  139.7513   67.4163  226.9109 H   0  0  0  0  0  0  0  0  0  0  0  0
  141.5499   70.8211  228.7951 H   0  0  0  0  0  0  0  0  0  0  0  0
  141.1361   72.2229  226.8005 H   0  0  0  0  0  0  0  0  0  0  0  0
  1  2  2  0
  2  3  1  0
  3  4  1  0
  4  5  1  0
  5  6  2  0
  5  7  1  0
  7  8  1  0
  8  9  1  0
  9 10  1  0
 10 11  1  0
 11 12  1  0
 12 13  1  0
 13 14  1  0
 14 15  1  0
 15 16  2  0
 16 17  1  0
 17 18  2  0
 18 19  1  0
 19 20  2  0
  2 21  1  0
 21 22  2  0
 22 23  1  0
 23 24  2  0
 24 25  1  0
 25 26  2  0
 26 27  1  0
 26 28  1  0
 28 29  2  0
 29 30  1  0
 30 31  2  0
 12  7  1  0
 20 15  1  0
 31 21  1  0
 30 24  1  0
  3 32  1  0
  4 33  1  0
  4 34  1  0
  8 35  1  0
  8 36  1  0
  9 37  1  0
  9 38  1  0
 10 39  1  0
 10 40  1  0
 11 41  1  0
 11 42  1  0
 12 43  1  1
 13 44  1  0
 13 45  1  0
 14 46  1  0
 16 47  1  0
 17 48  1  0
 18 49  1  0
 19 50  1  0
 22 51  1  0
 23 52  1  0
 25 53  1  0
 28 54  1  0
 29 55  1  0
M  END
>  <smiles>  (71) 
O=C(NCC(=O)N1CCCCC1CNc1ccccn1)c1ccc2cc(F)ccc2n1

>  <score_type>  (71) 
oracle

>  <origin>  (71) 
autodockgpu

>  <m_score__min__energy>  (71) 
-8.8000000000000007

>  <m_primary>  (71) 
energy

>  <rmsd>  (71) 
1.6016747037975931

>  <m_score__min__rmsd>  (71) 
1.6016747037975931

>  <meeko>  (71) 
{"free_energy": -8.02, "intermolecular_energy": -10.1, "internal_energy": -2.5, "cluster_size": 30, "cluster_id": 1, "rank_in_cluster": 19}

>  <energy>  (71) 
-7.98

>  <cluster_rmsd>  (71) 
1.17

>  <cluster>  (71) 
1

$$$$

     RDKit          3D

 55 58  0  0  0  0  0  0  0  0999 V2000
  137.2860   76.5220  221.0730 O   0  0  0  0  0  0  0  0  0  0  0  0
  138.2340   76.4250  221.9180 C   0  0  0  0  0  0  0  0  0  0  0  0
  138.6850   75.1700  222.4150 N   0  0  0  0  0  0  0  0  0  0  0  0
  138.0350   73.9560  221.9370 C   0  0  0  0  0  0  0  0  0  0  0  0
  139.0220   72.8680  222.0640 C   0  0  0  0  0  0  0  0  0  0  0  0
  140.2580   73.0670  222.2850 O   0  0  0  0  0  0  0  0  0  0  0  0
  138.6590   71.4740  221.9460 N   0  0  0  0  0  0  0  0  0  0  0  0
  138.9920   70.8560  220.6660 C   0  0  0  0  0  0  0  0  0  0  0  0
  138.1200   69.7350  220.2610 C   0  0  0  0  0  0  0  0  0  0  0  0
  137.2610   69.1060  221.2800 C   0  0  0  0  0  0  0  0  0  0  0  0
  136.9600   69.8810  222.5070 C   0  0  0  0  0  0  0  0  0  0  0  0
  138.0250   70.7890  223.0230 C   0  0  1  0  0  0  0  0  0  0  0  0
  138.9580   70.1160  223.9950 C   0  0  0  0  0  0  0  0  0  0  0  0
  140.1260   70.8540  224.3360 N   0  0  0  0  0  0  0  0  0  0  0  0
  140.4330   71.0430  225.7190 C   0  0  0  0  0  0  0  0  0  0  0  0
  140.0950   70.1140  226.6770 C   0  0  0  0  0  0  0  0  0  0  0  0
  140.3790   70.2710  228.0130 C   0  0  0  0  0  0  0  0  0  0  0  0
  141.0330   71.4070  228.4310 C   0  0  0  0  0  0  0  0  0  0  0  0
  141.3700   72.3340  227.4770 C   0  0  0  0  0  0  0  0  0  0  0  0
  141.0750   72.1500  226.1570 N   0  0  0  0  0  0  0  0  0  0  0  0
  138.8870   77.6430  222.3960 C   0  0  0  0  0  0  0  0  0  0  0  0
  138.1290   78.7410  222.7630 C   0  0  0  0  0  0  0  0  0  0  0  0
  138.6880   79.9190  223.2220 C   0  0  0  0  0  0  0  0  0  0  0  0
  140.0630   80.0000  223.3180 C   0  0  0  0  0  0  0  0  0  0  0  0
  140.6260   81.1750  223.7760 C   0  0  0  0  0  0  0  0  0  0  0  0
  142.0020   81.2450  223.8670 C   0  0  0  0  0  0  0  0  0  0  0  0
  142.5750   82.3940  224.3160 F   0  0  0  0  0  0  0  0  0  0  0  0
  142.7520   80.1460  223.4990 C   0  0  0  0  0  0  0  0  0  0  0  0
  142.1920   78.9700  223.0400 C   0  0  0  0  0  0  0  0  0  0  0  0
  140.8160   78.9000  222.9490 C   0  0  0  0  0  0  0  0  0  0  0  0
  140.2250   77.7620  222.5040 N   0  0  0  0  0  0  0  0  0  0  0  0
  139.4660   75.0910  223.1090 H   0  0  0  0  0  0  0  0  0  0  0  0
  137.1473   73.7356  222.5481 H   0  0  0  0  0  0  0  0  0  0  0  0
  137.7034   74.0693  220.8943 H   0  0  0  0  0  0  0  0  0  0  0  0
  138.9319   71.6316  219.8882 H   0  0  0  0  0  0  0  0  0  0  0  0
  139.9990   70.4301  220.7865 H   0  0  0  0  0  0  0  0  0  0  0  0
  137.4587   70.1095  219.4657 H   0  0  0  0  0  0  0  0  0  0  0  0
  138.8225   68.9388  219.9738 H   0  0  0  0  0  0  0  0  0  0  0  0
  136.3009   68.8691  220.7983 H   0  0  0  0  0  0  0  0  0  0  0  0
  137.8414   68.2416  221.6349 H   0  0  0  0  0  0  0  0  0  0  0  0
  136.0730   70.4974  222.2988 H   0  0  0  0  0  0  0  0  0  0  0  0
  136.8302   69.1234  223.2939 H   0  0  0  0  0  0  0  0  0  0  0  0
  137.5511   71.5666  223.6400 H   0  0  0  0  0  0  0  0  0  0  0  0
  138.3983   69.9206  224.9216 H   0  0  0  0  0  0  0  0  0  0  0  0
  139.3134   69.2055  223.4904 H   0  0  0  0  0  0  0  0  0  0  0  0
  140.7850   71.2730  223.6440 H   0  0  0  0  0  0  0  0  0  0  0  0
  139.5717   69.2007  226.3577 H   0  0  0  0  0  0  0  0  0  0  0  0
  140.0869   69.4978  228.7389 H   0  0  0  0  0  0  0  0  0  0  0  0
  141.2770   71.5664  229.4917 H   0  0  0  0  0  0  0  0  0  0  0  0
  141.8928   73.2516  227.7848 H   0  0  0  0  0  0  0  0  0  0  0  0
  137.0338   78.6735  222.6861 H   0  0  0  0  0  0  0  0  0  0  0  0
  138.0526   80.7715  223.5040 H   0  0  0  0  0  0  0  0  0  0  0  0
  139.9961   82.0308  224.0602 H   0  0  0  0  0  0  0  0  0  0  0  0
  143.8475   80.2100  223.5749 H   0  0  0  0  0  0  0  0  0  0  0  0
  142.8230   78.1151  222.7555 H   0  0  0  0  0  0  0  0  0  0  0  0
  1  2  2  0
  2  3  1  0
  3  4  1  0
  4  5  1  0
  5  6  2  0
  5  7  1  0
  7  8  1  0
  8  9  1  0
  9 10  1  0
 10 11  1  0
 11 12  1  0
 12 13  1  0
 13 14  1  0
 14 15  1  0
 15 16  2  0
 16 17  1  0
 17 18  2  0
 18 19  1  0
 19 20  2  0
  2 21  1  0
 21 22  2  0
 22 23  1  0
 23 24  2  0
 24 25  1  0
 25 26  2  0
 26 27  1  0
 26 28  1  0
 28 29  2  0
 29 30  1  0
 30 31  2  0
 12  7  1  0
 20 15  1  0
 31 21  1  0
 30 24  1  0
  3 32  1  0
  4 33  1  0
  4 34  1  0
  8 35  1  0
  8 36  1  0
  9 37  1  0
  9 38  1  0
 10 39  1  0
 10 40  1  0
 11 41  1  0
 11 42  1  0
 12 43  1  1
 13 44  1  0
 13 45  1  0
 14 46  1  0
 16 47  1  0
 17 48  1  0
 18 49  1  0
 19 50  1  0
 22 51  1  0
 23 52  1  0
 25 53  1  0
 28 54  1  0
 29 55  1  0
M  END
>  <smiles>  (72) 
O=C(NCC(=O)N1CCCCC1CNc1ccccn1)c1ccc2cc(F)ccc2n1

>  <score_type>  (72) 
oracle

>  <origin>  (72) 
autodockgpu

>  <m_score__min__energy>  (72) 
-8.8000000000000007

>  <m_primary>  (72) 
energy

>  <rmsd>  (72) 
9.267149016406904

>  <m_score__min__rmsd>  (72) 
9.267149016406904

>  <meeko>  (72) 
{"free_energy": -7.71, "intermolecular_energy": -9.79, "internal_energy": -2.32, "cluster_size": 3, "cluster_id": 3, "rank_in_cluster": 1}

>  <energy>  (72) 
-7.97

>  <cluster_rmsd>  (72) 
1.21

>  <cluster>  (72) 
1

$$$$

     RDKit          3D

 55 58  0  0  0  0  0  0  0  0999 V2000
  140.9320   72.1750  221.3900 O   0  0  0  0  0  0  0  0  0  0  0  0
  140.0100   72.3280  222.2560 C   0  0  0  0  0  0  0  0  0  0  0  0
  138.9740   73.2910  222.1020 N   0  0  0  0  0  0  0  0  0  0  0  0
  138.9710   74.1290  220.9100 C   0  0  0  0  0  0  0  0  0  0  0  0
  139.6360   75.3930  221.2780 C   0  0  0  0  0  0  0  0  0  0  0  0
  140.3400   75.5320  222.3280 O   0  0  0  0  0  0  0  0  0  0  0  0
  139.5420   76.5850  220.4660 N   0  0  0  0  0  0  0  0  0  0  0  0
  138.3720   77.4180  220.7270 C   0  0  0  0  0  0  0  0  0  0  0  0
  137.8950   78.2130  219.5770 C   0  0  0  0  0  0  0  0  0  0  0  0
  138.7950   78.3950  218.4240 C   0  0  0  0  0  0  0  0  0  0  0  0
  139.9090   77.4320  218.2550 C   0  0  0  0  0  0  0  0  0  0  0  0
  140.5380   76.8880  219.4930 C   0  0  1  0  0  0  0  0  0  0  0  0
  141.6880   77.7250  219.9900 C   0  0  0  0  0  0  0  0  0  0  0  0
  141.8160   77.8140  221.4040 N   0  0  0  0  0  0  0  0  0  0  0  0
  141.8170   79.1100  222.0080 C   0  0  0  0  0  0  0  0  0  0  0  0
  142.5510   79.3890  223.1390 C   0  0  0  0  0  0  0  0  0  0  0  0
  142.5700   80.6260  223.7380 C   0  0  0  0  0  0  0  0  0  0  0  0
  141.8260   81.6470  223.1950 C   0  0  0  0  0  0  0  0  0  0  0  0
  141.0940   81.3700  222.0670 C   0  0  0  0  0  0  0  0  0  0  0  0
  141.0940   80.1310  221.4940 N   0  0  0  0  0  0  0  0  0  0  0  0
  140.0120   71.4860  223.4520 C   0  0  0  0  0  0  0  0  0  0  0  0
  139.4820   70.2090  223.4040 C   0  0  0  0  0  0  0  0  0  0  0  0
  139.4550   69.3660  224.4990 C   0  0  0  0  0  0  0  0  0  0  0  0
  139.9830   69.8210  225.6910 C   0  0  0  0  0  0  0  0  0  0  0  0
  139.9580   68.9830  226.7880 C   0  0  0  0  0  0  0  0  0  0  0  0
  140.4880   69.4480  227.9750 C   0  0  0  0  0  0  0  0  0  0  0  0
  140.4730   68.6370  229.0670 F   0  0  0  0  0  0  0  0  0  0  0  0
  141.0160   70.7230  228.0150 C   0  0  0  0  0  0  0  0  0  0  0  0
  141.0410   71.5650  226.9200 C   0  0  0  0  0  0  0  0  0  0  0  0
  140.5110   71.0980  225.7330 C   0  0  0  0  0  0  0  0  0  0  0  0
  140.5170   71.8930  224.6320 N   0  0  0  0  0  0  0  0  0  0  0  0
  138.2150   73.4150  222.8150 H   0  0  0  0  0  0  0  0  0  0  0  0
  139.5220   73.6336  220.0971 H   0  0  0  0  0  0  0  0  0  0  0  0
  137.9452   74.3102  220.5567 H   0  0  0  0  0  0  0  0  0  0  0  0
  137.5514   76.7602  221.0494 H   0  0  0  0  0  0  0  0  0  0  0  0
  138.6803   78.1449  221.4929 H   0  0  0  0  0  0  0  0  0  0  0  0
  136.9824   77.7263  219.2025 H   0  0  0  0  0  0  0  0  0  0  0  0
  137.7721   79.2274  219.9844 H   0  0  0  0  0  0  0  0  0  0  0  0
  138.1774   78.3443  217.5151 H   0  0  0  0  0  0  0  0  0  0  0  0
  139.2900   79.3596  218.6100 H   0  0  0  0  0  0  0  0  0  0  0  0
  139.5231   76.5785  217.6783 H   0  0  0  0  0  0  0  0  0  0  0  0
  140.7069   78.0075  217.7629 H   0  0  0  0  0  0  0  0  0  0  0  0
  141.0213   75.9312  219.2461 H   0  0  0  0  0  0  0  0  0  0  0  0
  142.6181   77.2928  219.5923 H   0  0  0  0  0  0  0  0  0  0  0  0
  141.4889   78.7488  219.6403 H   0  0  0  0  0  0  0  0  0  0  0  0
  141.9100   76.9950  222.0440 H   0  0  0  0  0  0  0  0  0  0  0  0
  143.1515   78.5825  223.5850 H   0  0  0  0  0  0  0  0  0  0  0  0
  143.1736   80.7972  224.6415 H   0  0  0  0  0  0  0  0  0  0  0  0
  141.8176   82.6494  223.6480 H   0  0  0  0  0  0  0  0  0  0  0  0
  140.4904   82.1692  221.6121 H   0  0  0  0  0  0  0  0  0  0  0  0
  139.0637   69.8487  222.4526 H   0  0  0  0  0  0  0  0  0  0  0  0
  139.0234   68.3571  224.4227 H   0  0  0  0  0  0  0  0  0  0  0  0
  139.5278   67.9730  226.7182 H   0  0  0  0  0  0  0  0  0  0  0  0
  141.4370   71.0859  228.9643 H   0  0  0  0  0  0  0  0  0  0  0  0
  141.4695   72.5756  226.9912 H   0  0  0  0  0  0  0  0  0  0  0  0
  1  2  2  0
  2  3  1  0
  3  4  1  0
  4  5  1  0
  5  6  2  0
  5  7  1  0
  7  8  1  0
  8  9  1  0
  9 10  1  0
 10 11  1  0
 11 12  1  0
 12 13  1  0
 13 14  1  0
 14 15  1  0
 15 16  2  0
 16 17  1  0
 17 18  2  0
 18 19  1  0
 19 20  2  0
  2 21  1  0
 21 22  2  0
 22 23  1  0
 23 24  2  0
 24 25  1  0
 25 26  2  0
 26 27  1  0
 26 28  1  0
 28 29  2  0
 29 30  1  0
 30 31  2  0
 12  7  1  0
 20 15  1  0
 31 21  1  0
 30 24  1  0
  3 32  1  0
  4 33  1  0
  4 34  1  0
  8 35  1  0
  8 36  1  0
  9 37  1  0
  9 38  1  0
 10 39  1  0
 10 40  1  0
 11 41  1  0
 11 42  1  0
 12 43  1  6
 13 44  1  0
 13 45  1  0
 14 46  1  0
 16 47  1  0
 17 48  1  0
 18 49  1  0
 19 50  1  0
 22 51  1  0
 23 52  1  0
 25 53  1  0
 28 54  1  0
 29 55  1  0
M  END
>  <smiles>  (73) 
O=C(NCC(=O)N1CCCCC1CNc1ccccn1)c1ccc2cc(F)ccc2n1

>  <score_type>  (73) 
oracle

>  <origin>  (73) 
autodockgpu

>  <m_score__min__energy>  (73) 
-8.8000000000000007

>  <m_primary>  (73) 
energy

>  <rmsd>  (73) 
2.193096669527616

>  <m_score__min__rmsd>  (73) 
2.193096669527616

>  <meeko>  (73) 
{"free_energy": -8.29, "intermolecular_energy": -10.38, "internal_energy": -2.23, "cluster_size": 30, "cluster_id": 1, "rank_in_cluster": 9}

>  <energy>  (73) 
-7.97

>  <cluster_rmsd>  (73) 
1.04

>  <cluster>  (73) 
1

$$$$

     RDKit          3D

 55 58  0  0  0  0  0  0  0  0999 V2000
  139.8110   71.2360  221.0950 O   0  0  0  0  0  0  0  0  0  0  0  0
  139.7450   71.8300  222.2200 C   0  0  0  0  0  0  0  0  0  0  0  0
  139.6110   73.2430  222.3270 N   0  0  0  0  0  0  0  0  0  0  0  0
  139.5470   74.0330  221.1040 C   0  0  0  0  0  0  0  0  0  0  0  0
  139.6740   75.4470  221.5040 C   0  0  0  0  0  0  0  0  0  0  0  0
  139.6650   75.8340  222.7150 O   0  0  0  0  0  0  0  0  0  0  0  0
  139.8230   76.5150  220.5420 N   0  0  0  0  0  0  0  0  0  0  0  0
  138.9010   77.6340  220.7160 C   0  0  0  0  0  0  0  0  0  0  0  0
  138.5660   78.3720  219.4820 C   0  0  0  0  0  0  0  0  0  0  0  0
  139.4190   78.1840  218.2940 C   0  0  0  0  0  0  0  0  0  0  0  0
  140.2610   76.9670  218.2310 C   0  0  0  0  0  0  0  0  0  0  0  0
  140.8080   76.4440  219.5160 C   0  0  1  0  0  0  0  0  0  0  0  0
  142.1500   77.0310  219.8700 C   0  0  0  0  0  0  0  0  0  0  0  0
  142.1820   78.4470  220.0120 N   0  0  0  0  0  0  0  0  0  0  0  0
  141.9600   79.0070  221.3080 C   0  0  0  0  0  0  0  0  0  0  0  0
  142.1480   80.3460  221.5680 C   0  0  0  0  0  0  0  0  0  0  0  0
  141.9420   80.9100  222.8040 C   0  0  0  0  0  0  0  0  0  0  0  0
  141.5260   80.1130  223.8450 C   0  0  0  0  0  0  0  0  0  0  0  0
  141.3380   78.7770  223.5870 C   0  0  0  0  0  0  0  0  0  0  0  0
  141.5510   78.2450  222.3480 N   0  0  0  0  0  0  0  0  0  0  0  0
  139.8080   71.0370  223.4470 C   0  0  0  0  0  0  0  0  0  0  0  0
  139.3370   69.7370  223.4590 C   0  0  0  0  0  0  0  0  0  0  0  0
  139.3690   68.9380  224.5860 C   0  0  0  0  0  0  0  0  0  0  0  0
  139.8970   69.4640  225.7500 C   0  0  0  0  0  0  0  0  0  0  0  0
  139.9320   68.6690  226.8790 C   0  0  0  0  0  0  0  0  0  0  0  0
  140.4610   69.2050  228.0360 C   0  0  0  0  0  0  0  0  0  0  0  0
  140.5040   68.4390  229.1580 F   0  0  0  0  0  0  0  0  0  0  0  0
  140.9290   70.5040  228.0160 C   0  0  0  0  0  0  0  0  0  0  0  0
  140.8960   71.3020  226.8880 C   0  0  0  0  0  0  0  0  0  0  0  0
  140.3660   70.7640  225.7310 C   0  0  0  0  0  0  0  0  0  0  0  0
  140.3150   71.5140  224.6000 N   0  0  0  0  0  0  0  0  0  0  0  0
  139.5550   73.7310  223.2530 H   0  0  0  0  0  0  0  0  0  0  0  0
  140.3703   73.7546  220.4297 H   0  0  0  0  0  0  0  0  0  0  0  0
  138.6021   73.8571  220.5690 H   0  0  0  0  0  0  0  0  0  0  0  0
  137.9659   77.2411  221.1417 H   0  0  0  0  0  0  0  0  0  0  0  0
  139.4148   78.3530  221.3710 H   0  0  0  0  0  0  0  0  0  0  0  0
  137.5443   78.0806  219.1971 H   0  0  0  0  0  0  0  0  0  0  0  0
  138.7121   79.4281  219.7529 H   0  0  0  0  0  0  0  0  0  0  0  0
  138.7580   78.1709  217.4149 H   0  0  0  0  0  0  0  0  0  0  0  0
  140.1383   79.0152  218.3365 H   0  0  0  0  0  0  0  0  0  0  0  0
  139.6530   76.1680  217.7816 H   0  0  0  0  0  0  0  0  0  0  0  0
  141.1456   77.2666  217.6498 H   0  0  0  0  0  0  0  0  0  0  0  0
  141.0352   75.3752  219.3892 H   0  0  0  0  0  0  0  0  0  0  0  0
  142.4729   76.5875  220.8235 H   0  0  0  0  0  0  0  0  0  0  0  0
  142.8139   76.7975  219.0246 H   0  0  0  0  0  0  0  0  0  0  0  0
  142.3570   79.1170  219.2310 H   0  0  0  0  0  0  0  0  0  0  0  0
  142.4796   80.9966  220.7453 H   0  0  0  0  0  0  0  0  0  0  0  0
  142.1079   81.9863  222.9591 H   0  0  0  0  0  0  0  0  0  0  0  0
  141.3503   80.5303  224.8475 H   0  0  0  0  0  0  0  0  0  0  0  0
  141.0063   78.1169  224.4021 H   0  0  0  0  0  0  0  0  0  0  0  0
  138.9185   69.3206  222.5308 H   0  0  0  0  0  0  0  0  0  0  0  0
  138.9835   67.9081  224.5574 H   0  0  0  0  0  0  0  0  0  0  0  0
  139.5492   67.6380  226.8568 H   0  0  0  0  0  0  0  0  0  0  0  0
  141.3482   70.9238  228.9423 H   0  0  0  0  0  0  0  0  0  0  0  0
  141.2795   72.3327  226.9107 H   0  0  0  0  0  0  0  0  0  0  0  0
  1  2  2  0
  2  3  1  0
  3  4  1  0
  4  5  1  0
  5  6  2  0
  5  7  1  0
  7  8  1  0
  8  9  1  0
  9 10  1  0
 10 11  1  0
 11 12  1  0
 12 13  1  0
 13 14  1  0
 14 15  1  0
 15 16  2  0
 16 17  1  0
 17 18  2  0
 18 19  1  0
 19 20  2  0
  2 21  1  0
 21 22  2  0
 22 23  1  0
 23 24  2  0
 24 25  1  0
 25 26  2  0
 26 27  1  0
 26 28  1  0
 28 29  2  0
 29 30  1  0
 30 31  2  0
 12  7  1  0
 20 15  1  0
 31 21  1  0
 30 24  1  0
  3 32  1  0
  4 33  1  0
  4 34  1  0
  8 35  1  0
  8 36  1  0
  9 37  1  0
  9 38  1  0
 10 39  1  0
 10 40  1  0
 11 41  1  0
 11 42  1  0
 12 43  1  6
 13 44  1  0
 13 45  1  0
 14 46  1  0
 16 47  1  0
 17 48  1  0
 18 49  1  0
 19 50  1  0
 22 51  1  0
 23 52  1  0
 25 53  1  0
 28 54  1  0
 29 55  1  0
M  END
>  <smiles>  (74) 
O=C(NCC(=O)N1CCCCC1CNc1ccccn1)c1ccc2cc(F)ccc2n1

>  <score_type>  (74) 
oracle

>  <origin>  (74) 
autodockgpu

>  <m_score__min__energy>  (74) 
-8.8000000000000007

>  <m_primary>  (74) 
energy

>  <rmsd>  (74) 
2.2876635814776605

>  <m_score__min__rmsd>  (74) 
2.2876635814776605

>  <meeko>  (74) 
{"free_energy": -7.48, "intermolecular_energy": -9.57, "internal_energy": -2.42, "cluster_size": 30, "cluster_id": 1, "rank_in_cluster": 30}

>  <energy>  (74) 
-7.89

>  <cluster_rmsd>  (74) 
1.34

>  <cluster>  (74) 
1

$$$$

     RDKit          3D

 55 58  0  0  0  0  0  0  0  0999 V2000
  140.8840   71.4850  221.9460 O   0  0  0  0  0  0  0  0  0  0  0  0
  140.0560   71.7260  222.8840 C   0  0  0  0  0  0  0  0  0  0  0  0
  138.9220   72.5650  222.6990 N   0  0  0  0  0  0  0  0  0  0  0  0
  138.7040   73.1680  221.3900 C   0  0  0  0  0  0  0  0  0  0  0  0
  139.5730   74.3570  221.3190 C   0  0  0  0  0  0  0  0  0  0  0  0
  140.5800   74.5320  222.0750 O   0  0  0  0  0  0  0  0  0  0  0  0
  139.3470   75.4280  220.3760 N   0  0  0  0  0  0  0  0  0  0  0  0
  137.9950   75.9780  220.3790 C   0  0  0  0  0  0  0  0  0  0  0  0
  137.5440   76.5500  219.0940 C   0  0  0  0  0  0  0  0  0  0  0  0
  138.5540   76.8520  218.0640 C   0  0  0  0  0  0  0  0  0  0  0  0
  139.8650   76.1700  218.1580 C   0  0  0  0  0  0  0  0  0  0  0  0
  140.3940   75.8840  219.5230 C   0  0  1  0  0  0  0  0  0  0  0  0
  141.2340   77.0050  220.0790 C   0  0  0  0  0  0  0  0  0  0  0  0
  141.4690   76.9570  221.4820 N   0  0  0  0  0  0  0  0  0  0  0  0
  141.2760   78.1500  222.2460 C   0  0  0  0  0  0  0  0  0  0  0  0
  140.0660   78.4600  222.8250 C   0  0  0  0  0  0  0  0  0  0  0  0
  139.8540   79.5990  223.5640 C   0  0  0  0  0  0  0  0  0  0  0  0
  140.8900   80.4850  223.7460 C   0  0  0  0  0  0  0  0  0  0  0  0
  142.0980   80.1770  223.1680 C   0  0  0  0  0  0  0  0  0  0  0  0
  142.2780   79.0370  222.4390 N   0  0  0  0  0  0  0  0  0  0  0  0
  140.2740   71.1210  224.1970 C   0  0  0  0  0  0  0  0  0  0  0  0
  140.7870   71.8770  225.2360 C   0  0  0  0  0  0  0  0  0  0  0  0
  141.0140   71.3620  226.4970 C   0  0  0  0  0  0  0  0  0  0  0  0
  140.7150   70.0340  226.7290 C   0  0  0  0  0  0  0  0  0  0  0  0
  140.9410   69.5150  227.9890 C   0  0  0  0  0  0  0  0  0  0  0  0
  140.6380   68.1860  228.2090 C   0  0  0  0  0  0  0  0  0  0  0  0
  140.8530   67.6560  229.4420 F   0  0  0  0  0  0  0  0  0  0  0  0
  140.1260   67.4370  227.1670 C   0  0  0  0  0  0  0  0  0  0  0  0
  139.9000   67.9530  225.9060 C   0  0  0  0  0  0  0  0  0  0  0  0
  140.2030   69.2830  225.6880 C   0  0  0  0  0  0  0  0  0  0  0  0
  139.9950   69.8300  224.4620 N   0  0  0  0  0  0  0  0  0  0  0  0
  138.2400   72.7620  223.4710 H   0  0  0  0  0  0  0  0  0  0  0  0
  138.9712   72.4556  220.5956 H   0  0  0  0  0  0  0  0  0  0  0  0
  137.6476   73.4422  221.2526 H   0  0  0  0  0  0  0  0  0  0  0  0
  137.3002   75.1708  220.6543 H   0  0  0  0  0  0  0  0  0  0  0  0
  138.0072   76.8122  221.0960 H   0  0  0  0  0  0  0  0  0  0  0  0
  136.8338   75.8355  218.6523 H   0  0  0  0  0  0  0  0  0  0  0  0
  137.1358   77.5344  219.3667 H   0  0  0  0  0  0  0  0  0  0  0  0
  138.1169   76.5887  217.0895 H   0  0  0  0  0  0  0  0  0  0  0  0
  138.7863   77.9173  218.2095 H   0  0  0  0  0  0  0  0  0  0  0  0
  139.7753   75.2087  217.6309 H   0  0  0  0  0  0  0  0  0  0  0  0
  140.5831   76.8797  217.7212 H   0  0  0  0  0  0  0  0  0  0  0  0
  141.1116   75.0533  219.4525 H   0  0  0  0  0  0  0  0  0  0  0  0
  142.2094   76.9816  219.5710 H   0  0  0  0  0  0  0  0  0  0  0  0
  140.6627   77.9278  219.8999 H   0  0  0  0  0  0  0  0  0  0  0  0
  141.7750   76.1070  222.0040 H   0  0  0  0  0  0  0  0  0  0  0  0
  139.2273   77.7613  222.6893 H   0  0  0  0  0  0  0  0  0  0  0  0
  138.8666   79.7999  224.0051 H   0  0  0  0  0  0  0  0  0  0  0  0
  140.7566   81.4060  224.3325 H   0  0  0  0  0  0  0  0  0  0  0  0
  142.9438   80.8685  223.2964 H   0  0  0  0  0  0  0  0  0  0  0  0
  141.0245   72.9347  225.0494 H   0  0  0  0  0  0  0  0  0  0  0  0
  141.4235   71.9949  227.2981 H   0  0  0  0  0  0  0  0  0  0  0  0
  141.3507   70.1426  228.7942 H   0  0  0  0  0  0  0  0  0  0  0  0
  139.8870   66.3791  227.3505 H   0  0  0  0  0  0  0  0  0  0  0  0
  139.4916   67.3248  225.1007 H   0  0  0  0  0  0  0  0  0  0  0  0
  1  2  2  0
  2  3  1  0
  3  4  1  0
  4  5  1  0
  5  6  2  0
  5  7  1  0
  7  8  1  0
  8  9  1  0
  9 10  1  0
 10 11  1  0
 11 12  1  0
 12 13  1  0
 13 14  1  0
 14 15  1  0
 15 16  2  0
 16 17  1  0
 17 18  2  0
 18 19  1  0
 19 20  2  0
  2 21  1  0
 21 22  2  0
 22 23  1  0
 23 24  2  0
 24 25  1  0
 25 26  2  0
 26 27  1  0
 26 28  1  0
 28 29  2  0
 29 30  1  0
 30 31  2  0
 12  7  1  0
 20 15  1  0
 31 21  1  0
 30 24  1  0
  3 32  1  0
  4 33  1  0
  4 34  1  0
  8 35  1  0
  8 36  1  0
  9 37  1  0
  9 38  1  0
 10 39  1  0
 10 40  1  0
 11 41  1  0
 11 42  1  0
 12 43  1  6
 13 44  1  0
 13 45  1  0
 14 46  1  0
 16 47  1  0
 17 48  1  0
 18 49  1  0
 19 50  1  0
 22 51  1  0
 23 52  1  0
 25 53  1  0
 28 54  1  0
 29 55  1  0
M  END
>  <smiles>  (75) 
O=C(NCC(=O)N1CCCCC1CNc1ccccn1)c1ccc2cc(F)ccc2n1

>  <score_type>  (75) 
oracle

>  <origin>  (75) 
autodockgpu

>  <m_score__min__energy>  (75) 
-8.8000000000000007

>  <m_primary>  (75) 
energy

>  <rmsd>  (75) 
2.9605196446666935

>  <m_score__min__rmsd>  (75) 
2.9605196446666935

>  <meeko>  (75) 
{"free_energy": -7.98, "intermolecular_energy": -10.06, "internal_energy": -2.09, "cluster_size": 30, "cluster_id": 1, "rank_in_cluster": 21}

>  <energy>  (75) 
-7.83

>  <cluster_rmsd>  (75) 
1.08

>  <cluster>  (75) 
1

$$$$

     RDKit          3D

 55 58  0  0  0  0  0  0  0  0999 V2000
  141.0280   72.1650  221.4690 O   0  0  0  0  0  0  0  0  0  0  0  0
  140.1660   72.3890  222.3790 C   0  0  0  0  0  0  0  0  0  0  0  0
  139.2360   73.4630  222.2980 N   0  0  0  0  0  0  0  0  0  0  0  0
  139.2760   74.3340  221.1300 C   0  0  0  0  0  0  0  0  0  0  0  0
  140.5130   75.1290  221.2340 C   0  0  0  0  0  0  0  0  0  0  0  0
  140.9870   75.5440  222.3390 O   0  0  0  0  0  0  0  0  0  0  0  0
  141.2950   75.5050  220.0770 N   0  0  0  0  0  0  0  0  0  0  0  0
  141.1610   74.6150  218.9280 C   0  0  0  0  0  0  0  0  0  0  0  0
  142.3380   74.5550  218.0370 C   0  0  0  0  0  0  0  0  0  0  0  0
  143.3600   75.6110  218.1480 C   0  0  0  0  0  0  0  0  0  0  0  0
  143.4130   76.3960  219.4030 C   0  0  0  0  0  0  0  0  0  0  0  0
  142.1220   76.6650  220.0990 C   0  0  1  0  0  0  0  0  0  0  0  0
  141.4570   77.9370  219.6420 C   0  0  0  0  0  0  0  0  0  0  0  0
  140.6420   78.5860  220.6120 N   0  0  0  0  0  0  0  0  0  0  0  0
  141.2700   79.1310  221.7750 C   0  0  0  0  0  0  0  0  0  0  0  0
  141.9670   80.3170  221.7420 C   0  0  0  0  0  0  0  0  0  0  0  0
  142.5790   80.8630  222.8450 C   0  0  0  0  0  0  0  0  0  0  0  0
  142.5000   80.2060  224.0500 C   0  0  0  0  0  0  0  0  0  0  0  0
  141.8040   79.0230  224.0850 C   0  0  0  0  0  0  0  0  0  0  0  0
  141.2070   78.5050  222.9730 N   0  0  0  0  0  0  0  0  0  0  0  0
  140.1260   71.5150  223.5500 C   0  0  0  0  0  0  0  0  0  0  0  0
  139.5780   70.2480  223.4540 C   0  0  0  0  0  0  0  0  0  0  0  0
  139.5110   69.3760  224.5240 C   0  0  0  0  0  0  0  0  0  0  0  0
  140.0150   69.7900  225.7420 C   0  0  0  0  0  0  0  0  0  0  0  0
  139.9510   68.9220  226.8140 C   0  0  0  0  0  0  0  0  0  0  0  0
  140.4570   69.3470  228.0260 C   0  0  0  0  0  0  0  0  0  0  0  0
  140.4030   68.5070  229.0940 F   0  0  0  0  0  0  0  0  0  0  0  0
  141.0020   70.6120  228.1150 C   0  0  0  0  0  0  0  0  0  0  0  0
  141.0680   71.4830  227.0440 C   0  0  0  0  0  0  0  0  0  0  0  0
  140.5610   71.0570  225.8320 C   0  0  0  0  0  0  0  0  0  0  0  0
  140.6070   71.8810  224.7540 N   0  0  0  0  0  0  0  0  0  0  0  0
  138.5260   73.6470  223.0470 H   0  0  0  0  0  0  0  0  0  0  0  0
  139.2887   73.7324  220.2092 H   0  0  0  0  0  0  0  0  0  0  0  0
  138.3902   74.9851  221.0926 H   0  0  0  0  0  0  0  0  0  0  0  0
  140.9676   73.5998  219.3048 H   0  0  0  0  0  0  0  0  0  0  0  0
  140.3394   75.0228  218.3207 H   0  0  0  0  0  0  0  0  0  0  0  0
  142.8408   73.5955  218.2278 H   0  0  0  0  0  0  0  0  0  0  0  0
  141.9192   74.6913  217.0290 H   0  0  0  0  0  0  0  0  0  0  0  0
  144.3416   75.1314  218.0201 H   0  0  0  0  0  0  0  0  0  0  0  0
  143.0836   76.3441  217.3759 H   0  0  0  0  0  0  0  0  0  0  0  0
  144.0596   75.8507  220.1062 H   0  0  0  0  0  0  0  0  0  0  0  0
  143.7809   77.3872  219.0995 H   0  0  0  0  0  0  0  0  0  0  0  0
  142.3327   76.8677  221.1594 H   0  0  0  0  0  0  0  0  0  0  0  0
  142.2454   78.6406  219.3366 H   0  0  0  0  0  0  0  0  0  0  0  0
  140.7802   77.6468  218.8249 H   0  0  0  0  0  0  0  0  0  0  0  0
  139.6070   78.6960  220.5390 H   0  0  0  0  0  0  0  0  0  0  0  0
  142.0379   80.8550  220.7852 H   0  0  0  0  0  0  0  0  0  0  0  0
  143.1254   81.8143  222.7645 H   0  0  0  0  0  0  0  0  0  0  0  0
  142.9772   80.6134  224.9535 H   0  0  0  0  0  0  0  0  0  0  0  0
  141.7255   78.4773  225.0369 H   0  0  0  0  0  0  0  0  0  0  0  0
  139.1780   69.9204  222.4831 H   0  0  0  0  0  0  0  0  0  0  0  0
  139.0670   68.3762  224.4087 H   0  0  0  0  0  0  0  0  0  0  0  0
  139.5094   67.9204  226.7053 H   0  0  0  0  0  0  0  0  0  0  0  0
  141.4029   70.9426  229.0845 H   0  0  0  0  0  0  0  0  0  0  0  0
  141.5104   72.4841  227.1535 H   0  0  0  0  0  0  0  0  0  0  0  0
  1  2  2  0
  2  3  1  0
  3  4  1  0
  4  5  1  0
  5  6  2  0
  5  7  1  0
  7  8  1  0
  8  9  1  0
  9 10  1  0
 10 11  1  0
 11 12  1  0
 12 13  1  0
 13 14  1  0
 14 15  1  0
 15 16  2  0
 16 17  1  0
 17 18  2  0
 18 19  1  0
 19 20  2  0
  2 21  1  0
 21 22  2  0
 22 23  1  0
 23 24  2  0
 24 25  1  0
 25 26  2  0
 26 27  1  0
 26 28  1  0
 28 29  2  0
 29 30  1  0
 30 31  2  0
 12  7  1  0
 20 15  1  0
 31 21  1  0
 30 24  1  0
  3 32  1  0
  4 33  1  0
  4 34  1  0
  8 35  1  0
  8 36  1  0
  9 37  1  0
  9 38  1  0
 10 39  1  0
 10 40  1  0
 11 41  1  0
 11 42  1  0
 12 43  1  1
 13 44  1  0
 13 45  1  0
 14 46  1  0
 16 47  1  0
 17 48  1  0
 18 49  1  0
 19 50  1  0
 22 51  1  0
 23 52  1  0
 25 53  1  0
 28 54  1  0
 29 55  1  0
M  END
>  <smiles>  (76) 
O=C(NCC(=O)N1CCCCC1CNc1ccccn1)c1ccc2cc(F)ccc2n1

>  <score_type>  (76) 
oracle

>  <origin>  (76) 
autodockgpu

>  <m_score__min__energy>  (76) 
-8.8000000000000007

>  <m_primary>  (76) 
energy

>  <rmsd>  (76) 
2.3040780241199843

>  <m_score__min__rmsd>  (76) 
2.3040780241199843

>  <meeko>  (76) 
{"free_energy": -8.6, "intermolecular_energy": -10.69, "internal_energy": -1.64, "cluster_size": 30, "cluster_id": 1, "rank_in_cluster": 2}

>  <energy>  (76) 
-7.82

>  <cluster_rmsd>  (76) 
1.05

>  <cluster>  (76) 
1

$$$$

     RDKit          3D

 55 58  0  0  0  0  0  0  0  0999 V2000
  138.2720   70.2890  221.7980 O   0  0  0  0  0  0  0  0  0  0  0  0
  138.8590   70.8920  222.7550 C   0  0  0  0  0  0  0  0  0  0  0  0
  139.1480   72.2840  222.7120 N   0  0  0  0  0  0  0  0  0  0  0  0
  138.7580   73.0430  221.5300 C   0  0  0  0  0  0  0  0  0  0  0  0
  139.5930   74.2580  221.5100 C   0  0  0  0  0  0  0  0  0  0  0  0
  139.4290   75.2320  222.3110 O   0  0  0  0  0  0  0  0  0  0  0  0
  140.6750   74.4420  220.5690 N   0  0  0  0  0  0  0  0  0  0  0  0
  140.4860   73.7890  219.2770 C   0  0  0  0  0  0  0  0  0  0  0  0
  141.7290   73.3980  218.5820 C   0  0  0  0  0  0  0  0  0  0  0  0
  143.0030   73.9890  219.0280 C   0  0  0  0  0  0  0  0  0  0  0  0
  143.0600   74.5640  220.3920 C   0  0  0  0  0  0  0  0  0  0  0  0
  141.8230   75.2100  220.9170 C   0  0  1  0  0  0  0  0  0  0  0  0
  141.7380   76.6790  220.5890 C   0  0  0  0  0  0  0  0  0  0  0  0
  140.8890   77.4470  221.4340 N   0  0  0  0  0  0  0  0  0  0  0  0
  141.4370   78.5960  222.0860 C   0  0  0  0  0  0  0  0  0  0  0  0
  141.6480   78.6330  223.4460 C   0  0  0  0  0  0  0  0  0  0  0  0
  142.1730   79.7230  224.0970 C   0  0  0  0  0  0  0  0  0  0  0  0
  142.5110   80.8410  223.3710 C   0  0  0  0  0  0  0  0  0  0  0  0
  142.3010   80.8050  222.0150 C   0  0  0  0  0  0  0  0  0  0  0  0
  141.7770   79.7080  221.3950 N   0  0  0  0  0  0  0  0  0  0  0  0
  139.2480   70.1310  223.9410 C   0  0  0  0  0  0  0  0  0  0  0  0
  139.0290   68.7670  223.9970 C   0  0  0  0  0  0  0  0  0  0  0  0
  139.3740   67.9940  225.0890 C   0  0  0  0  0  0  0  0  0  0  0  0
  139.9670   68.6150  226.1710 C   0  0  0  0  0  0  0  0  0  0  0  0
  140.3140   67.8480  227.2660 C   0  0  0  0  0  0  0  0  0  0  0  0
  140.9050   68.4790  228.3420 C   0  0  0  0  0  0  0  0  0  0  0  0
  141.2550   67.7400  229.4290 F   0  0  0  0  0  0  0  0  0  0  0  0
  141.1220   69.8410  228.2800 C   0  0  0  0  0  0  0  0  0  0  0  0
  140.7750   70.6120  227.1870 C   0  0  0  0  0  0  0  0  0  0  0  0
  140.1840   69.9790  226.1110 C   0  0  0  0  0  0  0  0  0  0  0  0
  139.8280   70.7000  225.0160 N   0  0  0  0  0  0  0  0  0  0  0  0
  139.6290   72.7800  223.5000 H   0  0  0  0  0  0  0  0  0  0  0  0
  138.9342   72.4473  220.6222 H   0  0  0  0  0  0  0  0  0  0  0  0
  137.6887   73.2991  221.5602 H   0  0  0  0  0  0  0  0  0  0  0  0
  139.8868   72.8809  219.4391 H   0  0  0  0  0  0  0  0  0  0  0  0
  139.9946   74.5301  218.6295 H   0  0  0  0  0  0  0  0  0  0  0  0
  141.8259   72.3067  218.6805 H   0  0  0  0  0  0  0  0  0  0  0  0
  141.5976   73.7843  217.5605 H   0  0  0  0  0  0  0  0  0  0  0  0
  143.7673   73.1999  218.9729 H   0  0  0  0  0  0  0  0  0  0  0  0
  143.1575   74.8487  218.3594 H   0  0  0  0  0  0  0  0  0  0  0  0
  143.3254   73.7498  221.0824 H   0  0  0  0  0  0  0  0  0  0  0  0
  143.7952   75.3793  220.3229 H   0  0  0  0  0  0  0  0  0  0  0  0
  141.8672   75.2073  222.0161 H   0  0  0  0  0  0  0  0  0  0  0  0
  142.7521   77.1001  220.6544 H   0  0  0  0  0  0  0  0  0  0  0  0
  141.2972   76.7389  219.5830 H   0  0  0  0  0  0  0  0  0  0  0  0
  139.8840   77.2350  221.6160 H   0  0  0  0  0  0  0  0  0  0  0  0
  141.3832   77.7463  224.0406 H   0  0  0  0  0  0  0  0  0  0  0  0
  142.3213   79.7017  225.1867 H   0  0  0  0  0  0  0  0  0  0  0  0
  142.9341   81.7314  223.8590 H   0  0  0  0  0  0  0  0  0  0  0  0
  142.5627   81.6860  221.4105 H   0  0  0  0  0  0  0  0  0  0  0  0
  138.5588   68.2748  223.1329 H   0  0  0  0  0  0  0  0  0  0  0  0
  139.1812   66.9111  225.0966 H   0  0  0  0  0  0  0  0  0  0  0  0
  140.1246   66.7645  227.2802 H   0  0  0  0  0  0  0  0  0  0  0  0
  141.5936   70.3360  229.1417 H   0  0  0  0  0  0  0  0  0  0  0  0
  140.9635   71.6957  227.1743 H   0  0  0  0  0  0  0  0  0  0  0  0
  1  2  2  0
  2  3  1  0
  3  4  1  0
  4  5  1  0
  5  6  2  0
  5  7  1  0
  7  8  1  0
  8  9  1  0
  9 10  1  0
 10 11  1  0
 11 12  1  0
 12 13  1  0
 13 14  1  0
 14 15  1  0
 15 16  2  0
 16 17  1  0
 17 18  2  0
 18 19  1  0
 19 20  2  0
  2 21  1  0
 21 22  2  0
 22 23  1  0
 23 24  2  0
 24 25  1  0
 25 26  2  0
 26 27  1  0
 26 28  1  0
 28 29  2  0
 29 30  1  0
 30 31  2  0
 12  7  1  0
 20 15  1  0
 31 21  1  0
 30 24  1  0
  3 32  1  0
  4 33  1  0
  4 34  1  0
  8 35  1  0
  8 36  1  0
  9 37  1  0
  9 38  1  0
 10 39  1  0
 10 40  1  0
 11 41  1  0
 11 42  1  0
 12 43  1  1
 13 44  1  0
 13 45  1  0
 14 46  1  0
 16 47  1  0
 17 48  1  0
 18 49  1  0
 19 50  1  0
 22 51  1  0
 23 52  1  0
 25 53  1  0
 28 54  1  0
 29 55  1  0
M  END
>  <smiles>  (77) 
O=C(NCC(=O)N1CCCCC1CNc1ccccn1)c1ccc2cc(F)ccc2n1

>  <score_type>  (77) 
oracle

>  <origin>  (77) 
autodockgpu

>  <m_score__min__energy>  (77) 
-8.8000000000000007

>  <m_primary>  (77) 
energy

>  <rmsd>  (77) 
2.4165198851673617

>  <m_score__min__rmsd>  (77) 
2.4165198851673617

>  <meeko>  (77) 
{"free_energy": -8.04, "intermolecular_energy": -10.13, "internal_energy": -2.22, "cluster_size": 30, "cluster_id": 1, "rank_in_cluster": 15}

>  <energy>  (77) 
-7.71

>  <cluster_rmsd>  (77) 
1.0

>  <cluster>  (77) 
1

$$$$

     RDKit          3D

 55 58  0  0  0  0  0  0  0  0999 V2000
  139.0870   75.2260  222.7020 O   0  0  0  0  0  0  0  0  0  0  0  0
  139.8280   75.5110  221.7060 C   0  0  0  0  0  0  0  0  0  0  0  0
  139.5950   76.6510  220.8870 N   0  0  0  0  0  0  0  0  0  0  0  0
  138.4670   77.5180  221.2010 C   0  0  0  0  0  0  0  0  0  0  0  0
  139.0290   78.7560  221.7740 C   0  0  0  0  0  0  0  0  0  0  0  0
  138.3170   79.7500  222.1240 O   0  0  0  0  0  0  0  0  0  0  0  0
  140.4470   78.9400  221.9850 N   0  0  0  0  0  0  0  0  0  0  0  0
  141.0080   78.1800  223.0980 C   0  0  0  0  0  0  0  0  0  0  0  0
  142.1930   78.7850  223.7400 C   0  0  0  0  0  0  0  0  0  0  0  0
  142.9140   79.8530  223.0240 C   0  0  0  0  0  0  0  0  0  0  0  0
  142.1930   80.5790  221.9540 C   0  0  0  0  0  0  0  0  0  0  0  0
  141.2050   79.8070  221.1460 C   0  0  1  0  0  0  0  0  0  0  0  0
  141.8130   79.1570  219.9300 C   0  0  0  0  0  0  0  0  0  0  0  0
  142.1450   77.7810  220.0720 N   0  0  0  0  0  0  0  0  0  0  0  0
  142.2320   76.9750  218.8940 C   0  0  0  0  0  0  0  0  0  0  0  0
  143.3260   77.0160  218.0590 C   0  0  0  0  0  0  0  0  0  0  0  0
  143.4350   76.2530  216.9220 C   0  0  0  0  0  0  0  0  0  0  0  0
  142.4100   75.3990  216.5860 C   0  0  0  0  0  0  0  0  0  0  0  0
  141.3180   75.3570  217.4170 C   0  0  0  0  0  0  0  0  0  0  0  0
  141.2380   76.1280  218.5410 N   0  0  0  0  0  0  0  0  0  0  0  0
  140.9610   74.6410  221.3910 C   0  0  0  0  0  0  0  0  0  0  0  0
  140.8120   73.2660  221.4200 C   0  0  0  0  0  0  0  0  0  0  0  0
  141.8430   72.3930  221.1330 C   0  0  0  0  0  0  0  0  0  0  0  0
  143.0760   72.9200  220.8010 C   0  0  0  0  0  0  0  0  0  0  0  0
  144.1110   72.0510  220.5120 C   0  0  0  0  0  0  0  0  0  0  0  0
  145.3390   72.5890  220.1820 C   0  0  0  0  0  0  0  0  0  0  0  0
  146.3700   71.7500  219.8950 F   0  0  0  0  0  0  0  0  0  0  0  0
  145.4800   73.9620  220.1550 C   0  0  0  0  0  0  0  0  0  0  0  0
  144.4480   74.8330  220.4440 C   0  0  0  0  0  0  0  0  0  0  0  0
  143.2200   74.2940  220.7730 C   0  0  0  0  0  0  0  0  0  0  0  0
  142.1780   75.1160  221.0630 N   0  0  0  0  0  0  0  0  0  0  0  0
  140.2070   76.8860  220.0680 H   0  0  0  0  0  0  0  0  0  0  0  0
  137.8993   77.7471  220.2871 H   0  0  0  0  0  0  0  0  0  0  0  0
  137.7796   77.0315  221.9087 H   0  0  0  0  0  0  0  0  0  0  0  0
  140.2256   78.0699  223.8633 H   0  0  0  0  0  0  0  0  0  0  0  0
  141.3463   77.2231  222.6739 H   0  0  0  0  0  0  0  0  0  0  0  0
  141.8622   79.2050  224.7014 H   0  0  0  0  0  0  0  0  0  0  0  0
  142.9192   77.9606  223.7948 H   0  0  0  0  0  0  0  0  0  0  0  0
  143.2249   80.5968  223.7723 H   0  0  0  0  0  0  0  0  0  0  0  0
  143.7305   79.3324  222.5021 H   0  0  0  0  0  0  0  0  0  0  0  0
  141.6530   81.4125  222.4269 H   0  0  0  0  0  0  0  0  0  0  0  0
  142.9743   80.8724  221.2375 H   0  0  0  0  0  0  0  0  0  0  0  0
  140.4835   80.5128  220.7087 H   0  0  0  0  0  0  0  0  0  0  0  0
  141.0946   79.2485  219.1020 H   0  0  0  0  0  0  0  0  0  0  0  0
  142.7641   79.6801  219.7520 H   0  0  0  0  0  0  0  0  0  0  0  0
  142.3330   77.3070  220.9830 H   0  0  0  0  0  0  0  0  0  0  0  0
  144.1539   77.6935  218.3152 H   0  0  0  0  0  0  0  0  0  0  0  0
  144.3310   76.3239  216.2878 H   0  0  0  0  0  0  0  0  0  0  0  0
  142.4635   74.7722  215.6837 H   0  0  0  0  0  0  0  0  0  0  0  0
  140.4841   74.6833  217.1704 H   0  0  0  0  0  0  0  0  0  0  0  0
  139.8286   72.8494  221.6834 H   0  0  0  0  0  0  0  0  0  0  0  0
  141.6862   71.3048  221.1679 H   0  0  0  0  0  0  0  0  0  0  0  0
  143.9607   70.9618  220.5439 H   0  0  0  0  0  0  0  0  0  0  0  0
  146.4615   74.3825  219.8906 H   0  0  0  0  0  0  0  0  0  0  0  0
  144.5995   75.9221  220.4131 H   0  0  0  0  0  0  0  0  0  0  0  0
  1  2  2  0
  2  3  1  0
  3  4  1  0
  4  5  1  0
  5  6  2  0
  5  7  1  0
  7  8  1  0
  8  9  1  0
  9 10  1  0
 10 11  1  0
 11 12  1  0
 12 13  1  0
 13 14  1  0
 14 15  1  0
 15 16  2  0
 16 17  1  0
 17 18  2  0
 18 19  1  0
 19 20  2  0
  2 21  1  0
 21 22  2  0
 22 23  1  0
 23 24  2  0
 24 25  1  0
 25 26  2  0
 26 27  1  0
 26 28  1  0
 28 29  2  0
 29 30  1  0
 30 31  2  0
 12  7  1  0
 20 15  1  0
 31 21  1  0
 30 24  1  0
  3 32  1  0
  4 33  1  0
  4 34  1  0
  8 35  1  0
  8 36  1  0
  9 37  1  0
  9 38  1  0
 10 39  1  0
 10 40  1  0
 11 41  1  0
 11 42  1  0
 12 43  1  6
 13 44  1  0
 13 45  1  0
 14 46  1  0
 16 47  1  0
 17 48  1  0
 18 49  1  0
 19 50  1  0
 22 51  1  0
 23 52  1  0
 25 53  1  0
 28 54  1  0
 29 55  1  0
M  END
>  <smiles>  (78) 
O=C(NCC(=O)N1CCCCC1CNc1ccccn1)c1ccc2cc(F)ccc2n1

>  <score_type>  (78) 
oracle

>  <origin>  (78) 
autodockgpu

>  <m_score__min__energy>  (78) 
-8.8000000000000007

>  <m_primary>  (78) 
energy

>  <rmsd>  (78) 
6.376473256831202

>  <m_score__min__rmsd>  (78) 
6.376473256831202

>  <meeko>  (78) 
{"free_energy": -6.0, "intermolecular_energy": -8.09, "internal_energy": -4.25, "cluster_size": 2, "cluster_id": 5, "rank_in_cluster": 2}

>  <energy>  (78) 
-7.7

>  <cluster_rmsd>  (78) 
1.18

>  <cluster>  (78) 
1

$$$$

     RDKit          3D

 55 58  0  0  0  0  0  0  0  0999 V2000
  136.9980   76.2370  222.1210 O   0  0  0  0  0  0  0  0  0  0  0  0
  138.2670   76.2630  222.2290 C   0  0  0  0  0  0  0  0  0  0  0  0
  139.0750   75.1190  221.9770 N   0  0  0  0  0  0  0  0  0  0  0  0
  138.4240   73.8770  221.5830 C   0  0  0  0  0  0  0  0  0  0  0  0
  139.3500   72.7830  221.9270 C   0  0  0  0  0  0  0  0  0  0  0  0
  140.5280   72.9770  222.3650 O   0  0  0  0  0  0  0  0  0  0  0  0
  138.9910   71.3890  221.7920 N   0  0  0  0  0  0  0  0  0  0  0  0
  139.3560   70.7790  220.5180 C   0  0  0  0  0  0  0  0  0  0  0  0
  138.4940   69.6600  220.0850 C   0  0  0  0  0  0  0  0  0  0  0  0
  137.6090   69.0260  221.0790 C   0  0  0  0  0  0  0  0  0  0  0  0
  137.2780   69.7940  222.3010 C   0  0  0  0  0  0  0  0  0  0  0  0
  138.3290   70.7000  222.8490 C   0  0  1  0  0  0  0  0  0  0  0  0
  139.2370   70.0210  223.8410 C   0  0  0  0  0  0  0  0  0  0  0  0
  140.3780   70.7710  224.2420 N   0  0  0  0  0  0  0  0  0  0  0  0
  140.6210   70.9460  225.6400 C   0  0  0  0  0  0  0  0  0  0  0  0
  140.3320   69.9650  226.5620 C   0  0  0  0  0  0  0  0  0  0  0  0
  140.5570   70.1080  227.9100 C   0  0  0  0  0  0  0  0  0  0  0  0
  141.0970   71.2820  228.3800 C   0  0  0  0  0  0  0  0  0  0  0  0
  141.3860   72.2620  227.4620 C   0  0  0  0  0  0  0  0  0  0  0  0
  141.1510   72.0910  226.1280 N   0  0  0  0  0  0  0  0  0  0  0  0
  138.9210   77.5100  222.6230 C   0  0  0  0  0  0  0  0  0  0  0  0
  138.1640   78.6260  222.9310 C   0  0  0  0  0  0  0  0  0  0  0  0
  138.7230   79.8320  223.3100 C   0  0  0  0  0  0  0  0  0  0  0  0
  140.0990   79.9230  223.3850 C   0  0  0  0  0  0  0  0  0  0  0  0
  140.6630   81.1250  223.7630 C   0  0  0  0  0  0  0  0  0  0  0  0
  142.0390   81.2050  223.8330 C   0  0  0  0  0  0  0  0  0  0  0  0
  142.6130   82.3810  224.2040 F   0  0  0  0  0  0  0  0  0  0  0  0
  142.7890   80.0880  223.5250 C   0  0  0  0  0  0  0  0  0  0  0  0
  142.2280   78.8830  223.1460 C   0  0  0  0  0  0  0  0  0  0  0  0
  140.8510   78.8050  223.0760 C   0  0  0  0  0  0  0  0  0  0  0  0
  140.2600   77.6390  222.7080 N   0  0  0  0  0  0  0  0  0  0  0  0
  140.1200   75.1420  222.0650 H   0  0  0  0  0  0  0  0  0  0  0  0
  137.4764   73.7566  222.1284 H   0  0  0  0  0  0  0  0  0  0  0  0
  138.1941   73.8759  220.5073 H   0  0  0  0  0  0  0  0  0  0  0  0
  139.3153   71.5590  219.7435 H   0  0  0  0  0  0  0  0  0  0  0  0
  140.3599   70.3526  220.6609 H   0  0  0  0  0  0  0  0  0  0  0  0
  137.8533   70.0388  219.2751 H   0  0  0  0  0  0  0  0  0  0  0  0
  139.2034   68.8650  219.8115 H   0  0  0  0  0  0  0  0  0  0  0  0
  136.6612   68.7924  220.5720 H   0  0  0  0  0  0  0  0  0  0  0  0
  138.1797   68.1593  221.4438 H   0  0  0  0  0  0  0  0  0  0  0  0
  136.3962   70.4112  222.0739 H   0  0  0  0  0  0  0  0  0  0  0  0
  137.1298   69.0319  223.0803 H   0  0  0  0  0  0  0  0  0  0  0  0
  137.8394   71.4750  223.4570 H   0  0  0  0  0  0  0  0  0  0  0  0
  138.6466   69.7953  224.7413 H   0  0  0  0  0  0  0  0  0  0  0  0
  139.6273   69.1282  223.3305 H   0  0  0  0  0  0  0  0  0  0  0  0
  141.0600   71.2090  223.5860 H   0  0  0  0  0  0  0  0  0  0  0  0
  139.8996   69.0200  226.2016 H   0  0  0  0  0  0  0  0  0  0  0  0
  140.3080   69.2927  228.6051 H   0  0  0  0  0  0  0  0  0  0  0  0
  141.2906   71.4310  229.4525 H   0  0  0  0  0  0  0  0  0  0  0  0
  141.8188   73.2110  227.8113 H   0  0  0  0  0  0  0  0  0  0  0  0
  137.0682   78.5503  222.8717 H   0  0  0  0  0  0  0  0  0  0  0  0
  138.0874   80.6982  223.5461 H   0  0  0  0  0  0  0  0  0  0  0  0
  140.0332   81.9947  224.0017 H   0  0  0  0  0  0  0  0  0  0  0  0
  143.8850   80.1602  223.5839 H   0  0  0  0  0  0  0  0  0  0  0  0
  142.8584   78.0136  222.9077 H   0  0  0  0  0  0  0  0  0  0  0  0
  1  2  2  0
  2  3  1  0
  3  4  1  0
  4  5  1  0
  5  6  2  0
  5  7  1  0
  7  8  1  0
  8  9  1  0
  9 10  1  0
 10 11  1  0
 11 12  1  0
 12 13  1  0
 13 14  1  0
 14 15  1  0
 15 16  2  0
 16 17  1  0
 17 18  2  0
 18 19  1  0
 19 20  2  0
  2 21  1  0
 21 22  2  0
 22 23  1  0
 23 24  2  0
 24 25  1  0
 25 26  2  0
 26 27  1  0
 26 28  1  0
 28 29  2  0
 29 30  1  0
 30 31  2  0
 12  7  1  0
 20 15  1  0
 31 21  1  0
 30 24  1  0
  3 32  1  0
  4 33  1  0
  4 34  1  0
  8 35  1  0
  8 36  1  0
  9 37  1  0
  9 38  1  0
 10 39  1  0
 10 40  1  0
 11 41  1  0
 11 42  1  0
 12 43  1  1
 13 44  1  0
 13 45  1  0
 14 46  1  0
 16 47  1  0
 17 48  1  0
 18 49  1  0
 19 50  1  0
 22 51  1  0
 23 52  1  0
 25 53  1  0
 28 54  1  0
 29 55  1  0
M  END
>  <smiles>  (79) 
O=C(NCC(=O)N1CCCCC1CNc1ccccn1)c1ccc2cc(F)ccc2n1

>  <score_type>  (79) 
oracle

>  <origin>  (79) 
autodockgpu

>  <m_score__min__energy>  (79) 
-8.8000000000000007

>  <m_primary>  (79) 
energy

>  <rmsd>  (79) 
9.2270637001653

>  <m_score__min__rmsd>  (79) 
9.2270637001653

>  <meeko>  (79) 
{"free_energy": -7.57, "intermolecular_energy": -9.66, "internal_energy": -2.68, "cluster_size": 3, "cluster_id": 3, "rank_in_cluster": 2}

>  <energy>  (79) 
-7.67

>  <cluster_rmsd>  (79) 
1.07

>  <cluster>  (79) 
1

$$$$

     RDKit          3D

 55 58  0  0  0  0  0  0  0  0999 V2000
  140.9800   71.8420  221.2130 O   0  0  0  0  0  0  0  0  0  0  0  0
  140.4360   72.3580  222.2430 C   0  0  0  0  0  0  0  0  0  0  0  0
  139.9930   73.7100  222.2720 N   0  0  0  0  0  0  0  0  0  0  0  0
  140.1690   74.5290  221.0790 C   0  0  0  0  0  0  0  0  0  0  0  0
  139.8000   75.9070  221.4510 C   0  0  0  0  0  0  0  0  0  0  0  0
  138.6210   76.2490  221.7830 O   0  0  0  0  0  0  0  0  0  0  0  0
  140.7580   76.9890  221.4700 N   0  0  0  0  0  0  0  0  0  0  0  0
  141.0800   77.5050  222.7960 C   0  0  0  0  0  0  0  0  0  0  0  0
  141.4870   78.9240  222.8380 C   0  0  0  0  0  0  0  0  0  0  0  0
  141.8830   79.5820  221.5800 C   0  0  0  0  0  0  0  0  0  0  0  0
  141.4310   78.9720  220.3080 C   0  0  0  0  0  0  0  0  0  0  0  0
  141.3230   77.4860  220.2590 C   0  0  1  0  0  0  0  0  0  0  0  0
  142.5980   76.8130  219.8210 C   0  0  0  0  0  0  0  0  0  0  0  0
  142.4900   75.4250  219.5290 N   0  0  0  0  0  0  0  0  0  0  0  0
  143.5230   74.5490  219.9880 C   0  0  0  0  0  0  0  0  0  0  0  0
  143.3540   73.1840  220.0430 C   0  0  0  0  0  0  0  0  0  0  0  0
  144.3300   72.3210  220.4790 C   0  0  0  0  0  0  0  0  0  0  0  0
  145.5430   72.8280  220.8850 C   0  0  0  0  0  0  0  0  0  0  0  0
  145.7130   74.1890  220.8310 C   0  0  0  0  0  0  0  0  0  0  0  0
  144.7240   75.0220  220.3930 N   0  0  0  0  0  0  0  0  0  0  0  0
  140.2580   71.5360  223.4390 C   0  0  0  0  0  0  0  0  0  0  0  0
  139.6100   70.3170  223.3560 C   0  0  0  0  0  0  0  0  0  0  0  0
  139.4110   69.4960  224.4490 C   0  0  0  0  0  0  0  0  0  0  0  0
  139.8830   69.9140  225.6790 C   0  0  0  0  0  0  0  0  0  0  0  0
  139.6870   69.0970  226.7750 C   0  0  0  0  0  0  0  0  0  0  0  0
  140.1620   69.5240  227.9980 C   0  0  0  0  0  0  0  0  0  0  0  0
  139.9790   68.7340  229.0890 F   0  0  0  0  0  0  0  0  0  0  0  0
  140.8090   70.7420  228.0740 C   0  0  0  0  0  0  0  0  0  0  0  0
  141.0060   71.5620  226.9800 C   0  0  0  0  0  0  0  0  0  0  0  0
  140.5300   71.1330  225.7560 C   0  0  0  0  0  0  0  0  0  0  0  0
  140.7040   71.9080  224.6550 N   0  0  0  0  0  0  0  0  0  0  0  0
  139.5440   74.1330  223.1200 H   0  0  0  0  0  0  0  0  0  0  0  0
  141.2170   74.4941  220.7467 H   0  0  0  0  0  0  0  0  0  0  0  0
  139.5432   74.1621  220.2521 H   0  0  0  0  0  0  0  0  0  0  0  0
  140.1902   77.3875  223.4320 H   0  0  0  0  0  0  0  0  0  0  0  0
  141.9494   76.9282  223.1446 H   0  0  0  0  0  0  0  0  0  0  0  0
  140.6393   79.4924  223.2483 H   0  0  0  0  0  0  0  0  0  0  0  0
  142.4074   78.9213  223.4404 H   0  0  0  0  0  0  0  0  0  0  0  0
  141.4896   80.6088  221.6092 H   0  0  0  0  0  0  0  0  0  0  0  0
  142.9791   79.4934  221.5549 H   0  0  0  0  0  0  0  0  0  0  0  0
  140.4362   79.3826  220.0806 H   0  0  0  0  0  0  0  0  0  0  0  0
  142.2190   79.2204  219.5818 H   0  0  0  0  0  0  0  0  0  0  0  0
  140.6176   77.2137  219.4601 H   0  0  0  0  0  0  0  0  0  0  0  0
  142.9560   77.3229  218.9145 H   0  0  0  0  0  0  0  0  0  0  0  0
  143.2875   76.8887  220.6747 H   0  0  0  0  0  0  0  0  0  0  0  0
  141.7040   74.9900  218.9980 H   0  0  0  0  0  0  0  0  0  0  0  0
  142.3897   72.7633  219.7219 H   0  0  0  0  0  0  0  0  0  0  0  0
  144.1439   71.2371  220.5033 H   0  0  0  0  0  0  0  0  0  0  0  0
  146.3472   72.1667  221.2399 H   0  0  0  0  0  0  0  0  0  0  0  0
  146.6733   74.6207  221.1496 H   0  0  0  0  0  0  0  0  0  0  0  0
  139.2363   69.9864  222.3757 H   0  0  0  0  0  0  0  0  0  0  0  0
  138.8897   68.5332  224.3431 H   0  0  0  0  0  0  0  0  0  0  0  0
  139.1668   68.1329  226.6757 H   0  0  0  0  0  0  0  0  0  0  0  0
  141.1854   71.0749  229.0525 H   0  0  0  0  0  0  0  0  0  0  0  0
  141.5256   72.5264  227.0802 H   0  0  0  0  0  0  0  0  0  0  0  0
  1  2  2  0
  2  3  1  0
  3  4  1  0
  4  5  1  0
  5  6  2  0
  5  7  1  0
  7  8  1  0
  8  9  1  0
  9 10  1  0
 10 11  1  0
 11 12  1  0
 12 13  1  0
 13 14  1  0
 14 15  1  0
 15 16  2  0
 16 17  1  0
 17 18  2  0
 18 19  1  0
 19 20  2  0
  2 21  1  0
 21 22  2  0
 22 23  1  0
 23 24  2  0
 24 25  1  0
 25 26  2  0
 26 27  1  0
 26 28  1  0
 28 29  2  0
 29 30  1  0
 30 31  2  0
 12  7  1  0
 20 15  1  0
 31 21  1  0
 30 24  1  0
  3 32  1  0
  4 33  1  0
  4 34  1  0
  8 35  1  0
  8 36  1  0
  9 37  1  0
  9 38  1  0
 10 39  1  0
 10 40  1  0
 11 41  1  0
 11 42  1  0
 12 43  1  6
 13 44  1  0
 13 45  1  0
 14 46  1  0
 16 47  1  0
 17 48  1  0
 18 49  1  0
 19 50  1  0
 22 51  1  0
 23 52  1  0
 25 53  1  0
 28 54  1  0
 29 55  1  0
M  END
>  <smiles>  (80) 
O=C(NCC(=O)N1CCCCC1CNc1ccccn1)c1ccc2cc(F)ccc2n1

>  <score_type>  (80) 
oracle

>  <origin>  (80) 
autodockgpu

>  <m_score__min__energy>  (80) 
-8.8000000000000007

>  <m_primary>  (80) 
energy

>  <rmsd>  (80) 
4.6941231341360705

>  <m_score__min__rmsd>  (80) 
4.6941231341360705

>  <meeko>  (80) 
{"free_energy": -8.61, "intermolecular_energy": -10.7, "internal_energy": -1.85, "cluster_size": 12, "cluster_id": 2, "rank_in_cluster": 4}

>  <energy>  (80) 
-7.48

>  <cluster_rmsd>  (80) 
1.25

>  <cluster>  (80) 
1

$$$$

     RDKit          3D

 55 58  0  0  0  0  0  0  0  0999 V2000
  141.2640   72.9900  221.3180 O   0  0  0  0  0  0  0  0  0  0  0  0
  140.3550   73.1360  222.1990 C   0  0  0  0  0  0  0  0  0  0  0  0
  139.5990   74.3350  222.3190 N   0  0  0  0  0  0  0  0  0  0  0  0
  139.8770   75.4320  221.4000 C   0  0  0  0  0  0  0  0  0  0  0  0
  139.4580   76.6720  222.0770 C   0  0  0  0  0  0  0  0  0  0  0  0
  138.4490   76.7400  222.8490 O   0  0  0  0  0  0  0  0  0  0  0  0
  140.1660   77.9220  221.9180 N   0  0  0  0  0  0  0  0  0  0  0  0
  140.0840   78.5110  220.5850 C   0  0  0  0  0  0  0  0  0  0  0  0
  141.2350   79.3510  220.1950 C   0  0  0  0  0  0  0  0  0  0  0  0
  142.1550   79.8180  221.2480 C   0  0  0  0  0  0  0  0  0  0  0  0
  142.1690   79.0810  222.5330 C   0  0  0  0  0  0  0  0  0  0  0  0
  140.8790   78.5020  223.0060 C   0  0  1  0  0  0  0  0  0  0  0  0
  140.0830   79.4520  223.8640 C   0  0  0  0  0  0  0  0  0  0  0  0
  138.7040   79.5700  223.5300 N   0  0  0  0  0  0  0  0  0  0  0  0
  137.9870   80.7170  223.9940 C   0  0  0  0  0  0  0  0  0  0  0  0
  137.6910   80.9040  225.3250 C   0  0  0  0  0  0  0  0  0  0  0  0
  137.0040   81.9970  225.7980 C   0  0  0  0  0  0  0  0  0  0  0  0
  136.5840   82.9610  224.9110 C   0  0  0  0  0  0  0  0  0  0  0  0
  136.8780   82.7750  223.5830 C   0  0  0  0  0  0  0  0  0  0  0  0
  137.5630   81.6790  223.1430 N   0  0  0  0  0  0  0  0  0  0  0  0
  140.0750   72.0360  223.1200 C   0  0  0  0  0  0  0  0  0  0  0  0
  139.1480   71.0660  222.7840 C   0  0  0  0  0  0  0  0  0  0  0  0
  138.8400   70.0030  223.6120 C   0  0  0  0  0  0  0  0  0  0  0  0
  139.4900   69.9070  224.8270 C   0  0  0  0  0  0  0  0  0  0  0  0
  139.1860   68.8460  225.6580 C   0  0  0  0  0  0  0  0  0  0  0  0
  139.8410   68.7600  226.8700 C   0  0  0  0  0  0  0  0  0  0  0  0
  139.5560   67.7240  227.7010 F   0  0  0  0  0  0  0  0  0  0  0  0
  140.7660   69.7320  227.1990 C   0  0  0  0  0  0  0  0  0  0  0  0
  141.0710   70.7950  226.3700 C   0  0  0  0  0  0  0  0  0  0  0  0
  140.4160   70.8790  225.1580 C   0  0  0  0  0  0  0  0  0  0  0  0
  140.6870   71.9070  224.3130 N   0  0  0  0  0  0  0  0  0  0  0  0
  138.8500   74.4550  223.0430 H   0  0  0  0  0  0  0  0  0  0  0  0
  140.9522   75.4706  221.1708 H   0  0  0  0  0  0  0  0  0  0  0  0
  139.3363   75.2985  220.4514 H   0  0  0  0  0  0  0  0  0  0  0  0
  139.9985   77.6917  219.8560 H   0  0  0  0  0  0  0  0  0  0  0  0
  139.2105   79.1794  220.6006 H   0  0  0  0  0  0  0  0  0  0  0  0
  141.8321   78.7701  219.4766 H   0  0  0  0  0  0  0  0  0  0  0  0
  140.7762   80.2738  219.8102 H   0  0  0  0  0  0  0  0  0  0  0  0
  143.1737   79.7760  220.8352 H   0  0  0  0  0  0  0  0  0  0  0  0
  141.7883   80.8215  221.5095 H   0  0  0  0  0  0  0  0  0  0  0  0
  142.8847   78.2520  222.4301 H   0  0  0  0  0  0  0  0  0  0  0  0
  142.4317   79.8367  223.2879 H   0  0  0  0  0  0  0  0  0  0  0  0
  141.0999   77.6758  223.6979 H   0  0  0  0  0  0  0  0  0  0  0  0
  140.1510   79.1059  224.9059 H   0  0  0  0  0  0  0  0  0  0  0  0
  140.5203   80.4476  223.6983 H   0  0  0  0  0  0  0  0  0  0  0  0
  138.1690   78.8750  222.9640 H   0  0  0  0  0  0  0  0  0  0  0  0
  138.0203   80.1413  226.0460 H   0  0  0  0  0  0  0  0  0  0  0  0
  136.7928   82.0994  226.8727 H   0  0  0  0  0  0  0  0  0  0  0  0
  136.0324   83.8489  225.2535 H   0  0  0  0  0  0  0  0  0  0  0  0
  136.5525   83.5304  222.8527 H   0  0  0  0  0  0  0  0  0  0  0  0
  138.6332   71.1440  221.8150 H   0  0  0  0  0  0  0  0  0  0  0  0
  138.0952   69.2516  223.3107 H   0  0  0  0  0  0  0  0  0  0  0  0
  138.4428   68.0909  225.3621 H   0  0  0  0  0  0  0  0  0  0  0  0
  141.2842   69.6563  228.1664 H   0  0  0  0  0  0  0  0  0  0  0  0
  141.8130   71.5508  226.6670 H   0  0  0  0  0  0  0  0  0  0  0  0
  1  2  2  0
  2  3  1  0
  3  4  1  0
  4  5  1  0
  5  6  2  0
  5  7  1  0
  7  8  1  0
  8  9  1  0
  9 10  1  0
 10 11  1  0
 11 12  1  0
 12 13  1  0
 13 14  1  0
 14 15  1  0
 15 16  2  0
 16 17  1  0
 17 18  2  0
 18 19  1  0
 19 20  2  0
  2 21  1  0
 21 22  2  0
 22 23  1  0
 23 24  2  0
 24 25  1  0
 25 26  2  0
 26 27  1  0
 26 28  1  0
 28 29  2  0
 29 30  1  0
 30 31  2  0
 12  7  1  0
 20 15  1  0
 31 21  1  0
 30 24  1  0
  3 32  1  0
  4 33  1  0
  4 34  1  0
  8 35  1  0
  8 36  1  0
  9 37  1  0
  9 38  1  0
 10 39  1  0
 10 40  1  0
 11 41  1  0
 11 42  1  0
 12 43  1  1
 13 44  1  0
 13 45  1  0
 14 46  1  0
 16 47  1  0
 17 48  1  0
 18 49  1  0
 19 50  1  0
 22 51  1  0
 23 52  1  0
 25 53  1  0
 28 54  1  0
 29 55  1  0
M  END
>  <smiles>  (81) 
O=C(NCC(=O)N1CCCCC1CNc1ccccn1)c1ccc2cc(F)ccc2n1

>  <score_type>  (81) 
oracle

>  <origin>  (81) 
autodockgpu

>  <m_score__min__energy>  (81) 
-8.8000000000000007

>  <m_primary>  (81) 
energy

>  <rmsd>  (81) 
3.746421749785182

>  <m_score__min__rmsd>  (81) 
3.746421749785182

>  <meeko>  (81) 
{"free_energy": -7.53, "intermolecular_energy": -9.62, "internal_energy": -2.41, "cluster_size": 2, "cluster_id": 4, "rank_in_cluster": 1}

>  <energy>  (81) 
-8.76

>  <cluster_rmsd>  (81) 
0.0

>  <cluster>  (81) 
2

$$$$

     RDKit          3D

 55 58  0  0  0  0  0  0  0  0999 V2000
  136.5530   76.1250  221.5420 O   0  0  0  0  0  0  0  0  0  0  0  0
  137.6940   76.0070  222.0960 C   0  0  0  0  0  0  0  0  0  0  0  0
  138.2920   74.7400  222.3440 N   0  0  0  0  0  0  0  0  0  0  0  0
  137.5700   73.5380  221.9490 C   0  0  0  0  0  0  0  0  0  0  0  0
  138.4270   72.3910  222.3020 C   0  0  0  0  0  0  0  0  0  0  0  0
  139.6710   72.4980  222.5430 O   0  0  0  0  0  0  0  0  0  0  0  0
  137.9180   71.0430  222.4020 N   0  0  0  0  0  0  0  0  0  0  0  0
  137.9170   70.2890  221.1520 C   0  0  0  0  0  0  0  0  0  0  0  0
  136.8770   69.2450  221.0460 C   0  0  0  0  0  0  0  0  0  0  0  0
  136.1940   68.8030  222.2750 C   0  0  0  0  0  0  0  0  0  0  0  0
  136.2300   69.7040  223.4500 C   0  0  0  0  0  0  0  0  0  0  0  0
  137.4600   70.5250  223.6480 C   0  0  1  0  0  0  0  0  0  0  0  0
  138.5070   69.8310  224.4800 C   0  0  0  0  0  0  0  0  0  0  0  0
  139.7560   70.5050  224.5810 N   0  0  0  0  0  0  0  0  0  0  0  0
  140.2460   70.8400  225.8820 C   0  0  0  0  0  0  0  0  0  0  0  0
  141.0480   71.9380  226.1010 C   0  0  0  0  0  0  0  0  0  0  0  0
  141.5310   72.2820  227.3410 C   0  0  0  0  0  0  0  0  0  0  0  0
  141.2080   71.5030  228.4280 C   0  0  0  0  0  0  0  0  0  0  0  0
  140.4090   70.4080  228.2100 C   0  0  0  0  0  0  0  0  0  0  0  0
  139.9440   70.0910  226.9670 N   0  0  0  0  0  0  0  0  0  0  0  0
  138.4190   77.2140  222.4910 C   0  0  0  0  0  0  0  0  0  0  0  0
  137.7330   78.3900  222.7340 C   0  0  0  0  0  0  0  0  0  0  0  0
  138.3620   79.5620  223.1100 C   0  0  0  0  0  0  0  0  0  0  0  0
  139.7360   79.5550  223.2490 C   0  0  0  0  0  0  0  0  0  0  0  0
  140.3690   80.7230  223.6240 C   0  0  0  0  0  0  0  0  0  0  0  0
  141.7430   80.7050  223.7600 C   0  0  0  0  0  0  0  0  0  0  0  0
  142.3840   81.8450  224.1290 F   0  0  0  0  0  0  0  0  0  0  0  0
  142.4210   79.5270  223.5150 C   0  0  0  0  0  0  0  0  0  0  0  0
  141.7910   78.3570  223.1390 C   0  0  0  0  0  0  0  0  0  0  0  0
  140.4170   78.3770  223.0040 C   0  0  0  0  0  0  0  0  0  0  0  0
  139.7580   77.2480  222.6370 N   0  0  0  0  0  0  0  0  0  0  0  0
  139.2320   74.6450  222.7990 H   0  0  0  0  0  0  0  0  0  0  0  0
  136.6135   73.4763  222.4886 H   0  0  0  0  0  0  0  0  0  0  0  0
  137.3471   73.5475  220.8719 H   0  0  0  0  0  0  0  0  0  0  0  0
  137.7700   71.0004  220.3260 H   0  0  0  0  0  0  0  0  0  0  0  0
  138.8820   69.7625  221.1132 H   0  0  0  0  0  0  0  0  0  0  0  0
  136.1028   69.6264  220.3640 H   0  0  0  0  0  0  0  0  0  0  0  0
  137.4253   68.3533  220.7081 H   0  0  0  0  0  0  0  0  0  0  0  0
  135.1365   68.6381  222.0209 H   0  0  0  0  0  0  0  0  0  0  0  0
  136.7516   67.9103  222.5947 H   0  0  0  0  0  0  0  0  0  0  0  0
  135.3811   70.3978  223.3600 H   0  0  0  0  0  0  0  0  0  0  0  0
  136.1967   69.0325  224.3206 H   0  0  0  0  0  0  0  0  0  0  0  0
  137.2007   71.3997  224.2626 H   0  0  0  0  0  0  0  0  0  0  0  0
  138.1052   69.7082  225.4966 H   0  0  0  0  0  0  0  0  0  0  0  0
  138.7177   68.8804  223.9682 H   0  0  0  0  0  0  0  0  0  0  0  0
  140.3500   70.7790  223.7680 H   0  0  0  0  0  0  0  0  0  0  0  0
  141.3151   72.5706  225.2416 H   0  0  0  0  0  0  0  0  0  0  0  0
  142.1686   73.1701  227.4629 H   0  0  0  0  0  0  0  0  0  0  0  0
  141.5764   71.7485  229.4350 H   0  0  0  0  0  0  0  0  0  0  0  0
  140.1359   69.7679  229.0619 H   0  0  0  0  0  0  0  0  0  0  0  0
  136.6386   78.3928  222.6232 H   0  0  0  0  0  0  0  0  0  0  0  0
  137.7820   80.4784  223.2941 H   0  0  0  0  0  0  0  0  0  0  0  0
  139.7947   81.6427  223.8094 H   0  0  0  0  0  0  0  0  0  0  0  0
  143.5155   79.5204  223.6246 H   0  0  0  0  0  0  0  0  0  0  0  0
  142.3659   77.4378  222.9529 H   0  0  0  0  0  0  0  0  0  0  0  0
  1  2  2  0
  2  3  1  0
  3  4  1  0
  4  5  1  0
  5  6  2  0
  5  7  1  0
  7  8  1  0
  8  9  1  0
  9 10  1  0
 10 11  1  0
 11 12  1  0
 12 13  1  0
 13 14  1  0
 14 15  1  0
 15 16  2  0
 16 17  1  0
 17 18  2  0
 18 19  1  0
 19 20  2  0
  2 21  1  0
 21 22  2  0
 22 23  1  0
 23 24  2  0
 24 25  1  0
 25 26  2  0
 26 27  1  0
 26 28  1  0
 28 29  2  0
 29 30  1  0
 30 31  2  0
 12  7  1  0
 20 15  1  0
 31 21  1  0
 30 24  1  0
  3 32  1  0
  4 33  1  0
  4 34  1  0
  8 35  1  0
  8 36  1  0
  9 37  1  0
  9 38  1  0
 10 39  1  0
 10 40  1  0
 11 41  1  0
 11 42  1  0
 12 43  1  1
 13 44  1  0
 13 45  1  0
 14 46  1  0
 16 47  1  0
 17 48  1  0
 18 49  1  0
 19 50  1  0
 22 51  1  0
 23 52  1  0
 25 53  1  0
 28 54  1  0
 29 55  1  0
M  END
>  <smiles>  (82) 
O=C(NCC(=O)N1CCCCC1CNc1ccccn1)c1ccc2cc(F)ccc2n1

>  <score_type>  (82) 
oracle

>  <origin>  (82) 
autodockgpu

>  <m_score__min__energy>  (82) 
-8.8000000000000007

>  <m_primary>  (82) 
energy

>  <rmsd>  (82) 
9.164052241183462

>  <m_score__min__rmsd>  (82) 
9.164052241183462

>  <meeko>  (82) 
{"free_energy": -7.25, "intermolecular_energy": -9.34, "internal_energy": -2.64, "cluster_size": 3, "cluster_id": 3, "rank_in_cluster": 3}

>  <energy>  (82) 
-8.66

>  <cluster_rmsd>  (82) 
0.75

>  <cluster>  (82) 
2

$$$$

     RDKit          3D

 55 58  0  0  0  0  0  0  0  0999 V2000
  138.1730   70.6830  221.8260 O   0  0  0  0  0  0  0  0  0  0  0  0
  138.8520   71.2240  222.7580 C   0  0  0  0  0  0  0  0  0  0  0  0
  139.2730   72.5820  222.7040 N   0  0  0  0  0  0  0  0  0  0  0  0
  138.9120   73.3780  221.5380 C   0  0  0  0  0  0  0  0  0  0  0  0
  139.6570   74.6470  221.6420 C   0  0  0  0  0  0  0  0  0  0  0  0
  140.7450   74.7670  222.2890 O   0  0  0  0  0  0  0  0  0  0  0  0
  139.2060   75.8660  221.0110 N   0  0  0  0  0  0  0  0  0  0  0  0
  138.0150   76.4650  221.6060 C   0  0  0  0  0  0  0  0  0  0  0  0
  137.1790   77.2570  220.6820 C   0  0  0  0  0  0  0  0  0  0  0  0
  137.7570   77.6800  219.3940 C   0  0  0  0  0  0  0  0  0  0  0  0
  138.9330   76.9370  218.8850 C   0  0  0  0  0  0  0  0  0  0  0  0
  139.9000   76.4100  219.8910 C   0  0  1  0  0  0  0  0  0  0  0  0
  140.9960   77.3880  220.2280 C   0  0  0  0  0  0  0  0  0  0  0  0
  141.4470   77.3630  221.5770 N   0  0  0  0  0  0  0  0  0  0  0  0
  141.4080   78.5770  222.3320 C   0  0  0  0  0  0  0  0  0  0  0  0
  142.5370   79.3290  222.5650 C   0  0  0  0  0  0  0  0  0  0  0  0
  142.5270   80.4990  223.2860 C   0  0  0  0  0  0  0  0  0  0  0  0
  141.3390   80.9570  223.8070 C   0  0  0  0  0  0  0  0  0  0  0  0
  140.2120   80.2070  223.5750 C   0  0  0  0  0  0  0  0  0  0  0  0
  140.2540   79.0480  222.8550 N   0  0  0  0  0  0  0  0  0  0  0  0
  139.2130   70.4250  223.9290 C   0  0  0  0  0  0  0  0  0  0  0  0
  138.9350   69.0700  223.9600 C   0  0  0  0  0  0  0  0  0  0  0  0
  139.2510   68.2630  225.0360 C   0  0  0  0  0  0  0  0  0  0  0  0
  139.8740   68.8370  226.1270 C   0  0  0  0  0  0  0  0  0  0  0  0
  140.1920   68.0350  227.2050 C   0  0  0  0  0  0  0  0  0  0  0  0
  140.8140   68.6200  228.2900 C   0  0  0  0  0  0  0  0  0  0  0  0
  141.1350   67.8460  229.3610 F   0  0  0  0  0  0  0  0  0  0  0  0
  141.0890   69.9720  228.2530 C   0  0  0  0  0  0  0  0  0  0  0  0
  140.7710   70.7780  227.1760 C   0  0  0  0  0  0  0  0  0  0  0  0
  140.1500   70.1910  226.0910 C   0  0  0  0  0  0  0  0  0  0  0  0
  139.8210   70.9470  225.0120 N   0  0  0  0  0  0  0  0  0  0  0  0
  139.8310   73.0260  223.4720 H   0  0  0  0  0  0  0  0  0  0  0  0
  139.1930   72.8482  220.6159 H   0  0  0  0  0  0  0  0  0  0  0  0
  137.8274   73.5583  221.5032 H   0  0  0  0  0  0  0  0  0  0  0  0
  137.3948   75.6539  222.0151 H   0  0  0  0  0  0  0  0  0  0  0  0
  138.3774   77.1699  222.3688 H   0  0  0  0  0  0  0  0  0  0  0  0
  136.2870   76.6548  220.4549 H   0  0  0  0  0  0  0  0  0  0  0  0
  137.0044   78.2003  221.2202 H   0  0  0  0  0  0  0  0  0  0  0  0
  136.9641   77.5973  218.6361 H   0  0  0  0  0  0  0  0  0  0  0  0
  138.1327   78.6968  219.5808 H   0  0  0  0  0  0  0  0  0  0  0  0
  138.5570   76.0793  218.3080 H   0  0  0  0  0  0  0  0  0  0  0  0
  139.5047   77.6774  218.3063 H   0  0  0  0  0  0  0  0  0  0  0  0
  140.4508   75.5720  219.4389 H   0  0  0  0  0  0  0  0  0  0  0  0
  141.8567   77.1690  219.5790 H   0  0  0  0  0  0  0  0  0  0  0  0
  140.5658   78.3884  220.0724 H   0  0  0  0  0  0  0  0  0  0  0  0
  141.8100   76.5150  222.0660 H   0  0  0  0  0  0  0  0  0  0  0  0
  143.4944   78.9762  222.1539 H   0  0  0  0  0  0  0  0  0  0  0  0
  143.4581   81.0627  223.4446 H   0  0  0  0  0  0  0  0  0  0  0  0
  141.2934   81.8898  224.3882 H   0  0  0  0  0  0  0  0  0  0  0  0
  139.2487   80.5498  223.9807 H   0  0  0  0  0  0  0  0  0  0  0  0
  138.4404   68.6150  223.0892 H   0  0  0  0  0  0  0  0  0  0  0  0
  139.0122   67.1893  225.0241 H   0  0  0  0  0  0  0  0  0  0  0  0
  139.9565   66.9605  227.1996 H   0  0  0  0  0  0  0  0  0  0  0  0
  141.5847   70.4298  229.1217 H   0  0  0  0  0  0  0  0  0  0  0  0
  141.0051   71.8528  227.1829 H   0  0  0  0  0  0  0  0  0  0  0  0
  1  2  2  0
  2  3  1  0
  3  4  1  0
  4  5  1  0
  5  6  2  0
  5  7  1  0
  7  8  1  0
  8  9  1  0
  9 10  1  0
 10 11  1  0
 11 12  1  0
 12 13  1  0
 13 14  1  0
 14 15  1  0
 15 16  2  0
 16 17  1  0
 17 18  2  0
 18 19  1  0
 19 20  2  0
  2 21  1  0
 21 22  2  0
 22 23  1  0
 23 24  2  0
 24 25  1  0
 25 26  2  0
 26 27  1  0
 26 28  1  0
 28 29  2  0
 29 30  1  0
 30 31  2  0
 12  7  1  0
 20 15  1  0
 31 21  1  0
 30 24  1  0
  3 32  1  0
  4 33  1  0
  4 34  1  0
  8 35  1  0
  8 36  1  0
  9 37  1  0
  9 38  1  0
 10 39  1  0
 10 40  1  0
 11 41  1  0
 11 42  1  0
 12 43  1  6
 13 44  1  0
 13 45  1  0
 14 46  1  0
 16 47  1  0
 17 48  1  0
 18 49  1  0
 19 50  1  0
 22 51  1  0
 23 52  1  0
 25 53  1  0
 28 54  1  0
 29 55  1  0
M  END
>  <smiles>  (83) 
O=C(NCC(=O)N1CCCCC1CNc1ccccn1)c1ccc2cc(F)ccc2n1

>  <score_type>  (83) 
oracle

>  <origin>  (83) 
autodockgpu

>  <m_score__min__energy>  (83) 
-8.8000000000000007

>  <m_primary>  (83) 
energy

>  <rmsd>  (83) 
2.3809521474556465

>  <m_score__min__rmsd>  (83) 
2.3809521474556465

>  <meeko>  (83) 
{"free_energy": -8.22, "intermolecular_energy": -10.31, "internal_energy": -2.8, "cluster_size": 30, "cluster_id": 1, "rank_in_cluster": 12}

>  <energy>  (83) 
-8.66

>  <cluster_rmsd>  (83) 
0.63

>  <cluster>  (83) 
2

$$$$

     RDKit          3D

 55 58  0  0  0  0  0  0  0  0999 V2000
  139.3500   71.1560  221.0430 O   0  0  0  0  0  0  0  0  0  0  0  0
  139.4800   71.7780  222.1470 C   0  0  0  0  0  0  0  0  0  0  0  0
  139.4710   73.1990  222.2250 N   0  0  0  0  0  0  0  0  0  0  0  0
  139.3080   73.9640  220.9960 C   0  0  0  0  0  0  0  0  0  0  0  0
  139.7420   75.3420  221.2920 C   0  0  0  0  0  0  0  0  0  0  0  0
  140.2890   75.6820  222.3880 O   0  0  0  0  0  0  0  0  0  0  0  0
  139.5790   76.4270  220.3500 N   0  0  0  0  0  0  0  0  0  0  0  0
  138.3170   77.1520  220.4570 C   0  0  0  0  0  0  0  0  0  0  0  0
  137.8370   77.7690  219.2030 C   0  0  0  0  0  0  0  0  0  0  0  0
  138.7860   77.9250  218.0860 C   0  0  0  0  0  0  0  0  0  0  0  0
  139.9990   77.0760  218.0830 C   0  0  0  0  0  0  0  0  0  0  0  0
  140.6000   76.7330  219.4040 C   0  0  1  0  0  0  0  0  0  0  0  0
  141.6250   77.7360  219.8670 C   0  0  0  0  0  0  0  0  0  0  0  0
  141.8050   77.8230  221.2760 N   0  0  0  0  0  0  0  0  0  0  0  0
  141.8170   79.1180  221.8820 C   0  0  0  0  0  0  0  0  0  0  0  0
  142.1860   79.3080  223.1940 C   0  0  0  0  0  0  0  0  0  0  0  0
  142.2060   80.5410  223.8000 C   0  0  0  0  0  0  0  0  0  0  0  0
  141.8440   81.6520  223.0750 C   0  0  0  0  0  0  0  0  0  0  0  0
  141.4750   81.4640  221.7660 C   0  0  0  0  0  0  0  0  0  0  0  0
  141.4650   80.2270  221.1910 N   0  0  0  0  0  0  0  0  0  0  0  0
  139.6420   71.0090  223.3800 C   0  0  0  0  0  0  0  0  0  0  0  0
  139.2200   69.6940  223.4410 C   0  0  0  0  0  0  0  0  0  0  0  0
  139.3460   68.9170  224.5770 C   0  0  0  0  0  0  0  0  0  0  0  0
  139.9210   69.4810  225.6990 C   0  0  0  0  0  0  0  0  0  0  0  0
  140.0490   68.7090  226.8360 C   0  0  0  0  0  0  0  0  0  0  0  0
  140.6260   69.2840  227.9520 C   0  0  0  0  0  0  0  0  0  0  0  0
  140.7610   68.5400  229.0810 F   0  0  0  0  0  0  0  0  0  0  0  0
  141.0450   70.5980  227.8840 C   0  0  0  0  0  0  0  0  0  0  0  0
  140.9180   71.3730  226.7470 C   0  0  0  0  0  0  0  0  0  0  0  0
  140.3420   70.7970  225.6320 C   0  0  0  0  0  0  0  0  0  0  0  0
  140.1980   71.5240  224.4950 N   0  0  0  0  0  0  0  0  0  0  0  0
  139.5770   73.7100  223.1340 H   0  0  0  0  0  0  0  0  0  0  0  0
  139.9301   73.5343  220.1970 H   0  0  0  0  0  0  0  0  0  0  0  0
  138.2627   73.9439  220.6539 H   0  0  0  0  0  0  0  0  0  0  0  0
  137.5480   76.4468  220.8053 H   0  0  0  0  0  0  0  0  0  0  0  0
  138.5005   77.9823  221.1548 H   0  0  0  0  0  0  0  0  0  0  0  0
  137.0031   77.1523  218.8365 H   0  0  0  0  0  0  0  0  0  0  0  0
  137.5878   78.8013  219.4898 H   0  0  0  0  0  0  0  0  0  0  0  0
  138.2360   77.7136  217.1571 H   0  0  0  0  0  0  0  0  0  0  0  0
  139.1682   78.9512  218.1904 H   0  0  0  0  0  0  0  0  0  0  0  0
  139.7391   76.1311  217.5835 H   0  0  0  0  0  0  0  0  0  0  0  0
  140.7643   77.6807  217.5743 H   0  0  0  0  0  0  0  0  0  0  0  0
  141.1931   75.8138  219.2890 H   0  0  0  0  0  0  0  0  0  0  0  0
  142.5918   77.4642  219.4181 H   0  0  0  0  0  0  0  0  0  0  0  0
  141.2492   78.7199  219.5495 H   0  0  0  0  0  0  0  0  0  0  0  0
  141.9320   77.0040  221.9100 H   0  0  0  0  0  0  0  0  0  0  0  0
  142.4795   78.4292  223.7870 H   0  0  0  0  0  0  0  0  0  0  0  0
  142.5082   80.6383  224.8532 H   0  0  0  0  0  0  0  0  0  0  0  0
  141.8498   82.6547  223.5273 H   0  0  0  0  0  0  0  0  0  0  0  0
  141.1790   82.3356  221.1638 H   0  0  0  0  0  0  0  0  0  0  0  0
  138.7638   69.2463  222.5458 H   0  0  0  0  0  0  0  0  0  0  0  0
  138.9966   67.8740  224.5873 H   0  0  0  0  0  0  0  0  0  0  0  0
  139.7014   67.6655  226.8532 H   0  0  0  0  0  0  0  0  0  0  0  0
  141.5015   71.0492  228.7773 H   0  0  0  0  0  0  0  0  0  0  0  0
  141.2651   72.4167  226.7306 H   0  0  0  0  0  0  0  0  0  0  0  0
  1  2  2  0
  2  3  1  0
  3  4  1  0
  4  5  1  0
  5  6  2  0
  5  7  1  0
  7  8  1  0
  8  9  1  0
  9 10  1  0
 10 11  1  0
 11 12  1  0
 12 13  1  0
 13 14  1  0
 14 15  1  0
 15 16  2  0
 16 17  1  0
 17 18  2  0
 18 19  1  0
 19 20  2  0
  2 21  1  0
 21 22  2  0
 22 23  1  0
 23 24  2  0
 24 25  1  0
 25 26  2  0
 26 27  1  0
 26 28  1  0
 28 29  2  0
 29 30  1  0
 30 31  2  0
 12  7  1  0
 20 15  1  0
 31 21  1  0
 30 24  1  0
  3 32  1  0
  4 33  1  0
  4 34  1  0
  8 35  1  0
  8 36  1  0
  9 37  1  0
  9 38  1  0
 10 39  1  0
 10 40  1  0
 11 41  1  0
 11 42  1  0
 12 43  1  6
 13 44  1  0
 13 45  1  0
 14 46  1  0
 16 47  1  0
 17 48  1  0
 18 49  1  0
 19 50  1  0
 22 51  1  0
 23 52  1  0
 25 53  1  0
 28 54  1  0
 29 55  1  0
M  END
>  <smiles>  (84) 
O=C(NCC(=O)N1CCCCC1CNc1ccccn1)c1ccc2cc(F)ccc2n1

>  <score_type>  (84) 
oracle

>  <origin>  (84) 
autodockgpu

>  <m_score__min__energy>  (84) 
-8.8000000000000007

>  <m_primary>  (84) 
energy

>  <rmsd>  (84) 
2.03693617067746

>  <m_score__min__rmsd>  (84) 
2.03693617067746

>  <meeko>  (84) 
{"free_energy": -7.98, "intermolecular_energy": -10.07, "internal_energy": -2.78, "cluster_size": 30, "cluster_id": 1, "rank_in_cluster": 20}

>  <energy>  (84) 
-8.61

>  <cluster_rmsd>  (84) 
0.78

>  <cluster>  (84) 
2

$$$$

     RDKit          3D

 55 58  0  0  0  0  0  0  0  0999 V2000
  140.8580   71.7730  221.1400 O   0  0  0  0  0  0  0  0  0  0  0  0
  140.3930   72.3250  222.1890 C   0  0  0  0  0  0  0  0  0  0  0  0
  140.0410   73.7040  222.2310 N   0  0  0  0  0  0  0  0  0  0  0  0
  140.2230   74.5080  221.0300 C   0  0  0  0  0  0  0  0  0  0  0  0
  140.6030   75.8600  221.4760 C   0  0  0  0  0  0  0  0  0  0  0  0
  140.3280   76.3180  222.6300 O   0  0  0  0  0  0  0  0  0  0  0  0
  141.3260   76.7830  220.6300 N   0  0  0  0  0  0  0  0  0  0  0  0
  141.2430   78.1830  221.0330 C   0  0  0  0  0  0  0  0  0  0  0  0
  141.3750   79.1630  219.9360 C   0  0  0  0  0  0  0  0  0  0  0  0
  141.9230   78.7080  218.6450 C   0  0  0  0  0  0  0  0  0  0  0  0
  141.8850   77.2570  218.3500 C   0  0  0  0  0  0  0  0  0  0  0  0
  142.0540   76.3180  219.4960 C   0  0  1  0  0  0  0  0  0  0  0  0
  143.4930   75.9580  219.7600 C   0  0  0  0  0  0  0  0  0  0  0  0
  144.0650   75.0170  218.8580 N   0  0  0  0  0  0  0  0  0  0  0  0
  144.0690   73.6360  219.2260 C   0  0  0  0  0  0  0  0  0  0  0  0
  143.7610   73.2180  220.5000 C   0  0  0  0  0  0  0  0  0  0  0  0
  143.7570   71.8970  220.8800 C   0  0  0  0  0  0  0  0  0  0  0  0
  144.0740   70.9310  219.9530 C   0  0  0  0  0  0  0  0  0  0  0  0
  144.3820   71.3470  218.6820 C   0  0  0  0  0  0  0  0  0  0  0  0
  144.3780   72.6670  218.3340 N   0  0  0  0  0  0  0  0  0  0  0  0
  140.2090   71.5180  223.3950 C   0  0  0  0  0  0  0  0  0  0  0  0
  139.5380   70.3100  223.3280 C   0  0  0  0  0  0  0  0  0  0  0  0
  139.3330   69.5040  224.4310 C   0  0  0  0  0  0  0  0  0  0  0  0
  139.8230   69.9240  225.6530 C   0  0  0  0  0  0  0  0  0  0  0  0
  139.6200   69.1220  226.7580 C   0  0  0  0  0  0  0  0  0  0  0  0
  140.1140   69.5520  227.9740 C   0  0  0  0  0  0  0  0  0  0  0  0
  139.9250   68.7760  229.0740 F   0  0  0  0  0  0  0  0  0  0  0  0
  140.7830   70.7590  228.0330 C   0  0  0  0  0  0  0  0  0  0  0  0
  140.9860   71.5640  226.9290 C   0  0  0  0  0  0  0  0  0  0  0  0
  140.4920   71.1320  225.7140 C   0  0  0  0  0  0  0  0  0  0  0  0
  140.6710   71.8930  224.6040 N   0  0  0  0  0  0  0  0  0  0  0  0
  139.6570   74.1570  223.0950 H   0  0  0  0  0  0  0  0  0  0  0  0
  141.0187   74.0783  220.4037 H   0  0  0  0  0  0  0  0  0  0  0  0
  139.3016   74.5349  220.4298 H   0  0  0  0  0  0  0  0  0  0  0  0
  140.2667   78.3410  221.5146 H   0  0  0  0  0  0  0  0  0  0  0  0
  142.0976   78.3585  221.7030 H   0  0  0  0  0  0  0  0  0  0  0  0
  140.3705   79.5654  219.7381 H   0  0  0  0  0  0  0  0  0  0  0  0
  142.1218   79.8808  220.3062 H   0  0  0  0  0  0  0  0  0  0  0  0
  141.3586   79.2188  217.8510 H   0  0  0  0  0  0  0  0  0  0  0  0
  142.9945   78.9512  218.6985 H   0  0  0  0  0  0  0  0  0  0  0  0
  140.9111   77.0401  217.8869 H   0  0  0  0  0  0  0  0  0  0  0  0
  142.7606   77.0778  217.7087 H   0  0  0  0  0  0  0  0  0  0  0  0
  141.6072   75.3505  219.2232 H   0  0  0  0  0  0  0  0  0  0  0  0
  144.0882   76.8816  219.7086 H   0  0  0  0  0  0  0  0  0  0  0  0
  143.5070   75.4756  220.7485 H   0  0  0  0  0  0  0  0  0  0  0  0
  144.4870   75.2620  217.9350 H   0  0  0  0  0  0  0  0  0  0  0  0
  143.5052   73.9789  221.2521 H   0  0  0  0  0  0  0  0  0  0  0  0
  143.5034   71.6156  221.9127 H   0  0  0  0  0  0  0  0  0  0  0  0
  144.0803   69.8641  220.2209 H   0  0  0  0  0  0  0  0  0  0  0  0
  144.6396   70.5950  217.9216 H   0  0  0  0  0  0  0  0  0  0  0  0
  139.1508   69.9768  222.3538 H   0  0  0  0  0  0  0  0  0  0  0  0
  138.7925   68.5504  224.3388 H   0  0  0  0  0  0  0  0  0  0  0  0
  139.0801   68.1674  226.6725 H   0  0  0  0  0  0  0  0  0  0  0  0
  141.1726   71.0951  229.0052 H   0  0  0  0  0  0  0  0  0  0  0  0
  141.5244   72.5194  227.0150 H   0  0  0  0  0  0  0  0  0  0  0  0
  1  2  2  0
  2  3  1  0
  3  4  1  0
  4  5  1  0
  5  6  2  0
  5  7  1  0
  7  8  1  0
  8  9  1  0
  9 10  1  0
 10 11  1  0
 11 12  1  0
 12 13  1  0
 13 14  1  0
 14 15  1  0
 15 16  2  0
 16 17  1  0
 17 18  2  0
 18 19  1  0
 19 20  2  0
  2 21  1  0
 21 22  2  0
 22 23  1  0
 23 24  2  0
 24 25  1  0
 25 26  2  0
 26 27  1  0
 26 28  1  0
 28 29  2  0
 29 30  1  0
 30 31  2  0
 12  7  1  0
 20 15  1  0
 31 21  1  0
 30 24  1  0
  3 32  1  0
  4 33  1  0
  4 34  1  0
  8 35  1  0
  8 36  1  0
  9 37  1  0
  9 38  1  0
 10 39  1  0
 10 40  1  0
 11 41  1  0
 11 42  1  0
 12 43  1  6
 13 44  1  0
 13 45  1  0
 14 46  1  0
 16 47  1  0
 17 48  1  0
 18 49  1  0
 19 50  1  0
 22 51  1  0
 23 52  1  0
 25 53  1  0
 28 54  1  0
 29 55  1  0
M  END
>  <smiles>  (85) 
O=C(NCC(=O)N1CCCCC1CNc1ccccn1)c1ccc2cc(F)ccc2n1

>  <score_type>  (85) 
oracle

>  <origin>  (85) 
autodockgpu

>  <m_score__min__energy>  (85) 
-8.8000000000000007

>  <m_primary>  (85) 
energy

>  <rmsd>  (85) 
4.741680542309632

>  <m_score__min__rmsd>  (85) 
4.741680542309632

>  <meeko>  (85) 
{"free_energy": -7.85, "intermolecular_energy": -9.94, "internal_energy": -2.24, "cluster_size": 12, "cluster_id": 2, "rank_in_cluster": 12}

>  <energy>  (85) 
-8.6

>  <cluster_rmsd>  (85) 
0.55

>  <cluster>  (85) 
2

$$$$

     RDKit          3D

 55 58  0  0  0  0  0  0  0  0999 V2000
  140.2510   71.6800  221.0710 O   0  0  0  0  0  0  0  0  0  0  0  0
  139.9770   72.2300  222.1860 C   0  0  0  0  0  0  0  0  0  0  0  0
  139.6340   73.6070  222.2910 N   0  0  0  0  0  0  0  0  0  0  0  0
  139.5960   74.4120  221.0770 C   0  0  0  0  0  0  0  0  0  0  0  0
  139.3670   75.8060  221.4970 C   0  0  0  0  0  0  0  0  0  0  0  0
  138.2590   76.2230  221.9610 O   0  0  0  0  0  0  0  0  0  0  0  0
  140.3940   76.8200  221.4160 N   0  0  0  0  0  0  0  0  0  0  0  0
  141.0420   77.1450  222.6820 C   0  0  0  0  0  0  0  0  0  0  0  0
  141.5670   78.5220  222.7870 C   0  0  0  0  0  0  0  0  0  0  0  0
  141.7310   79.3100  221.5520 C   0  0  0  0  0  0  0  0  0  0  0  0
  140.9600   78.8930  220.3570 C   0  0  0  0  0  0  0  0  0  0  0  0
  140.7180   77.4330  220.1710 C   0  0  1  0  0  0  0  0  0  0  0  0
  141.8050   76.7490  219.3810 C   0  0  0  0  0  0  0  0  0  0  0  0
  143.0240   76.5290  220.0800 N   0  0  0  0  0  0  0  0  0  0  0  0
  143.4550   75.1820  220.2920 C   0  0  0  0  0  0  0  0  0  0  0  0
  144.7800   74.8570  220.4700 C   0  0  0  0  0  0  0  0  0  0  0  0
  145.2200   73.5720  220.6760 C   0  0  0  0  0  0  0  0  0  0  0  0
  144.3040   72.5460  220.7090 C   0  0  0  0  0  0  0  0  0  0  0  0
  142.9820   72.8680  220.5310 C   0  0  0  0  0  0  0  0  0  0  0  0
  142.5750   74.1550  220.3290 N   0  0  0  0  0  0  0  0  0  0  0  0
  140.0140   71.4220  223.4050 C   0  0  0  0  0  0  0  0  0  0  0  0
  139.5470   70.1200  223.3910 C   0  0  0  0  0  0  0  0  0  0  0  0
  139.5550   69.3080  224.5090 C   0  0  0  0  0  0  0  0  0  0  0  0
  140.0530   69.8210  225.6900 C   0  0  0  0  0  0  0  0  0  0  0  0
  140.0640   69.0140  226.8100 C   0  0  0  0  0  0  0  0  0  0  0  0
  140.5640   69.5370  227.9860 C   0  0  0  0  0  0  0  0  0  0  0  0
  140.5820   68.7580  229.1000 F   0  0  0  0  0  0  0  0  0  0  0  0
  141.0280   70.8380  227.9930 C   0  0  0  0  0  0  0  0  0  0  0  0
  141.0180   71.6490  226.8740 C   0  0  0  0  0  0  0  0  0  0  0  0
  140.5180   71.1230  225.6990 C   0  0  0  0  0  0  0  0  0  0  0  0
  140.4920   71.8860  224.5760 N   0  0  0  0  0  0  0  0  0  0  0  0
  139.4080   74.0590  223.2100 H   0  0  0  0  0  0  0  0  0  0  0  0
  140.5519   74.3309  220.5388 H   0  0  0  0  0  0  0  0  0  0  0  0
  138.7999   74.0680  220.4003 H   0  0  0  0  0  0  0  0  0  0  0  0
  140.3070   76.9991  223.4873 H   0  0  0  0  0  0  0  0  0  0  0  0
  141.9150   76.4800  222.7565 H   0  0  0  0  0  0  0  0  0  0  0  0
  140.8814   79.0816  223.4402 H   0  0  0  0  0  0  0  0  0  0  0  0
  142.5935   78.3903  223.1598 H   0  0  0  0  0  0  0  0  0  0  0  0
  141.4422   80.3459  221.7834 H   0  0  0  0  0  0  0  0  0  0  0  0
  142.7832   79.1619  221.2675 H   0  0  0  0  0  0  0  0  0  0  0  0
  139.9781   79.3861  220.4093 H   0  0  0  0  0  0  0  0  0  0  0  0
  141.5870   79.1852  219.5018 H   0  0  0  0  0  0  0  0  0  0  0  0
  139.8328   77.3047  219.5307 H   0  0  0  0  0  0  0  0  0  0  0  0
  141.4215   75.7717  219.0527 H   0  0  0  0  0  0  0  0  0  0  0  0
  142.0505   77.4300  218.5528 H   0  0  0  0  0  0  0  0  0  0  0  0
  143.6380   77.2850  220.4550 H   0  0  0  0  0  0  0  0  0  0  0  0
  145.5243   75.6666  220.4462 H   0  0  0  0  0  0  0  0  0  0  0  0
  146.2918   73.3659  220.8129 H   0  0  0  0  0  0  0  0  0  0  0  0
  144.6200   71.5051  220.8722 H   0  0  0  0  0  0  0  0  0  0  0  0
  142.2291   72.0663  220.5517 H   0  0  0  0  0  0  0  0  0  0  0  0
  139.1519   69.7132  222.4485 H   0  0  0  0  0  0  0  0  0  0  0  0
  139.1737   68.2774  224.4592 H   0  0  0  0  0  0  0  0  0  0  0  0
  139.6847   67.9824  226.7667 H   0  0  0  0  0  0  0  0  0  0  0  0
  141.4242   71.2479  228.9337 H   0  0  0  0  0  0  0  0  0  0  0  0
  141.3964   72.6809  226.9178 H   0  0  0  0  0  0  0  0  0  0  0  0
  1  2  2  0
  2  3  1  0
  3  4  1  0
  4  5  1  0
  5  6  2  0
  5  7  1  0
  7  8  1  0
  8  9  1  0
  9 10  1  0
 10 11  1  0
 11 12  1  0
 12 13  1  0
 13 14  1  0
 14 15  1  0
 15 16  2  0
 16 17  1  0
 17 18  2  0
 18 19  1  0
 19 20  2  0
  2 21  1  0
 21 22  2  0
 22 23  1  0
 23 24  2  0
 24 25  1  0
 25 26  2  0
 26 27  1  0
 26 28  1  0
 28 29  2  0
 29 30  1  0
 30 31  2  0
 12  7  1  0
 20 15  1  0
 31 21  1  0
 30 24  1  0
  3 32  1  0
  4 33  1  0
  4 34  1  0
  8 35  1  0
  8 36  1  0
  9 37  1  0
  9 38  1  0
 10 39  1  0
 10 40  1  0
 11 41  1  0
 11 42  1  0
 12 43  1  6
 13 44  1  0
 13 45  1  0
 14 46  1  0
 16 47  1  0
 17 48  1  0
 18 49  1  0
 19 50  1  0
 22 51  1  0
 23 52  1  0
 25 53  1  0
 28 54  1  0
 29 55  1  0
M  END
>  <smiles>  (86) 
O=C(NCC(=O)N1CCCCC1CNc1ccccn1)c1ccc2cc(F)ccc2n1

>  <score_type>  (86) 
oracle

>  <origin>  (86) 
autodockgpu

>  <m_score__min__energy>  (86) 
-8.8000000000000007

>  <m_primary>  (86) 
energy

>  <rmsd>  (86) 
4.412790111361596

>  <m_score__min__rmsd>  (86) 
4.412790111361596

>  <meeko>  (86) 
{"free_energy": -8.66, "intermolecular_energy": -10.75, "internal_energy": -2.11, "cluster_size": 12, "cluster_id": 2, "rank_in_cluster": 2}

>  <energy>  (86) 
-8.59

>  <cluster_rmsd>  (86) 
0.92

>  <cluster>  (86) 
2

$$$$

     RDKit          3D

 55 58  0  0  0  0  0  0  0  0999 V2000
  139.7530   71.4100  221.0780 O   0  0  0  0  0  0  0  0  0  0  0  0
  139.7240   71.9980  222.2070 C   0  0  0  0  0  0  0  0  0  0  0  0
  139.6050   73.4110  222.3270 N   0  0  0  0  0  0  0  0  0  0  0  0
  139.5130   74.2090  221.1110 C   0  0  0  0  0  0  0  0  0  0  0  0
  139.7330   75.6120  221.5050 C   0  0  0  0  0  0  0  0  0  0  0  0
  139.9150   75.9790  222.7090 O   0  0  0  0  0  0  0  0  0  0  0  0
  139.7610   76.6930  220.5470 N   0  0  0  0  0  0  0  0  0  0  0  0
  138.4810   77.3630  220.3350 C   0  0  0  0  0  0  0  0  0  0  0  0
  138.2980   77.9650  218.9990 C   0  0  0  0  0  0  0  0  0  0  0  0
  139.4840   78.1670  218.1480 C   0  0  0  0  0  0  0  0  0  0  0  0
  140.6970   77.3710  218.4480 C   0  0  0  0  0  0  0  0  0  0  0  0
  140.9690   77.0480  219.8790 C   0  0  1  0  0  0  0  0  0  0  0  0
  141.8050   78.0920  220.5730 C   0  0  0  0  0  0  0  0  0  0  0  0
  141.8170   78.0220  221.9940 N   0  0  0  0  0  0  0  0  0  0  0  0
  141.9510   79.2380  222.7350 C   0  0  0  0  0  0  0  0  0  0  0  0
  140.8610   79.9990  223.0940 C   0  0  0  0  0  0  0  0  0  0  0  0
  140.9620   81.1700  223.8060 C   0  0  0  0  0  0  0  0  0  0  0  0
  142.2050   81.6190  224.1880 C   0  0  0  0  0  0  0  0  0  0  0  0
  143.2920   80.8610  223.8300 C   0  0  0  0  0  0  0  0  0  0  0  0
  143.1610   79.7010  223.1220 N   0  0  0  0  0  0  0  0  0  0  0  0
  139.8150   71.1970  223.4270 C   0  0  0  0  0  0  0  0  0  0  0  0
  139.3460   69.8950  223.4420 C   0  0  0  0  0  0  0  0  0  0  0  0
  139.4040   69.0900  224.5630 C   0  0  0  0  0  0  0  0  0  0  0  0
  139.9560   69.6080  225.7180 C   0  0  0  0  0  0  0  0  0  0  0  0
  140.0160   68.8070  226.8410 C   0  0  0  0  0  0  0  0  0  0  0  0
  140.5710   69.3360  227.9890 C   0  0  0  0  0  0  0  0  0  0  0  0
  140.6390   68.5620  229.1050 F   0  0  0  0  0  0  0  0  0  0  0  0
  141.0370   70.6360  227.9670 C   0  0  0  0  0  0  0  0  0  0  0  0
  140.9780   71.4400  226.8460 C   0  0  0  0  0  0  0  0  0  0  0  0
  140.4240   70.9090  225.6970 C   0  0  0  0  0  0  0  0  0  0  0  0
  140.3470   71.6660  224.5730 N   0  0  0  0  0  0  0  0  0  0  0  0
  139.5800   73.8940  223.2570 H   0  0  0  0  0  0  0  0  0  0  0  0
  140.2824   73.8926  220.3913 H   0  0  0  0  0  0  0  0  0  0  0  0
  138.5320   74.0833  220.6296 H   0  0  0  0  0  0  0  0  0  0  0  0
  137.6810   76.6236  220.4871 H   0  0  0  0  0  0  0  0  0  0  0  0
  138.4518   78.1972  221.0514 H   0  0  0  0  0  0  0  0  0  0  0  0
  137.6065   77.3153  218.4425 H   0  0  0  0  0  0  0  0  0  0  0  0
  137.9428   78.9844  219.2105 H   0  0  0  0  0  0  0  0  0  0  0  0
  139.1882   77.9360  217.1140 H   0  0  0  0  0  0  0  0  0  0  0  0
  139.7842   79.2083  218.3364 H   0  0  0  0  0  0  0  0  0  0  0  0
  140.6090   76.4181  217.9055 H   0  0  0  0  0  0  0  0  0  0  0  0
  141.5370   78.0105  218.1391 H   0  0  0  0  0  0  0  0  0  0  0  0
  141.6110   76.1557  219.9194 H   0  0  0  0  0  0  0  0  0  0  0  0
  142.8413   77.9861  220.2197 H   0  0  0  0  0  0  0  0  0  0  0  0
  141.3478   79.0606  220.3223 H   0  0  0  0  0  0  0  0  0  0  0  0
  141.7340   77.1400  222.5460 H   0  0  0  0  0  0  0  0  0  0  0  0
  139.8603   79.6526  222.7962 H   0  0  0  0  0  0  0  0  0  0  0  0
  140.0594   81.7417  224.0675 H   0  0  0  0  0  0  0  0  0  0  0  0
  142.3235   82.5514  224.7595 H   0  0  0  0  0  0  0  0  0  0  0  0
  144.2976   81.1979  224.1220 H   0  0  0  0  0  0  0  0  0  0  0  0
  138.9078   69.4832  222.5209 H   0  0  0  0  0  0  0  0  0  0  0  0
  139.0193   68.0598  224.5363 H   0  0  0  0  0  0  0  0  0  0  0  0
  139.6324   67.7763  226.8215 H   0  0  0  0  0  0  0  0  0  0  0  0
  141.4761   71.0506  228.8864 H   0  0  0  0  0  0  0  0  0  0  0  0
  141.3602   72.4713  226.8670 H   0  0  0  0  0  0  0  0  0  0  0  0
  1  2  2  0
  2  3  1  0
  3  4  1  0
  4  5  1  0
  5  6  2  0
  5  7  1  0
  7  8  1  0
  8  9  1  0
  9 10  1  0
 10 11  1  0
 11 12  1  0
 12 13  1  0
 13 14  1  0
 14 15  1  0
 15 16  2  0
 16 17  1  0
 17 18  2  0
 18 19  1  0
 19 20  2  0
  2 21  1  0
 21 22  2  0
 22 23  1  0
 23 24  2  0
 24 25  1  0
 25 26  2  0
 26 27  1  0
 26 28  1  0
 28 29  2  0
 29 30  1  0
 30 31  2  0
 12  7  1  0
 20 15  1  0
 31 21  1  0
 30 24  1  0
  3 32  1  0
  4 33  1  0
  4 34  1  0
  8 35  1  0
  8 36  1  0
  9 37  1  0
  9 38  1  0
 10 39  1  0
 10 40  1  0
 11 41  1  0
 11 42  1  0
 12 43  1  6
 13 44  1  0
 13 45  1  0
 14 46  1  0
 16 47  1  0
 17 48  1  0
 18 49  1  0
 19 50  1  0
 22 51  1  0
 23 52  1  0
 25 53  1  0
 28 54  1  0
 29 55  1  0
M  END
>  <smiles>  (87) 
O=C(NCC(=O)N1CCCCC1CNc1ccccn1)c1ccc2cc(F)ccc2n1

>  <score_type>  (87) 
oracle

>  <origin>  (87) 
autodockgpu

>  <m_score__min__energy>  (87) 
-8.8000000000000007

>  <m_primary>  (87) 
energy

>  <rmsd>  (87) 
2.216131852891638

>  <m_score__min__rmsd>  (87) 
2.216131852891638

>  <meeko>  (87) 
{"free_energy": -8.03, "intermolecular_energy": -10.11, "internal_energy": -2.72, "cluster_size": 30, "cluster_id": 1, "rank_in_cluster": 17}

>  <energy>  (87) 
-8.49

>  <cluster_rmsd>  (87) 
0.74

>  <cluster>  (87) 
2

$$$$

     RDKit          3D

 55 58  0  0  0  0  0  0  0  0999 V2000
  138.7720   71.1450  221.2250 O   0  0  0  0  0  0  0  0  0  0  0  0
  139.1270   71.7580  222.2830 C   0  0  0  0  0  0  0  0  0  0  0  0
  139.2660   73.1730  222.3320 N   0  0  0  0  0  0  0  0  0  0  0  0
  138.9900   73.9440  221.1270 C   0  0  0  0  0  0  0  0  0  0  0  0
  139.5720   75.2830  221.3350 C   0  0  0  0  0  0  0  0  0  0  0  0
  140.1360   75.6390  222.4180 O   0  0  0  0  0  0  0  0  0  0  0  0
  139.5490   76.3070  220.3150 N   0  0  0  0  0  0  0  0  0  0  0  0
  138.3150   77.0830  220.2480 C   0  0  0  0  0  0  0  0  0  0  0  0
  137.9870   77.6310  218.9170 C   0  0  0  0  0  0  0  0  0  0  0  0
  139.0460   77.6780  217.8930 C   0  0  0  0  0  0  0  0  0  0  0  0
  140.2160   76.7860  218.0650 C   0  0  0  0  0  0  0  0  0  0  0  0
  140.6700   76.5110  219.4590 C   0  0  1  0  0  0  0  0  0  0  0  0
  141.6870   77.5050  219.9580 C   0  0  0  0  0  0  0  0  0  0  0  0
  141.8120   77.5970  221.3720 N   0  0  0  0  0  0  0  0  0  0  0  0
  141.8300   78.8960  221.9710 C   0  0  0  0  0  0  0  0  0  0  0  0
  141.5130   80.0320  221.2620 C   0  0  0  0  0  0  0  0  0  0  0  0
  141.5210   81.2910  221.8140 C   0  0  0  0  0  0  0  0  0  0  0  0
  141.8610   81.4420  223.1390 C   0  0  0  0  0  0  0  0  0  0  0  0
  142.1770   80.3090  223.8460 C   0  0  0  0  0  0  0  0  0  0  0  0
  142.1600   79.0710  223.2710 N   0  0  0  0  0  0  0  0  0  0  0  0
  139.4030   70.9850  223.4930 C   0  0  0  0  0  0  0  0  0  0  0  0
  139.0890   69.6380  223.5450 C   0  0  0  0  0  0  0  0  0  0  0  0
  139.3250   68.8550  224.6590 C   0  0  0  0  0  0  0  0  0  0  0  0
  139.9010   69.4450  225.7670 C   0  0  0  0  0  0  0  0  0  0  0  0
  140.1380   68.6670  226.8830 C   0  0  0  0  0  0  0  0  0  0  0  0
  140.7140   69.2670  227.9850 C   0  0  0  0  0  0  0  0  0  0  0  0
  140.9560   68.5180  229.0930 F   0  0  0  0  0  0  0  0  0  0  0  0
  141.0240   70.6120  227.9260 C   0  0  0  0  0  0  0  0  0  0  0  0
  140.7870   71.3930  226.8120 C   0  0  0  0  0  0  0  0  0  0  0  0
  140.2120   70.7910  225.7100 C   0  0  0  0  0  0  0  0  0  0  0  0
  139.9630   71.5230  224.5940 N   0  0  0  0  0  0  0  0  0  0  0  0
  139.5570   73.6770  223.2040 H   0  0  0  0  0  0  0  0  0  0  0  0
  139.4535   73.4611  220.2541 H   0  0  0  0  0  0  0  0  0  0  0  0
  137.9081   74.0088  220.9392 H   0  0  0  0  0  0  0  0  0  0  0  0
  137.4860   76.4312  220.5611 H   0  0  0  0  0  0  0  0  0  0  0  0
  138.4651   77.9513  220.9064 H   0  0  0  0  0  0  0  0  0  0  0  0
  137.1676   77.0215  218.5083 H   0  0  0  0  0  0  0  0  0  0  0  0
  137.7553   78.6885  219.1120 H   0  0  0  0  0  0  0  0  0  0  0  0
  138.5807   77.4259  216.9287 H   0  0  0  0  0  0  0  0  0  0  0  0
  139.4599   78.6942  217.9704 H   0  0  0  0  0  0  0  0  0  0  0  0
  139.9651   75.8198  217.6030 H   0  0  0  0  0  0  0  0  0  0  0  0
  141.0527   77.3260  217.5978 H   0  0  0  0  0  0  0  0  0  0  0  0
  141.2317   75.5652  219.4628 H   0  0  0  0  0  0  0  0  0  0  0  0
  142.6677   77.2204  219.5491 H   0  0  0  0  0  0  0  0  0  0  0  0
  141.3350   78.4913  219.6215 H   0  0  0  0  0  0  0  0  0  0  0  0
  141.8920   76.7800  222.0150 H   0  0  0  0  0  0  0  0  0  0  0  0
  141.2398   79.9275  220.2016 H   0  0  0  0  0  0  0  0  0  0  0  0
  141.2586   82.1677  221.2036 H   0  0  0  0  0  0  0  0  0  0  0  0
  141.8788   82.4341  223.6138 H   0  0  0  0  0  0  0  0  0  0  0  0
  142.4520   80.4011  224.9071 H   0  0  0  0  0  0  0  0  0  0  0  0
  138.6315   69.1702  222.6608 H   0  0  0  0  0  0  0  0  0  0  0  0
  139.0604   67.7873  224.6632 H   0  0  0  0  0  0  0  0  0  0  0  0
  139.8752   67.5989  226.8937 H   0  0  0  0  0  0  0  0  0  0  0  0
  141.4814   71.0833  228.8084 H   0  0  0  0  0  0  0  0  0  0  0  0
  141.0481   72.4615  226.8027 H   0  0  0  0  0  0  0  0  0  0  0  0
  1  2  2  0
  2  3  1  0
  3  4  1  0
  4  5  1  0
  5  6  2  0
  5  7  1  0
  7  8  1  0
  8  9  1  0
  9 10  1  0
 10 11  1  0
 11 12  1  0
 12 13  1  0
 13 14  1  0
 14 15  1  0
 15 16  2  0
 16 17  1  0
 17 18  2  0
 18 19  1  0
 19 20  2  0
  2 21  1  0
 21 22  2  0
 22 23  1  0
 23 24  2  0
 24 25  1  0
 25 26  2  0
 26 27  1  0
 26 28  1  0
 28 29  2  0
 29 30  1  0
 30 31  2  0
 12  7  1  0
 20 15  1  0
 31 21  1  0
 30 24  1  0
  3 32  1  0
  4 33  1  0
  4 34  1  0
  8 35  1  0
  8 36  1  0
  9 37  1  0
  9 38  1  0
 10 39  1  0
 10 40  1  0
 11 41  1  0
 11 42  1  0
 12 43  1  6
 13 44  1  0
 13 45  1  0
 14 46  1  0
 16 47  1  0
 17 48  1  0
 18 49  1  0
 19 50  1  0
 22 51  1  0
 23 52  1  0
 25 53  1  0
 28 54  1  0
 29 55  1  0
M  END
>  <smiles>  (88) 
O=C(NCC(=O)N1CCCCC1CNc1ccccn1)c1ccc2cc(F)ccc2n1

>  <score_type>  (88) 
oracle

>  <origin>  (88) 
autodockgpu

>  <m_score__min__energy>  (88) 
-8.8000000000000007

>  <m_primary>  (88) 
energy

>  <rmsd>  (88) 
1.8744890321757466

>  <m_score__min__rmsd>  (88) 
1.8744890321757466

>  <meeko>  (88) 
{"free_energy": -7.83, "intermolecular_energy": -9.92, "internal_energy": -2.82, "cluster_size": 30, "cluster_id": 1, "rank_in_cluster": 25}

>  <energy>  (88) 
-8.48

>  <cluster_rmsd>  (88) 
1.37

>  <cluster>  (88) 
2

$$$$

     RDKit          3D

 55 58  0  0  0  0  0  0  0  0999 V2000
  137.6890   70.8190  222.0460 O   0  0  0  0  0  0  0  0  0  0  0  0
  138.5330   71.3040  222.8670 C   0  0  0  0  0  0  0  0  0  0  0  0
  139.0570   72.6200  222.7300 N   0  0  0  0  0  0  0  0  0  0  0  0
  138.6110   73.4360  221.6080 C   0  0  0  0  0  0  0  0  0  0  0  0
  139.5200   74.5940  221.5360 C   0  0  0  0  0  0  0  0  0  0  0  0
  140.6960   74.5910  222.0210 O   0  0  0  0  0  0  0  0  0  0  0  0
  139.1450   75.8390  220.9030 N   0  0  0  0  0  0  0  0  0  0  0  0
  138.0930   76.5850  221.5860 C   0  0  0  0  0  0  0  0  0  0  0  0
  137.2600   77.4390  220.7160 C   0  0  0  0  0  0  0  0  0  0  0  0
  137.7500   77.7570  219.3620 C   0  0  0  0  0  0  0  0  0  0  0  0
  138.7810   76.8720  218.7730 C   0  0  0  0  0  0  0  0  0  0  0  0
  139.7800   76.2690  219.7020 C   0  0  1  0  0  0  0  0  0  0  0  0
  141.0040   77.1260  219.8940 C   0  0  0  0  0  0  0  0  0  0  0  0
  141.5100   77.1860  221.2230 N   0  0  0  0  0  0  0  0  0  0  0  0
  141.5210   78.4490  221.8910 C   0  0  0  0  0  0  0  0  0  0  0  0
  141.7850   79.6260  221.2270 C   0  0  0  0  0  0  0  0  0  0  0  0
  141.8010   80.8530  221.8460 C   0  0  0  0  0  0  0  0  0  0  0  0
  141.5420   80.9290  223.1950 C   0  0  0  0  0  0  0  0  0  0  0  0
  141.2780   79.7560  223.8580 C   0  0  0  0  0  0  0  0  0  0  0  0
  141.2690   78.5510  223.2160 N   0  0  0  0  0  0  0  0  0  0  0  0
  138.9800   70.4860  223.9940 C   0  0  0  0  0  0  0  0  0  0  0  0
  138.7810   69.1170  223.9810 C   0  0  0  0  0  0  0  0  0  0  0  0
  139.1810   68.2910  225.0140 C   0  0  0  0  0  0  0  0  0  0  0  0
  139.8070   68.8600  226.1060 C   0  0  0  0  0  0  0  0  0  0  0  0
  140.2080   68.0390  227.1410 C   0  0  0  0  0  0  0  0  0  0  0  0
  140.8330   68.6190  228.2270 C   0  0  0  0  0  0  0  0  0  0  0  0
  141.2350   67.8280  229.2570 F   0  0  0  0  0  0  0  0  0  0  0  0
  141.0270   69.9860  228.2330 C   0  0  0  0  0  0  0  0  0  0  0  0
  140.6270   70.8110  227.1990 C   0  0  0  0  0  0  0  0  0  0  0  0
  140.0030   70.2290  226.1130 C   0  0  0  0  0  0  0  0  0  0  0  0
  139.5940   71.0030  225.0760 N   0  0  0  0  0  0  0  0  0  0  0  0
  139.7510   73.0190  223.4070 H   0  0  0  0  0  0  0  0  0  0  0  0
  138.6614   72.8563  220.6745 H   0  0  0  0  0  0  0  0  0  0  0  0
  137.5688   73.7601  221.7453 H   0  0  0  0  0  0  0  0  0  0  0  0
  137.4322   75.8612  222.0853 H   0  0  0  0  0  0  0  0  0  0  0  0
  138.6050   77.2662  222.2816 H   0  0  0  0  0  0  0  0  0  0  0  0
  136.2895   76.9345  220.5996 H   0  0  0  0  0  0  0  0  0  0  0  0
  137.2432   78.4111  221.2306 H   0  0  0  0  0  0  0  0  0  0  0  0
  136.8813   77.7423  218.6873 H   0  0  0  0  0  0  0  0  0  0  0  0
  138.2512   78.7300  219.4713 H   0  0  0  0  0  0  0  0  0  0  0  0
  138.2579   76.0457  218.2694 H   0  0  0  0  0  0  0  0  0  0  0  0
  139.3696   77.5262  218.1130 H   0  0  0  0  0  0  0  0  0  0  0  0
  140.1891   75.3621  219.2327 H   0  0  0  0  0  0  0  0  0  0  0  0
  141.7998   76.7295  219.2464 H   0  0  0  0  0  0  0  0  0  0  0  0
  140.6959   78.1516  219.6425 H   0  0  0  0  0  0  0  0  0  0  0  0
  141.8780   76.3670  221.7550 H   0  0  0  0  0  0  0  0  0  0  0  0
  141.9934   79.5821  220.1478 H   0  0  0  0  0  0  0  0  0  0  0  0
  142.0184   81.7641  221.2692 H   0  0  0  0  0  0  0  0  0  0  0  0
  141.5463   81.8940  223.7230 H   0  0  0  0  0  0  0  0  0  0  0  0
  141.0677   79.7879  224.9372 H   0  0  0  0  0  0  0  0  0  0  0  0
  138.2825   68.6663  223.1102 H   0  0  0  0  0  0  0  0  0  0  0  0
  139.0051   67.2061  224.9679 H   0  0  0  0  0  0  0  0  0  0  0  0
  140.0345   66.9535  227.1016 H   0  0  0  0  0  0  0  0  0  0  0  0
  141.5239   70.4403  229.1028 H   0  0  0  0  0  0  0  0  0  0  0  0
  140.8001   71.8965  227.2396 H   0  0  0  0  0  0  0  0  0  0  0  0
  1  2  2  0
  2  3  1  0
  3  4  1  0
  4  5  1  0
  5  6  2  0
  5  7  1  0
  7  8  1  0
  8  9  1  0
  9 10  1  0
 10 11  1  0
 11 12  1  0
 12 13  1  0
 13 14  1  0
 14 15  1  0
 15 16  2  0
 16 17  1  0
 17 18  2  0
 18 19  1  0
 19 20  2  0
  2 21  1  0
 21 22  2  0
 22 23  1  0
 23 24  2  0
 24 25  1  0
 25 26  2  0
 26 27  1  0
 26 28  1  0
 28 29  2  0
 29 30  1  0
 30 31  2  0
 12  7  1  0
 20 15  1  0
 31 21  1  0
 30 24  1  0
  3 32  1  0
  4 33  1  0
  4 34  1  0
  8 35  1  0
  8 36  1  0
  9 37  1  0
  9 38  1  0
 10 39  1  0
 10 40  1  0
 11 41  1  0
 11 42  1  0
 12 43  1  6
 13 44  1  0
 13 45  1  0
 14 46  1  0
 16 47  1  0
 17 48  1  0
 18 49  1  0
 19 50  1  0
 22 51  1  0
 23 52  1  0
 25 53  1  0
 28 54  1  0
 29 55  1  0
M  END
>  <smiles>  (89) 
O=C(NCC(=O)N1CCCCC1CNc1ccccn1)c1ccc2cc(F)ccc2n1

>  <score_type>  (89) 
oracle

>  <origin>  (89) 
autodockgpu

>  <m_score__min__energy>  (89) 
-8.8000000000000007

>  <m_primary>  (89) 
energy

>  <rmsd>  (89) 
2.3031944358143144

>  <m_score__min__rmsd>  (89) 
2.3031944358143144

>  <meeko>  (89) 
{"free_energy": -7.97, "intermolecular_energy": -10.06, "internal_energy": -2.8, "cluster_size": 30, "cluster_id": 1, "rank_in_cluster": 23}

>  <energy>  (89) 
-8.23

>  <cluster_rmsd>  (89) 
0.87

>  <cluster>  (89) 
2

$$$$

     RDKit          3D

 55 58  0  0  0  0  0  0  0  0999 V2000
  140.5290   72.0090  221.3230 O   0  0  0  0  0  0  0  0  0  0  0  0
  139.7380   72.2020  222.3020 C   0  0  0  0  0  0  0  0  0  0  0  0
  138.7270   73.2030  222.2770 N   0  0  0  0  0  0  0  0  0  0  0  0
  138.5980   74.0360  221.0880 C   0  0  0  0  0  0  0  0  0  0  0  0
  139.5570   75.1460  221.2400 C   0  0  0  0  0  0  0  0  0  0  0  0
  140.5410   75.1140  222.0440 O   0  0  0  0  0  0  0  0  0  0  0  0
  139.4530   76.3710  220.4800 N   0  0  0  0  0  0  0  0  0  0  0  0
  138.3180   77.2190  220.8290 C   0  0  0  0  0  0  0  0  0  0  0  0
  137.8070   78.0700  219.7350 C   0  0  0  0  0  0  0  0  0  0  0  0
  138.6560   78.2760  218.5470 C   0  0  0  0  0  0  0  0  0  0  0  0
  139.7360   77.2960  218.2880 C   0  0  0  0  0  0  0  0  0  0  0  0
  140.4100   76.6890  219.4720 C   0  0  1  0  0  0  0  0  0  0  0  0
  141.6020   77.4800  219.9450 C   0  0  0  0  0  0  0  0  0  0  0  0
  141.7740   77.5460  221.3560 N   0  0  0  0  0  0  0  0  0  0  0  0
  141.6570   78.8180  221.9970 C   0  0  0  0  0  0  0  0  0  0  0  0
  142.0430   79.9870  221.3800 C   0  0  0  0  0  0  0  0  0  0  0  0
  141.9410   81.2220  221.9740 C   0  0  0  0  0  0  0  0  0  0  0  0
  141.4300   81.3150  223.2480 C   0  0  0  0  0  0  0  0  0  0  0  0
  141.0450   80.1500  223.8650 C   0  0  0  0  0  0  0  0  0  0  0  0
  141.1580   78.9370  223.2490 N   0  0  0  0  0  0  0  0  0  0  0  0
  139.8660   71.3650  223.4950 C   0  0  0  0  0  0  0  0  0  0  0  0
  139.4730   70.0390  223.4610 C   0  0  0  0  0  0  0  0  0  0  0  0
  139.5700   69.2000  224.5540 C   0  0  0  0  0  0  0  0  0  0  0  0
  140.0830   69.7090  225.7300 C   0  0  0  0  0  0  0  0  0  0  0  0
  140.1810   68.8740  226.8260 C   0  0  0  0  0  0  0  0  0  0  0  0
  140.6960   69.3940  227.9970 C   0  0  0  0  0  0  0  0  0  0  0  0
  140.8010   68.5870  229.0860 F   0  0  0  0  0  0  0  0  0  0  0  0
  141.0860   70.7180  228.0230 C   0  0  0  0  0  0  0  0  0  0  0  0
  140.9880   71.5570  226.9300 C   0  0  0  0  0  0  0  0  0  0  0  0
  140.4740   71.0350  225.7590 C   0  0  0  0  0  0  0  0  0  0  0  0
  140.3620   71.8250  224.6600 N   0  0  0  0  0  0  0  0  0  0  0  0
  138.0750   73.3600  223.0830 H   0  0  0  0  0  0  0  0  0  0  0  0
  138.8359   73.4505  220.1877 H   0  0  0  0  0  0  0  0  0  0  0  0
  137.5706   74.4138  220.9800 H   0  0  0  0  0  0  0  0  0  0  0  0
  137.4975   76.5677  221.1647 H   0  0  0  0  0  0  0  0  0  0  0  0
  138.6800   77.9075  221.6068 H   0  0  0  0  0  0  0  0  0  0  0  0
  136.8654   77.6203  219.3869 H   0  0  0  0  0  0  0  0  0  0  0  0
  137.7293   79.0701  220.1864 H   0  0  0  0  0  0  0  0  0  0  0  0
  137.9949   78.2747  217.6678 H   0  0  0  0  0  0  0  0  0  0  0  0
  139.1830   79.2209  218.7454 H   0  0  0  0  0  0  0  0  0  0  0  0
  139.3022   76.4750  217.6983 H   0  0  0  0  0  0  0  0  0  0  0  0
  140.5235   77.8726  217.7807 H   0  0  0  0  0  0  0  0  0  0  0  0
  140.8580   75.7322  219.1656 H   0  0  0  0  0  0  0  0  0  0  0  0
  142.5048   77.0219  219.5148 H   0  0  0  0  0  0  0  0  0  0  0  0
  141.4281   78.5144  219.6138 H   0  0  0  0  0  0  0  0  0  0  0  0
  141.9820   76.7260  221.9670 H   0  0  0  0  0  0  0  0  0  0  0  0
  142.4534   79.9294  220.3611 H   0  0  0  0  0  0  0  0  0  0  0  0
  142.2642   82.1259  221.4370 H   0  0  0  0  0  0  0  0  0  0  0  0
  141.3333   82.2870  223.7539 H   0  0  0  0  0  0  0  0  0  0  0  0
  140.6340   80.1956  224.8843 H   0  0  0  0  0  0  0  0  0  0  0  0
  139.0655   69.6351  222.5225 H   0  0  0  0  0  0  0  0  0  0  0  0
  139.2460   68.1508  224.4888 H   0  0  0  0  0  0  0  0  0  0  0  0
  139.8578   67.8242  226.7676 H   0  0  0  0  0  0  0  0  0  0  0  0
  141.4947   71.1247  228.9598 H   0  0  0  0  0  0  0  0  0  0  0  0
  141.3091   72.6074  226.9902 H   0  0  0  0  0  0  0  0  0  0  0  0
  1  2  2  0
  2  3  1  0
  3  4  1  0
  4  5  1  0
  5  6  2  0
  5  7  1  0
  7  8  1  0
  8  9  1  0
  9 10  1  0
 10 11  1  0
 11 12  1  0
 12 13  1  0
 13 14  1  0
 14 15  1  0
 15 16  2  0
 16 17  1  0
 17 18  2  0
 18 19  1  0
 19 20  2  0
  2 21  1  0
 21 22  2  0
 22 23  1  0
 23 24  2  0
 24 25  1  0
 25 26  2  0
 26 27  1  0
 26 28  1  0
 28 29  2  0
 29 30  1  0
 30 31  2  0
 12  7  1  0
 20 15  1  0
 31 21  1  0
 30 24  1  0
  3 32  1  0
  4 33  1  0
  4 34  1  0
  8 35  1  0
  8 36  1  0
  9 37  1  0
  9 38  1  0
 10 39  1  0
 10 40  1  0
 11 41  1  0
 11 42  1  0
 12 43  1  6
 13 44  1  0
 13 45  1  0
 14 46  1  0
 16 47  1  0
 17 48  1  0
 18 49  1  0
 19 50  1  0
 22 51  1  0
 23 52  1  0
 25 53  1  0
 28 54  1  0
 29 55  1  0
M  END
>  <smiles>  (90) 
O=C(NCC(=O)N1CCCCC1CNc1ccccn1)c1ccc2cc(F)ccc2n1

>  <score_type>  (90) 
oracle

>  <origin>  (90) 
autodockgpu

>  <m_score__min__energy>  (90) 
-8.8000000000000007

>  <m_primary>  (90) 
energy

>  <rmsd>  (90) 
2.065280570810367

>  <m_score__min__rmsd>  (90) 
2.065280570810367

>  <meeko>  (90) 
{"free_energy": -8.02, "intermolecular_energy": -10.11, "internal_energy": -2.24, "cluster_size": 30, "cluster_id": 1, "rank_in_cluster": 18}

>  <energy>  (90) 
-8.21

>  <cluster_rmsd>  (90) 
1.09

>  <cluster>  (90) 
2

$$$$

     RDKit          3D

 55 58  0  0  0  0  0  0  0  0999 V2000
  141.4190   72.5390  221.6230 O   0  0  0  0  0  0  0  0  0  0  0  0
  140.4470   72.6660  222.4360 C   0  0  0  0  0  0  0  0  0  0  0  0
  139.5080   73.7310  222.3370 N   0  0  0  0  0  0  0  0  0  0  0  0
  139.6680   74.7070  221.2670 C   0  0  0  0  0  0  0  0  0  0  0  0
  138.7000   75.7880  221.5290 C   0  0  0  0  0  0  0  0  0  0  0  0
  137.6030   75.6090  222.1470 O   0  0  0  0  0  0  0  0  0  0  0  0
  138.9230   77.1500  221.1000 N   0  0  0  0  0  0  0  0  0  0  0  0
  138.4590   78.1740  222.0320 C   0  0  0  0  0  0  0  0  0  0  0  0
  138.0690   79.4570  221.4140 C   0  0  0  0  0  0  0  0  0  0  0  0
  138.5010   79.7360  220.0330 C   0  0  0  0  0  0  0  0  0  0  0  0
  138.8880   78.5860  219.1830 C   0  0  0  0  0  0  0  0  0  0  0  0
  139.5520   77.4300  219.8520 C   0  0  1  0  0  0  0  0  0  0  0  0
  141.0520   77.5580  219.9030 C   0  0  0  0  0  0  0  0  0  0  0  0
  141.6350   77.4300  221.1950 N   0  0  0  0  0  0  0  0  0  0  0  0
  141.7650   78.6020  222.0040 C   0  0  0  0  0  0  0  0  0  0  0  0
  141.9360   79.8530  221.4560 C   0  0  0  0  0  0  0  0  0  0  0  0
  142.0620   80.9940  222.2100 C   0  0  0  0  0  0  0  0  0  0  0  0
  142.0170   80.9020  223.5820 C   0  0  0  0  0  0  0  0  0  0  0  0
  141.8460   79.6540  224.1290 C   0  0  0  0  0  0  0  0  0  0  0  0
  141.7240   78.5380  223.3540 N   0  0  0  0  0  0  0  0  0  0  0  0
  140.2850   71.6860  223.5090 C   0  0  0  0  0  0  0  0  0  0  0  0
  139.6450   70.4850  223.2630 C   0  0  0  0  0  0  0  0  0  0  0  0
  139.4610   69.5200  224.2350 C   0  0  0  0  0  0  0  0  0  0  0  0
  139.9410   69.7670  225.5060 C   0  0  0  0  0  0  0  0  0  0  0  0
  139.7600   68.8060  226.4800 C   0  0  0  0  0  0  0  0  0  0  0  0
  140.2430   69.0640  227.7480 C   0  0  0  0  0  0  0  0  0  0  0  0
  140.0750   68.1300  228.7210 F   0  0  0  0  0  0  0  0  0  0  0  0
  140.8820   70.2650  227.9860 C   0  0  0  0  0  0  0  0  0  0  0  0
  141.0640   71.2290  227.0130 C   0  0  0  0  0  0  0  0  0  0  0  0
  140.5800   70.9690  225.7460 C   0  0  0  0  0  0  0  0  0  0  0  0
  140.7390   71.8900  224.7610 N   0  0  0  0  0  0  0  0  0  0  0  0
  138.7070   73.8340  223.0060 H   0  0  0  0  0  0  0  0  0  0  0  0
  140.6926   75.1072  221.2694 H   0  0  0  0  0  0  0  0  0  0  0  0
  139.4903   74.2475  220.2835 H   0  0  0  0  0  0  0  0  0  0  0  0
  137.5853   77.7752  222.5682 H   0  0  0  0  0  0  0  0  0  0  0  0
  139.3128   78.3986  222.6882 H   0  0  0  0  0  0  0  0  0  0  0  0
  136.9699   79.5011  221.4249 H   0  0  0  0  0  0  0  0  0  0  0  0
  138.5922   80.2143  222.0163 H   0  0  0  0  0  0  0  0  0  0  0  0
  137.6713   80.2523  219.5280 H   0  0  0  0  0  0  0  0  0  0  0  0
  139.4263   80.3200  220.1457 H   0  0  0  0  0  0  0  0  0  0  0  0
  137.9733   78.2082  218.7028 H   0  0  0  0  0  0  0  0  0  0  0  0
  139.6476   78.9873  218.4960 H   0  0  0  0  0  0  0  0  0  0  0  0
  139.4045   76.5347  219.2301 H   0  0  0  0  0  0  0  0  0  0  0  0
  141.4808   76.7761  219.2589 H   0  0  0  0  0  0  0  0  0  0  0  0
  141.2789   78.5814  219.5697 H   0  0  0  0  0  0  0  0  0  0  0  0
  141.9800   76.5330  221.6040 H   0  0  0  0  0  0  0  0  0  0  0  0
  141.9736   79.9433  220.3604 H   0  0  0  0  0  0  0  0  0  0  0  0
  142.1974   81.9707  221.7223 H   0  0  0  0  0  0  0  0  0  0  0  0
  142.1144   81.7948  224.2171 H   0  0  0  0  0  0  0  0  0  0  0  0
  141.8062   79.5513  225.2235 H   0  0  0  0  0  0  0  0  0  0  0  0
  139.2658   70.2892  222.2492 H   0  0  0  0  0  0  0  0  0  0  0  0
  138.9443   68.5773  224.0017 H   0  0  0  0  0  0  0  0  0  0  0  0
  139.2453   67.8608  226.2527 H   0  0  0  0  0  0  0  0  0  0  0  0
  141.2642   70.4635  228.9982 H   0  0  0  0  0  0  0  0  0  0  0  0
  141.5785   72.1743  227.2405 H   0  0  0  0  0  0  0  0  0  0  0  0
  1  2  2  0
  2  3  1  0
  3  4  1  0
  4  5  1  0
  5  6  2  0
  5  7  1  0
  7  8  1  0
  8  9  1  0
  9 10  1  0
 10 11  1  0
 11 12  1  0
 12 13  1  0
 13 14  1  0
 14 15  1  0
 15 16  2  0
 16 17  1  0
 17 18  2  0
 18 19  1  0
 19 20  2  0
  2 21  1  0
 21 22  2  0
 22 23  1  0
 23 24  2  0
 24 25  1  0
 25 26  2  0
 26 27  1  0
 26 28  1  0
 28 29  2  0
 29 30  1  0
 30 31  2  0
 12  7  1  0
 20 15  1  0
 31 21  1  0
 30 24  1  0
  3 32  1  0
  4 33  1  0
  4 34  1  0
  8 35  1  0
  8 36  1  0
  9 37  1  0
  9 38  1  0
 10 39  1  0
 10 40  1  0
 11 41  1  0
 11 42  1  0
 12 43  1  6
 13 44  1  0
 13 45  1  0
 14 46  1  0
 16 47  1  0
 17 48  1  0
 18 49  1  0
 19 50  1  0
 22 51  1  0
 23 52  1  0
 25 53  1  0
 28 54  1  0
 29 55  1  0
M  END
>  <smiles>  (91) 
O=C(NCC(=O)N1CCCCC1CNc1ccccn1)c1ccc2cc(F)ccc2n1

>  <score_type>  (91) 
oracle

>  <origin>  (91) 
autodockgpu

>  <m_score__min__energy>  (91) 
-8.8000000000000007

>  <m_primary>  (91) 
energy

>  <rmsd>  (91) 
2.8817408389449697

>  <m_score__min__rmsd>  (91) 
2.8817408389449697

>  <meeko>  (91) 
{"free_energy": -8.03, "intermolecular_energy": -10.12, "internal_energy": -2.3, "cluster_size": 30, "cluster_id": 1, "rank_in_cluster": 16}

>  <energy>  (91) 
-7.97

>  <cluster_rmsd>  (91) 
1.3

>  <cluster>  (91) 
2

$$$$

     RDKit          3D

 55 58  0  0  0  0  0  0  0  0999 V2000
  139.2340   70.8280  221.1680 O   0  0  0  0  0  0  0  0  0  0  0  0
  139.4070   71.4480  222.2670 C   0  0  0  0  0  0  0  0  0  0  0  0
  139.4430   72.8690  222.3420 N   0  0  0  0  0  0  0  0  0  0  0  0
  139.2780   73.6370  221.1140 C   0  0  0  0  0  0  0  0  0  0  0  0
  140.1160   74.8420  221.2500 C   0  0  0  0  0  0  0  0  0  0  0  0
  140.1850   75.5280  222.3190 O   0  0  0  0  0  0  0  0  0  0  0  0
  140.9340   75.3450  220.1700 N   0  0  0  0  0  0  0  0  0  0  0  0
  140.4980   74.9540  218.8330 C   0  0  0  0  0  0  0  0  0  0  0  0
  141.5700   74.8680  217.8210 C   0  0  0  0  0  0  0  0  0  0  0  0
  142.8670   75.5060  218.1110 C   0  0  0  0  0  0  0  0  0  0  0  0
  143.1980   75.7900  219.5270 C   0  0  0  0  0  0  0  0  0  0  0  0
  142.0730   76.1600  220.4340 C   0  0  1  0  0  0  0  0  0  0  0  0
  141.8080   77.6430  220.4740 C   0  0  0  0  0  0  0  0  0  0  0  0
  140.9830   78.0900  221.5430 N   0  0  0  0  0  0  0  0  0  0  0  0
  141.3930   79.2410  222.2860 C   0  0  0  0  0  0  0  0  0  0  0  0
  142.1810   79.1430  223.4100 C   0  0  0  0  0  0  0  0  0  0  0  0
  142.5900   80.2320  224.1410 C   0  0  0  0  0  0  0  0  0  0  0  0
  142.2030   81.4910  223.7430 C   0  0  0  0  0  0  0  0  0  0  0  0
  141.4180   81.5900  222.6220 C   0  0  0  0  0  0  0  0  0  0  0  0
  141.0270   80.4890  221.9160 N   0  0  0  0  0  0  0  0  0  0  0  0
  139.5710   70.6780  223.4990 C   0  0  0  0  0  0  0  0  0  0  0  0
  139.1350   69.3670  223.5640 C   0  0  0  0  0  0  0  0  0  0  0  0
  139.2620   68.5880  224.6990 C   0  0  0  0  0  0  0  0  0  0  0  0
  139.8540   69.1460  225.8150 C   0  0  0  0  0  0  0  0  0  0  0  0
  139.9830   68.3720  226.9520 C   0  0  0  0  0  0  0  0  0  0  0  0
  140.5760   68.9400  228.0620 C   0  0  0  0  0  0  0  0  0  0  0  0
  140.7130   68.1940  229.1900 F   0  0  0  0  0  0  0  0  0  0  0  0
  141.0100   70.2490  227.9900 C   0  0  0  0  0  0  0  0  0  0  0  0
  140.8810   71.0260  226.8550 C   0  0  0  0  0  0  0  0  0  0  0  0
  140.2880   70.4570  225.7450 C   0  0  0  0  0  0  0  0  0  0  0  0
  140.1430   71.1860  224.6090 N   0  0  0  0  0  0  0  0  0  0  0  0
  139.5840   73.3790  223.2470 H   0  0  0  0  0  0  0  0  0  0  0  0
  139.6066   73.0428  220.2486 H   0  0  0  0  0  0  0  0  0  0  0  0
  138.2232   73.9055  220.9549 H   0  0  0  0  0  0  0  0  0  0  0  0
  140.0197   73.9662  218.9066 H   0  0  0  0  0  0  0  0  0  0  0  0
  139.8180   75.7477  218.4899 H   0  0  0  0  0  0  0  0  0  0  0  0
  141.7660   73.7998  217.6462 H   0  0  0  0  0  0  0  0  0  0  0  0
  141.1770   75.4363  216.9651 H   0  0  0  0  0  0  0  0  0  0  0  0
  143.6528   74.8448  217.7170 H   0  0  0  0  0  0  0  0  0  0  0  0
  142.7987   76.4973  217.6392 H   0  0  0  0  0  0  0  0  0  0  0  0
  143.6736   74.8890  219.9418 H   0  0  0  0  0  0  0  0  0  0  0  0
  143.8374   76.6844  219.4925 H   0  0  0  0  0  0  0  0  0  0  0  0
  142.3712   75.9383  221.4693 H   0  0  0  0  0  0  0  0  0  0  0  0
  142.7765   78.1581  220.5555 H   0  0  0  0  0  0  0  0  0  0  0  0
  141.2575   77.8759  219.5506 H   0  0  0  0  0  0  0  0  0  0  0  0
  140.0890   77.6360  221.8320 H   0  0  0  0  0  0  0  0  0  0  0  0
  142.4992   78.1429  223.7396 H   0  0  0  0  0  0  0  0  0  0  0  0
  143.2191   80.0990  225.0335 H   0  0  0  0  0  0  0  0  0  0  0  0
  142.5118   82.3858  224.3033 H   0  0  0  0  0  0  0  0  0  0  0  0
  141.0945   82.5850  222.2825 H   0  0  0  0  0  0  0  0  0  0  0  0
  138.6662   68.9244  222.6727 H   0  0  0  0  0  0  0  0  0  0  0  0
  138.9004   67.5492  224.7129 H   0  0  0  0  0  0  0  0  0  0  0  0
  139.6235   67.3326  226.9724 H   0  0  0  0  0  0  0  0  0  0  0  0
  141.4809   70.6943  228.8788 H   0  0  0  0  0  0  0  0  0  0  0  0
  141.2395   72.0658  226.8359 H   0  0  0  0  0  0  0  0  0  0  0  0
  1  2  2  0
  2  3  1  0
  3  4  1  0
  4  5  1  0
  5  6  2  0
  5  7  1  0
  7  8  1  0
  8  9  1  0
  9 10  1  0
 10 11  1  0
 11 12  1  0
 12 13  1  0
 13 14  1  0
 14 15  1  0
 15 16  2  0
 16 17  1  0
 17 18  2  0
 18 19  1  0
 19 20  2  0
  2 21  1  0
 21 22  2  0
 22 23  1  0
 23 24  2  0
 24 25  1  0
 25 26  2  0
 26 27  1  0
 26 28  1  0
 28 29  2  0
 29 30  1  0
 30 31  2  0
 12  7  1  0
 20 15  1  0
 31 21  1  0
 30 24  1  0
  3 32  1  0
  4 33  1  0
  4 34  1  0
  8 35  1  0
  8 36  1  0
  9 37  1  0
  9 38  1  0
 10 39  1  0
 10 40  1  0
 11 41  1  0
 11 42  1  0
 12 43  1  1
 13 44  1  0
 13 45  1  0
 14 46  1  0
 16 47  1  0
 17 48  1  0
 18 49  1  0
 19 50  1  0
 22 51  1  0
 23 52  1  0
 25 53  1  0
 28 54  1  0
 29 55  1  0
M  END
>  <smiles>  (92) 
O=C(NCC(=O)N1CCCCC1CNc1ccccn1)c1ccc2cc(F)ccc2n1

>  <score_type>  (92) 
oracle

>  <origin>  (92) 
autodockgpu

>  <m_score__min__energy>  (92) 
-8.8000000000000007

>  <m_primary>  (92) 
energy

>  <rmsd>  (92) 
2.0479626316854835

>  <m_score__min__rmsd>  (92) 
2.0479626316854835

>  <meeko>  (92) 
{"free_energy": -8.21, "intermolecular_energy": -10.29, "internal_energy": -2.37, "cluster_size": 30, "cluster_id": 1, "rank_in_cluster": 13}

>  <energy>  (92) 
-7.85

>  <cluster_rmsd>  (92) 
1.15

>  <cluster>  (92) 
2

$$$$

     RDKit          3D

 55 58  0  0  0  0  0  0  0  0999 V2000
  139.1250   70.9680  221.1130 O   0  0  0  0  0  0  0  0  0  0  0  0
  139.3130   71.5970  222.2040 C   0  0  0  0  0  0  0  0  0  0  0  0
  139.3380   73.0190  222.2690 N   0  0  0  0  0  0  0  0  0  0  0  0
  139.1400   73.7770  221.0400 C   0  0  0  0  0  0  0  0  0  0  0  0
  139.7000   75.1210  221.2750 C   0  0  0  0  0  0  0  0  0  0  0  0
  140.2950   75.4520  222.3490 O   0  0  0  0  0  0  0  0  0  0  0  0
  139.6160   76.1790  220.2930 N   0  0  0  0  0  0  0  0  0  0  0  0
  138.3340   76.8740  220.2430 C   0  0  0  0  0  0  0  0  0  0  0  0
  137.9790   77.4490  218.9300 C   0  0  0  0  0  0  0  0  0  0  0  0
  139.0410   77.6040  217.9190 C   0  0  0  0  0  0  0  0  0  0  0  0
  140.2660   76.7850  218.0690 C   0  0  0  0  0  0  0  0  0  0  0  0
  140.7270   76.4880  219.4560 C   0  0  1  0  0  0  0  0  0  0  0  0
  141.6730   77.5280  220.0010 C   0  0  0  0  0  0  0  0  0  0  0  0
  141.8060   77.5530  221.4170 N   0  0  0  0  0  0  0  0  0  0  0  0
  141.6330   78.7990  222.0960 C   0  0  0  0  0  0  0  0  0  0  0  0
  140.7910   78.9320  223.1780 C   0  0  0  0  0  0  0  0  0  0  0  0
  140.6070   80.1170  223.8480 C   0  0  0  0  0  0  0  0  0  0  0  0
  141.2890   81.2370  223.4320 C   0  0  0  0  0  0  0  0  0  0  0  0
  142.1280   81.1060  222.3540 C   0  0  0  0  0  0  0  0  0  0  0  0
  142.2910   79.9150  221.7070 N   0  0  0  0  0  0  0  0  0  0  0  0
  139.5100   70.8360  223.4370 C   0  0  0  0  0  0  0  0  0  0  0  0
  139.0960   69.5190  223.5160 C   0  0  0  0  0  0  0  0  0  0  0  0
  139.2540   68.7490  224.6520 C   0  0  0  0  0  0  0  0  0  0  0  0
  139.8540   69.3220  225.7560 C   0  0  0  0  0  0  0  0  0  0  0  0
  140.0150   68.5570  226.8940 C   0  0  0  0  0  0  0  0  0  0  0  0
  140.6160   69.1400  227.9920 C   0  0  0  0  0  0  0  0  0  0  0  0
  140.7830   68.4030  229.1220 F   0  0  0  0  0  0  0  0  0  0  0  0
  141.0280   70.4560  227.9060 C   0  0  0  0  0  0  0  0  0  0  0  0
  140.8680   71.2240  226.7690 C   0  0  0  0  0  0  0  0  0  0  0  0
  140.2670   70.6390  225.6720 C   0  0  0  0  0  0  0  0  0  0  0  0
  140.0910   71.3590  224.5350 N   0  0  0  0  0  0  0  0  0  0  0  0
  139.4920   73.5350  223.1680 H   0  0  0  0  0  0  0  0  0  0  0  0
  139.6640   73.2888  220.2051 H   0  0  0  0  0  0  0  0  0  0  0  0
  138.0732   73.8336  220.7780 H   0  0  0  0  0  0  0  0  0  0  0  0
  137.5479   76.1578  220.5241 H   0  0  0  0  0  0  0  0  0  0  0  0
  138.4221   77.7252  220.9342 H   0  0  0  0  0  0  0  0  0  0  0  0
  137.2048   76.8025  218.4911 H   0  0  0  0  0  0  0  0  0  0  0  0
  137.6751   78.4806  219.1613 H   0  0  0  0  0  0  0  0  0  0  0  0
  138.6007   77.3587  216.9413 H   0  0  0  0  0  0  0  0  0  0  0  0
  139.3866   78.6414  218.0390 H   0  0  0  0  0  0  0  0  0  0  0  0
  140.0828   75.8225  217.5689 H   0  0  0  0  0  0  0  0  0  0  0  0
  141.0686   77.3961  217.6304 H   0  0  0  0  0  0  0  0  0  0  0  0
  141.3495   75.5814  219.4305 H   0  0  0  0  0  0  0  0  0  0  0  0
  142.6677   77.3401  219.5705 H   0  0  0  0  0  0  0  0  0  0  0  0
  141.2451   78.5018  219.7207 H   0  0  0  0  0  0  0  0  0  0  0  0
  142.0240   76.7200  222.0080 H   0  0  0  0  0  0  0  0  0  0  0  0
  140.2386   78.0454  223.5226 H   0  0  0  0  0  0  0  0  0  0  0  0
  139.9222   80.1698  224.7073 H   0  0  0  0  0  0  0  0  0  0  0  0
  141.1663   82.2024  223.9448 H   0  0  0  0  0  0  0  0  0  0  0  0
  142.6854   81.9862  222.0010 H   0  0  0  0  0  0  0  0  0  0  0  0
  138.6196   69.0642  222.6350 H   0  0  0  0  0  0  0  0  0  0  0  0
  138.9101   67.7044  224.6766 H   0  0  0  0  0  0  0  0  0  0  0  0
  139.6738   67.5117  226.9251 H   0  0  0  0  0  0  0  0  0  0  0  0
  141.5061   70.9138  228.7845 H   0  0  0  0  0  0  0  0  0  0  0  0
  141.2089   72.2694  226.7384 H   0  0  0  0  0  0  0  0  0  0  0  0
  1  2  2  0
  2  3  1  0
  3  4  1  0
  4  5  1  0
  5  6  2  0
  5  7  1  0
  7  8  1  0
  8  9  1  0
  9 10  1  0
 10 11  1  0
 11 12  1  0
 12 13  1  0
 13 14  1  0
 14 15  1  0
 15 16  2  0
 16 17  1  0
 17 18  2  0
 18 19  1  0
 19 20  2  0
  2 21  1  0
 21 22  2  0
 22 23  1  0
 23 24  2  0
 24 25  1  0
 25 26  2  0
 26 27  1  0
 26 28  1  0
 28 29  2  0
 29 30  1  0
 30 31  2  0
 12  7  1  0
 20 15  1  0
 31 21  1  0
 30 24  1  0
  3 32  1  0
  4 33  1  0
  4 34  1  0
  8 35  1  0
  8 36  1  0
  9 37  1  0
  9 38  1  0
 10 39  1  0
 10 40  1  0
 11 41  1  0
 11 42  1  0
 12 43  1  6
 13 44  1  0
 13 45  1  0
 14 46  1  0
 16 47  1  0
 17 48  1  0
 18 49  1  0
 19 50  1  0
 22 51  1  0
 23 52  1  0
 25 53  1  0
 28 54  1  0
 29 55  1  0
M  END
>  <smiles>  (93) 
O=C(NCC(=O)N1CCCCC1CNc1ccccn1)c1ccc2cc(F)ccc2n1

>  <score_type>  (93) 
oracle

>  <origin>  (93) 
autodockgpu

>  <m_score__min__energy>  (93) 
-8.8000000000000007

>  <m_primary>  (93) 
energy

>  <rmsd>  (93) 
1.9849578688489358

>  <m_score__min__rmsd>  (93) 
1.9849578688489358

>  <meeko>  (93) 
{"free_energy": -7.71, "intermolecular_energy": -9.8, "internal_energy": -2.77, "cluster_size": 30, "cluster_id": 1, "rank_in_cluster": 27}

>  <energy>  (93) 
-7.71

>  <cluster_rmsd>  (93) 
0.0

>  <cluster>  (93) 
3

$$$$

     RDKit          3D

 55 58  0  0  0  0  0  0  0  0999 V2000
  139.2690   74.9100  222.3630 O   0  0  0  0  0  0  0  0  0  0  0  0
  140.0230   75.2100  221.3810 C   0  0  0  0  0  0  0  0  0  0  0  0
  139.7840   76.3460  220.5580 N   0  0  0  0  0  0  0  0  0  0  0  0
  138.6350   77.1920  220.8540 C   0  0  0  0  0  0  0  0  0  0  0  0
  138.9740   77.9630  222.0640 C   0  0  0  0  0  0  0  0  0  0  0  0
  138.2370   77.9990  223.0990 O   0  0  0  0  0  0  0  0  0  0  0  0
  140.1840   78.7470  222.1710 N   0  0  0  0  0  0  0  0  0  0  0  0
  141.2540   78.1260  222.9450 C   0  0  0  0  0  0  0  0  0  0  0  0
  142.1790   79.0670  223.6100 C   0  0  0  0  0  0  0  0  0  0  0  0
  142.1890   80.4740  223.1710 C   0  0  0  0  0  0  0  0  0  0  0  0
  141.0030   80.9820  222.4440 C   0  0  0  0  0  0  0  0  0  0  0  0
  140.2840   80.0270  221.5520 C   0  0  1  0  0  0  0  0  0  0  0  0
  140.8160   80.0190  220.1420 C   0  0  0  0  0  0  0  0  0  0  0  0
  142.1230   79.4810  219.9820 N   0  0  0  0  0  0  0  0  0  0  0  0
  142.3420   78.5160  218.9500 C   0  0  0  0  0  0  0  0  0  0  0  0
  142.5470   78.8820  217.6390 C   0  0  0  0  0  0  0  0  0  0  0  0
  142.7610   77.9760  216.6280 C   0  0  0  0  0  0  0  0  0  0  0  0
  142.7740   76.6320  216.9220 C   0  0  0  0  0  0  0  0  0  0  0  0
  142.5700   76.2660  218.2300 C   0  0  0  0  0  0  0  0  0  0  0  0
  142.3600   77.1890  219.2130 N   0  0  0  0  0  0  0  0  0  0  0  0
  141.1760   74.3610  221.0860 C   0  0  0  0  0  0  0  0  0  0  0  0
  141.0200   72.9910  220.9650 C   0  0  0  0  0  0  0  0  0  0  0  0
  142.0710   72.1380  220.6880 C   0  0  0  0  0  0  0  0  0  0  0  0
  143.3310   72.6790  220.5220 C   0  0  0  0  0  0  0  0  0  0  0  0
  144.3840   71.8300  220.2440 C   0  0  0  0  0  0  0  0  0  0  0  0
  145.6390   72.3820  220.0810 C   0  0  0  0  0  0  0  0  0  0  0  0
  146.6890   71.5620  219.8070 F   0  0  0  0  0  0  0  0  0  0  0  0
  145.7870   73.7490  220.2020 C   0  0  0  0  0  0  0  0  0  0  0  0
  144.7360   74.6010  220.4810 C   0  0  0  0  0  0  0  0  0  0  0  0
  143.4810   74.0480  220.6430 C   0  0  0  0  0  0  0  0  0  0  0  0
  142.4200   74.8500  220.9170 N   0  0  0  0  0  0  0  0  0  0  0  0
  140.4050   76.5930  219.7510 H   0  0  0  0  0  0  0  0  0  0  0  0
  138.4400   77.8736  220.0130 H   0  0  0  0  0  0  0  0  0  0  0  0
  137.7299   76.5872  221.0121 H   0  0  0  0  0  0  0  0  0  0  0  0
  140.7920   77.4979  223.7209 H   0  0  0  0  0  0  0  0  0  0  0  0
  141.8619   77.5594  222.2243 H   0  0  0  0  0  0  0  0  0  0  0  0
  141.9307   79.0633  224.6816 H   0  0  0  0  0  0  0  0  0  0  0  0
  143.1790   78.6950  223.3422 H   0  0  0  0  0  0  0  0  0  0  0  0
  142.3139   81.0964  224.0693 H   0  0  0  0  0  0  0  0  0  0  0  0
  143.0063   80.5278  222.4367 H   0  0  0  0  0  0  0  0  0  0  0  0
  140.2827   81.3378  223.1954 H   0  0  0  0  0  0  0  0  0  0  0  0
  141.3970   81.7557  221.7686 H   0  0  0  0  0  0  0  0  0  0  0  0
  139.2512   80.3822  221.4214 H   0  0  0  0  0  0  0  0  0  0  0  0
  140.1272   79.4247  219.5236 H   0  0  0  0  0  0  0  0  0  0  0  0
  140.8857   81.0745  219.8404 H   0  0  0  0  0  0  0  0  0  0  0  0
  142.9470   79.7390  220.5690 H   0  0  0  0  0  0  0  0  0  0  0  0
  142.5391   79.9530  217.3880 H   0  0  0  0  0  0  0  0  0  0  0  0
  142.9200   78.3213  215.5958 H   0  0  0  0  0  0  0  0  0  0  0  0
  142.9416   75.8784  216.1384 H   0  0  0  0  0  0  0  0  0  0  0  0
  142.5761   75.1979  218.4928 H   0  0  0  0  0  0  0  0  0  0  0  0
  140.0152   72.5626  221.0951 H   0  0  0  0  0  0  0  0  0  0  0  0
  141.9081   71.0536  220.6017 H   0  0  0  0  0  0  0  0  0  0  0  0
  144.2274   70.7449  220.1550 H   0  0  0  0  0  0  0  0  0  0  0  0
  146.7901   74.1807  220.0699 H   0  0  0  0  0  0  0  0  0  0  0  0
  144.8938   75.6859  220.5713 H   0  0  0  0  0  0  0  0  0  0  0  0
  1  2  2  0
  2  3  1  0
  3  4  1  0
  4  5  1  0
  5  6  2  0
  5  7  1  0
  7  8  1  0
  8  9  1  0
  9 10  1  0
 10 11  1  0
 11 12  1  0
 12 13  1  0
 13 14  1  0
 14 15  1  0
 15 16  2  0
 16 17  1  0
 17 18  2  0
 18 19  1  0
 19 20  2  0
  2 21  1  0
 21 22  2  0
 22 23  1  0
 23 24  2  0
 24 25  1  0
 25 26  2  0
 26 27  1  0
 26 28  1  0
 28 29  2  0
 29 30  1  0
 30 31  2  0
 12  7  1  0
 20 15  1  0
 31 21  1  0
 30 24  1  0
  3 32  1  0
  4 33  1  0
  4 34  1  0
  8 35  1  0
  8 36  1  0
  9 37  1  0
  9 38  1  0
 10 39  1  0
 10 40  1  0
 11 41  1  0
 11 42  1  0
 12 43  1  6
 13 44  1  0
 13 45  1  0
 14 46  1  0
 16 47  1  0
 17 48  1  0
 18 49  1  0
 19 50  1  0
 22 51  1  0
 23 52  1  0
 25 53  1  0
 28 54  1  0
 29 55  1  0
M  END
>  <smiles>  (94) 
O=C(NCC(=O)N1CCCCC1CNc1ccccn1)c1ccc2cc(F)ccc2n1

>  <score_type>  (94) 
oracle

>  <origin>  (94) 
autodockgpu

>  <m_score__min__energy>  (94) 
-8.8000000000000007

>  <m_primary>  (94) 
energy

>  <rmsd>  (94) 
6.276257382716329

>  <m_score__min__rmsd>  (94) 
6.276257382716329

>  <meeko>  (94) 
{"free_energy": -6.59, "intermolecular_energy": -8.68, "internal_energy": -3.26, "cluster_size": 1, "cluster_id": 6, "rank_in_cluster": 1}

>  <energy>  (94) 
-7.57

>  <cluster_rmsd>  (94) 
0.41

>  <cluster>  (94) 
3

$$$$

     RDKit          3D

 55 58  0  0  0  0  0  0  0  0999 V2000
  139.1080   71.1280  221.1690 O   0  0  0  0  0  0  0  0  0  0  0  0
  139.3300   71.7480  222.2590 C   0  0  0  0  0  0  0  0  0  0  0  0
  139.3970   73.1680  222.3260 N   0  0  0  0  0  0  0  0  0  0  0  0
  139.2030   73.9350  221.1020 C   0  0  0  0  0  0  0  0  0  0  0  0
  140.0620   75.1290  221.2070 C   0  0  0  0  0  0  0  0  0  0  0  0
  140.4740   75.5970  222.3150 O   0  0  0  0  0  0  0  0  0  0  0  0
  140.5080   75.8690  220.0490 N   0  0  0  0  0  0  0  0  0  0  0  0
  139.4870   76.0970  219.0310 C   0  0  0  0  0  0  0  0  0  0  0  0
  139.9920   76.2340  217.6500 C   0  0  0  0  0  0  0  0  0  0  0  0
  141.4290   76.4940  217.4480 C   0  0  0  0  0  0  0  0  0  0  0  0
  142.3560   76.1560  218.5520 C   0  0  0  0  0  0  0  0  0  0  0  0
  141.8540   76.3250  219.9460 C   0  0  1  0  0  0  0  0  0  0  0  0
  142.1110   77.7010  220.5050 C   0  0  0  0  0  0  0  0  0  0  0  0
  141.2020   78.1350  221.5100 N   0  0  0  0  0  0  0  0  0  0  0  0
  141.5150   79.3190  222.2470 C   0  0  0  0  0  0  0  0  0  0  0  0
  142.5770   79.3770  223.1200 C   0  0  0  0  0  0  0  0  0  0  0  0
  142.9000   80.5030  223.8400 C   0  0  0  0  0  0  0  0  0  0  0  0
  142.1350   81.6360  223.6930 C   0  0  0  0  0  0  0  0  0  0  0  0
  141.0750   81.5790  222.8230 C   0  0  0  0  0  0  0  0  0  0  0  0
  140.7790   80.4470  222.1210 N   0  0  0  0  0  0  0  0  0  0  0  0
  139.5240   70.9790  223.4870 C   0  0  0  0  0  0  0  0  0  0  0  0
  139.1310   69.6540  223.5480 C   0  0  0  0  0  0  0  0  0  0  0  0
  139.2870   68.8760  224.6790 C   0  0  0  0  0  0  0  0  0  0  0  0
  139.8620   69.4490  225.7970 C   0  0  0  0  0  0  0  0  0  0  0  0
  140.0200   68.6760  226.9300 C   0  0  0  0  0  0  0  0  0  0  0  0
  140.5950   69.2590  228.0410 C   0  0  0  0  0  0  0  0  0  0  0  0
  140.7590   68.5130  229.1660 F   0  0  0  0  0  0  0  0  0  0  0  0
  140.9840   70.5820  227.9740 C   0  0  0  0  0  0  0  0  0  0  0  0
  140.8270   71.3590  226.8420 C   0  0  0  0  0  0  0  0  0  0  0  0
  140.2520   70.7740  225.7310 C   0  0  0  0  0  0  0  0  0  0  0  0
  140.0800   71.5020  224.5980 N   0  0  0  0  0  0  0  0  0  0  0  0
  139.5790   73.6780  223.2240 H   0  0  0  0  0  0  0  0  0  0  0  0
  139.4950   73.3340  220.2282 H   0  0  0  0  0  0  0  0  0  0  0  0
  138.1474   74.2179  220.9765 H   0  0  0  0  0  0  0  0  0  0  0  0
  138.7881   75.2479  219.0546 H   0  0  0  0  0  0  0  0  0  0  0  0
  139.0186   77.0605  219.2805 H   0  0  0  0  0  0  0  0  0  0  0  0
  139.7544   75.2980  217.1232 H   0  0  0  0  0  0  0  0  0  0  0  0
  139.4989   77.1418  217.2723 H   0  0  0  0  0  0  0  0  0  0  0  0
  141.7455   75.9174  216.5663 H   0  0  0  0  0  0  0  0  0  0  0  0
  141.5008   77.5875  217.3525 H   0  0  0  0  0  0  0  0  0  0  0  0
  142.6431   75.1011  218.4304 H   0  0  0  0  0  0  0  0  0  0  0  0
  143.1789   76.8801  218.4598 H   0  0  0  0  0  0  0  0  0  0  0  0
  142.4450   75.6772  220.6101 H   0  0  0  0  0  0  0  0  0  0  0  0
  143.1223   77.7073  220.9376 H   0  0  0  0  0  0  0  0  0  0  0  0
  141.9838   78.3970  219.6627 H   0  0  0  0  0  0  0  0  0  0  0  0
  140.3110   77.6480  221.7540 H   0  0  0  0  0  0  0  0  0  0  0  0
  143.1982   78.4783  223.2482 H   0  0  0  0  0  0  0  0  0  0  0  0
  143.7602   80.4974  224.5255 H   0  0  0  0  0  0  0  0  0  0  0  0
  142.3643   82.5549  224.2525 H   0  0  0  0  0  0  0  0  0  0  0  0
  140.4461   82.4713  222.6878 H   0  0  0  0  0  0  0  0  0  0  0  0
  138.6740   69.1997  222.6565 H   0  0  0  0  0  0  0  0  0  0  0  0
  138.9612   67.8254  224.6891 H   0  0  0  0  0  0  0  0  0  0  0  0
  139.6966   67.6247  226.9467 H   0  0  0  0  0  0  0  0  0  0  0  0
  141.4406   71.0394  228.8641 H   0  0  0  0  0  0  0  0  0  0  0  0
  141.1499   72.4104  226.8264 H   0  0  0  0  0  0  0  0  0  0  0  0
  1  2  2  0
  2  3  1  0
  3  4  1  0
  4  5  1  0
  5  6  2  0
  5  7  1  0
  7  8  1  0
  8  9  1  0
  9 10  1  0
 10 11  1  0
 11 12  1  0
 12 13  1  0
 13 14  1  0
 14 15  1  0
 15 16  2  0
 16 17  1  0
 17 18  2  0
 18 19  1  0
 19 20  2  0
  2 21  1  0
 21 22  2  0
 22 23  1  0
 23 24  2  0
 24 25  1  0
 25 26  2  0
 26 27  1  0
 26 28  1  0
 28 29  2  0
 29 30  1  0
 30 31  2  0
 12  7  1  0
 20 15  1  0
 31 21  1  0
 30 24  1  0
  3 32  1  0
  4 33  1  0
  4 34  1  0
  8 35  1  0
  8 36  1  0
  9 37  1  0
  9 38  1  0
 10 39  1  0
 10 40  1  0
 11 41  1  0
 11 42  1  0
 12 43  1  1
 13 44  1  0
 13 45  1  0
 14 46  1  0
 16 47  1  0
 17 48  1  0
 18 49  1  0
 19 50  1  0
 22 51  1  0
 23 52  1  0
 25 53  1  0
 28 54  1  0
 29 55  1  0
M  END
>  <smiles>  (95) 
O=C(NCC(=O)N1CCCCC1CNc1ccccn1)c1ccc2cc(F)ccc2n1

>  <score_type>  (95) 
oracle

>  <origin>  (95) 
autodockgpu

>  <m_score__min__energy>  (95) 
-8.8000000000000007

>  <m_primary>  (95) 
energy

>  <rmsd>  (95) 
1.8387070284735403

>  <m_score__min__rmsd>  (95) 
1.8387070284735403

>  <meeko>  (95) 
{"free_energy": -7.89, "intermolecular_energy": -9.98, "internal_energy": -2.56, "cluster_size": 30, "cluster_id": 1, "rank_in_cluster": 24}

>  <energy>  (95) 
-7.25

>  <cluster_rmsd>  (95) 
0.84

>  <cluster>  (95) 
3

$$$$

     RDKit          3D

 55 58  0  0  0  0  0  0  0  0999 V2000
  139.4280   70.5520  221.3080 O   0  0  0  0  0  0  0  0  0  0  0  0
  139.5010   71.2030  222.4010 C   0  0  0  0  0  0  0  0  0  0  0  0
  139.4740   72.6250  222.4420 N   0  0  0  0  0  0  0  0  0  0  0  0
  139.3580   73.3580  221.1880 C   0  0  0  0  0  0  0  0  0  0  0  0
  139.9030   74.7070  221.4320 C   0  0  0  0  0  0  0  0  0  0  0  0
  139.8810   75.2740  222.5700 O   0  0  0  0  0  0  0  0  0  0  0  0
  140.5100   75.5000  220.3870 N   0  0  0  0  0  0  0  0  0  0  0  0
  140.0140   75.2300  219.0410 C   0  0  0  0  0  0  0  0  0  0  0  0
  140.9780   75.4860  217.9510 C   0  0  0  0  0  0  0  0  0  0  0  0
  142.1700   76.3020  218.2420 C   0  0  0  0  0  0  0  0  0  0  0  0
  142.5890   76.4380  219.6560 C   0  0  0  0  0  0  0  0  0  0  0  0
  141.5150   76.4630  220.6910 C   0  0  1  0  0  0  0  0  0  0  0  0
  141.0080   77.8510  220.9840 C   0  0  0  0  0  0  0  0  0  0  0  0
  141.9790   78.8880  220.9080 N   0  0  0  0  0  0  0  0  0  0  0  0
  142.1220   79.7710  222.0240 C   0  0  0  0  0  0  0  0  0  0  0  0
  141.1440   80.6750  222.3710 C   0  0  0  0  0  0  0  0  0  0  0  0
  141.2570   81.5340  223.4380 C   0  0  0  0  0  0  0  0  0  0  0  0
  142.3950   81.5010  224.2100 C   0  0  0  0  0  0  0  0  0  0  0  0
  143.3710   80.5990  223.8640 C   0  0  0  0  0  0  0  0  0  0  0  0
  143.2310   79.7590  222.7980 N   0  0  0  0  0  0  0  0  0  0  0  0
  139.6160   70.4670  223.6600 C   0  0  0  0  0  0  0  0  0  0  0  0
  139.1340   69.1740  223.7560 C   0  0  0  0  0  0  0  0  0  0  0  0
  139.2120   68.4290  224.9170 C   0  0  0  0  0  0  0  0  0  0  0  0
  139.8000   69.0030  226.0280 C   0  0  0  0  0  0  0  0  0  0  0  0
  139.8810   68.2620  227.1900 C   0  0  0  0  0  0  0  0  0  0  0  0
  140.4710   68.8450  228.2940 C   0  0  0  0  0  0  0  0  0  0  0  0
  140.5600   68.1310  229.4480 F   0  0  0  0  0  0  0  0  0  0  0  0
  140.9500   70.1360  228.1900 C   0  0  0  0  0  0  0  0  0  0  0  0
  140.8690   70.8800  227.0290 C   0  0  0  0  0  0  0  0  0  0  0  0
  140.2800   70.2950  225.9250 C   0  0  0  0  0  0  0  0  0  0  0  0
  140.1820   70.9920  224.7640 N   0  0  0  0  0  0  0  0  0  0  0  0
  139.5330   73.1600  223.3420 H   0  0  0  0  0  0  0  0  0  0  0  0
  139.9351   72.8532  220.3993 H   0  0  0  0  0  0  0  0  0  0  0  0
  138.3107   73.4092  220.8557 H   0  0  0  0  0  0  0  0  0  0  0  0
  139.7197   74.1712  218.9930 H   0  0  0  0  0  0  0  0  0  0  0  0
  139.1784   75.9267  218.8787 H   0  0  0  0  0  0  0  0  0  0  0  0
  141.3335   74.5075  217.5958 H   0  0  0  0  0  0  0  0  0  0  0  0
  140.4104   76.0884  217.2264 H   0  0  0  0  0  0  0  0  0  0  0  0
  143.0129   75.8582  217.6919 H   0  0  0  0  0  0  0  0  0  0  0  0
  141.8871   77.3209  217.9392 H   0  0  0  0  0  0  0  0  0  0  0  0
  143.2503   75.5899  219.8872 H   0  0  0  0  0  0  0  0  0  0  0  0
  143.0601   77.4302  219.7155 H   0  0  0  0  0  0  0  0  0  0  0  0
  141.9497   76.1543  221.6531 H   0  0  0  0  0  0  0  0  0  0  0  0
  140.2109   78.0799  220.2613 H   0  0  0  0  0  0  0  0  0  0  0  0
  140.6677   77.8329  222.0299 H   0  0  0  0  0  0  0  0  0  0  0  0
  142.6040   79.0570  220.0890 H   0  0  0  0  0  0  0  0  0  0  0  0
  140.2269   80.7119  221.7647 H   0  0  0  0  0  0  0  0  0  0  0  0
  140.4465   82.2399  223.6720 H   0  0  0  0  0  0  0  0  0  0  0  0
  142.5187   82.1723  225.0726 H   0  0  0  0  0  0  0  0  0  0  0  0
  144.2921   80.5524  224.4635 H   0  0  0  0  0  0  0  0  0  0  0  0
  138.6683   68.7191  222.8694 H   0  0  0  0  0  0  0  0  0  0  0  0
  138.8156   67.4037  224.9560 H   0  0  0  0  0  0  0  0  0  0  0  0
  139.4867   67.2361  227.2352 H   0  0  0  0  0  0  0  0  0  0  0  0
  141.4184   70.5937  229.0738 H   0  0  0  0  0  0  0  0  0  0  0  0
  141.2615   71.9067  226.9850 H   0  0  0  0  0  0  0  0  0  0  0  0
  1  2  2  0
  2  3  1  0
  3  4  1  0
  4  5  1  0
  5  6  2  0
  5  7  1  0
  7  8  1  0
  8  9  1  0
  9 10  1  0
 10 11  1  0
 11 12  1  0
 12 13  1  0
 13 14  1  0
 14 15  1  0
 15 16  2  0
 16 17  1  0
 17 18  2  0
 18 19  1  0
 19 20  2  0
  2 21  1  0
 21 22  2  0
 22 23  1  0
 23 24  2  0
 24 25  1  0
 25 26  2  0
 26 27  1  0
 26 28  1  0
 28 29  2  0
 29 30  1  0
 30 31  2  0
 12  7  1  0
 20 15  1  0
 31 21  1  0
 30 24  1  0
  3 32  1  0
  4 33  1  0
  4 34  1  0
  8 35  1  0
  8 36  1  0
  9 37  1  0
  9 38  1  0
 10 39  1  0
 10 40  1  0
 11 41  1  0
 11 42  1  0
 12 43  1  1
 13 44  1  0
 13 45  1  0
 14 46  1  0
 16 47  1  0
 17 48  1  0
 18 49  1  0
 19 50  1  0
 22 51  1  0
 23 52  1  0
 25 53  1  0
 28 54  1  0
 29 55  1  0
M  END
>  <smiles>  (96) 
O=C(NCC(=O)N1CCCCC1CNc1ccccn1)c1ccc2cc(F)ccc2n1

>  <score_type>  (96) 
oracle

>  <origin>  (96) 
autodockgpu

>  <m_score__min__energy>  (96) 
-8.8000000000000007

>  <m_primary>  (96) 
energy

>  <rmsd>  (96) 
1.9992148323738266

>  <m_score__min__rmsd>  (96) 
1.9992148323738266

>  <meeko>  (96) 
{"free_energy": -8.33, "intermolecular_energy": -10.42, "internal_energy": -1.82, "cluster_size": 30, "cluster_id": 1, "rank_in_cluster": 7}

>  <energy>  (96) 
-7.53

>  <cluster_rmsd>  (96) 
0.0

>  <cluster>  (96) 
4

$$$$

     RDKit          3D

 55 58  0  0  0  0  0  0  0  0999 V2000
  140.5810   71.3910  221.0850 O   0  0  0  0  0  0  0  0  0  0  0  0
  140.2230   71.9670  222.1630 C   0  0  0  0  0  0  0  0  0  0  0  0
  139.9160   73.3560  222.2170 N   0  0  0  0  0  0  0  0  0  0  0  0
  140.0180   74.1420  220.9940 C   0  0  0  0  0  0  0  0  0  0  0  0
  140.5890   75.4470  221.3730 C   0  0  0  0  0  0  0  0  0  0  0  0
  140.3350   76.0270  222.4760 O   0  0  0  0  0  0  0  0  0  0  0  0
  141.4920   76.1780  220.5140 N   0  0  0  0  0  0  0  0  0  0  0  0
  141.4560   77.6290  220.6740 C   0  0  0  0  0  0  0  0  0  0  0  0
  141.8160   78.4050  219.4690 C   0  0  0  0  0  0  0  0  0  0  0  0
  142.5080   77.7140  218.3670 C   0  0  0  0  0  0  0  0  0  0  0  0
  142.4060   76.2380  218.3010 C   0  0  0  0  0  0  0  0  0  0  0  0
  142.3390   75.4960  219.5930 C   0  0  1  0  0  0  0  0  0  0  0  0
  143.6950   75.1140  220.1280 C   0  0  0  0  0  0  0  0  0  0  0  0
  144.5180   74.3690  219.2380 N   0  0  0  0  0  0  0  0  0  0  0  0
  144.5420   72.9450  219.3630 C   0  0  0  0  0  0  0  0  0  0  0  0
  143.5160   72.2460  219.9580 C   0  0  0  0  0  0  0  0  0  0  0  0
  143.5140   70.8780  220.0900 C   0  0  0  0  0  0  0  0  0  0  0  0
  144.5810   70.1550  219.6100 C   0  0  0  0  0  0  0  0  0  0  0  0
  145.6050   70.8510  219.0170 C   0  0  0  0  0  0  0  0  0  0  0  0
  145.5790   72.2110  218.9000 N   0  0  0  0  0  0  0  0  0  0  0  0
  140.1200   71.1780  223.3900 C   0  0  0  0  0  0  0  0  0  0  0  0
  139.5370   69.9240  223.3640 C   0  0  0  0  0  0  0  0  0  0  0  0
  139.4110   69.1310  224.4890 C   0  0  0  0  0  0  0  0  0  0  0  0
  139.8890   69.6160  225.6910 C   0  0  0  0  0  0  0  0  0  0  0  0
  139.7650   68.8280  226.8180 C   0  0  0  0  0  0  0  0  0  0  0  0
  140.2470   69.3220  228.0140 C   0  0  0  0  0  0  0  0  0  0  0  0
  140.1340   68.5610  229.1340 F   0  0  0  0  0  0  0  0  0  0  0  0
  140.8270   70.5750  228.0320 C   0  0  0  0  0  0  0  0  0  0  0  0
  140.9520   71.3660  226.9070 C   0  0  0  0  0  0  0  0  0  0  0  0
  140.4700   70.8700  225.7110 C   0  0  0  0  0  0  0  0  0  0  0  0
  140.5740   71.6150  224.5810 N   0  0  0  0  0  0  0  0  0  0  0  0
  139.6200   73.8290  223.1040 H   0  0  0  0  0  0  0  0  0  0  0  0
  140.6761   73.6359  220.2723 H   0  0  0  0  0  0  0  0  0  0  0  0
  139.0328   74.2647  220.5203 H   0  0  0  0  0  0  0  0  0  0  0  0
  140.4352   77.9134  220.9693 H   0  0  0  0  0  0  0  0  0  0  0  0
  142.2165   77.8711  221.4309 H   0  0  0  0  0  0  0  0  0  0  0  0
  140.8828   78.8176  219.0580 H   0  0  0  0  0  0  0  0  0  0  0  0
  142.5524   79.1375  219.8313 H   0  0  0  0  0  0  0  0  0  0  0  0
  142.1032   78.1126  217.4251 H   0  0  0  0  0  0  0  0  0  0  0  0
  143.5756   77.9086  218.5471 H   0  0  0  0  0  0  0  0  0  0  0  0
  141.4955   75.9953  217.7336 H   0  0  0  0  0  0  0  0  0  0  0  0
  143.3487   75.9114  217.8377 H   0  0  0  0  0  0  0  0  0  0  0  0
  141.8657   74.5199  219.4106 H   0  0  0  0  0  0  0  0  0  0  0  0
  144.2293   76.0395  220.3888 H   0  0  0  0  0  0  0  0  0  0  0  0
  143.5052   74.4538  220.9872 H   0  0  0  0  0  0  0  0  0  0  0  0
  145.1140   74.7870  218.4910 H   0  0  0  0  0  0  0  0  0  0  0  0
  142.6555   72.8102  220.3469 H   0  0  0  0  0  0  0  0  0  0  0  0
  142.6686   70.3671  220.5741 H   0  0  0  0  0  0  0  0  0  0  0  0
  144.6127   69.0590  219.6980 H   0  0  0  0  0  0  0  0  0  0  0  0
  146.4709   70.2973  218.6250 H   0  0  0  0  0  0  0  0  0  0  0  0
  139.1568   69.5409  222.4055 H   0  0  0  0  0  0  0  0  0  0  0  0
  138.9416   68.1380  224.4287 H   0  0  0  0  0  0  0  0  0  0  0  0
  139.2955   67.8347  226.7646 H   0  0  0  0  0  0  0  0  0  0  0  0
  141.2079   70.9618  228.9887 H   0  0  0  0  0  0  0  0  0  0  0  0
  141.4206   72.3597  226.9614 H   0  0  0  0  0  0  0  0  0  0  0  0
  1  2  2  0
  2  3  1  0
  3  4  1  0
  4  5  1  0
  5  6  2  0
  5  7  1  0
  7  8  1  0
  8  9  1  0
  9 10  1  0
 10 11  1  0
 11 12  1  0
 12 13  1  0
 13 14  1  0
 14 15  1  0
 15 16  2  0
 16 17  1  0
 17 18  2  0
 18 19  1  0
 19 20  2  0
  2 21  1  0
 21 22  2  0
 22 23  1  0
 23 24  2  0
 24 25  1  0
 25 26  2  0
 26 27  1  0
 26 28  1  0
 28 29  2  0
 29 30  1  0
 30 31  2  0
 12  7  1  0
 20 15  1  0
 31 21  1  0
 30 24  1  0
  3 32  1  0
  4 33  1  0
  4 34  1  0
  8 35  1  0
  8 36  1  0
  9 37  1  0
  9 38  1  0
 10 39  1  0
 10 40  1  0
 11 41  1  0
 11 42  1  0
 12 43  1  6
 13 44  1  0
 13 45  1  0
 14 46  1  0
 16 47  1  0
 17 48  1  0
 18 49  1  0
 19 50  1  0
 22 51  1  0
 23 52  1  0
 25 53  1  0
 28 54  1  0
 29 55  1  0
M  END
>  <smiles>  (97) 
O=C(NCC(=O)N1CCCCC1CNc1ccccn1)c1ccc2cc(F)ccc2n1

>  <score_type>  (97) 
oracle

>  <origin>  (97) 
autodockgpu

>  <m_score__min__energy>  (97) 
-8.8000000000000007

>  <m_primary>  (97) 
energy

>  <rmsd>  (97) 
4.984817414876081

>  <m_score__min__rmsd>  (97) 
4.984817414876081

>  <meeko>  (97) 
{"free_energy": -8.48, "intermolecular_energy": -10.57, "internal_energy": -2.05, "cluster_size": 12, "cluster_id": 2, "rank_in_cluster": 8}

>  <energy>  (97) 
-7.28

>  <cluster_rmsd>  (97) 
0.44

>  <cluster>  (97) 
4

$$$$

     RDKit          3D

 55 58  0  0  0  0  0  0  0  0999 V2000
  140.7610   71.8120  221.7810 O   0  0  0  0  0  0  0  0  0  0  0  0
  139.8280   71.8630  222.6470 C   0  0  0  0  0  0  0  0  0  0  0  0
  138.7160   72.7410  222.5150 N   0  0  0  0  0  0  0  0  0  0  0  0
  138.6470   73.6100  221.3470 C   0  0  0  0  0  0  0  0  0  0  0  0
  139.5180   74.7670  221.6260 C   0  0  0  0  0  0  0  0  0  0  0  0
  140.7160   74.6560  222.0360 O   0  0  0  0  0  0  0  0  0  0  0  0
  139.0750   76.1320  221.4520 N   0  0  0  0  0  0  0  0  0  0  0  0
  138.3750   76.7030  222.5980 C   0  0  0  0  0  0  0  0  0  0  0  0
  137.3890   77.7540  222.2740 C   0  0  0  0  0  0  0  0  0  0  0  0
  137.4410   78.3840  220.9420 C   0  0  0  0  0  0  0  0  0  0  0  0
  138.1380   77.6550  219.8580 C   0  0  0  0  0  0  0  0  0  0  0  0
  139.3230   76.8320  220.2360 C   0  0  1  0  0  0  0  0  0  0  0  0
  140.6180   77.6020  220.1900 C   0  0  0  0  0  0  0  0  0  0  0  0
  141.4390   77.4900  221.3470 N   0  0  0  0  0  0  0  0  0  0  0  0
  141.7140   78.6710  222.1040 C   0  0  0  0  0  0  0  0  0  0  0  0
  141.8420   78.6480  223.4750 C   0  0  0  0  0  0  0  0  0  0  0  0
  142.1070   79.7680  224.2260 C   0  0  0  0  0  0  0  0  0  0  0  0
  142.2560   80.9810  223.5940 C   0  0  0  0  0  0  0  0  0  0  0  0
  142.1290   81.0050  222.2270 C   0  0  0  0  0  0  0  0  0  0  0  0
  141.8650   79.8750  221.5070 N   0  0  0  0  0  0  0  0  0  0  0  0
  139.8970   70.9900  223.8180 C   0  0  0  0  0  0  0  0  0  0  0  0
  139.4240   69.6920  223.7470 C   0  0  0  0  0  0  0  0  0  0  0  0
  139.4620   68.8200  224.8180 C   0  0  0  0  0  0  0  0  0  0  0  0
  139.9970   69.2670  226.0110 C   0  0  0  0  0  0  0  0  0  0  0  0
  140.0370   68.3990  227.0840 C   0  0  0  0  0  0  0  0  0  0  0  0
  140.5740   68.8560  228.2710 C   0  0  0  0  0  0  0  0  0  0  0  0
  140.6220   68.0170  229.3390 F   0  0  0  0  0  0  0  0  0  0  0  0
  141.0440   70.1530  228.3350 C   0  0  0  0  0  0  0  0  0  0  0  0
  141.0050   71.0240  227.2630 C   0  0  0  0  0  0  0  0  0  0  0  0
  140.4680   70.5650  226.0760 C   0  0  0  0  0  0  0  0  0  0  0  0
  140.4120   71.3880  224.9980 N   0  0  0  0  0  0  0  0  0  0  0  0
  137.9480   72.7810  223.2280 H   0  0  0  0  0  0  0  0  0  0  0  0
  139.0029   73.0743  220.4546 H   0  0  0  0  0  0  0  0  0  0  0  0
  137.6128   73.9314  221.1541 H   0  0  0  0  0  0  0  0  0  0  0  0
  137.8463   75.8881  223.1142 H   0  0  0  0  0  0  0  0  0  0  0  0
  139.1456   77.1878  223.2153 H   0  0  0  0  0  0  0  0  0  0  0  0
  136.3902   77.3060  222.3820 H   0  0  0  0  0  0  0  0  0  0  0  0
  137.6319   78.5726  222.9675 H   0  0  0  0  0  0  0  0  0  0  0  0
  136.4031   78.5441  220.6145 H   0  0  0  0  0  0  0  0  0  0  0  0
  138.0390   79.2952  221.0908 H   0  0  0  0  0  0  0  0  0  0  0  0
  137.4052   76.9822  219.3886 H   0  0  0  0  0  0  0  0  0  0  0  0
  138.5395   78.4420  219.2027 H   0  0  0  0  0  0  0  0  0  0  0  0
  139.4709   76.0600  219.4665 H   0  0  0  0  0  0  0  0  0  0  0  0
  141.1969   77.2402  219.3274 H   0  0  0  0  0  0  0  0  0  0  0  0
  140.3361   78.6630  220.1214 H   0  0  0  0  0  0  0  0  0  0  0  0
  141.8620   76.6000  221.6910 H   0  0  0  0  0  0  0  0  0  0  0  0
  141.7264   77.6854  223.9947 H   0  0  0  0  0  0  0  0  0  0  0  0
  142.1989   79.6955  225.3198 H   0  0  0  0  0  0  0  0  0  0  0  0
  142.4691   81.8980  224.1630 H   0  0  0  0  0  0  0  0  0  0  0  0
  142.2432   81.9619  221.6966 H   0  0  0  0  0  0  0  0  0  0  0  0
  138.9989   69.3386  222.7960 H   0  0  0  0  0  0  0  0  0  0  0  0
  139.0756   67.7945  224.7232 H   0  0  0  0  0  0  0  0  0  0  0  0
  139.6519   67.3724  226.9956 H   0  0  0  0  0  0  0  0  0  0  0  0
  141.4697   70.5097  229.2845 H   0  0  0  0  0  0  0  0  0  0  0  0
  141.3896   72.0507  227.3521 H   0  0  0  0  0  0  0  0  0  0  0  0
  1  2  2  0
  2  3  1  0
  3  4  1  0
  4  5  1  0
  5  6  2  0
  5  7  1  0
  7  8  1  0
  8  9  1  0
  9 10  1  0
 10 11  1  0
 11 12  1  0
 12 13  1  0
 13 14  1  0
 14 15  1  0
 15 16  2  0
 16 17  1  0
 17 18  2  0
 18 19  1  0
 19 20  2  0
  2 21  1  0
 21 22  2  0
 22 23  1  0
 23 24  2  0
 24 25  1  0
 25 26  2  0
 26 27  1  0
 26 28  1  0
 28 29  2  0
 29 30  1  0
 30 31  2  0
 12  7  1  0
 20 15  1  0
 31 21  1  0
 30 24  1  0
  3 32  1  0
  4 33  1  0
  4 34  1  0
  8 35  1  0
  8 36  1  0
  9 37  1  0
  9 38  1  0
 10 39  1  0
 10 40  1  0
 11 41  1  0
 11 42  1  0
 12 43  1  6
 13 44  1  0
 13 45  1  0
 14 46  1  0
 16 47  1  0
 17 48  1  0
 18 49  1  0
 19 50  1  0
 22 51  1  0
 23 52  1  0
 25 53  1  0
 28 54  1  0
 29 55  1  0
M  END
>  <smiles>  (98) 
O=C(NCC(=O)N1CCCCC1CNc1ccccn1)c1ccc2cc(F)ccc2n1

>  <score_type>  (98) 
oracle

>  <origin>  (98) 
autodockgpu

>  <m_score__min__energy>  (98) 
-8.8000000000000007

>  <m_primary>  (98) 
energy

>  <rmsd>  (98) 
2.851322255344351

>  <m_score__min__rmsd>  (98) 
2.851322255344351

>  <meeko>  (98) 
{"free_energy": -8.8, "intermolecular_energy": -10.89, "internal_energy": -2.11, "cluster_size": 30, "cluster_id": 1, "rank_in_cluster": 1}

>  <energy>  (98) 
-6.94

>  <cluster_rmsd>  (98) 
0.0

>  <cluster>  (98) 
5

$$$$

     RDKit          3D

 55 58  0  0  0  0  0  0  0  0999 V2000
  141.0660   73.4210  222.2430 O   0  0  0  0  0  0  0  0  0  0  0  0
  140.0520   72.6560  222.3340 C   0  0  0  0  0  0  0  0  0  0  0  0
  139.0280   72.6310  221.3470 N   0  0  0  0  0  0  0  0  0  0  0  0
  139.1470   73.5140  220.1940 C   0  0  0  0  0  0  0  0  0  0  0  0
  138.9030   74.8840  220.6810 C   0  0  0  0  0  0  0  0  0  0  0  0
  137.7410   75.3490  220.9060 O   0  0  0  0  0  0  0  0  0  0  0  0
  139.9750   75.8170  220.9430 N   0  0  0  0  0  0  0  0  0  0  0  0
  140.1280   76.2030  222.3430 C   0  0  0  0  0  0  0  0  0  0  0  0
  140.7020   77.5450  222.5670 C   0  0  0  0  0  0  0  0  0  0  0  0
  141.3900   78.2140  221.4480 C   0  0  0  0  0  0  0  0  0  0  0  0
  141.0880   77.7520  220.0740 C   0  0  0  0  0  0  0  0  0  0  0  0
  140.7990   76.3010  219.8860 C   0  0  1  0  0  0  0  0  0  0  0  0
  142.0330   75.4820  219.6060 C   0  0  0  0  0  0  0  0  0  0  0  0
  142.6690   74.9230  220.7490 N   0  0  0  0  0  0  0  0  0  0  0  0
  143.7780   74.0410  220.5490 C   0  0  0  0  0  0  0  0  0  0  0  0
  145.0800   74.4560  220.7120 C   0  0  0  0  0  0  0  0  0  0  0  0
  146.1620   73.6300  220.5270 C   0  0  0  0  0  0  0  0  0  0  0  0
  145.9530   72.3200  220.1610 C   0  0  0  0  0  0  0  0  0  0  0  0
  144.6540   71.9060  219.9980 C   0  0  0  0  0  0  0  0  0  0  0  0
  143.5990   72.7500  220.1890 N   0  0  0  0  0  0  0  0  0  0  0  0
  139.9330   71.7690  223.4910 C   0  0  0  0  0  0  0  0  0  0  0  0
  139.1660   70.6210  223.4110 C   0  0  0  0  0  0  0  0  0  0  0  0
  139.0150   69.7440  224.4680 C   0  0  0  0  0  0  0  0  0  0  0  0
  139.6610   70.0280  225.6550 C   0  0  0  0  0  0  0  0  0  0  0  0
  139.5130   69.1550  226.7150 C   0  0  0  0  0  0  0  0  0  0  0  0
  140.1640   69.4500  227.8970 C   0  0  0  0  0  0  0  0  0  0  0  0
  140.0310   68.6020  228.9510 F   0  0  0  0  0  0  0  0  0  0  0  0
  140.9280   70.5970  227.9690 C   0  0  0  0  0  0  0  0  0  0  0  0
  141.0780   71.4730  226.9110 C   0  0  0  0  0  0  0  0  0  0  0  0
  140.4270   71.1770  225.7290 C   0  0  0  0  0  0  0  0  0  0  0  0
  140.5480   72.0110  224.6650 N   0  0  0  0  0  0  0  0  0  0  0  0
  138.1940   72.0000  221.4220 H   0  0  0  0  0  0  0  0  0  0  0  0
  140.1560   73.4395  219.7622 H   0  0  0  0  0  0  0  0  0  0  0  0
  138.4263   73.2392  219.4098 H   0  0  0  0  0  0  0  0  0  0  0  0
  139.1344   76.1751  222.8140 H   0  0  0  0  0  0  0  0  0  0  0  0
  140.8421   75.4893  222.7797 H   0  0  0  0  0  0  0  0  0  0  0  0
  139.8774   78.2022  222.8801 H   0  0  0  0  0  0  0  0  0  0  0  0
  141.4971   77.3763  223.3082 H   0  0  0  0  0  0  0  0  0  0  0  0
  141.1342   79.2827  221.4980 H   0  0  0  0  0  0  0  0  0  0  0  0
  142.4531   77.9719  221.5932 H   0  0  0  0  0  0  0  0  0  0  0  0
  140.2083   78.3118  219.7235 H   0  0  0  0  0  0  0  0  0  0  0  0
  142.0138   77.9302  219.5073 H   0  0  0  0  0  0  0  0  0  0  0  0
  140.2119   76.1795  218.9638 H   0  0  0  0  0  0  0  0  0  0  0  0
  141.7470   74.6554  218.9390 H   0  0  0  0  0  0  0  0  0  0  0  0
  142.7625   76.1764  219.1637 H   0  0  0  0  0  0  0  0  0  0  0  0
  142.3860   75.1080  221.7360 H   0  0  0  0  0  0  0  0  0  0  0  0
  145.2633   75.5004  221.0048 H   0  0  0  0  0  0  0  0  0  0  0  0
  147.1838   74.0114  220.6698 H   0  0  0  0  0  0  0  0  0  0  0  0
  146.7954   71.6301  220.0048 H   0  0  0  0  0  0  0  0  0  0  0  0
  144.4582   70.8640  219.7050 H   0  0  0  0  0  0  0  0  0  0  0  0
  138.6535   70.3961  222.4640 H   0  0  0  0  0  0  0  0  0  0  0  0
  138.3950   68.8411  224.3664 H   0  0  0  0  0  0  0  0  0  0  0  0
  138.8942   68.2504  226.6206 H   0  0  0  0  0  0  0  0  0  0  0  0
  141.4424   70.8249  228.9142 H   0  0  0  0  0  0  0  0  0  0  0  0
  141.6964   72.3777  227.0069 H   0  0  0  0  0  0  0  0  0  0  0  0
  1  2  2  0
  2  3  1  0
  3  4  1  0
  4  5  1  0
  5  6  2  0
  5  7  1  0
  7  8  1  0
  8  9  1  0
  9 10  1  0
 10 11  1  0
 11 12  1  0
 12 13  1  0
 13 14  1  0
 14 15  1  0
 15 16  2  0
 16 17  1  0
 17 18  2  0
 18 19  1  0
 19 20  2  0
  2 21  1  0
 21 22  2  0
 22 23  1  0
 23 24  2  0
 24 25  1  0
 25 26  2  0
 26 27  1  0
 26 28  1  0
 28 29  2  0
 29 30  1  0
 30 31  2  0
 12  7  1  0
 20 15  1  0
 31 21  1  0
 30 24  1  0
  3 32  1  0
  4 33  1  0
  4 34  1  0
  8 35  1  0
  8 36  1  0
  9 37  1  0
  9 38  1  0
 10 39  1  0
 10 40  1  0
 11 41  1  0
 11 42  1  0
 12 43  1  6
 13 44  1  0
 13 45  1  0
 14 46  1  0
 16 47  1  0
 17 48  1  0
 18 49  1  0
 19 50  1  0
 22 51  1  0
 23 52  1  0
 25 53  1  0
 28 54  1  0
 29 55  1  0
M  END
>  <smiles>  (99) 
O=C(NCC(=O)N1CCCCC1CNc1ccccn1)c1ccc2cc(F)ccc2n1

>  <score_type>  (99) 
oracle

>  <origin>  (99) 
autodockgpu

>  <m_score__min__energy>  (99) 
-8.8000000000000007

>  <m_primary>  (99) 
energy

>  <rmsd>  (99) 
4.561131899772369

>  <m_score__min__rmsd>  (99) 
4.561131899772369

>  <meeko>  (99) 
{"free_energy": -7.97, "intermolecular_energy": -10.05, "internal_energy": -2.41, "cluster_size": 12, "cluster_id": 2, "rank_in_cluster": 11}

>  <energy>  (99) 
-6.0

>  <cluster_rmsd>  (99) 
1.9

>  <cluster>  (99) 
5

$$$$

     RDKit          3D

 55 58  0  0  0  0  0  0  0  0999 V2000
  139.0000   71.1560  221.1740 O   0  0  0  0  0  0  0  0  0  0  0  0
  139.2720   71.7670  222.2580 C   0  0  0  0  0  0  0  0  0  0  0  0
  139.3430   73.1860  222.3340 N   0  0  0  0  0  0  0  0  0  0  0  0
  139.0960   73.9630  221.1270 C   0  0  0  0  0  0  0  0  0  0  0  0
  139.5760   75.3310  221.3950 C   0  0  0  0  0  0  0  0  0  0  0  0
  140.0350   75.7020  222.5220 O   0  0  0  0  0  0  0  0  0  0  0  0
  139.5640   76.3690  220.3900 N   0  0  0  0  0  0  0  0  0  0  0  0
  138.3410   77.1630  220.3370 C   0  0  0  0  0  0  0  0  0  0  0  0
  138.0160   77.7350  219.0150 C   0  0  0  0  0  0  0  0  0  0  0  0
  139.0730   77.7810  217.9880 C   0  0  0  0  0  0  0  0  0  0  0  0
  140.2310   76.8710  218.1440 C   0  0  0  0  0  0  0  0  0  0  0  0
  140.6850   76.5700  219.5330 C   0  0  1  0  0  0  0  0  0  0  0  0
  141.7180   77.5420  220.0420 C   0  0  0  0  0  0  0  0  0  0  0  0
  141.7860   77.6800  221.4560 N   0  0  0  0  0  0  0  0  0  0  0  0
  141.8020   78.9970  222.0130 C   0  0  0  0  0  0  0  0  0  0  0  0
  141.4710   80.1080  221.2710 C   0  0  0  0  0  0  0  0  0  0  0  0
  141.4780   81.3840  221.7820 C   0  0  0  0  0  0  0  0  0  0  0  0
  141.8300   81.5790  223.0970 C   0  0  0  0  0  0  0  0  0  0  0  0
  142.1610   80.4710  223.8380 C   0  0  0  0  0  0  0  0  0  0  0  0
  142.1450   79.2160  223.3030 N   0  0  0  0  0  0  0  0  0  0  0  0
  139.5190   70.9870  223.4710 C   0  0  0  0  0  0  0  0  0  0  0  0
  139.1920   69.6430  223.5130 C   0  0  0  0  0  0  0  0  0  0  0  0
  139.4010   68.8550  224.6280 C   0  0  0  0  0  0  0  0  0  0  0  0
  139.9630   69.4360  225.7480 C   0  0  0  0  0  0  0  0  0  0  0  0
  140.1740   68.6520  226.8650 C   0  0  0  0  0  0  0  0  0  0  0  0
  140.7360   69.2430  227.9790 C   0  0  0  0  0  0  0  0  0  0  0  0
  140.9520   68.4880  229.0880 F   0  0  0  0  0  0  0  0  0  0  0  0
  141.0600   70.5850  227.9290 C   0  0  0  0  0  0  0  0  0  0  0  0
  140.8500   71.3720  226.8140 C   0  0  0  0  0  0  0  0  0  0  0  0
  140.2880   70.7790  225.7000 C   0  0  0  0  0  0  0  0  0  0  0  0
  140.0650   71.5170  224.5830 N   0  0  0  0  0  0  0  0  0  0  0  0
  139.5660   73.6880  223.2270 H   0  0  0  0  0  0  0  0  0  0  0  0
  139.6446   73.5287  220.2782 H   0  0  0  0  0  0  0  0  0  0  0  0
  138.0264   73.9634  220.8700 H   0  0  0  0  0  0  0  0  0  0  0  0
  137.5040   76.5184  220.6433 H   0  0  0  0  0  0  0  0  0  0  0  0
  138.5058   78.0200  221.0067 H   0  0  0  0  0  0  0  0  0  0  0  0
  137.1864   77.1434  218.6005 H   0  0  0  0  0  0  0  0  0  0  0  0
  137.7998   78.7928  219.2256 H   0  0  0  0  0  0  0  0  0  0  0  0
  138.6013   77.5483  217.0219 H   0  0  0  0  0  0  0  0  0  0  0  0
  139.5012   78.7902  218.0780 H   0  0  0  0  0  0  0  0  0  0  0  0
  139.9658   75.9149  217.6690 H   0  0  0  0  0  0  0  0  0  0  0  0
  141.0738   77.4062  217.6822 H   0  0  0  0  0  0  0  0  0  0  0  0
  141.2328   75.6162  219.5221 H   0  0  0  0  0  0  0  0  0  0  0  0
  142.7033   77.2060  219.6867 H   0  0  0  0  0  0  0  0  0  0  0  0
  141.4198   78.5282  219.6568 H   0  0  0  0  0  0  0  0  0  0  0  0
  141.8250   76.8830  222.1290 H   0  0  0  0  0  0  0  0  0  0  0  0
  141.1870   79.9679  220.2176 H   0  0  0  0  0  0  0  0  0  0  0  0
  141.2052   82.2393  221.1464 H   0  0  0  0  0  0  0  0  0  0  0  0
  141.8459   82.5860  223.5394 H   0  0  0  0  0  0  0  0  0  0  0  0
  142.4470   80.5990  224.8924 H   0  0  0  0  0  0  0  0  0  0  0  0
  138.7461   69.1820  222.6193 H   0  0  0  0  0  0  0  0  0  0  0  0
  139.1263   67.7899  224.6241 H   0  0  0  0  0  0  0  0  0  0  0  0
  139.9019   67.5862  226.8672 H   0  0  0  0  0  0  0  0  0  0  0  0
  141.5069   71.0491  228.8206 H   0  0  0  0  0  0  0  0  0  0  0  0
  141.1218   72.4379  226.8128 H   0  0  0  0  0  0  0  0  0  0  0  0
  1  2  2  0
  2  3  1  0
  3  4  1  0
  4  5  1  0
  5  6  2  0
  5  7  1  0
  7  8  1  0
  8  9  1  0
  9 10  1  0
 10 11  1  0
 11 12  1  0
 12 13  1  0
 13 14  1  0
 14 15  1  0
 15 16  2  0
 16 17  1  0
 17 18  2  0
 18 19  1  0
 19 20  2  0
  2 21  1  0
 21 22  2  0
 22 23  1  0
 23 24  2  0
 24 25  1  0
 25 26  2  0
 26 27  1  0
 26 28  1  0
 28 29  2  0
 29 30  1  0
 30 31  2  0
 12  7  1  0
 20 15  1  0
 31 21  1  0
 30 24  1  0
  3 32  1  0
  4 33  1  0
  4 34  1  0
  8 35  1  0
  8 36  1  0
  9 37  1  0
  9 38  1  0
 10 39  1  0
 10 40  1  0
 11 41  1  0
 11 42  1  0
 12 43  1  6
 13 44  1  0
 13 45  1  0
 14 46  1  0
 16 47  1  0
 17 48  1  0
 18 49  1  0
 19 50  1  0
 22 51  1  0
 23 52  1  0
 25 53  1  0
 28 54  1  0
 29 55  1  0
M  END
>  <smiles>  (100) 
O=C(NCC(=O)N1CCCCC1CNc1ccccn1)c1ccc2cc(F)ccc2n1

>  <score_type>  (100) 
oracle

>  <origin>  (100) 
autodockgpu

>  <m_score__min__energy>  (100) 
-8.8000000000000007

>  <m_primary>  (100) 
energy

>  <rmsd>  (100) 
1.8838543210155372

>  <m_score__min__rmsd>  (100) 
1.8838543210155372

>  <meeko>  (100) 
{"free_energy": -7.82, "intermolecular_energy": -9.91, "internal_energy": -2.83, "cluster_size": 30, "cluster_id": 1, "rank_in_cluster": 26}

>  <energy>  (100) 
-6.59

>  <cluster_rmsd>  (100) 
0.0

>  <cluster>  (100) 
6

$$$$
