
     RDKit          3D

 58 61  0  0  0  0  0  0  0  0999 V2000
  136.6050   76.0200  223.2540 C   0  0  0  0  0  0  0  0  0  0  0  0
  137.4140   75.7400  222.0370 C   0  0  2  0  0  0  0  0  0  0  0  0
  137.8560   74.3590  222.0440 N   0  0  0  0  0  0  0  0  0  0  0  0
  137.4870   73.4760  221.0040 C   0  0  0  0  0  0  0  0  0  0  0  0
  136.7690   73.9580  220.0830 O   0  0  0  0  0  0  0  0  0  0  0  0
  137.8660   72.0670  220.9050 C   0  0  0  0  0  0  0  0  0  0  0  0
  138.2880   71.4550  222.1390 N   0  0  0  0  0  0  0  0  0  0  0  0
  139.4180   71.9280  222.8650 C   0  0  0  0  0  0  0  0  0  0  0  0
  140.1130   72.9250  222.4630 O   0  0  0  0  0  0  0  0  0  0  0  0
  139.8210   71.2740  224.1110 C   0  0  0  0  0  0  0  0  0  0  0  0
  140.6840   71.9050  224.9910 C   0  0  0  0  0  0  0  0  0  0  0  0
  141.0930   71.3330  226.1760 C   0  0  0  0  0  0  0  0  0  0  0  0
  140.6310   70.0690  226.5190 C   0  0  0  0  0  0  0  0  0  0  0  0
  141.0490   69.5250  227.6970 C   0  0  0  0  0  0  0  0  0  0  0  0
  140.5800   68.2520  228.0370 C   0  0  0  0  0  0  0  0  0  0  0  0
  139.7100   67.5910  227.1730 C   0  0  0  0  0  0  0  0  0  0  0  0
  139.3150   68.1960  225.9820 C   0  0  0  0  0  0  0  0  0  0  0  0
  139.7720   69.4560  225.6320 C   0  0  0  0  0  0  0  0  0  0  0  0
  139.3890   70.0530  224.4680 N   0  0  0  0  0  0  0  0  0  0  0  0
  138.6310   76.5770  221.8980 C   0  0  0  0  0  0  0  0  0  0  0  0
  139.8260   76.1170  222.3710 C   0  0  0  0  0  0  0  0  0  0  0  0
  140.9960   76.8390  222.2780 C   0  0  0  0  0  0  0  0  0  0  0  0
  141.0080   78.0830  221.6900 C   0  0  0  0  0  0  0  0  0  0  0  0
  142.0990   78.8860  221.5420 O   0  0  0  0  0  0  0  0  0  0  0  0
  142.5000   79.8930  222.4230 C   0  0  0  0  0  0  0  0  0  0  0  0
  141.6900   79.8450  223.7260 C   0  0  0  0  0  0  0  0  0  0  0  0
  141.0210   81.2000  223.8340 C   0  0  0  0  0  0  0  0  0  0  0  0
  140.7530   81.4770  222.3530 C   0  0  0  0  0  0  0  0  0  0  0  0
  142.1240   81.2160  221.7610 C   0  0  0  0  0  0  0  0  0  0  0  0
  139.7910   78.5730  221.1980 C   0  0  0  0  0  0  0  0  0  0  0  0
  138.6250   77.8270  221.3030 C   0  0  0  0  0  0  0  0  0  0  0  0
  137.2072   75.8116  224.1506 H   0  0  0  0  0  0  0  0  0  0  0  0
  136.2986   77.0765  223.2556 H   0  0  0  0  0  0  0  0  0  0  0  0
  135.7111   75.3790  223.2556 H   0  0  0  0  0  0  0  0  0  0  0  0
  136.7434   75.9707  221.1961 H   0  0  0  0  0  0  0  0  0  0  0  0
  138.4570   74.0340  222.8270 H   0  0  0  0  0  0  0  0  0  0  0  0
  136.9976   71.5072  220.5276 H   0  0  0  0  0  0  0  0  0  0  0  0
  138.7375   72.0327  220.2348 H   0  0  0  0  0  0  0  0  0  0  0  0
  137.7870   70.6280  222.5700 H   0  0  0  0  0  0  0  0  0  0  0  0
  141.0593   72.9063  224.7329 H   0  0  0  0  0  0  0  0  0  0  0  0
  141.7796   71.8729  226.8446 H   0  0  0  0  0  0  0  0  0  0  0  0
  141.7352   70.0714  228.3608 H   0  0  0  0  0  0  0  0  0  0  0  0
  140.8952   67.7772  228.9779 H   0  0  0  0  0  0  0  0  0  0  0  0
  139.3344   66.5900  227.4315 H   0  0  0  0  0  0  0  0  0  0  0  0
  138.6281   67.6638  225.3075 H   0  0  0  0  0  0  0  0  0  0  0  0
  139.8563   75.1260  222.8475 H   0  0  0  0  0  0  0  0  0  0  0  0
  141.9297   76.4167  222.6778 H   0  0  0  0  0  0  0  0  0  0  0  0
  143.5720   79.7773  222.6408 H   0  0  0  0  0  0  0  0  0  0  0  0
  140.9355   79.0458  223.6809 H   0  0  0  0  0  0  0  0  0  0  0  0
  142.3280   79.6332  224.5967 H   0  0  0  0  0  0  0  0  0  0  0  0
  140.0890   81.1508  224.4161 H   0  0  0  0  0  0  0  0  0  0  0  0
  141.6112   81.9703  224.3520 H   0  0  0  0  0  0  0  0  0  0  0  0
  139.9979   80.7901  221.9431 H   0  0  0  0  0  0  0  0  0  0  0  0
  140.3502   82.4789  222.1433 H   0  0  0  0  0  0  0  0  0  0  0  0
  142.0760   81.1174  220.6665 H   0  0  0  0  0  0  0  0  0  0  0  0
  142.8480   82.0252  221.9373 H   0  0  0  0  0  0  0  0  0  0  0  0
  139.7590   79.5638  220.7213 H   0  0  0  0  0  0  0  0  0  0  0  0
  137.6829   78.2349  220.9078 H   0  0  0  0  0  0  0  0  0  0  0  0
  1  2  1  0
  2  3  1  0
  3  4  1  0
  4  5  2  0
  4  6  1  0
  6  7  1  0
  7  8  1  0
  8  9  2  0
  8 10  1  0
 10 11  2  0
 11 12  1  0
 12 13  2  0
 13 14  1  0
 14 15  2  0
 15 16  1  0
 16 17  2  0
 17 18  1  0
 18 19  2  0
  2 20  1  0
 20 21  2  0
 21 22  1  0
 22 23  2  0
 23 24  1  0
 24 25  1  0
 25 26  1  0
 26 27  1  0
 27 28  1  0
 28 29  1  0
 23 30  1  0
 30 31  2  0
 19 10  1  0
 31 20  1  0
 18 13  1  0
 29 25  1  0
  1 32  1  0
  1 33  1  0
  1 34  1  0
  2 35  1  6
  3 36  1  0
  6 37  1  0
  6 38  1  0
  7 39  1  0
 11 40  1  0
 12 41  1  0
 14 42  1  0
 15 43  1  0
 16 44  1  0
 17 45  1  0
 21 46  1  0
 22 47  1  0
 25 48  1  0
 26 49  1  0
 26 50  1  0
 27 51  1  0
 27 52  1  0
 28 53  1  0
 28 54  1  0
 29 55  1  0
 29 56  1  0
 30 57  1  0
 31 58  1  0
M  END
>  <smiles>  (1) 
CC(NC(=O)CNC(=O)c1ccc2ccccc2n1)c1ccc(OC2CCCC2)cc1

>  <score_type>  (1) 
oracle

>  <origin>  (1) 
autodockgpu

>  <m_score__min__energy>  (1) 
-9.2300000000000004

>  <m_primary>  (1) 
energy

>  <rmsd>  (1) 
5.1854341003645885

>  <m_score__min__rmsd>  (1) 
5.1854341003645885

>  <meeko>  (1) 
{"free_energy": -8.44, "intermolecular_energy": -10.53, "internal_energy": -2.49, "cluster_size": 40, "cluster_id": 1, "rank_in_cluster": 32}

>  <energy>  (1) 
-9.23

>  <cluster_rmsd>  (1) 
0.0

>  <cluster>  (1) 
1

$$$$

     RDKit          3D

 58 61  0  0  0  0  0  0  0  0999 V2000
  143.2480   73.9390  218.9080 C   0  0  0  0  0  0  0  0  0  0  0  0
  142.7910   74.1390  220.3100 C   0  0  2  0  0  0  0  0  0  0  0  0
  141.8650   73.0880  220.6830 N   0  0  0  0  0  0  0  0  0  0  0  0
  140.6740   72.8810  219.9490 C   0  0  0  0  0  0  0  0  0  0  0  0
  140.4760   73.6480  218.9650 O   0  0  0  0  0  0  0  0  0  0  0  0
  139.6640   71.8610  220.2300 C   0  0  0  0  0  0  0  0  0  0  0  0
  139.7690   71.2300  221.5220 N   0  0  0  0  0  0  0  0  0  0  0  0
  140.0910   71.9680  222.6950 C   0  0  0  0  0  0  0  0  0  0  0  0
  140.2970   73.2310  222.6660 O   0  0  0  0  0  0  0  0  0  0  0  0
  140.1980   71.2890  223.9880 C   0  0  0  0  0  0  0  0  0  0  0  0
  140.7180   71.9490  225.0900 C   0  0  0  0  0  0  0  0  0  0  0  0
  140.8390   71.3550  226.3270 C   0  0  0  0  0  0  0  0  0  0  0  0
  140.4270   70.0390  226.4960 C   0  0  0  0  0  0  0  0  0  0  0  0
  140.5560   69.4750  227.7310 C   0  0  0  0  0  0  0  0  0  0  0  0
  140.1400   68.1500  227.8940 C   0  0  0  0  0  0  0  0  0  0  0  0
  139.6130   67.4590  226.8050 C   0  0  0  0  0  0  0  0  0  0  0  0
  139.5030   68.0870  225.5670 C   0  0  0  0  0  0  0  0  0  0  0  0
  139.9120   69.3990  225.3890 C   0  0  0  0  0  0  0  0  0  0  0  0
  139.8070   70.0180  224.1800 N   0  0  0  0  0  0  0  0  0  0  0  0
  142.0950   75.4270  220.5550 C   0  0  0  0  0  0  0  0  0  0  0  0
  142.2800   76.4690  219.6940 C   0  0  0  0  0  0  0  0  0  0  0  0
  141.6680   77.6940  219.8580 C   0  0  0  0  0  0  0  0  0  0  0  0
  140.8270   77.9200  220.9230 C   0  0  0  0  0  0  0  0  0  0  0  0
  140.1690   79.0840  221.1870 O   0  0  0  0  0  0  0  0  0  0  0  0
  140.6900   80.1780  221.8820 C   0  0  0  0  0  0  0  0  0  0  0  0
  142.2220   80.2050  221.8070 C   0  0  0  0  0  0  0  0  0  0  0  0
  142.6960   80.1560  223.2450 C   0  0  0  0  0  0  0  0  0  0  0  0
  141.6150   79.2540  223.8450 C   0  0  0  0  0  0  0  0  0  0  0  0
  140.3600   79.9480  223.3540 C   0  0  0  0  0  0  0  0  0  0  0  0
  140.6240   76.8620  221.8180 C   0  0  0  0  0  0  0  0  0  0  0  0
  141.2510   75.6370  221.6320 C   0  0  0  0  0  0  0  0  0  0  0  0
  144.2557   73.4980  218.9102 H   0  0  0  0  0  0  0  0  0  0  0  0
  142.5530   73.2628  218.3887 H   0  0  0  0  0  0  0  0  0  0  0  0
  143.2731   74.9084  218.3887 H   0  0  0  0  0  0  0  0  0  0  0  0
  143.7136   74.1295  220.9090 H   0  0  0  0  0  0  0  0  0  0  0  0
  142.0970   72.4850  221.4950 H   0  0  0  0  0  0  0  0  0  0  0  0
  138.6739   72.3355  220.1629 H   0  0  0  0  0  0  0  0  0  0  0  0
  139.8217   71.0641  219.4884 H   0  0  0  0  0  0  0  0  0  0  0  0
  139.6140   70.1930  221.6670 H   0  0  0  0  0  0  0  0  0  0  0  0
  141.0482   72.9916  224.9719 H   0  0  0  0  0  0  0  0  0  0  0  0
  141.2583   71.9180  227.1739 H   0  0  0  0  0  0  0  0  0  0  0  0
  140.9746   70.0452  228.5734 H   0  0  0  0  0  0  0  0  0  0  0  0
  140.2281   67.6575  228.8736 H   0  0  0  0  0  0  0  0  0  0  0  0
  139.2835   66.4162  226.9233 H   0  0  0  0  0  0  0  0  0  0  0  0
  139.0839   67.5316  224.7150 H   0  0  0  0  0  0  0  0  0  0  0  0
  142.9467   76.3258  218.8309 H   0  0  0  0  0  0  0  0  0  0  0  0
  141.8541   78.4978  219.1305 H   0  0  0  0  0  0  0  0  0  0  0  0
  140.2758   81.1050  221.4589 H   0  0  0  0  0  0  0  0  0  0  0  0
  142.5954   79.3338  221.2488 H   0  0  0  0  0  0  0  0  0  0  0  0
  142.5903   81.1005  221.2851 H   0  0  0  0  0  0  0  0  0  0  0  0
  143.6968   79.7077  223.3308 H   0  0  0  0  0  0  0  0  0  0  0  0
  142.8071   81.1361  223.7319 H   0  0  0  0  0  0  0  0  0  0  0  0
  141.6860   78.2261  223.4599 H   0  0  0  0  0  0  0  0  0  0  0  0
  141.6734   79.1385  224.9374 H   0  0  0  0  0  0  0  0  0  0  0  0
  139.4747   79.3057  223.4709 H   0  0  0  0  0  0  0  0  0  0  0  0
  140.1131   80.8672  223.9054 H   0  0  0  0  0  0  0  0  0  0  0  0
  139.9576   77.0036  222.6816 H   0  0  0  0  0  0  0  0  0  0  0  0
  141.0747   74.8226  222.3501 H   0  0  0  0  0  0  0  0  0  0  0  0
  1  2  1  0
  2  3  1  0
  3  4  1  0
  4  5  2  0
  4  6  1  0
  6  7  1  0
  7  8  1  0
  8  9  2  0
  8 10  1  0
 10 11  2  0
 11 12  1  0
 12 13  2  0
 13 14  1  0
 14 15  2  0
 15 16  1  0
 16 17  2  0
 17 18  1  0
 18 19  2  0
  2 20  1  0
 20 21  2  0
 21 22  1  0
 22 23  2  0
 23 24  1  0
 24 25  1  0
 25 26  1  0
 26 27  1  0
 27 28  1  0
 28 29  1  0
 23 30  1  0
 30 31  2  0
 19 10  1  0
 31 20  1  0
 18 13  1  0
 29 25  1  0
  1 32  1  0
  1 33  1  0
  1 34  1  0
  2 35  1  1
  3 36  1  0
  6 37  1  0
  6 38  1  0
  7 39  1  0
 11 40  1  0
 12 41  1  0
 14 42  1  0
 15 43  1  0
 16 44  1  0
 17 45  1  0
 21 46  1  0
 22 47  1  0
 25 48  1  0
 26 49  1  0
 26 50  1  0
 27 51  1  0
 27 52  1  0
 28 53  1  0
 28 54  1  0
 29 55  1  0
 29 56  1  0
 30 57  1  0
 31 58  1  0
M  END
>  <smiles>  (2) 
CC(NC(=O)CNC(=O)c1ccc2ccccc2n1)c1ccc(OC2CCCC2)cc1

>  <score_type>  (2) 
oracle

>  <origin>  (2) 
autodockgpu

>  <m_score__min__energy>  (2) 
-9.2300000000000004

>  <m_primary>  (2) 
energy

>  <rmsd>  (2) 
5.147696377882582

>  <m_score__min__rmsd>  (2) 
5.147696377882582

>  <meeko>  (2) 
{"free_energy": -8.41, "intermolecular_energy": -10.5, "internal_energy": -2.08, "cluster_size": 6, "cluster_id": 2, "rank_in_cluster": 5}

>  <energy>  (2) 
-9.14

>  <cluster_rmsd>  (2) 
0.32

>  <cluster>  (2) 
1

$$$$

     RDKit          3D

 58 61  0  0  0  0  0  0  0  0999 V2000
  136.3920   75.9350  223.0330 C   0  0  0  0  0  0  0  0  0  0  0  0
  137.5510   75.9650  222.1000 C   0  0  2  0  0  0  0  0  0  0  0  0
  138.1120   74.6350  221.9650 N   0  0  0  0  0  0  0  0  0  0  0  0
  137.9790   73.9150  220.7550 C   0  0  0  0  0  0  0  0  0  0  0  0
  137.3610   74.4940  219.8180 O   0  0  0  0  0  0  0  0  0  0  0  0
  138.4940   72.5700  220.5010 C   0  0  0  0  0  0  0  0  0  0  0  0
  138.6360   71.7350  221.6670 N   0  0  0  0  0  0  0  0  0  0  0  0
  139.5530   72.0480  222.7100 C   0  0  0  0  0  0  0  0  0  0  0  0
  140.2940   73.0910  222.6690 O   0  0  0  0  0  0  0  0  0  0  0  0
  139.6740   71.1700  223.8750 C   0  0  0  0  0  0  0  0  0  0  0  0
  139.1590   69.8850  223.8460 C   0  0  0  0  0  0  0  0  0  0  0  0
  139.2460   69.0210  224.9140 C   0  0  0  0  0  0  0  0  0  0  0  0
  139.8760   69.4380  226.0800 C   0  0  0  0  0  0  0  0  0  0  0  0
  139.9510   68.5630  227.1230 C   0  0  0  0  0  0  0  0  0  0  0  0
  140.5850   68.9890  228.2940 C   0  0  0  0  0  0  0  0  0  0  0  0
  141.1140   70.2760  228.3550 C   0  0  0  0  0  0  0  0  0  0  0  0
  141.0100   71.1270  227.2580 C   0  0  0  0  0  0  0  0  0  0  0  0
  140.3830   70.7190  226.0910 C   0  0  0  0  0  0  0  0  0  0  0  0
  140.2780   71.5480  225.0150 N   0  0  0  0  0  0  0  0  0  0  0  0
  138.6620   76.8550  222.5230 C   0  0  0  0  0  0  0  0  0  0  0  0
  139.9540   76.4480  222.3580 C   0  0  0  0  0  0  0  0  0  0  0  0
  141.0350   77.2190  222.7270 C   0  0  0  0  0  0  0  0  0  0  0  0
  140.8510   78.4610  223.2910 C   0  0  0  0  0  0  0  0  0  0  0  0
  141.8380   79.3100  223.6940 O   0  0  0  0  0  0  0  0  0  0  0  0
  142.4580   80.2780  222.9000 C   0  0  0  0  0  0  0  0  0  0  0  0
  141.9450   81.6850  223.2370 C   0  0  0  0  0  0  0  0  0  0  0  0
  141.3710   82.2240  221.9440 C   0  0  0  0  0  0  0  0  0  0  0  0
  140.8030   80.9310  221.3520 C   0  0  0  0  0  0  0  0  0  0  0  0
  142.0030   80.0130  221.4680 C   0  0  0  0  0  0  0  0  0  0  0  0
  139.5310   78.8960  223.4680 C   0  0  0  0  0  0  0  0  0  0  0  0
  138.4580   78.1020  223.0880 C   0  0  0  0  0  0  0  0  0  0  0  0
  136.7564   75.9444  224.0708 H   0  0  0  0  0  0  0  0  0  0  0  0
  135.7582   76.8170  222.8589 H   0  0  0  0  0  0  0  0  0  0  0  0
  135.8047   75.0214  222.8589 H   0  0  0  0  0  0  0  0  0  0  0  0
  137.1405   76.3547  221.1568 H   0  0  0  0  0  0  0  0  0  0  0  0
  138.6190   74.2250  222.7720 H   0  0  0  0  0  0  0  0  0  0  0  0
  137.8054   72.0681  219.8053 H   0  0  0  0  0  0  0  0  0  0  0  0
  139.5084   72.7037  220.0970 H   0  0  0  0  0  0  0  0  0  0  0  0
  138.0720   70.8510  221.8110 H   0  0  0  0  0  0  0  0  0  0  0  0
  138.6585   69.5395  222.9294 H   0  0  0  0  0  0  0  0  0  0  0  0
  138.8204   68.0090  224.8449 H   0  0  0  0  0  0  0  0  0  0  0  0
  139.5252   67.5517  227.0454 H   0  0  0  0  0  0  0  0  0  0  0  0
  140.6653   68.3141  229.1589 H   0  0  0  0  0  0  0  0  0  0  0  0
  141.6149   70.6207  229.2716 H   0  0  0  0  0  0  0  0  0  0  0  0
  141.4327   72.1407  227.3184 H   0  0  0  0  0  0  0  0  0  0  0  0
  140.1409   75.4606  221.9106 H   0  0  0  0  0  0  0  0  0  0  0  0
  142.0548   76.8381  222.5693 H   0  0  0  0  0  0  0  0  0  0  0  0
  143.5462   80.2274  223.0524 H   0  0  0  0  0  0  0  0  0  0  0  0
  141.1665   81.6353  224.0125 H   0  0  0  0  0  0  0  0  0  0  0  0
  142.7457   82.3293  223.6291 H   0  0  0  0  0  0  0  0  0  0  0  0
  140.5842   82.9709  222.1257 H   0  0  0  0  0  0  0  0  0  0  0  0
  142.0894   82.7538  221.3012 H   0  0  0  0  0  0  0  0  0  0  0  0
  139.9501   80.5581  221.9382 H   0  0  0  0  0  0  0  0  0  0  0  0
  140.4059   81.0339  220.3314 H   0  0  0  0  0  0  0  0  0  0  0  0
  141.7176   78.9602  221.3263 H   0  0  0  0  0  0  0  0  0  0  0  0
  142.7802   80.1963  220.7114 H   0  0  0  0  0  0  0  0  0  0  0  0
  139.3420   79.8830  223.9155 H   0  0  0  0  0  0  0  0  0  0  0  0
  137.4318   78.4686  223.2378 H   0  0  0  0  0  0  0  0  0  0  0  0
  1  2  1  0
  2  3  1  0
  3  4  1  0
  4  5  2  0
  4  6  1  0
  6  7  1  0
  7  8  1  0
  8  9  2  0
  8 10  1  0
 10 11  2  0
 11 12  1  0
 12 13  2  0
 13 14  1  0
 14 15  2  0
 15 16  1  0
 16 17  2  0
 17 18  1  0
 18 19  2  0
  2 20  1  0
 20 21  2  0
 21 22  1  0
 22 23  2  0
 23 24  1  0
 24 25  1  0
 25 26  1  0
 26 27  1  0
 27 28  1  0
 28 29  1  0
 23 30  1  0
 30 31  2  0
 19 10  1  0
 31 20  1  0
 18 13  1  0
 29 25  1  0
  1 32  1  0
  1 33  1  0
  1 34  1  0
  2 35  1  6
  3 36  1  0
  6 37  1  0
  6 38  1  0
  7 39  1  0
 11 40  1  0
 12 41  1  0
 14 42  1  0
 15 43  1  0
 16 44  1  0
 17 45  1  0
 21 46  1  0
 22 47  1  0
 25 48  1  0
 26 49  1  0
 26 50  1  0
 27 51  1  0
 27 52  1  0
 28 53  1  0
 28 54  1  0
 29 55  1  0
 29 56  1  0
 30 57  1  0
 31 58  1  0
M  END
>  <smiles>  (3) 
CC(NC(=O)CNC(=O)c1ccc2ccccc2n1)c1ccc(OC2CCCC2)cc1

>  <score_type>  (3) 
oracle

>  <origin>  (3) 
autodockgpu

>  <m_score__min__energy>  (3) 
-9.2300000000000004

>  <m_primary>  (3) 
energy

>  <rmsd>  (3) 
5.4438643941372975

>  <m_score__min__rmsd>  (3) 
5.4438643941372975

>  <meeko>  (3) 
{"free_energy": -9.13, "intermolecular_energy": -11.22, "internal_energy": -2.08, "cluster_size": 40, "cluster_id": 1, "rank_in_cluster": 3}

>  <energy>  (3) 
-9.13

>  <cluster_rmsd>  (3) 
0.24

>  <cluster>  (3) 
1

$$$$

     RDKit          3D

 58 61  0  0  0  0  0  0  0  0999 V2000
  141.7990   78.6180  223.9420 C   0  0  0  0  0  0  0  0  0  0  0  0
  140.9000   78.5610  222.7570 C   0  0  2  0  0  0  0  0  0  0  0  0
  141.0660   77.2950  222.0710 N   0  0  0  0  0  0  0  0  0  0  0  0
  140.0590   76.3040  222.1280 C   0  0  0  0  0  0  0  0  0  0  0  0
  139.0240   76.5880  222.7940 O   0  0  0  0  0  0  0  0  0  0  0  0
  140.1140   74.9920  221.4830 C   0  0  0  0  0  0  0  0  0  0  0  0
  139.8140   73.8730  222.3390 N   0  0  0  0  0  0  0  0  0  0  0  0
  140.6150   72.6960  222.3470 C   0  0  0  0  0  0  0  0  0  0  0  0
  141.6460   72.5730  221.5990 O   0  0  0  0  0  0  0  0  0  0  0  0
  140.2720   71.5760  223.2260 C   0  0  0  0  0  0  0  0  0  0  0  0
  139.4660   70.5450  222.7720 C   0  0  0  0  0  0  0  0  0  0  0  0
  139.1150   69.4700  223.5580 C   0  0  0  0  0  0  0  0  0  0  0  0
  139.5790   69.4000  224.8650 C   0  0  0  0  0  0  0  0  0  0  0  0
  139.2180   68.3250  225.6230 C   0  0  0  0  0  0  0  0  0  0  0  0
  139.6880   68.2600  226.9380 C   0  0  0  0  0  0  0  0  0  0  0  0
  140.5010   69.2820  227.4250 C   0  0  0  0  0  0  0  0  0  0  0  0
  140.8390   70.3550  226.6050 C   0  0  0  0  0  0  0  0  0  0  0  0
  140.3790   70.4340  225.3000 C   0  0  0  0  0  0  0  0  0  0  0  0
  140.7070   71.4830  224.4940 N   0  0  0  0  0  0  0  0  0  0  0  0
  141.1360   79.6260  221.7510 C   0  0  0  0  0  0  0  0  0  0  0  0
  141.6360   79.2990  220.5250 C   0  0  0  0  0  0  0  0  0  0  0  0
  141.8810   80.2340  219.5420 C   0  0  0  0  0  0  0  0  0  0  0  0
  141.6250   81.5680  219.7630 C   0  0  0  0  0  0  0  0  0  0  0  0
  141.8260   82.5780  218.8710 O   0  0  0  0  0  0  0  0  0  0  0  0
  142.0790   82.4260  217.5060 C   0  0  0  0  0  0  0  0  0  0  0  0
  143.5430   82.0410  217.2510 C   0  0  0  0  0  0  0  0  0  0  0  0
  144.0960   83.1330  216.3580 C   0  0  0  0  0  0  0  0  0  0  0  0
  143.3290   84.3360  216.9120 C   0  0  0  0  0  0  0  0  0  0  0  0
  141.9090   83.8080  216.8820 C   0  0  0  0  0  0  0  0  0  0  0  0
  141.1110   81.9230  221.0170 C   0  0  0  0  0  0  0  0  0  0  0  0
  140.8720   80.9640  221.9910 C   0  0  0  0  0  0  0  0  0  0  0  0
  141.1965   78.5798  224.8615 H   0  0  0  0  0  0  0  0  0  0  0  0
  142.4893   77.7618  223.9201 H   0  0  0  0  0  0  0  0  0  0  0  0
  142.3756   79.5545  223.9201 H   0  0  0  0  0  0  0  0  0  0  0  0
  139.8881   78.6964  223.1665 H   0  0  0  0  0  0  0  0  0  0  0  0
  141.9380   77.1340  221.5290 H   0  0  0  0  0  0  0  0  0  0  0  0
  139.3904   74.9899  220.6545 H   0  0  0  0  0  0  0  0  0  0  0  0
  141.1560   74.8559  221.1579 H   0  0  0  0  0  0  0  0  0  0  0  0
  138.9900   73.8650  223.0040 H   0  0  0  0  0  0  0  0  0  0  0  0
  139.0901   70.5867  221.7391 H   0  0  0  0  0  0  0  0  0  0  0  0
  138.4726   68.6737  223.1540 H   0  0  0  0  0  0  0  0  0  0  0  0
  138.5758   67.5323  225.2116 H   0  0  0  0  0  0  0  0  0  0  0  0
  139.4187   67.4102  227.5824 H   0  0  0  0  0  0  0  0  0  0  0  0
  140.8759   69.2407  228.4583 H   0  0  0  0  0  0  0  0  0  0  0  0
  141.4829   71.1547  227.0000 H   0  0  0  0  0  0  0  0  0  0  0  0
  141.8535   78.2422  220.3110 H   0  0  0  0  0  0  0  0  0  0  0  0
  142.2851   79.9106  218.5714 H   0  0  0  0  0  0  0  0  0  0  0  0
  141.4102   81.6533  217.0990 H   0  0  0  0  0  0  0  0  0  0  0  0
  144.1006   81.9991  218.1983 H   0  0  0  0  0  0  0  0  0  0  0  0
  143.6300   81.0482  216.7853 H   0  0  0  0  0  0  0  0  0  0  0  0
  145.1830   83.2496  216.4797 H   0  0  0  0  0  0  0  0  0  0  0  0
  143.9720   82.9589  215.2790 H   0  0  0  0  0  0  0  0  0  0  0  0
  143.6475   84.5823  217.9357 H   0  0  0  0  0  0  0  0  0  0  0  0
  143.4791   85.2693  216.3495 H   0  0  0  0  0  0  0  0  0  0  0  0
  141.2344   84.4378  217.4805 H   0  0  0  0  0  0  0  0  0  0  0  0
  141.4598   83.7922  215.8780 H   0  0  0  0  0  0  0  0  0  0  0  0
  140.8933   82.9794  221.2330 H   0  0  0  0  0  0  0  0  0  0  0  0
  140.4674   81.2707  222.9668 H   0  0  0  0  0  0  0  0  0  0  0  0
  1  2  1  0
  2  3  1  0
  3  4  1  0
  4  5  2  0
  4  6  1  0
  6  7  1  0
  7  8  1  0
  8  9  2  0
  8 10  1  0
 10 11  2  0
 11 12  1  0
 12 13  2  0
 13 14  1  0
 14 15  2  0
 15 16  1  0
 16 17  2  0
 17 18  1  0
 18 19  2  0
  2 20  1  0
 20 21  2  0
 21 22  1  0
 22 23  2  0
 23 24  1  0
 24 25  1  0
 25 26  1  0
 26 27  1  0
 27 28  1  0
 28 29  1  0
 23 30  1  0
 30 31  2  0
 19 10  1  0
 31 20  1  0
 18 13  1  0
 29 25  1  0
  1 32  1  0
  1 33  1  0
  1 34  1  0
  2 35  1  1
  3 36  1  0
  6 37  1  0
  6 38  1  0
  7 39  1  0
 11 40  1  0
 12 41  1  0
 14 42  1  0
 15 43  1  0
 16 44  1  0
 17 45  1  0
 21 46  1  0
 22 47  1  0
 25 48  1  0
 26 49  1  0
 26 50  1  0
 27 51  1  0
 27 52  1  0
 28 53  1  0
 28 54  1  0
 29 55  1  0
 29 56  1  0
 30 57  1  0
 31 58  1  0
M  END
>  <smiles>  (4) 
CC(NC(=O)CNC(=O)c1ccc2ccccc2n1)c1ccc(OC2CCCC2)cc1

>  <score_type>  (4) 
oracle

>  <origin>  (4) 
autodockgpu

>  <m_score__min__energy>  (4) 
-9.2300000000000004

>  <m_primary>  (4) 
energy

>  <rmsd>  (4) 
3.442650568573527

>  <m_score__min__rmsd>  (4) 
3.442650568573527

>  <meeko>  (4) 
{"free_energy": -8.79, "intermolecular_energy": -10.88, "internal_energy": -1.27, "cluster_size": 2, "cluster_id": 3, "rank_in_cluster": 2}

>  <energy>  (4) 
-9.11

>  <cluster_rmsd>  (4) 
0.73

>  <cluster>  (4) 
1

$$$$

     RDKit          3D

 58 61  0  0  0  0  0  0  0  0999 V2000
  136.8470   76.0430  223.2760 C   0  0  0  0  0  0  0  0  0  0  0  0
  137.5230   75.8560  221.9630 C   0  0  2  0  0  0  0  0  0  0  0  0
  138.0140   74.4970  221.8490 N   0  0  0  0  0  0  0  0  0  0  0  0
  138.2750   73.9280  220.5820 C   0  0  0  0  0  0  0  0  0  0  0  0
  138.0650   74.6650  219.5770 O   0  0  0  0  0  0  0  0  0  0  0  0
  138.7650   72.5710  220.3390 C   0  0  0  0  0  0  0  0  0  0  0  0
  138.8970   71.7460  221.5130 N   0  0  0  0  0  0  0  0  0  0  0  0
  139.6510   72.1640  222.6460 C   0  0  0  0  0  0  0  0  0  0  0  0
  140.2450   73.2970  222.6840 O   0  0  0  0  0  0  0  0  0  0  0  0
  139.7680   71.2930  223.8170 C   0  0  0  0  0  0  0  0  0  0  0  0
  139.3080   69.9870  223.7730 C   0  0  0  0  0  0  0  0  0  0  0  0
  139.3950   69.1290  224.8470 C   0  0  0  0  0  0  0  0  0  0  0  0
  139.9640   69.5730  226.0330 C   0  0  0  0  0  0  0  0  0  0  0  0
  140.0400   68.7030  227.0800 C   0  0  0  0  0  0  0  0  0  0  0  0
  140.6140   69.1580  228.2720 C   0  0  0  0  0  0  0  0  0  0  0  0
  141.0850   70.4660  228.3480 C   0  0  0  0  0  0  0  0  0  0  0  0
  140.9830   71.3110  227.2460 C   0  0  0  0  0  0  0  0  0  0  0  0
  140.4160   70.8750  226.0590 C   0  0  0  0  0  0  0  0  0  0  0  0
  140.3140   71.6970  224.9770 N   0  0  0  0  0  0  0  0  0  0  0  0
  138.6850   76.7500  221.7350 C   0  0  0  0  0  0  0  0  0  0  0  0
  138.5750   77.7910  220.8590 C   0  0  0  0  0  0  0  0  0  0  0  0
  139.6110   78.6610  220.5960 C   0  0  0  0  0  0  0  0  0  0  0  0
  140.8280   78.5120  221.2200 C   0  0  0  0  0  0  0  0  0  0  0  0
  141.9210   79.3070  221.0410 O   0  0  0  0  0  0  0  0  0  0  0  0
  142.1740   80.5110  221.7030 C   0  0  0  0  0  0  0  0  0  0  0  0
  143.2180   80.3270  222.8120 C   0  0  0  0  0  0  0  0  0  0  0  0
  142.5280   80.7600  224.0890 C   0  0  0  0  0  0  0  0  0  0  0  0
  141.1050   80.2800  223.7930 C   0  0  0  0  0  0  0  0  0  0  0  0
  140.8800   80.8840  222.4210 C   0  0  0  0  0  0  0  0  0  0  0  0
  140.9610   77.4490  222.1230 C   0  0  0  0  0  0  0  0  0  0  0  0
  139.9030   76.5850  222.3720 C   0  0  0  0  0  0  0  0  0  0  0  0
  137.5621   75.8452  224.0881 H   0  0  0  0  0  0  0  0  0  0  0  0
  136.4791   77.0766  223.3551 H   0  0  0  0  0  0  0  0  0  0  0  0
  136.0002   75.3454  223.3551 H   0  0  0  0  0  0  0  0  0  0  0  0
  136.7538   76.0972  221.2146 H   0  0  0  0  0  0  0  0  0  0  0  0
  138.1770   73.9530  222.7180 H   0  0  0  0  0  0  0  0  0  0  0  0
  138.0645   72.0745  219.6514 H   0  0  0  0  0  0  0  0  0  0  0  0
  139.7796   72.6822  219.9289 H   0  0  0  0  0  0  0  0  0  0  0  0
  138.4440   70.7920  221.5970 H   0  0  0  0  0  0  0  0  0  0  0  0
  138.8540   69.6196  222.8408 H   0  0  0  0  0  0  0  0  0  0  0  0
  139.0164   68.0994  224.7656 H   0  0  0  0  0  0  0  0  0  0  0  0
  139.6613   67.6741  226.9902 H   0  0  0  0  0  0  0  0  0  0  0  0
  140.6925   68.4884  229.1412 H   0  0  0  0  0  0  0  0  0  0  0  0
  141.5387   70.8326  229.2806 H   0  0  0  0  0  0  0  0  0  0  0  0
  141.3589   72.3422  227.3188 H   0  0  0  0  0  0  0  0  0  0  0  0
  137.6170   77.9422  220.3400 H   0  0  0  0  0  0  0  0  0  0  0  0
  139.4633   79.4828  219.8799 H   0  0  0  0  0  0  0  0  0  0  0  0
  142.5265   81.2568  220.9753 H   0  0  0  0  0  0  0  0  0  0  0  0
  143.5265   79.2733  222.8793 H   0  0  0  0  0  0  0  0  0  0  0  0
  144.1279   80.9142  222.6191 H   0  0  0  0  0  0  0  0  0  0  0  0
  142.9524   80.2609  224.9726 H   0  0  0  0  0  0  0  0  0  0  0  0
  142.6177   81.8304  224.3260 H   0  0  0  0  0  0  0  0  0  0  0  0
  141.0457   79.1819  223.7664 H   0  0  0  0  0  0  0  0  0  0  0  0
  140.3598   80.5733  224.5471 H   0  0  0  0  0  0  0  0  0  0  0  0
  140.0041   80.4394  221.9258 H   0  0  0  0  0  0  0  0  0  0  0  0
  140.6736   81.9643  222.4370 H   0  0  0  0  0  0  0  0  0  0  0  0
  141.9184   77.2966  222.6427 H   0  0  0  0  0  0  0  0  0  0  0  0
  140.0344   75.7580  223.0853 H   0  0  0  0  0  0  0  0  0  0  0  0
  1  2  1  0
  2  3  1  0
  3  4  1  0
  4  5  2  0
  4  6  1  0
  6  7  1  0
  7  8  1  0
  8  9  2  0
  8 10  1  0
 10 11  2  0
 11 12  1  0
 12 13  2  0
 13 14  1  0
 14 15  2  0
 15 16  1  0
 16 17  2  0
 17 18  1  0
 18 19  2  0
  2 20  1  0
 20 21  2  0
 21 22  1  0
 22 23  2  0
 23 24  1  0
 24 25  1  0
 25 26  1  0
 26 27  1  0
 27 28  1  0
 28 29  1  0
 23 30  1  0
 30 31  2  0
 19 10  1  0
 31 20  1  0
 18 13  1  0
 29 25  1  0
  1 32  1  0
  1 33  1  0
  1 34  1  0
  2 35  1  6
  3 36  1  0
  6 37  1  0
  6 38  1  0
  7 39  1  0
 11 40  1  0
 12 41  1  0
 14 42  1  0
 15 43  1  0
 16 44  1  0
 17 45  1  0
 21 46  1  0
 22 47  1  0
 25 48  1  0
 26 49  1  0
 26 50  1  0
 27 51  1  0
 27 52  1  0
 28 53  1  0
 28 54  1  0
 29 55  1  0
 29 56  1  0
 30 57  1  0
 31 58  1  0
M  END
>  <smiles>  (5) 
CC(NC(=O)CNC(=O)c1ccc2ccccc2n1)c1ccc(OC2CCCC2)cc1

>  <score_type>  (5) 
oracle

>  <origin>  (5) 
autodockgpu

>  <m_score__min__energy>  (5) 
-9.2300000000000004

>  <m_primary>  (5) 
energy

>  <rmsd>  (5) 
5.13630309640475

>  <m_score__min__rmsd>  (5) 
5.13630309640475

>  <meeko>  (5) 
{"free_energy": -8.7, "intermolecular_energy": -10.78, "internal_energy": -2.1, "cluster_size": 40, "cluster_id": 1, "rank_in_cluster": 20}

>  <energy>  (5) 
-9.06

>  <cluster_rmsd>  (5) 
0.74

>  <cluster>  (5) 
1

$$$$

     RDKit          3D

 58 61  0  0  0  0  0  0  0  0999 V2000
  136.4570   76.0330  223.0860 C   0  0  0  0  0  0  0  0  0  0  0  0
  137.5900   76.0970  222.1230 C   0  0  2  0  0  0  0  0  0  0  0  0
  138.1770   74.7820  221.9620 N   0  0  0  0  0  0  0  0  0  0  0  0
  137.8900   73.9970  220.8220 C   0  0  0  0  0  0  0  0  0  0  0  0
  137.1120   74.5070  219.9660 O   0  0  0  0  0  0  0  0  0  0  0  0
  138.4160   72.6590  220.5510 C   0  0  0  0  0  0  0  0  0  0  0  0
  138.5600   71.8100  221.7060 N   0  0  0  0  0  0  0  0  0  0  0  0
  139.5210   72.0770  222.7220 C   0  0  0  0  0  0  0  0  0  0  0  0
  140.3020   73.0890  222.6660 O   0  0  0  0  0  0  0  0  0  0  0  0
  139.6420   71.1850  223.8770 C   0  0  0  0  0  0  0  0  0  0  0  0
  139.1300   69.8990  223.8310 C   0  0  0  0  0  0  0  0  0  0  0  0
  139.2180   69.0220  224.8890 C   0  0  0  0  0  0  0  0  0  0  0  0
  139.8440   69.4260  226.0610 C   0  0  0  0  0  0  0  0  0  0  0  0
  139.9200   68.5390  227.0930 C   0  0  0  0  0  0  0  0  0  0  0  0
  140.5510   68.9520  228.2700 C   0  0  0  0  0  0  0  0  0  0  0  0
  141.0770   70.2400  228.3480 C   0  0  0  0  0  0  0  0  0  0  0  0
  140.9720   71.1040  227.2610 C   0  0  0  0  0  0  0  0  0  0  0  0
  140.3480   70.7090  226.0890 C   0  0  0  0  0  0  0  0  0  0  0  0
  140.2430   71.5500  225.0220 N   0  0  0  0  0  0  0  0  0  0  0  0
  138.6890   77.0100  222.5240 C   0  0  0  0  0  0  0  0  0  0  0  0
  139.9860   76.6200  222.3540 C   0  0  0  0  0  0  0  0  0  0  0  0
  141.0580   77.4140  222.7040 C   0  0  0  0  0  0  0  0  0  0  0  0
  140.8590   78.6610  223.2500 C   0  0  0  0  0  0  0  0  0  0  0  0
  141.8360   79.5310  223.6320 O   0  0  0  0  0  0  0  0  0  0  0  0
  142.4530   80.4800  222.8130 C   0  0  0  0  0  0  0  0  0  0  0  0
  141.8190   81.8650  222.9940 C   0  0  0  0  0  0  0  0  0  0  0  0
  141.3170   82.2610  221.6200 C   0  0  0  0  0  0  0  0  0  0  0  0
  140.8900   80.8890  221.0940 C   0  0  0  0  0  0  0  0  0  0  0  0
  142.1370   80.0740  221.3760 C   0  0  0  0  0  0  0  0  0  0  0  0
  139.5340   79.0790  223.4310 C   0  0  0  0  0  0  0  0  0  0  0  0
  138.4710   78.2620  223.0720 C   0  0  0  0  0  0  0  0  0  0  0  0
  136.8478   76.0551  224.1140 H   0  0  0  0  0  0  0  0  0  0  0  0
  135.7922   76.8950  222.9279 H   0  0  0  0  0  0  0  0  0  0  0  0
  135.8935   75.1016  222.9279 H   0  0  0  0  0  0  0  0  0  0  0  0
  137.1467   76.4836  221.1935 H   0  0  0  0  0  0  0  0  0  0  0  0
  138.8190   74.4310  222.6990 H   0  0  0  0  0  0  0  0  0  0  0  0
  137.7335   72.1616  219.8462 H   0  0  0  0  0  0  0  0  0  0  0  0
  139.4305   72.8054  220.1519 H   0  0  0  0  0  0  0  0  0  0  0  0
  137.9650   70.9480  221.8610 H   0  0  0  0  0  0  0  0  0  0  0  0
  138.6315   69.5637  222.9095 H   0  0  0  0  0  0  0  0  0  0  0  0
  138.7959   68.0096  224.8065 H   0  0  0  0  0  0  0  0  0  0  0  0
  139.4971   67.5276  227.0024 H   0  0  0  0  0  0  0  0  0  0  0  0
  140.6315   68.2666  229.1266 H   0  0  0  0  0  0  0  0  0  0  0  0
  141.5758   70.5747  229.2695 H   0  0  0  0  0  0  0  0  0  0  0  0
  141.3920   72.1180  227.3343 H   0  0  0  0  0  0  0  0  0  0  0  0
  140.1848   75.6294  221.9190 H   0  0  0  0  0  0  0  0  0  0  0  0
  142.0825   77.0465  222.5450 H   0  0  0  0  0  0  0  0  0  0  0  0
  143.5257   80.5228  223.0527 H   0  0  0  0  0  0  0  0  0  0  0  0
  140.9846   81.8157  223.7091 H   0  0  0  0  0  0  0  0  0  0  0  0
  142.5387   82.5952  223.3925 H   0  0  0  0  0  0  0  0  0  0  0  0
  140.4685   82.9585  221.6797 H   0  0  0  0  0  0  0  0  0  0  0  0
  142.0476   82.7932  220.9930 H   0  0  0  0  0  0  0  0  0  0  0  0
  140.0194   80.4989  221.6415 H   0  0  0  0  0  0  0  0  0  0  0  0
  140.5723   80.8844  220.0409 H   0  0  0  0  0  0  0  0  0  0  0  0
  141.9369   78.9951  221.2988 H   0  0  0  0  0  0  0  0  0  0  0  0
  142.9596   80.2569  220.6690 H   0  0  0  0  0  0  0  0  0  0  0  0
  139.3331   80.0699  223.8643 H   0  0  0  0  0  0  0  0  0  0  0  0
  137.4404   78.6147  223.2253 H   0  0  0  0  0  0  0  0  0  0  0  0
  1  2  1  0
  2  3  1  0
  3  4  1  0
  4  5  2  0
  4  6  1  0
  6  7  1  0
  7  8  1  0
  8  9  2  0
  8 10  1  0
 10 11  2  0
 11 12  1  0
 12 13  2  0
 13 14  1  0
 14 15  2  0
 15 16  1  0
 16 17  2  0
 17 18  1  0
 18 19  2  0
  2 20  1  0
 20 21  2  0
 21 22  1  0
 22 23  2  0
 23 24  1  0
 24 25  1  0
 25 26  1  0
 26 27  1  0
 27 28  1  0
 28 29  1  0
 23 30  1  0
 30 31  2  0
 19 10  1  0
 31 20  1  0
 18 13  1  0
 29 25  1  0
  1 32  1  0
  1 33  1  0
  1 34  1  0
  2 35  1  6
  3 36  1  0
  6 37  1  0
  6 38  1  0
  7 39  1  0
 11 40  1  0
 12 41  1  0
 14 42  1  0
 15 43  1  0
 16 44  1  0
 17 45  1  0
 21 46  1  0
 22 47  1  0
 25 48  1  0
 26 49  1  0
 26 50  1  0
 27 51  1  0
 27 52  1  0
 28 53  1  0
 28 54  1  0
 29 55  1  0
 29 56  1  0
 30 57  1  0
 31 58  1  0
M  END
>  <smiles>  (6) 
CC(NC(=O)CNC(=O)c1ccc2ccccc2n1)c1ccc(OC2CCCC2)cc1

>  <score_type>  (6) 
oracle

>  <origin>  (6) 
autodockgpu

>  <m_score__min__energy>  (6) 
-9.2300000000000004

>  <m_primary>  (6) 
energy

>  <rmsd>  (6) 
5.3612881977405

>  <m_score__min__rmsd>  (6) 
5.3612881977405

>  <meeko>  (6) 
{"free_energy": -9.14, "intermolecular_energy": -11.23, "internal_energy": -2.07, "cluster_size": 40, "cluster_id": 1, "rank_in_cluster": 2}

>  <energy>  (6) 
-9.04

>  <cluster_rmsd>  (6) 
0.73

>  <cluster>  (6) 
1

$$$$

     RDKit          3D

 58 61  0  0  0  0  0  0  0  0999 V2000
  136.6650   75.9790  223.1820 C   0  0  0  0  0  0  0  0  0  0  0  0
  137.4780   75.7070  221.9660 C   0  0  2  0  0  0  0  0  0  0  0  0
  137.9070   74.3220  221.9570 N   0  0  0  0  0  0  0  0  0  0  0  0
  137.7680   73.5300  220.7940 C   0  0  0  0  0  0  0  0  0  0  0  0
  137.2650   74.0960  219.7820 O   0  0  0  0  0  0  0  0  0  0  0  0
  138.1570   72.1260  220.6650 C   0  0  0  0  0  0  0  0  0  0  0  0
  138.5280   71.4750  221.8960 N   0  0  0  0  0  0  0  0  0  0  0  0
  139.5790   71.9680  222.7210 C   0  0  0  0  0  0  0  0  0  0  0  0
  140.2440   73.0170  222.4150 O   0  0  0  0  0  0  0  0  0  0  0  0
  139.9320   71.2730  223.9600 C   0  0  0  0  0  0  0  0  0  0  0  0
  140.7450   71.8810  224.9020 C   0  0  0  0  0  0  0  0  0  0  0  0
  141.1060   71.2700  226.0830 C   0  0  0  0  0  0  0  0  0  0  0  0
  140.6440   69.9900  226.3580 C   0  0  0  0  0  0  0  0  0  0  0  0
  141.0140   69.4080  227.5350 C   0  0  0  0  0  0  0  0  0  0  0  0
  140.5460   68.1190  227.8060 C   0  0  0  0  0  0  0  0  0  0  0  0
  139.7250   67.4800  226.8790 C   0  0  0  0  0  0  0  0  0  0  0  0
  139.3780   68.1230  225.6940 C   0  0  0  0  0  0  0  0  0  0  0  0
  139.8350   69.4010  225.4100 C   0  0  0  0  0  0  0  0  0  0  0  0
  139.4990   70.0350  224.2520 N   0  0  0  0  0  0  0  0  0  0  0  0
  138.7050   76.5340  221.8460 C   0  0  0  0  0  0  0  0  0  0  0  0
  139.8760   76.0890  222.3900 C   0  0  0  0  0  0  0  0  0  0  0  0
  141.0530   76.8020  222.3190 C   0  0  0  0  0  0  0  0  0  0  0  0
  141.0970   78.0210  221.6810 C   0  0  0  0  0  0  0  0  0  0  0  0
  142.1980   78.8130  221.5480 O   0  0  0  0  0  0  0  0  0  0  0  0
  142.5640   79.8560  222.4020 C   0  0  0  0  0  0  0  0  0  0  0  0
  141.8120   79.7700  223.7370 C   0  0  0  0  0  0  0  0  0  0  0  0
  141.0570   81.0770  223.8590 C   0  0  0  0  0  0  0  0  0  0  0  0
  140.7120   81.3170  222.3870 C   0  0  0  0  0  0  0  0  0  0  0  0
  142.0720   81.1420  221.7430 C   0  0  0  0  0  0  0  0  0  0  0  0
  139.9060   78.4940  221.1160 C   0  0  0  0  0  0  0  0  0  0  0  0
  138.7320   77.7580  221.2010 C   0  0  0  0  0  0  0  0  0  0  0  0
  137.2685   75.7771  224.0793 H   0  0  0  0  0  0  0  0  0  0  0  0
  136.3477   77.0322  223.1829 H   0  0  0  0  0  0  0  0  0  0  0  0
  135.7778   75.3287  223.1829 H   0  0  0  0  0  0  0  0  0  0  0  0
  136.8144   75.9551  221.1246 H   0  0  0  0  0  0  0  0  0  0  0  0
  138.3240   73.9250  222.8210 H   0  0  0  0  0  0  0  0  0  0  0  0
  137.3081   71.5764  220.2321 H   0  0  0  0  0  0  0  0  0  0  0  0
  139.0566   72.1161  220.0321 H   0  0  0  0  0  0  0  0  0  0  0  0
  138.0430   70.6040  222.2520 H   0  0  0  0  0  0  0  0  0  0  0  0
  141.1186   72.8954  224.6986 H   0  0  0  0  0  0  0  0  0  0  0  0
  141.7547   71.7919  226.8018 H   0  0  0  0  0  0  0  0  0  0  0  0
  141.6614   69.9373  228.2496 H   0  0  0  0  0  0  0  0  0  0  0  0
  140.8234   67.6135  228.7428 H   0  0  0  0  0  0  0  0  0  0  0  0
  139.3506   66.4662  227.0838 H   0  0  0  0  0  0  0  0  0  0  0  0
  138.7296   67.6080  224.9699 H   0  0  0  0  0  0  0  0  0  0  0  0
  139.8798   75.1185  222.9077 H   0  0  0  0  0  0  0  0  0  0  0  0
  141.9660   76.3932  222.7765 H   0  0  0  0  0  0  0  0  0  0  0  0
  143.6493   79.8159  222.5769 H   0  0  0  0  0  0  0  0  0  0  0  0
  141.1127   78.9209  223.7307 H   0  0  0  0  0  0  0  0  0  0  0  0
  142.4974   79.6134  224.5829 H   0  0  0  0  0  0  0  0  0  0  0  0
  140.1544   80.9717  224.4788 H   0  0  0  0  0  0  0  0  0  0  0  0
  141.6132   81.8919  224.3454 H   0  0  0  0  0  0  0  0  0  0  0  0
  139.9896   80.5757  222.0147 H   0  0  0  0  0  0  0  0  0  0  0  0
  140.2340   82.2867  222.1841 H   0  0  0  0  0  0  0  0  0  0  0  0
  141.9872   81.0265  220.6524 H   0  0  0  0  0  0  0  0  0  0  0  0
  142.7454   82.0006  221.8820 H   0  0  0  0  0  0  0  0  0  0  0  0
  139.9007   79.4638  220.5968 H   0  0  0  0  0  0  0  0  0  0  0  0
  137.8102   78.1534  220.7493 H   0  0  0  0  0  0  0  0  0  0  0  0
  1  2  1  0
  2  3  1  0
  3  4  1  0
  4  5  2  0
  4  6  1  0
  6  7  1  0
  7  8  1  0
  8  9  2  0
  8 10  1  0
 10 11  2  0
 11 12  1  0
 12 13  2  0
 13 14  1  0
 14 15  2  0
 15 16  1  0
 16 17  2  0
 17 18  1  0
 18 19  2  0
  2 20  1  0
 20 21  2  0
 21 22  1  0
 22 23  2  0
 23 24  1  0
 24 25  1  0
 25 26  1  0
 26 27  1  0
 27 28  1  0
 28 29  1  0
 23 30  1  0
 30 31  2  0
 19 10  1  0
 31 20  1  0
 18 13  1  0
 29 25  1  0
  1 32  1  0
  1 33  1  0
  1 34  1  0
  2 35  1  6
  3 36  1  0
  6 37  1  0
  6 38  1  0
  7 39  1  0
 11 40  1  0
 12 41  1  0
 14 42  1  0
 15 43  1  0
 16 44  1  0
 17 45  1  0
 21 46  1  0
 22 47  1  0
 25 48  1  0
 26 49  1  0
 26 50  1  0
 27 51  1  0
 27 52  1  0
 28 53  1  0
 28 54  1  0
 29 55  1  0
 29 56  1  0
 30 57  1  0
 31 58  1  0
M  END
>  <smiles>  (7) 
CC(NC(=O)CNC(=O)c1ccc2ccccc2n1)c1ccc(OC2CCCC2)cc1

>  <score_type>  (7) 
oracle

>  <origin>  (7) 
autodockgpu

>  <m_score__min__energy>  (7) 
-9.2300000000000004

>  <m_primary>  (7) 
energy

>  <rmsd>  (7) 
5.13146457666593

>  <m_score__min__rmsd>  (7) 
5.13146457666593

>  <meeko>  (7) 
{"free_energy": -8.59, "intermolecular_energy": -10.68, "internal_energy": -2.51, "cluster_size": 40, "cluster_id": 1, "rank_in_cluster": 24}

>  <energy>  (7) 
-9.03

>  <cluster_rmsd>  (7) 
0.67

>  <cluster>  (7) 
1

$$$$

     RDKit          3D

 58 61  0  0  0  0  0  0  0  0999 V2000
  136.4840   75.7720  223.0520 C   0  0  0  0  0  0  0  0  0  0  0  0
  137.4160   75.4160  221.9470 C   0  0  2  0  0  0  0  0  0  0  0  0
  137.8530   74.0420  222.0920 N   0  0  0  0  0  0  0  0  0  0  0  0
  137.3480   73.0300  221.2440 C   0  0  0  0  0  0  0  0  0  0  0  0
  136.5150   73.3920  220.3660 O   0  0  0  0  0  0  0  0  0  0  0  0
  137.7080   71.6130  221.2960 C   0  0  0  0  0  0  0  0  0  0  0  0
  138.1860   71.1460  222.5730 N   0  0  0  0  0  0  0  0  0  0  0  0
  139.3850   71.6480  223.1560 C   0  0  0  0  0  0  0  0  0  0  0  0
  140.0950   72.5430  222.5810 O   0  0  0  0  0  0  0  0  0  0  0  0
  139.8430   71.1430  224.4520 C   0  0  0  0  0  0  0  0  0  0  0  0
  140.7000   71.8940  225.2390 C   0  0  0  0  0  0  0  0  0  0  0  0
  141.1590   71.4640  226.4640 C   0  0  0  0  0  0  0  0  0  0  0  0
  140.7560   70.2260  226.9480 C   0  0  0  0  0  0  0  0  0  0  0  0
  141.2240   69.8230  228.1640 C   0  0  0  0  0  0  0  0  0  0  0  0
  140.8150   68.5760  228.6450 C   0  0  0  0  0  0  0  0  0  0  0  0
  139.9530   67.7960  227.8770 C   0  0  0  0  0  0  0  0  0  0  0  0
  139.5060   68.2580  226.6430 C   0  0  0  0  0  0  0  0  0  0  0  0
  139.9030   69.4920  226.1520 C   0  0  0  0  0  0  0  0  0  0  0  0
  139.4690   69.9490  224.9440 N   0  0  0  0  0  0  0  0  0  0  0  0
  138.6420   76.2500  221.8810 C   0  0  0  0  0  0  0  0  0  0  0  0
  139.8680   75.6540  221.9500 C   0  0  0  0  0  0  0  0  0  0  0  0
  141.0490   76.3640  221.8960 C   0  0  0  0  0  0  0  0  0  0  0  0
  141.0390   77.7330  221.7680 C   0  0  0  0  0  0  0  0  0  0  0  0
  142.1380   78.5380  221.7040 O   0  0  0  0  0  0  0  0  0  0  0  0
  142.5450   79.4450  222.6850 C   0  0  0  0  0  0  0  0  0  0  0  0
  141.5460   79.4900  223.8500 C   0  0  0  0  0  0  0  0  0  0  0  0
  141.0820   80.9290  223.9260 C   0  0  0  0  0  0  0  0  0  0  0  0
  141.0920   81.2860  222.4380 C   0  0  0  0  0  0  0  0  0  0  0  0
  142.4810   80.8280  222.0430 C   0  0  0  0  0  0  0  0  0  0  0  0
  139.7890   78.3630  221.6950 C   0  0  0  0  0  0  0  0  0  0  0  0
  138.6130   77.6280  221.7520 C   0  0  0  0  0  0  0  0  0  0  0  0
  136.9735   75.5850  224.0192 H   0  0  0  0  0  0  0  0  0  0  0  0
  136.2154   76.8360  222.9767 H   0  0  0  0  0  0  0  0  0  0  0  0
  135.5744   75.1580  222.9767 H   0  0  0  0  0  0  0  0  0  0  0  0
  136.8376   75.5857  221.0269 H   0  0  0  0  0  0  0  0  0  0  0  0
  138.5510   73.8170  222.8270 H   0  0  0  0  0  0  0  0  0  0  0  0
  136.8163   71.0258  221.0314 H   0  0  0  0  0  0  0  0  0  0  0  0
  138.5441   71.4853  220.5927 H   0  0  0  0  0  0  0  0  0  0  0  0
  137.6780   70.4130  223.1420 H   0  0  0  0  0  0  0  0  0  0  0  0
  141.0283   72.8767  224.8695 H   0  0  0  0  0  0  0  0  0  0  0  0
  141.8391   72.0956  227.0543 H   0  0  0  0  0  0  0  0  0  0  0  0
  141.9033   70.4605  228.7489 H   0  0  0  0  0  0  0  0  0  0  0  0
  141.1704   68.2137  229.6209 H   0  0  0  0  0  0  0  0  0  0  0  0
  139.6253   66.8132  228.2469 H   0  0  0  0  0  0  0  0  0  0  0  0
  138.8254   67.6328  226.0464 H   0  0  0  0  0  0  0  0  0  0  0  0
  139.9161   74.5599  222.0532 H   0  0  0  0  0  0  0  0  0  0  0  0
  142.0087   75.8298  221.9559 H   0  0  0  0  0  0  0  0  0  0  0  0
  143.5402   79.1556  223.0534 H   0  0  0  0  0  0  0  0  0  0  0  0
  140.6952   78.8211  223.6535 H   0  0  0  0  0  0  0  0  0  0  0  0
  142.0027   79.1569  224.7937 H   0  0  0  0  0  0  0  0  0  0  0  0
  140.0744   81.0114  224.3595 H   0  0  0  0  0  0  0  0  0  0  0  0
  141.6949   81.5819  224.5648 H   0  0  0  0  0  0  0  0  0  0  0  0
  140.3135   80.7392  221.8857 H   0  0  0  0  0  0  0  0  0  0  0  0
  140.8843   82.3446  222.2232 H   0  0  0  0  0  0  0  0  0  0  0  0
  142.5877   80.7679  220.9498 H   0  0  0  0  0  0  0  0  0  0  0  0
  143.2837   81.5075  222.3653 H   0  0  0  0  0  0  0  0  0  0  0  0
  139.7393   79.4569  221.5909 H   0  0  0  0  0  0  0  0  0  0  0  0
  137.6451   78.1474  221.6939 H   0  0  0  0  0  0  0  0  0  0  0  0
  1  2  1  0
  2  3  1  0
  3  4  1  0
  4  5  2  0
  4  6  1  0
  6  7  1  0
  7  8  1  0
  8  9  2  0
  8 10  1  0
 10 11  2  0
 11 12  1  0
 12 13  2  0
 13 14  1  0
 14 15  2  0
 15 16  1  0
 16 17  2  0
 17 18  1  0
 18 19  2  0
  2 20  1  0
 20 21  2  0
 21 22  1  0
 22 23  2  0
 23 24  1  0
 24 25  1  0
 25 26  1  0
 26 27  1  0
 27 28  1  0
 28 29  1  0
 23 30  1  0
 30 31  2  0
 19 10  1  0
 31 20  1  0
 18 13  1  0
 29 25  1  0
  1 32  1  0
  1 33  1  0
  1 34  1  0
  2 35  1  6
  3 36  1  0
  6 37  1  0
  6 38  1  0
  7 39  1  0
 11 40  1  0
 12 41  1  0
 14 42  1  0
 15 43  1  0
 16 44  1  0
 17 45  1  0
 21 46  1  0
 22 47  1  0
 25 48  1  0
 26 49  1  0
 26 50  1  0
 27 51  1  0
 27 52  1  0
 28 53  1  0
 28 54  1  0
 29 55  1  0
 29 56  1  0
 30 57  1  0
 31 58  1  0
M  END
>  <smiles>  (8) 
CC(NC(=O)CNC(=O)c1ccc2ccccc2n1)c1ccc(OC2CCCC2)cc1

>  <score_type>  (8) 
oracle

>  <origin>  (8) 
autodockgpu

>  <m_score__min__energy>  (8) 
-9.2300000000000004

>  <m_primary>  (8) 
energy

>  <rmsd>  (8) 
5.546640036965518

>  <m_score__min__rmsd>  (8) 
5.546640036965518

>  <meeko>  (8) 
{"free_energy": -8.32, "intermolecular_energy": -10.41, "internal_energy": -2.31, "cluster_size": 40, "cluster_id": 1, "rank_in_cluster": 38}

>  <energy>  (8) 
-8.96

>  <cluster_rmsd>  (8) 
0.77

>  <cluster>  (8) 
1

$$$$

     RDKit          3D

 58 61  0  0  0  0  0  0  0  0999 V2000
  138.3270   70.2220  220.8440 C   0  0  0  0  0  0  0  0  0  0  0  0
  138.3650   71.4730  221.6490 C   0  0  2  0  0  0  0  0  0  0  0  0
  139.1800   72.4670  220.9800 N   0  0  0  0  0  0  0  0  0  0  0  0
  138.6290   73.2950  219.9750 C   0  0  0  0  0  0  0  0  0  0  0  0
  137.4060   73.1230  219.7090 O   0  0  0  0  0  0  0  0  0  0  0  0
  139.3490   74.3270  219.2290 C   0  0  0  0  0  0  0  0  0  0  0  0
  139.5100   75.5840  219.9150 N   0  0  0  0  0  0  0  0  0  0  0  0
  140.0900   75.6640  221.2130 C   0  0  0  0  0  0  0  0  0  0  0  0
  140.5050   74.6250  221.8340 O   0  0  0  0  0  0  0  0  0  0  0  0
  140.2280   76.9590  221.8800 C   0  0  0  0  0  0  0  0  0  0  0  0
  139.1200   77.6050  222.4030 C   0  0  0  0  0  0  0  0  0  0  0  0
  139.1970   78.8240  223.0400 C   0  0  0  0  0  0  0  0  0  0  0  0
  140.4300   79.4480  223.1730 C   0  0  0  0  0  0  0  0  0  0  0  0
  140.4800   80.6530  223.8090 C   0  0  0  0  0  0  0  0  0  0  0  0
  141.7250   81.2770  223.9400 C   0  0  0  0  0  0  0  0  0  0  0  0
  142.8590   80.6530  223.4240 C   0  0  0  0  0  0  0  0  0  0  0  0
  142.7490   79.4210  222.7860 C   0  0  0  0  0  0  0  0  0  0  0  0
  141.5220   78.7910  222.6480 C   0  0  0  0  0  0  0  0  0  0  0  0
  141.4090   77.5850  222.0230 N   0  0  0  0  0  0  0  0  0  0  0  0
  138.9240   71.3110  223.0150 C   0  0  0  0  0  0  0  0  0  0  0  0
  138.2990   70.4910  223.9080 C   0  0  0  0  0  0  0  0  0  0  0  0
  138.7600   70.2930  225.1920 C   0  0  0  0  0  0  0  0  0  0  0  0
  139.8960   70.9300  225.6360 C   0  0  0  0  0  0  0  0  0  0  0  0
  140.4440   70.8130  226.8780 O   0  0  0  0  0  0  0  0  0  0  0  0
  141.0940   69.6830  227.3820 C   0  0  0  0  0  0  0  0  0  0  0  0
  141.4670   68.7090  226.2560 C   0  0  0  0  0  0  0  0  0  0  0  0
  140.7720   67.4080  226.6020 C   0  0  0  0  0  0  0  0  0  0  0  0
  139.4910   67.9580  227.2360 C   0  0  0  0  0  0  0  0  0  0  0  0
  140.0660   68.9430  228.2340 C   0  0  0  0  0  0  0  0  0  0  0  0
  140.5520   71.7770  224.7330 C   0  0  0  0  0  0  0  0  0  0  0  0
  140.0690   71.9600  223.4440 C   0  0  0  0  0  0  0  0  0  0  0  0
  138.3006   69.3530  221.5179 H   0  0  0  0  0  0  0  0  0  0  0  0
  137.4284   70.2214  220.2095 H   0  0  0  0  0  0  0  0  0  0  0  0
  139.2239   70.1669  220.2095 H   0  0  0  0  0  0  0  0  0  0  0  0
  137.3122   71.7771  221.7443 H   0  0  0  0  0  0  0  0  0  0  0  0
  140.1750   72.5640  221.2590 H   0  0  0  0  0  0  0  0  0  0  0  0
  140.3505   73.9386  218.9920 H   0  0  0  0  0  0  0  0  0  0  0  0
  138.7377   74.5419  218.3401 H   0  0  0  0  0  0  0  0  0  0  0  0
  139.2080   76.5080  219.4960 H   0  0  0  0  0  0  0  0  0  0  0  0
  138.1357   77.1237  222.3054 H   0  0  0  0  0  0  0  0  0  0  0  0
  138.2891   79.2990  223.4399 H   0  0  0  0  0  0  0  0  0  0  0  0
  139.5677   81.1209  224.2075 H   0  0  0  0  0  0  0  0  0  0  0  0
  141.8080   82.2505  224.4453 H   0  0  0  0  0  0  0  0  0  0  0  0
  143.8430   81.1350  223.5211 H   0  0  0  0  0  0  0  0  0  0  0  0
  143.6521   78.9385  222.3840 H   0  0  0  0  0  0  0  0  0  0  0  0
  137.3871   69.9646  223.5896 H   0  0  0  0  0  0  0  0  0  0  0  0
  138.2142   69.6189  225.8685 H   0  0  0  0  0  0  0  0  0  0  0  0
  141.9985   69.9970  227.9235 H   0  0  0  0  0  0  0  0  0  0  0  0
  141.1128   69.0883  225.2861 H   0  0  0  0  0  0  0  0  0  0  0  0
  142.5561   68.5806  226.1706 H   0  0  0  0  0  0  0  0  0  0  0  0
  140.5594   66.8067  225.7058 H   0  0  0  0  0  0  0  0  0  0  0  0
  141.3520   66.7261  227.2412 H   0  0  0  0  0  0  0  0  0  0  0  0
  138.8550   68.4604  226.4923 H   0  0  0  0  0  0  0  0  0  0  0  0
  138.8374   67.1918  227.6783 H   0  0  0  0  0  0  0  0  0  0  0  0
  139.2926   69.6271  228.6132 H   0  0  0  0  0  0  0  0  0  0  0  0
  140.4882   68.4717  229.1338 H   0  0  0  0  0  0  0  0  0  0  0  0
  141.4635   72.3050  225.0500 H   0  0  0  0  0  0  0  0  0  0  0  0
  140.6036   72.6298  222.7544 H   0  0  0  0  0  0  0  0  0  0  0  0
  1  2  1  0
  2  3  1  0
  3  4  1  0
  4  5  2  0
  4  6  1  0
  6  7  1  0
  7  8  1  0
  8  9  2  0
  8 10  1  0
 10 11  2  0
 11 12  1  0
 12 13  2  0
 13 14  1  0
 14 15  2  0
 15 16  1  0
 16 17  2  0
 17 18  1  0
 18 19  2  0
  2 20  1  0
 20 21  2  0
 21 22  1  0
 22 23  2  0
 23 24  1  0
 24 25  1  0
 25 26  1  0
 26 27  1  0
 27 28  1  0
 28 29  1  0
 23 30  1  0
 30 31  2  0
 19 10  1  0
 31 20  1  0
 18 13  1  0
 29 25  1  0
  1 32  1  0
  1 33  1  0
  1 34  1  0
  2 35  1  1
  3 36  1  0
  6 37  1  0
  6 38  1  0
  7 39  1  0
 11 40  1  0
 12 41  1  0
 14 42  1  0
 15 43  1  0
 16 44  1  0
 17 45  1  0
 21 46  1  0
 22 47  1  0
 25 48  1  0
 26 49  1  0
 26 50  1  0
 27 51  1  0
 27 52  1  0
 28 53  1  0
 28 54  1  0
 29 55  1  0
 29 56  1  0
 30 57  1  0
 31 58  1  0
M  END
>  <smiles>  (9) 
CC(NC(=O)CNC(=O)c1ccc2ccccc2n1)c1ccc(OC2CCCC2)cc1

>  <score_type>  (9) 
oracle

>  <origin>  (9) 
autodockgpu

>  <m_score__min__energy>  (9) 
-9.2300000000000004

>  <m_primary>  (9) 
energy

>  <rmsd>  (9) 
10.192930252834698

>  <m_score__min__rmsd>  (9) 
10.192930252834698

>  <meeko>  (9) 
{"free_energy": -7.84, "intermolecular_energy": -9.93, "internal_energy": -2.08, "cluster_size": 2, "cluster_id": 4, "rank_in_cluster": 2}

>  <energy>  (9) 
-8.96

>  <cluster_rmsd>  (9) 
1.13

>  <cluster>  (9) 
1

$$$$

     RDKit          3D

 58 61  0  0  0  0  0  0  0  0999 V2000
  143.2750   75.9370  217.8460 C   0  0  0  0  0  0  0  0  0  0  0  0
  142.8590   75.4310  219.1830 C   0  0  2  0  0  0  0  0  0  0  0  0
  141.9720   74.2960  219.0280 N   0  0  0  0  0  0  0  0  0  0  0  0
  141.9740   73.2430  219.9710 C   0  0  0  0  0  0  0  0  0  0  0  0
  142.7750   73.3560  220.9420 O   0  0  0  0  0  0  0  0  0  0  0  0
  141.1320   72.0480  219.9200 C   0  0  0  0  0  0  0  0  0  0  0  0
  140.9140   71.3940  221.1850 N   0  0  0  0  0  0  0  0  0  0  0  0
  140.4650   72.1070  222.3330 C   0  0  0  0  0  0  0  0  0  0  0  0
  140.2250   73.3630  222.2990 O   0  0  0  0  0  0  0  0  0  0  0  0
  140.2630   71.4070  223.6030 C   0  0  0  0  0  0  0  0  0  0  0  0
  139.5580   70.2160  223.6480 C   0  0  0  0  0  0  0  0  0  0  0  0
  139.3410   69.5210  224.8170 C   0  0  0  0  0  0  0  0  0  0  0  0
  139.8430   70.0190  226.0120 C   0  0  0  0  0  0  0  0  0  0  0  0
  139.6160   69.3110  227.1550 C   0  0  0  0  0  0  0  0  0  0  0  0
  140.1240   69.8190  228.3550 C   0  0  0  0  0  0  0  0  0  0  0  0
  140.8380   71.0150  228.3430 C   0  0  0  0  0  0  0  0  0  0  0  0
  141.0410   71.6960  227.1450 C   0  0  0  0  0  0  0  0  0  0  0  0
  140.5420   71.2060  225.9480 C   0  0  0  0  0  0  0  0  0  0  0  0
  140.7380   71.8670  224.7730 N   0  0  0  0  0  0  0  0  0  0  0  0
  142.1420   76.4220  220.0230 C   0  0  0  0  0  0  0  0  0  0  0  0
  142.1950   77.7470  219.6990 C   0  0  0  0  0  0  0  0  0  0  0  0
  141.5550   78.7230  220.4330 C   0  0  0  0  0  0  0  0  0  0  0  0
  140.8180   78.3940  221.5470 C   0  0  0  0  0  0  0  0  0  0  0  0
  140.1450   79.2680  222.3470 O   0  0  0  0  0  0  0  0  0  0  0  0
  140.5840   79.7520  223.5810 C   0  0  0  0  0  0  0  0  0  0  0  0
  140.8540   81.2620  223.5220 C   0  0  0  0  0  0  0  0  0  0  0  0
  142.3100   81.4250  223.9050 C   0  0  0  0  0  0  0  0  0  0  0  0
  142.8880   80.1540  223.2790 C   0  0  0  0  0  0  0  0  0  0  0  0
  141.9440   79.1070  223.8350 C   0  0  0  0  0  0  0  0  0  0  0  0
  140.7510   77.0380  221.8950 C   0  0  0  0  0  0  0  0  0  0  0  0
  141.4040   76.0720  221.1410 C   0  0  0  0  0  0  0  0  0  0  0  0
  143.9689   76.7810  217.9730 H   0  0  0  0  0  0  0  0  0  0  0  0
  143.7755   75.1315  217.2886 H   0  0  0  0  0  0  0  0  0  0  0  0
  142.3879   76.2723  217.2886 H   0  0  0  0  0  0  0  0  0  0  0  0
  143.8006   75.1722  219.6894 H   0  0  0  0  0  0  0  0  0  0  0  0
  141.3290   74.2750  218.2120 H   0  0  0  0  0  0  0  0  0  0  0  0
  140.1518   72.3399  219.5150 H   0  0  0  0  0  0  0  0  0  0  0  0
  141.6704   71.3232  219.2917 H   0  0  0  0  0  0  0  0  0  0  0  0
  141.0740   70.3580  221.3290 H   0  0  0  0  0  0  0  0  0  0  0  0
  139.1540   69.8076  222.7099 H   0  0  0  0  0  0  0  0  0  0  0  0
  138.7742   68.5784  224.8041 H   0  0  0  0  0  0  0  0  0  0  0  0
  139.0500   68.3680  227.1339 H   0  0  0  0  0  0  0  0  0  0  0  0
  139.9612   69.2791  229.2995 H   0  0  0  0  0  0  0  0  0  0  0  0
  141.2423   71.4224  229.2814 H   0  0  0  0  0  0  0  0  0  0  0  0
  141.6072   72.6391  227.1488 H   0  0  0  0  0  0  0  0  0  0  0  0
  142.7736   78.0492  218.8136 H   0  0  0  0  0  0  0  0  0  0  0  0
  141.6345   79.7759  220.1246 H   0  0  0  0  0  0  0  0  0  0  0  0
  139.8231   79.5351  224.3452 H   0  0  0  0  0  0  0  0  0  0  0  0
  140.6780   81.6451  222.5060 H   0  0  0  0  0  0  0  0  0  0  0  0
  140.1886   81.8233  224.1945 H   0  0  0  0  0  0  0  0  0  0  0  0
  142.7491   82.3332  223.4664 H   0  0  0  0  0  0  0  0  0  0  0  0
  142.4975   81.5395  224.9828 H   0  0  0  0  0  0  0  0  0  0  0  0
  142.8496   80.1907  222.1803 H   0  0  0  0  0  0  0  0  0  0  0  0
  143.9493   79.9766  223.5074 H   0  0  0  0  0  0  0  0  0  0  0  0
  142.0420   78.1524  223.2972 H   0  0  0  0  0  0  0  0  0  0  0  0
  142.1286   78.8536  224.8894 H   0  0  0  0  0  0  0  0  0  0  0  0
  140.1719   76.7342  222.7795 H   0  0  0  0  0  0  0  0  0  0  0  0
  141.3341   75.0146  221.4358 H   0  0  0  0  0  0  0  0  0  0  0  0
  1  2  1  0
  2  3  1  0
  3  4  1  0
  4  5  2  0
  4  6  1  0
  6  7  1  0
  7  8  1  0
  8  9  2  0
  8 10  1  0
 10 11  2  0
 11 12  1  0
 12 13  2  0
 13 14  1  0
 14 15  2  0
 15 16  1  0
 16 17  2  0
 17 18  1  0
 18 19  2  0
  2 20  1  0
 20 21  2  0
 21 22  1  0
 22 23  2  0
 23 24  1  0
 24 25  1  0
 25 26  1  0
 26 27  1  0
 27 28  1  0
 28 29  1  0
 23 30  1  0
 30 31  2  0
 19 10  1  0
 31 20  1  0
 18 13  1  0
 29 25  1  0
  1 32  1  0
  1 33  1  0
  1 34  1  0
  2 35  1  1
  3 36  1  0
  6 37  1  0
  6 38  1  0
  7 39  1  0
 11 40  1  0
 12 41  1  0
 14 42  1  0
 15 43  1  0
 16 44  1  0
 17 45  1  0
 21 46  1  0
 22 47  1  0
 25 48  1  0
 26 49  1  0
 26 50  1  0
 27 51  1  0
 27 52  1  0
 28 53  1  0
 28 54  1  0
 29 55  1  0
 29 56  1  0
 30 57  1  0
 31 58  1  0
M  END
>  <smiles>  (10) 
CC(NC(=O)CNC(=O)c1ccc2ccccc2n1)c1ccc(OC2CCCC2)cc1

>  <score_type>  (10) 
oracle

>  <origin>  (10) 
autodockgpu

>  <m_score__min__energy>  (10) 
-9.2300000000000004

>  <m_primary>  (10) 
energy

>  <rmsd>  (10) 
5.269840257077341

>  <m_score__min__rmsd>  (10) 
5.269840257077341

>  <meeko>  (10) 
{"free_energy": -9.06, "intermolecular_energy": -11.15, "internal_energy": -1.37, "cluster_size": 6, "cluster_id": 2, "rank_in_cluster": 1}

>  <energy>  (10) 
-8.95

>  <cluster_rmsd>  (10) 
1.1

>  <cluster>  (10) 
1

$$$$

     RDKit          3D

 58 61  0  0  0  0  0  0  0  0999 V2000
  135.5460   75.1400  223.2100 C   0  0  0  0  0  0  0  0  0  0  0  0
  136.5770   75.3810  222.1650 C   0  0  2  0  0  0  0  0  0  0  0  0
  137.4540   74.2320  222.0610 N   0  0  0  0  0  0  0  0  0  0  0  0
  137.5330   73.4900  220.8600 C   0  0  0  0  0  0  0  0  0  0  0  0
  136.8120   73.8880  219.9020 O   0  0  0  0  0  0  0  0  0  0  0  0
  138.3730   72.3140  220.6360 C   0  0  0  0  0  0  0  0  0  0  0  0
  138.7320   71.5790  221.8230 N   0  0  0  0  0  0  0  0  0  0  0  0
  139.5870   72.1290  222.8190 C   0  0  0  0  0  0  0  0  0  0  0  0
  140.0760   73.3070  222.7160 O   0  0  0  0  0  0  0  0  0  0  0  0
  139.9340   71.3480  224.0070 C   0  0  0  0  0  0  0  0  0  0  0  0
  140.7290   71.8930  225.0020 C   0  0  0  0  0  0  0  0  0  0  0  0
  141.0840   71.1990  226.1380 C   0  0  0  0  0  0  0  0  0  0  0  0
  140.6360   69.8960  226.3110 C   0  0  0  0  0  0  0  0  0  0  0  0
  141.0000   69.2320  227.4450 C   0  0  0  0  0  0  0  0  0  0  0  0
  140.5450   67.9200  227.6130 C   0  0  0  0  0  0  0  0  0  0  0  0
  139.7440   67.3430  226.6300 C   0  0  0  0  0  0  0  0  0  0  0  0
  139.4020   68.0700  225.4920 C   0  0  0  0  0  0  0  0  0  0  0  0
  139.8460   69.3700  225.3110 C   0  0  0  0  0  0  0  0  0  0  0  0
  139.5140   70.0860  224.2000 N   0  0  0  0  0  0  0  0  0  0  0  0
  137.4450   76.5590  222.4150 C   0  0  0  0  0  0  0  0  0  0  0  0
  136.8800   77.7580  222.7420 C   0  0  0  0  0  0  0  0  0  0  0  0
  137.6220   78.8930  222.9870 C   0  0  0  0  0  0  0  0  0  0  0  0
  138.9960   78.8640  222.9100 C   0  0  0  0  0  0  0  0  0  0  0  0
  139.8310   79.9180  223.1300 O   0  0  0  0  0  0  0  0  0  0  0  0
  141.0630   80.1290  222.5060 C   0  0  0  0  0  0  0  0  0  0  0  0
  142.1930   79.4000  223.2460 C   0  0  0  0  0  0  0  0  0  0  0  0
  143.1770   80.4810  223.6430 C   0  0  0  0  0  0  0  0  0  0  0  0
  142.2030   81.6280  223.9260 C   0  0  0  0  0  0  0  0  0  0  0  0
  141.3710   81.6160  222.6590 C   0  0  0  0  0  0  0  0  0  0  0  0
  139.5940   77.6420  222.5750 C   0  0  0  0  0  0  0  0  0  0  0  0
  138.8260   76.5110  222.3330 C   0  0  0  0  0  0  0  0  0  0  0  0
  136.0013   75.2464  224.2057 H   0  0  0  0  0  0  0  0  0  0  0  0
  134.7328   75.8723  223.0985 H   0  0  0  0  0  0  0  0  0  0  0  0
  135.1416   74.1231  223.0985 H   0  0  0  0  0  0  0  0  0  0  0  0
  136.0045   75.5668  221.2443 H   0  0  0  0  0  0  0  0  0  0  0  0
  138.0290   73.9690  222.8840 H   0  0  0  0  0  0  0  0  0  0  0  0
  137.8308   71.6318  219.9647 H   0  0  0  0  0  0  0  0  0  0  0  0
  139.3166   72.6898  220.2136 H   0  0  0  0  0  0  0  0  0  0  0  0
  138.3820   70.5990  222.0170 H   0  0  0  0  0  0  0  0  0  0  0  0
  141.0924   72.9240  224.8798 H   0  0  0  0  0  0  0  0  0  0  0  0
  141.7174   71.6734  226.9021 H   0  0  0  0  0  0  0  0  0  0  0  0
  141.6326   69.7138  228.2051 H   0  0  0  0  0  0  0  0  0  0  0  0
  140.8171   67.3491  228.5130 H   0  0  0  0  0  0  0  0  0  0  0  0
  139.3811   66.3119  226.7526 H   0  0  0  0  0  0  0  0  0  0  0  0
  138.7681   67.6037  224.7234 H   0  0  0  0  0  0  0  0  0  0  0  0
  135.7841   77.8208  222.8131 H   0  0  0  0  0  0  0  0  0  0  0  0
  137.1110   79.8318  223.2468 H   0  0  0  0  0  0  0  0  0  0  0  0
  141.0062   79.7768  221.4655 H   0  0  0  0  0  0  0  0  0  0  0  0
  141.8019   78.8891  224.1382 H   0  0  0  0  0  0  0  0  0  0  0  0
  142.6633   78.6296  222.6172 H   0  0  0  0  0  0  0  0  0  0  0  0
  143.7520   80.2021  224.5384 H   0  0  0  0  0  0  0  0  0  0  0  0
  143.9522   80.7025  222.8946 H   0  0  0  0  0  0  0  0  0  0  0  0
  141.5882   81.4264  224.8156 H   0  0  0  0  0  0  0  0  0  0  0  0
  142.6865   82.5919  224.1433 H   0  0  0  0  0  0  0  0  0  0  0  0
  140.4504   82.2061  222.7781 H   0  0  0  0  0  0  0  0  0  0  0  0
  141.8764   82.0595  221.7884 H   0  0  0  0  0  0  0  0  0  0  0  0
  140.6897   77.5777  222.5026 H   0  0  0  0  0  0  0  0  0  0  0  0
  139.3216   75.5641  222.0726 H   0  0  0  0  0  0  0  0  0  0  0  0
  1  2  1  0
  2  3  1  0
  3  4  1  0
  4  5  2  0
  4  6  1  0
  6  7  1  0
  7  8  1  0
  8  9  2  0
  8 10  1  0
 10 11  2  0
 11 12  1  0
 12 13  2  0
 13 14  1  0
 14 15  2  0
 15 16  1  0
 16 17  2  0
 17 18  1  0
 18 19  2  0
  2 20  1  0
 20 21  2  0
 21 22  1  0
 22 23  2  0
 23 24  1  0
 24 25  1  0
 25 26  1  0
 26 27  1  0
 27 28  1  0
 28 29  1  0
 23 30  1  0
 30 31  2  0
 19 10  1  0
 31 20  1  0
 18 13  1  0
 29 25  1  0
  1 32  1  0
  1 33  1  0
  1 34  1  0
  2 35  1  6
  3 36  1  0
  6 37  1  0
  6 38  1  0
  7 39  1  0
 11 40  1  0
 12 41  1  0
 14 42  1  0
 15 43  1  0
 16 44  1  0
 17 45  1  0
 21 46  1  0
 22 47  1  0
 25 48  1  0
 26 49  1  0
 26 50  1  0
 27 51  1  0
 27 52  1  0
 28 53  1  0
 28 54  1  0
 29 55  1  0
 29 56  1  0
 30 57  1  0
 31 58  1  0
M  END
>  <smiles>  (11) 
CC(NC(=O)CNC(=O)c1ccc2ccccc2n1)c1ccc(OC2CCCC2)cc1

>  <score_type>  (11) 
oracle

>  <origin>  (11) 
autodockgpu

>  <m_score__min__energy>  (11) 
-9.2300000000000004

>  <m_primary>  (11) 
energy

>  <rmsd>  (11) 
5.206765053769107

>  <m_score__min__rmsd>  (11) 
5.206765053769107

>  <meeko>  (11) 
{"free_energy": -8.95, "intermolecular_energy": -11.04, "internal_energy": -2.35, "cluster_size": 40, "cluster_id": 1, "rank_in_cluster": 10}

>  <energy>  (11) 
-8.94

>  <cluster_rmsd>  (11) 
0.78

>  <cluster>  (11) 
1

$$$$

     RDKit          3D

 58 61  0  0  0  0  0  0  0  0999 V2000
  136.8030   76.0170  223.4800 C   0  0  0  0  0  0  0  0  0  0  0  0
  137.3630   75.8660  222.1090 C   0  0  2  0  0  0  0  0  0  0  0  0
  137.9850   74.5640  221.9700 N   0  0  0  0  0  0  0  0  0  0  0  0
  138.0580   73.9290  220.7090 C   0  0  0  0  0  0  0  0  0  0  0  0
  137.5660   74.5590  219.7300 O   0  0  0  0  0  0  0  0  0  0  0  0
  138.6540   72.6200  220.4450 C   0  0  0  0  0  0  0  0  0  0  0  0
  138.7890   71.7620  221.5950 N   0  0  0  0  0  0  0  0  0  0  0  0
  139.6400   72.0960  222.6860 C   0  0  0  0  0  0  0  0  0  0  0  0
  140.3240   73.1770  222.7060 O   0  0  0  0  0  0  0  0  0  0  0  0
  139.7570   71.1940  223.8340 C   0  0  0  0  0  0  0  0  0  0  0  0
  139.2760   69.8970  223.7630 C   0  0  0  0  0  0  0  0  0  0  0  0
  139.3610   69.0100  224.8130 C   0  0  0  0  0  0  0  0  0  0  0  0
  139.9520   69.4160  226.0030 C   0  0  0  0  0  0  0  0  0  0  0  0
  140.0250   68.5190  227.0280 C   0  0  0  0  0  0  0  0  0  0  0  0
  140.6200   68.9340  228.2230 C   0  0  0  0  0  0  0  0  0  0  0  0
  141.1140   70.2330  228.3260 C   0  0  0  0  0  0  0  0  0  0  0  0
  141.0130   71.1060  227.2470 C   0  0  0  0  0  0  0  0  0  0  0  0
  140.4250   70.7090  226.0560 C   0  0  0  0  0  0  0  0  0  0  0  0
  140.3230   71.5600  224.9960 N   0  0  0  0  0  0  0  0  0  0  0  0
  138.3940   76.8710  221.7490 C   0  0  0  0  0  0  0  0  0  0  0  0
  139.7120   76.5170  221.7480 C   0  0  0  0  0  0  0  0  0  0  0  0
  140.7230   77.3970  221.4250 C   0  0  0  0  0  0  0  0  0  0  0  0
  140.4380   78.6990  221.0830 C   0  0  0  0  0  0  0  0  0  0  0  0
  141.3490   79.6550  220.7460 O   0  0  0  0  0  0  0  0  0  0  0  0
  142.2040   80.3170  221.6310 C   0  0  0  0  0  0  0  0  0  0  0  0
  142.5810   79.4180  222.8170 C   0  0  0  0  0  0  0  0  0  0  0  0
  142.1200   80.1660  224.0500 C   0  0  0  0  0  0  0  0  0  0  0  0
  140.8540   80.8260  223.4970 C   0  0  0  0  0  0  0  0  0  0  0  0
  141.3940   81.4630  222.2320 C   0  0  0  0  0  0  0  0  0  0  0  0
  139.0900   79.0810  221.0780 C   0  0  0  0  0  0  0  0  0  0  0  0
  138.0880   78.1770  221.4070 C   0  0  0  0  0  0  0  0  0  0  0  0
  137.5873   75.8055  224.2218 H   0  0  0  0  0  0  0  0  0  0  0  0
  136.4378   77.0457  223.6156 H   0  0  0  0  0  0  0  0  0  0  0  0
  135.9701   75.3113  223.6156 H   0  0  0  0  0  0  0  0  0  0  0  0
  136.5021   76.0037  221.4382 H   0  0  0  0  0  0  0  0  0  0  0  0
  138.3820   74.1090  222.8150 H   0  0  0  0  0  0  0  0  0  0  0  0
  138.0240   72.1023  219.7067 H   0  0  0  0  0  0  0  0  0  0  0  0
  139.6765   72.8170  220.0906 H   0  0  0  0  0  0  0  0  0  0  0  0
  138.2670   70.8460  221.6910 H   0  0  0  0  0  0  0  0  0  0  0  0
  138.8056   69.5609  222.8272 H   0  0  0  0  0  0  0  0  0  0  0  0
  138.9645   67.9891  224.7104 H   0  0  0  0  0  0  0  0  0  0  0  0
  139.6275   67.4993  226.9176 H   0  0  0  0  0  0  0  0  0  0  0  0
  140.6975   68.2416  229.0742 H   0  0  0  0  0  0  0  0  0  0  0  0
  141.5846   70.5689  229.2618 H   0  0  0  0  0  0  0  0  0  0  0  0
  141.4066   72.1289  227.3408 H   0  0  0  0  0  0  0  0  0  0  0  0
  139.9794   75.4844  222.0167 H   0  0  0  0  0  0  0  0  0  0  0  0
  141.7683   77.0547  221.4409 H   0  0  0  0  0  0  0  0  0  0  0  0
  143.1108   80.6291  221.0923 H   0  0  0  0  0  0  0  0  0  0  0  0
  142.0694   78.4471  222.7420 H   0  0  0  0  0  0  0  0  0  0  0  0
  143.6605   79.2085  222.8450 H   0  0  0  0  0  0  0  0  0  0  0  0
  141.8949   79.4830  224.8824 H   0  0  0  0  0  0  0  0  0  0  0  0
  142.8588   80.8610  224.4757 H   0  0  0  0  0  0  0  0  0  0  0  0
  140.0742   80.0827  223.2747 H   0  0  0  0  0  0  0  0  0  0  0  0
  140.3681   81.5295  224.1891 H   0  0  0  0  0  0  0  0  0  0  0  0
  140.5801   81.7742  221.5606 H   0  0  0  0  0  0  0  0  0  0  0  0
  141.9774   82.3790  222.4068 H   0  0  0  0  0  0  0  0  0  0  0  0
  138.8209   80.1132  220.8093 H   0  0  0  0  0  0  0  0  0  0  0  0
  137.0375   78.5032  221.3956 H   0  0  0  0  0  0  0  0  0  0  0  0
  1  2  1  0
  2  3  1  0
  3  4  1  0
  4  5  2  0
  4  6  1  0
  6  7  1  0
  7  8  1  0
  8  9  2  0
  8 10  1  0
 10 11  2  0
 11 12  1  0
 12 13  2  0
 13 14  1  0
 14 15  2  0
 15 16  1  0
 16 17  2  0
 17 18  1  0
 18 19  2  0
  2 20  1  0
 20 21  2  0
 21 22  1  0
 22 23  2  0
 23 24  1  0
 24 25  1  0
 25 26  1  0
 26 27  1  0
 27 28  1  0
 28 29  1  0
 23 30  1  0
 30 31  2  0
 19 10  1  0
 31 20  1  0
 18 13  1  0
 29 25  1  0
  1 32  1  0
  1 33  1  0
  1 34  1  0
  2 35  1  6
  3 36  1  0
  6 37  1  0
  6 38  1  0
  7 39  1  0
 11 40  1  0
 12 41  1  0
 14 42  1  0
 15 43  1  0
 16 44  1  0
 17 45  1  0
 21 46  1  0
 22 47  1  0
 25 48  1  0
 26 49  1  0
 26 50  1  0
 27 51  1  0
 27 52  1  0
 28 53  1  0
 28 54  1  0
 29 55  1  0
 29 56  1  0
 30 57  1  0
 31 58  1  0
M  END
>  <smiles>  (12) 
CC(NC(=O)CNC(=O)c1ccc2ccccc2n1)c1ccc(OC2CCCC2)cc1

>  <score_type>  (12) 
oracle

>  <origin>  (12) 
autodockgpu

>  <m_score__min__energy>  (12) 
-9.2300000000000004

>  <m_primary>  (12) 
energy

>  <rmsd>  (12) 
5.13485507146363

>  <m_score__min__rmsd>  (12) 
5.13485507146363

>  <meeko>  (12) 
{"free_energy": -8.48, "intermolecular_energy": -10.57, "internal_energy": -2.16, "cluster_size": 40, "cluster_id": 1, "rank_in_cluster": 31}

>  <energy>  (12) 
-8.91

>  <cluster_rmsd>  (12) 
0.8

>  <cluster>  (12) 
1

$$$$

     RDKit          3D

 58 61  0  0  0  0  0  0  0  0999 V2000
  135.6030   74.6580  222.8590 C   0  0  0  0  0  0  0  0  0  0  0  0
  136.6640   74.7640  221.8210 C   0  0  2  0  0  0  0  0  0  0  0  0
  137.5140   73.5900  221.8610 N   0  0  0  0  0  0  0  0  0  0  0  0
  137.9350   72.9620  220.6660 C   0  0  0  0  0  0  0  0  0  0  0  0
  137.5390   73.4820  219.5850 O   0  0  0  0  0  0  0  0  0  0  0  0
  138.7850   71.7750  220.5790 C   0  0  0  0  0  0  0  0  0  0  0  0
  139.1100   71.1570  221.8400 N   0  0  0  0  0  0  0  0  0  0  0  0
  139.7200   71.8860  222.9000 C   0  0  0  0  0  0  0  0  0  0  0  0
  140.0050   73.1290  222.7910 O   0  0  0  0  0  0  0  0  0  0  0  0
  140.0420   71.2200  224.1630 C   0  0  0  0  0  0  0  0  0  0  0  0
  140.7710   71.8770  225.1410 C   0  0  0  0  0  0  0  0  0  0  0  0
  141.1000   71.2950  226.3450 C   0  0  0  0  0  0  0  0  0  0  0  0
  140.6920   69.9950  226.6090 C   0  0  0  0  0  0  0  0  0  0  0  0
  141.0290   69.4410  227.8090 C   0  0  0  0  0  0  0  0  0  0  0  0
  140.6150   68.1310  228.0680 C   0  0  0  0  0  0  0  0  0  0  0  0
  139.8800   67.4430  227.1050 C   0  0  0  0  0  0  0  0  0  0  0  0
  139.5630   68.0580  225.8970 C   0  0  0  0  0  0  0  0  0  0  0  0
  139.9670   69.3560  225.6250 C   0  0  0  0  0  0  0  0  0  0  0  0
  139.6600   69.9630  224.4450 N   0  0  0  0  0  0  0  0  0  0  0  0
  137.5550   75.9420  221.9660 C   0  0  0  0  0  0  0  0  0  0  0  0
  138.7710   75.9500  221.3460 C   0  0  0  0  0  0  0  0  0  0  0  0
  139.6510   77.0070  221.4360 C   0  0  0  0  0  0  0  0  0  0  0  0
  139.3320   78.1240  222.1740 C   0  0  0  0  0  0  0  0  0  0  0  0
  140.1170   79.2260  222.3360 O   0  0  0  0  0  0  0  0  0  0  0  0
  140.6240   79.6980  223.5490 C   0  0  0  0  0  0  0  0  0  0  0  0
  141.0620   81.1640  223.4350 C   0  0  0  0  0  0  0  0  0  0  0  0
  142.5320   81.1750  223.8000 C   0  0  0  0  0  0  0  0  0  0  0  0
  142.9550   79.8250  223.2130 C   0  0  0  0  0  0  0  0  0  0  0  0
  141.9050   78.9110  223.8130 C   0  0  0  0  0  0  0  0  0  0  0  0
  138.0880   78.1340  222.8180 C   0  0  0  0  0  0  0  0  0  0  0  0
  137.2180   77.0580  222.7130 C   0  0  0  0  0  0  0  0  0  0  0  0
  136.0614   74.7038  223.8579 H   0  0  0  0  0  0  0  0  0  0  0  0
  134.8924   75.4896  222.7432 H   0  0  0  0  0  0  0  0  0  0  0  0
  135.0709   73.7022  222.7432 H   0  0  0  0  0  0  0  0  0  0  0  0
  136.1176   74.8646  220.8716 H   0  0  0  0  0  0  0  0  0  0  0  0
  137.8130   73.2240  222.7850 H   0  0  0  0  0  0  0  0  0  0  0  0
  138.2655   71.0296  219.9590 H   0  0  0  0  0  0  0  0  0  0  0  0
  139.7398   72.1150  220.1515 H   0  0  0  0  0  0  0  0  0  0  0  0
  138.9150   70.1370  222.0450 H   0  0  0  0  0  0  0  0  0  0  0  0
  141.1013   72.9082  224.9474 H   0  0  0  0  0  0  0  0  0  0  0  0
  141.6815   71.8560  227.0914 H   0  0  0  0  0  0  0  0  0  0  0  0
  141.6096   70.0084  228.5513 H   0  0  0  0  0  0  0  0  0  0  0  0
  140.8673   67.6479  229.0235 H   0  0  0  0  0  0  0  0  0  0  0  0
  139.5496   66.4120  227.2995 H   0  0  0  0  0  0  0  0  0  0  0  0
  138.9817   67.5043  225.1450 H   0  0  0  0  0  0  0  0  0  0  0  0
  139.0616   75.0738  220.7478 H   0  0  0  0  0  0  0  0  0  0  0  0
  140.6174   76.9573  220.9130 H   0  0  0  0  0  0  0  0  0  0  0  0
  139.8537   79.5948  224.3274 H   0  0  0  0  0  0  0  0  0  0  0  0
  140.9179   81.5298  222.4076 H   0  0  0  0  0  0  0  0  0  0  0  0
  140.4725   81.8191  224.0933 H   0  0  0  0  0  0  0  0  0  0  0  0
  143.0651   82.0124  223.3262 H   0  0  0  0  0  0  0  0  0  0  0  0
  142.7449   81.3043  224.8714 H   0  0  0  0  0  0  0  0  0  0  0  0
  142.9076   79.8290  222.1140 H   0  0  0  0  0  0  0  0  0  0  0  0
  143.9921   79.5359  223.4385 H   0  0  0  0  0  0  0  0  0  0  0  0
  141.8872   77.9342  223.3074 H   0  0  0  0  0  0  0  0  0  0  0  0
  142.0729   78.6732  224.8738 H   0  0  0  0  0  0  0  0  0  0  0  0
  137.7960   79.0093  223.4168 H   0  0  0  0  0  0  0  0  0  0  0  0
  136.2477   77.0922  223.2301 H   0  0  0  0  0  0  0  0  0  0  0  0
  1  2  1  0
  2  3  1  0
  3  4  1  0
  4  5  2  0
  4  6  1  0
  6  7  1  0
  7  8  1  0
  8  9  2  0
  8 10  1  0
 10 11  2  0
 11 12  1  0
 12 13  2  0
 13 14  1  0
 14 15  2  0
 15 16  1  0
 16 17  2  0
 17 18  1  0
 18 19  2  0
  2 20  1  0
 20 21  2  0
 21 22  1  0
 22 23  2  0
 23 24  1  0
 24 25  1  0
 25 26  1  0
 26 27  1  0
 27 28  1  0
 28 29  1  0
 23 30  1  0
 30 31  2  0
 19 10  1  0
 31 20  1  0
 18 13  1  0
 29 25  1  0
  1 32  1  0
  1 33  1  0
  1 34  1  0
  2 35  1  6
  3 36  1  0
  6 37  1  0
  6 38  1  0
  7 39  1  0
 11 40  1  0
 12 41  1  0
 14 42  1  0
 15 43  1  0
 16 44  1  0
 17 45  1  0
 21 46  1  0
 22 47  1  0
 25 48  1  0
 26 49  1  0
 26 50  1  0
 27 51  1  0
 27 52  1  0
 28 53  1  0
 28 54  1  0
 29 55  1  0
 29 56  1  0
 30 57  1  0
 31 58  1  0
M  END
>  <smiles>  (13) 
CC(NC(=O)CNC(=O)c1ccc2ccccc2n1)c1ccc(OC2CCCC2)cc1

>  <score_type>  (13) 
oracle

>  <origin>  (13) 
autodockgpu

>  <m_score__min__energy>  (13) 
-9.2300000000000004

>  <m_primary>  (13) 
energy

>  <rmsd>  (13) 
5.670841503692899

>  <m_score__min__rmsd>  (13) 
5.670841503692899

>  <meeko>  (13) 
{"free_energy": -8.49, "intermolecular_energy": -10.58, "internal_energy": -2.33, "cluster_size": 40, "cluster_id": 1, "rank_in_cluster": 29}

>  <energy>  (13) 
-8.91

>  <cluster_rmsd>  (13) 
0.82

>  <cluster>  (13) 
1

$$$$

     RDKit          3D

 58 61  0  0  0  0  0  0  0  0999 V2000
  136.4460   75.8400  222.8420 C   0  0  0  0  0  0  0  0  0  0  0  0
  137.6540   75.8570  221.9730 C   0  0  2  0  0  0  0  0  0  0  0  0
  138.2280   74.5280  221.8980 N   0  0  0  0  0  0  0  0  0  0  0  0
  138.9280   74.1070  220.7440 C   0  0  0  0  0  0  0  0  0  0  0  0
  139.0260   74.9470  219.8050 O   0  0  0  0  0  0  0  0  0  0  0  0
  139.5440   72.7950  220.5500 C   0  0  0  0  0  0  0  0  0  0  0  0
  139.9000   72.0970  221.7600 N   0  0  0  0  0  0  0  0  0  0  0  0
  138.9140   71.6230  222.6720 C   0  0  0  0  0  0  0  0  0  0  0  0
  137.6630   71.7850  222.4610 O   0  0  0  0  0  0  0  0  0  0  0  0
  139.3160   70.9250  223.8950 C   0  0  0  0  0  0  0  0  0  0  0  0
  139.0940   69.5660  224.0360 C   0  0  0  0  0  0  0  0  0  0  0  0
  139.4530   68.8640  225.1660 C   0  0  0  0  0  0  0  0  0  0  0  0
  140.0640   69.5320  226.2190 C   0  0  0  0  0  0  0  0  0  0  0  0
  140.4100   68.8140  227.3260 C   0  0  0  0  0  0  0  0  0  0  0  0
  141.0240   69.4920  228.3830 C   0  0  0  0  0  0  0  0  0  0  0  0
  141.2610   70.8610  228.2720 C   0  0  0  0  0  0  0  0  0  0  0  0
  140.8870   71.5430  227.1170 C   0  0  0  0  0  0  0  0  0  0  0  0
  140.2760   70.8840  226.0610 C   0  0  0  0  0  0  0  0  0  0  0  0
  139.9080   71.5460  224.9290 N   0  0  0  0  0  0  0  0  0  0  0  0
  138.7340   76.7630  222.4340 C   0  0  0  0  0  0  0  0  0  0  0  0
  140.0380   76.3730  222.3220 C   0  0  0  0  0  0  0  0  0  0  0  0
  141.0920   77.1610  222.7300 C   0  0  0  0  0  0  0  0  0  0  0  0
  140.8700   78.4030  223.2790 C   0  0  0  0  0  0  0  0  0  0  0  0
  141.8290   79.2670  223.7160 O   0  0  0  0  0  0  0  0  0  0  0  0
  142.4550   80.2500  222.9460 C   0  0  0  0  0  0  0  0  0  0  0  0
  141.8550   81.6360  223.2180 C   0  0  0  0  0  0  0  0  0  0  0  0
  141.3460   82.1240  221.8780 C   0  0  0  0  0  0  0  0  0  0  0  0
  140.8810   80.7960  221.2770 C   0  0  0  0  0  0  0  0  0  0  0  0
  142.1120   79.9390  221.4920 C   0  0  0  0  0  0  0  0  0  0  0  0
  139.5380   78.8210  223.4020 C   0  0  0  0  0  0  0  0  0  0  0  0
  138.4910   78.0100  222.9840 C   0  0  0  0  0  0  0  0  0  0  0  0
  136.7539   75.8443  223.8980 H   0  0  0  0  0  0  0  0  0  0  0  0
  135.8330   76.7296  222.6351 H   0  0  0  0  0  0  0  0  0  0  0  0
  135.8582   74.9335  222.6351 H   0  0  0  0  0  0  0  0  0  0  0  0
  137.2936   76.2232  221.0004 H   0  0  0  0  0  0  0  0  0  0  0  0
  138.1210   73.8940  222.7130 H   0  0  0  0  0  0  0  0  0  0  0  0
  138.8356   72.1662  219.9908 H   0  0  0  0  0  0  0  0  0  0  0  0
  140.4877   72.9779  220.0153 H   0  0  0  0  0  0  0  0  0  0  0  0
  140.9030   71.9010  222.0340 H   0  0  0  0  0  0  0  0  0  0  0  0
  138.6102   69.0232  223.2106 H   0  0  0  0  0  0  0  0  0  0  0  0
  139.2573   67.7837  225.2334 H   0  0  0  0  0  0  0  0  0  0  0  0
  140.2117   67.7336  227.3852 H   0  0  0  0  0  0  0  0  0  0  0  0
  141.3175   68.9500  229.2941 H   0  0  0  0  0  0  0  0  0  0  0  0
  141.7442   71.4035  229.0980 H   0  0  0  0  0  0  0  0  0  0  0  0
  141.0796   72.6233  227.0410 H   0  0  0  0  0  0  0  0  0  0  0  0
  140.2564   75.3866  221.8870 H   0  0  0  0  0  0  0  0  0  0  0  0
  142.1223   76.7932  222.6156 H   0  0  0  0  0  0  0  0  0  0  0  0
  143.5313   80.2544  223.1730 H   0  0  0  0  0  0  0  0  0  0  0  0
  141.0284   81.5626  223.9401 H   0  0  0  0  0  0  0  0  0  0  0  0
  142.5960   82.3249  223.6496 H   0  0  0  0  0  0  0  0  0  0  0  0
  140.5147   82.8355  221.9906 H   0  0  0  0  0  0  0  0  0  0  0  0
  142.0811   82.6761  221.2740 H   0  0  0  0  0  0  0  0  0  0  0  0
  140.0088   80.3929  221.8125 H   0  0  0  0  0  0  0  0  0  0  0  0
  140.5496   80.8617  220.2302 H   0  0  0  0  0  0  0  0  0  0  0  0
  141.8867   78.8714  221.3526 H   0  0  0  0  0  0  0  0  0  0  0  0
  142.9296   80.1466  220.7860 H   0  0  0  0  0  0  0  0  0  0  0  0
  139.3183   79.8073  223.8366 H   0  0  0  0  0  0  0  0  0  0  0  0
  137.4548   78.3632  223.0913 H   0  0  0  0  0  0  0  0  0  0  0  0
  1  2  1  0
  2  3  1  0
  3  4  1  0
  4  5  2  0
  4  6  1  0
  6  7  1  0
  7  8  1  0
  8  9  2  0
  8 10  1  0
 10 11  2  0
 11 12  1  0
 12 13  2  0
 13 14  1  0
 14 15  2  0
 15 16  1  0
 16 17  2  0
 17 18  1  0
 18 19  2  0
  2 20  1  0
 20 21  2  0
 21 22  1  0
 22 23  2  0
 23 24  1  0
 24 25  1  0
 25 26  1  0
 26 27  1  0
 27 28  1  0
 28 29  1  0
 23 30  1  0
 30 31  2  0
 19 10  1  0
 31 20  1  0
 18 13  1  0
 29 25  1  0
  1 32  1  0
  1 33  1  0
  1 34  1  0
  2 35  1  6
  3 36  1  0
  6 37  1  0
  6 38  1  0
  7 39  1  0
 11 40  1  0
 12 41  1  0
 14 42  1  0
 15 43  1  0
 16 44  1  0
 17 45  1  0
 21 46  1  0
 22 47  1  0
 25 48  1  0
 26 49  1  0
 26 50  1  0
 27 51  1  0
 27 52  1  0
 28 53  1  0
 28 54  1  0
 29 55  1  0
 29 56  1  0
 30 57  1  0
 31 58  1  0
M  END
>  <smiles>  (14) 
CC(NC(=O)CNC(=O)c1ccc2ccccc2n1)c1ccc(OC2CCCC2)cc1

>  <score_type>  (14) 
oracle

>  <origin>  (14) 
autodockgpu

>  <m_score__min__energy>  (14) 
-9.2300000000000004

>  <m_primary>  (14) 
energy

>  <rmsd>  (14) 
5.4565685906332675

>  <m_score__min__rmsd>  (14) 
5.4565685906332675

>  <meeko>  (14) 
{"free_energy": -8.52, "intermolecular_energy": -10.61, "internal_energy": -1.99, "cluster_size": 40, "cluster_id": 1, "rank_in_cluster": 27}

>  <energy>  (14) 
-8.83

>  <cluster_rmsd>  (14) 
1.13

>  <cluster>  (14) 
1

$$$$

     RDKit          3D

 58 61  0  0  0  0  0  0  0  0999 V2000
  135.6110   75.1850  222.9180 C   0  0  0  0  0  0  0  0  0  0  0  0
  136.7330   75.4200  221.9700 C   0  0  2  0  0  0  0  0  0  0  0  0
  137.5560   74.2310  221.8730 N   0  0  0  0  0  0  0  0  0  0  0  0
  137.8140   73.6310  220.6190 C   0  0  0  0  0  0  0  0  0  0  0  0
  137.3000   74.1900  219.6090 O   0  0  0  0  0  0  0  0  0  0  0  0
  138.6210   72.4310  220.3960 C   0  0  0  0  0  0  0  0  0  0  0  0
  138.7990   71.5860  221.5490 N   0  0  0  0  0  0  0  0  0  0  0  0
  139.5060   72.0280  222.7030 C   0  0  0  0  0  0  0  0  0  0  0  0
  140.0140   73.1990  222.7790 O   0  0  0  0  0  0  0  0  0  0  0  0
  139.6730   71.1360  223.8520 C   0  0  0  0  0  0  0  0  0  0  0  0
  139.2420   69.8210  223.7930 C   0  0  0  0  0  0  0  0  0  0  0  0
  139.3750   68.9430  224.8450 C   0  0  0  0  0  0  0  0  0  0  0  0
  139.9660   69.3760  226.0250 C   0  0  0  0  0  0  0  0  0  0  0  0
  140.0880   68.4870  227.0520 C   0  0  0  0  0  0  0  0  0  0  0  0
  140.6830   68.9300  228.2380 C   0  0  0  0  0  0  0  0  0  0  0  0
  141.1270   70.2470  228.3290 C   0  0  0  0  0  0  0  0  0  0  0  0
  140.9770   71.1110  227.2480 C   0  0  0  0  0  0  0  0  0  0  0  0
  140.3890   70.6870  226.0670 C   0  0  0  0  0  0  0  0  0  0  0  0
  140.2400   71.5280  225.0050 N   0  0  0  0  0  0  0  0  0  0  0  0
  137.6380   76.5350  222.3480 C   0  0  0  0  0  0  0  0  0  0  0  0
  137.1100   77.7320  222.7350 C   0  0  0  0  0  0  0  0  0  0  0  0
  137.8880   78.8110  223.0990 C   0  0  0  0  0  0  0  0  0  0  0  0
  139.2610   78.7220  223.0860 C   0  0  0  0  0  0  0  0  0  0  0  0
  140.1290   79.7170  223.4230 O   0  0  0  0  0  0  0  0  0  0  0  0
  141.2070   80.1580  222.6520 C   0  0  0  0  0  0  0  0  0  0  0  0
  142.5020   79.4330  223.0420 C   0  0  0  0  0  0  0  0  0  0  0  0
  143.4630   80.5250  223.4630 C   0  0  0  0  0  0  0  0  0  0  0  0
  142.4800   81.4990  224.1160 C   0  0  0  0  0  0  0  0  0  0  0  0
  141.4320   81.6200  223.0270 C   0  0  0  0  0  0  0  0  0  0  0  0
  139.8210   77.5000  222.6910 C   0  0  0  0  0  0  0  0  0  0  0  0
  139.0180   76.4270  222.3290 C   0  0  0  0  0  0  0  0  0  0  0  0
  135.9813   75.2626  223.9509 H   0  0  0  0  0  0  0  0  0  0  0  0
  134.8269   75.9384  222.7521 H   0  0  0  0  0  0  0  0  0  0  0  0
  135.1951   74.1803  222.7521 H   0  0  0  0  0  0  0  0  0  0  0  0
  136.2455   75.6822  221.0194 H   0  0  0  0  0  0  0  0  0  0  0  0
  137.9580   73.8320  222.7430 H   0  0  0  0  0  0  0  0  0  0  0  0
  138.1341   71.8352  219.6099 H   0  0  0  0  0  0  0  0  0  0  0  0
  139.6251   72.7863  220.1213 H   0  0  0  0  0  0  0  0  0  0  0  0
  138.4170   70.6000  221.6010 H   0  0  0  0  0  0  0  0  0  0  0  0
  138.7729   69.4625  222.8649 H   0  0  0  0  0  0  0  0  0  0  0  0
  139.0163   67.9073  224.7518 H   0  0  0  0  0  0  0  0  0  0  0  0
  139.7291   67.4521  226.9507 H   0  0  0  0  0  0  0  0  0  0  0  0
  140.7991   68.2448  229.0906 H   0  0  0  0  0  0  0  0  0  0  0  0
  141.5971   70.6050  229.2568 H   0  0  0  0  0  0  0  0  0  0  0  0
  141.3315   72.1488  227.3327 H   0  0  0  0  0  0  0  0  0  0  0  0
  136.0157   77.8413  222.7577 H   0  0  0  0  0  0  0  0  0  0  0  0
  137.4061   79.7520  223.4027 H   0  0  0  0  0  0  0  0  0  0  0  0
  140.9850   79.9862  221.5884 H   0  0  0  0  0  0  0  0  0  0  0  0
  142.3186   78.7393  223.8757 H   0  0  0  0  0  0  0  0  0  0  0  0
  142.9020   78.8342  222.2104 H   0  0  0  0  0  0  0  0  0  0  0  0
  144.2117   80.1571  224.1800 H   0  0  0  0  0  0  0  0  0  0  0  0
  144.0689   80.9507  222.6496 H   0  0  0  0  0  0  0  0  0  0  0  0
  142.0551   81.0848  225.0422 H   0  0  0  0  0  0  0  0  0  0  0  0
  142.9259   82.4554  224.4265 H   0  0  0  0  0  0  0  0  0  0  0  0
  140.5096   82.0831  223.4075 H   0  0  0  0  0  0  0  0  0  0  0  0
  141.7360   82.2563  222.1828 H   0  0  0  0  0  0  0  0  0  0  0  0
  140.9151   77.3889  222.6673 H   0  0  0  0  0  0  0  0  0  0  0  0
  139.4842   75.4788  222.0231 H   0  0  0  0  0  0  0  0  0  0  0  0
  1  2  1  0
  2  3  1  0
  3  4  1  0
  4  5  2  0
  4  6  1  0
  6  7  1  0
  7  8  1  0
  8  9  2  0
  8 10  1  0
 10 11  2  0
 11 12  1  0
 12 13  2  0
 13 14  1  0
 14 15  2  0
 15 16  1  0
 16 17  2  0
 17 18  1  0
 18 19  2  0
  2 20  1  0
 20 21  2  0
 21 22  1  0
 22 23  2  0
 23 24  1  0
 24 25  1  0
 25 26  1  0
 26 27  1  0
 27 28  1  0
 28 29  1  0
 23 30  1  0
 30 31  2  0
 19 10  1  0
 31 20  1  0
 18 13  1  0
 29 25  1  0
  1 32  1  0
  1 33  1  0
  1 34  1  0
  2 35  1  6
  3 36  1  0
  6 37  1  0
  6 38  1  0
  7 39  1  0
 11 40  1  0
 12 41  1  0
 14 42  1  0
 15 43  1  0
 16 44  1  0
 17 45  1  0
 21 46  1  0
 22 47  1  0
 25 48  1  0
 26 49  1  0
 26 50  1  0
 27 51  1  0
 27 52  1  0
 28 53  1  0
 28 54  1  0
 29 55  1  0
 29 56  1  0
 30 57  1  0
 31 58  1  0
M  END
>  <smiles>  (15) 
CC(NC(=O)CNC(=O)c1ccc2ccccc2n1)c1ccc(OC2CCCC2)cc1

>  <score_type>  (15) 
oracle

>  <origin>  (15) 
autodockgpu

>  <m_score__min__energy>  (15) 
-9.2300000000000004

>  <m_primary>  (15) 
energy

>  <rmsd>  (15) 
5.489145281556603

>  <m_score__min__rmsd>  (15) 
5.489145281556603

>  <meeko>  (15) 
{"free_energy": -8.94, "intermolecular_energy": -11.03, "internal_energy": -2.05, "cluster_size": 40, "cluster_id": 1, "rank_in_cluster": 11}

>  <energy>  (15) 
-8.78

>  <cluster_rmsd>  (15) 
1.24

>  <cluster>  (15) 
1

$$$$

     RDKit          3D

 58 61  0  0  0  0  0  0  0  0999 V2000
  136.8870   75.7910  222.7210 C   0  0  0  0  0  0  0  0  0  0  0  0
  138.1480   76.0120  221.9640 C   0  0  2  0  0  0  0  0  0  0  0  0
  138.9440   74.8000  221.9630 N   0  0  0  0  0  0  0  0  0  0  0  0
  139.8340   74.5210  220.9010 C   0  0  0  0  0  0  0  0  0  0  0  0
  139.8980   75.3800  219.9770 O   0  0  0  0  0  0  0  0  0  0  0  0
  140.6820   73.3340  220.7870 C   0  0  0  0  0  0  0  0  0  0  0  0
  140.7710   72.5250  221.9750 N   0  0  0  0  0  0  0  0  0  0  0  0
  139.6180   71.9490  222.5810 C   0  0  0  0  0  0  0  0  0  0  0  0
  138.4450   72.1140  222.0980 O   0  0  0  0  0  0  0  0  0  0  0  0
  139.7490   71.1390  223.7940 C   0  0  0  0  0  0  0  0  0  0  0  0
  139.2740   69.8380  223.8270 C   0  0  0  0  0  0  0  0  0  0  0  0
  139.3720   69.0360  224.9420 C   0  0  0  0  0  0  0  0  0  0  0  0
  139.9700   69.5350  226.0920 C   0  0  0  0  0  0  0  0  0  0  0  0
  140.0560   68.7200  227.1820 C   0  0  0  0  0  0  0  0  0  0  0  0
  140.6580   69.2290  228.3370 C   0  0  0  0  0  0  0  0  0  0  0  0
  141.1460   70.5340  228.3350 C   0  0  0  0  0  0  0  0  0  0  0  0
  141.0320   71.3210  227.1930 C   0  0  0  0  0  0  0  0  0  0  0  0
  140.4360   70.8310  226.0410 C   0  0  0  0  0  0  0  0  0  0  0  0
  140.3220   71.5960  224.9200 N   0  0  0  0  0  0  0  0  0  0  0  0
  139.0130   77.0900  222.5060 C   0  0  0  0  0  0  0  0  0  0  0  0
  138.4520   78.2620  222.9220 C   0  0  0  0  0  0  0  0  0  0  0  0
  139.1920   79.3060  223.4350 C   0  0  0  0  0  0  0  0  0  0  0  0
  140.5590   79.2060  223.5510 C   0  0  0  0  0  0  0  0  0  0  0  0
  141.3910   80.1680  224.0410 O   0  0  0  0  0  0  0  0  0  0  0  0
  141.9860   81.1900  223.2980 C   0  0  0  0  0  0  0  0  0  0  0  0
  140.9640   81.8810  222.3860 C   0  0  0  0  0  0  0  0  0  0  0  0
  141.5020   81.7130  220.9800 C   0  0  0  0  0  0  0  0  0  0  0  0
  142.1390   80.3270  221.1090 C   0  0  0  0  0  0  0  0  0  0  0  0
  142.9790   80.5130  222.3570 C   0  0  0  0  0  0  0  0  0  0  0  0
  141.1540   78.0100  223.1300 C   0  0  0  0  0  0  0  0  0  0  0  0
  140.3880   76.9710  222.6160 C   0  0  0  0  0  0  0  0  0  0  0  0
  137.0960   75.8276  223.8003 H   0  0  0  0  0  0  0  0  0  0  0  0
  136.1611   76.5756  222.4613 H   0  0  0  0  0  0  0  0  0  0  0  0
  136.4712   74.8063  222.4613 H   0  0  0  0  0  0  0  0  0  0  0  0
  137.8208   76.3099  220.9569 H   0  0  0  0  0  0  0  0  0  0  0  0
  138.8510   74.1440  222.7620 H   0  0  0  0  0  0  0  0  0  0  0  0
  140.2810   72.7063  219.9776 H   0  0  0  0  0  0  0  0  0  0  0  0
  141.6997   73.7045  220.5943 H   0  0  0  0  0  0  0  0  0  0  0  0
  141.6890   72.3160  222.4590 H   0  0  0  0  0  0  0  0  0  0  0  0
  138.7982   69.4282  222.9238 H   0  0  0  0  0  0  0  0  0  0  0  0
  138.9798   68.0085  224.9221 H   0  0  0  0  0  0  0  0  0  0  0  0
  139.6635   67.6928  227.1535 H   0  0  0  0  0  0  0  0  0  0  0  0
  140.7454   68.6049  229.2386 H   0  0  0  0  0  0  0  0  0  0  0  0
  141.6224   70.9431  229.2381 H   0  0  0  0  0  0  0  0  0  0  0  0
  141.4215   72.3497  227.2044 H   0  0  0  0  0  0  0  0  0  0  0  0
  137.3610   78.3791  222.8447 H   0  0  0  0  0  0  0  0  0  0  0  0
  138.6843   80.2280  223.7547 H   0  0  0  0  0  0  0  0  0  0  0  0
  142.4329   81.9236  223.9851 H   0  0  0  0  0  0  0  0  0  0  0  0
  139.9781   81.4024  222.4807 H   0  0  0  0  0  0  0  0  0  0  0  0
  140.8310   82.9407  222.6494 H   0  0  0  0  0  0  0  0  0  0  0  0
  140.6975   81.7253  220.2299 H   0  0  0  0  0  0  0  0  0  0  0  0
  142.1831   82.5088  220.6441 H   0  0  0  0  0  0  0  0  0  0  0  0
  141.3789   79.5437  221.2461 H   0  0  0  0  0  0  0  0  0  0  0  0
  142.7058   80.0030  220.2237 H   0  0  0  0  0  0  0  0  0  0  0  0
  143.3190   79.5474  222.7595 H   0  0  0  0  0  0  0  0  0  0  0  0
  143.9027   81.0874  222.1929 H   0  0  0  0  0  0  0  0  0  0  0  0
  142.2448   77.8914  223.2075 H   0  0  0  0  0  0  0  0  0  0  0  0
  140.8803   76.0421  222.2923 H   0  0  0  0  0  0  0  0  0  0  0  0
  1  2  1  0
  2  3  1  0
  3  4  1  0
  4  5  2  0
  4  6  1  0
  6  7  1  0
  7  8  1  0
  8  9  2  0
  8 10  1  0
 10 11  2  0
 11 12  1  0
 12 13  2  0
 13 14  1  0
 14 15  2  0
 15 16  1  0
 16 17  2  0
 17 18  1  0
 18 19  2  0
  2 20  1  0
 20 21  2  0
 21 22  1  0
 22 23  2  0
 23 24  1  0
 24 25  1  0
 25 26  1  0
 26 27  1  0
 27 28  1  0
 28 29  1  0
 23 30  1  0
 30 31  2  0
 19 10  1  0
 31 20  1  0
 18 13  1  0
 29 25  1  0
  1 32  1  0
  1 33  1  0
  1 34  1  0
  2 35  1  6
  3 36  1  0
  6 37  1  0
  6 38  1  0
  7 39  1  0
 11 40  1  0
 12 41  1  0
 14 42  1  0
 15 43  1  0
 16 44  1  0
 17 45  1  0
 21 46  1  0
 22 47  1  0
 25 48  1  0
 26 49  1  0
 26 50  1  0
 27 51  1  0
 27 52  1  0
 28 53  1  0
 28 54  1  0
 29 55  1  0
 29 56  1  0
 30 57  1  0
 31 58  1  0
M  END
>  <smiles>  (16) 
CC(NC(=O)CNC(=O)c1ccc2ccccc2n1)c1ccc(OC2CCCC2)cc1

>  <score_type>  (16) 
oracle

>  <origin>  (16) 
autodockgpu

>  <m_score__min__energy>  (16) 
-9.2300000000000004

>  <m_primary>  (16) 
energy

>  <rmsd>  (16) 
5.014721687124622

>  <m_score__min__rmsd>  (16) 
5.014721687124622

>  <meeko>  (16) 
{"free_energy": -8.83, "intermolecular_energy": -10.92, "internal_energy": -2.05, "cluster_size": 40, "cluster_id": 1, "rank_in_cluster": 14}

>  <energy>  (16) 
-8.76

>  <cluster_rmsd>  (16) 
1.15

>  <cluster>  (16) 
1

$$$$

     RDKit          3D

 58 61  0  0  0  0  0  0  0  0999 V2000
  135.5750   74.7760  222.9200 C   0  0  0  0  0  0  0  0  0  0  0  0
  136.6630   74.9780  221.9240 C   0  0  2  0  0  0  0  0  0  0  0  0
  137.5670   73.8450  221.9440 N   0  0  0  0  0  0  0  0  0  0  0  0
  137.6010   72.9280  220.8690 C   0  0  0  0  0  0  0  0  0  0  0  0
  136.8150   73.1560  219.9070 O   0  0  0  0  0  0  0  0  0  0  0  0
  138.4630   71.7500  220.7780 C   0  0  0  0  0  0  0  0  0  0  0  0
  138.8380   71.1630  222.0390 N   0  0  0  0  0  0  0  0  0  0  0  0
  139.6830   71.8410  222.9630 C   0  0  0  0  0  0  0  0  0  0  0  0
  140.1470   73.0090  222.7240 O   0  0  0  0  0  0  0  0  0  0  0  0
  140.0480   71.2080  224.2310 C   0  0  0  0  0  0  0  0  0  0  0  0
  140.7030   71.9280  225.2160 C   0  0  0  0  0  0  0  0  0  0  0  0
  141.0690   71.3790  226.4250 C   0  0  0  0  0  0  0  0  0  0  0  0
  140.7760   70.0470  226.6860 C   0  0  0  0  0  0  0  0  0  0  0  0
  141.1470   69.5270  227.8910 C   0  0  0  0  0  0  0  0  0  0  0  0
  140.8500   68.1850  228.1470 C   0  0  0  0  0  0  0  0  0  0  0  0
  140.1920   67.4330  227.1770 C   0  0  0  0  0  0  0  0  0  0  0  0
  139.8360   68.0160  225.9640 C   0  0  0  0  0  0  0  0  0  0  0  0
  140.1250   69.3450  225.6950 C   0  0  0  0  0  0  0  0  0  0  0  0
  139.7780   69.9210  224.5100 N   0  0  0  0  0  0  0  0  0  0  0  0
  137.4900   76.1890  222.1490 C   0  0  0  0  0  0  0  0  0  0  0  0
  138.8360   76.1390  221.9290 C   0  0  0  0  0  0  0  0  0  0  0  0
  139.6670   77.2230  222.1180 C   0  0  0  0  0  0  0  0  0  0  0  0
  139.1600   78.4280  222.5460 C   0  0  0  0  0  0  0  0  0  0  0  0
  139.8800   79.5640  222.7670 O   0  0  0  0  0  0  0  0  0  0  0  0
  140.7220   79.8000  223.8570 C   0  0  0  0  0  0  0  0  0  0  0  0
  141.4000   81.1730  223.7480 C   0  0  0  0  0  0  0  0  0  0  0  0
  142.8880   80.8890  223.7550 C   0  0  0  0  0  0  0  0  0  0  0  0
  142.9030   79.5630  222.9890 C   0  0  0  0  0  0  0  0  0  0  0  0
  141.8530   78.7800  223.7530 C   0  0  0  0  0  0  0  0  0  0  0  0
  137.7800   78.5000  222.7780 C   0  0  0  0  0  0  0  0  0  0  0  0
  136.9630   77.3950  222.5810 C   0  0  0  0  0  0  0  0  0  0  0  0
  135.9892   74.8529  223.9361 H   0  0  0  0  0  0  0  0  0  0  0  0
  134.8020   75.5460  222.7799 H   0  0  0  0  0  0  0  0  0  0  0  0
  135.1299   73.7799  222.7799 H   0  0  0  0  0  0  0  0  0  0  0  0
  136.1436   75.0945  220.9614 H   0  0  0  0  0  0  0  0  0  0  0  0
  138.1960   73.7260  222.7620 H   0  0  0  0  0  0  0  0  0  0  0  0
  137.9327   70.9853  220.1914 H   0  0  0  0  0  0  0  0  0  0  0  0
  139.3985   72.0927  220.3117 H   0  0  0  0  0  0  0  0  0  0  0  0
  138.5090   70.2040  222.3460 H   0  0  0  0  0  0  0  0  0  0  0  0
  140.9414   72.9846  225.0245 H   0  0  0  0  0  0  0  0  0  0  0  0
  141.5889   71.9904  227.1773 H   0  0  0  0  0  0  0  0  0  0  0  0
  141.6646   70.1452  228.6393 H   0  0  0  0  0  0  0  0  0  0  0  0
  141.1336   67.7272  229.1062 H   0  0  0  0  0  0  0  0  0  0  0  0
  139.9532   66.3767  227.3696 H   0  0  0  0  0  0  0  0  0  0  0  0
  139.3164   67.4117  225.2058 H   0  0  0  0  0  0  0  0  0  0  0  0
  139.2776   75.1918  221.5856 H   0  0  0  0  0  0  0  0  0  0  0  0
  140.7453   77.1233  221.9247 H   0  0  0  0  0  0  0  0  0  0  0  0
  140.1358   79.7421  224.7860 H   0  0  0  0  0  0  0  0  0  0  0  0
  141.1081   81.6731  222.8128 H   0  0  0  0  0  0  0  0  0  0  0  0
  141.1072   81.8402  224.5720 H   0  0  0  0  0  0  0  0  0  0  0  0
  143.4564   81.6711  223.2304 H   0  0  0  0  0  0  0  0  0  0  0  0
  143.3510   80.8558  224.7523 H   0  0  0  0  0  0  0  0  0  0  0  0
  142.6179   79.7010  221.9356 H   0  0  0  0  0  0  0  0  0  0  0  0
  143.8883   79.0763  222.9414 H   0  0  0  0  0  0  0  0  0  0  0  0
  141.5363   77.8853  223.1969 H   0  0  0  0  0  0  0  0  0  0  0  0
  142.1999   78.3971  224.7241 H   0  0  0  0  0  0  0  0  0  0  0  0
  137.3372   79.4466  223.1215 H   0  0  0  0  0  0  0  0  0  0  0  0
  135.8826   77.4783  222.7705 H   0  0  0  0  0  0  0  0  0  0  0  0
  1  2  1  0
  2  3  1  0
  3  4  1  0
  4  5  2  0
  4  6  1  0
  6  7  1  0
  7  8  1  0
  8  9  2  0
  8 10  1  0
 10 11  2  0
 11 12  1  0
 12 13  2  0
 13 14  1  0
 14 15  2  0
 15 16  1  0
 16 17  2  0
 17 18  1  0
 18 19  2  0
  2 20  1  0
 20 21  2  0
 21 22  1  0
 22 23  2  0
 23 24  1  0
 24 25  1  0
 25 26  1  0
 26 27  1  0
 27 28  1  0
 28 29  1  0
 23 30  1  0
 30 31  2  0
 19 10  1  0
 31 20  1  0
 18 13  1  0
 29 25  1  0
  1 32  1  0
  1 33  1  0
  1 34  1  0
  2 35  1  6
  3 36  1  0
  6 37  1  0
  6 38  1  0
  7 39  1  0
 11 40  1  0
 12 41  1  0
 14 42  1  0
 15 43  1  0
 16 44  1  0
 17 45  1  0
 21 46  1  0
 22 47  1  0
 25 48  1  0
 26 49  1  0
 26 50  1  0
 27 51  1  0
 27 52  1  0
 28 53  1  0
 28 54  1  0
 29 55  1  0
 29 56  1  0
 30 57  1  0
 31 58  1  0
M  END
>  <smiles>  (17) 
CC(NC(=O)CNC(=O)c1ccc2ccccc2n1)c1ccc(OC2CCCC2)cc1

>  <score_type>  (17) 
oracle

>  <origin>  (17) 
autodockgpu

>  <m_score__min__energy>  (17) 
-9.2300000000000004

>  <m_primary>  (17) 
energy

>  <rmsd>  (17) 
5.6572344197935935

>  <m_score__min__rmsd>  (17) 
5.6572344197935935

>  <meeko>  (17) 
{"free_energy": -8.78, "intermolecular_energy": -10.87, "internal_energy": -2.34, "cluster_size": 40, "cluster_id": 1, "rank_in_cluster": 15}

>  <energy>  (17) 
-8.73

>  <cluster_rmsd>  (17) 
1.22

>  <cluster>  (17) 
1

$$$$

     RDKit          3D

 58 61  0  0  0  0  0  0  0  0999 V2000
  136.8110   76.0200  223.2660 C   0  0  0  0  0  0  0  0  0  0  0  0
  137.5660   75.7430  222.0130 C   0  0  2  0  0  0  0  0  0  0  0  0
  138.0680   74.3830  222.0290 N   0  0  0  0  0  0  0  0  0  0  0  0
  137.7480   73.4830  220.9870 C   0  0  0  0  0  0  0  0  0  0  0  0
  137.0210   73.9310  220.0560 O   0  0  0  0  0  0  0  0  0  0  0  0
  138.1890   72.0910  220.8950 C   0  0  0  0  0  0  0  0  0  0  0  0
  138.5240   71.4680  222.1510 N   0  0  0  0  0  0  0  0  0  0  0  0
  139.6050   71.9280  222.9540 C   0  0  0  0  0  0  0  0  0  0  0  0
  140.3310   72.9230  222.6070 O   0  0  0  0  0  0  0  0  0  0  0  0
  139.9190   71.2630  224.2200 C   0  0  0  0  0  0  0  0  0  0  0  0
  140.7300   71.8800  225.1580 C   0  0  0  0  0  0  0  0  0  0  0  0
  141.0550   71.2960  226.3630 C   0  0  0  0  0  0  0  0  0  0  0  0
  140.5580   70.0360  226.6680 C   0  0  0  0  0  0  0  0  0  0  0  0
  140.8930   69.4810  227.8670 C   0  0  0  0  0  0  0  0  0  0  0  0
  140.3900   68.2120  228.1680 C   0  0  0  0  0  0  0  0  0  0  0  0
  139.5710   67.5650  227.2450 C   0  0  0  0  0  0  0  0  0  0  0  0
  139.2600   68.1800  226.0350 C   0  0  0  0  0  0  0  0  0  0  0  0
  139.7530   69.4370  225.7230 C   0  0  0  0  0  0  0  0  0  0  0  0
  139.4520   70.0440  224.5400 N   0  0  0  0  0  0  0  0  0  0  0  0
  138.7370   76.6270  221.7890 C   0  0  0  0  0  0  0  0  0  0  0  0
  139.9070   76.3780  222.4470 C   0  0  0  0  0  0  0  0  0  0  0  0
  141.0340   77.1560  222.2890 C   0  0  0  0  0  0  0  0  0  0  0  0
  141.0260   78.2410  221.4430 C   0  0  0  0  0  0  0  0  0  0  0  0
  142.0740   79.0790  221.2070 O   0  0  0  0  0  0  0  0  0  0  0  0
  142.4410   80.1720  221.9950 C   0  0  0  0  0  0  0  0  0  0  0  0
  142.0780   79.9400  223.4690 C   0  0  0  0  0  0  0  0  0  0  0  0
  141.1480   81.0770  223.8370 C   0  0  0  0  0  0  0  0  0  0  0  0
  140.4050   81.2460  222.5100 C   0  0  0  0  0  0  0  0  0  0  0  0
  141.5680   81.3390  221.5420 C   0  0  0  0  0  0  0  0  0  0  0  0
  139.8330   78.5120  220.7590 C   0  0  0  0  0  0  0  0  0  0  0  0
  138.7100   77.7140  220.9330 C   0  0  0  0  0  0  0  0  0  0  0  0
  137.4445   75.7876  224.1348 H   0  0  0  0  0  0  0  0  0  0  0  0
  136.5247   77.0817  223.2945 H   0  0  0  0  0  0  0  0  0  0  0  0
  135.9060   75.3953  223.2945 H   0  0  0  0  0  0  0  0  0  0  0  0
  136.8422   75.9232  221.2045 H   0  0  0  0  0  0  0  0  0  0  0  0
  138.6720   74.0850  222.8190 H   0  0  0  0  0  0  0  0  0  0  0  0
  137.3798   71.5078  220.4313 H   0  0  0  0  0  0  0  0  0  0  0  0
  139.1167   72.1036  220.3040 H   0  0  0  0  0  0  0  0  0  0  0  0
  137.9890   70.6420  222.5410 H   0  0  0  0  0  0  0  0  0  0  0  0
  141.1317   72.8786  224.9314 H   0  0  0  0  0  0  0  0  0  0  0  0
  141.7032   71.8240  227.0778 H   0  0  0  0  0  0  0  0  0  0  0  0
  141.5404   70.0162  228.5772 H   0  0  0  0  0  0  0  0  0  0  0  0
  140.6384   67.7288  229.1245 H   0  0  0  0  0  0  0  0  0  0  0  0
  139.1693   66.5666  227.4725 H   0  0  0  0  0  0  0  0  0  0  0  0
  138.6120   67.6592  225.3146 H   0  0  0  0  0  0  0  0  0  0  0  0
  139.9524   75.5193  223.1330 H   0  0  0  0  0  0  0  0  0  0  0  0
  141.9496   76.9066  222.8453 H   0  0  0  0  0  0  0  0  0  0  0  0
  143.5231   80.3428  221.8952 H   0  0  0  0  0  0  0  0  0  0  0  0
  141.5704   78.9720  223.5927 H   0  0  0  0  0  0  0  0  0  0  0  0
  142.9704   79.9167  224.1116 H   0  0  0  0  0  0  0  0  0  0  0  0
  140.4666   80.7997  224.6549 H   0  0  0  0  0  0  0  0  0  0  0  0
  141.6467   81.9839  224.2097 H   0  0  0  0  0  0  0  0  0  0  0  0
  139.7649   80.3786  222.2913 H   0  0  0  0  0  0  0  0  0  0  0  0
  139.7177   82.1043  222.4794 H   0  0  0  0  0  0  0  0  0  0  0  0
  141.2350   81.2105  220.5015 H   0  0  0  0  0  0  0  0  0  0  0  0
  142.0816   82.3117  221.5529 H   0  0  0  0  0  0  0  0  0  0  0  0
  139.7855   79.3708  220.0732 H   0  0  0  0  0  0  0  0  0  0  0  0
  137.7867   77.9490  220.3831 H   0  0  0  0  0  0  0  0  0  0  0  0
  1  2  1  0
  2  3  1  0
  3  4  1  0
  4  5  2  0
  4  6  1  0
  6  7  1  0
  7  8  1  0
  8  9  2  0
  8 10  1  0
 10 11  2  0
 11 12  1  0
 12 13  2  0
 13 14  1  0
 14 15  2  0
 15 16  1  0
 16 17  2  0
 17 18  1  0
 18 19  2  0
  2 20  1  0
 20 21  2  0
 21 22  1  0
 22 23  2  0
 23 24  1  0
 24 25  1  0
 25 26  1  0
 26 27  1  0
 27 28  1  0
 28 29  1  0
 23 30  1  0
 30 31  2  0
 19 10  1  0
 31 20  1  0
 18 13  1  0
 29 25  1  0
  1 32  1  0
  1 33  1  0
  1 34  1  0
  2 35  1  6
  3 36  1  0
  6 37  1  0
  6 38  1  0
  7 39  1  0
 11 40  1  0
 12 41  1  0
 14 42  1  0
 15 43  1  0
 16 44  1  0
 17 45  1  0
 21 46  1  0
 22 47  1  0
 25 48  1  0
 26 49  1  0
 26 50  1  0
 27 51  1  0
 27 52  1  0
 28 53  1  0
 28 54  1  0
 29 55  1  0
 29 56  1  0
 30 57  1  0
 31 58  1  0
M  END
>  <smiles>  (18) 
CC(NC(=O)CNC(=O)c1ccc2ccccc2n1)c1ccc(OC2CCCC2)cc1

>  <score_type>  (18) 
oracle

>  <origin>  (18) 
autodockgpu

>  <m_score__min__energy>  (18) 
-9.2300000000000004

>  <m_primary>  (18) 
energy

>  <rmsd>  (18) 
5.048995104254613

>  <m_score__min__rmsd>  (18) 
5.048995104254613

>  <meeko>  (18) 
{"free_energy": -8.44, "intermolecular_energy": -10.52, "internal_energy": -2.45, "cluster_size": 40, "cluster_id": 1, "rank_in_cluster": 33}

>  <energy>  (18) 
-8.73

>  <cluster_rmsd>  (18) 
0.74

>  <cluster>  (18) 
1

$$$$

     RDKit          3D

 58 61  0  0  0  0  0  0  0  0999 V2000
  136.4130   75.9330  223.0360 C   0  0  0  0  0  0  0  0  0  0  0  0
  137.5770   75.9290  222.1090 C   0  0  2  0  0  0  0  0  0  0  0  0
  138.1330   74.5930  222.0190 N   0  0  0  0  0  0  0  0  0  0  0  0
  137.7380   73.7150  220.9840 C   0  0  0  0  0  0  0  0  0  0  0  0
  136.8950   74.1610  220.1550 O   0  0  0  0  0  0  0  0  0  0  0  0
  138.2220   72.3480  220.7920 C   0  0  0  0  0  0  0  0  0  0  0  0
  138.5780   71.6460  221.9990 N   0  0  0  0  0  0  0  0  0  0  0  0
  139.6400   72.0860  222.8390 C   0  0  0  0  0  0  0  0  0  0  0  0
  140.3300   73.1300  222.5690 O   0  0  0  0  0  0  0  0  0  0  0  0
  139.9770   71.3410  224.0530 C   0  0  0  0  0  0  0  0  0  0  0  0
  140.8100   71.8940  225.0120 C   0  0  0  0  0  0  0  0  0  0  0  0
  141.1570   71.2350  226.1700 C   0  0  0  0  0  0  0  0  0  0  0  0
  140.6600   69.9590  226.4050 C   0  0  0  0  0  0  0  0  0  0  0  0
  141.0180   69.3280  227.5600 C   0  0  0  0  0  0  0  0  0  0  0  0
  140.5150   68.0440  227.7900 C   0  0  0  0  0  0  0  0  0  0  0  0
  139.6750   67.4590  226.8440 C   0  0  0  0  0  0  0  0  0  0  0  0
  139.3420   68.1510  225.6830 C   0  0  0  0  0  0  0  0  0  0  0  0
  139.8340   69.4240  225.4400 C   0  0  0  0  0  0  0  0  0  0  0  0
  139.5110   70.1060  224.3060 N   0  0  0  0  0  0  0  0  0  0  0  0
  138.6890   76.8270  222.5100 C   0  0  0  0  0  0  0  0  0  0  0  0
  139.9810   76.4220  222.3350 C   0  0  0  0  0  0  0  0  0  0  0  0
  141.0630   77.2020  222.6840 C   0  0  0  0  0  0  0  0  0  0  0  0
  140.8810   78.4490  223.2350 C   0  0  0  0  0  0  0  0  0  0  0  0
  141.8690   79.3060  223.6180 O   0  0  0  0  0  0  0  0  0  0  0  0
  142.4530   80.2910  222.8170 C   0  0  0  0  0  0  0  0  0  0  0  0
  141.9090   81.6830  223.1630 C   0  0  0  0  0  0  0  0  0  0  0  0
  141.3020   82.2090  221.8790 C   0  0  0  0  0  0  0  0  0  0  0  0
  140.7590   80.9030  221.2940 C   0  0  0  0  0  0  0  0  0  0  0  0
  141.9840   80.0160  221.3910 C   0  0  0  0  0  0  0  0  0  0  0  0
  139.5610   78.8820  223.4220 C   0  0  0  0  0  0  0  0  0  0  0  0
  138.4870   78.0800  223.0630 C   0  0  0  0  0  0  0  0  0  0  0  0
  136.7722   75.9318  224.0757 H   0  0  0  0  0  0  0  0  0  0  0  0
  135.8062   76.8332  222.8588 H   0  0  0  0  0  0  0  0  0  0  0  0
  135.8000   75.0370  222.8588 H   0  0  0  0  0  0  0  0  0  0  0  0
  137.1734   76.2906  221.1517 H   0  0  0  0  0  0  0  0  0  0  0  0
  138.8320   74.2960  222.7270 H   0  0  0  0  0  0  0  0  0  0  0  0
  137.4307   71.7751  220.2864 H   0  0  0  0  0  0  0  0  0  0  0  0
  139.1482   72.4327  220.2047 H   0  0  0  0  0  0  0  0  0  0  0  0
  138.0740   70.7740  222.3240 H   0  0  0  0  0  0  0  0  0  0  0  0
  141.2117   72.9036  224.8408 H   0  0  0  0  0  0  0  0  0  0  0  0
  141.8222   71.7148  226.9030 H   0  0  0  0  0  0  0  0  0  0  0  0
  141.6827   69.8149  228.2888 H   0  0  0  0  0  0  0  0  0  0  0  0
  140.7797   67.5005  228.7090 H   0  0  0  0  0  0  0  0  0  0  0  0
  139.2746   66.4489  227.0151 H   0  0  0  0  0  0  0  0  0  0  0  0
  138.6765   67.6792  224.9451 H   0  0  0  0  0  0  0  0  0  0  0  0
  140.1668   75.4304  221.8966 H   0  0  0  0  0  0  0  0  0  0  0  0
  142.0826   76.8230  222.5201 H   0  0  0  0  0  0  0  0  0  0  0  0
  143.5442   80.2684  222.9541 H   0  0  0  0  0  0  0  0  0  0  0  0
  141.1434   81.6123  223.9497 H   0  0  0  0  0  0  0  0  0  0  0  0
  142.6986   82.3473  223.5440 H   0  0  0  0  0  0  0  0  0  0  0  0
  140.4990   82.9353  222.0735 H   0  0  0  0  0  0  0  0  0  0  0  0
  141.9968   82.7579  221.2264 H   0  0  0  0  0  0  0  0  0  0  0  0
  139.9248   80.5077  221.8922 H   0  0  0  0  0  0  0  0  0  0  0  0
  140.3443   80.9967  220.2795 H   0  0  0  0  0  0  0  0  0  0  0  0
  141.7238   78.9563  221.2518 H   0  0  0  0  0  0  0  0  0  0  0  0
  142.7450   80.2202  220.6235 H   0  0  0  0  0  0  0  0  0  0  0  0
  139.3735   79.8733  223.8603 H   0  0  0  0  0  0  0  0  0  0  0  0
  137.4612   78.4448  223.2200 H   0  0  0  0  0  0  0  0  0  0  0  0
  1  2  1  0
  2  3  1  0
  3  4  1  0
  4  5  2  0
  4  6  1  0
  6  7  1  0
  7  8  1  0
  8  9  2  0
  8 10  1  0
 10 11  2  0
 11 12  1  0
 12 13  2  0
 13 14  1  0
 14 15  2  0
 15 16  1  0
 16 17  2  0
 17 18  1  0
 18 19  2  0
  2 20  1  0
 20 21  2  0
 21 22  1  0
 22 23  2  0
 23 24  1  0
 24 25  1  0
 25 26  1  0
 26 27  1  0
 27 28  1  0
 28 29  1  0
 23 30  1  0
 30 31  2  0
 19 10  1  0
 31 20  1  0
 18 13  1  0
 29 25  1  0
  1 32  1  0
  1 33  1  0
  1 34  1  0
  2 35  1  6
  3 36  1  0
  6 37  1  0
  6 38  1  0
  7 39  1  0
 11 40  1  0
 12 41  1  0
 14 42  1  0
 15 43  1  0
 16 44  1  0
 17 45  1  0
 21 46  1  0
 22 47  1  0
 25 48  1  0
 26 49  1  0
 26 50  1  0
 27 51  1  0
 27 52  1  0
 28 53  1  0
 28 54  1  0
 29 55  1  0
 29 56  1  0
 30 57  1  0
 31 58  1  0
M  END
>  <smiles>  (19) 
CC(NC(=O)CNC(=O)c1ccc2ccccc2n1)c1ccc(OC2CCCC2)cc1

>  <score_type>  (19) 
oracle

>  <origin>  (19) 
autodockgpu

>  <m_score__min__energy>  (19) 
-9.2300000000000004

>  <m_primary>  (19) 
energy

>  <rmsd>  (19) 
5.1781090400589775

>  <m_score__min__rmsd>  (19) 
5.1781090400589775

>  <meeko>  (19) 
{"free_energy": -9.06, "intermolecular_energy": -11.15, "internal_energy": -2.35, "cluster_size": 40, "cluster_id": 1, "rank_in_cluster": 5}

>  <energy>  (19) 
-8.7

>  <cluster_rmsd>  (19) 
0.78

>  <cluster>  (19) 
1

$$$$

     RDKit          3D

 58 61  0  0  0  0  0  0  0  0999 V2000
  136.5980   75.3300  222.6940 C   0  0  0  0  0  0  0  0  0  0  0  0
  137.8090   75.4450  221.8360 C   0  0  2  0  0  0  0  0  0  0  0  0
  138.5160   74.1810  221.8060 N   0  0  0  0  0  0  0  0  0  0  0  0
  138.8430   73.5650  220.5760 C   0  0  0  0  0  0  0  0  0  0  0  0
  138.4940   74.1770  219.5270 O   0  0  0  0  0  0  0  0  0  0  0  0
  139.5470   72.2920  220.4190 C   0  0  0  0  0  0  0  0  0  0  0  0
  139.9130   71.6350  221.6480 N   0  0  0  0  0  0  0  0  0  0  0  0
  138.9760   71.4310  222.7000 C   0  0  0  0  0  0  0  0  0  0  0  0
  137.7580   71.8150  222.6060 O   0  0  0  0  0  0  0  0  0  0  0  0
  139.3880   70.7670  223.9370 C   0  0  0  0  0  0  0  0  0  0  0  0
  139.2100   69.4030  224.0980 C   0  0  0  0  0  0  0  0  0  0  0  0
  139.5800   68.7310  225.2420 C   0  0  0  0  0  0  0  0  0  0  0  0
  140.1590   69.4350  226.2900 C   0  0  0  0  0  0  0  0  0  0  0  0
  140.5190   68.7470  227.4110 C   0  0  0  0  0  0  0  0  0  0  0  0
  141.1010   69.4610  228.4630 C   0  0  0  0  0  0  0  0  0  0  0  0
  141.2940   70.8350  228.3320 C   0  0  0  0  0  0  0  0  0  0  0  0
  140.9090   71.4860  227.1630 C   0  0  0  0  0  0  0  0  0  0  0  0
  140.3290   70.7910  226.1130 C   0  0  0  0  0  0  0  0  0  0  0  0
  139.9500   71.4230  224.9660 N   0  0  0  0  0  0  0  0  0  0  0  0
  138.7860   76.4700  222.2810 C   0  0  0  0  0  0  0  0  0  0  0  0
  140.1210   76.1880  222.2560 C   0  0  0  0  0  0  0  0  0  0  0  0
  141.0840   77.0890  222.6550 C   0  0  0  0  0  0  0  0  0  0  0  0
  140.7310   78.3400  223.1060 C   0  0  0  0  0  0  0  0  0  0  0  0
  141.5920   79.3110  223.5240 O   0  0  0  0  0  0  0  0  0  0  0  0
  142.3090   80.1790  222.6980 C   0  0  0  0  0  0  0  0  0  0  0  0
  142.0120   81.6450  223.0420 C   0  0  0  0  0  0  0  0  0  0  0  0
  141.4680   82.2550  221.7670 C   0  0  0  0  0  0  0  0  0  0  0  0
  140.7010   81.0530  221.2100 C   0  0  0  0  0  0  0  0  0  0  0  0
  141.7640   79.9750  221.2870 C   0  0  0  0  0  0  0  0  0  0  0  0
  139.3650   78.6490  223.1390 C   0  0  0  0  0  0  0  0  0  0  0  0
  138.4120   77.7250  222.7320 C   0  0  0  0  0  0  0  0  0  0  0  0
  136.8948   75.3582  223.7528 H   0  0  0  0  0  0  0  0  0  0  0  0
  135.9173   76.1675  222.4816 H   0  0  0  0  0  0  0  0  0  0  0  0
  136.0871   74.3793  222.4816 H   0  0  0  0  0  0  0  0  0  0  0  0
  137.4253   75.7440  220.8494 H   0  0  0  0  0  0  0  0  0  0  0  0
  138.7850   73.7400  222.7070 H   0  0  0  0  0  0  0  0  0  0  0  0
  138.8959   71.6115  219.8507 H   0  0  0  0  0  0  0  0  0  0  0  0
  140.4917   72.5280  219.9073 H   0  0  0  0  0  0  0  0  0  0  0  0
  140.8900   71.2710  221.8340 H   0  0  0  0  0  0  0  0  0  0  0  0
  138.7533   68.8315  223.2766 H   0  0  0  0  0  0  0  0  0  0  0  0
  139.4183   67.6461  225.3249 H   0  0  0  0  0  0  0  0  0  0  0  0
  140.3562   67.6617  227.4855 H   0  0  0  0  0  0  0  0  0  0  0  0
  141.4036   68.9432  229.3851 H   0  0  0  0  0  0  0  0  0  0  0  0
  141.7512   71.4061  229.1535 H   0  0  0  0  0  0  0  0  0  0  0  0
  141.0678   72.5706  227.0710 H   0  0  0  0  0  0  0  0  0  0  0  0
  140.4425   75.1975  221.9016 H   0  0  0  0  0  0  0  0  0  0  0  0
  142.1459   76.8052  222.6125 H   0  0  0  0  0  0  0  0  0  0  0  0
  143.3847   79.9769  222.8080 H   0  0  0  0  0  0  0  0  0  0  0  0
  141.2656   81.7077  223.8476 H   0  0  0  0  0  0  0  0  0  0  0  0
  142.9100   82.1719  223.3969 H   0  0  0  0  0  0  0  0  0  0  0  0
  140.8019   83.1059  221.9724 H   0  0  0  0  0  0  0  0  0  0  0  0
  142.2274   82.6760  221.0917 H   0  0  0  0  0  0  0  0  0  0  0  0
  139.8285   80.8060  221.8327 H   0  0  0  0  0  0  0  0  0  0  0  0
  140.2817   81.2072  220.2048 H   0  0  0  0  0  0  0  0  0  0  0  0
  141.3279   78.9723  221.1666 H   0  0  0  0  0  0  0  0  0  0  0  0
  142.5281   80.0438  220.4987 H   0  0  0  0  0  0  0  0  0  0  0  0
  139.0424   79.6393  223.4930 H   0  0  0  0  0  0  0  0  0  0  0  0
  137.3458   77.9932  222.7682 H   0  0  0  0  0  0  0  0  0  0  0  0
  1  2  1  0
  2  3  1  0
  3  4  1  0
  4  5  2  0
  4  6  1  0
  6  7  1  0
  7  8  1  0
  8  9  2  0
  8 10  1  0
 10 11  2  0
 11 12  1  0
 12 13  2  0
 13 14  1  0
 14 15  2  0
 15 16  1  0
 16 17  2  0
 17 18  1  0
 18 19  2  0
  2 20  1  0
 20 21  2  0
 21 22  1  0
 22 23  2  0
 23 24  1  0
 24 25  1  0
 25 26  1  0
 26 27  1  0
 27 28  1  0
 28 29  1  0
 23 30  1  0
 30 31  2  0
 19 10  1  0
 31 20  1  0
 18 13  1  0
 29 25  1  0
  1 32  1  0
  1 33  1  0
  1 34  1  0
  2 35  1  6
  3 36  1  0
  6 37  1  0
  6 38  1  0
  7 39  1  0
 11 40  1  0
 12 41  1  0
 14 42  1  0
 15 43  1  0
 16 44  1  0
 17 45  1  0
 21 46  1  0
 22 47  1  0
 25 48  1  0
 26 49  1  0
 26 50  1  0
 27 51  1  0
 27 52  1  0
 28 53  1  0
 28 54  1  0
 29 55  1  0
 29 56  1  0
 30 57  1  0
 31 58  1  0
M  END
>  <smiles>  (20) 
CC(NC(=O)CNC(=O)c1ccc2ccccc2n1)c1ccc(OC2CCCC2)cc1

>  <score_type>  (20) 
oracle

>  <origin>  (20) 
autodockgpu

>  <m_score__min__energy>  (20) 
-9.2300000000000004

>  <m_primary>  (20) 
energy

>  <rmsd>  (20) 
5.543704677589937

>  <m_score__min__rmsd>  (20) 
5.543704677589937

>  <meeko>  (20) 
{"free_energy": -8.34, "intermolecular_energy": -10.43, "internal_energy": -2.02, "cluster_size": 40, "cluster_id": 1, "rank_in_cluster": 37}

>  <energy>  (20) 
-8.7

>  <cluster_rmsd>  (20) 
0.95

>  <cluster>  (20) 
1

$$$$

     RDKit          3D

 58 61  0  0  0  0  0  0  0  0999 V2000
  135.6020   75.0160  223.0000 C   0  0  0  0  0  0  0  0  0  0  0  0
  136.6480   75.2180  221.9620 C   0  0  2  0  0  0  0  0  0  0  0  0
  137.5570   74.0890  221.9490 N   0  0  0  0  0  0  0  0  0  0  0  0
  137.5160   73.1410  220.9010 C   0  0  0  0  0  0  0  0  0  0  0  0
  136.6610   73.3400  219.9910 O   0  0  0  0  0  0  0  0  0  0  0  0
  138.3740   71.9630  220.7810 C   0  0  0  0  0  0  0  0  0  0  0  0
  138.7280   71.3290  222.0260 N   0  0  0  0  0  0  0  0  0  0  0  0
  139.6320   71.9320  222.9460 C   0  0  0  0  0  0  0  0  0  0  0  0
  140.1720   73.0700  222.7190 O   0  0  0  0  0  0  0  0  0  0  0  0
  139.9720   71.2530  224.1980 C   0  0  0  0  0  0  0  0  0  0  0  0
  140.7520   71.8850  225.1530 C   0  0  0  0  0  0  0  0  0  0  0  0
  141.1000   71.2900  226.3450 C   0  0  0  0  0  0  0  0  0  0  0  0
  140.6600   70.0020  226.6200 C   0  0  0  0  0  0  0  0  0  0  0  0
  141.0170   69.4350  227.8080 C   0  0  0  0  0  0  0  0  0  0  0  0
  140.5710   68.1380  228.0780 C   0  0  0  0  0  0  0  0  0  0  0  0
  139.7850   67.4760  227.1370 C   0  0  0  0  0  0  0  0  0  0  0  0
  139.4500   68.1030  225.9410 C   0  0  0  0  0  0  0  0  0  0  0  0
  139.8850   69.3890  225.6580 C   0  0  0  0  0  0  0  0  0  0  0  0
  139.5600   70.0080  224.4890 N   0  0  0  0  0  0  0  0  0  0  0  0
  137.4800   76.4330  222.1510 C   0  0  0  0  0  0  0  0  0  0  0  0
  136.9380   77.5370  222.7440 C   0  0  0  0  0  0  0  0  0  0  0  0
  137.6500   78.6990  222.9520 C   0  0  0  0  0  0  0  0  0  0  0  0
  138.9650   78.7960  222.5610 C   0  0  0  0  0  0  0  0  0  0  0  0
  139.7660   79.8890  222.7140 O   0  0  0  0  0  0  0  0  0  0  0  0
  140.6310   80.1250  223.7850 C   0  0  0  0  0  0  0  0  0  0  0  0
  141.5230   81.3450  223.5210 C   0  0  0  0  0  0  0  0  0  0  0  0
  142.9450   80.8300  223.5980 C   0  0  0  0  0  0  0  0  0  0  0  0
  142.7470   79.4310  223.0070 C   0  0  0  0  0  0  0  0  0  0  0  0
  141.5820   78.9320  223.8380 C   0  0  0  0  0  0  0  0  0  0  0  0
  139.5390   77.6730  221.9510 C   0  0  0  0  0  0  0  0  0  0  0  0
  138.8030   76.5130  221.7520 C   0  0  0  0  0  0  0  0  0  0  0  0
  136.0548   75.1034  223.9987 H   0  0  0  0  0  0  0  0  0  0  0  0
  134.8185   75.7794  222.8845 H   0  0  0  0  0  0  0  0  0  0  0  0
  135.1591   74.0157  222.8845 H   0  0  0  0  0  0  0  0  0  0  0  0
  136.0896   75.3291  221.0208 H   0  0  0  0  0  0  0  0  0  0  0  0
  138.2430   73.9940  222.7220 H   0  0  0  0  0  0  0  0  0  0  0  0
  137.8492   71.2223  220.1597 H   0  0  0  0  0  0  0  0  0  0  0  0
  139.3178   72.3179  220.3414 H   0  0  0  0  0  0  0  0  0  0  0  0
  138.3380   70.3910  222.3230 H   0  0  0  0  0  0  0  0  0  0  0  0
  141.1085   72.9057  224.9502 H   0  0  0  0  0  0  0  0  0  0  0  0
  141.7217   71.8308  227.0737 H   0  0  0  0  0  0  0  0  0  0  0  0
  141.6378   69.9824  228.5325 H   0  0  0  0  0  0  0  0  0  0  0  0
  140.8380   67.6447  229.0243 H   0  0  0  0  0  0  0  0  0  0  0  0
  139.4286   66.4554  227.3402 H   0  0  0  0  0  0  0  0  0  0  0  0
  138.8289   67.5690  225.2067 H   0  0  0  0  0  0  0  0  0  0  0  0
  135.8881   77.4975  223.0698 H   0  0  0  0  0  0  0  0  0  0  0  0
  137.1613   79.5576  223.4357 H   0  0  0  0  0  0  0  0  0  0  0  0
  140.0395   80.2819  224.6991 H   0  0  0  0  0  0  0  0  0  0  0  0
  141.3186   81.7623  222.5239 H   0  0  0  0  0  0  0  0  0  0  0  0
  141.3401   82.1496  224.2484 H   0  0  0  0  0  0  0  0  0  0  0  0
  143.6334   81.4368  222.9915 H   0  0  0  0  0  0  0  0  0  0  0  0
  143.3945   80.8521  224.6017 H   0  0  0  0  0  0  0  0  0  0  0  0
  142.4915   79.4759  221.9380 H   0  0  0  0  0  0  0  0  0  0  0  0
  143.6404   78.7904  223.0455 H   0  0  0  0  0  0  0  0  0  0  0  0
  141.1262   78.0357  223.3921 H   0  0  0  0  0  0  0  0  0  0  0  0
  141.8592   78.6267  224.8578 H   0  0  0  0  0  0  0  0  0  0  0  0
  140.5888   77.7110  221.6248 H   0  0  0  0  0  0  0  0  0  0  0  0
  139.2777   75.6453  221.2705 H   0  0  0  0  0  0  0  0  0  0  0  0
  1  2  1  0
  2  3  1  0
  3  4  1  0
  4  5  2  0
  4  6  1  0
  6  7  1  0
  7  8  1  0
  8  9  2  0
  8 10  1  0
 10 11  2  0
 11 12  1  0
 12 13  2  0
 13 14  1  0
 14 15  2  0
 15 16  1  0
 16 17  2  0
 17 18  1  0
 18 19  2  0
  2 20  1  0
 20 21  2  0
 21 22  1  0
 22 23  2  0
 23 24  1  0
 24 25  1  0
 25 26  1  0
 26 27  1  0
 27 28  1  0
 28 29  1  0
 23 30  1  0
 30 31  2  0
 19 10  1  0
 31 20  1  0
 18 13  1  0
 29 25  1  0
  1 32  1  0
  1 33  1  0
  1 34  1  0
  2 35  1  6
  3 36  1  0
  6 37  1  0
  6 38  1  0
  7 39  1  0
 11 40  1  0
 12 41  1  0
 14 42  1  0
 15 43  1  0
 16 44  1  0
 17 45  1  0
 21 46  1  0
 22 47  1  0
 25 48  1  0
 26 49  1  0
 26 50  1  0
 27 51  1  0
 27 52  1  0
 28 53  1  0
 28 54  1  0
 29 55  1  0
 29 56  1  0
 30 57  1  0
 31 58  1  0
M  END
>  <smiles>  (21) 
CC(NC(=O)CNC(=O)c1ccc2ccccc2n1)c1ccc(OC2CCCC2)cc1

>  <score_type>  (21) 
oracle

>  <origin>  (21) 
autodockgpu

>  <m_score__min__energy>  (21) 
-9.2300000000000004

>  <m_primary>  (21) 
energy

>  <rmsd>  (21) 
5.348046808161876

>  <m_score__min__rmsd>  (21) 
5.348046808161876

>  <meeko>  (21) 
{"free_energy": -8.73, "intermolecular_energy": -10.82, "internal_energy": -2.28, "cluster_size": 40, "cluster_id": 1, "rank_in_cluster": 17}

>  <energy>  (21) 
-8.67

>  <cluster_rmsd>  (21) 
1.17

>  <cluster>  (21) 
1

$$$$

     RDKit          3D

 58 61  0  0  0  0  0  0  0  0999 V2000
  136.4000   76.0290  222.9920 C   0  0  0  0  0  0  0  0  0  0  0  0
  137.5720   75.9630  222.0770 C   0  0  2  0  0  0  0  0  0  0  0  0
  138.0760   74.6050  222.0160 N   0  0  0  0  0  0  0  0  0  0  0  0
  137.7160   73.7480  220.9500 C   0  0  0  0  0  0  0  0  0  0  0  0
  136.9500   74.2320  220.0700 O   0  0  0  0  0  0  0  0  0  0  0  0
  138.1550   72.3630  220.7830 C   0  0  0  0  0  0  0  0  0  0  0  0
  138.4850   71.6700  222.0030 N   0  0  0  0  0  0  0  0  0  0  0  0
  139.5750   72.0730  222.8260 C   0  0  0  0  0  0  0  0  0  0  0  0
  140.3130   73.0750  222.5280 O   0  0  0  0  0  0  0  0  0  0  0  0
  139.8830   71.3380  224.0540 C   0  0  0  0  0  0  0  0  0  0  0  0
  140.6910   71.9010  225.0280 C   0  0  0  0  0  0  0  0  0  0  0  0
  141.0110   71.2520  226.1990 C   0  0  0  0  0  0  0  0  0  0  0  0
  140.5110   69.9770  226.4320 C   0  0  0  0  0  0  0  0  0  0  0  0
  140.8410   69.3550  227.6000 C   0  0  0  0  0  0  0  0  0  0  0  0
  140.3360   68.0720  227.8280 C   0  0  0  0  0  0  0  0  0  0  0  0
  139.5200   67.4780  226.8670 C   0  0  0  0  0  0  0  0  0  0  0  0
  139.2150   68.1600  225.6920 C   0  0  0  0  0  0  0  0  0  0  0  0
  139.7090   69.4320  225.4520 C   0  0  0  0  0  0  0  0  0  0  0  0
  139.4140   70.1040  224.3040 N   0  0  0  0  0  0  0  0  0  0  0  0
  138.7140   76.8250  222.4720 C   0  0  0  0  0  0  0  0  0  0  0  0
  138.4760   78.0620  222.9980 C   0  0  0  0  0  0  0  0  0  0  0  0
  139.4860   78.9160  223.3870 C   0  0  0  0  0  0  0  0  0  0  0  0
  140.8060   78.5480  223.2570 C   0  0  0  0  0  0  0  0  0  0  0  0
  141.8840   79.3050  223.6050 O   0  0  0  0  0  0  0  0  0  0  0  0
  142.4510   80.3240  222.8360 C   0  0  0  0  0  0  0  0  0  0  0  0
  141.8360   81.6880  223.1810 C   0  0  0  0  0  0  0  0  0  0  0  0
  141.2490   82.2040  221.8830 C   0  0  0  0  0  0  0  0  0  0  0  0
  140.7830   80.8830  221.2650 C   0  0  0  0  0  0  0  0  0  0  0  0
  142.0410   80.0480  221.3920 C   0  0  0  0  0  0  0  0  0  0  0  0
  141.0690   77.2820  222.7190 C   0  0  0  0  0  0  0  0  0  0  0  0
  140.0360   76.4380  222.3350 C   0  0  0  0  0  0  0  0  0  0  0  0
  136.7478   76.0094  224.0354 H   0  0  0  0  0  0  0  0  0  0  0  0
  135.8435   76.9599  222.8084 H   0  0  0  0  0  0  0  0  0  0  0  0
  135.7425   75.1665  222.8084 H   0  0  0  0  0  0  0  0  0  0  0  0
  137.1919   76.3224  221.1094 H   0  0  0  0  0  0  0  0  0  0  0  0
  138.7130   74.2770  222.7670 H   0  0  0  0  0  0  0  0  0  0  0  0
  137.3464   71.8079  220.2850 H   0  0  0  0  0  0  0  0  0  0  0  0
  139.0850   72.4073  220.1973 H   0  0  0  0  0  0  0  0  0  0  0  0
  137.9400   70.8320  222.3510 H   0  0  0  0  0  0  0  0  0  0  0  0
  141.0943   72.9102  224.8585 H   0  0  0  0  0  0  0  0  0  0  0  0
  141.6573   71.7389  226.9441 H   0  0  0  0  0  0  0  0  0  0  0  0
  141.4862   69.8490  228.3414 H   0  0  0  0  0  0  0  0  0  0  0  0
  140.5802   67.5361  228.7571 H   0  0  0  0  0  0  0  0  0  0  0  0
  139.1163   66.4690  227.0370 H   0  0  0  0  0  0  0  0  0  0  0  0
  138.5703   67.6803  224.9408 H   0  0  0  0  0  0  0  0  0  0  0  0
  137.4333   78.3916  223.1166 H   0  0  0  0  0  0  0  0  0  0  0  0
  139.2344   79.9016  223.8056 H   0  0  0  0  0  0  0  0  0  0  0  0
  143.5371   80.3462  223.0087 H   0  0  0  0  0  0  0  0  0  0  0  0
  141.0490   81.5743  223.9410 H   0  0  0  0  0  0  0  0  0  0  0  0
  142.5830   82.3805  223.5962 H   0  0  0  0  0  0  0  0  0  0  0  0
  140.4091   82.8922  222.0588 H   0  0  0  0  0  0  0  0  0  0  0  0
  141.9403   82.7909  221.2604 H   0  0  0  0  0  0  0  0  0  0  0  0
  139.9477   80.4444  221.8305 H   0  0  0  0  0  0  0  0  0  0  0  0
  140.3984   80.9722  220.2383 H   0  0  0  0  0  0  0  0  0  0  0  0
  141.8313   78.9801  221.2318 H   0  0  0  0  0  0  0  0  0  0  0  0
  142.8171   80.2945  220.6525 H   0  0  0  0  0  0  0  0  0  0  0  0
  142.1111   76.9511  222.5988 H   0  0  0  0  0  0  0  0  0  0  0  0
  140.2711   75.4484  221.9162 H   0  0  0  0  0  0  0  0  0  0  0  0
  1  2  1  0
  2  3  1  0
  3  4  1  0
  4  5  2  0
  4  6  1  0
  6  7  1  0
  7  8  1  0
  8  9  2  0
  8 10  1  0
 10 11  2  0
 11 12  1  0
 12 13  2  0
 13 14  1  0
 14 15  2  0
 15 16  1  0
 16 17  2  0
 17 18  1  0
 18 19  2  0
  2 20  1  0
 20 21  2  0
 21 22  1  0
 22 23  2  0
 23 24  1  0
 24 25  1  0
 25 26  1  0
 26 27  1  0
 27 28  1  0
 28 29  1  0
 23 30  1  0
 30 31  2  0
 19 10  1  0
 31 20  1  0
 18 13  1  0
 29 25  1  0
  1 32  1  0
  1 33  1  0
  1 34  1  0
  2 35  1  6
  3 36  1  0
  6 37  1  0
  6 38  1  0
  7 39  1  0
 11 40  1  0
 12 41  1  0
 14 42  1  0
 15 43  1  0
 16 44  1  0
 17 45  1  0
 21 46  1  0
 22 47  1  0
 25 48  1  0
 26 49  1  0
 26 50  1  0
 27 51  1  0
 27 52  1  0
 28 53  1  0
 28 54  1  0
 29 55  1  0
 29 56  1  0
 30 57  1  0
 31 58  1  0
M  END
>  <smiles>  (22) 
CC(NC(=O)CNC(=O)c1ccc2ccccc2n1)c1ccc(OC2CCCC2)cc1

>  <score_type>  (22) 
oracle

>  <origin>  (22) 
autodockgpu

>  <m_score__min__energy>  (22) 
-9.2300000000000004

>  <m_primary>  (22) 
energy

>  <rmsd>  (22) 
5.068604705046894

>  <m_score__min__rmsd>  (22) 
5.068604705046894

>  <meeko>  (22) 
{"free_energy": -9.11, "intermolecular_energy": -11.2, "internal_energy": -2.32, "cluster_size": 40, "cluster_id": 1, "rank_in_cluster": 4}

>  <energy>  (22) 
-8.65

>  <cluster_rmsd>  (22) 
1.03

>  <cluster>  (22) 
1

$$$$

     RDKit          3D

 58 61  0  0  0  0  0  0  0  0999 V2000
  136.0770   75.4210  222.9630 C   0  0  0  0  0  0  0  0  0  0  0  0
  137.2260   75.5710  222.0300 C   0  0  2  0  0  0  0  0  0  0  0  0
  137.9830   74.3360  221.9750 N   0  0  0  0  0  0  0  0  0  0  0  0
  137.8600   73.4620  220.8700 C   0  0  0  0  0  0  0  0  0  0  0  0
  137.0720   73.8220  219.9510 O   0  0  0  0  0  0  0  0  0  0  0  0
  138.5640   72.1910  220.7040 C   0  0  0  0  0  0  0  0  0  0  0  0
  138.8780   71.4970  221.9270 N   0  0  0  0  0  0  0  0  0  0  0  0
  139.7880   72.0320  222.8830 C   0  0  0  0  0  0  0  0  0  0  0  0
  140.3690   73.1590  222.7080 O   0  0  0  0  0  0  0  0  0  0  0  0
  140.0890   71.2930  224.1100 C   0  0  0  0  0  0  0  0  0  0  0  0
  140.8090   71.8870  225.1330 C   0  0  0  0  0  0  0  0  0  0  0  0
  141.1170   71.2350  226.3060 C   0  0  0  0  0  0  0  0  0  0  0  0
  140.6960   69.9250  226.4900 C   0  0  0  0  0  0  0  0  0  0  0  0
  141.0130   69.3020  227.6610 C   0  0  0  0  0  0  0  0  0  0  0  0
  140.5860   67.9820  227.8400 C   0  0  0  0  0  0  0  0  0  0  0  0
  139.8590   67.3560  226.8300 C   0  0  0  0  0  0  0  0  0  0  0  0
  139.5630   68.0410  225.6550 C   0  0  0  0  0  0  0  0  0  0  0  0
  139.9800   69.3490  225.4630 C   0  0  0  0  0  0  0  0  0  0  0  0
  139.6940   70.0250  224.3150 N   0  0  0  0  0  0  0  0  0  0  0  0
  138.1850   76.6430  222.3990 C   0  0  0  0  0  0  0  0  0  0  0  0
  139.5250   76.3830  222.3890 C   0  0  0  0  0  0  0  0  0  0  0  0
  140.4730   77.3280  222.7190 C   0  0  0  0  0  0  0  0  0  0  0  0
  140.0980   78.6010  223.0830 C   0  0  0  0  0  0  0  0  0  0  0  0
  140.9410   79.6140  223.4290 O   0  0  0  0  0  0  0  0  0  0  0  0
  141.8510   80.2470  222.5780 C   0  0  0  0  0  0  0  0  0  0  0  0
  141.7970   81.7720  222.7430 C   0  0  0  0  0  0  0  0  0  0  0  0
  141.4500   82.3130  221.3720 C   0  0  0  0  0  0  0  0  0  0  0  0
  140.5190   81.2010  220.8810 C   0  0  0  0  0  0  0  0  0  0  0  0
  141.3680   79.9760  221.1560 C   0  0  0  0  0  0  0  0  0  0  0  0
  138.7270   78.8860  223.0990 C   0  0  0  0  0  0  0  0  0  0  0  0
  137.7900   77.9190  222.7610 C   0  0  0  0  0  0  0  0  0  0  0  0
  136.4387   75.4682  224.0007 H   0  0  0  0  0  0  0  0  0  0  0  0
  135.3551   76.2325  222.7891 H   0  0  0  0  0  0  0  0  0  0  0  0
  135.5876   74.4513  222.7891 H   0  0  0  0  0  0  0  0  0  0  0  0
  136.7701   75.8370  221.0649 H   0  0  0  0  0  0  0  0  0  0  0  0
  138.6230   74.1090  222.7600 H   0  0  0  0  0  0  0  0  0  0  0  0
  137.9332   71.5306  220.0908 H   0  0  0  0  0  0  0  0  0  0  0  0
  139.5292   72.4365  220.2370 H   0  0  0  0  0  0  0  0  0  0  0  0
  138.4540   70.5610  222.1810 H   0  0  0  0  0  0  0  0  0  0  0  0
  141.1497   72.9248  225.0028 H   0  0  0  0  0  0  0  0  0  0  0  0
  141.6920   71.7480  227.0910 H   0  0  0  0  0  0  0  0  0  0  0  0
  141.5875   69.8221  228.4417 H   0  0  0  0  0  0  0  0  0  0  0  0
  140.8221   67.4434  228.7696 H   0  0  0  0  0  0  0  0  0  0  0  0
  139.5182   66.3184  226.9613 H   0  0  0  0  0  0  0  0  0  0  0  0
  138.9882   67.5356  224.8650 H   0  0  0  0  0  0  0  0  0  0  0  0
  139.8632   75.3755  222.1053 H   0  0  0  0  0  0  0  0  0  0  0  0
  141.5399   77.0617  222.6910 H   0  0  0  0  0  0  0  0  0  0  0  0
  142.8648   79.8800  222.7957 H   0  0  0  0  0  0  0  0  0  0  0  0
  141.0247   82.0528  223.4743 H   0  0  0  0  0  0  0  0  0  0  0  0
  142.7502   82.1773  223.1134 H   0  0  0  0  0  0  0  0  0  0  0  0
  140.9330   83.2820  221.4334 H   0  0  0  0  0  0  0  0  0  0  0  0
  142.3125   82.5189  220.7211 H   0  0  0  0  0  0  0  0  0  0  0  0
  139.5792   81.1785  221.4522 H   0  0  0  0  0  0  0  0  0  0  0  0
  140.1974   81.3060  219.8343 H   0  0  0  0  0  0  0  0  0  0  0  0
  140.7702   79.0541  221.1045 H   0  0  0  0  0  0  0  0  0  0  0  0
  142.1802   79.8236  220.4300 H   0  0  0  0  0  0  0  0  0  0  0  0
  138.3870   79.8925  223.3840 H   0  0  0  0  0  0  0  0  0  0  0  0
  136.7193   78.1704  222.7812 H   0  0  0  0  0  0  0  0  0  0  0  0
  1  2  1  0
  2  3  1  0
  3  4  1  0
  4  5  2  0
  4  6  1  0
  6  7  1  0
  7  8  1  0
  8  9  2  0
  8 10  1  0
 10 11  2  0
 11 12  1  0
 12 13  2  0
 13 14  1  0
 14 15  2  0
 15 16  1  0
 16 17  2  0
 17 18  1  0
 18 19  2  0
  2 20  1  0
 20 21  2  0
 21 22  1  0
 22 23  2  0
 23 24  1  0
 24 25  1  0
 25 26  1  0
 26 27  1  0
 27 28  1  0
 28 29  1  0
 23 30  1  0
 30 31  2  0
 19 10  1  0
 31 20  1  0
 18 13  1  0
 29 25  1  0
  1 32  1  0
  1 33  1  0
  1 34  1  0
  2 35  1  6
  3 36  1  0
  6 37  1  0
  6 38  1  0
  7 39  1  0
 11 40  1  0
 12 41  1  0
 14 42  1  0
 15 43  1  0
 16 44  1  0
 17 45  1  0
 21 46  1  0
 22 47  1  0
 25 48  1  0
 26 49  1  0
 26 50  1  0
 27 51  1  0
 27 52  1  0
 28 53  1  0
 28 54  1  0
 29 55  1  0
 29 56  1  0
 30 57  1  0
 31 58  1  0
M  END
>  <smiles>  (23) 
CC(NC(=O)CNC(=O)c1ccc2ccccc2n1)c1ccc(OC2CCCC2)cc1

>  <score_type>  (23) 
oracle

>  <origin>  (23) 
autodockgpu

>  <m_score__min__energy>  (23) 
-9.2300000000000004

>  <m_primary>  (23) 
energy

>  <rmsd>  (23) 
5.262255611737

>  <m_score__min__rmsd>  (23) 
5.262255611737

>  <meeko>  (23) 
{"free_energy": -8.61, "intermolecular_energy": -10.7, "internal_energy": -2.43, "cluster_size": 40, "cluster_id": 1, "rank_in_cluster": 23}

>  <energy>  (23) 
-8.61

>  <cluster_rmsd>  (23) 
0.86

>  <cluster>  (23) 
1

$$$$

     RDKit          3D

 58 61  0  0  0  0  0  0  0  0999 V2000
  136.4260   75.7940  222.8020 C   0  0  0  0  0  0  0  0  0  0  0  0
  137.6300   75.7020  221.9320 C   0  0  2  0  0  0  0  0  0  0  0  0
  138.1470   74.3480  221.9430 N   0  0  0  0  0  0  0  0  0  0  0  0
  137.8840   73.4650  220.8710 C   0  0  0  0  0  0  0  0  0  0  0  0
  137.1930   73.9230  219.9180 O   0  0  0  0  0  0  0  0  0  0  0  0
  138.3450   72.0800  220.7720 C   0  0  0  0  0  0  0  0  0  0  0  0
  138.6710   71.4490  222.0250 N   0  0  0  0  0  0  0  0  0  0  0  0
  139.6800   71.9660  222.8870 C   0  0  0  0  0  0  0  0  0  0  0  0
  140.3440   73.0200  222.5970 O   0  0  0  0  0  0  0  0  0  0  0  0
  139.9880   71.2910  224.1500 C   0  0  0  0  0  0  0  0  0  0  0  0
  140.8100   71.8920  225.0880 C   0  0  0  0  0  0  0  0  0  0  0  0
  141.1310   71.3000  226.2890 C   0  0  0  0  0  0  0  0  0  0  0  0
  140.6170   70.0450  226.5910 C   0  0  0  0  0  0  0  0  0  0  0  0
  140.9470   69.4810  227.7870 C   0  0  0  0  0  0  0  0  0  0  0  0
  140.4270   68.2180  228.0840 C   0  0  0  0  0  0  0  0  0  0  0  0
  139.5960   67.5860  227.1610 C   0  0  0  0  0  0  0  0  0  0  0  0
  139.2910   68.2100  225.9550 C   0  0  0  0  0  0  0  0  0  0  0  0
  139.8000   69.4620  225.6460 C   0  0  0  0  0  0  0  0  0  0  0  0
  139.5050   70.0780  224.4670 N   0  0  0  0  0  0  0  0  0  0  0  0
  138.7500   76.5900  222.3310 C   0  0  0  0  0  0  0  0  0  0  0  0
  138.4850   77.8480  222.7900 C   0  0  0  0  0  0  0  0  0  0  0  0
  139.4740   78.7270  223.1780 C   0  0  0  0  0  0  0  0  0  0  0  0
  140.7990   78.3630  223.1170 C   0  0  0  0  0  0  0  0  0  0  0  0
  141.8590   79.1430  223.4730 O   0  0  0  0  0  0  0  0  0  0  0  0
  142.4700   80.1080  222.6680 C   0  0  0  0  0  0  0  0  0  0  0  0
  142.0850   81.5260  223.1110 C   0  0  0  0  0  0  0  0  0  0  0  0
  141.4350   82.1630  221.9000 C   0  0  0  0  0  0  0  0  0  0  0  0
  140.7320   80.9390  221.3080 C   0  0  0  0  0  0  0  0  0  0  0  0
  141.8730   79.9430  221.2730 C   0  0  0  0  0  0  0  0  0  0  0  0
  141.0910   77.0750  222.6500 C   0  0  0  0  0  0  0  0  0  0  0  0
  140.0790   76.2070  222.2640 C   0  0  0  0  0  0  0  0  0  0  0  0
  136.7339   75.7705  223.8578 H   0  0  0  0  0  0  0  0  0  0  0  0
  135.8955   76.7353  222.5956 H   0  0  0  0  0  0  0  0  0  0  0  0
  135.7587   74.9442  222.5956 H   0  0  0  0  0  0  0  0  0  0  0  0
  137.2808   76.0183  220.9380 H   0  0  0  0  0  0  0  0  0  0  0  0
  138.7200   74.0410  222.7530 H   0  0  0  0  0  0  0  0  0  0  0  0
  137.5502   71.4908  220.2914 H   0  0  0  0  0  0  0  0  0  0  0  0
  139.2807   72.1113  220.1946 H   0  0  0  0  0  0  0  0  0  0  0  0
  138.1840   70.5760  222.3710 H   0  0  0  0  0  0  0  0  0  0  0  0
  141.2248   72.8859  224.8640 H   0  0  0  0  0  0  0  0  0  0  0  0
  141.7889   71.8164  227.0035 H   0  0  0  0  0  0  0  0  0  0  0  0
  141.6034   70.0044  228.4978 H   0  0  0  0  0  0  0  0  0  0  0  0
  140.6715   67.7274  229.0377 H   0  0  0  0  0  0  0  0  0  0  0  0
  139.1806   66.5926  227.3859 H   0  0  0  0  0  0  0  0  0  0  0  0
  138.6344   67.7008  225.2342 H   0  0  0  0  0  0  0  0  0  0  0  0
  137.4366   78.1748  222.8531 H   0  0  0  0  0  0  0  0  0  0  0  0
  139.2006   79.7292  223.5398 H   0  0  0  0  0  0  0  0  0  0  0  0
  143.5615   79.9813  222.7178 H   0  0  0  0  0  0  0  0  0  0  0  0
  141.3772   81.4876  223.9522 H   0  0  0  0  0  0  0  0  0  0  0  0
  142.9590   82.0986  223.4549 H   0  0  0  0  0  0  0  0  0  0  0  0
  140.7190   82.9478  222.1853 H   0  0  0  0  0  0  0  0  0  0  0  0
  142.1270   82.6778  221.2172 H   0  0  0  0  0  0  0  0  0  0  0  0
  139.9118   80.5920  221.9537 H   0  0  0  0  0  0  0  0  0  0  0  0
  140.2535   81.1166  220.3336 H   0  0  0  0  0  0  0  0  0  0  0  0
  141.5062   78.9185  221.1123 H   0  0  0  0  0  0  0  0  0  0  0  0
  142.5905   80.1141  220.4569 H   0  0  0  0  0  0  0  0  0  0  0  0
  142.1389   76.7463  222.5882 H   0  0  0  0  0  0  0  0  0  0  0  0
  140.3362   75.2013  221.9000 H   0  0  0  0  0  0  0  0  0  0  0  0
  1  2  1  0
  2  3  1  0
  3  4  1  0
  4  5  2  0
  4  6  1  0
  6  7  1  0
  7  8  1  0
  8  9  2  0
  8 10  1  0
 10 11  2  0
 11 12  1  0
 12 13  2  0
 13 14  1  0
 14 15  2  0
 15 16  1  0
 16 17  2  0
 17 18  1  0
 18 19  2  0
  2 20  1  0
 20 21  2  0
 21 22  1  0
 22 23  2  0
 23 24  1  0
 24 25  1  0
 25 26  1  0
 26 27  1  0
 27 28  1  0
 28 29  1  0
 23 30  1  0
 30 31  2  0
 19 10  1  0
 31 20  1  0
 18 13  1  0
 29 25  1  0
  1 32  1  0
  1 33  1  0
  1 34  1  0
  2 35  1  6
  3 36  1  0
  6 37  1  0
  6 38  1  0
  7 39  1  0
 11 40  1  0
 12 41  1  0
 14 42  1  0
 15 43  1  0
 16 44  1  0
 17 45  1  0
 21 46  1  0
 22 47  1  0
 25 48  1  0
 26 49  1  0
 26 50  1  0
 27 51  1  0
 27 52  1  0
 28 53  1  0
 28 54  1  0
 29 55  1  0
 29 56  1  0
 30 57  1  0
 31 58  1  0
M  END
>  <smiles>  (24) 
CC(NC(=O)CNC(=O)c1ccc2ccccc2n1)c1ccc(OC2CCCC2)cc1

>  <score_type>  (24) 
oracle

>  <origin>  (24) 
autodockgpu

>  <m_score__min__energy>  (24) 
-9.2300000000000004

>  <m_primary>  (24) 
energy

>  <rmsd>  (24) 
5.192560446712739

>  <m_score__min__rmsd>  (24) 
5.192560446712739

>  <meeko>  (24) 
{"free_energy": -9.04, "intermolecular_energy": -11.13, "internal_energy": -2.32, "cluster_size": 40, "cluster_id": 1, "rank_in_cluster": 6}

>  <energy>  (24) 
-8.59

>  <cluster_rmsd>  (24) 
1.08

>  <cluster>  (24) 
1

$$$$

     RDKit          3D

 58 61  0  0  0  0  0  0  0  0999 V2000
  135.4820   74.7750  222.9590 C   0  0  0  0  0  0  0  0  0  0  0  0
  136.5270   74.9540  221.9150 C   0  0  2  0  0  0  0  0  0  0  0  0
  137.3950   73.7930  221.8810 N   0  0  0  0  0  0  0  0  0  0  0  0
  137.7790   73.2150  220.6490 C   0  0  0  0  0  0  0  0  0  0  0  0
  137.3340   73.7660  219.6030 O   0  0  0  0  0  0  0  0  0  0  0  0
  138.6420   72.0450  220.4870 C   0  0  0  0  0  0  0  0  0  0  0  0
  138.9870   71.3610  221.7080 N   0  0  0  0  0  0  0  0  0  0  0  0
  139.6310   72.0280  222.7880 C   0  0  0  0  0  0  0  0  0  0  0  0
  139.9320   73.2710  222.7330 O   0  0  0  0  0  0  0  0  0  0  0  0
  139.9730   71.2960  224.0090 C   0  0  0  0  0  0  0  0  0  0  0  0
  140.7450   71.8900  224.9940 C   0  0  0  0  0  0  0  0  0  0  0  0
  141.0930   71.2440  226.1590 C   0  0  0  0  0  0  0  0  0  0  0  0
  140.6620   69.9420  226.3740 C   0  0  0  0  0  0  0  0  0  0  0  0
  141.0190   69.3250  227.5370 C   0  0  0  0  0  0  0  0  0  0  0  0
  140.5820   68.0140  227.7470 C   0  0  0  0  0  0  0  0  0  0  0  0
  139.8040   67.3890  226.7750 C   0  0  0  0  0  0  0  0  0  0  0  0
  139.4680   68.0670  225.6060 C   0  0  0  0  0  0  0  0  0  0  0  0
  139.8950   69.3670  225.3840 C   0  0  0  0  0  0  0  0  0  0  0  0
  139.5690   70.0360  224.2420 N   0  0  0  0  0  0  0  0  0  0  0  0
  137.4030   76.1360  222.1140 C   0  0  0  0  0  0  0  0  0  0  0  0
  138.7400   75.9580  222.3250 C   0  0  0  0  0  0  0  0  0  0  0  0
  139.6130   77.0080  222.5170 C   0  0  0  0  0  0  0  0  0  0  0  0
  139.1620   78.3080  222.5050 C   0  0  0  0  0  0  0  0  0  0  0  0
  139.9270   79.4210  222.6820 O   0  0  0  0  0  0  0  0  0  0  0  0
  140.7760   79.6650  223.7640 C   0  0  0  0  0  0  0  0  0  0  0  0
  141.1940   81.1410  223.8210 C   0  0  0  0  0  0  0  0  0  0  0  0
  142.7060   81.1350  223.7380 C   0  0  0  0  0  0  0  0  0  0  0  0
  142.9100   79.9430  222.7980 C   0  0  0  0  0  0  0  0  0  0  0  0
  142.0610   78.8910  223.4830 C   0  0  0  0  0  0  0  0  0  0  0  0
  137.7920   78.5100  222.2890 C   0  0  0  0  0  0  0  0  0  0  0  0
  136.9310   77.4370  222.0970 C   0  0  0  0  0  0  0  0  0  0  0  0
  135.9417   74.8537  223.9552 H   0  0  0  0  0  0  0  0  0  0  0  0
  134.7142   75.5547  222.8468 H   0  0  0  0  0  0  0  0  0  0  0  0
  135.0175   73.7842  222.8468 H   0  0  0  0  0  0  0  0  0  0  0  0
  135.9667   75.0978  220.9794 H   0  0  0  0  0  0  0  0  0  0  0  0
  137.7350   73.4000  222.7790 H   0  0  0  0  0  0  0  0  0  0  0  0
  138.1249   71.3294  219.8309 H   0  0  0  0  0  0  0  0  0  0  0  0
  139.5884   72.4201  220.0703 H   0  0  0  0  0  0  0  0  0  0  0  0
  138.7810   70.3350  221.8670 H   0  0  0  0  0  0  0  0  0  0  0  0
  141.0947   72.9213  224.8388 H   0  0  0  0  0  0  0  0  0  0  0  0
  141.7080   71.7558  226.9139 H   0  0  0  0  0  0  0  0  0  0  0  0
  141.6329   69.8441  228.2878 H   0  0  0  0  0  0  0  0  0  0  0  0
  140.8499   67.4808  228.6711 H   0  0  0  0  0  0  0  0  0  0  0  0
  139.4544   66.3578  226.9312 H   0  0  0  0  0  0  0  0  0  0  0  0
  138.8534   67.5625  224.8459 H   0  0  0  0  0  0  0  0  0  0  0  0
  139.1381   74.9327  222.3426 H   0  0  0  0  0  0  0  0  0  0  0  0
  140.6814   76.8042  222.6815 H   0  0  0  0  0  0  0  0  0  0  0  0
  140.2640   79.3823  224.6957 H   0  0  0  0  0  0  0  0  0  0  0  0
  140.7644   81.6955  222.9737 H   0  0  0  0  0  0  0  0  0  0  0  0
  140.8369   81.6319  224.7384 H   0  0  0  0  0  0  0  0  0  0  0  0
  143.0958   82.0684  223.3058 H   0  0  0  0  0  0  0  0  0  0  0  0
  143.2250   81.0596  224.7049 H   0  0  0  0  0  0  0  0  0  0  0  0
  142.5444   80.1605  221.7836 H   0  0  0  0  0  0  0  0  0  0  0  0
  143.9612   79.6543  222.6509 H   0  0  0  0  0  0  0  0  0  0  0  0
  141.8752   78.0323  222.8211 H   0  0  0  0  0  0  0  0  0  0  0  0
  142.5260   78.4569  224.3804 H   0  0  0  0  0  0  0  0  0  0  0  0
  137.3922   79.5346  222.2712 H   0  0  0  0  0  0  0  0  0  0  0  0
  135.8600   77.6237  221.9292 H   0  0  0  0  0  0  0  0  0  0  0  0
  1  2  1  0
  2  3  1  0
  3  4  1  0
  4  5  2  0
  4  6  1  0
  6  7  1  0
  7  8  1  0
  8  9  2  0
  8 10  1  0
 10 11  2  0
 11 12  1  0
 12 13  2  0
 13 14  1  0
 14 15  2  0
 15 16  1  0
 16 17  2  0
 17 18  1  0
 18 19  2  0
  2 20  1  0
 20 21  2  0
 21 22  1  0
 22 23  2  0
 23 24  1  0
 24 25  1  0
 25 26  1  0
 26 27  1  0
 27 28  1  0
 28 29  1  0
 23 30  1  0
 30 31  2  0
 19 10  1  0
 31 20  1  0
 18 13  1  0
 29 25  1  0
  1 32  1  0
  1 33  1  0
  1 34  1  0
  2 35  1  6
  3 36  1  0
  6 37  1  0
  6 38  1  0
  7 39  1  0
 11 40  1  0
 12 41  1  0
 14 42  1  0
 15 43  1  0
 16 44  1  0
 17 45  1  0
 21 46  1  0
 22 47  1  0
 25 48  1  0
 26 49  1  0
 26 50  1  0
 27 51  1  0
 27 52  1  0
 28 53  1  0
 28 54  1  0
 29 55  1  0
 29 56  1  0
 30 57  1  0
 31 58  1  0
M  END
>  <smiles>  (25) 
CC(NC(=O)CNC(=O)c1ccc2ccccc2n1)c1ccc(OC2CCCC2)cc1

>  <score_type>  (25) 
oracle

>  <origin>  (25) 
autodockgpu

>  <m_score__min__energy>  (25) 
-9.2300000000000004

>  <m_primary>  (25) 
energy

>  <rmsd>  (25) 
5.576981713576564

>  <m_score__min__rmsd>  (25) 
5.576981713576564

>  <meeko>  (25) 
{"free_energy": -8.59, "intermolecular_energy": -10.68, "internal_energy": -2.33, "cluster_size": 40, "cluster_id": 1, "rank_in_cluster": 25}

>  <energy>  (25) 
-8.59

>  <cluster_rmsd>  (25) 
1.2

>  <cluster>  (25) 
1

$$$$

     RDKit          3D

 58 61  0  0  0  0  0  0  0  0999 V2000
  136.4140   75.7490  223.4010 C   0  0  0  0  0  0  0  0  0  0  0  0
  137.1170   75.4890  222.1150 C   0  0  2  0  0  0  0  0  0  0  0  0
  137.6780   74.1530  222.1190 N   0  0  0  0  0  0  0  0  0  0  0  0
  137.6290   73.3450  220.9600 C   0  0  0  0  0  0  0  0  0  0  0  0
  137.0840   73.8540  219.9400 O   0  0  0  0  0  0  0  0  0  0  0  0
  138.1530   71.9850  220.8430 C   0  0  0  0  0  0  0  0  0  0  0  0
  138.5320   71.3630  222.0870 N   0  0  0  0  0  0  0  0  0  0  0  0
  139.5180   71.9320  222.9420 C   0  0  0  0  0  0  0  0  0  0  0  0
  140.1140   73.0270  222.6550 O   0  0  0  0  0  0  0  0  0  0  0  0
  139.8820   71.2650  224.1940 C   0  0  0  0  0  0  0  0  0  0  0  0
  140.7090   71.8910  225.1120 C   0  0  0  0  0  0  0  0  0  0  0  0
  141.0810   71.3070  226.3020 C   0  0  0  0  0  0  0  0  0  0  0  0
  140.6160   70.0360  226.6140 C   0  0  0  0  0  0  0  0  0  0  0  0
  140.9970   69.4810  227.8000 C   0  0  0  0  0  0  0  0  0  0  0  0
  140.5260   68.2010  228.1070 C   0  0  0  0  0  0  0  0  0  0  0  0
  139.6920   67.5440  227.2050 C   0  0  0  0  0  0  0  0  0  0  0  0
  139.3340   68.1600  226.0090 C   0  0  0  0  0  0  0  0  0  0  0  0
  139.7940   69.4280  225.6900 C   0  0  0  0  0  0  0  0  0  0  0  0
  139.4470   70.0360  224.5210 N   0  0  0  0  0  0  0  0  0  0  0  0
  138.2360   76.4200  221.8250 C   0  0  0  0  0  0  0  0  0  0  0  0
  139.5110   76.0730  222.1680 C   0  0  0  0  0  0  0  0  0  0  0  0
  140.5980   76.8870  221.9300 C   0  0  0  0  0  0  0  0  0  0  0  0
  140.4390   78.1110  221.3220 C   0  0  0  0  0  0  0  0  0  0  0  0
  141.4340   78.9970  221.0360 O   0  0  0  0  0  0  0  0  0  0  0  0
  142.2390   79.6520  221.9720 C   0  0  0  0  0  0  0  0  0  0  0  0
  141.6400   79.5600  223.3810 C   0  0  0  0  0  0  0  0  0  0  0  0
  141.4370   80.9930  223.8270 C   0  0  0  0  0  0  0  0  0  0  0  0
  141.0650   81.6320  222.4870 C   0  0  0  0  0  0  0  0  0  0  0  0
  142.1960   81.1340  221.6090 C   0  0  0  0  0  0  0  0  0  0  0  0
  139.1370   78.4850  220.9620 C   0  0  0  0  0  0  0  0  0  0  0  0
  138.0570   77.6490  221.2120 C   0  0  0  0  0  0  0  0  0  0  0  0
  137.0812   75.5022  224.2400 H   0  0  0  0  0  0  0  0  0  0  0  0
  136.1322   76.8108  223.4567 H   0  0  0  0  0  0  0  0  0  0  0  0
  135.5091   75.1261  223.4567 H   0  0  0  0  0  0  0  0  0  0  0  0
  136.3468   75.6273  221.3419 H   0  0  0  0  0  0  0  0  0  0  0  0
  138.1230   73.8030  222.9900 H   0  0  0  0  0  0  0  0  0  0  0  0
  137.3783   71.3613  220.3731 H   0  0  0  0  0  0  0  0  0  0  0  0
  139.0750   72.0638  220.2483 H   0  0  0  0  0  0  0  0  0  0  0  0
  138.1030   70.4580  222.4290 H   0  0  0  0  0  0  0  0  0  0  0  0
  141.0849   72.8985  224.8802 H   0  0  0  0  0  0  0  0  0  0  0  0
  141.7411   71.8427  227.0000 H   0  0  0  0  0  0  0  0  0  0  0  0
  141.6551   70.0241  228.4942 H   0  0  0  0  0  0  0  0  0  0  0  0
  140.8115   67.7168  229.0526 H   0  0  0  0  0  0  0  0  0  0  0  0
  139.3158   66.5370  227.4382 H   0  0  0  0  0  0  0  0  0  0  0  0
  138.6746   67.6313  225.3049 H   0  0  0  0  0  0  0  0  0  0  0  0
  139.6784   75.1013  222.6557 H   0  0  0  0  0  0  0  0  0  0  0  0
  141.6029   76.5544  222.2293 H   0  0  0  0  0  0  0  0  0  0  0  0
  143.2441   79.2051  221.9608 H   0  0  0  0  0  0  0  0  0  0  0  0
  140.6792   79.0250  223.3564 H   0  0  0  0  0  0  0  0  0  0  0  0
  142.2964   79.0069  224.0689 H   0  0  0  0  0  0  0  0  0  0  0  0
  140.6236   81.0814  224.5623 H   0  0  0  0  0  0  0  0  0  0  0  0
  142.2989   81.4485  224.3366 H   0  0  0  0  0  0  0  0  0  0  0  0
  140.0877   81.2778  222.1274 H   0  0  0  0  0  0  0  0  0  0  0  0
  140.9619   82.7267  222.5183 H   0  0  0  0  0  0  0  0  0  0  0  0
  141.9696   81.2793  220.5424 H   0  0  0  0  0  0  0  0  0  0  0  0
  143.1489   81.6604  221.7664 H   0  0  0  0  0  0  0  0  0  0  0  0
  138.9682   79.4561  220.4737 H   0  0  0  0  0  0  0  0  0  0  0  0
  137.0455   77.9671  220.9193 H   0  0  0  0  0  0  0  0  0  0  0  0
  1  2  1  0
  2  3  1  0
  3  4  1  0
  4  5  2  0
  4  6  1  0
  6  7  1  0
  7  8  1  0
  8  9  2  0
  8 10  1  0
 10 11  2  0
 11 12  1  0
 12 13  2  0
 13 14  1  0
 14 15  2  0
 15 16  1  0
 16 17  2  0
 17 18  1  0
 18 19  2  0
  2 20  1  0
 20 21  2  0
 21 22  1  0
 22 23  2  0
 23 24  1  0
 24 25  1  0
 25 26  1  0
 26 27  1  0
 27 28  1  0
 28 29  1  0
 23 30  1  0
 30 31  2  0
 19 10  1  0
 31 20  1  0
 18 13  1  0
 29 25  1  0
  1 32  1  0
  1 33  1  0
  1 34  1  0
  2 35  1  6
  3 36  1  0
  6 37  1  0
  6 38  1  0
  7 39  1  0
 11 40  1  0
 12 41  1  0
 14 42  1  0
 15 43  1  0
 16 44  1  0
 17 45  1  0
 21 46  1  0
 22 47  1  0
 25 48  1  0
 26 49  1  0
 26 50  1  0
 27 51  1  0
 27 52  1  0
 28 53  1  0
 28 54  1  0
 29 55  1  0
 29 56  1  0
 30 57  1  0
 31 58  1  0
M  END
>  <smiles>  (26) 
CC(NC(=O)CNC(=O)c1ccc2ccccc2n1)c1ccc(OC2CCCC2)cc1

>  <score_type>  (26) 
oracle

>  <origin>  (26) 
autodockgpu

>  <m_score__min__energy>  (26) 
-9.2300000000000004

>  <m_primary>  (26) 
energy

>  <rmsd>  (26) 
5.2568310945266

>  <m_score__min__rmsd>  (26) 
5.2568310945266

>  <meeko>  (26) 
{"free_energy": -8.39, "intermolecular_energy": -10.48, "internal_energy": -2.51, "cluster_size": 40, "cluster_id": 1, "rank_in_cluster": 35}

>  <energy>  (26) 
-8.59

>  <cluster_rmsd>  (26) 
1.04

>  <cluster>  (26) 
1

$$$$

     RDKit          3D

 58 61  0  0  0  0  0  0  0  0999 V2000
  142.8160   74.2020  218.3630 C   0  0  0  0  0  0  0  0  0  0  0  0
  142.6860   74.0990  219.8420 C   0  0  2  0  0  0  0  0  0  0  0  0
  141.8850   72.9420  220.1890 N   0  0  0  0  0  0  0  0  0  0  0  0
  140.5000   72.9110  219.9070 C   0  0  0  0  0  0  0  0  0  0  0  0
  140.0160   73.9310  219.3400 O   0  0  0  0  0  0  0  0  0  0  0  0
  139.5910   71.8070  220.2130 C   0  0  0  0  0  0  0  0  0  0  0  0
  139.8050   71.1670  221.4860 N   0  0  0  0  0  0  0  0  0  0  0  0
  139.8400   71.9060  222.7020 C   0  0  0  0  0  0  0  0  0  0  0  0
  139.6770   73.1750  222.7290 O   0  0  0  0  0  0  0  0  0  0  0  0
  140.0690   71.2210  223.9760 C   0  0  0  0  0  0  0  0  0  0  0  0
  140.6960   71.8740  225.0250 C   0  0  0  0  0  0  0  0  0  0  0  0
  140.9350   71.2740  226.2410 C   0  0  0  0  0  0  0  0  0  0  0  0
  140.5360   69.9590  226.4440 C   0  0  0  0  0  0  0  0  0  0  0  0
  140.7830   69.3880  227.6580 C   0  0  0  0  0  0  0  0  0  0  0  0
  140.3790   68.0640  227.8560 C   0  0  0  0  0  0  0  0  0  0  0  0
  139.7460   67.3810  226.8200 C   0  0  0  0  0  0  0  0  0  0  0  0
  139.5190   68.0140  225.6010 C   0  0  0  0  0  0  0  0  0  0  0  0
  139.9140   69.3260  225.3900 C   0  0  0  0  0  0  0  0  0  0  0  0
  139.6940   69.9500  224.1990 N   0  0  0  0  0  0  0  0  0  0  0  0
  142.0440   75.2710  220.4880 C   0  0  0  0  0  0  0  0  0  0  0  0
  141.3960   75.1150  221.6790 C   0  0  0  0  0  0  0  0  0  0  0  0
  140.7770   76.1560  222.3370 C   0  0  0  0  0  0  0  0  0  0  0  0
  140.7880   77.4260  221.8070 C   0  0  0  0  0  0  0  0  0  0  0  0
  140.2130   78.5290  222.3640 O   0  0  0  0  0  0  0  0  0  0  0  0
  140.6310   79.1670  223.5350 C   0  0  0  0  0  0  0  0  0  0  0  0
  140.5200   80.6920  223.4070 C   0  0  0  0  0  0  0  0  0  0  0  0
  141.9210   81.2180  223.6380 C   0  0  0  0  0  0  0  0  0  0  0  0
  142.7320   80.0920  222.9930 C   0  0  0  0  0  0  0  0  0  0  0  0
  142.1240   78.8790  223.6690 C   0  0  0  0  0  0  0  0  0  0  0  0
  141.4490   77.6070  220.5850 C   0  0  0  0  0  0  0  0  0  0  0  0
  142.0660   76.5420  219.9410 C   0  0  0  0  0  0  0  0  0  0  0  0
  143.6558   74.8675  218.1142 H   0  0  0  0  0  0  0  0  0  0  0  0
  143.0019   73.2034  217.9408 H   0  0  0  0  0  0  0  0  0  0  0  0
  141.8863   74.6113  217.9408 H   0  0  0  0  0  0  0  0  0  0  0  0
  143.7204   74.0292  220.2096 H   0  0  0  0  0  0  0  0  0  0  0  0
  142.3520   72.1320  220.6420 H   0  0  0  0  0  0  0  0  0  0  0  0
  138.5634   72.1991  220.1984 H   0  0  0  0  0  0  0  0  0  0  0  0
  139.7804   71.0373  219.4503 H   0  0  0  0  0  0  0  0  0  0  0  0
  139.9460   70.1230  221.5860 H   0  0  0  0  0  0  0  0  0  0  0  0
  141.0165   72.9162  224.8801 H   0  0  0  0  0  0  0  0  0  0  0  0
  141.4378   71.8314  227.0451 H   0  0  0  0  0  0  0  0  0  0  0  0
  141.2852   69.9524  228.4576 H   0  0  0  0  0  0  0  0  0  0  0  0
  140.5593   67.5667  228.8205 H   0  0  0  0  0  0  0  0  0  0  0  0
  139.4248   66.3391  226.9654 H   0  0  0  0  0  0  0  0  0  0  0  0
  139.0176   67.4636  224.7913 H   0  0  0  0  0  0  0  0  0  0  0  0
  141.3664   74.1140  222.1340 H   0  0  0  0  0  0  0  0  0  0  0  0
  140.2693   75.9699  223.2949 H   0  0  0  0  0  0  0  0  0  0  0  0
  140.0178   78.8146  224.3775 H   0  0  0  0  0  0  0  0  0  0  0  0
  140.1655   80.9692  222.4032 H   0  0  0  0  0  0  0  0  0  0  0  0
  139.8017   81.1117  224.1266 H   0  0  0  0  0  0  0  0  0  0  0  0
  142.0847   82.1812  223.1327 H   0  0  0  0  0  0  0  0  0  0  0  0
  142.1714   81.4289  224.6882 H   0  0  0  0  0  0  0  0  0  0  0  0
  142.5875   80.0625  221.9029 H   0  0  0  0  0  0  0  0  0  0  0  0
  143.8207   80.1854  223.1196 H   0  0  0  0  0  0  0  0  0  0  0  0
  142.4014   77.9495  223.1502 H   0  0  0  0  0  0  0  0  0  0  0  0
  142.4591   78.7306  224.7061 H   0  0  0  0  0  0  0  0  0  0  0  0
  141.4799   78.6074  220.1287 H   0  0  0  0  0  0  0  0  0  0  0  0
  142.5792   76.7113  218.9829 H   0  0  0  0  0  0  0  0  0  0  0  0
  1  2  1  0
  2  3  1  0
  3  4  1  0
  4  5  2  0
  4  6  1  0
  6  7  1  0
  7  8  1  0
  8  9  2  0
  8 10  1  0
 10 11  2  0
 11 12  1  0
 12 13  2  0
 13 14  1  0
 14 15  2  0
 15 16  1  0
 16 17  2  0
 17 18  1  0
 18 19  2  0
  2 20  1  0
 20 21  2  0
 21 22  1  0
 22 23  2  0
 23 24  1  0
 24 25  1  0
 25 26  1  0
 26 27  1  0
 27 28  1  0
 28 29  1  0
 23 30  1  0
 30 31  2  0
 19 10  1  0
 31 20  1  0
 18 13  1  0
 29 25  1  0
  1 32  1  0
  1 33  1  0
  1 34  1  0
  2 35  1  1
  3 36  1  0
  6 37  1  0
  6 38  1  0
  7 39  1  0
 11 40  1  0
 12 41  1  0
 14 42  1  0
 15 43  1  0
 16 44  1  0
 17 45  1  0
 21 46  1  0
 22 47  1  0
 25 48  1  0
 26 49  1  0
 26 50  1  0
 27 51  1  0
 27 52  1  0
 28 53  1  0
 28 54  1  0
 29 55  1  0
 29 56  1  0
 30 57  1  0
 31 58  1  0
M  END
>  <smiles>  (27) 
CC(NC(=O)CNC(=O)c1ccc2ccccc2n1)c1ccc(OC2CCCC2)cc1

>  <score_type>  (27) 
oracle

>  <origin>  (27) 
autodockgpu

>  <m_score__min__energy>  (27) 
-9.2300000000000004

>  <m_primary>  (27) 
energy

>  <rmsd>  (27) 
5.288437928800708

>  <m_score__min__rmsd>  (27) 
5.288437928800708

>  <meeko>  (27) 
{"free_energy": -8.45, "intermolecular_energy": -10.54, "internal_energy": -1.6, "cluster_size": 6, "cluster_id": 2, "rank_in_cluster": 4}

>  <energy>  (27) 
-8.52

>  <cluster_rmsd>  (27) 
0.85

>  <cluster>  (27) 
1

$$$$

     RDKit          3D

 58 61  0  0  0  0  0  0  0  0999 V2000
  136.6290   75.9600  223.1860 C   0  0  0  0  0  0  0  0  0  0  0  0
  137.4570   75.6530  221.9870 C   0  0  2  0  0  0  0  0  0  0  0  0
  137.8880   74.2700  222.0250 N   0  0  0  0  0  0  0  0  0  0  0  0
  137.6890   73.4210  220.9120 C   0  0  0  0  0  0  0  0  0  0  0  0
  137.1310   73.9350  219.9020 O   0  0  0  0  0  0  0  0  0  0  0  0
  138.0750   72.0120  220.8330 C   0  0  0  0  0  0  0  0  0  0  0  0
  138.4350   71.4010  222.0880 N   0  0  0  0  0  0  0  0  0  0  0  0
  139.5100   71.8920  222.8820 C   0  0  0  0  0  0  0  0  0  0  0  0
  140.2080   72.9040  222.5270 O   0  0  0  0  0  0  0  0  0  0  0  0
  139.8500   71.2380  224.1480 C   0  0  0  0  0  0  0  0  0  0  0  0
  140.6890   71.8590  225.0580 C   0  0  0  0  0  0  0  0  0  0  0  0
  141.0400   71.2860  226.2610 C   0  0  0  0  0  0  0  0  0  0  0  0
  140.5390   70.0340  226.5930 C   0  0  0  0  0  0  0  0  0  0  0  0
  140.9000   69.4900  227.7900 C   0  0  0  0  0  0  0  0  0  0  0  0
  140.3930   68.2290  228.1180 C   0  0  0  0  0  0  0  0  0  0  0  0
  139.5450   67.5790  227.2240 C   0  0  0  0  0  0  0  0  0  0  0  0
  139.2100   68.1830  226.0150 C   0  0  0  0  0  0  0  0  0  0  0  0
  139.7050   69.4320  225.6760 C   0  0  0  0  0  0  0  0  0  0  0  0
  139.3800   70.0280  224.4940 N   0  0  0  0  0  0  0  0  0  0  0  0
  138.6830   76.4790  221.8560 C   0  0  0  0  0  0  0  0  0  0  0  0
  139.8510   76.0480  222.4140 C   0  0  0  0  0  0  0  0  0  0  0  0
  141.0280   76.7620  222.3340 C   0  0  0  0  0  0  0  0  0  0  0  0
  141.0740   77.9670  221.6710 C   0  0  0  0  0  0  0  0  0  0  0  0
  142.1740   78.7580  221.5260 O   0  0  0  0  0  0  0  0  0  0  0  0
  142.5410   79.8110  222.3680 C   0  0  0  0  0  0  0  0  0  0  0  0
  141.7830   79.7460  223.7010 C   0  0  0  0  0  0  0  0  0  0  0  0
  141.0340   81.0590  223.8020 C   0  0  0  0  0  0  0  0  0  0  0  0
  140.6960   81.2800  222.3260 C   0  0  0  0  0  0  0  0  0  0  0  0
  142.0580   81.0900  221.6890 C   0  0  0  0  0  0  0  0  0  0  0  0
  139.8840   78.4260  221.0910 C   0  0  0  0  0  0  0  0  0  0  0  0
  138.7100   77.6900  221.1850 C   0  0  0  0  0  0  0  0  0  0  0  0
  137.2081   75.7453  224.0963 H   0  0  0  0  0  0  0  0  0  0  0  0
  136.3459   77.0229  223.1737 H   0  0  0  0  0  0  0  0  0  0  0  0
  135.7214   75.3386  223.1737 H   0  0  0  0  0  0  0  0  0  0  0  0
  136.8030   75.8739  221.1306 H   0  0  0  0  0  0  0  0  0  0  0  0
  138.3530   73.9170  222.8840 H   0  0  0  0  0  0  0  0  0  0  0  0
  137.2278   71.4505  220.4122 H   0  0  0  0  0  0  0  0  0  0  0  0
  138.9794   71.9788  220.2078 H   0  0  0  0  0  0  0  0  0  0  0  0
  137.9240   70.5630  222.4840 H   0  0  0  0  0  0  0  0  0  0  0  0
  141.0924   72.8519  224.8100 H   0  0  0  0  0  0  0  0  0  0  0  0
  141.7115   71.8159  226.9527 H   0  0  0  0  0  0  0  0  0  0  0  0
  141.5702   70.0272  228.4772 H   0  0  0  0  0  0  0  0  0  0  0  0
  140.6613   67.7544  229.0734 H   0  0  0  0  0  0  0  0  0  0  0  0
  139.1396   66.5874  227.4736 H   0  0  0  0  0  0  0  0  0  0  0  0
  138.5406   67.6594  225.3167 H   0  0  0  0  0  0  0  0  0  0  0  0
  139.8540   75.0883  222.9516 H   0  0  0  0  0  0  0  0  0  0  0  0
  141.9392   76.3644  222.8048 H   0  0  0  0  0  0  0  0  0  0  0  0
  143.6252   79.7686  222.5488 H   0  0  0  0  0  0  0  0  0  0  0  0
  141.0795   78.9004  223.7029 H   0  0  0  0  0  0  0  0  0  0  0  0
  142.4638   79.5968  224.5520 H   0  0  0  0  0  0  0  0  0  0  0  0
  140.1285   80.9670  224.4197 H   0  0  0  0  0  0  0  0  0  0  0  0
  141.5925   81.8778  224.2792 H   0  0  0  0  0  0  0  0  0  0  0  0
  139.9717   80.5368  221.9613 H   0  0  0  0  0  0  0  0  0  0  0  0
  140.2234   82.2491  222.1080 H   0  0  0  0  0  0  0  0  0  0  0  0
  141.9767   80.9597  220.5998 H   0  0  0  0  0  0  0  0  0  0  0  0
  142.7350   81.9473  221.8180 H   0  0  0  0  0  0  0  0  0  0  0  0
  139.8795   79.3851  220.5523 H   0  0  0  0  0  0  0  0  0  0  0  0
  137.7898   78.0740  220.7205 H   0  0  0  0  0  0  0  0  0  0  0  0
  1  2  1  0
  2  3  1  0
  3  4  1  0
  4  5  2  0
  4  6  1  0
  6  7  1  0
  7  8  1  0
  8  9  2  0
  8 10  1  0
 10 11  2  0
 11 12  1  0
 12 13  2  0
 13 14  1  0
 14 15  2  0
 15 16  1  0
 16 17  2  0
 17 18  1  0
 18 19  2  0
  2 20  1  0
 20 21  2  0
 21 22  1  0
 22 23  2  0
 23 24  1  0
 24 25  1  0
 25 26  1  0
 26 27  1  0
 27 28  1  0
 28 29  1  0
 23 30  1  0
 30 31  2  0
 19 10  1  0
 31 20  1  0
 18 13  1  0
 29 25  1  0
  1 32  1  0
  1 33  1  0
  1 34  1  0
  2 35  1  6
  3 36  1  0
  6 37  1  0
  6 38  1  0
  7 39  1  0
 11 40  1  0
 12 41  1  0
 14 42  1  0
 15 43  1  0
 16 44  1  0
 17 45  1  0
 21 46  1  0
 22 47  1  0
 25 48  1  0
 26 49  1  0
 26 50  1  0
 27 51  1  0
 27 52  1  0
 28 53  1  0
 28 54  1  0
 29 55  1  0
 29 56  1  0
 30 57  1  0
 31 58  1  0
M  END
>  <smiles>  (28) 
CC(NC(=O)CNC(=O)c1ccc2ccccc2n1)c1ccc(OC2CCCC2)cc1

>  <score_type>  (28) 
oracle

>  <origin>  (28) 
autodockgpu

>  <m_score__min__energy>  (28) 
-9.2300000000000004

>  <m_primary>  (28) 
energy

>  <rmsd>  (28) 
5.205006471821873

>  <m_score__min__rmsd>  (28) 
5.205006471821873

>  <meeko>  (28) 
{"free_energy": -8.49, "intermolecular_energy": -10.58, "internal_energy": -2.51, "cluster_size": 40, "cluster_id": 1, "rank_in_cluster": 28}

>  <energy>  (28) 
-8.49

>  <cluster_rmsd>  (28) 
1.09

>  <cluster>  (28) 
1

$$$$

     RDKit          3D

 58 61  0  0  0  0  0  0  0  0999 V2000
  136.7880   75.9180  223.1500 C   0  0  0  0  0  0  0  0  0  0  0  0
  137.5740   75.6370  221.9180 C   0  0  2  0  0  0  0  0  0  0  0  0
  138.0950   74.2850  221.9610 N   0  0  0  0  0  0  0  0  0  0  0  0
  137.9330   73.4130  220.8600 C   0  0  0  0  0  0  0  0  0  0  0  0
  137.3250   73.8790  219.8550 O   0  0  0  0  0  0  0  0  0  0  0  0
  138.4080   72.0310  220.7880 C   0  0  0  0  0  0  0  0  0  0  0  0
  138.6930   71.4110  222.0570 N   0  0  0  0  0  0  0  0  0  0  0  0
  139.7080   71.9060  222.9240 C   0  0  0  0  0  0  0  0  0  0  0  0
  140.4150   72.9290  222.6250 O   0  0  0  0  0  0  0  0  0  0  0  0
  139.9740   71.2430  224.2020 C   0  0  0  0  0  0  0  0  0  0  0  0
  140.7250   71.8730  225.1800 C   0  0  0  0  0  0  0  0  0  0  0  0
  141.0030   71.2930  226.3980 C   0  0  0  0  0  0  0  0  0  0  0  0
  140.5170   70.0220  226.6760 C   0  0  0  0  0  0  0  0  0  0  0  0
  140.8050   69.4700  227.8890 C   0  0  0  0  0  0  0  0  0  0  0  0
  140.3140   68.1890  228.1620 C   0  0  0  0  0  0  0  0  0  0  0  0
  139.5550   67.5290  227.1980 C   0  0  0  0  0  0  0  0  0  0  0  0
  139.2910   68.1410  225.9760 C   0  0  0  0  0  0  0  0  0  0  0  0
  139.7720   69.4090  225.6910 C   0  0  0  0  0  0  0  0  0  0  0  0
  139.5170   70.0140  224.4970 N   0  0  0  0  0  0  0  0  0  0  0  0
  138.7370   76.5360  221.7090 C   0  0  0  0  0  0  0  0  0  0  0  0
  138.6330   77.5840  220.8410 C   0  0  0  0  0  0  0  0  0  0  0  0
  139.6700   78.4590  220.5960 C   0  0  0  0  0  0  0  0  0  0  0  0
  140.8810   78.3060  221.2310 C   0  0  0  0  0  0  0  0  0  0  0  0
  141.9740   79.1040  221.0700 O   0  0  0  0  0  0  0  0  0  0  0  0
  142.1980   80.3240  221.7130 C   0  0  0  0  0  0  0  0  0  0  0  0
  143.2690   80.1900  222.8030 C   0  0  0  0  0  0  0  0  0  0  0  0
  142.5900   80.6130  224.0890 C   0  0  0  0  0  0  0  0  0  0  0  0
  141.1790   80.0810  223.8270 C   0  0  0  0  0  0  0  0  0  0  0  0
  140.9060   80.6610  222.4530 C   0  0  0  0  0  0  0  0  0  0  0  0
  141.0070   77.2350  222.1260 C   0  0  0  0  0  0  0  0  0  0  0  0
  139.9480   76.3670  222.3570 C   0  0  0  0  0  0  0  0  0  0  0  0
  137.4028   75.6982  224.0353 H   0  0  0  0  0  0  0  0  0  0  0  0
  136.4924   76.9775  223.1627 H   0  0  0  0  0  0  0  0  0  0  0  0
  135.8877   75.2860  223.1627 H   0  0  0  0  0  0  0  0  0  0  0  0
  136.8656   75.7965  221.0917 H   0  0  0  0  0  0  0  0  0  0  0  0
  138.5960   73.9720  222.8150 H   0  0  0  0  0  0  0  0  0  0  0  0
  137.6358   71.4321  220.2830 H   0  0  0  0  0  0  0  0  0  0  0  0
  139.3640   72.0658  220.2449 H   0  0  0  0  0  0  0  0  0  0  0  0
  138.1680   70.5630  222.4110 H   0  0  0  0  0  0  0  0  0  0  0  0
  141.1166   72.8804  224.9753 H   0  0  0  0  0  0  0  0  0  0  0  0
  141.6050   71.8320  227.1444 H   0  0  0  0  0  0  0  0  0  0  0  0
  141.4058   70.0160  228.6312 H   0  0  0  0  0  0  0  0  0  0  0  0
  140.5251   67.7075  229.1282 H   0  0  0  0  0  0  0  0  0  0  0  0
  139.1634   66.5217  227.4031 H   0  0  0  0  0  0  0  0  0  0  0  0
  138.6903   67.6090  225.2236 H   0  0  0  0  0  0  0  0  0  0  0  0
  137.6799   77.7374  220.3137 H   0  0  0  0  0  0  0  0  0  0  0  0
  139.5278   79.2872  219.8862 H   0  0  0  0  0  0  0  0  0  0  0  0
  142.5100   81.0722  220.9695 H   0  0  0  0  0  0  0  0  0  0  0  0
  143.6159   79.1487  222.8756 H   0  0  0  0  0  0  0  0  0  0  0  0
  144.1532   80.8071  222.5854 H   0  0  0  0  0  0  0  0  0  0  0  0
  143.0490   80.1387  224.9690 H   0  0  0  0  0  0  0  0  0  0  0  0
  142.6472   81.6884  224.3130 H   0  0  0  0  0  0  0  0  0  0  0  0
  141.1572   78.9813  223.8136 H   0  0  0  0  0  0  0  0  0  0  0  0
  140.4391   80.3573  224.5927 H   0  0  0  0  0  0  0  0  0  0  0  0
  140.0363   80.1809  221.9806 H   0  0  0  0  0  0  0  0  0  0  0  0
  140.6627   81.7337  222.4613 H   0  0  0  0  0  0  0  0  0  0  0  0
  141.9596   77.0795  222.6537 H   0  0  0  0  0  0  0  0  0  0  0  0
  140.0734   75.5340  223.0644 H   0  0  0  0  0  0  0  0  0  0  0  0
  1  2  1  0
  2  3  1  0
  3  4  1  0
  4  5  2  0
  4  6  1  0
  6  7  1  0
  7  8  1  0
  8  9  2  0
  8 10  1  0
 10 11  2  0
 11 12  1  0
 12 13  2  0
 13 14  1  0
 14 15  2  0
 15 16  1  0
 16 17  2  0
 17 18  1  0
 18 19  2  0
  2 20  1  0
 20 21  2  0
 21 22  1  0
 22 23  2  0
 23 24  1  0
 24 25  1  0
 25 26  1  0
 26 27  1  0
 27 28  1  0
 28 29  1  0
 23 30  1  0
 30 31  2  0
 19 10  1  0
 31 20  1  0
 18 13  1  0
 29 25  1  0
  1 32  1  0
  1 33  1  0
  1 34  1  0
  2 35  1  6
  3 36  1  0
  6 37  1  0
  6 38  1  0
  7 39  1  0
 11 40  1  0
 12 41  1  0
 14 42  1  0
 15 43  1  0
 16 44  1  0
 17 45  1  0
 21 46  1  0
 22 47  1  0
 25 48  1  0
 26 49  1  0
 26 50  1  0
 27 51  1  0
 27 52  1  0
 28 53  1  0
 28 54  1  0
 29 55  1  0
 29 56  1  0
 30 57  1  0
 31 58  1  0
M  END
>  <smiles>  (29) 
CC(NC(=O)CNC(=O)c1ccc2ccccc2n1)c1ccc(OC2CCCC2)cc1

>  <score_type>  (29) 
oracle

>  <origin>  (29) 
autodockgpu

>  <m_score__min__energy>  (29) 
-9.2300000000000004

>  <m_primary>  (29) 
energy

>  <rmsd>  (29) 
5.0350975101258175

>  <m_score__min__rmsd>  (29) 
5.0350975101258175

>  <meeko>  (29) 
{"free_energy": -8.67, "intermolecular_energy": -10.76, "internal_energy": -2.4, "cluster_size": 40, "cluster_id": 1, "rank_in_cluster": 21}

>  <energy>  (29) 
-8.49

>  <cluster_rmsd>  (29) 
1.23

>  <cluster>  (29) 
1

$$$$

     RDKit          3D

 58 61  0  0  0  0  0  0  0  0999 V2000
  136.4150   76.0090  223.0900 C   0  0  0  0  0  0  0  0  0  0  0  0
  137.5350   75.9920  222.1100 C   0  0  2  0  0  0  0  0  0  0  0  0
  138.0290   74.6390  221.9470 N   0  0  0  0  0  0  0  0  0  0  0  0
  138.2660   74.1070  220.6590 C   0  0  0  0  0  0  0  0  0  0  0  0
  138.0340   74.8710  219.6800 O   0  0  0  0  0  0  0  0  0  0  0  0
  138.7570   72.7600  220.3680 C   0  0  0  0  0  0  0  0  0  0  0  0
  138.8780   71.8890  221.5100 N   0  0  0  0  0  0  0  0  0  0  0  0
  139.6580   72.2440  222.6470 C   0  0  0  0  0  0  0  0  0  0  0  0
  140.2870   73.3570  222.7160 O   0  0  0  0  0  0  0  0  0  0  0  0
  139.7640   71.3290  223.7850 C   0  0  0  0  0  0  0  0  0  0  0  0
  139.2830   70.0330  223.6940 C   0  0  0  0  0  0  0  0  0  0  0  0
  139.3570   69.1350  224.7350 C   0  0  0  0  0  0  0  0  0  0  0  0
  139.9370   69.5260  225.9340 C   0  0  0  0  0  0  0  0  0  0  0  0
  140.0010   68.6170  226.9490 C   0  0  0  0  0  0  0  0  0  0  0  0
  140.5860   69.0170  228.1540 C   0  0  0  0  0  0  0  0  0  0  0  0
  141.0790   70.3140  228.2770 C   0  0  0  0  0  0  0  0  0  0  0  0
  140.9890   71.2000  227.2070 C   0  0  0  0  0  0  0  0  0  0  0  0
  140.4110   70.8180  226.0070 C   0  0  0  0  0  0  0  0  0  0  0  0
  140.3200   71.6810  224.9560 N   0  0  0  0  0  0  0  0  0  0  0  0
  138.7010   76.8280  222.4900 C   0  0  0  0  0  0  0  0  0  0  0  0
  138.4980   78.0670  223.0260 C   0  0  0  0  0  0  0  0  0  0  0  0
  139.5320   78.8980  223.4020 C   0  0  0  0  0  0  0  0  0  0  0  0
  140.8410   78.5040  223.2480 C   0  0  0  0  0  0  0  0  0  0  0  0
  141.9400   79.2370  223.5820 O   0  0  0  0  0  0  0  0  0  0  0  0
  142.4690   80.3000  222.8450 C   0  0  0  0  0  0  0  0  0  0  0  0
  141.7960   81.6270  223.2240 C   0  0  0  0  0  0  0  0  0  0  0  0
  141.1970   82.1550  221.9370 C   0  0  0  0  0  0  0  0  0  0  0  0
  140.7890   80.8350  221.2790 C   0  0  0  0  0  0  0  0  0  0  0  0
  142.0800   80.0490  221.3910 C   0  0  0  0  0  0  0  0  0  0  0  0
  141.0690   77.2350  222.7000 C   0  0  0  0  0  0  0  0  0  0  0  0
  140.0130   76.4150  222.3290 C   0  0  0  0  0  0  0  0  0  0  0  0
  136.8219   76.0028  224.1120 H   0  0  0  0  0  0  0  0  0  0  0  0
  135.8113   76.9164  222.9412 H   0  0  0  0  0  0  0  0  0  0  0  0
  135.7840   75.1203  222.9412 H   0  0  0  0  0  0  0  0  0  0  0  0
  137.1043   76.4052  221.1860 H   0  0  0  0  0  0  0  0  0  0  0  0
  138.2110   74.0700  222.7960 H   0  0  0  0  0  0  0  0  0  0  0  0
  138.0623   72.2916  219.6553 H   0  0  0  0  0  0  0  0  0  0  0  0
  139.7755   72.8862  219.9721 H   0  0  0  0  0  0  0  0  0  0  0  0
  138.3980   70.9470  221.5660 H   0  0  0  0  0  0  0  0  0  0  0  0
  138.8223   69.7075  222.7497 H   0  0  0  0  0  0  0  0  0  0  0  0
  138.9597   68.1160  224.6175 H   0  0  0  0  0  0  0  0  0  0  0  0
  139.6039   67.5989  226.8230 H   0  0  0  0  0  0  0  0  0  0  0  0
  140.6563   68.3141  228.9972 H   0  0  0  0  0  0  0  0  0  0  0  0
  141.5403   70.6387  229.2213 H   0  0  0  0  0  0  0  0  0  0  0  0
  141.3836   72.2210  227.3160 H   0  0  0  0  0  0  0  0  0  0  0  0
  137.4645   78.4176  223.1639 H   0  0  0  0  0  0  0  0  0  0  0  0
  139.3079   79.8864  223.8296 H   0  0  0  0  0  0  0  0  0  0  0  0
  143.5523   80.3615  223.0256 H   0  0  0  0  0  0  0  0  0  0  0  0
  141.0094   81.4592  223.9744 H   0  0  0  0  0  0  0  0  0  0  0  0
  142.5109   82.3375  223.6647 H   0  0  0  0  0  0  0  0  0  0  0  0
  140.3288   82.8036  222.1257 H   0  0  0  0  0  0  0  0  0  0  0  0
  141.8680   82.7865  221.3362 H   0  0  0  0  0  0  0  0  0  0  0  0
  139.9692   80.3466  221.8262 H   0  0  0  0  0  0  0  0  0  0  0  0
  140.4065   80.9375  220.2528 H   0  0  0  0  0  0  0  0  0  0  0  0
  141.9158   78.9784  221.1988 H   0  0  0  0  0  0  0  0  0  0  0  0
  142.8498   80.3483  220.6645 H   0  0  0  0  0  0  0  0  0  0  0  0
  142.1019   76.8830  222.5616 H   0  0  0  0  0  0  0  0  0  0  0  0
  140.2208   75.4232  221.9011 H   0  0  0  0  0  0  0  0  0  0  0  0
  1  2  1  0
  2  3  1  0
  3  4  1  0
  4  5  2  0
  4  6  1  0
  6  7  1  0
  7  8  1  0
  8  9  2  0
  8 10  1  0
 10 11  2  0
 11 12  1  0
 12 13  2  0
 13 14  1  0
 14 15  2  0
 15 16  1  0
 16 17  2  0
 17 18  1  0
 18 19  2  0
  2 20  1  0
 20 21  2  0
 21 22  1  0
 22 23  2  0
 23 24  1  0
 24 25  1  0
 25 26  1  0
 26 27  1  0
 27 28  1  0
 28 29  1  0
 23 30  1  0
 30 31  2  0
 19 10  1  0
 31 20  1  0
 18 13  1  0
 29 25  1  0
  1 32  1  0
  1 33  1  0
  1 34  1  0
  2 35  1  6
  3 36  1  0
  6 37  1  0
  6 38  1  0
  7 39  1  0
 11 40  1  0
 12 41  1  0
 14 42  1  0
 15 43  1  0
 16 44  1  0
 17 45  1  0
 21 46  1  0
 22 47  1  0
 25 48  1  0
 26 49  1  0
 26 50  1  0
 27 51  1  0
 27 52  1  0
 28 53  1  0
 28 54  1  0
 29 55  1  0
 29 56  1  0
 30 57  1  0
 31 58  1  0
M  END
>  <smiles>  (30) 
CC(NC(=O)CNC(=O)c1ccc2ccccc2n1)c1ccc(OC2CCCC2)cc1

>  <score_type>  (30) 
oracle

>  <origin>  (30) 
autodockgpu

>  <m_score__min__energy>  (30) 
-9.2300000000000004

>  <m_primary>  (30) 
energy

>  <rmsd>  (30) 
5.296283927591672

>  <m_score__min__rmsd>  (30) 
5.296283927591672

>  <meeko>  (30) 
{"free_energy": -9.23, "intermolecular_energy": -11.32, "internal_energy": -2.01, "cluster_size": 40, "cluster_id": 1, "rank_in_cluster": 1}

>  <energy>  (30) 
-8.49

>  <cluster_rmsd>  (30) 
1.04

>  <cluster>  (30) 
1

$$$$

     RDKit          3D

 58 61  0  0  0  0  0  0  0  0999 V2000
  135.6220   75.1980  223.2360 C   0  0  0  0  0  0  0  0  0  0  0  0
  136.6280   75.4440  222.1680 C   0  0  2  0  0  0  0  0  0  0  0  0
  137.5210   74.3070  222.0580 N   0  0  0  0  0  0  0  0  0  0  0  0
  137.3740   73.3720  221.0080 C   0  0  0  0  0  0  0  0  0  0  0  0
  136.4410   73.5900  220.1840 O   0  0  0  0  0  0  0  0  0  0  0  0
  138.2060   72.1880  220.7950 C   0  0  0  0  0  0  0  0  0  0  0  0
  138.6030   71.4930  221.9930 N   0  0  0  0  0  0  0  0  0  0  0  0
  139.5630   72.0350  222.8940 C   0  0  0  0  0  0  0  0  0  0  0  0
  140.1170   73.1710  222.6910 O   0  0  0  0  0  0  0  0  0  0  0  0
  139.9470   71.2940  224.0970 C   0  0  0  0  0  0  0  0  0  0  0  0
  140.7560   71.8790  225.0570 C   0  0  0  0  0  0  0  0  0  0  0  0
  141.1460   71.2250  226.2050 C   0  0  0  0  0  0  0  0  0  0  0  0
  140.7180   69.9220  226.4270 C   0  0  0  0  0  0  0  0  0  0  0  0
  141.1170   69.2970  227.5720 C   0  0  0  0  0  0  0  0  0  0  0  0
  140.6830   67.9850  227.7890 C   0  0  0  0  0  0  0  0  0  0  0  0
  139.8680   67.3690  226.8420 C   0  0  0  0  0  0  0  0  0  0  0  0
  139.4910   68.0560  225.6910 C   0  0  0  0  0  0  0  0  0  0  0  0
  139.9140   69.3560  225.4620 C   0  0  0  0  0  0  0  0  0  0  0  0
  139.5480   70.0340  224.3370 N   0  0  0  0  0  0  0  0  0  0  0  0
  137.4830   76.6370  222.3880 C   0  0  0  0  0  0  0  0  0  0  0  0
  138.8380   76.5300  222.2660 C   0  0  0  0  0  0  0  0  0  0  0  0
  139.6940   77.5940  222.4560 C   0  0  0  0  0  0  0  0  0  0  0  0
  139.2050   78.8380  222.7840 C   0  0  0  0  0  0  0  0  0  0  0  0
  139.9500   79.9590  222.9950 O   0  0  0  0  0  0  0  0  0  0  0  0
  141.1950   80.2330  222.4240 C   0  0  0  0  0  0  0  0  0  0  0  0
  142.3140   79.4590  223.1330 C   0  0  0  0  0  0  0  0  0  0  0  0
  143.2730   80.5150  223.6430 C   0  0  0  0  0  0  0  0  0  0  0  0
  142.2780   81.6250  223.9910 C   0  0  0  0  0  0  0  0  0  0  0  0
  141.4800   81.7060  222.7050 C   0  0  0  0  0  0  0  0  0  0  0  0
  137.8160   78.9680  222.9130 C   0  0  0  0  0  0  0  0  0  0  0  0
  136.9730   77.8820  222.7170 C   0  0  0  0  0  0  0  0  0  0  0  0
  136.0973   75.3142  224.2212 H   0  0  0  0  0  0  0  0  0  0  0  0
  134.7991   75.9214  223.1382 H   0  0  0  0  0  0  0  0  0  0  0  0
  135.2258   74.1765  223.1382 H   0  0  0  0  0  0  0  0  0  0  0  0
  136.0339   75.6119  221.2576 H   0  0  0  0  0  0  0  0  0  0  0  0
  138.2750   74.1970  222.7630 H   0  0  0  0  0  0  0  0  0  0  0  0
  137.6419   71.4847  220.1648 H   0  0  0  0  0  0  0  0  0  0  0  0
  139.1352   72.5480  220.3291 H   0  0  0  0  0  0  0  0  0  0  0  0
  138.2070   70.5500  222.2670 H   0  0  0  0  0  0  0  0  0  0  0  0
  141.1021   72.9106  224.8958 H   0  0  0  0  0  0  0  0  0  0  0  0
  141.7906   71.7300  226.9395 H   0  0  0  0  0  0  0  0  0  0  0  0
  141.7605   69.8092  228.3025 H   0  0  0  0  0  0  0  0  0  0  0  0
  140.9825   67.4447  228.6991 H   0  0  0  0  0  0  0  0  0  0  0  0
  139.5215   66.3376  227.0038 H   0  0  0  0  0  0  0  0  0  0  0  0
  138.8467   67.5587  224.9510 H   0  0  0  0  0  0  0  0  0  0  0  0
  139.2664   75.5512  222.0044 H   0  0  0  0  0  0  0  0  0  0  0  0
  140.7784   77.4472  222.3443 H   0  0  0  0  0  0  0  0  0  0  0  0
  141.1700   79.9657  221.3573 H   0  0  0  0  0  0  0  0  0  0  0  0
  141.9061   78.8731  223.9699 H   0  0  0  0  0  0  0  0  0  0  0  0
  142.8108   78.7474  222.4571 H   0  0  0  0  0  0  0  0  0  0  0  0
  143.8276   80.1705  224.5283 H   0  0  0  0  0  0  0  0  0  0  0  0
  144.0645   80.8047  222.9362 H   0  0  0  0  0  0  0  0  0  0  0  0
  141.6427   81.3460  224.8445 H   0  0  0  0  0  0  0  0  0  0  0  0
  142.7433   82.5732  224.2983 H   0  0  0  0  0  0  0  0  0  0  0  0
  140.5490   82.2747  222.8460 H   0  0  0  0  0  0  0  0  0  0  0  0
  142.0027   82.2235  221.8871 H   0  0  0  0  0  0  0  0  0  0  0  0
  137.3861   79.9464  223.1738 H   0  0  0  0  0  0  0  0  0  0  0  0
  135.8860   78.0122  222.8244 H   0  0  0  0  0  0  0  0  0  0  0  0
  1  2  1  0
  2  3  1  0
  3  4  1  0
  4  5  2  0
  4  6  1  0
  6  7  1  0
  7  8  1  0
  8  9  2  0
  8 10  1  0
 10 11  2  0
 11 12  1  0
 12 13  2  0
 13 14  1  0
 14 15  2  0
 15 16  1  0
 16 17  2  0
 17 18  1  0
 18 19  2  0
  2 20  1  0
 20 21  2  0
 21 22  1  0
 22 23  2  0
 23 24  1  0
 24 25  1  0
 25 26  1  0
 26 27  1  0
 27 28  1  0
 28 29  1  0
 23 30  1  0
 30 31  2  0
 19 10  1  0
 31 20  1  0
 18 13  1  0
 29 25  1  0
  1 32  1  0
  1 33  1  0
  1 34  1  0
  2 35  1  6
  3 36  1  0
  6 37  1  0
  6 38  1  0
  7 39  1  0
 11 40  1  0
 12 41  1  0
 14 42  1  0
 15 43  1  0
 16 44  1  0
 17 45  1  0
 21 46  1  0
 22 47  1  0
 25 48  1  0
 26 49  1  0
 26 50  1  0
 27 51  1  0
 27 52  1  0
 28 53  1  0
 28 54  1  0
 29 55  1  0
 29 56  1  0
 30 57  1  0
 31 58  1  0
M  END
>  <smiles>  (31) 
CC(NC(=O)CNC(=O)c1ccc2ccccc2n1)c1ccc(OC2CCCC2)cc1

>  <score_type>  (31) 
oracle

>  <origin>  (31) 
autodockgpu

>  <m_score__min__energy>  (31) 
-9.2300000000000004

>  <m_primary>  (31) 
energy

>  <rmsd>  (31) 
5.336870887014395

>  <m_score__min__rmsd>  (31) 
5.336870887014395

>  <meeko>  (31) 
{"free_energy": -8.96, "intermolecular_energy": -11.04, "internal_energy": -2.33, "cluster_size": 40, "cluster_id": 1, "rank_in_cluster": 9}

>  <energy>  (31) 
-8.48

>  <cluster_rmsd>  (31) 
0.96

>  <cluster>  (31) 
1

$$$$

     RDKit          3D

 58 61  0  0  0  0  0  0  0  0999 V2000
  136.6290   75.8210  223.1870 C   0  0  0  0  0  0  0  0  0  0  0  0
  137.4670   75.5280  221.9930 C   0  0  2  0  0  0  0  0  0  0  0  0
  137.9280   74.1540  222.0380 N   0  0  0  0  0  0  0  0  0  0  0  0
  137.9720   73.3680  220.8630 C   0  0  0  0  0  0  0  0  0  0  0  0
  137.6000   73.9290  219.7940 O   0  0  0  0  0  0  0  0  0  0  0  0
  138.4110   71.9750  220.7840 C   0  0  0  0  0  0  0  0  0  0  0  0
  138.7230   71.3550  222.0460 N   0  0  0  0  0  0  0  0  0  0  0  0
  139.6580   71.9280  222.9550 C   0  0  0  0  0  0  0  0  0  0  0  0
  140.2640   73.0260  222.7010 O   0  0  0  0  0  0  0  0  0  0  0  0
  139.9540   71.2630  224.2250 C   0  0  0  0  0  0  0  0  0  0  0  0
  140.7390   71.8870  225.1810 C   0  0  0  0  0  0  0  0  0  0  0  0
  141.0470   71.3040  226.3900 C   0  0  0  0  0  0  0  0  0  0  0  0
  140.5590   70.0370  226.6820 C   0  0  0  0  0  0  0  0  0  0  0  0
  140.8770   69.4830  227.8870 C   0  0  0  0  0  0  0  0  0  0  0  0
  140.3820   68.2070  228.1750 C   0  0  0  0  0  0  0  0  0  0  0  0
  139.5890   67.5530  227.2340 C   0  0  0  0  0  0  0  0  0  0  0  0
  139.2950   68.1680  226.0200 C   0  0  0  0  0  0  0  0  0  0  0  0
  139.7790   69.4320  225.7200 C   0  0  0  0  0  0  0  0  0  0  0  0
  139.4950   70.0380  224.5340 N   0  0  0  0  0  0  0  0  0  0  0  0
  138.6760   76.3790  221.8640 C   0  0  0  0  0  0  0  0  0  0  0  0
  138.5440   77.7360  221.8050 C   0  0  0  0  0  0  0  0  0  0  0  0
  139.6200   78.5890  221.6840 C   0  0  0  0  0  0  0  0  0  0  0  0
  140.9030   78.0950  221.6160 C   0  0  0  0  0  0  0  0  0  0  0  0
  142.0390   78.8370  221.4960 O   0  0  0  0  0  0  0  0  0  0  0  0
  142.4960   79.7870  222.4130 C   0  0  0  0  0  0  0  0  0  0  0  0
  141.6970   79.7240  223.7220 C   0  0  0  0  0  0  0  0  0  0  0  0
  141.0960   81.1040  223.8920 C   0  0  0  0  0  0  0  0  0  0  0  0
  140.8270   81.4540  222.4260 C   0  0  0  0  0  0  0  0  0  0  0  0
  142.1780   81.1520  221.8090 C   0  0  0  0  0  0  0  0  0  0  0  0
  141.0590   76.7040  221.6740 C   0  0  0  0  0  0  0  0  0  0  0  0
  139.9600   75.8640  221.7960 C   0  0  0  0  0  0  0  0  0  0  0  0
  137.2081   75.6185  224.1000 H   0  0  0  0  0  0  0  0  0  0  0  0
  136.3261   76.8784  223.1719 H   0  0  0  0  0  0  0  0  0  0  0  0
  135.7332   75.1827  223.1719 H   0  0  0  0  0  0  0  0  0  0  0  0
  136.8115   75.7321  221.1335 H   0  0  0  0  0  0  0  0  0  0  0  0
  138.2320   73.7610  222.9500 H   0  0  0  0  0  0  0  0  0  0  0  0
  137.6083   71.3923  220.3084 H   0  0  0  0  0  0  0  0  0  0  0  0
  139.3491   71.9840  220.2096 H   0  0  0  0  0  0  0  0  0  0  0  0
  138.2790   70.4490  222.3650 H   0  0  0  0  0  0  0  0  0  0  0  0
  141.1331   72.8910  224.9651 H   0  0  0  0  0  0  0  0  0  0  0  0
  141.6747   71.8377  227.1188 H   0  0  0  0  0  0  0  0  0  0  0  0
  141.5043   70.0238  228.6110 H   0  0  0  0  0  0  0  0  0  0  0  0
  140.6164   67.7242  229.1352 H   0  0  0  0  0  0  0  0  0  0  0  0
  139.1947   66.5492  227.4507 H   0  0  0  0  0  0  0  0  0  0  0  0
  138.6675   67.6416  225.2858 H   0  0  0  0  0  0  0  0  0  0  0  0
  137.5339   78.1684  221.8563 H   0  0  0  0  0  0  0  0  0  0  0  0
  139.4517   79.6752  221.6414 H   0  0  0  0  0  0  0  0  0  0  0  0
  143.5631   79.6117  222.6143 H   0  0  0  0  0  0  0  0  0  0  0  0
  140.9042   78.9646  223.6530 H   0  0  0  0  0  0  0  0  0  0  0  0
  142.3317   79.4457  224.5762 H   0  0  0  0  0  0  0  0  0  0  0  0
  140.1685   81.0762  224.4827 H   0  0  0  0  0  0  0  0  0  0  0  0
  141.7282   81.8231  224.4334 H   0  0  0  0  0  0  0  0  0  0  0  0
  140.0358   80.8213  221.9974 H   0  0  0  0  0  0  0  0  0  0  0  0
  140.4707   82.4816  222.2612 H   0  0  0  0  0  0  0  0  0  0  0  0
  142.1152   81.1003  220.7120 H   0  0  0  0  0  0  0  0  0  0  0  0
  142.9417   81.9179  222.0096 H   0  0  0  0  0  0  0  0  0  0  0  0
  142.0685   76.2701  221.6220 H   0  0  0  0  0  0  0  0  0  0  0  0
  140.1111   74.7753  221.8392 H   0  0  0  0  0  0  0  0  0  0  0  0
  1  2  1  0
  2  3  1  0
  3  4  1  0
  4  5  2  0
  4  6  1  0
  6  7  1  0
  7  8  1  0
  8  9  2  0
  8 10  1  0
 10 11  2  0
 11 12  1  0
 12 13  2  0
 13 14  1  0
 14 15  2  0
 15 16  1  0
 16 17  2  0
 17 18  1  0
 18 19  2  0
  2 20  1  0
 20 21  2  0
 21 22  1  0
 22 23  2  0
 23 24  1  0
 24 25  1  0
 25 26  1  0
 26 27  1  0
 27 28  1  0
 28 29  1  0
 23 30  1  0
 30 31  2  0
 19 10  1  0
 31 20  1  0
 18 13  1  0
 29 25  1  0
  1 32  1  0
  1 33  1  0
  1 34  1  0
  2 35  1  6
  3 36  1  0
  6 37  1  0
  6 38  1  0
  7 39  1  0
 11 40  1  0
 12 41  1  0
 14 42  1  0
 15 43  1  0
 16 44  1  0
 17 45  1  0
 21 46  1  0
 22 47  1  0
 25 48  1  0
 26 49  1  0
 26 50  1  0
 27 51  1  0
 27 52  1  0
 28 53  1  0
 28 54  1  0
 29 55  1  0
 29 56  1  0
 30 57  1  0
 31 58  1  0
M  END
>  <smiles>  (32) 
CC(NC(=O)CNC(=O)c1ccc2ccccc2n1)c1ccc(OC2CCCC2)cc1

>  <score_type>  (32) 
oracle

>  <origin>  (32) 
autodockgpu

>  <m_score__min__energy>  (32) 
-9.2300000000000004

>  <m_primary>  (32) 
energy

>  <rmsd>  (32) 
5.223984789500033

>  <m_score__min__rmsd>  (32) 
5.223984789500033

>  <meeko>  (32) 
{"free_energy": -8.59, "intermolecular_energy": -10.67, "internal_energy": -2.37, "cluster_size": 40, "cluster_id": 1, "rank_in_cluster": 26}

>  <energy>  (32) 
-8.44

>  <cluster_rmsd>  (32) 
1.1

>  <cluster>  (32) 
1

$$$$

     RDKit          3D

 58 61  0  0  0  0  0  0  0  0999 V2000
  136.3380   75.8400  222.8540 C   0  0  0  0  0  0  0  0  0  0  0  0
  137.5440   75.9660  221.9900 C   0  0  2  0  0  0  0  0  0  0  0  0
  138.2380   74.6950  221.9230 N   0  0  0  0  0  0  0  0  0  0  0  0
  138.1810   73.9020  220.7530 C   0  0  0  0  0  0  0  0  0  0  0  0
  137.5080   74.3650  219.7890 O   0  0  0  0  0  0  0  0  0  0  0  0
  138.8320   72.6060  220.5680 C   0  0  0  0  0  0  0  0  0  0  0  0
  139.0220   71.8350  221.7700 N   0  0  0  0  0  0  0  0  0  0  0  0
  139.9400   72.2340  222.7830 C   0  0  0  0  0  0  0  0  0  0  0  0
  140.6390   73.3010  222.6810 O   0  0  0  0  0  0  0  0  0  0  0  0
  140.1100   71.4190  223.9870 C   0  0  0  0  0  0  0  0  0  0  0  0
  140.8310   71.9000  225.0680 C   0  0  0  0  0  0  0  0  0  0  0  0
  141.0200   71.1730  226.2220 C   0  0  0  0  0  0  0  0  0  0  0  0
  140.4730   69.9010  226.3260 C   0  0  0  0  0  0  0  0  0  0  0  0
  140.6730   69.2020  227.4800 C   0  0  0  0  0  0  0  0  0  0  0  0
  140.1190   67.9220  227.5780 C   0  0  0  0  0  0  0  0  0  0  0  0
  139.3890   67.4100  226.5080 C   0  0  0  0  0  0  0  0  0  0  0  0
  139.2150   68.1680  225.3530 C   0  0  0  0  0  0  0  0  0  0  0  0
  139.7590   69.4380  225.2410 C   0  0  0  0  0  0  0  0  0  0  0  0
  139.5920   70.1860  224.1140 N   0  0  0  0  0  0  0  0  0  0  0  0
  138.5350   76.9680  222.4550 C   0  0  0  0  0  0  0  0  0  0  0  0
  138.1030   78.1290  223.0300 C   0  0  0  0  0  0  0  0  0  0  0  0
  138.9640   79.1050  223.4840 C   0  0  0  0  0  0  0  0  0  0  0  0
  140.3270   78.9450  223.3730 C   0  0  0  0  0  0  0  0  0  0  0  0
  141.2720   79.8370  223.7850 O   0  0  0  0  0  0  0  0  0  0  0  0
  141.6730   80.9820  223.0910 C   0  0  0  0  0  0  0  0  0  0  0  0
  140.5010   81.6020  222.3180 C   0  0  0  0  0  0  0  0  0  0  0  0
  140.9350   81.6120  220.8670 C   0  0  0  0  0  0  0  0  0  0  0  0
  141.7460   80.3140  220.8300 C   0  0  0  0  0  0  0  0  0  0  0  0
  142.6580   80.5120  222.0240 C   0  0  0  0  0  0  0  0  0  0  0  0
  140.7890   77.7600  222.7860 C   0  0  0  0  0  0  0  0  0  0  0  0
  139.9030   76.7910  222.3360 C   0  0  0  0  0  0  0  0  0  0  0  0
  136.6396   75.8715  223.9114 H   0  0  0  0  0  0  0  0  0  0  0  0
  135.6484   76.6710  222.6445 H   0  0  0  0  0  0  0  0  0  0  0  0
  135.8350   74.8844  222.6445 H   0  0  0  0  0  0  0  0  0  0  0  0
  137.1567   76.2954  221.0146 H   0  0  0  0  0  0  0  0  0  0  0  0
  138.7840   74.3820  222.7480 H   0  0  0  0  0  0  0  0  0  0  0  0
  138.2159   72.0118  219.8771 H   0  0  0  0  0  0  0  0  0  0  0  0
  139.8395   72.8239  220.1841 H   0  0  0  0  0  0  0  0  0  0  0  0
  138.4940   70.9380  221.9650 H   0  0  0  0  0  0  0  0  0  0  0  0
  141.2713   72.9058  225.0015 H   0  0  0  0  0  0  0  0  0  0  0  0
  141.5999   71.5967  227.0552 H   0  0  0  0  0  0  0  0  0  0  0  0
  141.2532   69.6327  228.3094 H   0  0  0  0  0  0  0  0  0  0  0  0
  140.2583   67.3251  228.4914 H   0  0  0  0  0  0  0  0  0  0  0  0
  138.9488   66.4042  226.5756 H   0  0  0  0  0  0  0  0  0  0  0  0
  138.6361   67.7519  224.5153 H   0  0  0  0  0  0  0  0  0  0  0  0
  137.0203   78.2924  223.1355 H   0  0  0  0  0  0  0  0  0  0  0  0
  138.5583   80.0205  223.9393 H   0  0  0  0  0  0  0  0  0  0  0  0
  142.0823   81.7125  223.8043 H   0  0  0  0  0  0  0  0  0  0  0  0
  139.5929   80.9941  222.4437 H   0  0  0  0  0  0  0  0  0  0  0  0
  140.2620   82.6129  222.6799 H   0  0  0  0  0  0  0  0  0  0  0  0
  140.0748   81.5768  220.1823 H   0  0  0  0  0  0  0  0  0  0  0  0
  141.4822   82.5123  220.5507 H   0  0  0  0  0  0  0  0  0  0  0  0
  141.1020   79.4310  220.9550 H   0  0  0  0  0  0  0  0  0  0  0  0
  142.2723   80.1338  219.8810 H   0  0  0  0  0  0  0  0  0  0  0  0
  143.1465   79.5706  222.3160 H   0  0  0  0  0  0  0  0  0  0  0  0
  143.4867   81.2121  221.8418 H   0  0  0  0  0  0  0  0  0  0  0  0
  141.8713   77.5948  222.6800 H   0  0  0  0  0  0  0  0  0  0  0  0
  140.2930   75.8698  221.8786 H   0  0  0  0  0  0  0  0  0  0  0  0
  1  2  1  0
  2  3  1  0
  3  4  1  0
  4  5  2  0
  4  6  1  0
  6  7  1  0
  7  8  1  0
  8  9  2  0
  8 10  1  0
 10 11  2  0
 11 12  1  0
 12 13  2  0
 13 14  1  0
 14 15  2  0
 15 16  1  0
 16 17  2  0
 17 18  1  0
 18 19  2  0
  2 20  1  0
 20 21  2  0
 21 22  1  0
 22 23  2  0
 23 24  1  0
 24 25  1  0
 25 26  1  0
 26 27  1  0
 27 28  1  0
 28 29  1  0
 23 30  1  0
 30 31  2  0
 19 10  1  0
 31 20  1  0
 18 13  1  0
 29 25  1  0
  1 32  1  0
  1 33  1  0
  1 34  1  0
  2 35  1  6
  3 36  1  0
  6 37  1  0
  6 38  1  0
  7 39  1  0
 11 40  1  0
 12 41  1  0
 14 42  1  0
 15 43  1  0
 16 44  1  0
 17 45  1  0
 21 46  1  0
 22 47  1  0
 25 48  1  0
 26 49  1  0
 26 50  1  0
 27 51  1  0
 27 52  1  0
 28 53  1  0
 28 54  1  0
 29 55  1  0
 29 56  1  0
 30 57  1  0
 31 58  1  0
M  END
>  <smiles>  (33) 
CC(NC(=O)CNC(=O)c1ccc2ccccc2n1)c1ccc(OC2CCCC2)cc1

>  <score_type>  (33) 
oracle

>  <origin>  (33) 
autodockgpu

>  <m_score__min__energy>  (33) 
-9.2300000000000004

>  <m_primary>  (33) 
energy

>  <rmsd>  (33) 
4.83502072321576

>  <m_score__min__rmsd>  (33) 
4.83502072321576

>  <meeko>  (33) 
{"free_energy": -8.7, "intermolecular_energy": -10.79, "internal_energy": -2.44, "cluster_size": 40, "cluster_id": 1, "rank_in_cluster": 19}

>  <energy>  (33) 
-8.44

>  <cluster_rmsd>  (33) 
1.14

>  <cluster>  (33) 
1

$$$$

     RDKit          3D

 58 61  0  0  0  0  0  0  0  0999 V2000
  135.7570   74.8630  222.8450 C   0  0  0  0  0  0  0  0  0  0  0  0
  136.8050   74.6950  221.8020 C   0  0  2  0  0  0  0  0  0  0  0  0
  137.4870   73.4300  221.9850 N   0  0  0  0  0  0  0  0  0  0  0  0
  137.3090   72.3730  221.0630 C   0  0  0  0  0  0  0  0  0  0  0  0
  136.5400   72.5990  220.0860 O   0  0  0  0  0  0  0  0  0  0  0  0
  137.9370   71.0540  221.1430 C   0  0  0  0  0  0  0  0  0  0  0  0
  138.4370   70.6890  222.4440 N   0  0  0  0  0  0  0  0  0  0  0  0
  139.4640   71.4330  223.0910 C   0  0  0  0  0  0  0  0  0  0  0  0
  139.9910   72.4680  222.5540 O   0  0  0  0  0  0  0  0  0  0  0  0
  139.9520   71.0250  224.4100 C   0  0  0  0  0  0  0  0  0  0  0  0
  140.7290   71.8830  225.1700 C   0  0  0  0  0  0  0  0  0  0  0  0
  141.2120   71.5470  226.4160 C   0  0  0  0  0  0  0  0  0  0  0  0
  140.9170   70.2990  226.9480 C   0  0  0  0  0  0  0  0  0  0  0  0
  141.4060   69.9910  228.1840 C   0  0  0  0  0  0  0  0  0  0  0  0
  141.1070   68.7320  228.7140 C   0  0  0  0  0  0  0  0  0  0  0  0
  140.3270   67.8460  227.9730 C   0  0  0  0  0  0  0  0  0  0  0  0
  139.8540   68.2150  226.7170 C   0  0  0  0  0  0  0  0  0  0  0  0
  140.1430   69.4580  226.1780 C   0  0  0  0  0  0  0  0  0  0  0  0
  139.6820   69.8240  224.9490 N   0  0  0  0  0  0  0  0  0  0  0  0
  137.8520   75.7480  221.8030 C   0  0  0  0  0  0  0  0  0  0  0  0
  137.5710   76.9800  221.2880 C   0  0  0  0  0  0  0  0  0  0  0  0
  138.4920   78.0050  221.2540 C   0  0  0  0  0  0  0  0  0  0  0  0
  139.7630   77.8230  221.7510 C   0  0  0  0  0  0  0  0  0  0  0  0
  140.7540   78.7590  221.7730 O   0  0  0  0  0  0  0  0  0  0  0  0
  141.5390   79.0920  222.8790 C   0  0  0  0  0  0  0  0  0  0  0  0
  140.7920   80.0400  223.8260 C   0  0  0  0  0  0  0  0  0  0  0  0
  141.6550   81.2820  223.9170 C   0  0  0  0  0  0  0  0  0  0  0  0
  142.2050   81.3210  222.4890 C   0  0  0  0  0  0  0  0  0  0  0  0
  142.7150   79.9020  222.3400 C   0  0  0  0  0  0  0  0  0  0  0  0
  140.0690   76.5650  222.2850 C   0  0  0  0  0  0  0  0  0  0  0  0
  139.1250   75.5470  222.3080 C   0  0  0  0  0  0  0  0  0  0  0  0
  136.2165   74.7893  223.8417 H   0  0  0  0  0  0  0  0  0  0  0  0
  135.2821   75.8487  222.7321 H   0  0  0  0  0  0  0  0  0  0  0  0
  134.9977   74.0751  222.7321 H   0  0  0  0  0  0  0  0  0  0  0  0
  136.2613   74.7540  220.8476 H   0  0  0  0  0  0  0  0  0  0  0  0
  138.1160   73.3170  222.8040 H   0  0  0  0  0  0  0  0  0  0  0  0
  137.1910   70.3035  220.8426 H   0  0  0  0  0  0  0  0  0  0  0  0
  138.8137   71.0933  220.4798 H   0  0  0  0  0  0  0  0  0  0  0  0
  138.0720   69.8560  222.9850 H   0  0  0  0  0  0  0  0  0  0  0  0
  140.9710   72.8753  224.7616 H   0  0  0  0  0  0  0  0  0  0  0  0
  141.8259   72.2613  226.9842 H   0  0  0  0  0  0  0  0  0  0  0  0
  142.0173   70.7117  228.7469 H   0  0  0  0  0  0  0  0  0  0  0  0
  141.4838   68.4436  229.7064 H   0  0  0  0  0  0  0  0  0  0  0  0
  140.0848   66.8537  228.3813 H   0  0  0  0  0  0  0  0  0  0  0  0
  139.2395   67.5067  226.1419 H   0  0  0  0  0  0  0  0  0  0  0  0
  136.5652   77.1633  220.8821 H   0  0  0  0  0  0  0  0  0  0  0  0
  138.2088   78.9778  220.8256 H   0  0  0  0  0  0  0  0  0  0  0  0
  141.8205   78.1721  223.4124 H   0  0  0  0  0  0  0  0  0  0  0  0
  139.8012   80.2891  223.4183 H   0  0  0  0  0  0  0  0  0  0  0  0
  140.6263   79.5843  224.8134 H   0  0  0  0  0  0  0  0  0  0  0  0
  141.0603   82.1773  224.1511 H   0  0  0  0  0  0  0  0  0  0  0  0
  142.4177   81.2620  224.7094 H   0  0  0  0  0  0  0  0  0  0  0  0
  141.4150   81.5458  221.7573 H   0  0  0  0  0  0  0  0  0  0  0  0
  142.9644   82.0976  222.3154 H   0  0  0  0  0  0  0  0  0  0  0  0
  142.9206   79.6583  221.2872 H   0  0  0  0  0  0  0  0  0  0  0  0
  143.6645   79.7118  222.8617 H   0  0  0  0  0  0  0  0  0  0  0  0
  141.0737   76.3803  222.6929 H   0  0  0  0  0  0  0  0  0  0  0  0
  139.3922   74.5682  222.7330 H   0  0  0  0  0  0  0  0  0  0  0  0
  1  2  1  0
  2  3  1  0
  3  4  1  0
  4  5  2  0
  4  6  1  0
  6  7  1  0
  7  8  1  0
  8  9  2  0
  8 10  1  0
 10 11  2  0
 11 12  1  0
 12 13  2  0
 13 14  1  0
 14 15  2  0
 15 16  1  0
 16 17  2  0
 17 18  1  0
 18 19  2  0
  2 20  1  0
 20 21  2  0
 21 22  1  0
 22 23  2  0
 23 24  1  0
 24 25  1  0
 25 26  1  0
 26 27  1  0
 27 28  1  0
 28 29  1  0
 23 30  1  0
 30 31  2  0
 19 10  1  0
 31 20  1  0
 18 13  1  0
 29 25  1  0
  1 32  1  0
  1 33  1  0
  1 34  1  0
  2 35  1  6
  3 36  1  0
  6 37  1  0
  6 38  1  0
  7 39  1  0
 11 40  1  0
 12 41  1  0
 14 42  1  0
 15 43  1  0
 16 44  1  0
 17 45  1  0
 21 46  1  0
 22 47  1  0
 25 48  1  0
 26 49  1  0
 26 50  1  0
 27 51  1  0
 27 52  1  0
 28 53  1  0
 28 54  1  0
 29 55  1  0
 29 56  1  0
 30 57  1  0
 31 58  1  0
M  END
>  <smiles>  (34) 
CC(NC(=O)CNC(=O)c1ccc2ccccc2n1)c1ccc(OC2CCCC2)cc1

>  <score_type>  (34) 
oracle

>  <origin>  (34) 
autodockgpu

>  <m_score__min__energy>  (34) 
-9.2300000000000004

>  <m_primary>  (34) 
energy

>  <rmsd>  (34) 
5.900921274501418

>  <m_score__min__rmsd>  (34) 
5.900921274501418

>  <meeko>  (34) 
{"free_energy": -7.87, "intermolecular_energy": -9.96, "internal_energy": -2.37, "cluster_size": 40, "cluster_id": 1, "rank_in_cluster": 40}

>  <energy>  (34) 
-8.4

>  <cluster_rmsd>  (34) 
1.31

>  <cluster>  (34) 
1

$$$$

     RDKit          3D

 58 61  0  0  0  0  0  0  0  0999 V2000
  136.1530   75.6690  223.8190 C   0  0  0  0  0  0  0  0  0  0  0  0
  136.7520   75.6650  222.4570 C   0  0  2  0  0  0  0  0  0  0  0  0
  137.4450   74.4140  222.2250 N   0  0  0  0  0  0  0  0  0  0  0  0
  137.0520   73.5550  221.1730 C   0  0  0  0  0  0  0  0  0  0  0  0
  136.0860   73.9430  220.4570 O   0  0  0  0  0  0  0  0  0  0  0  0
  137.6680   72.2690  220.8440 C   0  0  0  0  0  0  0  0  0  0  0  0
  138.0430   71.4600  221.9760 N   0  0  0  0  0  0  0  0  0  0  0  0
  139.1210   71.8190  222.8330 C   0  0  0  0  0  0  0  0  0  0  0  0
  139.8090   72.8830  222.6480 O   0  0  0  0  0  0  0  0  0  0  0  0
  139.4770   70.9660  223.9680 C   0  0  0  0  0  0  0  0  0  0  0  0
  139.2160   69.6060  223.9370 C   0  0  0  0  0  0  0  0  0  0  0  0
  139.5310   68.7610  224.9780 C   0  0  0  0  0  0  0  0  0  0  0  0
  140.1370   69.2760  226.1160 C   0  0  0  0  0  0  0  0  0  0  0  0
  140.4400   68.4190  227.1330 C   0  0  0  0  0  0  0  0  0  0  0  0
  141.0500   68.9440  228.2760 C   0  0  0  0  0  0  0  0  0  0  0  0
  141.3260   70.3080  228.3380 C   0  0  0  0  0  0  0  0  0  0  0  0
  140.9960   71.1370  227.2700 C   0  0  0  0  0  0  0  0  0  0  0  0
  140.3900   70.6310  226.1300 C   0  0  0  0  0  0  0  0  0  0  0  0
  140.0640   71.4380  225.0810 N   0  0  0  0  0  0  0  0  0  0  0  0
  137.7360   76.7490  222.2130 C   0  0  0  0  0  0  0  0  0  0  0  0
  139.0720   76.4740  222.2670 C   0  0  0  0  0  0  0  0  0  0  0  0
  140.0420   77.4290  222.0520 C   0  0  0  0  0  0  0  0  0  0  0  0
  139.6960   78.7300  221.7670 C   0  0  0  0  0  0  0  0  0  0  0  0
  140.5630   79.7560  221.5370 O   0  0  0  0  0  0  0  0  0  0  0  0
  140.9920   80.6910  222.4810 C   0  0  0  0  0  0  0  0  0  0  0  0
  142.5190   80.8450  222.4570 C   0  0  0  0  0  0  0  0  0  0  0  0
  142.9810   80.4940  223.8570 C   0  0  0  0  0  0  0  0  0  0  0  0
  141.9650   79.4020  224.2000 C   0  0  0  0  0  0  0  0  0  0  0  0
  140.6660   80.0990  223.8490 C   0  0  0  0  0  0  0  0  0  0  0  0
  138.3290   79.0320  221.7070 C   0  0  0  0  0  0  0  0  0  0  0  0
  137.3690   78.0530  221.9270 C   0  0  0  0  0  0  0  0  0  0  0  0
  136.9547   75.6636  224.5722 H   0  0  0  0  0  0  0  0  0  0  0  0
  135.5367   76.5713  223.9459 H   0  0  0  0  0  0  0  0  0  0  0  0
  135.5247   74.7750  223.9459 H   0  0  0  0  0  0  0  0  0  0  0  0
  135.9010   75.8152  221.7764 H   0  0  0  0  0  0  0  0  0  0  0  0
  138.2410   74.1630  222.8430 H   0  0  0  0  0  0  0  0  0  0  0  0
  136.9525   71.6944  220.2374 H   0  0  0  0  0  0  0  0  0  0  0  0
  138.6030   72.5053  220.3150 H   0  0  0  0  0  0  0  0  0  0  0  0
  137.5430   70.5620  222.2290 H   0  0  0  0  0  0  0  0  0  0  0  0
  138.7364   69.1825  223.0422 H   0  0  0  0  0  0  0  0  0  0  0  0
  139.3043   67.6869  224.9083 H   0  0  0  0  0  0  0  0  0  0  0  0
  140.2110   67.3459  227.0560 H   0  0  0  0  0  0  0  0  0  0  0  0
  141.3096   68.2862  229.1186 H   0  0  0  0  0  0  0  0  0  0  0  0
  141.8058   70.7307  229.2330 H   0  0  0  0  0  0  0  0  0  0  0  0
  141.2198   72.2123  227.3312 H   0  0  0  0  0  0  0  0  0  0  0  0
  139.3883   75.4448  222.4920 H   0  0  0  0  0  0  0  0  0  0  0  0
  141.1041   77.1483  222.1088 H   0  0  0  0  0  0  0  0  0  0  0  0
  140.5127   81.6592  222.2739 H   0  0  0  0  0  0  0  0  0  0  0  0
  142.9635   80.1583  221.7216 H   0  0  0  0  0  0  0  0  0  0  0  0
  142.8231   81.8621  222.1689 H   0  0  0  0  0  0  0  0  0  0  0  0
  144.0119   80.1103  223.8635 H   0  0  0  0  0  0  0  0  0  0  0  0
  143.0130   81.3379  224.5618 H   0  0  0  0  0  0  0  0  0  0  0  0
  142.1183   78.5005  223.5886 H   0  0  0  0  0  0  0  0  0  0  0  0
  142.0204   79.0392  225.2370 H   0  0  0  0  0  0  0  0  0  0  0  0
  139.8315   79.3849  223.7883 H   0  0  0  0  0  0  0  0  0  0  0  0
  140.3438   80.8432  224.5922 H   0  0  0  0  0  0  0  0  0  0  0  0
  138.0113   80.0608  221.4821 H   0  0  0  0  0  0  0  0  0  0  0  0
  136.3025   78.3171  221.8733 H   0  0  0  0  0  0  0  0  0  0  0  0
  1  2  1  0
  2  3  1  0
  3  4  1  0
  4  5  2  0
  4  6  1  0
  6  7  1  0
  7  8  1  0
  8  9  2  0
  8 10  1  0
 10 11  2  0
 11 12  1  0
 12 13  2  0
 13 14  1  0
 14 15  2  0
 15 16  1  0
 16 17  2  0
 17 18  1  0
 18 19  2  0
  2 20  1  0
 20 21  2  0
 21 22  1  0
 22 23  2  0
 23 24  1  0
 24 25  1  0
 25 26  1  0
 26 27  1  0
 27 28  1  0
 28 29  1  0
 23 30  1  0
 30 31  2  0
 19 10  1  0
 31 20  1  0
 18 13  1  0
 29 25  1  0
  1 32  1  0
  1 33  1  0
  1 34  1  0
  2 35  1  6
  3 36  1  0
  6 37  1  0
  6 38  1  0
  7 39  1  0
 11 40  1  0
 12 41  1  0
 14 42  1  0
 15 43  1  0
 16 44  1  0
 17 45  1  0
 21 46  1  0
 22 47  1  0
 25 48  1  0
 26 49  1  0
 26 50  1  0
 27 51  1  0
 27 52  1  0
 28 53  1  0
 28 54  1  0
 29 55  1  0
 29 56  1  0
 30 57  1  0
 31 58  1  0
M  END
>  <smiles>  (35) 
CC(NC(=O)CNC(=O)c1ccc2ccccc2n1)c1ccc(OC2CCCC2)cc1

>  <score_type>  (35) 
oracle

>  <origin>  (35) 
autodockgpu

>  <m_score__min__energy>  (35) 
-9.2300000000000004

>  <m_primary>  (35) 
energy

>  <rmsd>  (35) 
5.4110795320539395

>  <m_score__min__rmsd>  (35) 
5.4110795320539395

>  <meeko>  (35) 
{"free_energy": -8.34, "intermolecular_energy": -10.43, "internal_energy": -2.13, "cluster_size": 40, "cluster_id": 1, "rank_in_cluster": 36}

>  <energy>  (35) 
-8.39

>  <cluster_rmsd>  (35) 
1.15

>  <cluster>  (35) 
1

$$$$

     RDKit          3D

 58 61  0  0  0  0  0  0  0  0999 V2000
  136.3370   75.5320  222.5380 C   0  0  0  0  0  0  0  0  0  0  0  0
  137.6080   75.4200  221.7720 C   0  0  2  0  0  0  0  0  0  0  0  0
  138.1410   74.0770  221.8920 N   0  0  0  0  0  0  0  0  0  0  0  0
  138.1100   73.1860  220.7950 C   0  0  0  0  0  0  0  0  0  0  0  0
  137.6070   73.6280  219.7230 O   0  0  0  0  0  0  0  0  0  0  0  0
  138.6100   71.8120  220.7960 C   0  0  0  0  0  0  0  0  0  0  0  0
  138.8880   71.2590  222.0970 N   0  0  0  0  0  0  0  0  0  0  0  0
  139.8490   71.8420  222.9720 C   0  0  0  0  0  0  0  0  0  0  0  0
  140.5100   72.8900  222.6500 O   0  0  0  0  0  0  0  0  0  0  0  0
  140.1110   71.2470  224.2830 C   0  0  0  0  0  0  0  0  0  0  0  0
  140.9260   71.8900  225.2000 C   0  0  0  0  0  0  0  0  0  0  0  0
  141.2030   71.3720  226.4450 C   0  0  0  0  0  0  0  0  0  0  0  0
  140.6500   70.1530  226.8170 C   0  0  0  0  0  0  0  0  0  0  0  0
  140.9380   69.6620  228.0560 C   0  0  0  0  0  0  0  0  0  0  0  0
  140.3790   68.4340  228.4230 C   0  0  0  0  0  0  0  0  0  0  0  0
  139.5540   67.7620  227.5230 C   0  0  0  0  0  0  0  0  0  0  0  0
  139.2930   68.3110  226.2710 C   0  0  0  0  0  0  0  0  0  0  0  0
  139.8410   69.5270  225.8920 C   0  0  0  0  0  0  0  0  0  0  0  0
  139.5890   70.0690  224.6680 N   0  0  0  0  0  0  0  0  0  0  0  0
  138.6800   76.3450  222.2150 C   0  0  0  0  0  0  0  0  0  0  0  0
  139.9870   75.9650  222.1100 C   0  0  0  0  0  0  0  0  0  0  0  0
  141.0350   76.7710  222.5010 C   0  0  0  0  0  0  0  0  0  0  0  0
  140.8010   78.0210  223.0270 C   0  0  0  0  0  0  0  0  0  0  0  0
  141.7520   78.9020  223.4460 O   0  0  0  0  0  0  0  0  0  0  0  0
  142.4050   79.8430  222.6460 C   0  0  0  0  0  0  0  0  0  0  0  0
  142.1380   81.2720  223.1370 C   0  0  0  0  0  0  0  0  0  0  0  0
  141.4970   81.9870  221.9660 C   0  0  0  0  0  0  0  0  0  0  0  0
  140.6880   80.8340  221.3670 C   0  0  0  0  0  0  0  0  0  0  0  0
  141.7520   79.7590  221.2690 C   0  0  0  0  0  0  0  0  0  0  0  0
  139.4650   78.4290  223.1430 C   0  0  0  0  0  0  0  0  0  0  0  0
  138.4260   77.6000  222.7410 C   0  0  0  0  0  0  0  0  0  0  0  0
  136.5556   75.5127  223.6159 H   0  0  0  0  0  0  0  0  0  0  0  0
  135.8368   76.4777  222.2821 H   0  0  0  0  0  0  0  0  0  0  0  0
  135.6791   74.6883  222.2821 H   0  0  0  0  0  0  0  0  0  0  0  0
  137.3358   75.6823  220.7390 H   0  0  0  0  0  0  0  0  0  0  0  0
  138.5520   73.7850  222.8000 H   0  0  0  0  0  0  0  0  0  0  0  0
  137.8557   71.1755  220.3103 H   0  0  0  0  0  0  0  0  0  0  0  0
  139.5727   71.8382  220.2646 H   0  0  0  0  0  0  0  0  0  0  0  0
  138.3990   70.3990  222.4710 H   0  0  0  0  0  0  0  0  0  0  0  0
  141.3712   72.8565  224.9213 H   0  0  0  0  0  0  0  0  0  0  0  0
  141.8571   71.9190  227.1399 H   0  0  0  0  0  0  0  0  0  0  0  0
  141.5910   70.2157  228.7466 H   0  0  0  0  0  0  0  0  0  0  0  0
  140.5885   68.0024  229.4129 H   0  0  0  0  0  0  0  0  0  0  0  0
  139.1083   66.7960  227.8026 H   0  0  0  0  0  0  0  0  0  0  0  0
  138.6403   67.7706  225.5696 H   0  0  0  0  0  0  0  0  0  0  0  0
  140.2140   74.9719  221.6951 H   0  0  0  0  0  0  0  0  0  0  0  0
  142.0687   76.4113  222.3914 H   0  0  0  0  0  0  0  0  0  0  0  0
  143.4857   79.6381  222.6557 H   0  0  0  0  0  0  0  0  0  0  0  0
  141.4570   81.2611  224.0007 H   0  0  0  0  0  0  0  0  0  0  0  0
  143.0619   81.7710  223.4647 H   0  0  0  0  0  0  0  0  0  0  0  0
  140.8495   82.8128  222.2958 H   0  0  0  0  0  0  0  0  0  0  0  0
  142.2022   82.4694  221.2732 H   0  0  0  0  0  0  0  0  0  0  0  0
  139.8652   80.5295  222.0306 H   0  0  0  0  0  0  0  0  0  0  0  0
  140.1934   81.0725  220.4139 H   0  0  0  0  0  0  0  0  0  0  0  0
  141.3063   78.7683  221.0964 H   0  0  0  0  0  0  0  0  0  0  0  0
  142.4531   79.8997  220.4331 H   0  0  0  0  0  0  0  0  0  0  0  0
  139.2360   79.4213  223.5589 H   0  0  0  0  0  0  0  0  0  0  0  0
  137.3865   77.9454  222.8420 H   0  0  0  0  0  0  0  0  0  0  0  0
  1  2  1  0
  2  3  1  0
  3  4  1  0
  4  5  2  0
  4  6  1  0
  6  7  1  0
  7  8  1  0
  8  9  2  0
  8 10  1  0
 10 11  2  0
 11 12  1  0
 12 13  2  0
 13 14  1  0
 14 15  2  0
 15 16  1  0
 16 17  2  0
 17 18  1  0
 18 19  2  0
  2 20  1  0
 20 21  2  0
 21 22  1  0
 22 23  2  0
 23 24  1  0
 24 25  1  0
 25 26  1  0
 26 27  1  0
 27 28  1  0
 28 29  1  0
 23 30  1  0
 30 31  2  0
 19 10  1  0
 31 20  1  0
 18 13  1  0
 29 25  1  0
  1 32  1  0
  1 33  1  0
  1 34  1  0
  2 35  1  6
  3 36  1  0
  6 37  1  0
  6 38  1  0
  7 39  1  0
 11 40  1  0
 12 41  1  0
 14 42  1  0
 15 43  1  0
 16 44  1  0
 17 45  1  0
 21 46  1  0
 22 47  1  0
 25 48  1  0
 26 49  1  0
 26 50  1  0
 27 51  1  0
 27 52  1  0
 28 53  1  0
 28 54  1  0
 29 55  1  0
 29 56  1  0
 30 57  1  0
 31 58  1  0
M  END
>  <smiles>  (36) 
CC(NC(=O)CNC(=O)c1ccc2ccccc2n1)c1ccc(OC2CCCC2)cc1

>  <score_type>  (36) 
oracle

>  <origin>  (36) 
autodockgpu

>  <m_score__min__energy>  (36) 
-9.2300000000000004

>  <m_primary>  (36) 
energy

>  <rmsd>  (36) 
5.446472094106617

>  <m_score__min__rmsd>  (36) 
5.446472094106617

>  <meeko>  (36) 
{"free_energy": -8.91, "intermolecular_energy": -11.0, "internal_energy": -2.43, "cluster_size": 40, "cluster_id": 1, "rank_in_cluster": 12}

>  <energy>  (36) 
-8.34

>  <cluster_rmsd>  (36) 
1.14

>  <cluster>  (36) 
1

$$$$

     RDKit          3D

 58 61  0  0  0  0  0  0  0  0999 V2000
  141.9420   77.1160  219.3060 C   0  0  0  0  0  0  0  0  0  0  0  0
  141.7770   76.5070  220.6530 C   0  0  2  0  0  0  0  0  0  0  0  0
  141.0910   75.2350  220.5410 N   0  0  0  0  0  0  0  0  0  0  0  0
  141.8000   74.0590  220.2040 C   0  0  0  0  0  0  0  0  0  0  0  0
  143.0440   74.1820  220.0190 O   0  0  0  0  0  0  0  0  0  0  0  0
  141.2200   72.7240  220.0560 C   0  0  0  0  0  0  0  0  0  0  0  0
  141.0400   71.9930  221.2840 N   0  0  0  0  0  0  0  0  0  0  0  0
  140.3300   72.5420  222.3900 C   0  0  0  0  0  0  0  0  0  0  0  0
  139.8110   73.7100  222.3480 O   0  0  0  0  0  0  0  0  0  0  0  0
  140.1760   71.7700  223.6240 C   0  0  0  0  0  0  0  0  0  0  0  0
  139.4710   70.5770  223.6260 C   0  0  0  0  0  0  0  0  0  0  0  0
  139.2970   69.8150  224.7600 C   0  0  0  0  0  0  0  0  0  0  0  0
  139.8440   70.2440  225.9620 C   0  0  0  0  0  0  0  0  0  0  0  0
  139.6590   69.4700  227.0700 C   0  0  0  0  0  0  0  0  0  0  0  0
  140.2120   69.9080  228.2770 C   0  0  0  0  0  0  0  0  0  0  0  0
  140.9270   71.1040  228.3080 C   0  0  0  0  0  0  0  0  0  0  0  0
  141.0850   71.8530  227.1460 C   0  0  0  0  0  0  0  0  0  0  0  0
  140.5420   71.4330  225.9420 C   0  0  0  0  0  0  0  0  0  0  0  0
  140.6940   72.1620  224.8010 N   0  0  0  0  0  0  0  0  0  0  0  0
  140.9970   77.3290  221.6120 C   0  0  0  0  0  0  0  0  0  0  0  0
  141.5880   78.3970  222.2230 C   0  0  0  0  0  0  0  0  0  0  0  0
  140.9260   79.2040  223.1230 C   0  0  0  0  0  0  0  0  0  0  0  0
  139.6120   78.9600  223.4510 C   0  0  0  0  0  0  0  0  0  0  0  0
  138.8580   79.6860  224.3230 O   0  0  0  0  0  0  0  0  0  0  0  0
  138.2150   80.8940  224.0400 C   0  0  0  0  0  0  0  0  0  0  0  0
  137.6400   81.5290  225.3130 C   0  0  0  0  0  0  0  0  0  0  0  0
  136.1530   81.6650  225.0580 C   0  0  0  0  0  0  0  0  0  0  0  0
  135.9150   80.4040  224.2240 C   0  0  0  0  0  0  0  0  0  0  0  0
  137.0040   80.5420  223.1790 C   0  0  0  0  0  0  0  0  0  0  0  0
  138.9880   77.8680  222.8330 C   0  0  0  0  0  0  0  0  0  0  0  0
  139.6750   77.0690  221.9280 C   0  0  0  0  0  0  0  0  0  0  0  0
  142.2283   78.1726  219.4139 H   0  0  0  0  0  0  0  0  0  0  0  0
  142.7268   76.5780  218.7540 H   0  0  0  0  0  0  0  0  0  0  0  0
  140.9930   77.0478  218.7540 H   0  0  0  0  0  0  0  0  0  0  0  0
  142.8013   76.4082  221.0417 H   0  0  0  0  0  0  0  0  0  0  0  0
  140.0690   75.2040  220.7190 H   0  0  0  0  0  0  0  0  0  0  0  0
  140.2356   72.8320  219.5771 H   0  0  0  0  0  0  0  0  0  0  0  0
  141.9387   72.1439  219.4585 H   0  0  0  0  0  0  0  0  0  0  0  0
  141.4200   71.0160  221.4300 H   0  0  0  0  0  0  0  0  0  0  0  0
  139.0316   70.2235  222.6816 H   0  0  0  0  0  0  0  0  0  0  0  0
  138.7292   68.8740  224.7138 H   0  0  0  0  0  0  0  0  0  0  0  0
  139.0916   68.5292  227.0154 H   0  0  0  0  0  0  0  0  0  0  0  0
  140.0840   69.3140  229.1940 H   0  0  0  0  0  0  0  0  0  0  0  0
  141.3671   71.4564  229.2525 H   0  0  0  0  0  0  0  0  0  0  0  0
  141.6511   72.7954  227.1837 H   0  0  0  0  0  0  0  0  0  0  0  0
  142.6382   78.6234  221.9868 H   0  0  0  0  0  0  0  0  0  0  0  0
  141.4535   80.0521  223.5840 H   0  0  0  0  0  0  0  0  0  0  0  0
  138.9304   81.5825  223.5666 H   0  0  0  0  0  0  0  0  0  0  0  0
  137.8237   80.8814  226.1830 H   0  0  0  0  0  0  0  0  0  0  0  0
  138.1079   82.4999  225.5333 H   0  0  0  0  0  0  0  0  0  0  0  0
  135.5747   81.6518  225.9936 H   0  0  0  0  0  0  0  0  0  0  0  0
  135.8478   82.6057  224.5764 H   0  0  0  0  0  0  0  0  0  0  0  0
  136.0441   79.4915  224.8246 H   0  0  0  0  0  0  0  0  0  0  0  0
  134.8986   80.3164  223.8125 H   0  0  0  0  0  0  0  0  0  0  0  0
  137.1594   79.5989  222.6346 H   0  0  0  0  0  0  0  0  0  0  0  0
  136.7814   81.2826  222.3967 H   0  0  0  0  0  0  0  0  0  0  0  0
  137.9379   77.6400  223.0682 H   0  0  0  0  0  0  0  0  0  0  0  0
  139.1614   76.2183  221.4562 H   0  0  0  0  0  0  0  0  0  0  0  0
  1  2  1  0
  2  3  1  0
  3  4  1  0
  4  5  2  0
  4  6  1  0
  6  7  1  0
  7  8  1  0
  8  9  2  0
  8 10  1  0
 10 11  2  0
 11 12  1  0
 12 13  2  0
 13 14  1  0
 14 15  2  0
 15 16  1  0
 16 17  2  0
 17 18  1  0
 18 19  2  0
  2 20  1  0
 20 21  2  0
 21 22  1  0
 22 23  2  0
 23 24  1  0
 24 25  1  0
 25 26  1  0
 26 27  1  0
 27 28  1  0
 28 29  1  0
 23 30  1  0
 30 31  2  0
 19 10  1  0
 31 20  1  0
 18 13  1  0
 29 25  1  0
  1 32  1  0
  1 33  1  0
  1 34  1  0
  2 35  1  1
  3 36  1  0
  6 37  1  0
  6 38  1  0
  7 39  1  0
 11 40  1  0
 12 41  1  0
 14 42  1  0
 15 43  1  0
 16 44  1  0
 17 45  1  0
 21 46  1  0
 22 47  1  0
 25 48  1  0
 26 49  1  0
 26 50  1  0
 27 51  1  0
 27 52  1  0
 28 53  1  0
 28 54  1  0
 29 55  1  0
 29 56  1  0
 30 57  1  0
 31 58  1  0
M  END
>  <smiles>  (37) 
CC(NC(=O)CNC(=O)c1ccc2ccccc2n1)c1ccc(OC2CCCC2)cc1

>  <score_type>  (37) 
oracle

>  <origin>  (37) 
autodockgpu

>  <m_score__min__energy>  (37) 
-9.2300000000000004

>  <m_primary>  (37) 
energy

>  <rmsd>  (37) 
4.61925350083265

>  <m_score__min__rmsd>  (37) 
4.61925350083265

>  <meeko>  (37) 
{"free_energy": -8.13, "intermolecular_energy": -10.21, "internal_energy": -1.91, "cluster_size": 6, "cluster_id": 2, "rank_in_cluster": 6}

>  <energy>  (37) 
-8.34

>  <cluster_rmsd>  (37) 
0.89

>  <cluster>  (37) 
1

$$$$

     RDKit          3D

 58 61  0  0  0  0  0  0  0  0999 V2000
  135.8210   75.5680  223.6560 C   0  0  0  0  0  0  0  0  0  0  0  0
  136.5460   75.7150  222.3650 C   0  0  2  0  0  0  0  0  0  0  0  0
  137.4480   74.5970  222.1740 N   0  0  0  0  0  0  0  0  0  0  0  0
  137.2080   73.6390  221.1620 C   0  0  0  0  0  0  0  0  0  0  0  0
  136.1830   73.8200  220.4440 O   0  0  0  0  0  0  0  0  0  0  0  0
  138.0390   72.4700  220.8770 C   0  0  0  0  0  0  0  0  0  0  0  0
  138.4520   71.7120  222.0310 N   0  0  0  0  0  0  0  0  0  0  0  0
  139.4650   72.1810  222.9150 C   0  0  0  0  0  0  0  0  0  0  0  0
  140.0560   73.3010  222.7350 O   0  0  0  0  0  0  0  0  0  0  0  0
  139.8620   71.3770  224.0730 C   0  0  0  0  0  0  0  0  0  0  0  0
  140.7480   71.8820  225.0100 C   0  0  0  0  0  0  0  0  0  0  0  0
  141.1540   71.1670  226.1150 C   0  0  0  0  0  0  0  0  0  0  0  0
  140.6630   69.8830  226.3160 C   0  0  0  0  0  0  0  0  0  0  0  0
  141.0780   69.1970  227.4190 C   0  0  0  0  0  0  0  0  0  0  0  0
  140.5810   67.9050  227.6140 C   0  0  0  0  0  0  0  0  0  0  0  0
  139.6880   67.3690  226.6890 C   0  0  0  0  0  0  0  0  0  0  0  0
  139.2970   68.1160  225.5820 C   0  0  0  0  0  0  0  0  0  0  0  0
  139.7820   69.3970  225.3740 C   0  0  0  0  0  0  0  0  0  0  0  0
  139.4030   70.1330  224.2910 N   0  0  0  0  0  0  0  0  0  0  0  0
  137.3650   76.9480  222.2540 C   0  0  0  0  0  0  0  0  0  0  0  0
  138.5710   76.9030  221.6160 C   0  0  0  0  0  0  0  0  0  0  0  0
  139.3850   78.0060  221.4750 C   0  0  0  0  0  0  0  0  0  0  0  0
  139.0070   79.2270  221.9850 C   0  0  0  0  0  0  0  0  0  0  0  0
  139.7250   80.3830  221.9080 O   0  0  0  0  0  0  0  0  0  0  0  0
  140.7170   80.7900  222.8030 C   0  0  0  0  0  0  0  0  0  0  0  0
  142.1000   80.7870  222.1400 C   0  0  0  0  0  0  0  0  0  0  0  0
  142.9420   79.8400  222.9700 C   0  0  0  0  0  0  0  0  0  0  0  0
  141.8760   78.8110  223.3530 C   0  0  0  0  0  0  0  0  0  0  0  0
  140.7840   79.7170  223.8860 C   0  0  0  0  0  0  0  0  0  0  0  0
  137.7720   79.2930  222.6440 C   0  0  0  0  0  0  0  0  0  0  0  0
  136.9680   78.1680  222.7730 C   0  0  0  0  0  0  0  0  0  0  0  0
  136.5242   75.7106  224.4898 H   0  0  0  0  0  0  0  0  0  0  0  0
  135.0229   76.3226  223.7163 H   0  0  0  0  0  0  0  0  0  0  0  0
  135.3799   74.5621  223.7163 H   0  0  0  0  0  0  0  0  0  0  0  0
  135.7541   75.7607  221.6029 H   0  0  0  0  0  0  0  0  0  0  0  0
  138.2790   74.5170  222.7910 H   0  0  0  0  0  0  0  0  0  0  0  0
  137.4684   71.8002  220.2168 H   0  0  0  0  0  0  0  0  0  0  0  0
  138.9622   72.8569  220.4208 H   0  0  0  0  0  0  0  0  0  0  0  0
  138.0290   70.7750  222.2820 H   0  0  0  0  0  0  0  0  0  0  0  0
  141.1445   72.8978  224.8655 H   0  0  0  0  0  0  0  0  0  0  0  0
  141.8611   71.6089  226.8324 H   0  0  0  0  0  0  0  0  0  0  0  0
  141.7827   69.6468  228.1339 H   0  0  0  0  0  0  0  0  0  0  0  0
  140.8923   67.3170  228.4900 H   0  0  0  0  0  0  0  0  0  0  0  0
  139.2912   66.3534  226.8339 H   0  0  0  0  0  0  0  0  0  0  0  0
  138.5904   67.6818  224.8594 H   0  0  0  0  0  0  0  0  0  0  0  0
  138.9080   75.9439  221.1958 H   0  0  0  0  0  0  0  0  0  0  0  0
  140.3465   77.9095  220.9495 H   0  0  0  0  0  0  0  0  0  0  0  0
  140.4787   81.7989  223.1709 H   0  0  0  0  0  0  0  0  0  0  0  0
  142.0285   80.4294  221.1022 H   0  0  0  0  0  0  0  0  0  0  0  0
  142.5371   81.7957  222.1009 H   0  0  0  0  0  0  0  0  0  0  0  0
  143.7527   79.3886  222.3792 H   0  0  0  0  0  0  0  0  0  0  0  0
  143.4658   80.3050  223.8182 H   0  0  0  0  0  0  0  0  0  0  0  0
  141.5349   78.2371  222.4787 H   0  0  0  0  0  0  0  0  0  0  0  0
  142.2182   78.0441  224.0635 H   0  0  0  0  0  0  0  0  0  0  0  0
  139.8280   79.1809  223.9791 H   0  0  0  0  0  0  0  0  0  0  0  0
  140.9826   80.1110  224.8936 H   0  0  0  0  0  0  0  0  0  0  0  0
  137.4341   80.2511  223.0658 H   0  0  0  0  0  0  0  0  0  0  0  0
  136.0028   78.2477  223.2946 H   0  0  0  0  0  0  0  0  0  0  0  0
  1  2  1  0
  2  3  1  0
  3  4  1  0
  4  5  2  0
  4  6  1  0
  6  7  1  0
  7  8  1  0
  8  9  2  0
  8 10  1  0
 10 11  2  0
 11 12  1  0
 12 13  2  0
 13 14  1  0
 14 15  2  0
 15 16  1  0
 16 17  2  0
 17 18  1  0
 18 19  2  0
  2 20  1  0
 20 21  2  0
 21 22  1  0
 22 23  2  0
 23 24  1  0
 24 25  1  0
 25 26  1  0
 26 27  1  0
 27 28  1  0
 28 29  1  0
 23 30  1  0
 30 31  2  0
 19 10  1  0
 31 20  1  0
 18 13  1  0
 29 25  1  0
  1 32  1  0
  1 33  1  0
  1 34  1  0
  2 35  1  6
  3 36  1  0
  6 37  1  0
  6 38  1  0
  7 39  1  0
 11 40  1  0
 12 41  1  0
 14 42  1  0
 15 43  1  0
 16 44  1  0
 17 45  1  0
 21 46  1  0
 22 47  1  0
 25 48  1  0
 26 49  1  0
 26 50  1  0
 27 51  1  0
 27 52  1  0
 28 53  1  0
 28 54  1  0
 29 55  1  0
 29 56  1  0
 30 57  1  0
 31 58  1  0
M  END
>  <smiles>  (38) 
CC(NC(=O)CNC(=O)c1ccc2ccccc2n1)c1ccc(OC2CCCC2)cc1

>  <score_type>  (38) 
oracle

>  <origin>  (38) 
autodockgpu

>  <m_score__min__energy>  (38) 
-9.2300000000000004

>  <m_primary>  (38) 
energy

>  <rmsd>  (38) 
5.110983089903391

>  <m_score__min__rmsd>  (38) 
5.110983089903391

>  <meeko>  (38) 
{"free_energy": -8.4, "intermolecular_energy": -10.48, "internal_energy": -2.36, "cluster_size": 40, "cluster_id": 1, "rank_in_cluster": 34}

>  <energy>  (38) 
-8.32

>  <cluster_rmsd>  (38) 
1.21

>  <cluster>  (38) 
1

$$$$

     RDKit          3D

 58 61  0  0  0  0  0  0  0  0999 V2000
  142.9890   73.7090  218.6980 C   0  0  0  0  0  0  0  0  0  0  0  0
  142.7400   73.9370  220.1470 C   0  0  2  0  0  0  0  0  0  0  0  0
  141.7400   73.0050  220.6300 N   0  0  0  0  0  0  0  0  0  0  0  0
  140.5680   72.7520  219.8820 C   0  0  0  0  0  0  0  0  0  0  0  0
  140.4530   73.3690  218.7850 O   0  0  0  0  0  0  0  0  0  0  0  0
  139.4890   71.8410  220.2660 C   0  0  0  0  0  0  0  0  0  0  0  0
  139.6540   71.1980  221.5450 N   0  0  0  0  0  0  0  0  0  0  0  0
  139.9790   71.9330  222.7200 C   0  0  0  0  0  0  0  0  0  0  0  0
  140.1360   73.2030  222.7030 O   0  0  0  0  0  0  0  0  0  0  0  0
  140.1460   71.2430  224.0000 C   0  0  0  0  0  0  0  0  0  0  0  0
  140.7240   71.8890  225.0800 C   0  0  0  0  0  0  0  0  0  0  0  0
  140.9040   71.2840  226.3040 C   0  0  0  0  0  0  0  0  0  0  0  0
  140.4930   69.9690  226.4820 C   0  0  0  0  0  0  0  0  0  0  0  0
  140.6800   69.3930  227.7040 C   0  0  0  0  0  0  0  0  0  0  0  0
  140.2650   68.0690  227.8770 C   0  0  0  0  0  0  0  0  0  0  0  0
  139.6800   67.3910  226.8100 C   0  0  0  0  0  0  0  0  0  0  0  0
  139.5120   68.0300  225.5840 C   0  0  0  0  0  0  0  0  0  0  0  0
  139.9200   69.3410  225.3970 C   0  0  0  0  0  0  0  0  0  0  0  0
  139.7580   69.9720  224.2000 N   0  0  0  0  0  0  0  0  0  0  0  0
  142.2530   75.2980  220.4830 C   0  0  0  0  0  0  0  0  0  0  0  0
  141.3630   75.4640  221.5050 C   0  0  0  0  0  0  0  0  0  0  0  0
  140.8670   76.6970  221.8720 C   0  0  0  0  0  0  0  0  0  0  0  0
  141.2580   77.8370  221.2090 C   0  0  0  0  0  0  0  0  0  0  0  0
  140.8380   79.1040  221.4810 O   0  0  0  0  0  0  0  0  0  0  0  0
  140.7230   79.6720  222.7530 C   0  0  0  0  0  0  0  0  0  0  0  0
  140.9280   81.1920  222.7030 C   0  0  0  0  0  0  0  0  0  0  0  0
  142.0990   81.4710  223.6220 C   0  0  0  0  0  0  0  0  0  0  0  0
  142.9350   80.2140  223.3660 C   0  0  0  0  0  0  0  0  0  0  0  0
  141.8940   79.1320  223.5700 C   0  0  0  0  0  0  0  0  0  0  0  0
  142.1720   77.6860  220.1570 C   0  0  0  0  0  0  0  0  0  0  0  0
  142.6580   76.4350  219.8040 C   0  0  0  0  0  0  0  0  0  0  0  0
  143.7953   72.9707  218.5762 H   0  0  0  0  0  0  0  0  0  0  0  0
  142.0714   73.3315  218.2232 H   0  0  0  0  0  0  0  0  0  0  0  0
  143.2844   74.6563  218.2232 H   0  0  0  0  0  0  0  0  0  0  0  0
  143.7209   73.7975  220.6249 H   0  0  0  0  0  0  0  0  0  0  0  0
  141.9060   72.5220  221.5340 H   0  0  0  0  0  0  0  0  0  0  0  0
  138.5517   72.4161  220.2928 H   0  0  0  0  0  0  0  0  0  0  0  0
  139.4893   71.0352  219.5173 H   0  0  0  0  0  0  0  0  0  0  0  0
  139.5420   70.1540  221.6800 H   0  0  0  0  0  0  0  0  0  0  0  0
  141.0537   72.9309  224.9547 H   0  0  0  0  0  0  0  0  0  0  0  0
  141.3691   71.8371  227.1333 H   0  0  0  0  0  0  0  0  0  0  0  0
  141.1436   69.9535  228.5292 H   0  0  0  0  0  0  0  0  0  0  0  0
  140.3993   67.5674  228.8467 H   0  0  0  0  0  0  0  0  0  0  0  0
  139.3502   66.3492  226.9360 H   0  0  0  0  0  0  0  0  0  0  0  0
  139.0473   67.4844  224.7495 H   0  0  0  0  0  0  0  0  0  0  0  0
  141.0271   74.5755  222.0597 H   0  0  0  0  0  0  0  0  0  0  0  0
  140.1510   76.7698  222.7039 H   0  0  0  0  0  0  0  0  0  0  0  0
  139.7298   79.4392  223.1646 H   0  0  0  0  0  0  0  0  0  0  0  0
  141.1583   81.5156  221.6772 H   0  0  0  0  0  0  0  0  0  0  0  0
  140.0247   81.7368  223.0149 H   0  0  0  0  0  0  0  0  0  0  0  0
  142.6369   82.3861  223.3333 H   0  0  0  0  0  0  0  0  0  0  0  0
  141.8331   81.6470  224.6748 H   0  0  0  0  0  0  0  0  0  0  0  0
  143.3394   80.1985  222.3432 H   0  0  0  0  0  0  0  0  0  0  0  0
  143.8219   80.1189  224.0097 H   0  0  0  0  0  0  0  0  0  0  0  0
  142.2411   78.1632  223.1816 H   0  0  0  0  0  0  0  0  0  0  0  0
  141.6511   78.9390  224.6254 H   0  0  0  0  0  0  0  0  0  0  0  0
  142.5096   78.5738  219.6021 H   0  0  0  0  0  0  0  0  0  0  0  0
  143.3743   76.3453  218.9740 H   0  0  0  0  0  0  0  0  0  0  0  0
  1  2  1  0
  2  3  1  0
  3  4  1  0
  4  5  2  0
  4  6  1  0
  6  7  1  0
  7  8  1  0
  8  9  2  0
  8 10  1  0
 10 11  2  0
 11 12  1  0
 12 13  2  0
 13 14  1  0
 14 15  2  0
 15 16  1  0
 16 17  2  0
 17 18  1  0
 18 19  2  0
  2 20  1  0
 20 21  2  0
 21 22  1  0
 22 23  2  0
 23 24  1  0
 24 25  1  0
 25 26  1  0
 26 27  1  0
 27 28  1  0
 28 29  1  0
 23 30  1  0
 30 31  2  0
 19 10  1  0
 31 20  1  0
 18 13  1  0
 29 25  1  0
  1 32  1  0
  1 33  1  0
  1 34  1  0
  2 35  1  1
  3 36  1  0
  6 37  1  0
  6 38  1  0
  7 39  1  0
 11 40  1  0
 12 41  1  0
 14 42  1  0
 15 43  1  0
 16 44  1  0
 17 45  1  0
 21 46  1  0
 22 47  1  0
 25 48  1  0
 26 49  1  0
 26 50  1  0
 27 51  1  0
 27 52  1  0
 28 53  1  0
 28 54  1  0
 29 55  1  0
 29 56  1  0
 30 57  1  0
 31 58  1  0
M  END
>  <smiles>  (39) 
CC(NC(=O)CNC(=O)c1ccc2ccccc2n1)c1ccc(OC2CCCC2)cc1

>  <score_type>  (39) 
oracle

>  <origin>  (39) 
autodockgpu

>  <m_score__min__energy>  (39) 
-9.2300000000000004

>  <m_primary>  (39) 
energy

>  <rmsd>  (39) 
5.205106011669286

>  <m_score__min__rmsd>  (39) 
5.205106011669286

>  <meeko>  (39) 
{"free_energy": -8.67, "intermolecular_energy": -10.75, "internal_energy": -1.93, "cluster_size": 6, "cluster_id": 2, "rank_in_cluster": 3}

>  <energy>  (39) 
-8.11

>  <cluster_rmsd>  (39) 
1.73

>  <cluster>  (39) 
1

$$$$

     RDKit          3D

 58 61  0  0  0  0  0  0  0  0999 V2000
  135.6970   74.7890  223.2990 C   0  0  0  0  0  0  0  0  0  0  0  0
  136.6420   74.9900  222.1670 C   0  0  2  0  0  0  0  0  0  0  0  0
  137.5060   73.8350  222.0330 N   0  0  0  0  0  0  0  0  0  0  0  0
  137.9860   73.4340  220.7650 C   0  0  0  0  0  0  0  0  0  0  0  0
  137.6280   74.1360  219.7780 O   0  0  0  0  0  0  0  0  0  0  0  0
  138.8560   72.2880  220.5040 C   0  0  0  0  0  0  0  0  0  0  0  0
  139.0230   71.3780  221.6090 N   0  0  0  0  0  0  0  0  0  0  0  0
  139.5740   71.7970  222.8520 C   0  0  0  0  0  0  0  0  0  0  0  0
  139.9440   73.0050  223.0560 O   0  0  0  0  0  0  0  0  0  0  0  0
  139.7350   70.8400  223.9490 C   0  0  0  0  0  0  0  0  0  0  0  0
  139.2840   69.5380  223.8190 C   0  0  0  0  0  0  0  0  0  0  0  0
  139.4110   68.6000  224.8200 C   0  0  0  0  0  0  0  0  0  0  0  0
  140.0160   68.9580  226.0180 C   0  0  0  0  0  0  0  0  0  0  0  0
  140.1310   68.0110  226.9930 C   0  0  0  0  0  0  0  0  0  0  0  0
  140.7400   68.3780  228.1960 C   0  0  0  0  0  0  0  0  0  0  0  0
  141.2050   69.6810  228.3580 C   0  0  0  0  0  0  0  0  0  0  0  0
  141.0620   70.6070  227.3280 C   0  0  0  0  0  0  0  0  0  0  0  0
  140.4590   70.2580  226.1290 C   0  0  0  0  0  0  0  0  0  0  0  0
  140.3160   71.1600  225.1180 N   0  0  0  0  0  0  0  0  0  0  0  0
  137.5280   76.1730  222.3050 C   0  0  0  0  0  0  0  0  0  0  0  0
  136.9910   77.3880  222.6180 C   0  0  0  0  0  0  0  0  0  0  0  0
  137.7510   78.5280  222.7610 C   0  0  0  0  0  0  0  0  0  0  0  0
  139.1160   78.4880  222.5900 C   0  0  0  0  0  0  0  0  0  0  0  0
  139.9670   79.5460  222.7060 O   0  0  0  0  0  0  0  0  0  0  0  0
  140.7540   79.8440  223.8210 C   0  0  0  0  0  0  0  0  0  0  0  0
  141.4550   81.1990  223.6600 C   0  0  0  0  0  0  0  0  0  0  0  0
  142.9370   80.9010  223.7640 C   0  0  0  0  0  0  0  0  0  0  0  0
  142.9740   79.5280  223.0880 C   0  0  0  0  0  0  0  0  0  0  0  0
  141.8750   78.8080  223.8430 C   0  0  0  0  0  0  0  0  0  0  0  0
  139.6860   77.2490  222.2680 C   0  0  0  0  0  0  0  0  0  0  0  0
  138.9000   76.1130  222.1290 C   0  0  0  0  0  0  0  0  0  0  0  0
  136.2358   74.9036  224.2512 H   0  0  0  0  0  0  0  0  0  0  0  0
  134.8915   75.5359  223.2413 H   0  0  0  0  0  0  0  0  0  0  0  0
  135.2652   73.7789  223.2413 H   0  0  0  0  0  0  0  0  0  0  0  0
  135.9980   75.1462  221.2891 H   0  0  0  0  0  0  0  0  0  0  0  0
  137.7720   73.3110  222.8890 H   0  0  0  0  0  0  0  0  0  0  0  0
  138.4315   71.7241  219.6603 H   0  0  0  0  0  0  0  0  0  0  0  0
  139.8535   72.7036  220.2984 H   0  0  0  0  0  0  0  0  0  0  0  0
  138.7470   70.3570  221.5570 H   0  0  0  0  0  0  0  0  0  0  0  0
  138.8034   69.2392  222.8757 H   0  0  0  0  0  0  0  0  0  0  0  0
  139.0365   67.5764  224.6718 H   0  0  0  0  0  0  0  0  0  0  0  0
  139.7555   66.9889  226.8369 H   0  0  0  0  0  0  0  0  0  0  0  0
  140.8512   67.6443  229.0080 H   0  0  0  0  0  0  0  0  0  0  0  0
  141.6860   69.9790  229.3013 H   0  0  0  0  0  0  0  0  0  0  0  0
  141.4337   71.6328  227.4678 H   0  0  0  0  0  0  0  0  0  0  0  0
  135.9029   77.4602  222.7625 H   0  0  0  0  0  0  0  0  0  0  0  0
  137.2618   79.4801  223.0145 H   0  0  0  0  0  0  0  0  0  0  0  0
  140.1193   79.8528  224.7194 H   0  0  0  0  0  0  0  0  0  0  0  0
  141.2191   81.6402  222.6804 H   0  0  0  0  0  0  0  0  0  0  0  0
  141.1287   81.9212  224.4228 H   0  0  0  0  0  0  0  0  0  0  0  0
  143.5424   81.6412  223.2203 H   0  0  0  0  0  0  0  0  0  0  0  0
  143.3469   80.9287  224.7844 H   0  0  0  0  0  0  0  0  0  0  0  0
  142.7470   79.5996  222.0141 H   0  0  0  0  0  0  0  0  0  0  0  0
  143.9536   79.0290  223.1254 H   0  0  0  0  0  0  0  0  0  0  0  0
  141.5757   77.8825  223.3294 H   0  0  0  0  0  0  0  0  0  0  0  0
  142.1651   78.4856  224.8539 H   0  0  0  0  0  0  0  0  0  0  0  0
  140.7739   77.1753  222.1230 H   0  0  0  0  0  0  0  0  0  0  0  0
  139.3734   75.1529  221.8758 H   0  0  0  0  0  0  0  0  0  0  0  0
  1  2  1  0
  2  3  1  0
  3  4  1  0
  4  5  2  0
  4  6  1  0
  6  7  1  0
  7  8  1  0
  8  9  2  0
  8 10  1  0
 10 11  2  0
 11 12  1  0
 12 13  2  0
 13 14  1  0
 14 15  2  0
 15 16  1  0
 16 17  2  0
 17 18  1  0
 18 19  2  0
  2 20  1  0
 20 21  2  0
 21 22  1  0
 22 23  2  0
 23 24  1  0
 24 25  1  0
 25 26  1  0
 26 27  1  0
 27 28  1  0
 28 29  1  0
 23 30  1  0
 30 31  2  0
 19 10  1  0
 31 20  1  0
 18 13  1  0
 29 25  1  0
  1 32  1  0
  1 33  1  0
  1 34  1  0
  2 35  1  6
  3 36  1  0
  6 37  1  0
  6 38  1  0
  7 39  1  0
 11 40  1  0
 12 41  1  0
 14 42  1  0
 15 43  1  0
 16 44  1  0
 17 45  1  0
 21 46  1  0
 22 47  1  0
 25 48  1  0
 26 49  1  0
 26 50  1  0
 27 51  1  0
 27 52  1  0
 28 53  1  0
 28 54  1  0
 29 55  1  0
 29 56  1  0
 30 57  1  0
 31 58  1  0
M  END
>  <smiles>  (40) 
CC(NC(=O)CNC(=O)c1ccc2ccccc2n1)c1ccc(OC2CCCC2)cc1

>  <score_type>  (40) 
oracle

>  <origin>  (40) 
autodockgpu

>  <m_score__min__energy>  (40) 
-9.2300000000000004

>  <m_primary>  (40) 
energy

>  <rmsd>  (40) 
5.690045963131613

>  <m_score__min__rmsd>  (40) 
5.690045963131613

>  <meeko>  (40) 
{"free_energy": -8.65, "intermolecular_energy": -10.74, "internal_energy": -1.96, "cluster_size": 40, "cluster_id": 1, "rank_in_cluster": 22}

>  <energy>  (40) 
-7.87

>  <cluster_rmsd>  (40) 
1.39

>  <cluster>  (40) 
1

$$$$

     RDKit          3D

 58 61  0  0  0  0  0  0  0  0999 V2000
  140.3880   71.9630  221.1490 C   0  0  0  0  0  0  0  0  0  0  0  0
  139.0310   71.7420  221.7190 C   0  0  2  0  0  0  0  0  0  0  0  0
  138.5450   72.9640  222.3270 N   0  0  0  0  0  0  0  0  0  0  0  0
  137.3350   73.5540  221.8960 C   0  0  0  0  0  0  0  0  0  0  0  0
  136.7140   72.9570  220.9720 O   0  0  0  0  0  0  0  0  0  0  0  0
  136.7480   74.7840  222.4270 C   0  0  0  0  0  0  0  0  0  0  0  0
  137.6890   75.8260  222.7500 N   0  0  0  0  0  0  0  0  0  0  0  0
  137.4130   77.1980  222.4850 C   0  0  0  0  0  0  0  0  0  0  0  0
  136.3120   77.5770  221.9530 O   0  0  0  0  0  0  0  0  0  0  0  0
  138.3980   78.2270  222.8200 C   0  0  0  0  0  0  0  0  0  0  0  0
  137.9930   79.5030  223.1740 C   0  0  0  0  0  0  0  0  0  0  0  0
  138.8790   80.5060  223.4980 C   0  0  0  0  0  0  0  0  0  0  0  0
  140.2430   80.2450  223.4740 C   0  0  0  0  0  0  0  0  0  0  0  0
  141.1010   81.2550  223.7990 C   0  0  0  0  0  0  0  0  0  0  0  0
  142.4730   80.9860  223.7730 C   0  0  0  0  0  0  0  0  0  0  0  0
  142.9130   79.7120  223.4210 C   0  0  0  0  0  0  0  0  0  0  0  0
  141.9920   78.7190  223.0980 C   0  0  0  0  0  0  0  0  0  0  0  0
  140.6290   78.9710  223.1190 C   0  0  0  0  0  0  0  0  0  0  0  0
  139.7230   78.0020  222.8050 N   0  0  0  0  0  0  0  0  0  0  0  0
  138.9650   70.6900  222.7640 C   0  0  0  0  0  0  0  0  0  0  0  0
  138.8360   71.0470  224.0760 C   0  0  0  0  0  0  0  0  0  0  0  0
  138.7690   70.1260  225.0990 C   0  0  0  0  0  0  0  0  0  0  0  0
  138.8310   68.7770  224.8350 C   0  0  0  0  0  0  0  0  0  0  0  0
  138.7740   67.7780  225.7600 O   0  0  0  0  0  0  0  0  0  0  0  0
  139.5540   67.6890  226.9160 C   0  0  0  0  0  0  0  0  0  0  0  0
  139.4460   68.9670  227.7580 C   0  0  0  0  0  0  0  0  0  0  0  0
  140.8620   69.4930  227.8750 C   0  0  0  0  0  0  0  0  0  0  0  0
  141.4020   69.0940  226.4990 C   0  0  0  0  0  0  0  0  0  0  0  0
  141.0060   67.6320  226.4500 C   0  0  0  0  0  0  0  0  0  0  0  0
  138.9630   68.3910  223.4940 C   0  0  0  0  0  0  0  0  0  0  0  0
  139.0290   69.3360  222.4800 C   0  0  0  0  0  0  0  0  0  0  0  0
  141.1143   72.0813  221.9666 H   0  0  0  0  0  0  0  0  0  0  0  0
  140.6707   71.0991  220.5296 H   0  0  0  0  0  0  0  0  0  0  0  0
  140.3819   72.8720  220.5296 H   0  0  0  0  0  0  0  0  0  0  0  0
  138.4183   71.4158  220.8656 H   0  0  0  0  0  0  0  0  0  0  0  0
  139.1010   73.3940  223.0920 H   0  0  0  0  0  0  0  0  0  0  0  0
  136.0486   75.1788  221.6753 H   0  0  0  0  0  0  0  0  0  0  0  0
  136.2651   74.5057  223.3753 H   0  0  0  0  0  0  0  0  0  0  0  0
  138.6280   75.6320  223.1980 H   0  0  0  0  0  0  0  0  0  0  0  0
  136.9159   79.7252  223.1974 H   0  0  0  0  0  0  0  0  0  0  0  0
  138.5099   81.5050  223.7734 H   0  0  0  0  0  0  0  0  0  0  0  0
  140.7245   82.2515  224.0734 H   0  0  0  0  0  0  0  0  0  0  0  0
  143.1980   81.7730  224.0281 H   0  0  0  0  0  0  0  0  0  0  0  0
  143.9901   79.4901  223.3982 H   0  0  0  0  0  0  0  0  0  0  0  0
  142.3522   77.7171  222.8214 H   0  0  0  0  0  0  0  0  0  0  0  0
  138.7833   72.1166  224.3272 H   0  0  0  0  0  0  0  0  0  0  0  0
  138.6648   70.4730  226.1376 H   0  0  0  0  0  0  0  0  0  0  0  0
  139.2275   66.8201  227.5063 H   0  0  0  0  0  0  0  0  0  0  0  0
  138.8017   69.7045  227.2571 H   0  0  0  0  0  0  0  0  0  0  0  0
  139.0000   68.7705  228.7441 H   0  0  0  0  0  0  0  0  0  0  0  0
  140.8828   70.5829  228.0224 H   0  0  0  0  0  0  0  0  0  0  0  0
  141.4340   69.1039  228.7303 H   0  0  0  0  0  0  0  0  0  0  0  0
  140.9229   69.6702  225.6937 H   0  0  0  0  0  0  0  0  0  0  0  0
  142.4776   69.2788  226.3613 H   0  0  0  0  0  0  0  0  0  0  0  0
  141.0840   67.2294  225.4293 H   0  0  0  0  0  0  0  0  0  0  0  0
  141.6450   66.9757  227.0590 H   0  0  0  0  0  0  0  0  0  0  0  0
  139.0151   67.3217  223.2413 H   0  0  0  0  0  0  0  0  0  0  0  0
  139.1336   69.0051  221.4362 H   0  0  0  0  0  0  0  0  0  0  0  0
  1  2  1  0
  2  3  1  0
  3  4  1  0
  4  5  2  0
  4  6  1  0
  6  7  1  0
  7  8  1  0
  8  9  2  0
  8 10  1  0
 10 11  2  0
 11 12  1  0
 12 13  2  0
 13 14  1  0
 14 15  2  0
 15 16  1  0
 16 17  2  0
 17 18  1  0
 18 19  2  0
  2 20  1  0
 20 21  2  0
 21 22  1  0
 22 23  2  0
 23 24  1  0
 24 25  1  0
 25 26  1  0
 26 27  1  0
 27 28  1  0
 28 29  1  0
 23 30  1  0
 30 31  2  0
 19 10  1  0
 31 20  1  0
 18 13  1  0
 29 25  1  0
  1 32  1  0
  1 33  1  0
  1 34  1  0
  2 35  1  6
  3 36  1  0
  6 37  1  0
  6 38  1  0
  7 39  1  0
 11 40  1  0
 12 41  1  0
 14 42  1  0
 15 43  1  0
 16 44  1  0
 17 45  1  0
 21 46  1  0
 22 47  1  0
 25 48  1  0
 26 49  1  0
 26 50  1  0
 27 51  1  0
 27 52  1  0
 28 53  1  0
 28 54  1  0
 29 55  1  0
 29 56  1  0
 30 57  1  0
 31 58  1  0
M  END
>  <smiles>  (41) 
CC(NC(=O)CNC(=O)c1ccc2ccccc2n1)c1ccc(OC2CCCC2)cc1

>  <score_type>  (41) 
oracle

>  <origin>  (41) 
autodockgpu

>  <m_score__min__energy>  (41) 
-9.2300000000000004

>  <m_primary>  (41) 
energy

>  <rmsd>  (41) 
10.79447539286153

>  <m_score__min__rmsd>  (41) 
10.79447539286153

>  <meeko>  (41) 
{"free_energy": -8.68, "intermolecular_energy": -10.77, "internal_energy": -1.28, "cluster_size": 2, "cluster_id": 4, "rank_in_cluster": 1}

>  <energy>  (41) 
-9.06

>  <cluster_rmsd>  (41) 
0.0

>  <cluster>  (41) 
2

$$$$

     RDKit          3D

 58 61  0  0  0  0  0  0  0  0999 V2000
  136.3980   75.8600  222.6820 C   0  0  0  0  0  0  0  0  0  0  0  0
  137.6640   75.9520  221.9050 C   0  0  2  0  0  0  0  0  0  0  0  0
  138.3150   74.6570  221.8650 N   0  0  0  0  0  0  0  0  0  0  0  0
  138.3490   73.9030  220.6700 C   0  0  0  0  0  0  0  0  0  0  0  0
  137.7950   74.4210  219.6590 O   0  0  0  0  0  0  0  0  0  0  0  0
  138.9680   72.5880  220.5070 C   0  0  0  0  0  0  0  0  0  0  0  0
  139.1100   71.8210  221.7180 N   0  0  0  0  0  0  0  0  0  0  0  0
  139.9770   72.2300  222.7710 C   0  0  0  0  0  0  0  0  0  0  0  0
  140.6700   73.3040  222.6980 O   0  0  0  0  0  0  0  0  0  0  0  0
  140.1010   71.4190  223.9830 C   0  0  0  0  0  0  0  0  0  0  0  0
  140.7590   71.9120  225.0970 C   0  0  0  0  0  0  0  0  0  0  0  0
  140.9030   71.1890  226.2610 C   0  0  0  0  0  0  0  0  0  0  0  0
  140.3710   69.9090  226.3390 C   0  0  0  0  0  0  0  0  0  0  0  0
  140.5250   69.2140  227.5030 C   0  0  0  0  0  0  0  0  0  0  0  0
  139.9870   67.9260  227.5750 C   0  0  0  0  0  0  0  0  0  0  0  0
  139.3190   67.4010  226.4710 C   0  0  0  0  0  0  0  0  0  0  0  0
  139.1900   68.1560  225.3080 C   0  0  0  0  0  0  0  0  0  0  0  0
  139.7190   69.4340  225.2210 C   0  0  0  0  0  0  0  0  0  0  0  0
  139.5960   70.1780  224.0860 N   0  0  0  0  0  0  0  0  0  0  0  0
  138.6560   76.9110  222.4530 C   0  0  0  0  0  0  0  0  0  0  0  0
  139.9900   76.6370  222.3490 C   0  0  0  0  0  0  0  0  0  0  0  0
  140.9670   77.4800  222.8340 C   0  0  0  0  0  0  0  0  0  0  0  0
  140.6300   78.6590  223.4580 C   0  0  0  0  0  0  0  0  0  0  0  0
  141.5050   79.5670  223.9760 O   0  0  0  0  0  0  0  0  0  0  0  0
  141.8690   80.7790  223.3850 C   0  0  0  0  0  0  0  0  0  0  0  0
  140.6750   81.4340  222.6770 C   0  0  0  0  0  0  0  0  0  0  0  0
  141.0980   81.5850  221.2310 C   0  0  0  0  0  0  0  0  0  0  0  0
  141.9430   80.3180  221.0730 C   0  0  0  0  0  0  0  0  0  0  0  0
  142.8590   80.4340  222.2750 C   0  0  0  0  0  0  0  0  0  0  0  0
  139.2660   78.9570  223.5750 C   0  0  0  0  0  0  0  0  0  0  0  0
  138.2990   78.0930  223.0780 C   0  0  0  0  0  0  0  0  0  0  0  0
  136.6261   75.8766  223.7580 H   0  0  0  0  0  0  0  0  0  0  0  0
  135.7510   76.7135  222.4312 H   0  0  0  0  0  0  0  0  0  0  0  0
  135.8812   74.9219  222.4312 H   0  0  0  0  0  0  0  0  0  0  0  0
  137.3571   76.3078  220.9104 H   0  0  0  0  0  0  0  0  0  0  0  0
  138.7610   74.2980  222.7300 H   0  0  0  0  0  0  0  0  0  0  0  0
  138.3509   72.0062  219.8065 H   0  0  0  0  0  0  0  0  0  0  0  0
  139.9892   72.7750  220.1435 H   0  0  0  0  0  0  0  0  0  0  0  0
  138.5820   70.9190  221.8910 H   0  0  0  0  0  0  0  0  0  0  0  0
  141.1854   72.9250  225.0507 H   0  0  0  0  0  0  0  0  0  0  0  0
  141.4348   71.6222  227.1210 H   0  0  0  0  0  0  0  0  0  0  0  0
  141.0568   69.6543  228.3594 H   0  0  0  0  0  0  0  0  0  0  0  0
  140.0901   67.3322  228.4952 H   0  0  0  0  0  0  0  0  0  0  0  0
  138.8926   66.3881  226.5180 H   0  0  0  0  0  0  0  0  0  0  0  0
  138.6591   67.7307  224.4435 H   0  0  0  0  0  0  0  0  0  0  0  0
  140.2983   75.7028  221.8567 H   0  0  0  0  0  0  0  0  0  0  0  0
  142.0267   77.2073  222.7210 H   0  0  0  0  0  0  0  0  0  0  0  0
  142.2636   81.4537  224.1590 H   0  0  0  0  0  0  0  0  0  0  0  0
  139.7841   80.7932  222.7524 H   0  0  0  0  0  0  0  0  0  0  0  0
  140.4119   82.4016  223.1293 H   0  0  0  0  0  0  0  0  0  0  0  0
  140.2340   81.5880  220.5502 H   0  0  0  0  0  0  0  0  0  0  0  0
  141.6192   82.5243  220.9944 H   0  0  0  0  0  0  0  0  0  0  0  0
  141.3239   79.4101  221.1222 H   0  0  0  0  0  0  0  0  0  0  0  0
  142.4660   80.2374  220.1086 H   0  0  0  0  0  0  0  0  0  0  0  0
  143.3754   79.4844  222.4789 H   0  0  0  0  0  0  0  0  0  0  0  0
  143.6669   81.1703  222.1519 H   0  0  0  0  0  0  0  0  0  0  0  0
  138.9562   79.8901  224.0683 H   0  0  0  0  0  0  0  0  0  0  0  0
  137.2350   78.3516  223.1825 H   0  0  0  0  0  0  0  0  0  0  0  0
  1  2  1  0
  2  3  1  0
  3  4  1  0
  4  5  2  0
  4  6  1  0
  6  7  1  0
  7  8  1  0
  8  9  2  0
  8 10  1  0
 10 11  2  0
 11 12  1  0
 12 13  2  0
 13 14  1  0
 14 15  2  0
 15 16  1  0
 16 17  2  0
 17 18  1  0
 18 19  2  0
  2 20  1  0
 20 21  2  0
 21 22  1  0
 22 23  2  0
 23 24  1  0
 24 25  1  0
 25 26  1  0
 26 27  1  0
 27 28  1  0
 28 29  1  0
 23 30  1  0
 30 31  2  0
 19 10  1  0
 31 20  1  0
 18 13  1  0
 29 25  1  0
  1 32  1  0
  1 33  1  0
  1 34  1  0
  2 35  1  6
  3 36  1  0
  6 37  1  0
  6 38  1  0
  7 39  1  0
 11 40  1  0
 12 41  1  0
 14 42  1  0
 15 43  1  0
 16 44  1  0
 17 45  1  0
 21 46  1  0
 22 47  1  0
 25 48  1  0
 26 49  1  0
 26 50  1  0
 27 51  1  0
 27 52  1  0
 28 53  1  0
 28 54  1  0
 29 55  1  0
 29 56  1  0
 30 57  1  0
 31 58  1  0
M  END
>  <smiles>  (42) 
CC(NC(=O)CNC(=O)c1ccc2ccccc2n1)c1ccc(OC2CCCC2)cc1

>  <score_type>  (42) 
oracle

>  <origin>  (42) 
autodockgpu

>  <m_score__min__energy>  (42) 
-9.2300000000000004

>  <m_primary>  (42) 
energy

>  <rmsd>  (42) 
5.01291406440133

>  <m_score__min__rmsd>  (42) 
5.01291406440133

>  <meeko>  (42) 
{"free_energy": -8.73, "intermolecular_energy": -10.82, "internal_energy": -2.38, "cluster_size": 40, "cluster_id": 1, "rank_in_cluster": 18}

>  <energy>  (42) 
-8.75

>  <cluster_rmsd>  (42) 
0.74

>  <cluster>  (42) 
2

$$$$

     RDKit          3D

 58 61  0  0  0  0  0  0  0  0999 V2000
  136.7960   75.8370  222.7520 C   0  0  0  0  0  0  0  0  0  0  0  0
  138.0560   76.0350  221.9850 C   0  0  2  0  0  0  0  0  0  0  0  0
  138.8260   74.8070  221.9740 N   0  0  0  0  0  0  0  0  0  0  0  0
  139.8390   74.5980  221.0090 C   0  0  0  0  0  0  0  0  0  0  0  0
  140.0320   75.5330  220.1810 O   0  0  0  0  0  0  0  0  0  0  0  0
  140.6760   73.4040  220.8940 C   0  0  0  0  0  0  0  0  0  0  0  0
  140.7510   72.5890  222.0800 N   0  0  0  0  0  0  0  0  0  0  0  0
  139.6070   71.9330  222.6160 C   0  0  0  0  0  0  0  0  0  0  0  0
  138.4540   72.0270  222.0690 O   0  0  0  0  0  0  0  0  0  0  0  0
  139.7230   71.1200  223.8280 C   0  0  0  0  0  0  0  0  0  0  0  0
  139.1940   69.8400  223.8720 C   0  0  0  0  0  0  0  0  0  0  0  0
  139.2760   69.0360  224.9870 C   0  0  0  0  0  0  0  0  0  0  0  0
  139.9130   69.5110  226.1260 C   0  0  0  0  0  0  0  0  0  0  0  0
  139.9830   68.6950  227.2160 C   0  0  0  0  0  0  0  0  0  0  0  0
  140.6250   69.1790  228.3600 C   0  0  0  0  0  0  0  0  0  0  0  0
  141.1670   70.4620  228.3480 C   0  0  0  0  0  0  0  0  0  0  0  0
  141.0680   71.2520  227.2050 C   0  0  0  0  0  0  0  0  0  0  0  0
  140.4340   70.7860  226.0640 C   0  0  0  0  0  0  0  0  0  0  0  0
  140.3330   71.5540  224.9430 N   0  0  0  0  0  0  0  0  0  0  0  0
  138.9470   77.0920  222.5240 C   0  0  0  0  0  0  0  0  0  0  0  0
  138.4170   78.2850  222.9230 C   0  0  0  0  0  0  0  0  0  0  0  0
  139.1820   79.3120  223.4320 C   0  0  0  0  0  0  0  0  0  0  0  0
  140.5450   79.1730  223.5620 C   0  0  0  0  0  0  0  0  0  0  0  0
  141.4010   80.1150  224.0500 O   0  0  0  0  0  0  0  0  0  0  0  0
  141.9840   81.1500  223.3150 C   0  0  0  0  0  0  0  0  0  0  0  0
  140.9570   81.8250  222.3960 C   0  0  0  0  0  0  0  0  0  0  0  0
  141.5080   81.6700  220.9940 C   0  0  0  0  0  0  0  0  0  0  0  0
  142.1670   80.2950  221.1240 C   0  0  0  0  0  0  0  0  0  0  0  0
  142.9940   80.4930  222.3790 C   0  0  0  0  0  0  0  0  0  0  0  0
  141.1080   77.9560  223.1590 C   0  0  0  0  0  0  0  0  0  0  0  0
  140.3170   76.9350  222.6490 C   0  0  0  0  0  0  0  0  0  0  0  0
  137.0136   75.8712  223.8297 H   0  0  0  0  0  0  0  0  0  0  0  0
  136.0822   76.6340  222.4966 H   0  0  0  0  0  0  0  0  0  0  0  0
  136.3610   74.8595  222.4966 H   0  0  0  0  0  0  0  0  0  0  0  0
  137.7275   76.3436  220.9816 H   0  0  0  0  0  0  0  0  0  0  0  0
  138.6240   74.0860  222.6930 H   0  0  0  0  0  0  0  0  0  0  0  0
  140.2731   72.7835  220.0800 H   0  0  0  0  0  0  0  0  0  0  0  0
  141.6981   73.7653  220.7076 H   0  0  0  0  0  0  0  0  0  0  0  0
  141.6530   72.4340  222.6120 H   0  0  0  0  0  0  0  0  0  0  0  0
  138.6866   69.4492  222.9776 H   0  0  0  0  0  0  0  0  0  0  0  0
  138.8406   68.0259  224.9756 H   0  0  0  0  0  0  0  0  0  0  0  0
  139.5471   67.6852  227.1960 H   0  0  0  0  0  0  0  0  0  0  0  0
  140.7013   68.5524  229.2609 H   0  0  0  0  0  0  0  0  0  0  0  0
  141.6742   70.8521  229.2428 H   0  0  0  0  0  0  0  0  0  0  0  0
  141.5005   72.2634  227.2080 H   0  0  0  0  0  0  0  0  0  0  0  0
  137.3307   78.4332  222.8343 H   0  0  0  0  0  0  0  0  0  0  0  0
  138.6986   80.2518  223.7373 H   0  0  0  0  0  0  0  0  0  0  0  0
  142.4128   81.8889  224.0079 H   0  0  0  0  0  0  0  0  0  0  0  0
  139.9790   81.3289  222.4821 H   0  0  0  0  0  0  0  0  0  0  0  0
  140.8038   82.8817  222.6606 H   0  0  0  0  0  0  0  0  0  0  0  0
  140.7090   81.6709  220.2380 H   0  0  0  0  0  0  0  0  0  0  0  0
  142.1781   82.4780  220.6654 H   0  0  0  0  0  0  0  0  0  0  0  0
  141.4194   79.4985  221.2534 H   0  0  0  0  0  0  0  0  0  0  0  0
  142.7456   79.9824  220.2422 H   0  0  0  0  0  0  0  0  0  0  0  0
  143.3479   79.5324  222.7816 H   0  0  0  0  0  0  0  0  0  0  0  0
  143.9081   81.0846  222.2225 H   0  0  0  0  0  0  0  0  0  0  0  0
  142.1941   77.8063  223.2478 H   0  0  0  0  0  0  0  0  0  0  0  0
  140.7851   75.9887  222.3401 H   0  0  0  0  0  0  0  0  0  0  0  0
  1  2  1  0
  2  3  1  0
  3  4  1  0
  4  5  2  0
  4  6  1  0
  6  7  1  0
  7  8  1  0
  8  9  2  0
  8 10  1  0
 10 11  2  0
 11 12  1  0
 12 13  2  0
 13 14  1  0
 14 15  2  0
 15 16  1  0
 16 17  2  0
 17 18  1  0
 18 19  2  0
  2 20  1  0
 20 21  2  0
 21 22  1  0
 22 23  2  0
 23 24  1  0
 24 25  1  0
 25 26  1  0
 26 27  1  0
 27 28  1  0
 28 29  1  0
 23 30  1  0
 30 31  2  0
 19 10  1  0
 31 20  1  0
 18 13  1  0
 29 25  1  0
  1 32  1  0
  1 33  1  0
  1 34  1  0
  2 35  1  6
  3 36  1  0
  6 37  1  0
  6 38  1  0
  7 39  1  0
 11 40  1  0
 12 41  1  0
 14 42  1  0
 15 43  1  0
 16 44  1  0
 17 45  1  0
 21 46  1  0
 22 47  1  0
 25 48  1  0
 26 49  1  0
 26 50  1  0
 27 51  1  0
 27 52  1  0
 28 53  1  0
 28 54  1  0
 29 55  1  0
 29 56  1  0
 30 57  1  0
 31 58  1  0
M  END
>  <smiles>  (43) 
CC(NC(=O)CNC(=O)c1ccc2ccccc2n1)c1ccc(OC2CCCC2)cc1

>  <score_type>  (43) 
oracle

>  <origin>  (43) 
autodockgpu

>  <m_score__min__energy>  (43) 
-9.2300000000000004

>  <m_primary>  (43) 
energy

>  <rmsd>  (43) 
5.039132769092123

>  <m_score__min__rmsd>  (43) 
5.039132769092123

>  <meeko>  (43) 
{"free_energy": -8.76, "intermolecular_energy": -10.84, "internal_energy": -1.94, "cluster_size": 40, "cluster_id": 1, "rank_in_cluster": 16}

>  <energy>  (43) 
-8.67

>  <cluster_rmsd>  (43) 
1.3

>  <cluster>  (43) 
2

$$$$

     RDKit          3D

 58 61  0  0  0  0  0  0  0  0999 V2000
  143.6950   75.4190  217.6480 C   0  0  0  0  0  0  0  0  0  0  0  0
  143.0080   75.3380  218.9650 C   0  0  2  0  0  0  0  0  0  0  0  0
  141.9020   74.4040  218.8890 N   0  0  0  0  0  0  0  0  0  0  0  0
  141.5440   73.6150  220.0070 C   0  0  0  0  0  0  0  0  0  0  0  0
  142.2290   73.7780  221.0560 O   0  0  0  0  0  0  0  0  0  0  0  0
  140.4560   72.6390  220.0500 C   0  0  0  0  0  0  0  0  0  0  0  0
  140.4050   71.8260  221.2390 N   0  0  0  0  0  0  0  0  0  0  0  0
  140.1290   72.3830  222.5190 C   0  0  0  0  0  0  0  0  0  0  0  0
  139.9040   73.6320  222.6810 O   0  0  0  0  0  0  0  0  0  0  0  0
  140.0940   71.5250  223.7050 C   0  0  0  0  0  0  0  0  0  0  0  0
  139.5530   70.2520  223.6390 C   0  0  0  0  0  0  0  0  0  0  0  0
  139.4970   69.4070  224.7250 C   0  0  0  0  0  0  0  0  0  0  0  0
  140.0000   69.8320  225.9480 C   0  0  0  0  0  0  0  0  0  0  0  0
  139.9330   68.9760  227.0080 C   0  0  0  0  0  0  0  0  0  0  0  0
  140.4410   69.4100  228.2360 C   0  0  0  0  0  0  0  0  0  0  0  0
  140.9920   70.6860  228.3350 C   0  0  0  0  0  0  0  0  0  0  0  0
  141.0350   71.5180  227.2190 C   0  0  0  0  0  0  0  0  0  0  0  0
  140.5340   71.1020  225.9960 C   0  0  0  0  0  0  0  0  0  0  0  0
  140.5730   71.9110  224.9000 N   0  0  0  0  0  0  0  0  0  0  0  0
  142.4470   76.6240  219.4500 C   0  0  0  0  0  0  0  0  0  0  0  0
  141.7730   76.6630  220.6360 C   0  0  0  0  0  0  0  0  0  0  0  0
  141.2260   77.8200  221.1480 C   0  0  0  0  0  0  0  0  0  0  0  0
  141.3390   79.0100  220.4680 C   0  0  0  0  0  0  0  0  0  0  0  0
  140.8410   80.2130  220.8730 O   0  0  0  0  0  0  0  0  0  0  0  0
  141.3380   80.9920  221.9210 C   0  0  0  0  0  0  0  0  0  0  0  0
  142.7220   80.5030  222.3690 C   0  0  0  0  0  0  0  0  0  0  0  0
  142.5710   80.1570  223.8360 C   0  0  0  0  0  0  0  0  0  0  0  0
  141.1370   79.6230  223.8310 C   0  0  0  0  0  0  0  0  0  0  0  0
  140.4160   80.7450  223.1120 C   0  0  0  0  0  0  0  0  0  0  0  0
  142.0280   78.9900  219.2480 C   0  0  0  0  0  0  0  0  0  0  0  0
  142.5710   77.8130  218.7520 C   0  0  0  0  0  0  0  0  0  0  0  0
  144.7762   75.5465  217.8057 H   0  0  0  0  0  0  0  0  0  0  0  0
  143.5136   74.4932  217.0823 H   0  0  0  0  0  0  0  0  0  0  0  0
  143.3033   76.2772  217.0823 H   0  0  0  0  0  0  0  0  0  0  0  0
  143.7906   75.0194  219.6692 H   0  0  0  0  0  0  0  0  0  0  0  0
  141.3730   74.3300  217.9980 H   0  0  0  0  0  0  0  0  0  0  0  0
  139.5051   73.1863  219.9714 H   0  0  0  0  0  0  0  0  0  0  0  0
  140.6357   71.9459  219.2149 H   0  0  0  0  0  0  0  0  0  0  0  0
  140.5690   70.7800  221.2250 H   0  0  0  0  0  0  0  0  0  0  0  0
  139.1505   69.9005  222.6775 H   0  0  0  0  0  0  0  0  0  0  0  0
  139.0575   68.4036  224.6247 H   0  0  0  0  0  0  0  0  0  0  0  0
  139.4923   67.9740  226.8997 H   0  0  0  0  0  0  0  0  0  0  0  0
  140.4061   68.7505  229.1157 H   0  0  0  0  0  0  0  0  0  0  0  0
  141.3940   71.0370  229.2969 H   0  0  0  0  0  0  0  0  0  0  0  0
  141.4742   72.5224  227.3100 H   0  0  0  0  0  0  0  0  0  0  0  0
  141.6614   75.7303  221.2084 H   0  0  0  0  0  0  0  0  0  0  0  0
  140.6937   77.7912  222.1102 H   0  0  0  0  0  0  0  0  0  0  0  0
  141.3966   82.0411  221.5954 H   0  0  0  0  0  0  0  0  0  0  0  0
  143.0215   79.6150  221.7930 H   0  0  0  0  0  0  0  0  0  0  0  0
  143.4977   81.2657  222.2064 H   0  0  0  0  0  0  0  0  0  0  0  0
  143.2925   79.3890  224.1516 H   0  0  0  0  0  0  0  0  0  0  0  0
  142.7554   80.9888  224.5317 H   0  0  0  0  0  0  0  0  0  0  0  0
  141.0606   78.6744  223.2794 H   0  0  0  0  0  0  0  0  0  0  0  0
  140.7353   79.3902  224.8282 H   0  0  0  0  0  0  0  0  0  0  0  0
  139.4133   80.4326  222.7849 H   0  0  0  0  0  0  0  0  0  0  0  0
  140.2422   81.6352  223.7344 H   0  0  0  0  0  0  0  0  0  0  0  0
  142.1403   79.9218  218.6744 H   0  0  0  0  0  0  0  0  0  0  0  0
  143.1070   77.8251  217.7915 H   0  0  0  0  0  0  0  0  0  0  0  0
  1  2  1  0
  2  3  1  0
  3  4  1  0
  4  5  2  0
  4  6  1  0
  6  7  1  0
  7  8  1  0
  8  9  2  0
  8 10  1  0
 10 11  2  0
 11 12  1  0
 12 13  2  0
 13 14  1  0
 14 15  2  0
 15 16  1  0
 16 17  2  0
 17 18  1  0
 18 19  2  0
  2 20  1  0
 20 21  2  0
 21 22  1  0
 22 23  2  0
 23 24  1  0
 24 25  1  0
 25 26  1  0
 26 27  1  0
 27 28  1  0
 28 29  1  0
 23 30  1  0
 30 31  2  0
 19 10  1  0
 31 20  1  0
 18 13  1  0
 29 25  1  0
  1 32  1  0
  1 33  1  0
  1 34  1  0
  2 35  1  1
  3 36  1  0
  6 37  1  0
  6 38  1  0
  7 39  1  0
 11 40  1  0
 12 41  1  0
 14 42  1  0
 15 43  1  0
 16 44  1  0
 17 45  1  0
 21 46  1  0
 22 47  1  0
 25 48  1  0
 26 49  1  0
 26 50  1  0
 27 51  1  0
 27 52  1  0
 28 53  1  0
 28 54  1  0
 29 55  1  0
 29 56  1  0
 30 57  1  0
 31 58  1  0
M  END
>  <smiles>  (44) 
CC(NC(=O)CNC(=O)c1ccc2ccccc2n1)c1ccc(OC2CCCC2)cc1

>  <score_type>  (44) 
oracle

>  <origin>  (44) 
autodockgpu

>  <m_score__min__energy>  (44) 
-9.2300000000000004

>  <m_primary>  (44) 
energy

>  <rmsd>  (44) 
4.940590595634069

>  <m_score__min__rmsd>  (44) 
4.940590595634069

>  <meeko>  (44) 
{"free_energy": -8.75, "intermolecular_energy": -10.84, "internal_energy": -1.34, "cluster_size": 6, "cluster_id": 2, "rank_in_cluster": 2}

>  <energy>  (44) 
-8.45

>  <cluster_rmsd>  (44) 
1.28

>  <cluster>  (44) 
2

$$$$

     RDKit          3D

 58 61  0  0  0  0  0  0  0  0999 V2000
  136.3770   75.9300  222.9050 C   0  0  0  0  0  0  0  0  0  0  0  0
  137.5900   75.8050  222.0510 C   0  0  2  0  0  0  0  0  0  0  0  0
  138.0790   74.4410  222.0850 N   0  0  0  0  0  0  0  0  0  0  0  0
  137.5520   73.4630  221.2110 C   0  0  0  0  0  0  0  0  0  0  0  0
  136.6530   73.8450  220.4110 O   0  0  0  0  0  0  0  0  0  0  0  0
  137.9610   72.0590  221.1550 C   0  0  0  0  0  0  0  0  0  0  0  0
  138.3520   71.4810  222.4150 N   0  0  0  0  0  0  0  0  0  0  0  0
  139.5290   71.8980  223.1010 C   0  0  0  0  0  0  0  0  0  0  0  0
  140.2950   72.8110  222.6370 O   0  0  0  0  0  0  0  0  0  0  0  0
  139.8970   71.2800  224.3760 C   0  0  0  0  0  0  0  0  0  0  0  0
  140.7960   71.9020  225.2270 C   0  0  0  0  0  0  0  0  0  0  0  0
  141.1750   71.3630  226.4360 C   0  0  0  0  0  0  0  0  0  0  0  0
  140.6440   70.1440  226.8370 C   0  0  0  0  0  0  0  0  0  0  0  0
  141.0350   69.6320  228.0390 C   0  0  0  0  0  0  0  0  0  0  0  0
  140.4970   68.4040  228.4360 C   0  0  0  0  0  0  0  0  0  0  0  0
  139.5900   67.7530  227.6030 C   0  0  0  0  0  0  0  0  0  0  0  0
  139.2260   68.3230  226.3860 C   0  0  0  0  0  0  0  0  0  0  0  0
  139.7520   69.5390  225.9780 C   0  0  0  0  0  0  0  0  0  0  0  0
  139.3990   70.1020  224.7880 N   0  0  0  0  0  0  0  0  0  0  0  0
  138.7220   76.6750  222.4550 C   0  0  0  0  0  0  0  0  0  0  0  0
  138.4720   77.9150  222.9700 C   0  0  0  0  0  0  0  0  0  0  0  0
  139.4720   78.7770  223.3650 C   0  0  0  0  0  0  0  0  0  0  0  0
  140.7950   78.4150  223.2540 C   0  0  0  0  0  0  0  0  0  0  0  0
  141.8660   79.1790  223.6110 O   0  0  0  0  0  0  0  0  0  0  0  0
  142.4260   80.2080  222.8490 C   0  0  0  0  0  0  0  0  0  0  0  0
  141.8430   81.5710  223.2430 C   0  0  0  0  0  0  0  0  0  0  0  0
  141.2270   82.1270  221.9750 C   0  0  0  0  0  0  0  0  0  0  0  0
  140.7230   80.8290  221.3400 C   0  0  0  0  0  0  0  0  0  0  0  0
  141.9710   79.9720  221.4110 C   0  0  0  0  0  0  0  0  0  0  0  0
  141.0720   77.1460  222.7280 C   0  0  0  0  0  0  0  0  0  0  0  0
  140.0480   76.2940  222.3370 C   0  0  0  0  0  0  0  0  0  0  0  0
  136.6700   75.8998  223.9648 H   0  0  0  0  0  0  0  0  0  0  0  0
  135.8744   76.8847  222.6906 H   0  0  0  0  0  0  0  0  0  0  0  0
  135.6903   75.0979  222.6906 H   0  0  0  0  0  0  0  0  0  0  0  0
  137.2609   76.1171  221.0489 H   0  0  0  0  0  0  0  0  0  0  0  0
  138.8310   74.1990  222.7590 H   0  0  0  0  0  0  0  0  0  0  0  0
  137.1167   71.4746  220.7605 H   0  0  0  0  0  0  0  0  0  0  0  0
  138.8555   72.0281  220.5156 H   0  0  0  0  0  0  0  0  0  0  0  0
  137.7920   70.7230  222.8970 H   0  0  0  0  0  0  0  0  0  0  0  0
  141.2256   72.8682  224.9237 H   0  0  0  0  0  0  0  0  0  0  0  0
  141.8926   71.8936  227.0791 H   0  0  0  0  0  0  0  0  0  0  0  0
  141.7522   70.1691  228.6771 H   0  0  0  0  0  0  0  0  0  0  0  0
  140.7874   67.9559  229.3977 H   0  0  0  0  0  0  0  0  0  0  0  0
  139.1606   66.7870  227.9072 H   0  0  0  0  0  0  0  0  0  0  0  0
  138.5086   67.7994  225.7370 H   0  0  0  0  0  0  0  0  0  0  0  0
  137.4263   78.2400  223.0741 H   0  0  0  0  0  0  0  0  0  0  0  0
  139.2101   79.7643  223.7731 H   0  0  0  0  0  0  0  0  0  0  0  0
  143.5169   80.2103  222.9904 H   0  0  0  0  0  0  0  0  0  0  0  0
  141.0764   81.4508  224.0227 H   0  0  0  0  0  0  0  0  0  0  0  0
  142.6124   82.2421  223.6523 H   0  0  0  0  0  0  0  0  0  0  0  0
  140.4034   82.8233  222.1915 H   0  0  0  0  0  0  0  0  0  0  0  0
  141.9092   82.7183  221.3466 H   0  0  0  0  0  0  0  0  0  0  0  0
  139.8972   80.3896  221.9188 H   0  0  0  0  0  0  0  0  0  0  0  0
  140.3108   80.9487  220.3272 H   0  0  0  0  0  0  0  0  0  0  0  0
  141.7400   78.9115  221.2323 H   0  0  0  0  0  0  0  0  0  0  0  0
  142.7296   80.2238  220.6552 H   0  0  0  0  0  0  0  0  0  0  0  0
  142.1173   76.8198  222.6233 H   0  0  0  0  0  0  0  0  0  0  0  0
  140.2934   75.3028  221.9279 H   0  0  0  0  0  0  0  0  0  0  0  0
  1  2  1  0
  2  3  1  0
  3  4  1  0
  4  5  2  0
  4  6  1  0
  6  7  1  0
  7  8  1  0
  8  9  2  0
  8 10  1  0
 10 11  2  0
 11 12  1  0
 12 13  2  0
 13 14  1  0
 14 15  2  0
 15 16  1  0
 16 17  2  0
 17 18  1  0
 18 19  2  0
  2 20  1  0
 20 21  2  0
 21 22  1  0
 22 23  2  0
 23 24  1  0
 24 25  1  0
 25 26  1  0
 26 27  1  0
 27 28  1  0
 28 29  1  0
 23 30  1  0
 30 31  2  0
 19 10  1  0
 31 20  1  0
 18 13  1  0
 29 25  1  0
  1 32  1  0
  1 33  1  0
  1 34  1  0
  2 35  1  6
  3 36  1  0
  6 37  1  0
  6 38  1  0
  7 39  1  0
 11 40  1  0
 12 41  1  0
 14 42  1  0
 15 43  1  0
 16 44  1  0
 17 45  1  0
 21 46  1  0
 22 47  1  0
 25 48  1  0
 26 49  1  0
 26 50  1  0
 27 51  1  0
 27 52  1  0
 28 53  1  0
 28 54  1  0
 29 55  1  0
 29 56  1  0
 30 57  1  0
 31 58  1  0
M  END
>  <smiles>  (45) 
CC(NC(=O)CNC(=O)c1ccc2ccccc2n1)c1ccc(OC2CCCC2)cc1

>  <score_type>  (45) 
oracle

>  <origin>  (45) 
autodockgpu

>  <m_score__min__energy>  (45) 
-9.2300000000000004

>  <m_primary>  (45) 
energy

>  <rmsd>  (45) 
5.265072296288368

>  <m_score__min__rmsd>  (45) 
5.265072296288368

>  <meeko>  (45) 
{"free_energy": -8.91, "intermolecular_energy": -11.0, "internal_energy": -2.3, "cluster_size": 40, "cluster_id": 1, "rank_in_cluster": 13}

>  <energy>  (45) 
-8.41

>  <cluster_rmsd>  (45) 
1.32

>  <cluster>  (45) 
2

$$$$

     RDKit          3D

 58 61  0  0  0  0  0  0  0  0999 V2000
  141.8590   74.4490  218.9420 C   0  0  0  0  0  0  0  0  0  0  0  0
  141.7230   74.6570  220.4090 C   0  0  2  0  0  0  0  0  0  0  0  0
  140.7060   73.7730  220.9420 N   0  0  0  0  0  0  0  0  0  0  0  0
  139.3420   73.9630  220.6190 C   0  0  0  0  0  0  0  0  0  0  0  0
  139.0740   74.9270  219.8480 O   0  0  0  0  0  0  0  0  0  0  0  0
  138.2290   73.1440  221.0970 C   0  0  0  0  0  0  0  0  0  0  0  0
  138.4580   72.4630  222.3460 N   0  0  0  0  0  0  0  0  0  0  0  0
  139.4110   71.4120  222.4660 C   0  0  0  0  0  0  0  0  0  0  0  0
  140.1180   71.0220  221.4730 O   0  0  0  0  0  0  0  0  0  0  0  0
  139.6090   70.7380  223.7510 C   0  0  0  0  0  0  0  0  0  0  0  0
  139.2430   69.4120  223.9160 C   0  0  0  0  0  0  0  0  0  0  0  0
  139.4080   68.7340  225.1030 C   0  0  0  0  0  0  0  0  0  0  0  0
  139.9640   69.3910  226.1930 C   0  0  0  0  0  0  0  0  0  0  0  0
  140.1180   68.6970  227.3570 C   0  0  0  0  0  0  0  0  0  0  0  0
  140.6780   69.3640  228.4500 C   0  0  0  0  0  0  0  0  0  0  0  0
  141.0570   70.6980  228.3170 C   0  0  0  0  0  0  0  0  0  0  0  0
  140.8770   71.3570  227.1040 C   0  0  0  0  0  0  0  0  0  0  0  0
  140.3220   70.7090  226.0110 C   0  0  0  0  0  0  0  0  0  0  0  0
  140.1440   71.3490  224.8210 N   0  0  0  0  0  0  0  0  0  0  0  0
  141.3410   76.0350  220.8050 C   0  0  0  0  0  0  0  0  0  0  0  0
  141.3480   77.0320  219.8730 C   0  0  0  0  0  0  0  0  0  0  0  0
  141.0060   78.3350  220.1670 C   0  0  0  0  0  0  0  0  0  0  0  0
  140.6340   78.6910  221.4430 C   0  0  0  0  0  0  0  0  0  0  0  0
  140.2760   79.9420  221.8510 O   0  0  0  0  0  0  0  0  0  0  0  0
  141.1460   80.9280  222.3210 C   0  0  0  0  0  0  0  0  0  0  0  0
  142.6050   80.5880  221.9890 C   0  0  0  0  0  0  0  0  0  0  0  0
  143.3190   80.5300  223.3230 C   0  0  0  0  0  0  0  0  0  0  0  0
  142.2000   79.9530  224.1930 C   0  0  0  0  0  0  0  0  0  0  0  0
  141.0570   80.8860  223.8450 C   0  0  0  0  0  0  0  0  0  0  0  0
  140.6200   77.6810  222.4140 C   0  0  0  0  0  0  0  0  0  0  0  0
  140.9690   76.3760  222.0940 C   0  0  0  0  0  0  0  0  0  0  0  0
  142.4520   73.5419  218.7537 H   0  0  0  0  0  0  0  0  0  0  0  0
  140.8610   74.3342  218.4939 H   0  0  0  0  0  0  0  0  0  0  0  0
  142.3645   75.3171  218.4939 H   0  0  0  0  0  0  0  0  0  0  0  0
  142.7245   74.4506  220.8143 H   0  0  0  0  0  0  0  0  0  0  0  0
  140.9990   72.9920  221.5600 H   0  0  0  0  0  0  0  0  0  0  0  0
  137.3543   73.7991  221.2224 H   0  0  0  0  0  0  0  0  0  0  0  0
  138.0850   72.3563  220.3428 H   0  0  0  0  0  0  0  0  0  0  0  0
  137.9360   72.7040  223.2350 H   0  0  0  0  0  0  0  0  0  0  0  0
  138.8015   68.8778  223.0618 H   0  0  0  0  0  0  0  0  0  0  0  0
  139.1020   67.6808  225.1873 H   0  0  0  0  0  0  0  0  0  0  0  0
  139.8106   67.6436  227.4332 H   0  0  0  0  0  0  0  0  0  0  0  0
  140.8183   68.8402  229.4071 H   0  0  0  0  0  0  0  0  0  0  0  0
  141.4991   71.2313  229.1715 H   0  0  0  0  0  0  0  0  0  0  0  0
  141.1804   72.4102  227.0110 H   0  0  0  0  0  0  0  0  0  0  0  0
  141.6394   76.7851  218.8414 H   0  0  0  0  0  0  0  0  0  0  0  0
  141.0308   79.0970  219.3741 H   0  0  0  0  0  0  0  0  0  0  0  0
  140.8734   81.8940  221.8710 H   0  0  0  0  0  0  0  0  0  0  0  0
  142.6666   79.6163  221.4771 H   0  0  0  0  0  0  0  0  0  0  0  0
  143.0553   81.3329  221.3165 H   0  0  0  0  0  0  0  0  0  0  0  0
  144.1950   79.8655  223.2895 H   0  0  0  0  0  0  0  0  0  0  0  0
  143.7320   81.4881  223.6715 H   0  0  0  0  0  0  0  0  0  0  0  0
  141.9705   78.9126  223.9193 H   0  0  0  0  0  0  0  0  0  0  0  0
  142.4372   79.9052  225.2660 H   0  0  0  0  0  0  0  0  0  0  0  0
  140.0912   80.4793  224.1794 H   0  0  0  0  0  0  0  0  0  0  0  0
  141.1248   81.8739  224.3240 H   0  0  0  0  0  0  0  0  0  0  0  0
  140.3279   77.9259  223.4459 H   0  0  0  0  0  0  0  0  0  0  0  0
  140.9496   75.6022  222.8756 H   0  0  0  0  0  0  0  0  0  0  0  0
  1  2  1  0
  2  3  1  0
  3  4  1  0
  4  5  2  0
  4  6  1  0
  6  7  1  0
  7  8  1  0
  8  9  2  0
  8 10  1  0
 10 11  2  0
 11 12  1  0
 12 13  2  0
 13 14  1  0
 14 15  2  0
 15 16  1  0
 16 17  2  0
 17 18  1  0
 18 19  2  0
  2 20  1  0
 20 21  2  0
 21 22  1  0
 22 23  2  0
 23 24  1  0
 24 25  1  0
 25 26  1  0
 26 27  1  0
 27 28  1  0
 28 29  1  0
 23 30  1  0
 30 31  2  0
 19 10  1  0
 31 20  1  0
 18 13  1  0
 29 25  1  0
  1 32  1  0
  1 33  1  0
  1 34  1  0
  2 35  1  1
  3 36  1  0
  6 37  1  0
  6 38  1  0
  7 39  1  0
 11 40  1  0
 12 41  1  0
 14 42  1  0
 15 43  1  0
 16 44  1  0
 17 45  1  0
 21 46  1  0
 22 47  1  0
 25 48  1  0
 26 49  1  0
 26 50  1  0
 27 51  1  0
 27 52  1  0
 28 53  1  0
 28 54  1  0
 29 55  1  0
 29 56  1  0
 30 57  1  0
 31 58  1  0
M  END
>  <smiles>  (46) 
CC(NC(=O)CNC(=O)c1ccc2ccccc2n1)c1ccc(OC2CCCC2)cc1

>  <score_type>  (46) 
oracle

>  <origin>  (46) 
autodockgpu

>  <m_score__min__energy>  (46) 
-9.2300000000000004

>  <m_primary>  (46) 
energy

>  <rmsd>  (46) 
5.146996908170688

>  <m_score__min__rmsd>  (46) 
5.146996908170688

>  <meeko>  (46) 
{"free_energy": -8.11, "intermolecular_energy": -10.2, "internal_energy": -2.1, "cluster_size": 40, "cluster_id": 1, "rank_in_cluster": 39}

>  <energy>  (46) 
-8.13

>  <cluster_rmsd>  (46) 
1.98

>  <cluster>  (46) 
2

$$$$

     RDKit          3D

 58 61  0  0  0  0  0  0  0  0999 V2000
  136.3910   75.5470  222.6120 C   0  0  0  0  0  0  0  0  0  0  0  0
  137.6560   75.4710  221.8320 C   0  0  2  0  0  0  0  0  0  0  0  0
  138.2220   74.1400  221.9370 N   0  0  0  0  0  0  0  0  0  0  0  0
  138.1690   73.2450  220.8440 C   0  0  0  0  0  0  0  0  0  0  0  0
  137.6170   73.6710  219.7900 O   0  0  0  0  0  0  0  0  0  0  0  0
  138.6990   71.8820  220.8300 C   0  0  0  0  0  0  0  0  0  0  0  0
  138.9740   71.3150  222.1260 N   0  0  0  0  0  0  0  0  0  0  0  0
  139.9410   71.8820  223.0040 C   0  0  0  0  0  0  0  0  0  0  0  0
  140.6110   72.9260  222.6920 O   0  0  0  0  0  0  0  0  0  0  0  0
  140.1980   71.2720  224.3100 C   0  0  0  0  0  0  0  0  0  0  0  0
  141.0160   71.9020  225.2330 C   0  0  0  0  0  0  0  0  0  0  0  0
  141.2900   71.3700  226.4740 C   0  0  0  0  0  0  0  0  0  0  0  0
  140.7290   70.1520  226.8340 C   0  0  0  0  0  0  0  0  0  0  0  0
  141.0140   69.6470  228.0680 C   0  0  0  0  0  0  0  0  0  0  0  0
  140.4470   68.4190  228.4230 C   0  0  0  0  0  0  0  0  0  0  0  0
  139.6200   67.7610  227.5170 C   0  0  0  0  0  0  0  0  0  0  0  0
  139.3620   68.3230  226.2700 C   0  0  0  0  0  0  0  0  0  0  0  0
  139.9180   69.5390  225.9030 C   0  0  0  0  0  0  0  0  0  0  0  0
  139.6700   70.0940  224.6840 N   0  0  0  0  0  0  0  0  0  0  0  0
  138.7100   76.4180  222.2720 C   0  0  0  0  0  0  0  0  0  0  0  0
  140.0210   76.0400  222.2250 C   0  0  0  0  0  0  0  0  0  0  0  0
  141.0520   76.8670  222.6170 C   0  0  0  0  0  0  0  0  0  0  0  0
  140.7970   78.1360  223.0820 C   0  0  0  0  0  0  0  0  0  0  0  0
  141.7300   79.0390  223.4960 O   0  0  0  0  0  0  0  0  0  0  0  0
  142.3850   79.9680  222.6840 C   0  0  0  0  0  0  0  0  0  0  0  0
  142.0560   81.4060  223.1100 C   0  0  0  0  0  0  0  0  0  0  0  0
  141.4390   82.0560  221.8890 C   0  0  0  0  0  0  0  0  0  0  0  0
  140.6880   80.8560  221.3060 C   0  0  0  0  0  0  0  0  0  0  0  0
  141.7880   79.8120  221.2880 C   0  0  0  0  0  0  0  0  0  0  0  0
  139.4570   78.5420  223.1370 C   0  0  0  0  0  0  0  0  0  0  0  0
  138.4340   77.6930  222.7370 C   0  0  0  0  0  0  0  0  0  0  0  0
  136.6219   75.5331  223.6874 H   0  0  0  0  0  0  0  0  0  0  0  0
  135.8619   76.4786  222.3626 H   0  0  0  0  0  0  0  0  0  0  0  0
  135.7541   74.6855  222.3626 H   0  0  0  0  0  0  0  0  0  0  0  0
  137.3675   75.7341  220.8036 H   0  0  0  0  0  0  0  0  0  0  0  0
  138.6730   73.8610  222.8290 H   0  0  0  0  0  0  0  0  0  0  0  0
  137.9645   71.2369  220.3257 H   0  0  0  0  0  0  0  0  0  0  0  0
  139.6670   71.9373  220.3105 H   0  0  0  0  0  0  0  0  0  0  0  0
  138.4770   70.4560  222.4930 H   0  0  0  0  0  0  0  0  0  0  0  0
  141.4664   72.8688  224.9637 H   0  0  0  0  0  0  0  0  0  0  0  0
  141.9479   71.9059  227.1740 H   0  0  0  0  0  0  0  0  0  0  0  0
  141.6707   70.1896  228.7639 H   0  0  0  0  0  0  0  0  0  0  0  0
  140.6526   67.9771  229.4091 H   0  0  0  0  0  0  0  0  0  0  0  0
  139.1693   66.7946  227.7872 H   0  0  0  0  0  0  0  0  0  0  0  0
  138.7058   67.7934  225.5636 H   0  0  0  0  0  0  0  0  0  0  0  0
  140.2652   75.0320  221.8585 H   0  0  0  0  0  0  0  0  0  0  0  0
  142.0900   76.5080  222.5572 H   0  0  0  0  0  0  0  0  0  0  0  0
  143.4702   79.7970  222.7405 H   0  0  0  0  0  0  0  0  0  0  0  0
  141.3429   81.4057  223.9476 H   0  0  0  0  0  0  0  0  0  0  0  0
  142.9509   81.9460  223.4527 H   0  0  0  0  0  0  0  0  0  0  0  0
  140.7551   82.8731  222.1622 H   0  0  0  0  0  0  0  0  0  0  0  0
  142.1553   82.5338  221.2044 H   0  0  0  0  0  0  0  0  0  0  0  0
  139.8508   80.5505  221.9508 H   0  0  0  0  0  0  0  0  0  0  0  0
  140.2220   81.0428  220.3272 H   0  0  0  0  0  0  0  0  0  0  0  0
  141.3797   78.8018  221.1370 H   0  0  0  0  0  0  0  0  0  0  0  0
  142.5157   79.9438  220.4737 H   0  0  0  0  0  0  0  0  0  0  0  0
  139.2116   79.5499  223.5031 H   0  0  0  0  0  0  0  0  0  0  0  0
  137.3907   78.0375  222.7901 H   0  0  0  0  0  0  0  0  0  0  0  0
  1  2  1  0
  2  3  1  0
  3  4  1  0
  4  5  2  0
  4  6  1  0
  6  7  1  0
  7  8  1  0
  8  9  2  0
  8 10  1  0
 10 11  2  0
 11 12  1  0
 12 13  2  0
 13 14  1  0
 14 15  2  0
 15 16  1  0
 16 17  2  0
 17 18  1  0
 18 19  2  0
  2 20  1  0
 20 21  2  0
 21 22  1  0
 22 23  2  0
 23 24  1  0
 24 25  1  0
 25 26  1  0
 26 27  1  0
 27 28  1  0
 28 29  1  0
 23 30  1  0
 30 31  2  0
 19 10  1  0
 31 20  1  0
 18 13  1  0
 29 25  1  0
  1 32  1  0
  1 33  1  0
  1 34  1  0
  2 35  1  6
  3 36  1  0
  6 37  1  0
  6 38  1  0
  7 39  1  0
 11 40  1  0
 12 41  1  0
 14 42  1  0
 15 43  1  0
 16 44  1  0
 17 45  1  0
 21 46  1  0
 22 47  1  0
 25 48  1  0
 26 49  1  0
 26 50  1  0
 27 51  1  0
 27 52  1  0
 28 53  1  0
 28 54  1  0
 29 55  1  0
 29 56  1  0
 30 57  1  0
 31 58  1  0
M  END
>  <smiles>  (47) 
CC(NC(=O)CNC(=O)c1ccc2ccccc2n1)c1ccc(OC2CCCC2)cc1

>  <score_type>  (47) 
oracle

>  <origin>  (47) 
autodockgpu

>  <m_score__min__energy>  (47) 
-9.2300000000000004

>  <m_primary>  (47) 
energy

>  <rmsd>  (47) 
5.397623541341031

>  <m_score__min__rmsd>  (47) 
5.397623541341031

>  <meeko>  (47) 
{"free_energy": -8.96, "intermolecular_energy": -11.05, "internal_energy": -2.42, "cluster_size": 40, "cluster_id": 1, "rank_in_cluster": 8}

>  <energy>  (47) 
-8.99

>  <cluster_rmsd>  (47) 
0.0

>  <cluster>  (47) 
3

$$$$

     RDKit          3D

 58 61  0  0  0  0  0  0  0  0999 V2000
  136.4280   76.0240  223.0680 C   0  0  0  0  0  0  0  0  0  0  0  0
  137.5860   76.0270  222.1340 C   0  0  2  0  0  0  0  0  0  0  0  0
  138.1420   74.6920  222.0310 N   0  0  0  0  0  0  0  0  0  0  0  0
  137.9630   73.9230  220.8580 C   0  0  0  0  0  0  0  0  0  0  0  0
  137.3100   74.4640  219.9220 O   0  0  0  0  0  0  0  0  0  0  0  0
  138.4700   72.5690  220.6390 C   0  0  0  0  0  0  0  0  0  0  0  0
  138.7400   71.8120  221.8350 N   0  0  0  0  0  0  0  0  0  0  0  0
  139.7470   72.2030  222.7620 C   0  0  0  0  0  0  0  0  0  0  0  0
  140.4610   73.2500  222.5850 O   0  0  0  0  0  0  0  0  0  0  0  0
  139.9970   71.4030  223.9630 C   0  0  0  0  0  0  0  0  0  0  0  0
  140.7480   71.9140  225.0070 C   0  0  0  0  0  0  0  0  0  0  0  0
  141.0110   71.2020  226.1570 C   0  0  0  0  0  0  0  0  0  0  0  0
  140.5100   69.9140  226.2920 C   0  0  0  0  0  0  0  0  0  0  0  0
  140.7830   69.2310  227.4400 C   0  0  0  0  0  0  0  0  0  0  0  0
  140.2760   67.9340  227.5700 C   0  0  0  0  0  0  0  0  0  0  0  0
  139.5160   67.3910  226.5360 C   0  0  0  0  0  0  0  0  0  0  0  0
  139.2680   68.1350  225.3860 C   0  0  0  0  0  0  0  0  0  0  0  0
  139.7650   69.4210  225.2430 C   0  0  0  0  0  0  0  0  0  0  0  0
  139.5240   70.1540  224.1200 N   0  0  0  0  0  0  0  0  0  0  0  0
  138.6990   76.9230  222.5330 C   0  0  0  0  0  0  0  0  0  0  0  0
  139.9900   76.5100  222.3730 C   0  0  0  0  0  0  0  0  0  0  0  0
  141.0740   77.2870  222.7220 C   0  0  0  0  0  0  0  0  0  0  0  0
  140.8940   78.5420  223.2570 C   0  0  0  0  0  0  0  0  0  0  0  0
  141.8840   79.3980  223.6380 O   0  0  0  0  0  0  0  0  0  0  0  0
  142.4590   80.3900  222.8400 C   0  0  0  0  0  0  0  0  0  0  0  0
  141.7920   81.7510  223.0790 C   0  0  0  0  0  0  0  0  0  0  0  0
  141.2540   82.1780  221.7290 C   0  0  0  0  0  0  0  0  0  0  0  0
  140.8530   80.8130  221.1640 C   0  0  0  0  0  0  0  0  0  0  0  0
  142.1260   80.0230  221.3960 C   0  0  0  0  0  0  0  0  0  0  0  0
  139.5750   78.9840  223.4280 C   0  0  0  0  0  0  0  0  0  0  0  0
  138.4990   78.1830  223.0700 C   0  0  0  0  0  0  0  0  0  0  0  0
  136.7937   76.0249  224.1054 H   0  0  0  0  0  0  0  0  0  0  0  0
  135.8147   76.9206  222.8946 H   0  0  0  0  0  0  0  0  0  0  0  0
  135.8194   75.1243  222.8946 H   0  0  0  0  0  0  0  0  0  0  0  0
  137.1762   76.3947  221.1817 H   0  0  0  0  0  0  0  0  0  0  0  0
  138.6800   74.3140  222.8350 H   0  0  0  0  0  0  0  0  0  0  0  0
  137.7230   72.0176  220.0491 H   0  0  0  0  0  0  0  0  0  0  0  0
  139.4369   72.6851  220.1275 H   0  0  0  0  0  0  0  0  0  0  0  0
  138.2080   70.9320  222.0890 H   0  0  0  0  0  0  0  0  0  0  0  0
  141.1525   72.9328  224.9148 H   0  0  0  0  0  0  0  0  0  0  0  0
  141.6128   71.6502  226.9614 H   0  0  0  0  0  0  0  0  0  0  0  0
  141.3844   69.6867  228.2405 H   0  0  0  0  0  0  0  0  0  0  0  0
  140.4752   67.3483  228.4796 H   0  0  0  0  0  0  0  0  0  0  0  0
  139.1112   66.3724  226.6287 H   0  0  0  0  0  0  0  0  0  0  0  0
  138.6671   67.6947  224.5766 H   0  0  0  0  0  0  0  0  0  0  0  0
  140.1737   75.5128  221.9466 H   0  0  0  0  0  0  0  0  0  0  0  0
  142.0926   76.9001  222.5714 H   0  0  0  0  0  0  0  0  0  0  0  0
  143.5346   80.4542  223.0611 H   0  0  0  0  0  0  0  0  0  0  0  0
  140.9729   81.6556  223.8070 H   0  0  0  0  0  0  0  0  0  0  0  0
  142.4995   82.4869  223.4887 H   0  0  0  0  0  0  0  0  0  0  0  0
  140.3888   82.8500  221.8275 H   0  0  0  0  0  0  0  0  0  0  0  0
  141.9586   82.7498  221.1073 H   0  0  0  0  0  0  0  0  0  0  0  0
  140.0032   80.3815  221.7133 H   0  0  0  0  0  0  0  0  0  0  0  0
  140.5157   80.8352  220.1172 H   0  0  0  0  0  0  0  0  0  0  0  0
  141.9528   78.9422  221.2867 H   0  0  0  0  0  0  0  0  0  0  0  0
  142.9298   80.2511  220.6805 H   0  0  0  0  0  0  0  0  0  0  0  0
  139.3893   79.9816  223.8527 H   0  0  0  0  0  0  0  0  0  0  0  0
  137.4739   78.5546  223.2151 H   0  0  0  0  0  0  0  0  0  0  0  0
  1  2  1  0
  2  3  1  0
  3  4  1  0
  4  5  2  0
  4  6  1  0
  6  7  1  0
  7  8  1  0
  8  9  2  0
  8 10  1  0
 10 11  2  0
 11 12  1  0
 12 13  2  0
 13 14  1  0
 14 15  2  0
 15 16  1  0
 16 17  2  0
 17 18  1  0
 18 19  2  0
  2 20  1  0
 20 21  2  0
 21 22  1  0
 22 23  2  0
 23 24  1  0
 24 25  1  0
 25 26  1  0
 26 27  1  0
 27 28  1  0
 28 29  1  0
 23 30  1  0
 30 31  2  0
 19 10  1  0
 31 20  1  0
 18 13  1  0
 29 25  1  0
  1 32  1  0
  1 33  1  0
  1 34  1  0
  2 35  1  6
  3 36  1  0
  6 37  1  0
  6 38  1  0
  7 39  1  0
 11 40  1  0
 12 41  1  0
 14 42  1  0
 15 43  1  0
 16 44  1  0
 17 45  1  0
 21 46  1  0
 22 47  1  0
 25 48  1  0
 26 49  1  0
 26 50  1  0
 27 51  1  0
 27 52  1  0
 28 53  1  0
 28 54  1  0
 29 55  1  0
 29 56  1  0
 30 57  1  0
 31 58  1  0
M  END
>  <smiles>  (48) 
CC(NC(=O)CNC(=O)c1ccc2ccccc2n1)c1ccc(OC2CCCC2)cc1

>  <score_type>  (48) 
oracle

>  <origin>  (48) 
autodockgpu

>  <m_score__min__energy>  (48) 
-9.2300000000000004

>  <m_primary>  (48) 
energy

>  <rmsd>  (48) 
5.064759575783671

>  <m_score__min__rmsd>  (48) 
5.064759575783671

>  <meeko>  (48) 
{"free_energy": -9.03, "intermolecular_energy": -11.12, "internal_energy": -2.38, "cluster_size": 40, "cluster_id": 1, "rank_in_cluster": 7}

>  <energy>  (48) 
-8.79

>  <cluster_rmsd>  (48) 
0.62

>  <cluster>  (48) 
3

$$$$

     RDKit          3D

 58 61  0  0  0  0  0  0  0  0999 V2000
  141.8080   78.6150  223.6640 C   0  0  0  0  0  0  0  0  0  0  0  0
  140.9790   78.4390  222.4410 C   0  0  2  0  0  0  0  0  0  0  0  0
  141.1620   77.1040  221.9080 N   0  0  0  0  0  0  0  0  0  0  0  0
  140.0880   76.1840  221.8790 C   0  0  0  0  0  0  0  0  0  0  0  0
  138.9810   76.5940  222.3290 O   0  0  0  0  0  0  0  0  0  0  0  0
  140.1510   74.8140  221.3720 C   0  0  0  0  0  0  0  0  0  0  0  0
  139.8690   73.7860  222.3420 N   0  0  0  0  0  0  0  0  0  0  0  0
  140.6040   72.5670  222.3810 C   0  0  0  0  0  0  0  0  0  0  0  0
  141.5570   72.3240  221.5630 O   0  0  0  0  0  0  0  0  0  0  0  0
  140.2810   71.5430  223.3770 C   0  0  0  0  0  0  0  0  0  0  0  0
  139.5510   70.4200  223.0220 C   0  0  0  0  0  0  0  0  0  0  0  0
  139.2220   69.4290  223.9200 C   0  0  0  0  0  0  0  0  0  0  0  0
  139.6310   69.5430  225.2420 C   0  0  0  0  0  0  0  0  0  0  0  0
  139.2930   68.5480  226.1120 C   0  0  0  0  0  0  0  0  0  0  0  0
  139.7080   68.6680  227.4420 C   0  0  0  0  0  0  0  0  0  0  0  0
  140.4440   69.7860  227.8300 C   0  0  0  0  0  0  0  0  0  0  0  0
  140.7610   70.7710  226.8990 C   0  0  0  0  0  0  0  0  0  0  0  0
  140.3560   70.6660  225.5770 C   0  0  0  0  0  0  0  0  0  0  0  0
  140.6640   71.6270  224.6620 N   0  0  0  0  0  0  0  0  0  0  0  0
  141.2930   79.3840  221.3410 C   0  0  0  0  0  0  0  0  0  0  0  0
  141.1650   80.7270  221.5470 C   0  0  0  0  0  0  0  0  0  0  0  0
  141.4380   81.6630  220.5720 C   0  0  0  0  0  0  0  0  0  0  0  0
  141.8610   81.2720  219.3220 C   0  0  0  0  0  0  0  0  0  0  0  0
  142.1590   82.1030  218.2840 O   0  0  0  0  0  0  0  0  0  0  0  0
  143.1240   81.8690  217.3010 C   0  0  0  0  0  0  0  0  0  0  0  0
  144.0660   83.0710  217.1490 C   0  0  0  0  0  0  0  0  0  0  0  0
  143.9350   83.5040  215.7040 C   0  0  0  0  0  0  0  0  0  0  0  0
  142.4520   83.2000  215.4740 C   0  0  0  0  0  0  0  0  0  0  0  0
  142.3720   81.7730  215.9770 C   0  0  0  0  0  0  0  0  0  0  0  0
  141.9980   79.8970  219.0920 C   0  0  0  0  0  0  0  0  0  0  0  0
  141.7180   78.9730  220.0890 C   0  0  0  0  0  0  0  0  0  0  0  0
  141.1784   78.4813  224.5561 H   0  0  0  0  0  0  0  0  0  0  0  0
  142.6157   77.8683  223.6700 H   0  0  0  0  0  0  0  0  0  0  0  0
  142.2427   79.6254  223.6700 H   0  0  0  0  0  0  0  0  0  0  0  0
  139.9476   78.6304  222.7720 H   0  0  0  0  0  0  0  0  0  0  0  0
  142.0960   76.8380  221.5420 H   0  0  0  0  0  0  0  0  0  0  0  0
  139.4208   74.7199  220.5547 H   0  0  0  0  0  0  0  0  0  0  0  0
  141.1916   74.6547  221.0529 H   0  0  0  0  0  0  0  0  0  0  0  0
  139.1070   73.8790  223.0710 H   0  0  0  0  0  0  0  0  0  0  0  0
  139.2201   70.3156  221.9782 H   0  0  0  0  0  0  0  0  0  0  0  0
  138.6402   68.5547  223.5927 H   0  0  0  0  0  0  0  0  0  0  0  0
  138.7110   67.6767  225.7771 H   0  0  0  0  0  0  0  0  0  0  0  0
  139.4559   67.8874  228.1749 H   0  0  0  0  0  0  0  0  0  0  0  0
  140.7750   69.8902  228.8738 H   0  0  0  0  0  0  0  0  0  0  0  0
  141.3431   71.6483  227.2176 H   0  0  0  0  0  0  0  0  0  0  0  0
  140.8294   81.0781  222.5339 H   0  0  0  0  0  0  0  0  0  0  0  0
  141.3165   82.7332  220.7955 H   0  0  0  0  0  0  0  0  0  0  0  0
  143.7004   80.9708  217.5674 H   0  0  0  0  0  0  0  0  0  0  0  0
  143.7630   83.8852  217.8238 H   0  0  0  0  0  0  0  0  0  0  0  0
  145.1038   82.8126  217.4063 H   0  0  0  0  0  0  0  0  0  0  0  0
  144.1580   84.5735  215.5756 H   0  0  0  0  0  0  0  0  0  0  0  0
  144.6252   83.0084  215.0055 H   0  0  0  0  0  0  0  0  0  0  0  0
  141.8059   83.8718  216.0582 H   0  0  0  0  0  0  0  0  0  0  0  0
  142.1155   83.3359  214.4356 H   0  0  0  0  0  0  0  0  0  0  0  0
  141.3287   81.4598  216.1302 H   0  0  0  0  0  0  0  0  0  0  0  0
  142.7876   81.0301  215.2803 H   0  0  0  0  0  0  0  0  0  0  0  0
  142.3328   79.5440  218.1055 H   0  0  0  0  0  0  0  0  0  0  0  0
  141.8354   77.8991  219.8816 H   0  0  0  0  0  0  0  0  0  0  0  0
  1  2  1  0
  2  3  1  0
  3  4  1  0
  4  5  2  0
  4  6  1  0
  6  7  1  0
  7  8  1  0
  8  9  2  0
  8 10  1  0
 10 11  2  0
 11 12  1  0
 12 13  2  0
 13 14  1  0
 14 15  2  0
 15 16  1  0
 16 17  2  0
 17 18  1  0
 18 19  2  0
  2 20  1  0
 20 21  2  0
 21 22  1  0
 22 23  2  0
 23 24  1  0
 24 25  1  0
 25 26  1  0
 26 27  1  0
 27 28  1  0
 28 29  1  0
 23 30  1  0
 30 31  2  0
 19 10  1  0
 31 20  1  0
 18 13  1  0
 29 25  1  0
  1 32  1  0
  1 33  1  0
  1 34  1  0
  2 35  1  1
  3 36  1  0
  6 37  1  0
  6 38  1  0
  7 39  1  0
 11 40  1  0
 12 41  1  0
 14 42  1  0
 15 43  1  0
 16 44  1  0
 17 45  1  0
 21 46  1  0
 22 47  1  0
 25 48  1  0
 26 49  1  0
 26 50  1  0
 27 51  1  0
 27 52  1  0
 28 53  1  0
 28 54  1  0
 29 55  1  0
 29 56  1  0
 30 57  1  0
 31 58  1  0
M  END
>  <smiles>  (49) 
CC(NC(=O)CNC(=O)c1ccc2ccccc2n1)c1ccc(OC2CCCC2)cc1

>  <score_type>  (49) 
oracle

>  <origin>  (49) 
autodockgpu

>  <m_score__min__energy>  (49) 
-9.2300000000000004

>  <m_primary>  (49) 
energy

>  <rmsd>  (49) 
3.5475061181415266

>  <m_score__min__rmsd>  (49) 
3.5475061181415266

>  <meeko>  (49) 
{"free_energy": -8.99, "intermolecular_energy": -11.08, "internal_energy": -1.25, "cluster_size": 2, "cluster_id": 3, "rank_in_cluster": 1}

>  <energy>  (49) 
-8.68

>  <cluster_rmsd>  (49) 
0.0

>  <cluster>  (49) 
4

$$$$

     RDKit          3D

 58 61  0  0  0  0  0  0  0  0999 V2000
  136.0420   75.4340  223.6590 C   0  0  0  0  0  0  0  0  0  0  0  0
  136.7060   75.4430  222.3270 C   0  0  2  0  0  0  0  0  0  0  0  0
  137.4700   74.2250  222.1470 N   0  0  0  0  0  0  0  0  0  0  0  0
  137.6150   73.6460  220.8650 C   0  0  0  0  0  0  0  0  0  0  0  0
  137.0560   74.2490  219.9060 O   0  0  0  0  0  0  0  0  0  0  0  0
  138.3540   72.4210  220.5590 C   0  0  0  0  0  0  0  0  0  0  0  0
  138.5700   71.5380  221.6770 N   0  0  0  0  0  0  0  0  0  0  0  0
  139.3810   71.9120  222.7860 C   0  0  0  0  0  0  0  0  0  0  0  0
  139.9540   73.0550  222.8510 O   0  0  0  0  0  0  0  0  0  0  0  0
  139.5830   70.9830  223.8990 C   0  0  0  0  0  0  0  0  0  0  0  0
  139.1980   69.6570  223.7900 C   0  0  0  0  0  0  0  0  0  0  0  0
  139.3660   68.7450  224.8080 C   0  0  0  0  0  0  0  0  0  0  0  0
  139.9450   69.1520  226.0020 C   0  0  0  0  0  0  0  0  0  0  0  0
  140.1020   68.2290  226.9940 C   0  0  0  0  0  0  0  0  0  0  0  0
  140.6850   68.6460  228.1940 C   0  0  0  0  0  0  0  0  0  0  0  0
  141.0840   69.9740  228.3350 C   0  0  0  0  0  0  0  0  0  0  0  0
  140.9000   70.8730  227.2880 C   0  0  0  0  0  0  0  0  0  0  0  0
  140.3220   70.4750  226.0930 C   0  0  0  0  0  0  0  0  0  0  0  0
  140.1400   71.3510  225.0660 N   0  0  0  0  0  0  0  0  0  0  0  0
  137.6460   76.5720  222.1130 C   0  0  0  0  0  0  0  0  0  0  0  0
  137.1700   77.8500  222.0750 C   0  0  0  0  0  0  0  0  0  0  0  0
  137.9830   78.9460  221.8800 C   0  0  0  0  0  0  0  0  0  0  0  0
  139.3400   78.7930  221.7120 C   0  0  0  0  0  0  0  0  0  0  0  0
  140.2390   79.7970  221.5130 O   0  0  0  0  0  0  0  0  0  0  0  0
  140.7470   80.6470  222.4990 C   0  0  0  0  0  0  0  0  0  0  0  0
  142.2290   80.9590  222.2540 C   0  0  0  0  0  0  0  0  0  0  0  0
  142.9510   80.4870  223.4990 C   0  0  0  0  0  0  0  0  0  0  0  0
  142.1010   79.2610  223.8440 C   0  0  0  0  0  0  0  0  0  0  0  0
  140.7090   79.8590  223.8050 C   0  0  0  0  0  0  0  0  0  0  0  0
  139.8480   77.4870  221.7490 C   0  0  0  0  0  0  0  0  0  0  0  0
  139.0100   76.3980  221.9470 C   0  0  0  0  0  0  0  0  0  0  0  0
  136.8065   75.4444  224.4499 H   0  0  0  0  0  0  0  0  0  0  0  0
  135.4022   76.3236  223.7558 H   0  0  0  0  0  0  0  0  0  0  0  0
  135.4266   74.5274  223.7558 H   0  0  0  0  0  0  0  0  0  0  0  0
  135.8824   75.5423  221.6046 H   0  0  0  0  0  0  0  0  0  0  0  0
  137.9150   73.7890  222.9780 H   0  0  0  0  0  0  0  0  0  0  0  0
  137.7922   71.8675  219.7921 H   0  0  0  0  0  0  0  0  0  0  0  0
  139.3523   72.7422  220.2271 H   0  0  0  0  0  0  0  0  0  0  0  0
  138.1420   70.5720  221.7350 H   0  0  0  0  0  0  0  0  0  0  0  0
  138.7383   69.3179  222.8499 H   0  0  0  0  0  0  0  0  0  0  0  0
  139.0437   67.7016  224.6759 H   0  0  0  0  0  0  0  0  0  0  0  0
  139.7792   67.1868  226.8537 H   0  0  0  0  0  0  0  0  0  0  0  0
  140.8275   67.9328  229.0193 H   0  0  0  0  0  0  0  0  0  0  0  0
  141.5449   70.3122  229.2748 H   0  0  0  0  0  0  0  0  0  0  0  0
  141.2192   71.9184  227.4115 H   0  0  0  0  0  0  0  0  0  0  0  0
  136.0900   78.0130  222.2057 H   0  0  0  0  0  0  0  0  0  0  0  0
  137.5422   79.9536  221.8585 H   0  0  0  0  0  0  0  0  0  0  0  0
  140.1628   81.5790  222.5084 H   0  0  0  0  0  0  0  0  0  0  0  0
  142.5948   80.4182  221.3687 H   0  0  0  0  0  0  0  0  0  0  0  0
  142.3957   82.0299  222.0658 H   0  0  0  0  0  0  0  0  0  0  0  0
  143.9955   80.2143  223.2876 H   0  0  0  0  0  0  0  0  0  0  0  0
  143.0346   81.2358  224.3005 H   0  0  0  0  0  0  0  0  0  0  0  0
  142.2196   78.4630  223.0963 H   0  0  0  0  0  0  0  0  0  0  0  0
  142.3628   78.7796  224.7978 H   0  0  0  0  0  0  0  0  0  0  0  0
  139.9369   79.0760  223.7785 H   0  0  0  0  0  0  0  0  0  0  0  0
  140.4598   80.4678  224.6866 H   0  0  0  0  0  0  0  0  0  0  0  0
  140.9278   77.3224  221.6191 H   0  0  0  0  0  0  0  0  0  0  0  0
  139.4349   75.3837  221.9724 H   0  0  0  0  0  0  0  0  0  0  0  0
  1  2  1  0
  2  3  1  0
  3  4  1  0
  4  5  2  0
  4  6  1  0
  6  7  1  0
  7  8  1  0
  8  9  2  0
  8 10  1  0
 10 11  2  0
 11 12  1  0
 12 13  2  0
 13 14  1  0
 14 15  2  0
 15 16  1  0
 16 17  2  0
 17 18  1  0
 18 19  2  0
  2 20  1  0
 20 21  2  0
 21 22  1  0
 22 23  2  0
 23 24  1  0
 24 25  1  0
 25 26  1  0
 26 27  1  0
 27 28  1  0
 28 29  1  0
 23 30  1  0
 30 31  2  0
 19 10  1  0
 31 20  1  0
 18 13  1  0
 29 25  1  0
  1 32  1  0
  1 33  1  0
  1 34  1  0
  2 35  1  6
  3 36  1  0
  6 37  1  0
  6 38  1  0
  7 39  1  0
 11 40  1  0
 12 41  1  0
 14 42  1  0
 15 43  1  0
 16 44  1  0
 17 45  1  0
 21 46  1  0
 22 47  1  0
 25 48  1  0
 26 49  1  0
 26 50  1  0
 27 51  1  0
 27 52  1  0
 28 53  1  0
 28 54  1  0
 29 55  1  0
 29 56  1  0
 30 57  1  0
 31 58  1  0
M  END
>  <smiles>  (50) 
CC(NC(=O)CNC(=O)c1ccc2ccccc2n1)c1ccc(OC2CCCC2)cc1

>  <score_type>  (50) 
oracle

>  <origin>  (50) 
autodockgpu

>  <m_score__min__energy>  (50) 
-9.2300000000000004

>  <m_primary>  (50) 
energy

>  <rmsd>  (50) 
5.327451669144615

>  <m_score__min__rmsd>  (50) 
5.327451669144615

>  <meeko>  (50) 
{"free_energy": -8.49, "intermolecular_energy": -10.58, "internal_energy": -2.13, "cluster_size": 40, "cluster_id": 1, "rank_in_cluster": 30}

>  <energy>  (50) 
-7.84

>  <cluster_rmsd>  (50) 
1.93

>  <cluster>  (50) 
4

$$$$

     RDKit          3D

 58 61  0  0  0  0  0  0  0  0999 V2000
  143.5670   72.9700  220.8140 C   0  0  0  0  0  0  0  0  0  0  0  0
  142.3310   73.5220  220.1390 C   0  0  1  0  0  0  0  0  0  0  0  0
  141.2100   72.7340  220.6510 N   0  0  0  0  0  0  0  0  0  0  0  0
  140.4910   71.8600  219.7910 C   0  0  0  0  0  0  0  0  0  0  0  0
  140.8650   71.8040  218.5890 O   0  0  0  0  0  0  0  0  0  0  0  0
  139.3540   71.0640  220.3230 C   0  0  0  0  0  0  0  0  0  0  0  0
  139.7070   70.6320  221.6530 N   0  0  0  0  0  0  0  0  0  0  0  0
  139.5820   71.4830  222.7790 C   0  0  0  0  0  0  0  0  0  0  0  0
  139.1460   72.6500  222.5860 O   0  0  0  0  0  0  0  0  0  0  0  0
  139.9450   71.0290  224.1170 C   0  0  0  0  0  0  0  0  0  0  0  0
  140.6480   71.8770  224.9460 C   0  0  0  0  0  0  0  0  0  0  0  0
  141.0360   71.5370  226.2260 C   0  0  0  0  0  0  0  0  0  0  0  0
  140.6920   70.2780  226.6850 C   0  0  0  0  0  0  0  0  0  0  0  0
  141.0730   69.9320  227.9590 C   0  0  0  0  0  0  0  0  0  0  0  0
  140.7370   68.6630  228.4440 C   0  0  0  0  0  0  0  0  0  0  0  0
  140.0260   67.7840  227.6270 C   0  0  0  0  0  0  0  0  0  0  0  0
  139.6660   68.1910  226.3450 C   0  0  0  0  0  0  0  0  0  0  0  0
  139.9880   69.4320  225.8510 C   0  0  0  0  0  0  0  0  0  0  0  0
  139.6240   69.8080  224.5900 N   0  0  0  0  0  0  0  0  0  0  0  0
  142.0780   74.9280  220.4960 C   0  0  0  0  0  0  0  0  0  0  0  0
  142.6390   75.9490  219.7570 C   0  0  0  0  0  0  0  0  0  0  0  0
  142.3740   77.2620  220.1290 C   0  0  0  0  0  0  0  0  0  0  0  0
  141.5760   77.5870  221.2010 C   0  0  0  0  0  0  0  0  0  0  0  0
  141.2800   78.8580  221.6130 O   0  0  0  0  0  0  0  0  0  0  0  0
  140.6370   79.2010  222.8140 C   0  0  0  0  0  0  0  0  0  0  0  0
  141.6630   79.1320  223.9370 C   0  0  0  0  0  0  0  0  0  0  0  0
  142.6780   80.1600  223.4370 C   0  0  0  0  0  0  0  0  0  0  0  0
  141.7860   81.2810  222.9560 C   0  0  0  0  0  0  0  0  0  0  0  0
  140.4080   80.7110  222.7580 C   0  0  0  0  0  0  0  0  0  0  0  0
  141.0300   76.5350  221.9190 C   0  0  0  0  0  0  0  0  0  0  0  0
  141.2880   75.2460  221.5570 C   0  0  0  0  0  0  0  0  0  0  0  0
  143.4440   73.0249  221.9057 H   0  0  0  0  0  0  0  0  0  0  0  0
  143.7117   71.9218  220.5136 H   0  0  0  0  0  0  0  0  0  0  0  0
  144.4441   73.5619  220.5136 H   0  0  0  0  0  0  0  0  0  0  0  0
  142.4581   73.4682  219.0477 H   0  0  0  0  0  0  0  0  0  0  0  0
  140.9100   72.7880  221.6480 H   0  0  0  0  0  0  0  0  0  0  0  0
  138.4464   71.6845  220.3589 H   0  0  0  0  0  0  0  0  0  0  0  0
  139.1540   70.1971  219.6762 H   0  0  0  0  0  0  0  0  0  0  0  0
  140.0720   69.6630  221.8260 H   0  0  0  0  0  0  0  0  0  0  0  0
  140.9131   72.8754  224.5680 H   0  0  0  0  0  0  0  0  0  0  0  0
  141.5978   72.2408  226.8577 H   0  0  0  0  0  0  0  0  0  0  0  0
  141.6327   70.6406  228.5872 H   0  0  0  0  0  0  0  0  0  0  0  0
  141.0309   68.3615  229.4602 H   0  0  0  0  0  0  0  0  0  0  0  0
  139.7533   66.7823  227.9907 H   0  0  0  0  0  0  0  0  0  0  0  0
  139.1041   67.4946  225.7053 H   0  0  0  0  0  0  0  0  0  0  0  0
  143.2821   75.7289  218.8921 H   0  0  0  0  0  0  0  0  0  0  0  0
  142.8219   78.0763  219.5405 H   0  0  0  0  0  0  0  0  0  0  0  0
  139.7480   78.5684  222.9535 H   0  0  0  0  0  0  0  0  0  0  0  0
  141.2289   79.4248  224.9044 H   0  0  0  0  0  0  0  0  0  0  0  0
  142.0750   78.1297  224.1256 H   0  0  0  0  0  0  0  0  0  0  0  0
  143.3384   80.4965  224.2498 H   0  0  0  0  0  0  0  0  0  0  0  0
  143.3554   79.7712  222.6624 H   0  0  0  0  0  0  0  0  0  0  0  0
  141.7555   82.0847  223.7065 H   0  0  0  0  0  0  0  0  0  0  0  0
  142.1688   81.7034  222.0152 H   0  0  0  0  0  0  0  0  0  0  0  0
  139.7288   81.0360  223.5599 H   0  0  0  0  0  0  0  0  0  0  0  0
  139.9387   81.0393  221.8189 H   0  0  0  0  0  0  0  0  0  0  0  0
  140.3849   76.7410  222.7858 H   0  0  0  0  0  0  0  0  0  0  0  0
  140.8401   74.4318  222.1456 H   0  0  0  0  0  0  0  0  0  0  0  0
  1  2  1  0
  2  3  1  0
  3  4  1  0
  4  5  2  0
  4  6  1  0
  6  7  1  0
  7  8  1  0
  8  9  2  0
  8 10  1  0
 10 11  2  0
 11 12  1  0
 12 13  2  0
 13 14  1  0
 14 15  2  0
 15 16  1  0
 16 17  2  0
 17 18  1  0
 18 19  2  0
  2 20  1  0
 20 21  2  0
 21 22  1  0
 22 23  2  0
 23 24  1  0
 24 25  1  0
 25 26  1  0
 26 27  1  0
 27 28  1  0
 28 29  1  0
 23 30  1  0
 30 31  2  0
 19 10  1  0
 31 20  1  0
 18 13  1  0
 29 25  1  0
  1 32  1  0
  1 33  1  0
  1 34  1  0
  2 35  1  6
  3 36  1  0
  6 37  1  0
  6 38  1  0
  7 39  1  0
 11 40  1  0
 12 41  1  0
 14 42  1  0
 15 43  1  0
 16 44  1  0
 17 45  1  0
 21 46  1  0
 22 47  1  0
 25 48  1  0
 26 49  1  0
 26 50  1  0
 27 51  1  0
 27 52  1  0
 28 53  1  0
 28 54  1  0
 29 55  1  0
 29 56  1  0
 30 57  1  0
 31 58  1  0
M  END
>  <smiles>  (51) 
CC(NC(=O)CNC(=O)c1ccc2ccccc2n1)c1ccc(OC2CCCC2)cc1

>  <score_type>  (51) 
oracle

>  <origin>  (51) 
autodockgpu

>  <m_score__min__energy>  (51) 
-8.6899999999999995

>  <m_primary>  (51) 
energy

>  <rmsd>  (51) 
5.692057585450588

>  <m_score__min__rmsd>  (51) 
5.692057585450588

>  <meeko>  (51) 
{"free_energy": -8.23, "intermolecular_energy": -10.32, "internal_energy": -2.31, "cluster_size": 31, "cluster_id": 1, "rank_in_cluster": 21}

>  <energy>  (51) 
-8.69

>  <cluster_rmsd>  (51) 
0.0

>  <cluster>  (51) 
1

$$$$

     RDKit          3D

 58 61  0  0  0  0  0  0  0  0999 V2000
  137.5910   76.8720  222.7850 C   0  0  0  0  0  0  0  0  0  0  0  0
  136.7960   75.6460  222.3930 C   0  0  1  0  0  0  0  0  0  0  0  0
  137.7840   74.6240  222.0450 N   0  0  0  0  0  0  0  0  0  0  0  0
  137.5880   73.7920  220.9100 C   0  0  0  0  0  0  0  0  0  0  0  0
  136.5390   73.9790  220.2360 O   0  0  0  0  0  0  0  0  0  0  0  0
  138.5980   72.7580  220.5650 C   0  0  0  0  0  0  0  0  0  0  0  0
  138.7230   71.8740  221.6980 N   0  0  0  0  0  0  0  0  0  0  0  0
  139.6190   72.1380  222.7630 C   0  0  0  0  0  0  0  0  0  0  0  0
  140.3180   73.1850  222.6950 O   0  0  0  0  0  0  0  0  0  0  0  0
  139.7330   71.2330  223.9010 C   0  0  0  0  0  0  0  0  0  0  0  0
  139.2120   69.9600  223.8020 C   0  0  0  0  0  0  0  0  0  0  0  0
  139.2720   69.0340  224.8230 C   0  0  0  0  0  0  0  0  0  0  0  0
  139.8890   69.4190  226.0000 C   0  0  0  0  0  0  0  0  0  0  0  0
  139.9530   68.5040  227.0210 C   0  0  0  0  0  0  0  0  0  0  0  0
  140.5720   68.8710  228.2210 C   0  0  0  0  0  0  0  0  0  0  0  0
  141.1080   70.1520  228.3510 C   0  0  0  0  0  0  0  0  0  0  0  0
  141.0140   71.0380  227.2810 C   0  0  0  0  0  0  0  0  0  0  0  0
  140.4090   70.6950  226.0950 C   0  0  0  0  0  0  0  0  0  0  0  0
  140.3290   71.5810  225.0590 N   0  0  0  0  0  0  0  0  0  0  0  0
  135.9950   75.1180  223.5110 C   0  0  0  0  0  0  0  0  0  0  0  0
  135.7660   73.7630  223.6280 C   0  0  0  0  0  0  0  0  0  0  0  0
  135.0060   73.3070  224.6980 C   0  0  0  0  0  0  0  0  0  0  0  0
  134.4720   74.1480  225.6470 C   0  0  0  0  0  0  0  0  0  0  0  0
  133.7170   73.7580  226.7190 O   0  0  0  0  0  0  0  0  0  0  0  0
  132.4160   73.2310  226.6570 C   0  0  0  0  0  0  0  0  0  0  0  0
  131.6540   73.7080  227.8850 C   0  0  0  0  0  0  0  0  0  0  0  0
  131.7430   75.2220  227.6840 C   0  0  0  0  0  0  0  0  0  0  0  0
  131.4620   75.3650  226.2070 C   0  0  0  0  0  0  0  0  0  0  0  0
  131.6880   74.0210  225.5700 C   0  0  0  0  0  0  0  0  0  0  0  0
  134.7240   75.5030  225.4960 C   0  0  0  0  0  0  0  0  0  0  0  0
  135.4700   75.9540  224.4470 C   0  0  0  0  0  0  0  0  0  0  0  0
  137.6375   76.9437  223.8817 H   0  0  0  0  0  0  0  0  0  0  0  0
  138.6104   76.7932  222.3792 H   0  0  0  0  0  0  0  0  0  0  0  0
  137.1032   77.7705  222.3792 H   0  0  0  0  0  0  0  0  0  0  0  0
  136.1073   75.9043  221.5751 H   0  0  0  0  0  0  0  0  0  0  0  0
  138.6480   74.4790  222.6090 H   0  0  0  0  0  0  0  0  0  0  0  0
  138.2678   72.1913  219.6819 H   0  0  0  0  0  0  0  0  0  0  0  0
  139.5658   73.2263  220.3323 H   0  0  0  0  0  0  0  0  0  0  0  0
  138.1470   71.0000  221.7650 H   0  0  0  0  0  0  0  0  0  0  0  0
  138.7235   69.6679  222.8607 H   0  0  0  0  0  0  0  0  0  0  0  0
  138.8451   68.0270  224.7056 H   0  0  0  0  0  0  0  0  0  0  0  0
  139.5246   67.4984  226.8979 H   0  0  0  0  0  0  0  0  0  0  0  0
  140.6353   68.1557  229.0543 H   0  0  0  0  0  0  0  0  0  0  0  0
  141.5986   70.4584  229.2866 H   0  0  0  0  0  0  0  0  0  0  0  0
  141.4384   72.0471  227.3883 H   0  0  0  0  0  0  0  0  0  0  0  0
  136.1764   73.0582  222.8898 H   0  0  0  0  0  0  0  0  0  0  0  0
  134.8232   72.2262  224.7905 H   0  0  0  0  0  0  0  0  0  0  0  0
  132.4623   72.1393  226.5304 H   0  0  0  0  0  0  0  0  0  0  0  0
  130.6117   73.3565  227.8803 H   0  0  0  0  0  0  0  0  0  0  0  0
  132.0498   73.3448  228.8449 H   0  0  0  0  0  0  0  0  0  0  0  0
  130.9886   75.7493  228.2864 H   0  0  0  0  0  0  0  0  0  0  0  0
  132.7066   75.6526  227.9938 H   0  0  0  0  0  0  0  0  0  0  0  0
  130.4205   75.6833  226.0522 H   0  0  0  0  0  0  0  0  0  0  0  0
  132.1231   76.1215  225.7590 H   0  0  0  0  0  0  0  0  0  0  0  0
  130.7320   73.5432  225.3097 H   0  0  0  0  0  0  0  0  0  0  0  0
  132.2563   74.0816  224.6301 H   0  0  0  0  0  0  0  0  0  0  0  0
  134.3197   76.2188  226.2268 H   0  0  0  0  0  0  0  0  0  0  0  0
  135.6541   77.0345  224.3544 H   0  0  0  0  0  0  0  0  0  0  0  0
  1  2  1  0
  2  3  1  0
  3  4  1  0
  4  5  2  0
  4  6  1  0
  6  7  1  0
  7  8  1  0
  8  9  2  0
  8 10  1  0
 10 11  2  0
 11 12  1  0
 12 13  2  0
 13 14  1  0
 14 15  2  0
 15 16  1  0
 16 17  2  0
 17 18  1  0
 18 19  2  0
  2 20  1  0
 20 21  2  0
 21 22  1  0
 22 23  2  0
 23 24  1  0
 24 25  1  0
 25 26  1  0
 26 27  1  0
 27 28  1  0
 28 29  1  0
 23 30  1  0
 30 31  2  0
 19 10  1  0
 31 20  1  0
 18 13  1  0
 29 25  1  0
  1 32  1  0
  1 33  1  0
  1 34  1  0
  2 35  1  6
  3 36  1  0
  6 37  1  0
  6 38  1  0
  7 39  1  0
 11 40  1  0
 12 41  1  0
 14 42  1  0
 15 43  1  0
 16 44  1  0
 17 45  1  0
 21 46  1  0
 22 47  1  0
 25 48  1  0
 26 49  1  0
 26 50  1  0
 27 51  1  0
 27 52  1  0
 28 53  1  0
 28 54  1  0
 29 55  1  0
 29 56  1  0
 30 57  1  0
 31 58  1  0
M  END
>  <smiles>  (52) 
CC(NC(=O)CNC(=O)c1ccc2ccccc2n1)c1ccc(OC2CCCC2)cc1

>  <score_type>  (52) 
oracle

>  <origin>  (52) 
autodockgpu

>  <m_score__min__energy>  (52) 
-8.6899999999999995

>  <m_primary>  (52) 
energy

>  <rmsd>  (52) 
7.328949144947615

>  <m_score__min__rmsd>  (52) 
7.328949144947615

>  <meeko>  (52) 
{"free_energy": -8.47, "intermolecular_energy": -10.56, "internal_energy": -2.32, "cluster_size": 15, "cluster_id": 2, "rank_in_cluster": 9}

>  <energy>  (52) 
-8.67

>  <cluster_rmsd>  (52) 
0.47

>  <cluster>  (52) 
1

$$$$

     RDKit          3D

 58 61  0  0  0  0  0  0  0  0999 V2000
  137.1670   77.3660  222.4490 C   0  0  0  0  0  0  0  0  0  0  0  0
  136.6380   75.9580  222.2920 C   0  0  1  0  0  0  0  0  0  0  0  0
  137.8160   75.0940  222.2260 N   0  0  0  0  0  0  0  0  0  0  0  0
  138.4330   74.8120  220.9770 C   0  0  0  0  0  0  0  0  0  0  0  0
  137.9190   75.3370  219.9540 O   0  0  0  0  0  0  0  0  0  0  0  0
  139.6310   73.9330  220.9230 C   0  0  0  0  0  0  0  0  0  0  0  0
  139.7480   73.2730  222.2000 N   0  0  0  0  0  0  0  0  0  0  0  0
  139.8450   71.8640  222.3130 C   0  0  0  0  0  0  0  0  0  0  0  0
  139.8270   71.1880  221.2500 O   0  0  0  0  0  0  0  0  0  0  0  0
  139.9620   71.2140  223.6130 C   0  0  0  0  0  0  0  0  0  0  0  0
  139.5710   69.8990  223.7450 C   0  0  0  0  0  0  0  0  0  0  0  0
  139.6440   69.2000  224.9320 C   0  0  0  0  0  0  0  0  0  0  0  0
  140.1380   69.8690  226.0380 C   0  0  0  0  0  0  0  0  0  0  0  0
  140.2150   69.1810  227.2240 C   0  0  0  0  0  0  0  0  0  0  0  0
  140.7100   69.8370  228.3560 C   0  0  0  0  0  0  0  0  0  0  0  0
  141.1140   71.1680  228.2540 C   0  0  0  0  0  0  0  0  0  0  0  0
  141.0140   71.8140  227.0240 C   0  0  0  0  0  0  0  0  0  0  0  0
  140.5280   71.1860  225.9020 C   0  0  0  0  0  0  0  0  0  0  0  0
  140.4390   71.8410  224.7070 N   0  0  0  0  0  0  0  0  0  0  0  0
  135.8420   75.5260  223.4550 C   0  0  0  0  0  0  0  0  0  0  0  0
  135.7700   74.1910  223.7950 C   0  0  0  0  0  0  0  0  0  0  0  0
  135.0090   73.8270  224.8990 C   0  0  0  0  0  0  0  0  0  0  0  0
  134.3250   74.7400  225.6680 C   0  0  0  0  0  0  0  0  0  0  0  0
  133.5620   74.4410  226.7630 O   0  0  0  0  0  0  0  0  0  0  0  0
  132.1860   74.6910  226.8960 C   0  0  0  0  0  0  0  0  0  0  0  0
  131.4760   74.0820  225.6950 C   0  0  0  0  0  0  0  0  0  0  0  0
  131.8800   72.6160  225.8600 C   0  0  0  0  0  0  0  0  0  0  0  0
  131.7080   72.4020  227.3460 C   0  0  0  0  0  0  0  0  0  0  0  0
  131.6880   73.7580  227.9990 C   0  0  0  0  0  0  0  0  0  0  0  0
  134.4220   76.0710  225.2950 C   0  0  0  0  0  0  0  0  0  0  0  0
  135.1680   76.4320  224.2130 C   0  0  0  0  0  0  0  0  0  0  0  0
  137.2574   77.6066  223.5186 H   0  0  0  0  0  0  0  0  0  0  0  0
  138.1550   77.4419  221.9713 H   0  0  0  0  0  0  0  0  0  0  0  0
  136.4734   78.0737  221.9713 H   0  0  0  0  0  0  0  0  0  0  0  0
  135.9925   75.9085  221.4027 H   0  0  0  0  0  0  0  0  0  0  0  0
  138.2330   74.6660  223.0800 H   0  0  0  0  0  0  0  0  0  0  0  0
  139.5119   73.1858  220.1246 H   0  0  0  0  0  0  0  0  0  0  0  0
  140.5338   74.5245  220.7107 H   0  0  0  0  0  0  0  0  0  0  0  0
  139.7630   73.8260  223.0920 H   0  0  0  0  0  0  0  0  0  0  0  0
  139.1803   69.3797  222.8575 H   0  0  0  0  0  0  0  0  0  0  0  0
  139.3216   68.1503  224.9969 H   0  0  0  0  0  0  0  0  0  0  0  0
  139.8926   68.1310  227.2829 H   0  0  0  0  0  0  0  0  0  0  0  0
  140.7800   69.3079  229.3179 H   0  0  0  0  0  0  0  0  0  0  0  0
  141.5063   71.7004  229.1330 H   0  0  0  0  0  0  0  0  0  0  0  0
  141.3352   72.8633  226.9479 H   0  0  0  0  0  0  0  0  0  0  0  0
  136.3035   73.4312  223.2049 H   0  0  0  0  0  0  0  0  0  0  0  0
  134.9509   72.7625  225.1700 H   0  0  0  0  0  0  0  0  0  0  0  0
  132.0164   75.7679  227.0426 H   0  0  0  0  0  0  0  0  0  0  0  0
  130.3856   74.2139  225.7558 H   0  0  0  0  0  0  0  0  0  0  0  0
  131.7415   74.5286  224.7254 H   0  0  0  0  0  0  0  0  0  0  0  0
  131.2191   71.9529  225.2825 H   0  0  0  0  0  0  0  0  0  0  0  0
  132.8943   72.3942  225.4967 H   0  0  0  0  0  0  0  0  0  0  0  0
  130.7619   71.8764  227.5427 H   0  0  0  0  0  0  0  0  0  0  0  0
  132.5299   71.7909  227.7471 H   0  0  0  0  0  0  0  0  0  0  0  0
  130.6690   74.0285  228.3128 H   0  0  0  0  0  0  0  0  0  0  0  0
  132.3026   73.8045  228.9101 H   0  0  0  0  0  0  0  0  0  0  0  0
  133.8935   76.8412  225.8759 H   0  0  0  0  0  0  0  0  0  0  0  0
  135.2272   77.4966  223.9425 H   0  0  0  0  0  0  0  0  0  0  0  0
  1  2  1  0
  2  3  1  0
  3  4  1  0
  4  5  2  0
  4  6  1  0
  6  7  1  0
  7  8  1  0
  8  9  2  0
  8 10  1  0
 10 11  2  0
 11 12  1  0
 12 13  2  0
 13 14  1  0
 14 15  2  0
 15 16  1  0
 16 17  2  0
 17 18  1  0
 18 19  2  0
  2 20  1  0
 20 21  2  0
 21 22  1  0
 22 23  2  0
 23 24  1  0
 24 25  1  0
 25 26  1  0
 26 27  1  0
 27 28  1  0
 28 29  1  0
 23 30  1  0
 30 31  2  0
 19 10  1  0
 31 20  1  0
 18 13  1  0
 29 25  1  0
  1 32  1  0
  1 33  1  0
  1 34  1  0
  2 35  1  6
  3 36  1  0
  6 37  1  0
  6 38  1  0
  7 39  1  0
 11 40  1  0
 12 41  1  0
 14 42  1  0
 15 43  1  0
 16 44  1  0
 17 45  1  0
 21 46  1  0
 22 47  1  0
 25 48  1  0
 26 49  1  0
 26 50  1  0
 27 51  1  0
 27 52  1  0
 28 53  1  0
 28 54  1  0
 29 55  1  0
 29 56  1  0
 30 57  1  0
 31 58  1  0
M  END
>  <smiles>  (53) 
CC(NC(=O)CNC(=O)c1ccc2ccccc2n1)c1ccc(OC2CCCC2)cc1

>  <score_type>  (53) 
oracle

>  <origin>  (53) 
autodockgpu

>  <m_score__min__energy>  (53) 
-8.6899999999999995

>  <m_primary>  (53) 
energy

>  <rmsd>  (53) 
7.0043097039766815

>  <m_score__min__rmsd>  (53) 
7.0043097039766815

>  <meeko>  (53) 
{"free_energy": -8.61, "intermolecular_energy": -10.7, "internal_energy": -1.67, "cluster_size": 15, "cluster_id": 2, "rank_in_cluster": 2}

>  <energy>  (53) 
-8.65

>  <cluster_rmsd>  (53) 
0.16

>  <cluster>  (53) 
1

$$$$

     RDKit          3D

 58 61  0  0  0  0  0  0  0  0999 V2000
  143.0740   73.3420  220.3390 C   0  0  0  0  0  0  0  0  0  0  0  0
  141.7640   74.0060  219.9790 C   0  0  1  0  0  0  0  0  0  0  0  0
  140.7160   73.1540  220.5410 N   0  0  0  0  0  0  0  0  0  0  0  0
  139.3490   73.5330  220.4420 C   0  0  0  0  0  0  0  0  0  0  0  0
  139.0980   74.6200  219.8560 O   0  0  0  0  0  0  0  0  0  0  0  0
  138.2930   72.6590  221.0170 C   0  0  0  0  0  0  0  0  0  0  0  0
  138.6750   72.3440  222.3710 N   0  0  0  0  0  0  0  0  0  0  0  0
  139.5530   71.2750  222.6760 C   0  0  0  0  0  0  0  0  0  0  0  0
  140.0000   70.5920  221.7160 O   0  0  0  0  0  0  0  0  0  0  0  0
  139.9280   70.9700  224.0530 C   0  0  0  0  0  0  0  0  0  0  0  0
  140.6600   71.8930  224.7700 C   0  0  0  0  0  0  0  0  0  0  0  0
  141.0610   71.6950  226.0750 C   0  0  0  0  0  0  0  0  0  0  0  0
  140.7010   70.5030  226.6800 C   0  0  0  0  0  0  0  0  0  0  0  0
  141.0950   70.2990  227.9790 C   0  0  0  0  0  0  0  0  0  0  0  0
  140.7450   69.1010  228.6120 C   0  0  0  0  0  0  0  0  0  0  0  0
  140.0050   68.1480  227.9110 C   0  0  0  0  0  0  0  0  0  0  0  0
  139.6330   68.4120  226.5960 C   0  0  0  0  0  0  0  0  0  0  0  0
  139.9690   69.5820  225.9580 C   0  0  0  0  0  0  0  0  0  0  0  0
  139.5930   69.8180  224.6670 N   0  0  0  0  0  0  0  0  0  0  0  0
  141.6230   75.3370  220.5940 C   0  0  0  0  0  0  0  0  0  0  0  0
  141.1330   75.4650  221.8770 C   0  0  0  0  0  0  0  0  0  0  0  0
  141.0170   76.7400  222.4200 C   0  0  0  0  0  0  0  0  0  0  0  0
  141.3710   77.8780  221.7340 C   0  0  0  0  0  0  0  0  0  0  0  0
  141.2800   79.1560  222.2150 O   0  0  0  0  0  0  0  0  0  0  0  0
  142.0960   80.2350  221.8370 C   0  0  0  0  0  0  0  0  0  0  0  0
  141.4160   81.5210  222.2820 C   0  0  0  0  0  0  0  0  0  0  0  0
  141.3380   81.2750  223.7890 C   0  0  0  0  0  0  0  0  0  0  0  0
  142.7030   80.7010  224.0900 C   0  0  0  0  0  0  0  0  0  0  0  0
  143.2890   80.2210  222.7900 C   0  0  0  0  0  0  0  0  0  0  0  0
  141.8600   77.7090  220.4480 C   0  0  0  0  0  0  0  0  0  0  0  0
  141.9750   76.4600  219.9130 C   0  0  0  0  0  0  0  0  0  0  0  0
  143.1714   73.2926  221.4336 H   0  0  0  0  0  0  0  0  0  0  0  0
  143.0957   72.3241  219.9227 H   0  0  0  0  0  0  0  0  0  0  0  0
  143.9078   73.9263  219.9227 H   0  0  0  0  0  0  0  0  0  0  0  0
  141.7071   74.1298  218.8875 H   0  0  0  0  0  0  0  0  0  0  0  0
  140.9360   72.2570  221.0230 H   0  0  0  0  0  0  0  0  0  0  0  0
  137.3273   73.1857  221.0129 H   0  0  0  0  0  0  0  0  0  0  0  0
  138.1874   71.7396  220.4224 H   0  0  0  0  0  0  0  0  0  0  0  0
  138.3090   72.9060  223.1790 H   0  0  0  0  0  0  0  0  0  0  0  0
  140.9384   72.8355  224.2759 H   0  0  0  0  0  0  0  0  0  0  0  0
  141.6447   72.4555  226.6144 H   0  0  0  0  0  0  0  0  0  0  0  0
  141.6763   71.0647  228.5136 H   0  0  0  0  0  0  0  0  0  0  0  0
  141.0502   68.9124  229.6519 H   0  0  0  0  0  0  0  0  0  0  0  0
  139.7194   67.2005  228.3914 H   0  0  0  0  0  0  0  0  0  0  0  0
  139.0495   67.6575  226.0480 H   0  0  0  0  0  0  0  0  0  0  0  0
  140.8404   74.5779  222.4580 H   0  0  0  0  0  0  0  0  0  0  0  0
  140.6251   76.8427  223.4427 H   0  0  0  0  0  0  0  0  0  0  0  0
  142.3197   80.1733  220.7618 H   0  0  0  0  0  0  0  0  0  0  0  0
  142.0232   82.4068  222.0442 H   0  0  0  0  0  0  0  0  0  0  0  0
  140.4505   81.7256  221.7962 H   0  0  0  0  0  0  0  0  0  0  0  0
  141.1700   82.2132  224.3381 H   0  0  0  0  0  0  0  0  0  0  0  0
  140.5074   80.6181  224.0867 H   0  0  0  0  0  0  0  0  0  0  0  0
  143.3480   81.4765  224.5290 H   0  0  0  0  0  0  0  0  0  0  0  0
  142.6246   79.8721  224.8089 H   0  0  0  0  0  0  0  0  0  0  0  0
  144.0801   80.9006  222.4402 H   0  0  0  0  0  0  0  0  0  0  0  0
  143.7616   79.2311  222.8717 H   0  0  0  0  0  0  0  0  0  0  0  0
  142.1569   78.5872  219.8559 H   0  0  0  0  0  0  0  0  0  0  0  0
  142.3678   76.3570  218.8907 H   0  0  0  0  0  0  0  0  0  0  0  0
  1  2  1  0
  2  3  1  0
  3  4  1  0
  4  5  2  0
  4  6  1  0
  6  7  1  0
  7  8  1  0
  8  9  2  0
  8 10  1  0
 10 11  2  0
 11 12  1  0
 12 13  2  0
 13 14  1  0
 14 15  2  0
 15 16  1  0
 16 17  2  0
 17 18  1  0
 18 19  2  0
  2 20  1  0
 20 21  2  0
 21 22  1  0
 22 23  2  0
 23 24  1  0
 24 25  1  0
 25 26  1  0
 26 27  1  0
 27 28  1  0
 28 29  1  0
 23 30  1  0
 30 31  2  0
 19 10  1  0
 31 20  1  0
 18 13  1  0
 29 25  1  0
  1 32  1  0
  1 33  1  0
  1 34  1  0
  2 35  1  6
  3 36  1  0
  6 37  1  0
  6 38  1  0
  7 39  1  0
 11 40  1  0
 12 41  1  0
 14 42  1  0
 15 43  1  0
 16 44  1  0
 17 45  1  0
 21 46  1  0
 22 47  1  0
 25 48  1  0
 26 49  1  0
 26 50  1  0
 27 51  1  0
 27 52  1  0
 28 53  1  0
 28 54  1  0
 29 55  1  0
 29 56  1  0
 30 57  1  0
 31 58  1  0
M  END
>  <smiles>  (54) 
CC(NC(=O)CNC(=O)c1ccc2ccccc2n1)c1ccc(OC2CCCC2)cc1

>  <score_type>  (54) 
oracle

>  <origin>  (54) 
autodockgpu

>  <m_score__min__energy>  (54) 
-8.6899999999999995

>  <m_primary>  (54) 
energy

>  <rmsd>  (54) 
5.2253689638951

>  <m_score__min__rmsd>  (54) 
5.2253689638951

>  <meeko>  (54) 
{"free_energy": -8.62, "intermolecular_energy": -10.7, "internal_energy": -2.06, "cluster_size": 31, "cluster_id": 1, "rank_in_cluster": 4}

>  <energy>  (54) 
-8.62

>  <cluster_rmsd>  (54) 
0.47

>  <cluster>  (54) 
1

$$$$

     RDKit          3D

 58 61  0  0  0  0  0  0  0  0999 V2000
  137.8220   76.7910  222.7330 C   0  0  0  0  0  0  0  0  0  0  0  0
  136.9560   75.6240  222.3150 C   0  0  1  0  0  0  0  0  0  0  0  0
  137.8800   74.5390  221.9830 N   0  0  0  0  0  0  0  0  0  0  0  0
  137.8320   73.9180  220.7060 C   0  0  0  0  0  0  0  0  0  0  0  0
  136.9670   74.3440  219.8940 O   0  0  0  0  0  0  0  0  0  0  0  0
  138.7760   72.8180  220.3800 C   0  0  0  0  0  0  0  0  0  0  0  0
  138.8980   71.9840  221.5500 N   0  0  0  0  0  0  0  0  0  0  0  0
  139.7780   72.3040  222.6130 C   0  0  0  0  0  0  0  0  0  0  0  0
  140.4660   73.3550  222.5090 O   0  0  0  0  0  0  0  0  0  0  0  0
  139.8890   71.4490  223.7900 C   0  0  0  0  0  0  0  0  0  0  0  0
  139.4410   70.1470  223.7190 C   0  0  0  0  0  0  0  0  0  0  0  0
  139.5030   69.2640  224.7770 C   0  0  0  0  0  0  0  0  0  0  0  0
  140.0460   69.7260  225.9640 C   0  0  0  0  0  0  0  0  0  0  0  0
  140.1130   68.8530  227.0220 C   0  0  0  0  0  0  0  0  0  0  0  0
  140.6570   69.2980  228.2320 C   0  0  0  0  0  0  0  0  0  0  0  0
  141.1180   70.6100  228.3340 C   0  0  0  0  0  0  0  0  0  0  0  0
  141.0250   71.4490  227.2260 C   0  0  0  0  0  0  0  0  0  0  0  0
  140.4930   71.0300  226.0300 C   0  0  0  0  0  0  0  0  0  0  0  0
  140.4120   71.8720  224.9580 N   0  0  0  0  0  0  0  0  0  0  0  0
  136.0940   75.1450  223.4110 C   0  0  0  0  0  0  0  0  0  0  0  0
  135.8080   73.8020  223.5380 C   0  0  0  0  0  0  0  0  0  0  0  0
  134.9920   73.3930  224.5870 C   0  0  0  0  0  0  0  0  0  0  0  0
  134.4580   74.2700  225.5020 C   0  0  0  0  0  0  0  0  0  0  0  0
  133.6500   73.9270  226.5510 O   0  0  0  0  0  0  0  0  0  0  0  0
  132.3320   73.4500  226.4490 C   0  0  0  0  0  0  0  0  0  0  0  0
  131.6120   73.7670  227.7520 C   0  0  0  0  0  0  0  0  0  0  0  0
  131.7420   75.2910  227.7660 C   0  0  0  0  0  0  0  0  0  0  0  0
  131.4340   75.6510  226.3320 C   0  0  0  0  0  0  0  0  0  0  0  0
  131.6050   74.4050  225.5050 C   0  0  0  0  0  0  0  0  0  0  0  0
  134.7680   75.6110  225.3410 C   0  0  0  0  0  0  0  0  0  0  0  0
  135.5690   76.0150  224.3140 C   0  0  0  0  0  0  0  0  0  0  0  0
  137.8612   76.8438  223.8310 H   0  0  0  0  0  0  0  0  0  0  0  0
  138.8387   76.6539  222.3360 H   0  0  0  0  0  0  0  0  0  0  0  0
  137.3962   77.7243  222.3360 H   0  0  0  0  0  0  0  0  0  0  0  0
  136.3061   75.9331  221.4831 H   0  0  0  0  0  0  0  0  0  0  0  0
  138.5920   74.1960  222.6630 H   0  0  0  0  0  0  0  0  0  0  0  0
  138.3865   72.2273  219.5378 H   0  0  0  0  0  0  0  0  0  0  0  0
  139.7569   73.2245  220.0926 H   0  0  0  0  0  0  0  0  0  0  0  0
  138.3310   71.1070  221.6480 H   0  0  0  0  0  0  0  0  0  0  0  0
  139.0119   69.7941  222.7696 H   0  0  0  0  0  0  0  0  0  0  0  0
  139.1350   68.2318  224.6813 H   0  0  0  0  0  0  0  0  0  0  0  0
  139.7452   67.8213  226.9200 H   0  0  0  0  0  0  0  0  0  0  0  0
  140.7204   68.6189  229.0950 H   0  0  0  0  0  0  0  0  0  0  0  0
  141.5493   70.9775  229.2768 H   0  0  0  0  0  0  0  0  0  0  0  0
  141.3901   72.4831  227.3112 H   0  0  0  0  0  0  0  0  0  0  0  0
  136.2163   73.0704  222.8252 H   0  0  0  0  0  0  0  0  0  0  0  0
  134.7638   72.3218  224.6894 H   0  0  0  0  0  0  0  0  0  0  0  0
  132.3423   72.3866  226.1676 H   0  0  0  0  0  0  0  0  0  0  0  0
  130.5597   73.4477  227.7247 H   0  0  0  0  0  0  0  0  0  0  0  0
  132.0179   73.2601  228.6398 H   0  0  0  0  0  0  0  0  0  0  0  0
  131.0168   75.7468  228.4562 H   0  0  0  0  0  0  0  0  0  0  0  0
  132.7245   75.6471  228.1093 H   0  0  0  0  0  0  0  0  0  0  0  0
  130.3997   76.0166  226.2506 H   0  0  0  0  0  0  0  0  0  0  0  0
  132.1081   76.4454  225.9790 H   0  0  0  0  0  0  0  0  0  0  0  0
  130.6294   73.9949  225.2049 H   0  0  0  0  0  0  0  0  0  0  0  0
  132.1538   74.5834  224.5685 H   0  0  0  0  0  0  0  0  0  0  0  0
  134.3657   76.3538  226.0456 H   0  0  0  0  0  0  0  0  0  0  0  0
  135.7991   77.0858  224.2124 H   0  0  0  0  0  0  0  0  0  0  0  0
  1  2  1  0
  2  3  1  0
  3  4  1  0
  4  5  2  0
  4  6  1  0
  6  7  1  0
  7  8  1  0
  8  9  2  0
  8 10  1  0
 10 11  2  0
 11 12  1  0
 12 13  2  0
 13 14  1  0
 14 15  2  0
 15 16  1  0
 16 17  2  0
 17 18  1  0
 18 19  2  0
  2 20  1  0
 20 21  2  0
 21 22  1  0
 22 23  2  0
 23 24  1  0
 24 25  1  0
 25 26  1  0
 26 27  1  0
 27 28  1  0
 28 29  1  0
 23 30  1  0
 30 31  2  0
 19 10  1  0
 31 20  1  0
 18 13  1  0
 29 25  1  0
  1 32  1  0
  1 33  1  0
  1 34  1  0
  2 35  1  6
  3 36  1  0
  6 37  1  0
  6 38  1  0
  7 39  1  0
 11 40  1  0
 12 41  1  0
 14 42  1  0
 15 43  1  0
 16 44  1  0
 17 45  1  0
 21 46  1  0
 22 47  1  0
 25 48  1  0
 26 49  1  0
 26 50  1  0
 27 51  1  0
 27 52  1  0
 28 53  1  0
 28 54  1  0
 29 55  1  0
 29 56  1  0
 30 57  1  0
 31 58  1  0
M  END
>  <smiles>  (55) 
CC(NC(=O)CNC(=O)c1ccc2ccccc2n1)c1ccc(OC2CCCC2)cc1

>  <score_type>  (55) 
oracle

>  <origin>  (55) 
autodockgpu

>  <m_score__min__energy>  (55) 
-8.6899999999999995

>  <m_primary>  (55) 
energy

>  <rmsd>  (55) 
7.209513555855838

>  <m_score__min__rmsd>  (55) 
7.209513555855838

>  <meeko>  (55) 
{"free_energy": -8.59, "intermolecular_energy": -10.68, "internal_energy": -2.3, "cluster_size": 15, "cluster_id": 2, "rank_in_cluster": 4}

>  <energy>  (55) 
-8.57

>  <cluster_rmsd>  (55) 
0.19

>  <cluster>  (55) 
1

$$$$

     RDKit          3D

 58 61  0  0  0  0  0  0  0  0999 V2000
  142.4440   73.2100  220.8270 C   0  0  0  0  0  0  0  0  0  0  0  0
  141.2290   73.9760  220.3540 C   0  0  1  0  0  0  0  0  0  0  0  0
  140.0810   73.3450  221.0050 N   0  0  0  0  0  0  0  0  0  0  0  0
  138.8360   73.2410  220.3260 C   0  0  0  0  0  0  0  0  0  0  0  0
  138.7790   73.7130  219.1590 O   0  0  0  0  0  0  0  0  0  0  0  0
  137.6770   72.5970  220.9970 C   0  0  0  0  0  0  0  0  0  0  0  0
  138.1230   72.1260  222.2850 N   0  0  0  0  0  0  0  0  0  0  0  0
  138.8840   70.9400  222.4300 C   0  0  0  0  0  0  0  0  0  0  0  0
  139.1660   70.2940  221.3860 O   0  0  0  0  0  0  0  0  0  0  0  0
  139.3260   70.4780  223.7410 C   0  0  0  0  0  0  0  0  0  0  0  0
  139.2140   69.1400  224.0550 C   0  0  0  0  0  0  0  0  0  0  0  0
  139.6050   68.6090  225.2670 C   0  0  0  0  0  0  0  0  0  0  0  0
  140.1350   69.4790  226.2040 C   0  0  0  0  0  0  0  0  0  0  0  0
  140.5280   68.9590  227.4130 C   0  0  0  0  0  0  0  0  0  0  0  0
  141.0650   69.8190  228.3770 C   0  0  0  0  0  0  0  0  0  0  0  0
  141.1910   71.1780  228.0880 C   0  0  0  0  0  0  0  0  0  0  0  0
  140.7760   71.6480  226.8440 C   0  0  0  0  0  0  0  0  0  0  0  0
  140.2450   70.8180  225.8860 C   0  0  0  0  0  0  0  0  0  0  0  0
  139.8450   71.3020  224.6730 N   0  0  0  0  0  0  0  0  0  0  0  0
  141.2540   75.3860  220.7810 C   0  0  0  0  0  0  0  0  0  0  0  0
  141.9290   76.3300  220.0340 C   0  0  0  0  0  0  0  0  0  0  0  0
  141.9270   77.6490  220.4730 C   0  0  0  0  0  0  0  0  0  0  0  0
  141.2820   78.0540  221.6180 C   0  0  0  0  0  0  0  0  0  0  0  0
  141.2460   79.3340  222.0980 O   0  0  0  0  0  0  0  0  0  0  0  0
  142.1840   80.3410  221.8170 C   0  0  0  0  0  0  0  0  0  0  0  0
  141.6550   81.6520  222.3810 C   0  0  0  0  0  0  0  0  0  0  0  0
  141.5370   81.2800  223.8590 C   0  0  0  0  0  0  0  0  0  0  0  0
  142.8240   80.5270  224.1020 C   0  0  0  0  0  0  0  0  0  0  0  0
  143.3610   80.1030  222.7620 C   0  0  0  0  0  0  0  0  0  0  0  0
  140.6160   77.0770  222.3410 C   0  0  0  0  0  0  0  0  0  0  0  0
  140.6150   75.7820  221.9130 C   0  0  0  0  0  0  0  0  0  0  0  0
  142.4642   73.1973  221.9267 H   0  0  0  0  0  0  0  0  0  0  0  0
  142.3968   72.1780  220.4492 H   0  0  0  0  0  0  0  0  0  0  0  0
  143.3548   73.6975  220.4492 H   0  0  0  0  0  0  0  0  0  0  0  0
  141.1916   73.9560  219.2548 H   0  0  0  0  0  0  0  0  0  0  0  0
  140.1400   72.9570  221.9700 H   0  0  0  0  0  0  0  0  0  0  0  0
  136.8650   73.3278  221.1258 H   0  0  0  0  0  0  0  0  0  0  0  0
  137.2965   71.7612  220.3914 H   0  0  0  0  0  0  0  0  0  0  0  0
  137.8930   72.6550  223.1620 H   0  0  0  0  0  0  0  0  0  0  0  0
  138.7911   68.4608  223.3001 H   0  0  0  0  0  0  0  0  0  0  0  0
  139.4995   67.5351  225.4805 H   0  0  0  0  0  0  0  0  0  0  0  0
  140.4222   67.8838  227.6199 H   0  0  0  0  0  0  0  0  0  0  0  0
  141.3849   69.4273  229.3538 H   0  0  0  0  0  0  0  0  0  0  0  0
  141.6125   71.8693  228.8326 H   0  0  0  0  0  0  0  0  0  0  0  0
  140.8768   72.7204  226.6208 H   0  0  0  0  0  0  0  0  0  0  0  0
  142.4568   76.0451  219.1119 H   0  0  0  0  0  0  0  0  0  0  0  0
  142.4651   78.4019  219.8783 H   0  0  0  0  0  0  0  0  0  0  0  0
  142.4061   80.3513  220.7397 H   0  0  0  0  0  0  0  0  0  0  0  0
  142.3633   82.4788  222.2239 H   0  0  0  0  0  0  0  0  0  0  0  0
  140.7237   82.0116  221.9191 H   0  0  0  0  0  0  0  0  0  0  0  0
  141.4741   82.1772  224.4923 H   0  0  0  0  0  0  0  0  0  0  0  0
  140.6337   80.6993  224.0975 H   0  0  0  0  0  0  0  0  0  0  0  0
  143.5507   81.1793  224.6083 H   0  0  0  0  0  0  0  0  0  0  0  0
  142.6447   79.6505  224.7420 H   0  0  0  0  0  0  0  0  0  0  0  0
  144.2276   80.7160  222.4734 H   0  0  0  0  0  0  0  0  0  0  0  0
  143.7161   79.0619  222.7517 H   0  0  0  0  0  0  0  0  0  0  0  0
  140.0850   77.3476  223.2656 H   0  0  0  0  0  0  0  0  0  0  0  0
  140.0762   75.0291  222.5070 H   0  0  0  0  0  0  0  0  0  0  0  0
  1  2  1  0
  2  3  1  0
  3  4  1  0
  4  5  2  0
  4  6  1  0
  6  7  1  0
  7  8  1  0
  8  9  2  0
  8 10  1  0
 10 11  2  0
 11 12  1  0
 12 13  2  0
 13 14  1  0
 14 15  2  0
 15 16  1  0
 16 17  2  0
 17 18  1  0
 18 19  2  0
  2 20  1  0
 20 21  2  0
 21 22  1  0
 22 23  2  0
 23 24  1  0
 24 25  1  0
 25 26  1  0
 26 27  1  0
 27 28  1  0
 28 29  1  0
 23 30  1  0
 30 31  2  0
 19 10  1  0
 31 20  1  0
 18 13  1  0
 29 25  1  0
  1 32  1  0
  1 33  1  0
  1 34  1  0
  2 35  1  6
  3 36  1  0
  6 37  1  0
  6 38  1  0
  7 39  1  0
 11 40  1  0
 12 41  1  0
 14 42  1  0
 15 43  1  0
 16 44  1  0
 17 45  1  0
 21 46  1  0
 22 47  1  0
 25 48  1  0
 26 49  1  0
 26 50  1  0
 27 51  1  0
 27 52  1  0
 28 53  1  0
 28 54  1  0
 29 55  1  0
 29 56  1  0
 30 57  1  0
 31 58  1  0
M  END
>  <smiles>  (56) 
CC(NC(=O)CNC(=O)c1ccc2ccccc2n1)c1ccc(OC2CCCC2)cc1

>  <score_type>  (56) 
oracle

>  <origin>  (56) 
autodockgpu

>  <m_score__min__energy>  (56) 
-8.6899999999999995

>  <m_primary>  (56) 
energy

>  <rmsd>  (56) 
5.558550183476967

>  <m_score__min__rmsd>  (56) 
5.558550183476967

>  <meeko>  (56) 
{"free_energy": -8.45, "intermolecular_energy": -10.54, "internal_energy": -1.82, "cluster_size": 31, "cluster_id": 1, "rank_in_cluster": 11}

>  <energy>  (56) 
-8.53

>  <cluster_rmsd>  (56) 
0.7

>  <cluster>  (56) 
1

$$$$

     RDKit          3D

 58 61  0  0  0  0  0  0  0  0999 V2000
  142.0060   72.6930  220.7870 C   0  0  0  0  0  0  0  0  0  0  0  0
  140.8370   73.5800  220.4220 C   0  0  1  0  0  0  0  0  0  0  0  0
  139.6980   73.0780  221.1900 N   0  0  0  0  0  0  0  0  0  0  0  0
  138.3710   73.2690  220.7190 C   0  0  0  0  0  0  0  0  0  0  0  0
  138.2340   73.8820  219.6270 O   0  0  0  0  0  0  0  0  0  0  0  0
  137.2210   72.7540  221.5090 C   0  0  0  0  0  0  0  0  0  0  0  0
  137.7450   72.1980  222.7320 N   0  0  0  0  0  0  0  0  0  0  0  0
  138.5640   71.0420  222.7420 C   0  0  0  0  0  0  0  0  0  0  0  0
  138.8290   70.5010  221.6350 O   0  0  0  0  0  0  0  0  0  0  0  0
  139.0850   70.4920  223.9890 C   0  0  0  0  0  0  0  0  0  0  0  0
  139.0180   69.1320  224.2040 C   0  0  0  0  0  0  0  0  0  0  0  0
  139.4840   68.5200  225.3490 C   0  0  0  0  0  0  0  0  0  0  0  0
  140.0430   69.3290  226.3230 C   0  0  0  0  0  0  0  0  0  0  0  0
  140.5100   68.7290  227.4670 C   0  0  0  0  0  0  0  0  0  0  0  0
  141.0790   69.5260  228.4660 C   0  0  0  0  0  0  0  0  0  0  0  0
  141.1600   70.9060  228.2770 C   0  0  0  0  0  0  0  0  0  0  0  0
  140.6710   71.4580  227.0960 C   0  0  0  0  0  0  0  0  0  0  0  0
  140.1080   70.6910  226.1040 C   0  0  0  0  0  0  0  0  0  0  0  0
  139.6350   71.2550  224.9550 N   0  0  0  0  0  0  0  0  0  0  0  0
  141.0520   74.9820  220.8210 C   0  0  0  0  0  0  0  0  0  0  0  0
  141.8280   75.8180  220.0460 C   0  0  0  0  0  0  0  0  0  0  0  0
  142.0040   77.1330  220.4590 C   0  0  0  0  0  0  0  0  0  0  0  0
  141.4380   77.6370  221.6080 C   0  0  0  0  0  0  0  0  0  0  0  0
  141.5760   78.9200  222.0630 O   0  0  0  0  0  0  0  0  0  0  0  0
  141.7250   79.3000  223.4080 C   0  0  0  0  0  0  0  0  0  0  0  0
  142.6110   80.5360  223.4550 C   0  0  0  0  0  0  0  0  0  0  0  0
  141.7770   81.4960  222.6060 C   0  0  0  0  0  0  0  0  0  0  0  0
  140.3790   81.2410  223.1160 C   0  0  0  0  0  0  0  0  0  0  0  0
  140.3910   79.9150  223.8270 C   0  0  0  0  0  0  0  0  0  0  0  0
  140.6650   76.7670  222.3590 C   0  0  0  0  0  0  0  0  0  0  0  0
  140.4890   75.4760  221.9560 C   0  0  0  0  0  0  0  0  0  0  0  0
  142.0900   72.6292  221.8819 H   0  0  0  0  0  0  0  0  0  0  0  0
  141.8463   71.6868  220.3723 H   0  0  0  0  0  0  0  0  0  0  0  0
  142.9321   73.1177  220.3723 H   0  0  0  0  0  0  0  0  0  0  0  0
  140.6897   73.5572  219.3321 H   0  0  0  0  0  0  0  0  0  0  0  0
  139.8240   72.5720  222.0930 H   0  0  0  0  0  0  0  0  0  0  0  0
  136.5258   73.5751  221.7381 H   0  0  0  0  0  0  0  0  0  0  0  0
  136.6742   71.9877  220.9399 H   0  0  0  0  0  0  0  0  0  0  0  0
  137.5310   72.6390  223.6590 H   0  0  0  0  0  0  0  0  0  0  0  0
  138.5696   68.5020  223.4217 H   0  0  0  0  0  0  0  0  0  0  0  0
  139.4140   67.4304  225.4829 H   0  0  0  0  0  0  0  0  0  0  0  0
  140.4377   67.6389  227.5956 H   0  0  0  0  0  0  0  0  0  0  0  0
  141.4589   69.0691  229.3917 H   0  0  0  0  0  0  0  0  0  0  0  0
  141.6043   71.5493  229.0508 H   0  0  0  0  0  0  0  0  0  0  0  0
  140.7376   72.5465  226.9517 H   0  0  0  0  0  0  0  0  0  0  0  0
  142.2974   75.4518  219.1210 H   0  0  0  0  0  0  0  0  0  0  0  0
  142.6226   77.8003  219.8408 H   0  0  0  0  0  0  0  0  0  0  0  0
  142.0846   78.4443  223.9984 H   0  0  0  0  0  0  0  0  0  0  0  0
  142.7395   80.9068  224.4826 H   0  0  0  0  0  0  0  0  0  0  0  0
  143.6406   80.3806  223.1005 H   0  0  0  0  0  0  0  0  0  0  0  0
  142.0781   82.5407  222.7733 H   0  0  0  0  0  0  0  0  0  0  0  0
  141.8876   81.3375  221.5231 H   0  0  0  0  0  0  0  0  0  0  0  0
  140.0825   82.0383  223.8134 H   0  0  0  0  0  0  0  0  0  0  0  0
  139.6598   81.2275  222.2838 H   0  0  0  0  0  0  0  0  0  0  0  0
  140.3464   80.0528  224.9174 H   0  0  0  0  0  0  0  0  0  0  0  0
  139.5278   79.2830  223.5711 H   0  0  0  0  0  0  0  0  0  0  0  0
  140.1900   77.1196  223.2864 H   0  0  0  0  0  0  0  0  0  0  0  0
  139.8682   74.8091  222.5723 H   0  0  0  0  0  0  0  0  0  0  0  0
  1  2  1  0
  2  3  1  0
  3  4  1  0
  4  5  2  0
  4  6  1  0
  6  7  1  0
  7  8  1  0
  8  9  2  0
  8 10  1  0
 10 11  2  0
 11 12  1  0
 12 13  2  0
 13 14  1  0
 14 15  2  0
 15 16  1  0
 16 17  2  0
 17 18  1  0
 18 19  2  0
  2 20  1  0
 20 21  2  0
 21 22  1  0
 22 23  2  0
 23 24  1  0
 24 25  1  0
 25 26  1  0
 26 27  1  0
 27 28  1  0
 28 29  1  0
 23 30  1  0
 30 31  2  0
 19 10  1  0
 31 20  1  0
 18 13  1  0
 29 25  1  0
  1 32  1  0
  1 33  1  0
  1 34  1  0
  2 35  1  6
  3 36  1  0
  6 37  1  0
  6 38  1  0
  7 39  1  0
 11 40  1  0
 12 41  1  0
 14 42  1  0
 15 43  1  0
 16 44  1  0
 17 45  1  0
 21 46  1  0
 22 47  1  0
 25 48  1  0
 26 49  1  0
 26 50  1  0
 27 51  1  0
 27 52  1  0
 28 53  1  0
 28 54  1  0
 29 55  1  0
 29 56  1  0
 30 57  1  0
 31 58  1  0
M  END
>  <smiles>  (57) 
CC(NC(=O)CNC(=O)c1ccc2ccccc2n1)c1ccc(OC2CCCC2)cc1

>  <score_type>  (57) 
oracle

>  <origin>  (57) 
autodockgpu

>  <m_score__min__energy>  (57) 
-8.6899999999999995

>  <m_primary>  (57) 
energy

>  <rmsd>  (57) 
5.933028373561228

>  <m_score__min__rmsd>  (57) 
5.933028373561228

>  <meeko>  (57) 
{"free_energy": -8.36, "intermolecular_energy": -10.45, "internal_energy": -1.94, "cluster_size": 31, "cluster_id": 1, "rank_in_cluster": 18}

>  <energy>  (57) 
-8.53

>  <cluster_rmsd>  (57) 
0.56

>  <cluster>  (57) 
1

$$$$

     RDKit          3D

 58 61  0  0  0  0  0  0  0  0999 V2000
  137.6130   76.3330  222.3990 C   0  0  0  0  0  0  0  0  0  0  0  0
  136.8440   75.0520  222.1600 C   0  0  1  0  0  0  0  0  0  0  0  0
  137.8530   74.0120  221.9600 N   0  0  0  0  0  0  0  0  0  0  0  0
  137.9180   73.2980  220.7330 C   0  0  0  0  0  0  0  0  0  0  0  0
  137.0760   73.6050  219.8470 O   0  0  0  0  0  0  0  0  0  0  0  0
  138.9480   72.2430  220.5410 C   0  0  0  0  0  0  0  0  0  0  0  0
  139.0930   71.5420  221.7930 N   0  0  0  0  0  0  0  0  0  0  0  0
  139.9450   72.0100  222.8230 C   0  0  0  0  0  0  0  0  0  0  0  0
  140.5850   73.0760  222.6160 O   0  0  0  0  0  0  0  0  0  0  0  0
  140.0800   71.2870  224.0830 C   0  0  0  0  0  0  0  0  0  0  0  0
  140.7060   71.9020  225.1470 C   0  0  0  0  0  0  0  0  0  0  0  0
  140.8810   71.3000  226.3760 C   0  0  0  0  0  0  0  0  0  0  0  0
  140.3980   70.0120  226.5310 C   0  0  0  0  0  0  0  0  0  0  0  0
  140.5670   69.4050  227.7520 C   0  0  0  0  0  0  0  0  0  0  0  0
  140.0880   68.1040  227.9320 C   0  0  0  0  0  0  0  0  0  0  0  0
  139.4510   67.4560  226.8740 C   0  0  0  0  0  0  0  0  0  0  0  0
  139.3070   68.1220  225.6590 C   0  0  0  0  0  0  0  0  0  0  0  0
  139.7730   69.4010  225.4630 C   0  0  0  0  0  0  0  0  0  0  0  0
  139.6200   70.0330  224.2630 N   0  0  0  0  0  0  0  0  0  0  0  0
  136.0340   74.6590  223.3260 C   0  0  0  0  0  0  0  0  0  0  0  0
  135.5520   73.3720  223.4390 C   0  0  0  0  0  0  0  0  0  0  0  0
  134.7930   73.0430  224.5560 C   0  0  0  0  0  0  0  0  0  0  0  0
  134.5020   73.9450  225.5530 C   0  0  0  0  0  0  0  0  0  0  0  0
  133.7610   73.6800  226.6720 O   0  0  0  0  0  0  0  0  0  0  0  0
  132.4200   73.2620  226.6870 C   0  0  0  0  0  0  0  0  0  0  0  0
  131.7360   73.9100  227.8820 C   0  0  0  0  0  0  0  0  0  0  0  0
  131.9430   75.3860  227.5420 C   0  0  0  0  0  0  0  0  0  0  0  0
  131.6330   75.4200  226.0640 C   0  0  0  0  0  0  0  0  0  0  0  0
  131.7280   74.0100  225.5490 C   0  0  0  0  0  0  0  0  0  0  0  0
  135.0040   75.2280  225.4040 C   0  0  0  0  0  0  0  0  0  0  0  0
  135.7500   75.5540  224.3100 C   0  0  0  0  0  0  0  0  0  0  0  0
  137.7150   76.5030  223.4810 H   0  0  0  0  0  0  0  0  0  0  0  0
  138.6116   76.2514  221.9449 H   0  0  0  0  0  0  0  0  0  0  0  0
  137.0715   77.1759  221.9449 H   0  0  0  0  0  0  0  0  0  0  0  0
  136.1635   75.1897  221.3068 H   0  0  0  0  0  0  0  0  0  0  0  0
  138.5450   73.7670  222.7000 H   0  0  0  0  0  0  0  0  0  0  0  0
  138.6269   71.5439  219.7547 H   0  0  0  0  0  0  0  0  0  0  0  0
  139.9057   72.6893  220.2350 H   0  0  0  0  0  0  0  0  0  0  0  0
  138.5660   70.6530  221.9770 H   0  0  0  0  0  0  0  0  0  0  0  0
  141.0853   72.9252  225.0086 H   0  0  0  0  0  0  0  0  0  0  0  0
  141.3853   71.8237  227.2015 H   0  0  0  0  0  0  0  0  0  0  0  0
  141.0709   69.9340  228.5743 H   0  0  0  0  0  0  0  0  0  0  0  0
  140.2124   67.5959  228.8996 H   0  0  0  0  0  0  0  0  0  0  0  0
  139.0673   66.4325  226.9973 H   0  0  0  0  0  0  0  0  0  0  0  0
  138.8032   67.6072  224.8277 H   0  0  0  0  0  0  0  0  0  0  0  0
  135.7635   72.6223  222.6623 H   0  0  0  0  0  0  0  0  0  0  0  0
  134.4082   72.0165  224.6467 H   0  0  0  0  0  0  0  0  0  0  0  0
  132.3728   72.1633  226.6602 H   0  0  0  0  0  0  0  0  0  0  0  0
  130.6686   73.6489  227.9319 H   0  0  0  0  0  0  0  0  0  0  0  0
  132.1287   73.6021  228.8623 H   0  0  0  0  0  0  0  0  0  0  0  0
  131.2517   76.0266  228.1093 H   0  0  0  0  0  0  0  0  0  0  0  0
  132.9471   75.7597  227.7911 H   0  0  0  0  0  0  0  0  0  0  0  0
  130.6177   75.8112  225.9022 H   0  0  0  0  0  0  0  0  0  0  0  0
  132.3415   76.0741  225.5347 H   0  0  0  0  0  0  0  0  0  0  0  0
  130.7284   73.5938  225.3552 H   0  0  0  0  0  0  0  0  0  0  0  0
  132.2711   73.9374  224.5952 H   0  0  0  0  0  0  0  0  0  0  0  0
  134.7996   75.9879  226.1726 H   0  0  0  0  0  0  0  0  0  0  0  0
  136.1368   76.5798  224.2199 H   0  0  0  0  0  0  0  0  0  0  0  0
  1  2  1  0
  2  3  1  0
  3  4  1  0
  4  5  2  0
  4  6  1  0
  6  7  1  0
  7  8  1  0
  8  9  2  0
  8 10  1  0
 10 11  2  0
 11 12  1  0
 12 13  2  0
 13 14  1  0
 14 15  2  0
 15 16  1  0
 16 17  2  0
 17 18  1  0
 18 19  2  0
  2 20  1  0
 20 21  2  0
 21 22  1  0
 22 23  2  0
 23 24  1  0
 24 25  1  0
 25 26  1  0
 26 27  1  0
 27 28  1  0
 28 29  1  0
 23 30  1  0
 30 31  2  0
 19 10  1  0
 31 20  1  0
 18 13  1  0
 29 25  1  0
  1 32  1  0
  1 33  1  0
  1 34  1  0
  2 35  1  6
  3 36  1  0
  6 37  1  0
  6 38  1  0
  7 39  1  0
 11 40  1  0
 12 41  1  0
 14 42  1  0
 15 43  1  0
 16 44  1  0
 17 45  1  0
 21 46  1  0
 22 47  1  0
 25 48  1  0
 26 49  1  0
 26 50  1  0
 27 51  1  0
 27 52  1  0
 28 53  1  0
 28 54  1  0
 29 55  1  0
 29 56  1  0
 30 57  1  0
 31 58  1  0
M  END
>  <smiles>  (58) 
CC(NC(=O)CNC(=O)c1ccc2ccccc2n1)c1ccc(OC2CCCC2)cc1

>  <score_type>  (58) 
oracle

>  <origin>  (58) 
autodockgpu

>  <m_score__min__energy>  (58) 
-8.6899999999999995

>  <m_primary>  (58) 
energy

>  <rmsd>  (58) 
7.230714275776029

>  <m_score__min__rmsd>  (58) 
7.230714275776029

>  <meeko>  (58) 
{"free_energy": -8.44, "intermolecular_energy": -10.53, "internal_energy": -2.51, "cluster_size": 15, "cluster_id": 2, "rank_in_cluster": 10}

>  <energy>  (58) 
-8.5

>  <cluster_rmsd>  (58) 
1.28

>  <cluster>  (58) 
1

$$$$

     RDKit          3D

 58 61  0  0  0  0  0  0  0  0999 V2000
  143.1130   73.4040  220.7520 C   0  0  0  0  0  0  0  0  0  0  0  0
  141.8060   73.9520  220.2230 C   0  0  1  0  0  0  0  0  0  0  0  0
  140.7570   73.1140  220.8050 N   0  0  0  0  0  0  0  0  0  0  0  0
  139.4130   73.2320  220.3590 C   0  0  0  0  0  0  0  0  0  0  0  0
  139.1810   74.0800  219.4560 O   0  0  0  0  0  0  0  0  0  0  0  0
  138.3550   72.3750  220.9560 C   0  0  0  0  0  0  0  0  0  0  0  0
  138.7240   72.1160  222.3260 N   0  0  0  0  0  0  0  0  0  0  0  0
  139.6490   71.1030  222.6770 C   0  0  0  0  0  0  0  0  0  0  0  0
  140.1520   70.4200  221.7460 O   0  0  0  0  0  0  0  0  0  0  0  0
  140.0110   70.8550  224.0690 C   0  0  0  0  0  0  0  0  0  0  0  0
  140.6520   71.8440  224.7840 C   0  0  0  0  0  0  0  0  0  0  0  0
  141.0320   71.7030  226.1020 C   0  0  0  0  0  0  0  0  0  0  0  0
  140.7490   70.4990  226.7240 C   0  0  0  0  0  0  0  0  0  0  0  0
  141.1230   70.3500  228.0370 C   0  0  0  0  0  0  0  0  0  0  0  0
  140.8480   69.1420  228.6860 C   0  0  0  0  0  0  0  0  0  0  0  0
  140.2010   68.1220  227.9880 C   0  0  0  0  0  0  0  0  0  0  0  0
  139.8440   68.3310  226.6580 C   0  0  0  0  0  0  0  0  0  0  0  0
  140.1070   69.5110  226.0040 C   0  0  0  0  0  0  0  0  0  0  0  0
  139.7470   69.6930  224.6990 N   0  0  0  0  0  0  0  0  0  0  0  0
  141.5590   75.3350  220.6670 C   0  0  0  0  0  0  0  0  0  0  0  0
  142.0960   76.3980  219.9710 C   0  0  0  0  0  0  0  0  0  0  0  0
  141.8380   77.6870  220.4240 C   0  0  0  0  0  0  0  0  0  0  0  0
  141.0690   77.9470  221.5350 C   0  0  0  0  0  0  0  0  0  0  0  0
  140.7820   79.1910  222.0270 O   0  0  0  0  0  0  0  0  0  0  0  0
  140.5530   79.5060  223.3770 C   0  0  0  0  0  0  0  0  0  0  0  0
  141.8250   79.2050  224.1550 C   0  0  0  0  0  0  0  0  0  0  0  0
  142.8050   80.1340  223.4380 C   0  0  0  0  0  0  0  0  0  0  0  0
  141.9930   81.3990  223.2860 C   0  0  0  0  0  0  0  0  0  0  0  0
  140.5450   81.0320  223.4620 C   0  0  0  0  0  0  0  0  0  0  0  0
  140.5470   76.8540  222.2070 C   0  0  0  0  0  0  0  0  0  0  0  0
  140.7990   75.5880  221.7660 C   0  0  0  0  0  0  0  0  0  0  0  0
  143.0953   73.4114  221.8518 H   0  0  0  0  0  0  0  0  0  0  0  0
  143.2497   72.3728  220.3944 H   0  0  0  0  0  0  0  0  0  0  0  0
  143.9443   74.0293  220.3944 H   0  0  0  0  0  0  0  0  0  0  0  0
  141.8275   73.9481  219.1232 H   0  0  0  0  0  0  0  0  0  0  0  0
  140.9610   72.4160  221.5510 H   0  0  0  0  0  0  0  0  0  0  0  0
  137.3865   72.8954  220.9205 H   0  0  0  0  0  0  0  0  0  0  0  0
  138.2606   71.4324  220.3969 H   0  0  0  0  0  0  0  0  0  0  0  0
  138.3120   72.6790  223.1110 H   0  0  0  0  0  0  0  0  0  0  0  0
  140.8718   72.7950  224.2768 H   0  0  0  0  0  0  0  0  0  0  0  0
  141.5410   72.5168  226.6392 H   0  0  0  0  0  0  0  0  0  0  0  0
  141.6307   71.1676  228.5697 H   0  0  0  0  0  0  0  0  0  0  0  0
  141.1391   68.9975  229.7369 H   0  0  0  0  0  0  0  0  0  0  0  0
  139.9757   67.1651  228.4816 H   0  0  0  0  0  0  0  0  0  0  0  0
  139.3339   67.5237  226.1121 H   0  0  0  0  0  0  0  0  0  0  0  0
  142.7147   76.2296  219.0772 H   0  0  0  0  0  0  0  0  0  0  0  0
  142.2670   78.5353  219.8705 H   0  0  0  0  0  0  0  0  0  0  0  0
  139.6528   78.9840  223.7336 H   0  0  0  0  0  0  0  0  0  0  0  0
  141.7227   79.4634  225.2193 H   0  0  0  0  0  0  0  0  0  0  0  0
  142.1186   78.1450  224.1681 H   0  0  0  0  0  0  0  0  0  0  0  0
  143.7056   80.3087  224.0450 H   0  0  0  0  0  0  0  0  0  0  0  0
  143.1777   79.7315  222.4846 H   0  0  0  0  0  0  0  0  0  0  0  0
  142.2906   82.1304  224.0518 H   0  0  0  0  0  0  0  0  0  0  0  0
  142.1604   81.8498  222.2967 H   0  0  0  0  0  0  0  0  0  0  0  0
  140.1694   81.3697  224.4392 H   0  0  0  0  0  0  0  0  0  0  0  0
  139.8894   81.5002  222.7130 H   0  0  0  0  0  0  0  0  0  0  0  0
  139.9256   77.0078  223.1015 H   0  0  0  0  0  0  0  0  0  0  0  0
  140.3713   74.7396  222.3203 H   0  0  0  0  0  0  0  0  0  0  0  0
  1  2  1  0
  2  3  1  0
  3  4  1  0
  4  5  2  0
  4  6  1  0
  6  7  1  0
  7  8  1  0
  8  9  2  0
  8 10  1  0
 10 11  2  0
 11 12  1  0
 12 13  2  0
 13 14  1  0
 14 15  2  0
 15 16  1  0
 16 17  2  0
 17 18  1  0
 18 19  2  0
  2 20  1  0
 20 21  2  0
 21 22  1  0
 22 23  2  0
 23 24  1  0
 24 25  1  0
 25 26  1  0
 26 27  1  0
 27 28  1  0
 28 29  1  0
 23 30  1  0
 30 31  2  0
 19 10  1  0
 31 20  1  0
 18 13  1  0
 29 25  1  0
  1 32  1  0
  1 33  1  0
  1 34  1  0
  2 35  1  6
  3 36  1  0
  6 37  1  0
  6 38  1  0
  7 39  1  0
 11 40  1  0
 12 41  1  0
 14 42  1  0
 15 43  1  0
 16 44  1  0
 17 45  1  0
 21 46  1  0
 22 47  1  0
 25 48  1  0
 26 49  1  0
 26 50  1  0
 27 51  1  0
 27 52  1  0
 28 53  1  0
 28 54  1  0
 29 55  1  0
 29 56  1  0
 30 57  1  0
 31 58  1  0
M  END
>  <smiles>  (59) 
CC(NC(=O)CNC(=O)c1ccc2ccccc2n1)c1ccc(OC2CCCC2)cc1

>  <score_type>  (59) 
oracle

>  <origin>  (59) 
autodockgpu

>  <m_score__min__energy>  (59) 
-8.6899999999999995

>  <m_primary>  (59) 
energy

>  <rmsd>  (59) 
5.455817023103978

>  <m_score__min__rmsd>  (59) 
5.455817023103978

>  <meeko>  (59) 
{"free_energy": -8.65, "intermolecular_energy": -10.73, "internal_energy": -2.13, "cluster_size": 31, "cluster_id": 1, "rank_in_cluster": 3}

>  <energy>  (59) 
-8.5

>  <cluster_rmsd>  (59) 
1.25

>  <cluster>  (59) 
1

$$$$

     RDKit          3D

 58 61  0  0  0  0  0  0  0  0999 V2000
  143.4230   73.1110  220.8450 C   0  0  0  0  0  0  0  0  0  0  0  0
  142.2450   73.6410  220.0580 C   0  0  1  0  0  0  0  0  0  0  0  0
  141.0880   72.8590  220.4960 N   0  0  0  0  0  0  0  0  0  0  0  0
  139.8790   72.8840  219.7490 C   0  0  0  0  0  0  0  0  0  0  0  0
  139.8600   73.6020  218.7140 O   0  0  0  0  0  0  0  0  0  0  0  0
  138.7110   72.0850  220.2030 C   0  0  0  0  0  0  0  0  0  0  0  0
  139.1090   71.3590  221.3830 N   0  0  0  0  0  0  0  0  0  0  0  0
  139.4900   72.0170  222.5780 C   0  0  0  0  0  0  0  0  0  0  0  0
  139.4730   73.2770  222.5850 O   0  0  0  0  0  0  0  0  0  0  0  0
  139.8910   71.2660  223.7630 C   0  0  0  0  0  0  0  0  0  0  0  0
  140.6990   71.8730  224.7020 C   0  0  0  0  0  0  0  0  0  0  0  0
  141.1290   71.2450  225.8530 C   0  0  0  0  0  0  0  0  0  0  0  0
  140.7200   69.9390  226.0590 C   0  0  0  0  0  0  0  0  0  0  0  0
  141.1430   69.3060  227.2020 C   0  0  0  0  0  0  0  0  0  0  0  0
  140.7430   67.9850  227.4320 C   0  0  0  0  0  0  0  0  0  0  0  0
  139.9260   67.3450  226.4990 C   0  0  0  0  0  0  0  0  0  0  0  0
  139.5280   68.0380  225.3590 C   0  0  0  0  0  0  0  0  0  0  0  0
  139.9120   69.3350  225.1160 C   0  0  0  0  0  0  0  0  0  0  0  0
  139.5080   69.9940  223.9900 N   0  0  0  0  0  0  0  0  0  0  0  0
  141.9590   75.0540  220.3620 C   0  0  0  0  0  0  0  0  0  0  0  0
  141.1630   75.3900  221.4370 C   0  0  0  0  0  0  0  0  0  0  0  0
  140.9190   76.7350  221.6890 C   0  0  0  0  0  0  0  0  0  0  0  0
  141.4380   77.7450  220.9120 C   0  0  0  0  0  0  0  0  0  0  0  0
  141.2320   79.0830  221.1100 O   0  0  0  0  0  0  0  0  0  0  0  0
  142.1540   79.9780  221.6790 C   0  0  0  0  0  0  0  0  0  0  0  0
  141.3880   81.1990  222.1670 C   0  0  0  0  0  0  0  0  0  0  0  0
  140.4360   80.5380  223.1650 C   0  0  0  0  0  0  0  0  0  0  0  0
  141.3480   79.5690  223.8810 C   0  0  0  0  0  0  0  0  0  0  0  0
  142.5650   79.3710  223.0190 C   0  0  0  0  0  0  0  0  0  0  0  0
  142.2320   77.3680  219.8410 C   0  0  0  0  0  0  0  0  0  0  0  0
  142.4740   76.0490  219.5920 C   0  0  0  0  0  0  0  0  0  0  0  0
  143.2165   73.2039  221.9214 H   0  0  0  0  0  0  0  0  0  0  0  0
  143.5861   72.0528  220.5929 H   0  0  0  0  0  0  0  0  0  0  0  0
  144.3231   73.6909  220.5929 H   0  0  0  0  0  0  0  0  0  0  0  0
  142.4609   73.5630  218.9822 H   0  0  0  0  0  0  0  0  0  0  0  0
  141.1160   72.2680  221.3540 H   0  0  0  0  0  0  0  0  0  0  0  0
  137.8696   72.7527  220.4399 H   0  0  0  0  0  0  0  0  0  0  0  0
  138.3890   71.3902  219.4133 H   0  0  0  0  0  0  0  0  0  0  0  0
  139.1280   70.3100  221.3890 H   0  0  0  0  0  0  0  0  0  0  0  0
  141.0168   72.9109  224.5241 H   0  0  0  0  0  0  0  0  0  0  0  0
  141.7726   71.7629  226.5794 H   0  0  0  0  0  0  0  0  0  0  0  0
  141.7860   69.8291  227.9251 H   0  0  0  0  0  0  0  0  0  0  0  0
  141.0694   67.4560  228.3396 H   0  0  0  0  0  0  0  0  0  0  0  0
  139.6008   66.3069  226.6621 H   0  0  0  0  0  0  0  0  0  0  0  0
  138.8834   67.5295  224.6269 H   0  0  0  0  0  0  0  0  0  0  0  0
  140.7305   74.6103  222.0812 H   0  0  0  0  0  0  0  0  0  0  0  0
  140.2839   77.0034  222.5461 H   0  0  0  0  0  0  0  0  0  0  0  0
  142.9603   80.1880  220.9608 H   0  0  0  0  0  0  0  0  0  0  0  0
  142.0510   81.9272  222.6570 H   0  0  0  0  0  0  0  0  0  0  0  0
  140.8953   81.7822  221.3752 H   0  0  0  0  0  0  0  0  0  0  0  0
  140.0126   81.2765  223.8617 H   0  0  0  0  0  0  0  0  0  0  0  0
  139.5648   80.0592  222.6941 H   0  0  0  0  0  0  0  0  0  0  0  0
  141.6425   79.9820  224.8571 H   0  0  0  0  0  0  0  0  0  0  0  0
  140.8359   78.6109  224.0536 H   0  0  0  0  0  0  0  0  0  0  0  0
  143.4346   79.8976  223.4392 H   0  0  0  0  0  0  0  0  0  0  0  0
  142.8660   78.3161  222.9377 H   0  0  0  0  0  0  0  0  0  0  0  0
  142.6698   78.1370  219.1876 H   0  0  0  0  0  0  0  0  0  0  0  0
  143.1100   75.7802  218.7357 H   0  0  0  0  0  0  0  0  0  0  0  0
  1  2  1  0
  2  3  1  0
  3  4  1  0
  4  5  2  0
  4  6  1  0
  6  7  1  0
  7  8  1  0
  8  9  2  0
  8 10  1  0
 10 11  2  0
 11 12  1  0
 12 13  2  0
 13 14  1  0
 14 15  2  0
 15 16  1  0
 16 17  2  0
 17 18  1  0
 18 19  2  0
  2 20  1  0
 20 21  2  0
 21 22  1  0
 22 23  2  0
 23 24  1  0
 24 25  1  0
 25 26  1  0
 26 27  1  0
 27 28  1  0
 28 29  1  0
 23 30  1  0
 30 31  2  0
 19 10  1  0
 31 20  1  0
 18 13  1  0
 29 25  1  0
  1 32  1  0
  1 33  1  0
  1 34  1  0
  2 35  1  6
  3 36  1  0
  6 37  1  0
  6 38  1  0
  7 39  1  0
 11 40  1  0
 12 41  1  0
 14 42  1  0
 15 43  1  0
 16 44  1  0
 17 45  1  0
 21 46  1  0
 22 47  1  0
 25 48  1  0
 26 49  1  0
 26 50  1  0
 27 51  1  0
 27 52  1  0
 28 53  1  0
 28 54  1  0
 29 55  1  0
 29 56  1  0
 30 57  1  0
 31 58  1  0
M  END
>  <smiles>  (60) 
CC(NC(=O)CNC(=O)c1ccc2ccccc2n1)c1ccc(OC2CCCC2)cc1

>  <score_type>  (60) 
oracle

>  <origin>  (60) 
autodockgpu

>  <m_score__min__energy>  (60) 
-8.6899999999999995

>  <m_primary>  (60) 
energy

>  <rmsd>  (60) 
5.16492806677457

>  <m_score__min__rmsd>  (60) 
5.16492806677457

>  <meeko>  (60) 
{"free_energy": -8.11, "intermolecular_energy": -10.19, "internal_energy": -2.14, "cluster_size": 31, "cluster_id": 1, "rank_in_cluster": 30}

>  <energy>  (60) 
-8.46

>  <cluster_rmsd>  (60) 
1.14

>  <cluster>  (60) 
1

$$$$

     RDKit          3D

 58 61  0  0  0  0  0  0  0  0999 V2000
  137.6390   76.9030  222.7410 C   0  0  0  0  0  0  0  0  0  0  0  0
  136.8510   75.6790  222.3330 C   0  0  1  0  0  0  0  0  0  0  0  0
  137.8430   74.6560  222.0010 N   0  0  0  0  0  0  0  0  0  0  0  0
  137.7290   73.9060  220.7990 C   0  0  0  0  0  0  0  0  0  0  0  0
  136.7480   74.1660  220.0530 O   0  0  0  0  0  0  0  0  0  0  0  0
  138.7440   72.8700  220.4720 C   0  0  0  0  0  0  0  0  0  0  0  0
  138.8500   71.9880  221.6080 N   0  0  0  0  0  0  0  0  0  0  0  0
  139.6850   72.2830  222.7140 C   0  0  0  0  0  0  0  0  0  0  0  0
  140.3450   73.3560  222.6810 O   0  0  0  0  0  0  0  0  0  0  0  0
  139.7800   71.3780  223.8550 C   0  0  0  0  0  0  0  0  0  0  0  0
  139.2470   70.1110  223.7530 C   0  0  0  0  0  0  0  0  0  0  0  0
  139.2890   69.1860  224.7760 C   0  0  0  0  0  0  0  0  0  0  0  0
  139.9000   69.5670  225.9580 C   0  0  0  0  0  0  0  0  0  0  0  0
  139.9470   68.6530  226.9810 C   0  0  0  0  0  0  0  0  0  0  0  0
  140.5590   69.0150  228.1860 C   0  0  0  0  0  0  0  0  0  0  0  0
  141.1070   70.2920  228.3180 C   0  0  0  0  0  0  0  0  0  0  0  0
  141.0300   71.1760  227.2450 C   0  0  0  0  0  0  0  0  0  0  0  0
  140.4320   70.8370  226.0550 C   0  0  0  0  0  0  0  0  0  0  0  0
  140.3690   71.7230  225.0170 N   0  0  0  0  0  0  0  0  0  0  0  0
  136.0290   75.1490  223.4350 C   0  0  0  0  0  0  0  0  0  0  0  0
  135.8110   73.7920  223.5550 C   0  0  0  0  0  0  0  0  0  0  0  0
  135.0300   73.3350  224.6100 C   0  0  0  0  0  0  0  0  0  0  0  0
  134.4640   74.1780  225.5400 C   0  0  0  0  0  0  0  0  0  0  0  0
  133.6880   73.7870  226.5960 O   0  0  0  0  0  0  0  0  0  0  0  0
  132.3840   73.2710  226.5080 C   0  0  0  0  0  0  0  0  0  0  0  0
  131.6210   73.7020  227.7520 C   0  0  0  0  0  0  0  0  0  0  0  0
  131.7200   75.2220  227.6160 C   0  0  0  0  0  0  0  0  0  0  0  0
  131.4460   75.4280  226.1440 C   0  0  0  0  0  0  0  0  0  0  0  0
  131.6650   74.1100  225.4530 C   0  0  0  0  0  0  0  0  0  0  0  0
  134.7060   75.5340  225.3860 C   0  0  0  0  0  0  0  0  0  0  0  0
  135.4730   75.9850  224.3520 C   0  0  0  0  0  0  0  0  0  0  0  0
  137.6786   76.9645  223.8386 H   0  0  0  0  0  0  0  0  0  0  0  0
  138.6611   76.8313  222.3406 H   0  0  0  0  0  0  0  0  0  0  0  0
  137.1507   77.8037  222.3406 H   0  0  0  0  0  0  0  0  0  0  0  0
  136.1780   75.9406  221.5031 H   0  0  0  0  0  0  0  0  0  0  0  0
  138.6520   74.4510  222.6260 H   0  0  0  0  0  0  0  0  0  0  0  0
  138.4276   72.3021  219.5847 H   0  0  0  0  0  0  0  0  0  0  0  0
  139.7158   73.3371  220.2542 H   0  0  0  0  0  0  0  0  0  0  0  0
  138.3060   71.0920  221.6460 H   0  0  0  0  0  0  0  0  0  0  0  0
  138.7635   69.8226  222.8080 H   0  0  0  0  0  0  0  0  0  0  0  0
  138.8531   68.1831  224.6566 H   0  0  0  0  0  0  0  0  0  0  0  0
  139.5102   67.6513  226.8554 H   0  0  0  0  0  0  0  0  0  0  0  0
  140.6078   68.3005  229.0209 H   0  0  0  0  0  0  0  0  0  0  0  0
  141.5930   70.5958  229.2569 H   0  0  0  0  0  0  0  0  0  0  0  0
  141.4631   72.1813  227.3537 H   0  0  0  0  0  0  0  0  0  0  0  0
  136.2459   73.0869  222.8313 H   0  0  0  0  0  0  0  0  0  0  0  0
  134.8566   72.2530  224.7062 H   0  0  0  0  0  0  0  0  0  0  0  0
  132.4239   72.1852  226.3364 H   0  0  0  0  0  0  0  0  0  0  0  0
  130.5764   73.3579  227.7291 H   0  0  0  0  0  0  0  0  0  0  0  0
  132.0117   73.2965  228.6969 H   0  0  0  0  0  0  0  0  0  0  0  0
  130.9661   75.7281  228.2369 H   0  0  0  0  0  0  0  0  0  0  0  0
  132.6845   75.6337  227.9480 H   0  0  0  0  0  0  0  0  0  0  0  0
  130.4075   75.7601  225.9984 H   0  0  0  0  0  0  0  0  0  0  0  0
  132.1143   76.1975  225.7301 H   0  0  0  0  0  0  0  0  0  0  0  0
  130.7066   73.6499  225.1705 H   0  0  0  0  0  0  0  0  0  0  0  0
  132.2367   74.2055  224.5181 H   0  0  0  0  0  0  0  0  0  0  0  0
  134.2770   76.2507  226.1018 H   0  0  0  0  0  0  0  0  0  0  0  0
  135.6485   77.0667  224.2564 H   0  0  0  0  0  0  0  0  0  0  0  0
  1  2  1  0
  2  3  1  0
  3  4  1  0
  4  5  2  0
  4  6  1  0
  6  7  1  0
  7  8  1  0
  8  9  2  0
  8 10  1  0
 10 11  2  0
 11 12  1  0
 12 13  2  0
 13 14  1  0
 14 15  2  0
 15 16  1  0
 16 17  2  0
 17 18  1  0
 18 19  2  0
  2 20  1  0
 20 21  2  0
 21 22  1  0
 22 23  2  0
 23 24  1  0
 24 25  1  0
 25 26  1  0
 26 27  1  0
 27 28  1  0
 28 29  1  0
 23 30  1  0
 30 31  2  0
 19 10  1  0
 31 20  1  0
 18 13  1  0
 29 25  1  0
  1 32  1  0
  1 33  1  0
  1 34  1  0
  2 35  1  6
  3 36  1  0
  6 37  1  0
  6 38  1  0
  7 39  1  0
 11 40  1  0
 12 41  1  0
 14 42  1  0
 15 43  1  0
 16 44  1  0
 17 45  1  0
 21 46  1  0
 22 47  1  0
 25 48  1  0
 26 49  1  0
 26 50  1  0
 27 51  1  0
 27 52  1  0
 28 53  1  0
 28 54  1  0
 29 55  1  0
 29 56  1  0
 30 57  1  0
 31 58  1  0
M  END
>  <smiles>  (61) 
CC(NC(=O)CNC(=O)c1ccc2ccccc2n1)c1ccc(OC2CCCC2)cc1

>  <score_type>  (61) 
oracle

>  <origin>  (61) 
autodockgpu

>  <m_score__min__energy>  (61) 
-8.6899999999999995

>  <m_primary>  (61) 
energy

>  <rmsd>  (61) 
7.265163934216039

>  <m_score__min__rmsd>  (61) 
7.265163934216039

>  <meeko>  (61) 
{"free_energy": -8.54, "intermolecular_energy": -10.63, "internal_energy": -2.33, "cluster_size": 15, "cluster_id": 2, "rank_in_cluster": 7}

>  <energy>  (61) 
-8.45

>  <cluster_rmsd>  (61) 
0.9

>  <cluster>  (61) 
1

$$$$

     RDKit          3D

 58 61  0  0  0  0  0  0  0  0999 V2000
  143.1360   73.4610  220.6390 C   0  0  0  0  0  0  0  0  0  0  0  0
  141.8350   74.0610  220.1530 C   0  0  1  0  0  0  0  0  0  0  0  0
  140.7740   73.2290  220.7200 N   0  0  0  0  0  0  0  0  0  0  0  0
  139.4130   73.4810  220.3990 C   0  0  0  0  0  0  0  0  0  0  0  0
  139.1770   74.4410  219.6170 O   0  0  0  0  0  0  0  0  0  0  0  0
  138.3430   72.6290  220.9800 C   0  0  0  0  0  0  0  0  0  0  0  0
  138.7190   72.3210  222.3380 N   0  0  0  0  0  0  0  0  0  0  0  0
  139.5780   71.2400  222.6540 C   0  0  0  0  0  0  0  0  0  0  0  0
  140.0150   70.5410  221.7010 O   0  0  0  0  0  0  0  0  0  0  0  0
  139.9480   70.9430  224.0340 C   0  0  0  0  0  0  0  0  0  0  0  0
  140.6610   71.8770  224.7550 C   0  0  0  0  0  0  0  0  0  0  0  0
  141.0550   71.6870  226.0630 C   0  0  0  0  0  0  0  0  0  0  0  0
  140.7080   70.4910  226.6680 C   0  0  0  0  0  0  0  0  0  0  0  0
  141.0950   70.2930  227.9700 C   0  0  0  0  0  0  0  0  0  0  0  0
  140.7570   69.0920  228.6020 C   0  0  0  0  0  0  0  0  0  0  0  0
  140.0370   68.1270  227.8970 C   0  0  0  0  0  0  0  0  0  0  0  0
  139.6700   68.3840  226.5790 C   0  0  0  0  0  0  0  0  0  0  0  0
  139.9950   69.5580  225.9420 C   0  0  0  0  0  0  0  0  0  0  0  0
  139.6240   69.7870  224.6470 N   0  0  0  0  0  0  0  0  0  0  0  0
  141.6310   75.4320  220.6510 C   0  0  0  0  0  0  0  0  0  0  0  0
  141.1100   75.6470  221.9110 C   0  0  0  0  0  0  0  0  0  0  0  0
  140.9340   76.9570  222.3420 C   0  0  0  0  0  0  0  0  0  0  0  0
  141.2560   78.0470  221.5680 C   0  0  0  0  0  0  0  0  0  0  0  0
  141.1050   79.3560  221.9380 O   0  0  0  0  0  0  0  0  0  0  0  0
  142.0450   80.3800  221.7320 C   0  0  0  0  0  0  0  0  0  0  0  0
  141.4680   81.6710  222.2950 C   0  0  0  0  0  0  0  0  0  0  0  0
  141.2740   81.2640  223.7560 C   0  0  0  0  0  0  0  0  0  0  0  0
  142.5540   80.5200  224.0530 C   0  0  0  0  0  0  0  0  0  0  0  0
  143.1700   80.1330  222.7360 C   0  0  0  0  0  0  0  0  0  0  0  0
  141.7760   77.7910  220.3090 C   0  0  0  0  0  0  0  0  0  0  0  0
  141.9510   76.5070  219.8830 C   0  0  0  0  0  0  0  0  0  0  0  0
  143.1488   73.4551  221.7389 H   0  0  0  0  0  0  0  0  0  0  0  0
  143.2265   72.4302  220.2657 H   0  0  0  0  0  0  0  0  0  0  0  0
  143.9787   74.0614  220.2657 H   0  0  0  0  0  0  0  0  0  0  0  0
  141.8392   74.0973  219.0536 H   0  0  0  0  0  0  0  0  0  0  0  0
  140.9810   72.4370  221.3650 H   0  0  0  0  0  0  0  0  0  0  0  0
  137.3855   73.1704  220.9696 H   0  0  0  0  0  0  0  0  0  0  0  0
  138.2235   71.7060  220.3937 H   0  0  0  0  0  0  0  0  0  0  0  0
  138.3610   72.8960  223.1400 H   0  0  0  0  0  0  0  0  0  0  0  0
  140.9296   72.8227  224.2616 H   0  0  0  0  0  0  0  0  0  0  0  0
  141.6236   72.4568  226.6052 H   0  0  0  0  0  0  0  0  0  0  0  0
  141.6622   71.0669  228.5080 H   0  0  0  0  0  0  0  0  0  0  0  0
  141.0559   68.9100  229.6448 H   0  0  0  0  0  0  0  0  0  0  0  0
  139.7630   67.1756  228.3763 H   0  0  0  0  0  0  0  0  0  0  0  0
  139.1002   67.6212  226.0282 H   0  0  0  0  0  0  0  0  0  0  0  0
  140.8401   74.8006  222.5597 H   0  0  0  0  0  0  0  0  0  0  0  0
  140.5190   77.1291  223.3461 H   0  0  0  0  0  0  0  0  0  0  0  0
  142.3272   80.4182  220.6695 H   0  0  0  0  0  0  0  0  0  0  0  0
  142.1725   82.5099  222.1956 H   0  0  0  0  0  0  0  0  0  0  0  0
  140.5586   82.0293  221.7905 H   0  0  0  0  0  0  0  0  0  0  0  0
  141.1657   82.1458  224.4046 H   0  0  0  0  0  0  0  0  0  0  0  0
  140.3662   80.6680  223.9314 H   0  0  0  0  0  0  0  0  0  0  0  0
  143.2434   81.1683  224.6137 H   0  0  0  0  0  0  0  0  0  0  0  0
  142.3499   79.6269  224.6618 H   0  0  0  0  0  0  0  0  0  0  0  0
  144.0439   80.7619  222.5104 H   0  0  0  0  0  0  0  0  0  0  0  0
  143.5376   79.0963  222.7222 H   0  0  0  0  0  0  0  0  0  0  0  0
  142.0491   78.6280  219.6496 H   0  0  0  0  0  0  0  0  0  0  0  0
  142.3671   76.3349  218.8794 H   0  0  0  0  0  0  0  0  0  0  0  0
  1  2  1  0
  2  3  1  0
  3  4  1  0
  4  5  2  0
  4  6  1  0
  6  7  1  0
  7  8  1  0
  8  9  2  0
  8 10  1  0
 10 11  2  0
 11 12  1  0
 12 13  2  0
 13 14  1  0
 14 15  2  0
 15 16  1  0
 16 17  2  0
 17 18  1  0
 18 19  2  0
  2 20  1  0
 20 21  2  0
 21 22  1  0
 22 23  2  0
 23 24  1  0
 24 25  1  0
 25 26  1  0
 26 27  1  0
 27 28  1  0
 28 29  1  0
 23 30  1  0
 30 31  2  0
 19 10  1  0
 31 20  1  0
 18 13  1  0
 29 25  1  0
  1 32  1  0
  1 33  1  0
  1 34  1  0
  2 35  1  6
  3 36  1  0
  6 37  1  0
  6 38  1  0
  7 39  1  0
 11 40  1  0
 12 41  1  0
 14 42  1  0
 15 43  1  0
 16 44  1  0
 17 45  1  0
 21 46  1  0
 22 47  1  0
 25 48  1  0
 26 49  1  0
 26 50  1  0
 27 51  1  0
 27 52  1  0
 28 53  1  0
 28 54  1  0
 29 55  1  0
 29 56  1  0
 30 57  1  0
 31 58  1  0
M  END
>  <smiles>  (62) 
CC(NC(=O)CNC(=O)c1ccc2ccccc2n1)c1ccc(OC2CCCC2)cc1

>  <score_type>  (62) 
oracle

>  <origin>  (62) 
autodockgpu

>  <m_score__min__energy>  (62) 
-8.6899999999999995

>  <m_primary>  (62) 
energy

>  <rmsd>  (62) 
5.130238747649365

>  <m_score__min__rmsd>  (62) 
5.130238747649365

>  <meeko>  (62) 
{"free_energy": -8.67, "intermolecular_energy": -10.76, "internal_energy": -2.19, "cluster_size": 31, "cluster_id": 1, "rank_in_cluster": 2}

>  <energy>  (62) 
-8.45

>  <cluster_rmsd>  (62) 
1.17

>  <cluster>  (62) 
1

$$$$

     RDKit          3D

 58 61  0  0  0  0  0  0  0  0999 V2000
  137.6630   76.8380  222.5220 C   0  0  0  0  0  0  0  0  0  0  0  0
  136.8400   75.6130  222.1900 C   0  0  1  0  0  0  0  0  0  0  0  0
  137.8030   74.5400  221.9410 N   0  0  0  0  0  0  0  0  0  0  0  0
  137.9070   73.9510  220.6520 C   0  0  0  0  0  0  0  0  0  0  0  0
  137.1400   74.3950  219.7560 O   0  0  0  0  0  0  0  0  0  0  0  0
  138.8890   72.8620  220.4110 C   0  0  0  0  0  0  0  0  0  0  0  0
  138.9030   72.0180  221.5810 N   0  0  0  0  0  0  0  0  0  0  0  0
  139.7030   72.3140  222.7120 C   0  0  0  0  0  0  0  0  0  0  0  0
  140.4160   73.3520  222.6710 O   0  0  0  0  0  0  0  0  0  0  0  0
  139.7050   71.4490  223.8870 C   0  0  0  0  0  0  0  0  0  0  0  0
  138.9700   70.2820  223.8630 C   0  0  0  0  0  0  0  0  0  0  0  0
  138.9090   69.4020  224.9240 C   0  0  0  0  0  0  0  0  0  0  0  0
  139.6290   69.7210  226.0610 C   0  0  0  0  0  0  0  0  0  0  0  0
  139.5760   68.8500  227.1210 C   0  0  0  0  0  0  0  0  0  0  0  0
  140.2950   69.1520  228.2830 C   0  0  0  0  0  0  0  0  0  0  0  0
  141.0480   70.3250  228.3360 C   0  0  0  0  0  0  0  0  0  0  0  0
  141.0650   71.1700  227.2290 C   0  0  0  0  0  0  0  0  0  0  0  0
  140.3640   70.8900  226.0800 C   0  0  0  0  0  0  0  0  0  0  0  0
  140.3960   71.7350  225.0080 N   0  0  0  0  0  0  0  0  0  0  0  0
  135.9910   75.1880  223.3170 C   0  0  0  0  0  0  0  0  0  0  0  0
  135.7160   73.8510  223.5180 C   0  0  0  0  0  0  0  0  0  0  0  0
  134.9110   73.4920  224.5930 C   0  0  0  0  0  0  0  0  0  0  0  0
  134.3780   74.4130  225.4660 C   0  0  0  0  0  0  0  0  0  0  0  0
  133.5820   74.1200  226.5380 O   0  0  0  0  0  0  0  0  0  0  0  0
  132.2470   74.5280  226.7040 C   0  0  0  0  0  0  0  0  0  0  0  0
  131.4190   73.8980  225.5940 C   0  0  0  0  0  0  0  0  0  0  0  0
  131.6760   72.4170  225.8750 C   0  0  0  0  0  0  0  0  0  0  0  0
  131.5580   72.3520  227.3790 C   0  0  0  0  0  0  0  0  0  0  0  0
  131.7110   73.7530  227.9070 C   0  0  0  0  0  0  0  0  0  0  0  0
  134.6770   75.7460  225.2310 C   0  0  0  0  0  0  0  0  0  0  0  0
  135.4670   76.1010  224.1770 C   0  0  0  0  0  0  0  0  0  0  0  0
  137.7355   76.9460  223.6143 H   0  0  0  0  0  0  0  0  0  0  0  0
  138.6715   76.7285  222.0966 H   0  0  0  0  0  0  0  0  0  0  0  0
  137.1804   77.7303  222.0966 H   0  0  0  0  0  0  0  0  0  0  0  0
  136.1832   75.8353  221.3361 H   0  0  0  0  0  0  0  0  0  0  0  0
  138.4330   74.1820  222.6900 H   0  0  0  0  0  0  0  0  0  0  0  0
  138.5898   72.2758  219.5296 H   0  0  0  0  0  0  0  0  0  0  0  0
  139.8896   73.2794  220.2247 H   0  0  0  0  0  0  0  0  0  0  0  0
  138.3140   71.1510  221.6260 H   0  0  0  0  0  0  0  0  0  0  0  0
  138.4036   70.0406  222.9515 H   0  0  0  0  0  0  0  0  0  0  0  0
  138.3101   68.4811  224.8677 H   0  0  0  0  0  0  0  0  0  0  0  0
  138.9777   67.9291  227.0579 H   0  0  0  0  0  0  0  0  0  0  0  0
  140.2666   68.4709  229.1463 H   0  0  0  0  0  0  0  0  0  0  0  0
  141.6208   70.5792  229.2401 H   0  0  0  0  0  0  0  0  0  0  0  0
  141.6602   72.0939  227.2757 H   0  0  0  0  0  0  0  0  0  0  0  0
  136.1250   73.0855  222.8421 H   0  0  0  0  0  0  0  0  0  0  0  0
  134.6905   72.4262  224.7528 H   0  0  0  0  0  0  0  0  0  0  0  0
  132.1975   75.6255  226.7588 H   0  0  0  0  0  0  0  0  0  0  0  0
  130.3526   74.1516  225.6866 H   0  0  0  0  0  0  0  0  0  0  0  0
  131.6809   74.2279  224.5778 H   0  0  0  0  0  0  0  0  0  0  0  0
  130.9213   71.7819  225.3880 H   0  0  0  0  0  0  0  0  0  0  0  0
  132.6420   72.0563  225.4921 H   0  0  0  0  0  0  0  0  0  0  0  0
  130.5738   71.9499  227.6612 H   0  0  0  0  0  0  0  0  0  0  0  0
  132.3320   71.6933  227.7997 H   0  0  0  0  0  0  0  0  0  0  0  0
  130.7425   74.1576  228.2362 H   0  0  0  0  0  0  0  0  0  0  0  0
  132.3716   73.8115  228.7846 H   0  0  0  0  0  0  0  0  0  0  0  0
  134.2748   76.5223  225.8985 H   0  0  0  0  0  0  0  0  0  0  0  0
  135.6884   77.1665  224.0170 H   0  0  0  0  0  0  0  0  0  0  0  0
  1  2  1  0
  2  3  1  0
  3  4  1  0
  4  5  2  0
  4  6  1  0
  6  7  1  0
  7  8  1  0
  8  9  2  0
  8 10  1  0
 10 11  2  0
 11 12  1  0
 12 13  2  0
 13 14  1  0
 14 15  2  0
 15 16  1  0
 16 17  2  0
 17 18  1  0
 18 19  2  0
  2 20  1  0
 20 21  2  0
 21 22  1  0
 22 23  2  0
 23 24  1  0
 24 25  1  0
 25 26  1  0
 26 27  1  0
 27 28  1  0
 28 29  1  0
 23 30  1  0
 30 31  2  0
 19 10  1  0
 31 20  1  0
 18 13  1  0
 29 25  1  0
  1 32  1  0
  1 33  1  0
  1 34  1  0
  2 35  1  6
  3 36  1  0
  6 37  1  0
  6 38  1  0
  7 39  1  0
 11 40  1  0
 12 41  1  0
 14 42  1  0
 15 43  1  0
 16 44  1  0
 17 45  1  0
 21 46  1  0
 22 47  1  0
 25 48  1  0
 26 49  1  0
 26 50  1  0
 27 51  1  0
 27 52  1  0
 28 53  1  0
 28 54  1  0
 29 55  1  0
 29 56  1  0
 30 57  1  0
 31 58  1  0
M  END
>  <smiles>  (63) 
CC(NC(=O)CNC(=O)c1ccc2ccccc2n1)c1ccc(OC2CCCC2)cc1

>  <score_type>  (63) 
oracle

>  <origin>  (63) 
autodockgpu

>  <m_score__min__energy>  (63) 
-8.6899999999999995

>  <m_primary>  (63) 
energy

>  <rmsd>  (63) 
7.056327906948566

>  <m_score__min__rmsd>  (63) 
7.056327906948566

>  <meeko>  (63) 
{"free_energy": -8.55, "intermolecular_energy": -10.64, "internal_energy": -2.28, "cluster_size": 15, "cluster_id": 2, "rank_in_cluster": 5}

>  <energy>  (63) 
-8.44

>  <cluster_rmsd>  (63) 
1.91

>  <cluster>  (63) 
1

$$$$

     RDKit          3D

 58 61  0  0  0  0  0  0  0  0999 V2000
  136.1870   73.4080  223.3920 C   0  0  0  0  0  0  0  0  0  0  0  0
  136.9330   72.3480  222.6120 C   0  0  1  0  0  0  0  0  0  0  0  0
  137.9590   73.0600  221.8510 N   0  0  0  0  0  0  0  0  0  0  0  0
  137.8550   73.1780  220.4380 C   0  0  0  0  0  0  0  0  0  0  0  0
  136.8520   72.6470  219.8910 O   0  0  0  0  0  0  0  0  0  0  0  0
  138.9040   73.9040  219.6750 C   0  0  0  0  0  0  0  0  0  0  0  0
  139.0550   75.2090  220.2710 N   0  0  0  0  0  0  0  0  0  0  0  0
  139.8210   75.4160  221.4440 C   0  0  0  0  0  0  0  0  0  0  0  0
  140.3790   74.4140  221.9650 O   0  0  0  0  0  0  0  0  0  0  0  0
  139.9620   76.7430  222.0340 C   0  0  0  0  0  0  0  0  0  0  0  0
  138.8410   77.3870  222.5140 C   0  0  0  0  0  0  0  0  0  0  0  0
  138.8740   78.6420  223.0880 C   0  0  0  0  0  0  0  0  0  0  0  0
  140.1030   79.2710  223.1770 C   0  0  0  0  0  0  0  0  0  0  0  0
  140.1450   80.5200  223.7480 C   0  0  0  0  0  0  0  0  0  0  0  0
  141.3760   81.1770  223.8480 C   0  0  0  0  0  0  0  0  0  0  0  0
  142.5270   80.5500  223.3710 C   0  0  0  0  0  0  0  0  0  0  0  0
  142.4230   79.2830  222.8030 C   0  0  0  0  0  0  0  0  0  0  0  0
  141.2220   78.6230  222.6950 C   0  0  0  0  0  0  0  0  0  0  0  0
  141.1450   77.3800  222.1340 N   0  0  0  0  0  0  0  0  0  0  0  0
  137.6250   71.3890  223.4910 C   0  0  0  0  0  0  0  0  0  0  0  0
  136.9030   70.5080  224.2690 C   0  0  0  0  0  0  0  0  0  0  0  0
  137.5960   69.6190  225.0830 C   0  0  0  0  0  0  0  0  0  0  0  0
  138.9700   69.5810  225.1460 C   0  0  0  0  0  0  0  0  0  0  0  0
  139.7040   68.7310  225.9270 O   0  0  0  0  0  0  0  0  0  0  0  0
  140.9360   69.0330  226.5320 C   0  0  0  0  0  0  0  0  0  0  0  0
  140.7810   70.3390  227.2970 C   0  0  0  0  0  0  0  0  0  0  0  0
  139.6670   69.9500  228.2700 C   0  0  0  0  0  0  0  0  0  0  0  0
  140.0960   68.5710  228.7110 C   0  0  0  0  0  0  0  0  0  0  0  0
  141.0860   68.0590  227.7000 C   0  0  0  0  0  0  0  0  0  0  0  0
  139.6600   70.4820  224.3510 C   0  0  0  0  0  0  0  0  0  0  0  0
  138.9830   71.3540  223.5500 C   0  0  0  0  0  0  0  0  0  0  0  0
  136.3139   73.2276  224.4697 H   0  0  0  0  0  0  0  0  0  0  0  0
  136.5868   74.4005  223.1368 H   0  0  0  0  0  0  0  0  0  0  0  0
  135.1178   73.3667  223.1368 H   0  0  0  0  0  0  0  0  0  0  0  0
  136.2212   71.7846  221.9908 H   0  0  0  0  0  0  0  0  0  0  0  0
  138.7840   73.4960  222.3140 H   0  0  0  0  0  0  0  0  0  0  0  0
  139.8554   73.3545  219.7300 H   0  0  0  0  0  0  0  0  0  0  0  0
  138.6181   73.9943  218.6167 H   0  0  0  0  0  0  0  0  0  0  0  0
  138.5940   76.0510  219.8470 H   0  0  0  0  0  0  0  0  0  0  0  0
  137.8709   76.8744  222.4355 H   0  0  0  0  0  0  0  0  0  0  0  0
  137.9579   79.1237  223.4605 H   0  0  0  0  0  0  0  0  0  0  0  0
  139.2257   80.9956  224.1204 H   0  0  0  0  0  0  0  0  0  0  0  0
  141.4357   82.1787  224.2986 H   0  0  0  0  0  0  0  0  0  0  0  0
  143.5042   81.0500  223.4426 H   0  0  0  0  0  0  0  0  0  0  0  0
  143.3336   78.7931  222.4276 H   0  0  0  0  0  0  0  0  0  0  0  0
  135.8032   70.5088  224.2459 H   0  0  0  0  0  0  0  0  0  0  0  0
  137.0210   68.9157  225.7034 H   0  0  0  0  0  0  0  0  0  0  0  0
  141.7334   69.0274  225.7743 H   0  0  0  0  0  0  0  0  0  0  0  0
  141.7058   70.6144  227.8251 H   0  0  0  0  0  0  0  0  0  0  0  0
  140.5628   71.2175  226.6720 H   0  0  0  0  0  0  0  0  0  0  0  0
  139.6207   70.6447  229.1216 H   0  0  0  0  0  0  0  0  0  0  0  0
  138.6617   69.9783  227.8245 H   0  0  0  0  0  0  0  0  0  0  0  0
  140.5667   68.6239  229.7038 H   0  0  0  0  0  0  0  0  0  0  0  0
  139.2280   67.8986  228.7774 H   0  0  0  0  0  0  0  0  0  0  0  0
  142.1090   68.0832  228.1037 H   0  0  0  0  0  0  0  0  0  0  0  0
  140.9040   67.0129  227.4127 H   0  0  0  0  0  0  0  0  0  0  0  0
  140.7598   70.4941  224.3660 H   0  0  0  0  0  0  0  0  0  0  0  0
  139.5577   72.0559  222.9278 H   0  0  0  0  0  0  0  0  0  0  0  0
  1  2  1  0
  2  3  1  0
  3  4  1  0
  4  5  2  0
  4  6  1  0
  6  7  1  0
  7  8  1  0
  8  9  2  0
  8 10  1  0
 10 11  2  0
 11 12  1  0
 12 13  2  0
 13 14  1  0
 14 15  2  0
 15 16  1  0
 16 17  2  0
 17 18  1  0
 18 19  2  0
  2 20  1  0
 20 21  2  0
 21 22  1  0
 22 23  2  0
 23 24  1  0
 24 25  1  0
 25 26  1  0
 26 27  1  0
 27 28  1  0
 28 29  1  0
 23 30  1  0
 30 31  2  0
 19 10  1  0
 31 20  1  0
 18 13  1  0
 29 25  1  0
  1 32  1  0
  1 33  1  0
  1 34  1  0
  2 35  1  6
  3 36  1  0
  6 37  1  0
  6 38  1  0
  7 39  1  0
 11 40  1  0
 12 41  1  0
 14 42  1  0
 15 43  1  0
 16 44  1  0
 17 45  1  0
 21 46  1  0
 22 47  1  0
 25 48  1  0
 26 49  1  0
 26 50  1  0
 27 51  1  0
 27 52  1  0
 28 53  1  0
 28 54  1  0
 29 55  1  0
 29 56  1  0
 30 57  1  0
 31 58  1  0
M  END
>  <smiles>  (64) 
CC(NC(=O)CNC(=O)c1ccc2ccccc2n1)c1ccc(OC2CCCC2)cc1

>  <score_type>  (64) 
oracle

>  <origin>  (64) 
autodockgpu

>  <m_score__min__energy>  (64) 
-8.6899999999999995

>  <m_primary>  (64) 
energy

>  <rmsd>  (64) 
10.22083125651942

>  <m_score__min__rmsd>  (64) 
10.22083125651942

>  <meeko>  (64) 
{"free_energy": -8.14, "intermolecular_energy": -10.22, "internal_energy": -2.15, "cluster_size": 1, "cluster_id": 4, "rank_in_cluster": 1}

>  <energy>  (64) 
-8.4

>  <cluster_rmsd>  (64) 
1.82

>  <cluster>  (64) 
1

$$$$

     RDKit          3D

 58 61  0  0  0  0  0  0  0  0999 V2000
  142.3660   73.2940  220.6580 C   0  0  0  0  0  0  0  0  0  0  0  0
  141.0730   74.0170  220.3550 C   0  0  1  0  0  0  0  0  0  0  0  0
  140.0250   73.2710  221.0530 N   0  0  0  0  0  0  0  0  0  0  0  0
  138.7010   73.2390  220.5390 C   0  0  0  0  0  0  0  0  0  0  0  0
  138.4840   73.8750  219.4730 O   0  0  0  0  0  0  0  0  0  0  0  0
  137.6450   72.4770  221.2570 C   0  0  0  0  0  0  0  0  0  0  0  0
  138.1380   72.1880  222.5810 N   0  0  0  0  0  0  0  0  0  0  0  0
  139.1510   71.2250  222.8120 C   0  0  0  0  0  0  0  0  0  0  0  0
  139.6210   70.6160  221.8140 O   0  0  0  0  0  0  0  0  0  0  0  0
  139.6370   70.9450  224.1590 C   0  0  0  0  0  0  0  0  0  0  0  0
  140.4100   71.8870  224.8040 C   0  0  0  0  0  0  0  0  0  0  0  0
  140.9140   71.7130  226.0770 C   0  0  0  0  0  0  0  0  0  0  0  0
  140.6210   70.5250  226.7230 C   0  0  0  0  0  0  0  0  0  0  0  0
  141.1180   70.3430  227.9900 C   0  0  0  0  0  0  0  0  0  0  0  0
  140.8360   69.1500  228.6640 C   0  0  0  0  0  0  0  0  0  0  0  0
  140.0570   68.1770  228.0360 C   0  0  0  0  0  0  0  0  0  0  0  0
  139.5790   68.4180  226.7500 C   0  0  0  0  0  0  0  0  0  0  0  0
  139.8480   69.5840  226.0730 C   0  0  0  0  0  0  0  0  0  0  0  0
  139.3680   69.7970  224.8120 N   0  0  0  0  0  0  0  0  0  0  0  0
  141.0610   75.3910  220.8870 C   0  0  0  0  0  0  0  0  0  0  0  0
  140.2860   75.7090  221.9830 C   0  0  0  0  0  0  0  0  0  0  0  0
  140.3050   77.0160  222.4540 C   0  0  0  0  0  0  0  0  0  0  0  0
  141.0640   78.0070  221.8740 C   0  0  0  0  0  0  0  0  0  0  0  0
  141.1220   79.3080  222.2920 O   0  0  0  0  0  0  0  0  0  0  0  0
  142.0410   80.2720  221.8440 C   0  0  0  0  0  0  0  0  0  0  0  0
  141.5410   81.6420  222.2810 C   0  0  0  0  0  0  0  0  0  0  0  0
  141.5070   81.4440  223.7970 C   0  0  0  0  0  0  0  0  0  0  0  0
  142.8070   80.7190  224.0530 C   0  0  0  0  0  0  0  0  0  0  0  0
  143.2690   80.1400  222.7430 C   0  0  0  0  0  0  0  0  0  0  0  0
  141.8290   77.6490  220.7760 C   0  0  0  0  0  0  0  0  0  0  0  0
  141.8130   76.3670  220.3120 C   0  0  0  0  0  0  0  0  0  0  0  0
  142.4981   73.2201  221.7475 H   0  0  0  0  0  0  0  0  0  0  0  0
  142.3319   72.2840  220.2235 H   0  0  0  0  0  0  0  0  0  0  0  0
  143.2086   73.8519  220.2235 H   0  0  0  0  0  0  0  0  0  0  0  0
  140.9356   74.0751  219.2652 H   0  0  0  0  0  0  0  0  0  0  0  0
  140.2160   72.7480  221.9340 H   0  0  0  0  0  0  0  0  0  0  0  0
  136.7268   73.0792  221.3221 H   0  0  0  0  0  0  0  0  0  0  0  0
  137.4096   71.5456  220.7212 H   0  0  0  0  0  0  0  0  0  0  0  0
  137.7540   72.6880  223.4200 H   0  0  0  0  0  0  0  0  0  0  0  0
  140.6367   72.8255  224.2769 H   0  0  0  0  0  0  0  0  0  0  0  0
  141.5256   72.4895  226.5598 H   0  0  0  0  0  0  0  0  0  0  0  0
  141.7286   71.1234  228.4677 H   0  0  0  0  0  0  0  0  0  0  0  0
  141.2244   68.9804  229.6791 H   0  0  0  0  0  0  0  0  0  0  0  0
  139.8237   67.2327  228.5496 H   0  0  0  0  0  0  0  0  0  0  0  0
  138.9649   67.6487  226.2591 H   0  0  0  0  0  0  0  0  0  0  0  0
  139.6662   74.9441  222.4736 H   0  0  0  0  0  0  0  0  0  0  0  0
  139.6870   77.2697  223.3279 H   0  0  0  0  0  0  0  0  0  0  0  0
  142.2027   80.1566  220.7621 H   0  0  0  0  0  0  0  0  0  0  0  0
  142.2373   82.4422  221.9898 H   0  0  0  0  0  0  0  0  0  0  0  0
  140.5844   81.9495  221.8333 H   0  0  0  0  0  0  0  0  0  0  0  0
  141.4777   82.4087  224.3247 H   0  0  0  0  0  0  0  0  0  0  0  0
  140.6199   80.8986  224.1514 H   0  0  0  0  0  0  0  0  0  0  0  0
  143.5595   81.4226  224.4386 H   0  0  0  0  0  0  0  0  0  0  0  0
  142.6659   79.9234  224.7994 H   0  0  0  0  0  0  0  0  0  0  0  0
  144.1169   80.7115  222.3374 H   0  0  0  0  0  0  0  0  0  0  0  0
  143.6249   79.1031  222.8338 H   0  0  0  0  0  0  0  0  0  0  0  0
  142.4533   78.4037  220.2753 H   0  0  0  0  0  0  0  0  0  0  0  0
  142.4322   76.1126  219.4391 H   0  0  0  0  0  0  0  0  0  0  0  0
  1  2  1  0
  2  3  1  0
  3  4  1  0
  4  5  2  0
  4  6  1  0
  6  7  1  0
  7  8  1  0
  8  9  2  0
  8 10  1  0
 10 11  2  0
 11 12  1  0
 12 13  2  0
 13 14  1  0
 14 15  2  0
 15 16  1  0
 16 17  2  0
 17 18  1  0
 18 19  2  0
  2 20  1  0
 20 21  2  0
 21 22  1  0
 22 23  2  0
 23 24  1  0
 24 25  1  0
 25 26  1  0
 26 27  1  0
 27 28  1  0
 28 29  1  0
 23 30  1  0
 30 31  2  0
 19 10  1  0
 31 20  1  0
 18 13  1  0
 29 25  1  0
  1 32  1  0
  1 33  1  0
  1 34  1  0
  2 35  1  6
  3 36  1  0
  6 37  1  0
  6 38  1  0
  7 39  1  0
 11 40  1  0
 12 41  1  0
 14 42  1  0
 15 43  1  0
 16 44  1  0
 17 45  1  0
 21 46  1  0
 22 47  1  0
 25 48  1  0
 26 49  1  0
 26 50  1  0
 27 51  1  0
 27 52  1  0
 28 53  1  0
 28 54  1  0
 29 55  1  0
 29 56  1  0
 30 57  1  0
 31 58  1  0
M  END
>  <smiles>  (65) 
CC(NC(=O)CNC(=O)c1ccc2ccccc2n1)c1ccc(OC2CCCC2)cc1

>  <score_type>  (65) 
oracle

>  <origin>  (65) 
autodockgpu

>  <m_score__min__energy>  (65) 
-8.6899999999999995

>  <m_primary>  (65) 
energy

>  <rmsd>  (65) 
5.226763316649658

>  <m_score__min__rmsd>  (65) 
5.226763316649658

>  <meeko>  (65) 
{"free_energy": -8.53, "intermolecular_energy": -10.62, "internal_energy": -2.02, "cluster_size": 31, "cluster_id": 1, "rank_in_cluster": 6}

>  <energy>  (65) 
-8.39

>  <cluster_rmsd>  (65) 
1.45

>  <cluster>  (65) 
1

$$$$

     RDKit          3D

 58 61  0  0  0  0  0  0  0  0999 V2000
  142.6660   73.0830  220.5250 C   0  0  0  0  0  0  0  0  0  0  0  0
  141.3930   73.8240  220.1790 C   0  0  1  0  0  0  0  0  0  0  0  0
  140.3150   73.1040  220.8570 N   0  0  0  0  0  0  0  0  0  0  0  0
  138.9790   73.1950  220.3820 C   0  0  0  0  0  0  0  0  0  0  0  0
  138.7800   73.9140  219.3670 O   0  0  0  0  0  0  0  0  0  0  0  0
  137.8920   72.4590  221.0790 C   0  0  0  0  0  0  0  0  0  0  0  0
  138.3430   72.1800  222.4210 N   0  0  0  0  0  0  0  0  0  0  0  0
  139.2690   71.1460  222.7040 C   0  0  0  0  0  0  0  0  0  0  0  0
  139.6970   70.4620  221.7360 O   0  0  0  0  0  0  0  0  0  0  0  0
  139.7130   70.8780  224.0670 C   0  0  0  0  0  0  0  0  0  0  0  0
  140.4650   71.8270  224.7270 C   0  0  0  0  0  0  0  0  0  0  0  0
  140.9300   71.6640  226.0160 C   0  0  0  0  0  0  0  0  0  0  0  0
  140.6170   70.4820  226.6640 C   0  0  0  0  0  0  0  0  0  0  0  0
  141.0760   70.3120  227.9470 C   0  0  0  0  0  0  0  0  0  0  0  0
  140.7730   69.1250  228.6230 C   0  0  0  0  0  0  0  0  0  0  0  0
  140.0140   68.1460  227.9800 C   0  0  0  0  0  0  0  0  0  0  0  0
  139.5760   68.3750  226.6780 C   0  0  0  0  0  0  0  0  0  0  0  0
  139.8650   69.5350  225.9990 C   0  0  0  0  0  0  0  0  0  0  0  0
  139.4240   69.7360  224.7220 N   0  0  0  0  0  0  0  0  0  0  0  0
  141.3910   75.2040  220.6940 C   0  0  0  0  0  0  0  0  0  0  0  0
  142.0460   76.2060  220.0100 C   0  0  0  0  0  0  0  0  0  0  0  0
  142.0190   77.4950  220.5310 C   0  0  0  0  0  0  0  0  0  0  0  0
  141.3660   77.8130  221.6990 C   0  0  0  0  0  0  0  0  0  0  0  0
  141.3050   79.0600  222.2590 O   0  0  0  0  0  0  0  0  0  0  0  0
  142.0540   80.1780  221.8540 C   0  0  0  0  0  0  0  0  0  0  0  0
  141.3040   81.4310  222.2850 C   0  0  0  0  0  0  0  0  0  0  0  0
  141.2530   81.2070  223.7960 C   0  0  0  0  0  0  0  0  0  0  0  0
  142.6520   80.7180  224.0940 C   0  0  0  0  0  0  0  0  0  0  0  0
  143.2540   80.2500  222.7970 C   0  0  0  0  0  0  0  0  0  0  0  0
  140.7200   76.7800  222.3580 C   0  0  0  0  0  0  0  0  0  0  0  0
  140.7440   75.5150  221.8490 C   0  0  0  0  0  0  0  0  0  0  0  0
  142.7695   73.0227  221.6185 H   0  0  0  0  0  0  0  0  0  0  0  0
  142.6251   72.0676  220.1040 H   0  0  0  0  0  0  0  0  0  0  0  0
  143.5288   73.6200  220.1040 H   0  0  0  0  0  0  0  0  0  0  0  0
  141.2848   73.8713  219.0854 H   0  0  0  0  0  0  0  0  0  0  0  0
  140.4920   72.5110  221.6960 H   0  0  0  0  0  0  0  0  0  0  0  0
  136.9818   73.0758  221.1101 H   0  0  0  0  0  0  0  0  0  0  0  0
  137.6575   71.5242  220.5487 H   0  0  0  0  0  0  0  0  0  0  0  0
  137.9930   72.7430  223.2340 H   0  0  0  0  0  0  0  0  0  0  0  0
  140.7064   72.7614  224.1992 H   0  0  0  0  0  0  0  0  0  0  0  0
  141.5272   72.4446  226.5100 H   0  0  0  0  0  0  0  0  0  0  0  0
  141.6725   71.0966  228.4356 H   0  0  0  0  0  0  0  0  0  0  0  0
  141.1295   68.9650  229.6512 H   0  0  0  0  0  0  0  0  0  0  0  0
  139.7651   67.2062  228.4947 H   0  0  0  0  0  0  0  0  0  0  0  0
  138.9779   67.6007  226.1753 H   0  0  0  0  0  0  0  0  0  0  0  0
  142.5787   75.9904  219.0720 H   0  0  0  0  0  0  0  0  0  0  0  0
  142.5422   78.2944  219.9858 H   0  0  0  0  0  0  0  0  0  0  0  0
  142.2715   80.1105  220.7778 H   0  0  0  0  0  0  0  0  0  0  0  0
  141.8570   82.3462  222.0269 H   0  0  0  0  0  0  0  0  0  0  0  0
  140.3241   81.5711  221.8052 H   0  0  0  0  0  0  0  0  0  0  0  0
  141.0355   82.1433  224.3308 H   0  0  0  0  0  0  0  0  0  0  0  0
  140.4644   80.5084  224.1123 H   0  0  0  0  0  0  0  0  0  0  0  0
  143.2546   81.5370  224.5137 H   0  0  0  0  0  0  0  0  0  0  0  0
  142.6277   79.8986  224.8275 H   0  0  0  0  0  0  0  0  0  0  0  0
  144.0015   80.9680  222.4285 H   0  0  0  0  0  0  0  0  0  0  0  0
  143.7837   79.2905  222.8914 H   0  0  0  0  0  0  0  0  0  0  0  0
  140.1844   76.9812  223.2975 H   0  0  0  0  0  0  0  0  0  0  0  0
  140.2200   74.7157  222.3935 H   0  0  0  0  0  0  0  0  0  0  0  0
  1  2  1  0
  2  3  1  0
  3  4  1  0
  4  5  2  0
  4  6  1  0
  6  7  1  0
  7  8  1  0
  8  9  2  0
  8 10  1  0
 10 11  2  0
 11 12  1  0
 12 13  2  0
 13 14  1  0
 14 15  2  0
 15 16  1  0
 16 17  2  0
 17 18  1  0
 18 19  2  0
  2 20  1  0
 20 21  2  0
 21 22  1  0
 22 23  2  0
 23 24  1  0
 24 25  1  0
 25 26  1  0
 26 27  1  0
 27 28  1  0
 28 29  1  0
 23 30  1  0
 30 31  2  0
 19 10  1  0
 31 20  1  0
 18 13  1  0
 29 25  1  0
  1 32  1  0
  1 33  1  0
  1 34  1  0
  2 35  1  6
  3 36  1  0
  6 37  1  0
  6 38  1  0
  7 39  1  0
 11 40  1  0
 12 41  1  0
 14 42  1  0
 15 43  1  0
 16 44  1  0
 17 45  1  0
 21 46  1  0
 22 47  1  0
 25 48  1  0
 26 49  1  0
 26 50  1  0
 27 51  1  0
 27 52  1  0
 28 53  1  0
 28 54  1  0
 29 55  1  0
 29 56  1  0
 30 57  1  0
 31 58  1  0
M  END
>  <smiles>  (66) 
CC(NC(=O)CNC(=O)c1ccc2ccccc2n1)c1ccc(OC2CCCC2)cc1

>  <score_type>  (66) 
oracle

>  <origin>  (66) 
autodockgpu

>  <m_score__min__energy>  (66) 
-8.6899999999999995

>  <m_primary>  (66) 
energy

>  <rmsd>  (66) 
5.504424240845303

>  <m_score__min__rmsd>  (66) 
5.504424240845303

>  <meeko>  (66) 
{"free_energy": -8.53, "intermolecular_energy": -10.61, "internal_energy": -2.09, "cluster_size": 31, "cluster_id": 1, "rank_in_cluster": 7}

>  <energy>  (66) 
-8.37

>  <cluster_rmsd>  (66) 
0.78

>  <cluster>  (66) 
1

$$$$

     RDKit          3D

 58 61  0  0  0  0  0  0  0  0999 V2000
  143.4070   73.2550  220.7730 C   0  0  0  0  0  0  0  0  0  0  0  0
  142.1920   73.8320  220.0810 C   0  0  1  0  0  0  0  0  0  0  0  0
  141.0490   73.0630  220.5720 N   0  0  0  0  0  0  0  0  0  0  0  0
  140.5060   72.0050  219.7940 C   0  0  0  0  0  0  0  0  0  0  0  0
  141.0520   71.7720  218.6830 O   0  0  0  0  0  0  0  0  0  0  0  0
  139.3450   71.2300  220.3040 C   0  0  0  0  0  0  0  0  0  0  0  0
  139.6960   70.7190  221.6060 N   0  0  0  0  0  0  0  0  0  0  0  0
  139.7500   71.5520  222.7510 C   0  0  0  0  0  0  0  0  0  0  0  0
  139.4770   72.7730  222.6010 O   0  0  0  0  0  0  0  0  0  0  0  0
  140.1080   71.0190  224.0610 C   0  0  0  0  0  0  0  0  0  0  0  0
  140.6180   71.8720  225.0170 C   0  0  0  0  0  0  0  0  0  0  0  0
  140.9850   71.4620  226.2820 C   0  0  0  0  0  0  0  0  0  0  0  0
  140.8270   70.1220  226.5900 C   0  0  0  0  0  0  0  0  0  0  0  0
  141.1890   69.7050  227.8470 C   0  0  0  0  0  0  0  0  0  0  0  0
  141.0400   68.3540  228.1810 C   0  0  0  0  0  0  0  0  0  0  0  0
  140.5270   67.4680  227.2340 C   0  0  0  0  0  0  0  0  0  0  0  0
  140.1750   67.9490  225.9760 C   0  0  0  0  0  0  0  0  0  0  0  0
  140.3170   69.2720  225.6290 C   0  0  0  0  0  0  0  0  0  0  0  0
  139.9660   69.7200  224.3880 N   0  0  0  0  0  0  0  0  0  0  0  0
  141.9590   75.2420  220.4410 C   0  0  0  0  0  0  0  0  0  0  0  0
  142.4720   76.2570  219.6600 C   0  0  0  0  0  0  0  0  0  0  0  0
  142.2280   77.5720  220.0360 C   0  0  0  0  0  0  0  0  0  0  0  0
  141.4970   77.9060  221.1530 C   0  0  0  0  0  0  0  0  0  0  0  0
  141.2250   79.1800  221.5710 O   0  0  0  0  0  0  0  0  0  0  0  0
  140.6220   79.5310  222.7910 C   0  0  0  0  0  0  0  0  0  0  0  0
  141.6700   79.4120  223.8880 C   0  0  0  0  0  0  0  0  0  0  0  0
  142.7100   80.4100  223.3770 C   0  0  0  0  0  0  0  0  0  0  0  0
  141.8480   81.5670  222.9290 C   0  0  0  0  0  0  0  0  0  0  0  0
  140.4460   81.0480  222.7570 C   0  0  0  0  0  0  0  0  0  0  0  0
  140.9990   76.8600  221.9120 C   0  0  0  0  0  0  0  0  0  0  0  0
  141.2360   75.5680  221.5460 C   0  0  0  0  0  0  0  0  0  0  0  0
  143.2729   73.3187  221.8629 H   0  0  0  0  0  0  0  0  0  0  0  0
  143.5305   72.2021  220.4796 H   0  0  0  0  0  0  0  0  0  0  0  0
  144.3011   73.8247  220.4796 H   0  0  0  0  0  0  0  0  0  0  0  0
  142.3352   73.7801  218.9916 H   0  0  0  0  0  0  0  0  0  0  0  0
  140.6060   73.2640  221.4930 H   0  0  0  0  0  0  0  0  0  0  0  0
  138.4640   71.8838  220.3833 H   0  0  0  0  0  0  0  0  0  0  0  0
  139.1025   70.4043  219.6189 H   0  0  0  0  0  0  0  0  0  0  0  0
  139.9260   69.7050  221.7430 H   0  0  0  0  0  0  0  0  0  0  0  0
  140.7384   72.9342  224.7575 H   0  0  0  0  0  0  0  0  0  0  0  0
  141.3880   72.1732  227.0181 H   0  0  0  0  0  0  0  0  0  0  0  0
  141.5896   70.4210  228.5797 H   0  0  0  0  0  0  0  0  0  0  0  0
  141.3248   67.9945  229.1808 H   0  0  0  0  0  0  0  0  0  0  0  0
  140.4021   66.4027  227.4780 H   0  0  0  0  0  0  0  0  0  0  0  0
  139.7691   67.2462  225.2335 H   0  0  0  0  0  0  0  0  0  0  0  0
  143.0613   76.0301  218.7593 H   0  0  0  0  0  0  0  0  0  0  0  0
  142.6370   78.3815  219.4136 H   0  0  0  0  0  0  0  0  0  0  0  0
  139.7144   78.9288  222.9444 H   0  0  0  0  0  0  0  0  0  0  0  0
  141.2689   79.7077  224.8687 H   0  0  0  0  0  0  0  0  0  0  0  0
  142.0504   78.3934  224.0546 H   0  0  0  0  0  0  0  0  0  0  0  0
  143.3995   80.7132  224.1786 H   0  0  0  0  0  0  0  0  0  0  0  0
  143.3562   80.0072  222.5832 H   0  0  0  0  0  0  0  0  0  0  0  0
  141.8632   82.3626  223.6885 H   0  0  0  0  0  0  0  0  0  0  0  0
  142.2240   81.9865  221.9842 H   0  0  0  0  0  0  0  0  0  0  0  0
  139.7974   81.3873  223.5781 H   0  0  0  0  0  0  0  0  0  0  0  0
  139.9673   81.4037  221.8327 H   0  0  0  0  0  0  0  0  0  0  0  0
  140.4087   77.0728  222.8155 H   0  0  0  0  0  0  0  0  0  0  0  0
  140.8268   74.7584  222.1682 H   0  0  0  0  0  0  0  0  0  0  0  0
  1  2  1  0
  2  3  1  0
  3  4  1  0
  4  5  2  0
  4  6  1  0
  6  7  1  0
  7  8  1  0
  8  9  2  0
  8 10  1  0
 10 11  2  0
 11 12  1  0
 12 13  2  0
 13 14  1  0
 14 15  2  0
 15 16  1  0
 16 17  2  0
 17 18  1  0
 18 19  2  0
  2 20  1  0
 20 21  2  0
 21 22  1  0
 22 23  2  0
 23 24  1  0
 24 25  1  0
 25 26  1  0
 26 27  1  0
 27 28  1  0
 28 29  1  0
 23 30  1  0
 30 31  2  0
 19 10  1  0
 31 20  1  0
 18 13  1  0
 29 25  1  0
  1 32  1  0
  1 33  1  0
  1 34  1  0
  2 35  1  6
  3 36  1  0
  6 37  1  0
  6 38  1  0
  7 39  1  0
 11 40  1  0
 12 41  1  0
 14 42  1  0
 15 43  1  0
 16 44  1  0
 17 45  1  0
 21 46  1  0
 22 47  1  0
 25 48  1  0
 26 49  1  0
 26 50  1  0
 27 51  1  0
 27 52  1  0
 28 53  1  0
 28 54  1  0
 29 55  1  0
 29 56  1  0
 30 57  1  0
 31 58  1  0
M  END
>  <smiles>  (67) 
CC(NC(=O)CNC(=O)c1ccc2ccccc2n1)c1ccc(OC2CCCC2)cc1

>  <score_type>  (67) 
oracle

>  <origin>  (67) 
autodockgpu

>  <m_score__min__energy>  (67) 
-8.6899999999999995

>  <m_primary>  (67) 
energy

>  <rmsd>  (67) 
5.491946238367094

>  <m_score__min__rmsd>  (67) 
5.491946238367094

>  <meeko>  (67) 
{"free_energy": -8.22, "intermolecular_energy": -10.31, "internal_energy": -2.31, "cluster_size": 31, "cluster_id": 1, "rank_in_cluster": 23}

>  <energy>  (67) 
-8.37

>  <cluster_rmsd>  (67) 
1.61

>  <cluster>  (67) 
1

$$$$

     RDKit          3D

 58 61  0  0  0  0  0  0  0  0999 V2000
  143.2930   73.9790  220.6470 C   0  0  0  0  0  0  0  0  0  0  0  0
  142.2590   74.6040  219.7370 C   0  0  1  0  0  0  0  0  0  0  0  0
  141.0190   73.8650  219.9760 N   0  0  0  0  0  0  0  0  0  0  0  0
  140.9060   72.5030  219.5880 C   0  0  0  0  0  0  0  0  0  0  0  0
  141.9110   71.9790  219.0390 O   0  0  0  0  0  0  0  0  0  0  0  0
  139.6410   71.7630  219.8370 C   0  0  0  0  0  0  0  0  0  0  0  0
  139.7500   71.1320  221.1290 N   0  0  0  0  0  0  0  0  0  0  0  0
  139.8790   71.8820  222.3240 C   0  0  0  0  0  0  0  0  0  0  0  0
  139.8960   73.1380  222.2280 O   0  0  0  0  0  0  0  0  0  0  0  0
  139.9880   71.2260  223.6220 C   0  0  0  0  0  0  0  0  0  0  0  0
  139.5690   69.9190  223.7530 C   0  0  0  0  0  0  0  0  0  0  0  0
  139.6330   69.2160  224.9380 C   0  0  0  0  0  0  0  0  0  0  0  0
  140.1470   69.8730  226.0430 C   0  0  0  0  0  0  0  0  0  0  0  0
  140.2150   69.1800  227.2280 C   0  0  0  0  0  0  0  0  0  0  0  0
  140.7290   69.8230  228.3590 C   0  0  0  0  0  0  0  0  0  0  0  0
  141.1600   71.1460  228.2570 C   0  0  0  0  0  0  0  0  0  0  0  0
  141.0680   71.7970  227.0300 C   0  0  0  0  0  0  0  0  0  0  0  0
  140.5640   71.1810  225.9080 C   0  0  0  0  0  0  0  0  0  0  0  0
  140.4830   71.8410  224.7150 N   0  0  0  0  0  0  0  0  0  0  0  0
  142.0000   76.0150  220.0710 C   0  0  0  0  0  0  0  0  0  0  0  0
  142.4320   77.0220  219.2320 C   0  0  0  0  0  0  0  0  0  0  0  0
  142.1660   78.3400  219.5840 C   0  0  0  0  0  0  0  0  0  0  0  0
  141.4900   78.6840  220.7320 C   0  0  0  0  0  0  0  0  0  0  0  0
  141.2000   79.9600  221.1290 O   0  0  0  0  0  0  0  0  0  0  0  0
  142.1150   80.8780  221.6720 C   0  0  0  0  0  0  0  0  0  0  0  0
  141.3530   81.8190  222.5930 C   0  0  0  0  0  0  0  0  0  0  0  0
  140.7840   80.8130  223.5940 C   0  0  0  0  0  0  0  0  0  0  0  0
  141.9660   79.9030  223.8380 C   0  0  0  0  0  0  0  0  0  0  0  0
  142.9340   80.1030  222.7030 C   0  0  0  0  0  0  0  0  0  0  0  0
  141.0720   77.6450  221.5480 C   0  0  0  0  0  0  0  0  0  0  0  0
  141.3300   76.3510  221.2060 C   0  0  0  0  0  0  0  0  0  0  0  0
  143.0097   74.1503  221.6960 H   0  0  0  0  0  0  0  0  0  0  0  0
  143.3460   72.8975  220.4534 H   0  0  0  0  0  0  0  0  0  0  0  0
  144.2752   74.4347  220.4534 H   0  0  0  0  0  0  0  0  0  0  0  0
  142.6152   74.5624  218.6971 H   0  0  0  0  0  0  0  0  0  0  0  0
  140.1940   74.3100  220.4320 H   0  0  0  0  0  0  0  0  0  0  0  0
  138.7911   72.4613  219.8315 H   0  0  0  0  0  0  0  0  0  0  0  0
  139.4742   71.0098  219.0529 H   0  0  0  0  0  0  0  0  0  0  0  0
  139.7360   70.0870  221.2200 H   0  0  0  0  0  0  0  0  0  0  0  0
  139.1625   69.4104  222.8664 H   0  0  0  0  0  0  0  0  0  0  0  0
  139.2888   68.1732  225.0026 H   0  0  0  0  0  0  0  0  0  0  0  0
  139.8709   68.1368  227.2861 H   0  0  0  0  0  0  0  0  0  0  0  0
  140.7928   69.2907  229.3195 H   0  0  0  0  0  0  0  0  0  0  0  0
  141.5675   71.6682  229.1352 H   0  0  0  0  0  0  0  0  0  0  0  0
  141.4100   72.8398  226.9550 H   0  0  0  0  0  0  0  0  0  0  0  0
  142.9751   76.7866  218.3048 H   0  0  0  0  0  0  0  0  0  0  0  0
  142.5109   79.1429  218.9158 H   0  0  0  0  0  0  0  0  0  0  0  0
  142.6735   81.3694  220.8616 H   0  0  0  0  0  0  0  0  0  0  0  0
  142.0222   82.5440  223.0793 H   0  0  0  0  0  0  0  0  0  0  0  0
  140.6021   82.4479  222.0924 H   0  0  0  0  0  0  0  0  0  0  0  0
  140.4651   81.3103  224.5219 H   0  0  0  0  0  0  0  0  0  0  0  0
  139.8888   80.2868  223.2311 H   0  0  0  0  0  0  0  0  0  0  0  0
  142.4480   80.1614  224.7924 H   0  0  0  0  0  0  0  0  0  0  0  0
  141.6419   78.8531  223.8898 H   0  0  0  0  0  0  0  0  0  0  0  0
  143.8084   80.6851  223.0293 H   0  0  0  0  0  0  0  0  0  0  0  0
  143.3360   79.1577  222.3096 H   0  0  0  0  0  0  0  0  0  0  0  0
  140.5282   77.8660  222.4783 H   0  0  0  0  0  0  0  0  0  0  0  0
  140.9832   75.5481  221.8731 H   0  0  0  0  0  0  0  0  0  0  0  0
  1  2  1  0
  2  3  1  0
  3  4  1  0
  4  5  2  0
  4  6  1  0
  6  7  1  0
  7  8  1  0
  8  9  2  0
  8 10  1  0
 10 11  2  0
 11 12  1  0
 12 13  2  0
 13 14  1  0
 14 15  2  0
 15 16  1  0
 16 17  2  0
 17 18  1  0
 18 19  2  0
  2 20  1  0
 20 21  2  0
 21 22  1  0
 22 23  2  0
 23 24  1  0
 24 25  1  0
 25 26  1  0
 26 27  1  0
 27 28  1  0
 28 29  1  0
 23 30  1  0
 30 31  2  0
 19 10  1  0
 31 20  1  0
 18 13  1  0
 29 25  1  0
  1 32  1  0
  1 33  1  0
  1 34  1  0
  2 35  1  6
  3 36  1  0
  6 37  1  0
  6 38  1  0
  7 39  1  0
 11 40  1  0
 12 41  1  0
 14 42  1  0
 15 43  1  0
 16 44  1  0
 17 45  1  0
 21 46  1  0
 22 47  1  0
 25 48  1  0
 26 49  1  0
 26 50  1  0
 27 51  1  0
 27 52  1  0
 28 53  1  0
 28 54  1  0
 29 55  1  0
 29 56  1  0
 30 57  1  0
 31 58  1  0
M  END
>  <smiles>  (68) 
CC(NC(=O)CNC(=O)c1ccc2ccccc2n1)c1ccc(OC2CCCC2)cc1

>  <score_type>  (68) 
oracle

>  <origin>  (68) 
autodockgpu

>  <m_score__min__energy>  (68) 
-8.6899999999999995

>  <m_primary>  (68) 
energy

>  <rmsd>  (68) 
5.245033448782655

>  <m_score__min__rmsd>  (68) 
5.245033448782655

>  <meeko>  (68) 
{"free_energy": -8.39, "intermolecular_energy": -10.48, "internal_energy": -2.05, "cluster_size": 31, "cluster_id": 1, "rank_in_cluster": 15}

>  <energy>  (68) 
-8.36

>  <cluster_rmsd>  (68) 
0.99

>  <cluster>  (68) 
1

$$$$

     RDKit          3D

 58 61  0  0  0  0  0  0  0  0999 V2000
  137.4910   76.7790  222.4970 C   0  0  0  0  0  0  0  0  0  0  0  0
  136.7100   75.5110  222.2350 C   0  0  1  0  0  0  0  0  0  0  0  0
  137.7080   74.4720  221.9790 N   0  0  0  0  0  0  0  0  0  0  0  0
  137.8320   73.8950  220.6860 C   0  0  0  0  0  0  0  0  0  0  0  0
  137.0510   74.3190  219.7930 O   0  0  0  0  0  0  0  0  0  0  0  0
  138.8500   72.8410  220.4390 C   0  0  0  0  0  0  0  0  0  0  0  0
  138.8850   71.9860  221.5990 N   0  0  0  0  0  0  0  0  0  0  0  0
  139.6720   72.2940  222.7370 C   0  0  0  0  0  0  0  0  0  0  0  0
  140.3530   73.3530  222.7100 O   0  0  0  0  0  0  0  0  0  0  0  0
  139.6960   71.4160  223.9020 C   0  0  0  0  0  0  0  0  0  0  0  0
  139.0170   70.2170  223.8550 C   0  0  0  0  0  0  0  0  0  0  0  0
  138.9820   69.3220  224.9050 C   0  0  0  0  0  0  0  0  0  0  0  0
  139.6680   69.6630  226.0570 C   0  0  0  0  0  0  0  0  0  0  0  0
  139.6390   68.7780  227.1070 C   0  0  0  0  0  0  0  0  0  0  0  0
  140.3240   69.1000  228.2830 C   0  0  0  0  0  0  0  0  0  0  0  0
  141.0200   70.3070  228.3610 C   0  0  0  0  0  0  0  0  0  0  0  0
  141.0140   71.1640  227.2630 C   0  0  0  0  0  0  0  0  0  0  0  0
  140.3460   70.8640  226.1010 C   0  0  0  0  0  0  0  0  0  0  0  0
  140.3550   71.7220  225.0380 N   0  0  0  0  0  0  0  0  0  0  0  0
  135.9240   75.0850  223.4060 C   0  0  0  0  0  0  0  0  0  0  0  0
  135.4670   76.0150  224.3160 C   0  0  0  0  0  0  0  0  0  0  0  0
  134.7290   75.5700  225.4070 C   0  0  0  0  0  0  0  0  0  0  0  0
  134.4340   74.2430  225.6170 C   0  0  0  0  0  0  0  0  0  0  0  0
  133.7140   73.7480  226.6690 O   0  0  0  0  0  0  0  0  0  0  0  0
  132.4170   73.2110  226.5950 C   0  0  0  0  0  0  0  0  0  0  0  0
  131.6460   73.6640  227.8270 C   0  0  0  0  0  0  0  0  0  0  0  0
  131.7240   75.1810  227.6500 C   0  0  0  0  0  0  0  0  0  0  0  0
  131.4480   75.3440  226.1730 C   0  0  0  0  0  0  0  0  0  0  0  0
  131.6870   74.0110  225.5170 C   0  0  0  0  0  0  0  0  0  0  0  0
  134.9100   73.3390  224.6810 C   0  0  0  0  0  0  0  0  0  0  0  0
  135.6340   73.7720  223.6090 C   0  0  0  0  0  0  0  0  0  0  0  0
  137.5861   76.9335  223.5819 H   0  0  0  0  0  0  0  0  0  0  0  0
  138.4922   76.6920  222.0498 H   0  0  0  0  0  0  0  0  0  0  0  0
  136.9628   77.6340  222.0498 H   0  0  0  0  0  0  0  0  0  0  0  0
  136.0116   75.6797  221.4021 H   0  0  0  0  0  0  0  0  0  0  0  0
  138.3500   74.1310  222.7260 H   0  0  0  0  0  0  0  0  0  0  0  0
  138.5746   72.2551  219.5497 H   0  0  0  0  0  0  0  0  0  0  0  0
  139.8375   73.2925  220.2629 H   0  0  0  0  0  0  0  0  0  0  0  0
  138.3230   71.1000  221.6330 H   0  0  0  0  0  0  0  0  0  0  0  0
  138.4751   69.9604  222.9328 H   0  0  0  0  0  0  0  0  0  0  0  0
  138.4297   68.3737  224.8288 H   0  0  0  0  0  0  0  0  0  0  0  0
  139.0857   67.8309  227.0242 H   0  0  0  0  0  0  0  0  0  0  0  0
  140.3142   68.4084  229.1384 H   0  0  0  0  0  0  0  0  0  0  0  0
  141.5658   70.5779  229.2768 H   0  0  0  0  0  0  0  0  0  0  0  0
  141.5636   72.1146  227.3288 H   0  0  0  0  0  0  0  0  0  0  0  0
  135.6817   77.0854  224.1816 H   0  0  0  0  0  0  0  0  0  0  0  0
  134.3652   76.3113  226.1338 H   0  0  0  0  0  0  0  0  0  0  0  0
  132.4727   72.1216  226.4533 H   0  0  0  0  0  0  0  0  0  0  0  0
  130.6064   73.3047  227.8123 H   0  0  0  0  0  0  0  0  0  0  0  0
  132.0408   73.2894  228.7829 H   0  0  0  0  0  0  0  0  0  0  0  0
  130.9629   75.6931  228.2570 H   0  0  0  0  0  0  0  0  0  0  0  0
  132.6827   75.6145  227.9708 H   0  0  0  0  0  0  0  0  0  0  0  0
  130.4048   75.6567  226.0184 H   0  0  0  0  0  0  0  0  0  0  0  0
  132.1051   76.1121  225.7391 H   0  0  0  0  0  0  0  0  0  0  0  0
  130.7358   73.5296  225.2460 H   0  0  0  0  0  0  0  0  0  0  0  0
  132.2582   74.0899  224.5803 H   0  0  0  0  0  0  0  0  0  0  0  0
  134.7028   72.2656  224.8031 H   0  0  0  0  0  0  0  0  0  0  0  0
  135.9969   73.0312  222.8813 H   0  0  0  0  0  0  0  0  0  0  0  0
  1  2  1  0
  2  3  1  0
  3  4  1  0
  4  5  2  0
  4  6  1  0
  6  7  1  0
  7  8  1  0
  8  9  2  0
  8 10  1  0
 10 11  2  0
 11 12  1  0
 12 13  2  0
 13 14  1  0
 14 15  2  0
 15 16  1  0
 16 17  2  0
 17 18  1  0
 18 19  2  0
  2 20  1  0
 20 21  2  0
 21 22  1  0
 22 23  2  0
 23 24  1  0
 24 25  1  0
 25 26  1  0
 26 27  1  0
 27 28  1  0
 28 29  1  0
 23 30  1  0
 30 31  2  0
 19 10  1  0
 31 20  1  0
 18 13  1  0
 29 25  1  0
  1 32  1  0
  1 33  1  0
  1 34  1  0
  2 35  1  6
  3 36  1  0
  6 37  1  0
  6 38  1  0
  7 39  1  0
 11 40  1  0
 12 41  1  0
 14 42  1  0
 15 43  1  0
 16 44  1  0
 17 45  1  0
 21 46  1  0
 22 47  1  0
 25 48  1  0
 26 49  1  0
 26 50  1  0
 27 51  1  0
 27 52  1  0
 28 53  1  0
 28 54  1  0
 29 55  1  0
 29 56  1  0
 30 57  1  0
 31 58  1  0
M  END
>  <smiles>  (69) 
CC(NC(=O)CNC(=O)c1ccc2ccccc2n1)c1ccc(OC2CCCC2)cc1

>  <score_type>  (69) 
oracle

>  <origin>  (69) 
autodockgpu

>  <m_score__min__energy>  (69) 
-8.6899999999999995

>  <m_primary>  (69) 
energy

>  <rmsd>  (69) 
7.346294256949438

>  <m_score__min__rmsd>  (69) 
7.346294256949438

>  <meeko>  (69) 
{"free_energy": -8.54, "intermolecular_energy": -10.63, "internal_energy": -2.29, "cluster_size": 15, "cluster_id": 2, "rank_in_cluster": 6}

>  <energy>  (69) 
-8.34

>  <cluster_rmsd>  (69) 
1.85

>  <cluster>  (69) 
1

$$$$

     RDKit          3D

 58 61  0  0  0  0  0  0  0  0999 V2000
  137.4860   76.6460  222.5300 C   0  0  0  0  0  0  0  0  0  0  0  0
  136.7290   75.3670  222.2500 C   0  0  1  0  0  0  0  0  0  0  0  0
  137.7470   74.3500  221.9830 N   0  0  0  0  0  0  0  0  0  0  0  0
  137.9340   73.8480  220.6660 C   0  0  0  0  0  0  0  0  0  0  0  0
  137.1900   74.3160  219.7640 O   0  0  0  0  0  0  0  0  0  0  0  0
  138.9710   72.8150  220.4070 C   0  0  0  0  0  0  0  0  0  0  0  0
  139.0210   71.9470  221.5570 N   0  0  0  0  0  0  0  0  0  0  0  0
  139.7800   72.2680  222.7090 C   0  0  0  0  0  0  0  0  0  0  0  0
  140.4230   73.3520  222.7050 O   0  0  0  0  0  0  0  0  0  0  0  0
  139.8200   71.3770  223.8640 C   0  0  0  0  0  0  0  0  0  0  0  0
  139.2010   70.1470  223.7850 C   0  0  0  0  0  0  0  0  0  0  0  0
  139.1850   69.2380  224.8230 C   0  0  0  0  0  0  0  0  0  0  0  0
  139.8280   69.5950  225.9950 C   0  0  0  0  0  0  0  0  0  0  0  0
  139.8180   68.6950  227.0330 C   0  0  0  0  0  0  0  0  0  0  0  0
  140.4610   69.0340  228.2280 C   0  0  0  0  0  0  0  0  0  0  0  0
  141.0960   70.2710  228.3370 C   0  0  0  0  0  0  0  0  0  0  0  0
  141.0740   71.1420  227.2510 C   0  0  0  0  0  0  0  0  0  0  0  0
  140.4460   70.8270  226.0690 C   0  0  0  0  0  0  0  0  0  0  0  0
  140.4390   71.6980  225.0180 N   0  0  0  0  0  0  0  0  0  0  0  0
  135.9510   74.9110  223.4150 C   0  0  0  0  0  0  0  0  0  0  0  0
  135.6520   73.5740  223.5760 C   0  0  0  0  0  0  0  0  0  0  0  0
  134.9160   73.1870  224.6890 C   0  0  0  0  0  0  0  0  0  0  0  0
  134.4720   74.0790  225.6380 C   0  0  0  0  0  0  0  0  0  0  0  0
  133.7450   73.7580  226.7510 O   0  0  0  0  0  0  0  0  0  0  0  0
  132.4470   73.2200  226.7560 C   0  0  0  0  0  0  0  0  0  0  0  0
  131.6980   73.8010  227.9460 C   0  0  0  0  0  0  0  0  0  0  0  0
  131.7740   75.2910  227.6100 C   0  0  0  0  0  0  0  0  0  0  0  0
  131.4720   75.2990  226.1290 C   0  0  0  0  0  0  0  0  0  0  0  0
  131.6990   73.9040  225.6130 C   0  0  0  0  0  0  0  0  0  0  0  0
  134.7920   75.4130  225.4420 C   0  0  0  0  0  0  0  0  0  0  0  0
  135.5150   75.7970  224.3510 C   0  0  0  0  0  0  0  0  0  0  0  0
  137.5717   76.7909  223.6170 H   0  0  0  0  0  0  0  0  0  0  0  0
  138.4913   76.5813  222.0883 H   0  0  0  0  0  0  0  0  0  0  0  0
  136.9455   77.4962  222.0883 H   0  0  0  0  0  0  0  0  0  0  0  0
  136.0287   75.5334  221.4182 H   0  0  0  0  0  0  0  0  0  0  0  0
  138.3570   73.9710  222.7380 H   0  0  0  0  0  0  0  0  0  0  0  0
  138.7063   72.2348  219.5108 H   0  0  0  0  0  0  0  0  0  0  0  0
  139.9503   73.2861  220.2367 H   0  0  0  0  0  0  0  0  0  0  0  0
  138.4910   71.0420  221.5720 H   0  0  0  0  0  0  0  0  0  0  0  0
  138.6943   69.8769  222.8468 H   0  0  0  0  0  0  0  0  0  0  0  0
  138.6800   68.2660  224.7225 H   0  0  0  0  0  0  0  0  0  0  0  0
  139.3126   67.7238  226.9261 H   0  0  0  0  0  0  0  0  0  0  0  0
  140.4658   68.3313  229.0743 H   0  0  0  0  0  0  0  0  0  0  0  0
  141.6074   70.5547  229.2687 H   0  0  0  0  0  0  0  0  0  0  0  0
  141.5766   72.1162  227.3418 H   0  0  0  0  0  0  0  0  0  0  0  0
  135.9891   72.8302  222.8390 H   0  0  0  0  0  0  0  0  0  0  0  0
  134.6778   72.1208  224.8172 H   0  0  0  0  0  0  0  0  0  0  0  0
  132.4997   72.1216  226.7284 H   0  0  0  0  0  0  0  0  0  0  0  0
  130.6581   73.4448  227.9866 H   0  0  0  0  0  0  0  0  0  0  0  0
  132.1089   73.5274  228.9290 H   0  0  0  0  0  0  0  0  0  0  0  0
  131.0241   75.8658  228.1733 H   0  0  0  0  0  0  0  0  0  0  0  0
  132.7385   75.7534  227.8669 H   0  0  0  0  0  0  0  0  0  0  0  0
  130.4263   75.5961  225.9606 H   0  0  0  0  0  0  0  0  0  0  0  0
  132.1214   76.0160  225.6053 H   0  0  0  0  0  0  0  0  0  0  0  0
  130.7430   73.3990  225.4106 H   0  0  0  0  0  0  0  0  0  0  0  0
  132.2541   73.8828  224.6636 H   0  0  0  0  0  0  0  0  0  0  0  0
  134.4608   76.1672  226.1711 H   0  0  0  0  0  0  0  0  0  0  0  0
  135.7545   76.8630  224.2231 H   0  0  0  0  0  0  0  0  0  0  0  0
  1  2  1  0
  2  3  1  0
  3  4  1  0
  4  5  2  0
  4  6  1  0
  6  7  1  0
  7  8  1  0
  8  9  2  0
  8 10  1  0
 10 11  2  0
 11 12  1  0
 12 13  2  0
 13 14  1  0
 14 15  2  0
 15 16  1  0
 16 17  2  0
 17 18  1  0
 18 19  2  0
  2 20  1  0
 20 21  2  0
 21 22  1  0
 22 23  2  0
 23 24  1  0
 24 25  1  0
 25 26  1  0
 26 27  1  0
 27 28  1  0
 28 29  1  0
 23 30  1  0
 30 31  2  0
 19 10  1  0
 31 20  1  0
 18 13  1  0
 29 25  1  0
  1 32  1  0
  1 33  1  0
  1 34  1  0
  2 35  1  6
  3 36  1  0
  6 37  1  0
  6 38  1  0
  7 39  1  0
 11 40  1  0
 12 41  1  0
 14 42  1  0
 15 43  1  0
 16 44  1  0
 17 45  1  0
 21 46  1  0
 22 47  1  0
 25 48  1  0
 26 49  1  0
 26 50  1  0
 27 51  1  0
 27 52  1  0
 28 53  1  0
 28 54  1  0
 29 55  1  0
 29 56  1  0
 30 57  1  0
 31 58  1  0
M  END
>  <smiles>  (70) 
CC(NC(=O)CNC(=O)c1ccc2ccccc2n1)c1ccc(OC2CCCC2)cc1

>  <score_type>  (70) 
oracle

>  <origin>  (70) 
autodockgpu

>  <m_score__min__energy>  (70) 
-8.6899999999999995

>  <m_primary>  (70) 
energy

>  <rmsd>  (70) 
7.365937564710453

>  <m_score__min__rmsd>  (70) 
7.365937564710453

>  <meeko>  (70) 
{"free_energy": -8.61, "intermolecular_energy": -10.7, "internal_energy": -2.28, "cluster_size": 15, "cluster_id": 2, "rank_in_cluster": 3}

>  <energy>  (70) 
-8.32

>  <cluster_rmsd>  (70) 
1.13

>  <cluster>  (70) 
1

$$$$

     RDKit          3D

 58 61  0  0  0  0  0  0  0  0999 V2000
  143.1460   73.5470  220.6060 C   0  0  0  0  0  0  0  0  0  0  0  0
  141.8120   74.0850  220.1400 C   0  0  1  0  0  0  0  0  0  0  0  0
  140.8020   73.1750  220.6810 N   0  0  0  0  0  0  0  0  0  0  0  0
  139.4250   73.3740  220.3920 C   0  0  0  0  0  0  0  0  0  0  0  0
  139.1300   74.3560  219.6600 O   0  0  0  0  0  0  0  0  0  0  0  0
  138.4090   72.4420  220.9470 C   0  0  0  0  0  0  0  0  0  0  0  0
  138.7610   72.1780  222.3200 N   0  0  0  0  0  0  0  0  0  0  0  0
  139.6720   71.1540  222.6790 C   0  0  0  0  0  0  0  0  0  0  0  0
  140.1770   70.4670  221.7510 O   0  0  0  0  0  0  0  0  0  0  0  0
  140.0170   70.9000  224.0740 C   0  0  0  0  0  0  0  0  0  0  0  0
  140.6570   71.8840  224.7970 C   0  0  0  0  0  0  0  0  0  0  0  0
  141.0230   71.7370  226.1200 C   0  0  0  0  0  0  0  0  0  0  0  0
  140.7240   70.5340  226.7350 C   0  0  0  0  0  0  0  0  0  0  0  0
  141.0840   70.3790  228.0520 C   0  0  0  0  0  0  0  0  0  0  0  0
  140.7930   69.1710  228.6950 C   0  0  0  0  0  0  0  0  0  0  0  0
  140.1470   68.1570  227.9880 C   0  0  0  0  0  0  0  0  0  0  0  0
  139.8050   68.3720  226.6550 C   0  0  0  0  0  0  0  0  0  0  0  0
  140.0840   69.5520  226.0070 C   0  0  0  0  0  0  0  0  0  0  0  0
  139.7390   69.7390  224.6980 N   0  0  0  0  0  0  0  0  0  0  0  0
  141.5290   75.4260  220.6810 C   0  0  0  0  0  0  0  0  0  0  0  0
  140.9030   75.5680  221.9030 C   0  0  0  0  0  0  0  0  0  0  0  0
  140.6560   76.8510  222.3770 C   0  0  0  0  0  0  0  0  0  0  0  0
  141.0070   77.9850  221.6820 C   0  0  0  0  0  0  0  0  0  0  0  0
  140.7890   79.2690  222.0970 O   0  0  0  0  0  0  0  0  0  0  0  0
  140.6030   79.6800  223.4280 C   0  0  0  0  0  0  0  0  0  0  0  0
  141.8650   79.3410  224.2080 C   0  0  0  0  0  0  0  0  0  0  0  0
  142.8930   80.1560  223.4240 C   0  0  0  0  0  0  0  0  0  0  0  0
  142.1660   81.4620  223.2050 C   0  0  0  0  0  0  0  0  0  0  0  0
  140.6990   81.2050  223.4200 C   0  0  0  0  0  0  0  0  0  0  0  0
  141.6330   77.8010  220.4590 C   0  0  0  0  0  0  0  0  0  0  0  0
  141.8790   76.5440  219.9910 C   0  0  0  0  0  0  0  0  0  0  0  0
  143.1731   73.5361  221.7056 H   0  0  0  0  0  0  0  0  0  0  0  0
  143.2818   72.5238  220.2257 H   0  0  0  0  0  0  0  0  0  0  0  0
  143.9536   74.1897  220.2257 H   0  0  0  0  0  0  0  0  0  0  0  0
  141.8121   74.1560  219.0423 H   0  0  0  0  0  0  0  0  0  0  0  0
  141.0590   72.3650  221.2840 H   0  0  0  0  0  0  0  0  0  0  0  0
  137.4113   72.9027  220.8978 H   0  0  0  0  0  0  0  0  0  0  0  0
  138.3865   71.5069  220.3681 H   0  0  0  0  0  0  0  0  0  0  0  0
  138.3470   72.7430  223.1010 H   0  0  0  0  0  0  0  0  0  0  0  0
  140.8878   72.8347  224.2941 H   0  0  0  0  0  0  0  0  0  0  0  0
  141.5329   72.5454  226.6645 H   0  0  0  0  0  0  0  0  0  0  0  0
  141.5926   71.1913  228.5919 H   0  0  0  0  0  0  0  0  0  0  0  0
  141.0712   69.0223  229.7488 H   0  0  0  0  0  0  0  0  0  0  0  0
  139.9108   67.2002  228.4766 H   0  0  0  0  0  0  0  0  0  0  0  0
  139.2941   67.5702  226.1018 H   0  0  0  0  0  0  0  0  0  0  0  0
  140.6062   74.6854  222.4886 H   0  0  0  0  0  0  0  0  0  0  0  0
  140.1578   76.9646  223.3511 H   0  0  0  0  0  0  0  0  0  0  0  0
  139.6754   79.2429  223.8262 H   0  0  0  0  0  0  0  0  0  0  0  0
  141.7974   79.6697  225.2556 H   0  0  0  0  0  0  0  0  0  0  0  0
  142.0872   78.2663  224.2826 H   0  0  0  0  0  0  0  0  0  0  0  0
  143.8131   80.3049  224.0081 H   0  0  0  0  0  0  0  0  0  0  0  0
  143.2219   79.6724  222.4924 H   0  0  0  0  0  0  0  0  0  0  0  0
  142.5241   82.2159  223.9215 H   0  0  0  0  0  0  0  0  0  0  0  0
  142.3479   81.8408  222.1884 H   0  0  0  0  0  0  0  0  0  0  0  0
  140.3623   81.6254  224.3791 H   0  0  0  0  0  0  0  0  0  0  0  0
  140.0647   81.6708  222.6514 H   0  0  0  0  0  0  0  0  0  0  0  0
  141.9333   78.6747  219.8620 H   0  0  0  0  0  0  0  0  0  0  0  0
  142.3797   76.4302  219.0182 H   0  0  0  0  0  0  0  0  0  0  0  0
  1  2  1  0
  2  3  1  0
  3  4  1  0
  4  5  2  0
  4  6  1  0
  6  7  1  0
  7  8  1  0
  8  9  2  0
  8 10  1  0
 10 11  2  0
 11 12  1  0
 12 13  2  0
 13 14  1  0
 14 15  2  0
 15 16  1  0
 16 17  2  0
 17 18  1  0
 18 19  2  0
  2 20  1  0
 20 21  2  0
 21 22  1  0
 22 23  2  0
 23 24  1  0
 24 25  1  0
 25 26  1  0
 26 27  1  0
 27 28  1  0
 28 29  1  0
 23 30  1  0
 30 31  2  0
 19 10  1  0
 31 20  1  0
 18 13  1  0
 29 25  1  0
  1 32  1  0
  1 33  1  0
  1 34  1  0
  2 35  1  6
  3 36  1  0
  6 37  1  0
  6 38  1  0
  7 39  1  0
 11 40  1  0
 12 41  1  0
 14 42  1  0
 15 43  1  0
 16 44  1  0
 17 45  1  0
 21 46  1  0
 22 47  1  0
 25 48  1  0
 26 49  1  0
 26 50  1  0
 27 51  1  0
 27 52  1  0
 28 53  1  0
 28 54  1  0
 29 55  1  0
 29 56  1  0
 30 57  1  0
 31 58  1  0
M  END
>  <smiles>  (71) 
CC(NC(=O)CNC(=O)c1ccc2ccccc2n1)c1ccc(OC2CCCC2)cc1

>  <score_type>  (71) 
oracle

>  <origin>  (71) 
autodockgpu

>  <m_score__min__energy>  (71) 
-8.6899999999999995

>  <m_primary>  (71) 
energy

>  <rmsd>  (71) 
5.222246519052884

>  <m_score__min__rmsd>  (71) 
5.222246519052884

>  <meeko>  (71) 
{"free_energy": -8.57, "intermolecular_energy": -10.65, "internal_energy": -2.15, "cluster_size": 31, "cluster_id": 1, "rank_in_cluster": 5}

>  <energy>  (71) 
-8.23

>  <cluster_rmsd>  (71) 
1.12

>  <cluster>  (71) 
1

$$$$

     RDKit          3D

 58 61  0  0  0  0  0  0  0  0999 V2000
  142.9600   74.2420  217.2810 C   0  0  0  0  0  0  0  0  0  0  0  0
  143.0120   73.9250  218.7590 C   0  0  1  0  0  0  0  0  0  0  0  0
  141.6200   73.8400  219.2000 N   0  0  0  0  0  0  0  0  0  0  0  0
  141.2630   74.1940  220.5290 C   0  0  0  0  0  0  0  0  0  0  0  0
  142.1920   74.5770  221.2890 O   0  0  0  0  0  0  0  0  0  0  0  0
  139.8450   74.1050  220.9650 C   0  0  0  0  0  0  0  0  0  0  0  0
  139.8190   73.4070  222.2270 N   0  0  0  0  0  0  0  0  0  0  0  0
  140.1670   72.0390  222.3380 C   0  0  0  0  0  0  0  0  0  0  0  0
  140.5070   71.4330  221.2870 O   0  0  0  0  0  0  0  0  0  0  0  0
  140.1350   71.3490  223.6230 C   0  0  0  0  0  0  0  0  0  0  0  0
  139.5810   70.0890  223.6960 C   0  0  0  0  0  0  0  0  0  0  0  0
  139.5050   69.3590  224.8650 C   0  0  0  0  0  0  0  0  0  0  0  0
  140.0150   69.9380  226.0140 C   0  0  0  0  0  0  0  0  0  0  0  0
  139.9440   69.2190  227.1810 C   0  0  0  0  0  0  0  0  0  0  0  0
  140.4520   69.7840  228.3560 C   0  0  0  0  0  0  0  0  0  0  0  0
  141.0180   71.0580  228.3140 C   0  0  0  0  0  0  0  0  0  0  0  0
  141.0630   71.7400  227.1000 C   0  0  0  0  0  0  0  0  0  0  0  0
  140.5680   71.2010  225.9360 C   0  0  0  0  0  0  0  0  0  0  0  0
  140.6230   71.8890  224.7580 N   0  0  0  0  0  0  0  0  0  0  0  0
  143.6380   72.6180  219.0290 C   0  0  0  0  0  0  0  0  0  0  0  0
  145.0110   72.5000  219.0870 C   0  0  0  0  0  0  0  0  0  0  0  0
  145.5600   71.2490  219.3450 C   0  0  0  0  0  0  0  0  0  0  0  0
  144.7930   70.1240  219.5440 C   0  0  0  0  0  0  0  0  0  0  0  0
  145.2760   68.8700  219.8010 O   0  0  0  0  0  0  0  0  0  0  0  0
  146.0930   68.1160  218.9430 C   0  0  0  0  0  0  0  0  0  0  0  0
  145.9310   66.6460  219.3060 C   0  0  0  0  0  0  0  0  0  0  0  0
  144.4290   66.4770  219.0730 C   0  0  0  0  0  0  0  0  0  0  0  0
  144.2210   67.2220  217.7760 C   0  0  0  0  0  0  0  0  0  0  0  0
  145.4060   68.1290  217.5790 C   0  0  0  0  0  0  0  0  0  0  0  0
  143.4180   70.2830  219.4780 C   0  0  0  0  0  0  0  0  0  0  0  0
  142.8760   71.5090  219.2260 C   0  0  0  0  0  0  0  0  0  0  0  0
  142.7834   75.3189  217.1430 H   0  0  0  0  0  0  0  0  0  0  0  0
  143.9157   73.9642  216.8126 H   0  0  0  0  0  0  0  0  0  0  0  0
  142.1431   73.6735  216.8126 H   0  0  0  0  0  0  0  0  0  0  0  0
  143.6013   74.6967  219.2760 H   0  0  0  0  0  0  0  0  0  0  0  0
  140.8600   73.5230  218.5610 H   0  0  0  0  0  0  0  0  0  0  0  0
  139.4259   75.1148  221.0863 H   0  0  0  0  0  0  0  0  0  0  0  0
  139.2436   73.5698  220.2154 H   0  0  0  0  0  0  0  0  0  0  0  0
  139.5370   73.9010  223.1090 H   0  0  0  0  0  0  0  0  0  0  0  0
  139.1786   69.6421  222.7750 H   0  0  0  0  0  0  0  0  0  0  0  0
  139.0561   68.3549  224.8827 H   0  0  0  0  0  0  0  0  0  0  0  0
  139.4950   68.2149  227.1924 H   0  0  0  0  0  0  0  0  0  0  0  0
  140.4054   69.2284  229.3042 H   0  0  0  0  0  0  0  0  0  0  0  0
  141.4235   71.5182  229.2272 H   0  0  0  0  0  0  0  0  0  0  0  0
  141.5101   72.7446  227.0717 H   0  0  0  0  0  0  0  0  0  0  0  0
  145.6575   73.3765  218.9325 H   0  0  0  0  0  0  0  0  0  0  0  0
  146.6549   71.1544  219.3921 H   0  0  0  0  0  0  0  0  0  0  0  0
  147.1243   68.4965  218.9826 H   0  0  0  0  0  0  0  0  0  0  0  0
  146.5221   65.9951  218.6451 H   0  0  0  0  0  0  0  0  0  0  0  0
  146.2755   66.3781  220.3157 H   0  0  0  0  0  0  0  0  0  0  0  0
  144.1582   65.4157  218.9711 H   0  0  0  0  0  0  0  0  0  0  0  0
  143.8091   66.8510  219.9011 H   0  0  0  0  0  0  0  0  0  0  0  0
  144.1507   66.5095  216.9409 H   0  0  0  0  0  0  0  0  0  0  0  0
  143.2888   67.8050  217.8098 H   0  0  0  0  0  0  0  0  0  0  0  0
  146.0748   67.7386  216.7978 H   0  0  0  0  0  0  0  0  0  0  0  0
  145.1229   69.1399  217.2506 H   0  0  0  0  0  0  0  0  0  0  0  0
  142.7595   69.4150  219.6298 H   0  0  0  0  0  0  0  0  0  0  0  0
  141.7811   71.6043  219.1804 H   0  0  0  0  0  0  0  0  0  0  0  0
  1  2  1  0
  2  3  1  0
  3  4  1  0
  4  5  2  0
  4  6  1  0
  6  7  1  0
  7  8  1  0
  8  9  2  0
  8 10  1  0
 10 11  2  0
 11 12  1  0
 12 13  2  0
 13 14  1  0
 14 15  2  0
 15 16  1  0
 16 17  2  0
 17 18  1  0
 18 19  2  0
  2 20  1  0
 20 21  2  0
 21 22  1  0
 22 23  2  0
 23 24  1  0
 24 25  1  0
 25 26  1  0
 26 27  1  0
 27 28  1  0
 28 29  1  0
 23 30  1  0
 30 31  2  0
 19 10  1  0
 31 20  1  0
 18 13  1  0
 29 25  1  0
  1 32  1  0
  1 33  1  0
  1 34  1  0
  2 35  1  1
  3 36  1  0
  6 37  1  0
  6 38  1  0
  7 39  1  0
 11 40  1  0
 12 41  1  0
 14 42  1  0
 15 43  1  0
 16 44  1  0
 17 45  1  0
 21 46  1  0
 22 47  1  0
 25 48  1  0
 26 49  1  0
 26 50  1  0
 27 51  1  0
 27 52  1  0
 28 53  1  0
 28 54  1  0
 29 55  1  0
 29 56  1  0
 30 57  1  0
 31 58  1  0
M  END
>  <smiles>  (72) 
CC(NC(=O)CNC(=O)c1ccc2ccccc2n1)c1ccc(OC2CCCC2)cc1

>  <score_type>  (72) 
oracle

>  <origin>  (72) 
autodockgpu

>  <m_score__min__energy>  (72) 
-8.6899999999999995

>  <m_primary>  (72) 
energy

>  <rmsd>  (72) 
8.678818556223503

>  <m_score__min__rmsd>  (72) 
8.678818556223503

>  <meeko>  (72) 
{"free_energy": -8.09, "intermolecular_energy": -10.18, "internal_energy": -1.84, "cluster_size": 3, "cluster_id": 3, "rank_in_cluster": 3}

>  <energy>  (72) 
-8.22

>  <cluster_rmsd>  (72) 
0.79

>  <cluster>  (72) 
1

$$$$

     RDKit          3D

 58 61  0  0  0  0  0  0  0  0999 V2000
  143.4140   73.2300  220.7400 C   0  0  0  0  0  0  0  0  0  0  0  0
  142.1730   73.7930  220.0830 C   0  0  1  0  0  0  0  0  0  0  0  0
  141.0630   72.9570  220.5430 N   0  0  0  0  0  0  0  0  0  0  0  0
  140.8540   71.6670  219.9850 C   0  0  0  0  0  0  0  0  0  0  0  0
  141.6600   71.2930  219.0910 O   0  0  0  0  0  0  0  0  0  0  0  0
  139.7240   70.8270  220.4600 C   0  0  0  0  0  0  0  0  0  0  0  0
  140.0000   70.4550  221.8260 N   0  0  0  0  0  0  0  0  0  0  0  0
  139.9000   71.3820  222.8930 C   0  0  0  0  0  0  0  0  0  0  0  0
  139.5580   72.5620  222.6140 O   0  0  0  0  0  0  0  0  0  0  0  0
  140.1840   70.9880  224.2690 C   0  0  0  0  0  0  0  0  0  0  0  0
  140.7720   71.8990  225.1210 C   0  0  0  0  0  0  0  0  0  0  0  0
  141.0780   71.6190  226.4370 C   0  0  0  0  0  0  0  0  0  0  0  0
  140.7720   70.3540  226.9090 C   0  0  0  0  0  0  0  0  0  0  0  0
  141.0720   70.0670  228.2180 C   0  0  0  0  0  0  0  0  0  0  0  0
  140.7740   68.7950  228.7180 C   0  0  0  0  0  0  0  0  0  0  0  0
  140.1790   67.8520  227.8790 C   0  0  0  0  0  0  0  0  0  0  0  0
  139.8960   68.2010  226.5600 C   0  0  0  0  0  0  0  0  0  0  0  0
  140.1840   69.4460  226.0520 C   0  0  0  0  0  0  0  0  0  0  0  0
  139.8980   69.7640  224.7550 N   0  0  0  0  0  0  0  0  0  0  0  0
  141.8890   75.1730  220.5120 C   0  0  0  0  0  0  0  0  0  0  0  0
  142.4330   76.2420  219.8310 C   0  0  0  0  0  0  0  0  0  0  0  0
  142.1390   77.5280  220.2690 C   0  0  0  0  0  0  0  0  0  0  0  0
  141.3290   77.7810  221.3520 C   0  0  0  0  0  0  0  0  0  0  0  0
  141.0060   79.0220  221.8290 O   0  0  0  0  0  0  0  0  0  0  0  0
  140.6190   79.3190  223.1460 C   0  0  0  0  0  0  0  0  0  0  0  0
  141.8300   79.1310  224.0490 C   0  0  0  0  0  0  0  0  0  0  0  0
  142.7920   80.1400  223.4200 C   0  0  0  0  0  0  0  0  0  0  0  0
  141.8930   81.3290  223.1770 C   0  0  0  0  0  0  0  0  0  0  0  0
  140.4710   80.8380  223.2150 C   0  0  0  0  0  0  0  0  0  0  0  0
  140.8020   76.6820  222.0110 C   0  0  0  0  0  0  0  0  0  0  0  0
  141.0880   75.4180  221.5830 C   0  0  0  0  0  0  0  0  0  0  0  0
  143.3046   73.2796  221.8334 H   0  0  0  0  0  0  0  0  0  0  0  0
  143.5488   72.1826  220.4322 H   0  0  0  0  0  0  0  0  0  0  0  0
  144.2909   73.8184  220.4322 H   0  0  0  0  0  0  0  0  0  0  0  0
  142.3103   73.7996  218.9916 H   0  0  0  0  0  0  0  0  0  0  0  0
  140.4040   73.2780  221.2830 H   0  0  0  0  0  0  0  0  0  0  0  0
  138.7852   71.3980  220.4093 H   0  0  0  0  0  0  0  0  0  0  0  0
  139.6175   69.9315  219.8302 H   0  0  0  0  0  0  0  0  0  0  0  0
  140.2860   69.4760  222.0700 H   0  0  0  0  0  0  0  0  0  0  0  0
  141.0092   72.9001  224.7316 H   0  0  0  0  0  0  0  0  0  0  0  0
  141.5474   72.3725  227.0866 H   0  0  0  0  0  0  0  0  0  0  0  0
  141.5393   70.8255  228.8632 H   0  0  0  0  0  0  0  0  0  0  0  0
  141.0065   68.5405  229.7626 H   0  0  0  0  0  0  0  0  0  0  0  0
  139.9366   66.8466  228.2538 H   0  0  0  0  0  0  0  0  0  0  0  0
  139.4260   67.4549  225.9024 H   0  0  0  0  0  0  0  0  0  0  0  0
  143.0853   76.0803  218.9602 H   0  0  0  0  0  0  0  0  0  0  0  0
  142.5729   78.3806  219.7261 H   0  0  0  0  0  0  0  0  0  0  0  0
  139.7362   78.7215  223.4173 H   0  0  0  0  0  0  0  0  0  0  0  0
  141.6017   79.3826  225.0952 H   0  0  0  0  0  0  0  0  0  0  0  0
  142.2110   78.1005  224.1033 H   0  0  0  0  0  0  0  0  0  0  0  0
  143.6110   80.3934  224.1093 H   0  0  0  0  0  0  0  0  0  0  0  0
  143.2890   79.7692  222.5115 H   0  0  0  0  0  0  0  0  0  0  0  0
  142.0502   82.0847  223.9607 H   0  0  0  0  0  0  0  0  0  0  0  0
  142.1169   81.7908  222.2041 H   0  0  0  0  0  0  0  0  0  0  0  0
  139.9740   81.1431  224.1477 H   0  0  0  0  0  0  0  0  0  0  0  0
  139.8536   81.2467  222.4015 H   0  0  0  0  0  0  0  0  0  0  0  0
  140.1494   76.8291  222.8842 H   0  0  0  0  0  0  0  0  0  0  0  0
  140.6539   74.5650  222.1251 H   0  0  0  0  0  0  0  0  0  0  0  0
  1  2  1  0
  2  3  1  0
  3  4  1  0
  4  5  2  0
  4  6  1  0
  6  7  1  0
  7  8  1  0
  8  9  2  0
  8 10  1  0
 10 11  2  0
 11 12  1  0
 12 13  2  0
 13 14  1  0
 14 15  2  0
 15 16  1  0
 16 17  2  0
 17 18  1  0
 18 19  2  0
  2 20  1  0
 20 21  2  0
 21 22  1  0
 22 23  2  0
 23 24  1  0
 24 25  1  0
 25 26  1  0
 26 27  1  0
 27 28  1  0
 28 29  1  0
 23 30  1  0
 30 31  2  0
 19 10  1  0
 31 20  1  0
 18 13  1  0
 29 25  1  0
  1 32  1  0
  1 33  1  0
  1 34  1  0
  2 35  1  6
  3 36  1  0
  6 37  1  0
  6 38  1  0
  7 39  1  0
 11 40  1  0
 12 41  1  0
 14 42  1  0
 15 43  1  0
 16 44  1  0
 17 45  1  0
 21 46  1  0
 22 47  1  0
 25 48  1  0
 26 49  1  0
 26 50  1  0
 27 51  1  0
 27 52  1  0
 28 53  1  0
 28 54  1  0
 29 55  1  0
 29 56  1  0
 30 57  1  0
 31 58  1  0
M  END
>  <smiles>  (73) 
CC(NC(=O)CNC(=O)c1ccc2ccccc2n1)c1ccc(OC2CCCC2)cc1

>  <score_type>  (73) 
oracle

>  <origin>  (73) 
autodockgpu

>  <m_score__min__energy>  (73) 
-8.6899999999999995

>  <m_primary>  (73) 
energy

>  <rmsd>  (73) 
5.650838908904577

>  <m_score__min__rmsd>  (73) 
5.650838908904577

>  <meeko>  (73) 
{"free_energy": -8.46, "intermolecular_energy": -10.55, "internal_energy": -2.3, "cluster_size": 31, "cluster_id": 1, "rank_in_cluster": 10}

>  <energy>  (73) 
-8.22

>  <cluster_rmsd>  (73) 
1.15

>  <cluster>  (73) 
1

$$$$

     RDKit          3D

 58 61  0  0  0  0  0  0  0  0999 V2000
  143.2610   73.7480  220.6770 C   0  0  0  0  0  0  0  0  0  0  0  0
  142.1270   74.3470  219.8760 C   0  0  1  0  0  0  0  0  0  0  0  0
  140.9340   73.5820  220.2390 N   0  0  0  0  0  0  0  0  0  0  0  0
  140.8380   72.2010  219.9170 C   0  0  0  0  0  0  0  0  0  0  0  0
  141.8160   71.6850  219.3140 O   0  0  0  0  0  0  0  0  0  0  0  0
  139.6210   71.4340  220.2920 C   0  0  0  0  0  0  0  0  0  0  0  0
  139.8440   70.8720  221.6010 N   0  0  0  0  0  0  0  0  0  0  0  0
  139.9990   71.6850  222.7520 C   0  0  0  0  0  0  0  0  0  0  0  0
  139.9350   72.9340  222.6000 O   0  0  0  0  0  0  0  0  0  0  0  0
  140.2240   71.0990  224.0690 C   0  0  0  0  0  0  0  0  0  0  0  0
  140.7350   71.8890  225.0770 C   0  0  0  0  0  0  0  0  0  0  0  0
  140.9820   71.4260  226.3530 C   0  0  0  0  0  0  0  0  0  0  0  0
  140.6970   70.0970  226.6170 C   0  0  0  0  0  0  0  0  0  0  0  0
  140.9390   69.6280  227.8850 C   0  0  0  0  0  0  0  0  0  0  0  0
  140.6600   68.2880  228.1750 C   0  0  0  0  0  0  0  0  0  0  0  0
  140.1420   67.4650  227.1750 C   0  0  0  0  0  0  0  0  0  0  0  0
  139.9170   67.9970  225.9080 C   0  0  0  0  0  0  0  0  0  0  0  0
  140.1860   69.3100  225.6040 C   0  0  0  0  0  0  0  0  0  0  0  0
  139.9570   69.8090  224.3540 N   0  0  0  0  0  0  0  0  0  0  0  0
  141.8710   75.7530  220.2320 C   0  0  0  0  0  0  0  0  0  0  0  0
  141.1410   76.0660  221.3600 C   0  0  0  0  0  0  0  0  0  0  0  0
  140.9230   77.4060  221.6600 C   0  0  0  0  0  0  0  0  0  0  0  0
  141.4050   78.4330  220.8820 C   0  0  0  0  0  0  0  0  0  0  0  0
  141.2230   79.7670  221.1270 O   0  0  0  0  0  0  0  0  0  0  0  0
  142.1910   80.6450  221.6420 C   0  0  0  0  0  0  0  0  0  0  0  0
  141.4810   81.6760  222.5080 C   0  0  0  0  0  0  0  0  0  0  0  0
  140.8330   80.7570  223.5440 C   0  0  0  0  0  0  0  0  0  0  0  0
  141.9480   79.7830  223.8470 C   0  0  0  0  0  0  0  0  0  0  0  0
  142.9410   79.8660  222.7200 C   0  0  0  0  0  0  0  0  0  0  0  0
  142.1330   78.0790  219.7580 C   0  0  0  0  0  0  0  0  0  0  0  0
  142.3490   76.7650  219.4600 C   0  0  0  0  0  0  0  0  0  0  0  0
  143.0502   73.8593  221.7509 H   0  0  0  0  0  0  0  0  0  0  0  0
  143.3594   72.6803  220.4314 H   0  0  0  0  0  0  0  0  0  0  0  0
  144.1984   74.2686  220.4314 H   0  0  0  0  0  0  0  0  0  0  0  0
  142.3782   74.3096  218.8057 H   0  0  0  0  0  0  0  0  0  0  0  0
  140.1310   74.0200  220.7390 H   0  0  0  0  0  0  0  0  0  0  0  0
  138.7485   72.1034  220.3152 H   0  0  0  0  0  0  0  0  0  0  0  0
  139.4258   70.6377  219.5586 H   0  0  0  0  0  0  0  0  0  0  0  0
  139.9000   69.8340  221.7390 H   0  0  0  0  0  0  0  0  0  0  0  0
  140.9572   72.9426  224.8522 H   0  0  0  0  0  0  0  0  0  0  0  0
  141.3899   72.0877  227.1313 H   0  0  0  0  0  0  0  0  0  0  0  0
  141.3454   70.2948  228.6597 H   0  0  0  0  0  0  0  0  0  0  0  0
  140.8474   67.8873  229.1821 H   0  0  0  0  0  0  0  0  0  0  0  0
  139.9142   66.4094  227.3846 H   0  0  0  0  0  0  0  0  0  0  0  0
  139.5096   67.3433  225.1227 H   0  0  0  0  0  0  0  0  0  0  0  0
  140.7401   75.2726  222.0080 H   0  0  0  0  0  0  0  0  0  0  0  0
  140.3397   77.6558  222.5586 H   0  0  0  0  0  0  0  0  0  0  0  0
  142.7925   81.0596  220.8196 H   0  0  0  0  0  0  0  0  0  0  0  0
  142.1907   82.3768  222.9719 H   0  0  0  0  0  0  0  0  0  0  0  0
  140.7803   82.3294  221.9676 H   0  0  0  0  0  0  0  0  0  0  0  0
  140.5364   81.3164  224.4435 H   0  0  0  0  0  0  0  0  0  0  0  0
  139.9091   80.2754  223.1912 H   0  0  0  0  0  0  0  0  0  0  0  0
  142.4341   80.0524  224.7963 H   0  0  0  0  0  0  0  0  0  0  0  0
  141.5537   78.7604  223.9409 H   0  0  0  0  0  0  0  0  0  0  0  0
  143.8483   80.4029  223.0339 H   0  0  0  0  0  0  0  0  0  0  0  0
  143.2828   78.8786  222.3761 H   0  0  0  0  0  0  0  0  0  0  0  0
  142.5396   78.8622  219.1013 H   0  0  0  0  0  0  0  0  0  0  0  0
  142.9319   76.5151  218.5612 H   0  0  0  0  0  0  0  0  0  0  0  0
  1  2  1  0
  2  3  1  0
  3  4  1  0
  4  5  2  0
  4  6  1  0
  6  7  1  0
  7  8  1  0
  8  9  2  0
  8 10  1  0
 10 11  2  0
 11 12  1  0
 12 13  2  0
 13 14  1  0
 14 15  2  0
 15 16  1  0
 16 17  2  0
 17 18  1  0
 18 19  2  0
  2 20  1  0
 20 21  2  0
 21 22  1  0
 22 23  2  0
 23 24  1  0
 24 25  1  0
 25 26  1  0
 26 27  1  0
 27 28  1  0
 28 29  1  0
 23 30  1  0
 30 31  2  0
 19 10  1  0
 31 20  1  0
 18 13  1  0
 29 25  1  0
  1 32  1  0
  1 33  1  0
  1 34  1  0
  2 35  1  6
  3 36  1  0
  6 37  1  0
  6 38  1  0
  7 39  1  0
 11 40  1  0
 12 41  1  0
 14 42  1  0
 15 43  1  0
 16 44  1  0
 17 45  1  0
 21 46  1  0
 22 47  1  0
 25 48  1  0
 26 49  1  0
 26 50  1  0
 27 51  1  0
 27 52  1  0
 28 53  1  0
 28 54  1  0
 29 55  1  0
 29 56  1  0
 30 57  1  0
 31 58  1  0
M  END
>  <smiles>  (74) 
CC(NC(=O)CNC(=O)c1ccc2ccccc2n1)c1ccc(OC2CCCC2)cc1

>  <score_type>  (74) 
oracle

>  <origin>  (74) 
autodockgpu

>  <m_score__min__energy>  (74) 
-8.6899999999999995

>  <m_primary>  (74) 
energy

>  <rmsd>  (74) 
4.983211987276957

>  <m_score__min__rmsd>  (74) 
4.983211987276957

>  <meeko>  (74) 
{"free_energy": -8.5, "intermolecular_energy": -10.59, "internal_energy": -2.28, "cluster_size": 31, "cluster_id": 1, "rank_in_cluster": 8}

>  <energy>  (74) 
-8.2

>  <cluster_rmsd>  (74) 
1.24

>  <cluster>  (74) 
1

$$$$

     RDKit          3D

 58 61  0  0  0  0  0  0  0  0999 V2000
  143.2250   74.6820  218.5520 C   0  0  0  0  0  0  0  0  0  0  0  0
  143.2320   73.9270  219.8630 C   0  0  1  0  0  0  0  0  0  0  0  0
  141.8270   73.6920  220.1970 N   0  0  0  0  0  0  0  0  0  0  0  0
  141.0440   74.7250  220.7800 C   0  0  0  0  0  0  0  0  0  0  0  0
  141.6150   75.8280  220.9890 O   0  0  0  0  0  0  0  0  0  0  0  0
  139.6170   74.4750  221.1150 C   0  0  0  0  0  0  0  0  0  0  0  0
  139.5830   73.6760  222.3160 N   0  0  0  0  0  0  0  0  0  0  0  0
  139.9290   72.3020  222.3150 C   0  0  0  0  0  0  0  0  0  0  0  0
  140.2740   71.7850  221.2200 O   0  0  0  0  0  0  0  0  0  0  0  0
  139.8880   71.5100  223.5400 C   0  0  0  0  0  0  0  0  0  0  0  0
  139.2110   70.3090  223.5400 C   0  0  0  0  0  0  0  0  0  0  0  0
  139.1170   69.4910  224.6480 C   0  0  0  0  0  0  0  0  0  0  0  0
  139.7400   69.9140  225.8090 C   0  0  0  0  0  0  0  0  0  0  0  0
  139.6520   69.1050  226.9160 C   0  0  0  0  0  0  0  0  0  0  0  0
  140.2730   69.5120  228.1010 C   0  0  0  0  0  0  0  0  0  0  0  0
  140.9650   70.7230  228.1310 C   0  0  0  0  0  0  0  0  0  0  0  0
  141.0210   71.5000  226.9770 C   0  0  0  0  0  0  0  0  0  0  0  0
  140.4160   71.1170  225.8040 C   0  0  0  0  0  0  0  0  0  0  0  0
  140.4850   71.8970  224.6850 N   0  0  0  0  0  0  0  0  0  0  0  0
  143.8810   72.6090  219.7460 C   0  0  0  0  0  0  0  0  0  0  0  0
  143.2100   71.4650  220.1260 C   0  0  0  0  0  0  0  0  0  0  0  0
  143.8590   70.2420  219.9990 C   0  0  0  0  0  0  0  0  0  0  0  0
  145.1400   70.1230  219.5110 C   0  0  0  0  0  0  0  0  0  0  0  0
  145.8270   68.9500  219.3640 O   0  0  0  0  0  0  0  0  0  0  0  0
  145.2740   67.6610  219.4400 C   0  0  0  0  0  0  0  0  0  0  0  0
  144.2190   67.5330  218.3490 C   0  0  0  0  0  0  0  0  0  0  0  0
  145.0810   67.7890  217.1120 C   0  0  0  0  0  0  0  0  0  0  0  0
  146.3200   66.9790  217.4140 C   0  0  0  0  0  0  0  0  0  0  0  0
  146.3360   66.7080  218.8940 C   0  0  0  0  0  0  0  0  0  0  0  0
  145.7800   71.2950  219.1400 C   0  0  0  0  0  0  0  0  0  0  0  0
  145.1460   72.4970  219.2630 C   0  0  0  0  0  0  0  0  0  0  0  0
  143.2150   75.7636  218.7518 H   0  0  0  0  0  0  0  0  0  0  0  0
  144.1256   74.4240  217.9755 H   0  0  0  0  0  0  0  0  0  0  0  0
  142.3294   74.4073  217.9755 H   0  0  0  0  0  0  0  0  0  0  0  0
  143.7823   74.5102  220.6160 H   0  0  0  0  0  0  0  0  0  0  0  0
  141.3650   72.7750  220.0180 H   0  0  0  0  0  0  0  0  0  0  0  0
  139.0991   75.4303  221.2856 H   0  0  0  0  0  0  0  0  0  0  0  0
  139.1128   73.9517  220.2892 H   0  0  0  0  0  0  0  0  0  0  0  0
  139.2970   74.0960  223.2340 H   0  0  0  0  0  0  0  0  0  0  0  0
  138.7208   69.9861  222.6097 H   0  0  0  0  0  0  0  0  0  0  0  0
  138.5676   68.5388  224.6095 H   0  0  0  0  0  0  0  0  0  0  0  0
  139.1023   68.1532  226.8709 H   0  0  0  0  0  0  0  0  0  0  0  0
  140.2164   68.8829  229.0015 H   0  0  0  0  0  0  0  0  0  0  0  0
  141.4598   71.0595  229.0540 H   0  0  0  0  0  0  0  0  0  0  0  0
  141.5685   72.4536  227.0052 H   0  0  0  0  0  0  0  0  0  0  0  0
  142.1846   71.5192  220.5206 H   0  0  0  0  0  0  0  0  0  0  0  0
  143.3249   69.3294  220.3020 H   0  0  0  0  0  0  0  0  0  0  0  0
  144.9150   67.4708  220.4622 H   0  0  0  0  0  0  0  0  0  0  0  0
  143.7693   66.5293  218.3322 H   0  0  0  0  0  0  0  0  0  0  0  0
  143.3560   68.2061  218.4588 H   0  0  0  0  0  0  0  0  0  0  0  0
  144.5836   67.4316  216.1983 H   0  0  0  0  0  0  0  0  0  0  0  0
  145.2837   68.8543  216.9275 H   0  0  0  0  0  0  0  0  0  0  0  0
  146.2922   66.0297  216.8590 H   0  0  0  0  0  0  0  0  0  0  0  0
  147.2240   67.5280  217.1117 H   0  0  0  0  0  0  0  0  0  0  0  0
  146.0717   65.6614  219.1054 H   0  0  0  0  0  0  0  0  0  0  0  0
  147.3259   66.8625  219.3482 H   0  0  0  0  0  0  0  0  0  0  0  0
  146.8055   71.2560  218.7439 H   0  0  0  0  0  0  0  0  0  0  0  0
  145.6793   73.4100  218.9596 H   0  0  0  0  0  0  0  0  0  0  0  0
  1  2  1  0
  2  3  1  0
  3  4  1  0
  4  5  2  0
  4  6  1  0
  6  7  1  0
  7  8  1  0
  8  9  2  0
  8 10  1  0
 10 11  2  0
 11 12  1  0
 12 13  2  0
 13 14  1  0
 14 15  2  0
 15 16  1  0
 16 17  2  0
 17 18  1  0
 18 19  2  0
  2 20  1  0
 20 21  2  0
 21 22  1  0
 22 23  2  0
 23 24  1  0
 24 25  1  0
 25 26  1  0
 26 27  1  0
 27 28  1  0
 28 29  1  0
 23 30  1  0
 30 31  2  0
 19 10  1  0
 31 20  1  0
 18 13  1  0
 29 25  1  0
  1 32  1  0
  1 33  1  0
  1 34  1  0
  2 35  1  1
  3 36  1  0
  6 37  1  0
  6 38  1  0
  7 39  1  0
 11 40  1  0
 12 41  1  0
 14 42  1  0
 15 43  1  0
 16 44  1  0
 17 45  1  0
 21 46  1  0
 22 47  1  0
 25 48  1  0
 26 49  1  0
 26 50  1  0
 27 51  1  0
 27 52  1  0
 28 53  1  0
 28 54  1  0
 29 55  1  0
 29 56  1  0
 30 57  1  0
 31 58  1  0
M  END
>  <smiles>  (75) 
CC(NC(=O)CNC(=O)c1ccc2ccccc2n1)c1ccc(OC2CCCC2)cc1

>  <score_type>  (75) 
oracle

>  <origin>  (75) 
autodockgpu

>  <m_score__min__energy>  (75) 
-8.6899999999999995

>  <m_primary>  (75) 
energy

>  <rmsd>  (75) 
8.465347723390906

>  <m_score__min__rmsd>  (75) 
8.465347723390906

>  <meeko>  (75) 
{"free_energy": -8.26, "intermolecular_energy": -10.35, "internal_energy": -2.22, "cluster_size": 3, "cluster_id": 3, "rank_in_cluster": 1}

>  <energy>  (75) 
-8.19

>  <cluster_rmsd>  (75) 
0.61

>  <cluster>  (75) 
1

$$$$

     RDKit          3D

 58 61  0  0  0  0  0  0  0  0999 V2000
  137.9540   76.5420  222.8230 C   0  0  0  0  0  0  0  0  0  0  0  0
  137.0030   75.4370  222.4210 C   0  0  1  0  0  0  0  0  0  0  0  0
  137.8420   74.2790  222.1150 N   0  0  0  0  0  0  0  0  0  0  0  0
  137.5550   73.4590  220.9900 C   0  0  0  0  0  0  0  0  0  0  0  0
  136.5590   73.7790  220.2880 O   0  0  0  0  0  0  0  0  0  0  0  0
  138.4160   72.2850  220.6880 C   0  0  0  0  0  0  0  0  0  0  0  0
  138.6690   71.5980  221.9310 N   0  0  0  0  0  0  0  0  0  0  0  0
  139.7260   71.9750  222.7960 C   0  0  0  0  0  0  0  0  0  0  0  0
  140.4520   72.9430  222.4480 O   0  0  0  0  0  0  0  0  0  0  0  0
  139.9680   71.2680  224.0490 C   0  0  0  0  0  0  0  0  0  0  0  0
  140.6940   71.8900  225.0420 C   0  0  0  0  0  0  0  0  0  0  0  0
  140.9750   71.3030  226.2590 C   0  0  0  0  0  0  0  0  0  0  0  0
  140.4950   70.0230  226.4770 C   0  0  0  0  0  0  0  0  0  0  0  0
  140.7680   69.4310  227.6850 C   0  0  0  0  0  0  0  0  0  0  0  0
  140.2940   68.1380  227.9280 C   0  0  0  0  0  0  0  0  0  0  0  0
  139.5560   67.4830  226.9420 C   0  0  0  0  0  0  0  0  0  0  0  0
  139.3090   68.1340  225.7360 C   0  0  0  0  0  0  0  0  0  0  0  0
  139.7680   69.4040  225.4790 C   0  0  0  0  0  0  0  0  0  0  0  0
  139.5130   70.0210  224.2890 N   0  0  0  0  0  0  0  0  0  0  0  0
  136.1020   75.0470  223.5200 C   0  0  0  0  0  0  0  0  0  0  0  0
  135.5200   76.0080  224.3210 C   0  0  0  0  0  0  0  0  0  0  0  0
  134.6770   75.5960  225.3460 C   0  0  0  0  0  0  0  0  0  0  0  0
  134.3960   74.2730  225.5960 C   0  0  0  0  0  0  0  0  0  0  0  0
  133.5760   73.8090  226.5880 O   0  0  0  0  0  0  0  0  0  0  0  0
  132.2080   74.1020  226.7240 C   0  0  0  0  0  0  0  0  0  0  0  0
  131.4790   73.5250  225.5200 C   0  0  0  0  0  0  0  0  0  0  0  0
  131.8360   72.0460  225.6720 C   0  0  0  0  0  0  0  0  0  0  0  0
  131.6590   71.8270  227.1560 C   0  0  0  0  0  0  0  0  0  0  0  0
  131.6820   73.1770  227.8200 C   0  0  0  0  0  0  0  0  0  0  0  0
  134.9990   73.3370  224.7700 C   0  0  0  0  0  0  0  0  0  0  0  0
  135.8270   73.7370  223.7630 C   0  0  0  0  0  0  0  0  0  0  0  0
  138.0047   76.6010  223.9202 H   0  0  0  0  0  0  0  0  0  0  0  0
  138.9552   76.3285  222.4206 H   0  0  0  0  0  0  0  0  0  0  0  0
  137.5937   77.5003  222.4206 H   0  0  0  0  0  0  0  0  0  0  0  0
  136.3828   75.7788  221.5793 H   0  0  0  0  0  0  0  0  0  0  0  0
  138.6640   74.0240  222.7030 H   0  0  0  0  0  0  0  0  0  0  0  0
  137.9008   71.6128  219.9861 H   0  0  0  0  0  0  0  0  0  0  0  0
  139.3606   72.6076  220.2258 H   0  0  0  0  0  0  0  0  0  0  0  0
  138.0710   70.7900  222.2310 H   0  0  0  0  0  0  0  0  0  0  0  0
  141.0688   72.9071  224.8547 H   0  0  0  0  0  0  0  0  0  0  0  0
  141.5584   71.8323  227.0268 H   0  0  0  0  0  0  0  0  0  0  0  0
  141.3505   69.9653  228.4499 H   0  0  0  0  0  0  0  0  0  0  0  0
  140.5012   67.6420  228.8877 H   0  0  0  0  0  0  0  0  0  0  0  0
  139.1743   66.4659  227.1148 H   0  0  0  0  0  0  0  0  0  0  0  0
  138.7261   67.6136  224.9618 H   0  0  0  0  0  0  0  0  0  0  0  0
  135.7189   77.0766  224.1519 H   0  0  0  0  0  0  0  0  0  0  0  0
  134.2140   76.3618  225.9857 H   0  0  0  0  0  0  0  0  0  0  0  0
  132.0724   75.1826  226.8786 H   0  0  0  0  0  0  0  0  0  0  0  0
  130.3934   73.6908  225.5829 H   0  0  0  0  0  0  0  0  0  0  0  0
  131.7584   73.9706  224.5539 H   0  0  0  0  0  0  0  0  0  0  0  0
  131.1534   71.4090  225.0904 H   0  0  0  0  0  0  0  0  0  0  0  0
  132.8419   71.7942  225.3050 H   0  0  0  0  0  0  0  0  0  0  0  0
  130.6971   71.3298  227.3499 H   0  0  0  0  0  0  0  0  0  0  0  0
  132.4624   71.1879  227.5512 H   0  0  0  0  0  0  0  0  0  0  0  0
  130.6723   73.4769  228.1371 H   0  0  0  0  0  0  0  0  0  0  0  0
  132.2982   73.1969  228.7310 H   0  0  0  0  0  0  0  0  0  0  0  0
  134.8084   72.2652  224.9279 H   0  0  0  0  0  0  0  0  0  0  0  0
  136.2900   72.9715  223.1230 H   0  0  0  0  0  0  0  0  0  0  0  0
  1  2  1  0
  2  3  1  0
  3  4  1  0
  4  5  2  0
  4  6  1  0
  6  7  1  0
  7  8  1  0
  8  9  2  0
  8 10  1  0
 10 11  2  0
 11 12  1  0
 12 13  2  0
 13 14  1  0
 14 15  2  0
 15 16  1  0
 16 17  2  0
 17 18  1  0
 18 19  2  0
  2 20  1  0
 20 21  2  0
 21 22  1  0
 22 23  2  0
 23 24  1  0
 24 25  1  0
 25 26  1  0
 26 27  1  0
 27 28  1  0
 28 29  1  0
 23 30  1  0
 30 31  2  0
 19 10  1  0
 31 20  1  0
 18 13  1  0
 29 25  1  0
  1 32  1  0
  1 33  1  0
  1 34  1  0
  2 35  1  6
  3 36  1  0
  6 37  1  0
  6 38  1  0
  7 39  1  0
 11 40  1  0
 12 41  1  0
 14 42  1  0
 15 43  1  0
 16 44  1  0
 17 45  1  0
 21 46  1  0
 22 47  1  0
 25 48  1  0
 26 49  1  0
 26 50  1  0
 27 51  1  0
 27 52  1  0
 28 53  1  0
 28 54  1  0
 29 55  1  0
 29 56  1  0
 30 57  1  0
 31 58  1  0
M  END
>  <smiles>  (76) 
CC(NC(=O)CNC(=O)c1ccc2ccccc2n1)c1ccc(OC2CCCC2)cc1

>  <score_type>  (76) 
oracle

>  <origin>  (76) 
autodockgpu

>  <m_score__min__energy>  (76) 
-8.6899999999999995

>  <m_primary>  (76) 
energy

>  <rmsd>  (76) 
7.030254844244394

>  <m_score__min__rmsd>  (76) 
7.030254844244394

>  <meeko>  (76) 
{"free_energy": -8.35, "intermolecular_energy": -10.44, "internal_energy": -2.49, "cluster_size": 15, "cluster_id": 2, "rank_in_cluster": 14}

>  <energy>  (76) 
-8.16

>  <cluster_rmsd>  (76) 
1.58

>  <cluster>  (76) 
1

$$$$

     RDKit          3D

 58 61  0  0  0  0  0  0  0  0999 V2000
  142.5560   73.0180  220.1090 C   0  0  0  0  0  0  0  0  0  0  0  0
  141.3090   73.8300  219.8400 C   0  0  1  0  0  0  0  0  0  0  0  0
  140.2080   73.0870  220.4520 N   0  0  0  0  0  0  0  0  0  0  0  0
  138.8690   73.5440  220.3200 C   0  0  0  0  0  0  0  0  0  0  0  0
  138.6880   74.6030  219.6600 O   0  0  0  0  0  0  0  0  0  0  0  0
  137.7580   72.7810  220.9460 C   0  0  0  0  0  0  0  0  0  0  0  0
  138.2100   72.3330  222.2400 N   0  0  0  0  0  0  0  0  0  0  0  0
  138.9370   71.1290  222.4080 C   0  0  0  0  0  0  0  0  0  0  0  0
  139.1850   70.4450  221.3790 O   0  0  0  0  0  0  0  0  0  0  0  0
  139.3860   70.6910  223.7250 C   0  0  0  0  0  0  0  0  0  0  0  0
  139.1960   69.3770  224.0980 C   0  0  0  0  0  0  0  0  0  0  0  0
  139.5860   68.8710  225.3200 C   0  0  0  0  0  0  0  0  0  0  0  0
  140.1980   69.7410  226.2060 C   0  0  0  0  0  0  0  0  0  0  0  0
  140.5900   69.2450  227.4260 C   0  0  0  0  0  0  0  0  0  0  0  0
  141.2090   70.1060  228.3390 C   0  0  0  0  0  0  0  0  0  0  0  0
  141.4150   71.4410  227.9900 C   0  0  0  0  0  0  0  0  0  0  0  0
  140.9960   71.8860  226.7380 C   0  0  0  0  0  0  0  0  0  0  0  0
  140.3850   71.0560  225.8300 C   0  0  0  0  0  0  0  0  0  0  0  0
  139.9840   71.5160  224.6080 N   0  0  0  0  0  0  0  0  0  0  0  0
  141.3540   75.1550  220.4830 C   0  0  0  0  0  0  0  0  0  0  0  0
  140.9380   75.3120  221.7890 C   0  0  0  0  0  0  0  0  0  0  0  0
  140.9990   76.5790  222.3580 C   0  0  0  0  0  0  0  0  0  0  0  0
  141.4550   77.6830  221.6750 C   0  0  0  0  0  0  0  0  0  0  0  0
  141.5370   78.9510  222.1810 O   0  0  0  0  0  0  0  0  0  0  0  0
  141.5210   79.2920  223.5440 C   0  0  0  0  0  0  0  0  0  0  0  0
  142.3450   80.5580  223.7250 C   0  0  0  0  0  0  0  0  0  0  0  0
  141.5710   81.5140  222.8160 C   0  0  0  0  0  0  0  0  0  0  0  0
  140.1360   81.1890  223.1600 C   0  0  0  0  0  0  0  0  0  0  0  0
  140.1250   79.8420  223.8290 C   0  0  0  0  0  0  0  0  0  0  0  0
  141.8640   77.4850  220.3660 C   0  0  0  0  0  0  0  0  0  0  0  0
  141.8070   76.2430  219.8050 C   0  0  0  0  0  0  0  0  0  0  0  0
  142.7038   72.9218  221.1948 H   0  0  0  0  0  0  0  0  0  0  0  0
  142.4456   72.0181  219.6639 H   0  0  0  0  0  0  0  0  0  0  0  0
  143.4258   73.5234  219.6639 H   0  0  0  0  0  0  0  0  0  0  0  0
  141.2016   73.9830  218.7560 H   0  0  0  0  0  0  0  0  0  0  0  0
  140.3690   72.2120  220.9950 H   0  0  0  0  0  0  0  0  0  0  0  0
  136.8763   73.4287  221.0605 H   0  0  0  0  0  0  0  0  0  0  0  0
  137.4768   71.9233  220.3173 H   0  0  0  0  0  0  0  0  0  0  0  0
  138.0090   72.8940  223.1040 H   0  0  0  0  0  0  0  0  0  0  0  0
  138.7081   68.6974  223.3838 H   0  0  0  0  0  0  0  0  0  0  0  0
  139.4172   67.8158  225.5810 H   0  0  0  0  0  0  0  0  0  0  0  0
  140.4200   68.1885  227.6807 H   0  0  0  0  0  0  0  0  0  0  0  0
  141.5303   69.7336  229.3229 H   0  0  0  0  0  0  0  0  0  0  0  0
  141.9015   72.1326  228.6936 H   0  0  0  0  0  0  0  0  0  0  0  0
  141.1603   72.9394  226.4671 H   0  0  0  0  0  0  0  0  0  0  0  0
  140.5662   74.4534  222.3675 H   0  0  0  0  0  0  0  0  0  0  0  0
  140.6683   76.7044  223.3996 H   0  0  0  0  0  0  0  0  0  0  0  0
  141.8481   78.4315  224.1461 H   0  0  0  0  0  0  0  0  0  0  0  0
  142.3441   80.8992  224.7708 H   0  0  0  0  0  0  0  0  0  0  0  0
  143.4130   80.4531  223.4832 H   0  0  0  0  0  0  0  0  0  0  0  0
  141.8086   82.5632  223.0459 H   0  0  0  0  0  0  0  0  0  0  0  0
  141.8068   81.3963  221.7480 H   0  0  0  0  0  0  0  0  0  0  0  0
  139.7318   81.9507  223.8429 H   0  0  0  0  0  0  0  0  0  0  0  0
  139.5137   81.1760  222.2530 H   0  0  0  0  0  0  0  0  0  0  0  0
  139.9549   79.9417  224.9112 H   0  0  0  0  0  0  0  0  0  0  0  0
  139.3223   79.1866  223.4601 H   0  0  0  0  0  0  0  0  0  0  0  0
  142.2370   78.3348  219.7755 H   0  0  0  0  0  0  0  0  0  0  0  0
  142.1403   76.1168  218.7643 H   0  0  0  0  0  0  0  0  0  0  0  0
  1  2  1  0
  2  3  1  0
  3  4  1  0
  4  5  2  0
  4  6  1  0
  6  7  1  0
  7  8  1  0
  8  9  2  0
  8 10  1  0
 10 11  2  0
 11 12  1  0
 12 13  2  0
 13 14  1  0
 14 15  2  0
 15 16  1  0
 16 17  2  0
 17 18  1  0
 18 19  2  0
  2 20  1  0
 20 21  2  0
 21 22  1  0
 22 23  2  0
 23 24  1  0
 24 25  1  0
 25 26  1  0
 26 27  1  0
 27 28  1  0
 28 29  1  0
 23 30  1  0
 30 31  2  0
 19 10  1  0
 31 20  1  0
 18 13  1  0
 29 25  1  0
  1 32  1  0
  1 33  1  0
  1 34  1  0
  2 35  1  6
  3 36  1  0
  6 37  1  0
  6 38  1  0
  7 39  1  0
 11 40  1  0
 12 41  1  0
 14 42  1  0
 15 43  1  0
 16 44  1  0
 17 45  1  0
 21 46  1  0
 22 47  1  0
 25 48  1  0
 26 49  1  0
 26 50  1  0
 27 51  1  0
 27 52  1  0
 28 53  1  0
 28 54  1  0
 29 55  1  0
 29 56  1  0
 30 57  1  0
 31 58  1  0
M  END
>  <smiles>  (77) 
CC(NC(=O)CNC(=O)c1ccc2ccccc2n1)c1ccc(OC2CCCC2)cc1

>  <score_type>  (77) 
oracle

>  <origin>  (77) 
autodockgpu

>  <m_score__min__energy>  (77) 
-8.6899999999999995

>  <m_primary>  (77) 
energy

>  <rmsd>  (77) 
5.668782613286811

>  <m_score__min__rmsd>  (77) 
5.668782613286811

>  <meeko>  (77) 
{"free_energy": -8.16, "intermolecular_energy": -10.25, "internal_energy": -2.22, "cluster_size": 31, "cluster_id": 1, "rank_in_cluster": 27}

>  <energy>  (77) 
-8.16

>  <cluster_rmsd>  (77) 
0.78

>  <cluster>  (77) 
1

$$$$

     RDKit          3D

 58 61  0  0  0  0  0  0  0  0999 V2000
  142.7850   73.0180  220.4740 C   0  0  0  0  0  0  0  0  0  0  0  0
  141.5830   73.7840  219.9680 C   0  0  1  0  0  0  0  0  0  0  0  0
  140.4160   73.1460  220.5780 N   0  0  0  0  0  0  0  0  0  0  0  0
  139.1040   73.5800  220.2480 C   0  0  0  0  0  0  0  0  0  0  0  0
  139.0040   74.5250  219.4200 O   0  0  0  0  0  0  0  0  0  0  0  0
  137.9260   72.9240  220.8740 C   0  0  0  0  0  0  0  0  0  0  0  0
  138.3280   72.4530  222.1770 N   0  0  0  0  0  0  0  0  0  0  0  0
  139.0250   71.2320  222.3530 C   0  0  0  0  0  0  0  0  0  0  0  0
  139.2900   70.5550  221.3240 O   0  0  0  0  0  0  0  0  0  0  0  0
  139.4240   70.7710  223.6780 C   0  0  0  0  0  0  0  0  0  0  0  0
  139.1900   69.4590  224.0320 C   0  0  0  0  0  0  0  0  0  0  0  0
  139.5310   68.9320  225.2600 C   0  0  0  0  0  0  0  0  0  0  0  0
  140.1380   69.7770  226.1720 C   0  0  0  0  0  0  0  0  0  0  0  0
  140.4820   69.2600  227.3970 C   0  0  0  0  0  0  0  0  0  0  0  0
  141.0970   70.0960  228.3360 C   0  0  0  0  0  0  0  0  0  0  0  0
  141.3460   71.4280  228.0070 C   0  0  0  0  0  0  0  0  0  0  0  0
  140.9760   71.8960  226.7480 C   0  0  0  0  0  0  0  0  0  0  0  0
  140.3710   71.0900  225.8140 C   0  0  0  0  0  0  0  0  0  0  0  0
  140.0170   71.5720  224.5860 N   0  0  0  0  0  0  0  0  0  0  0  0
  141.5910   75.1910  220.4040 C   0  0  0  0  0  0  0  0  0  0  0  0
  141.0030   75.5560  221.5980 C   0  0  0  0  0  0  0  0  0  0  0  0
  141.0340   76.8940  221.9720 C   0  0  0  0  0  0  0  0  0  0  0  0
  141.6260   77.8700  221.2040 C   0  0  0  0  0  0  0  0  0  0  0  0
  141.6870   79.2000  221.5210 O   0  0  0  0  0  0  0  0  0  0  0  0
  142.3860   79.7530  222.6070 C   0  0  0  0  0  0  0  0  0  0  0  0
  142.1390   81.2540  222.6140 C   0  0  0  0  0  0  0  0  0  0  0  0
  140.6160   81.2750  222.7550 C   0  0  0  0  0  0  0  0  0  0  0  0
  140.3780   80.2100  223.8000 C   0  0  0  0  0  0  0  0  0  0  0  0
  141.6120   79.3510  223.8610 C   0  0  0  0  0  0  0  0  0  0  0  0
  142.2060   77.4650  220.0130 C   0  0  0  0  0  0  0  0  0  0  0  0
  142.1780   76.1530  219.6430 C   0  0  0  0  0  0  0  0  0  0  0  0
  142.7838   73.0188  221.5740 H   0  0  0  0  0  0  0  0  0  0  0  0
  142.7400   71.9816  220.1080 H   0  0  0  0  0  0  0  0  0  0  0  0
  143.7054   73.4965  220.1080 H   0  0  0  0  0  0  0  0  0  0  0  0
  141.5803   73.7707  218.8681 H   0  0  0  0  0  0  0  0  0  0  0  0
  140.5110   72.3650  221.2610 H   0  0  0  0  0  0  0  0  0  0  0  0
  137.1035   73.6475  220.9743 H   0  0  0  0  0  0  0  0  0  0  0  0
  137.5755   72.0867  220.2526 H   0  0  0  0  0  0  0  0  0  0  0  0
  138.1130   73.0090  223.0400 H   0  0  0  0  0  0  0  0  0  0  0  0
  138.7064   68.7987  223.2971 H   0  0  0  0  0  0  0  0  0  0  0  0
  139.3280   67.8791  225.5052 H   0  0  0  0  0  0  0  0  0  0  0  0
  140.2775   68.2060  227.6363 H   0  0  0  0  0  0  0  0  0  0  0  0
  141.3813   69.7059  229.3244 H   0  0  0  0  0  0  0  0  0  0  0  0
  141.8282   72.1003  228.7319 H   0  0  0  0  0  0  0  0  0  0  0  0
  141.1751   72.9473  226.4928 H   0  0  0  0  0  0  0  0  0  0  0  0
  140.5203   74.8042  222.2397 H   0  0  0  0  0  0  0  0  0  0  0  0
  140.5649   77.1854  222.9233 H   0  0  0  0  0  0  0  0  0  0  0  0
  143.4435   79.4539  222.5593 H   0  0  0  0  0  0  0  0  0  0  0  0
  142.6341   81.7447  223.4649 H   0  0  0  0  0  0  0  0  0  0  0  0
  142.5294   81.7907  221.7368 H   0  0  0  0  0  0  0  0  0  0  0  0
  140.2607   82.2577  223.0988 H   0  0  0  0  0  0  0  0  0  0  0  0
  140.0824   81.0940  221.8103 H   0  0  0  0  0  0  0  0  0  0  0  0
  140.1978   80.6782  224.7789 H   0  0  0  0  0  0  0  0  0  0  0  0
  139.4971   79.6041  223.5415 H   0  0  0  0  0  0  0  0  0  0  0  0
  142.1954   79.5642  224.7688 H   0  0  0  0  0  0  0  0  0  0  0  0
  141.3848   78.2754  223.8989 H   0  0  0  0  0  0  0  0  0  0  0  0
  142.6921   78.2064  219.3618 H   0  0  0  0  0  0  0  0  0  0  0  0
  142.6483   75.8615  218.6923 H   0  0  0  0  0  0  0  0  0  0  0  0
  1  2  1  0
  2  3  1  0
  3  4  1  0
  4  5  2  0
  4  6  1  0
  6  7  1  0
  7  8  1  0
  8  9  2  0
  8 10  1  0
 10 11  2  0
 11 12  1  0
 12 13  2  0
 13 14  1  0
 14 15  2  0
 15 16  1  0
 16 17  2  0
 17 18  1  0
 18 19  2  0
  2 20  1  0
 20 21  2  0
 21 22  1  0
 22 23  2  0
 23 24  1  0
 24 25  1  0
 25 26  1  0
 26 27  1  0
 27 28  1  0
 28 29  1  0
 23 30  1  0
 30 31  2  0
 19 10  1  0
 31 20  1  0
 18 13  1  0
 29 25  1  0
  1 32  1  0
  1 33  1  0
  1 34  1  0
  2 35  1  6
  3 36  1  0
  6 37  1  0
  6 38  1  0
  7 39  1  0
 11 40  1  0
 12 41  1  0
 14 42  1  0
 15 43  1  0
 16 44  1  0
 17 45  1  0
 21 46  1  0
 22 47  1  0
 25 48  1  0
 26 49  1  0
 26 50  1  0
 27 51  1  0
 27 52  1  0
 28 53  1  0
 28 54  1  0
 29 55  1  0
 29 56  1  0
 30 57  1  0
 31 58  1  0
M  END
>  <smiles>  (78) 
CC(NC(=O)CNC(=O)c1ccc2ccccc2n1)c1ccc(OC2CCCC2)cc1

>  <score_type>  (78) 
oracle

>  <origin>  (78) 
autodockgpu

>  <m_score__min__energy>  (78) 
-8.6899999999999995

>  <m_primary>  (78) 
energy

>  <rmsd>  (78) 
5.5541614464361375

>  <m_score__min__rmsd>  (78) 
5.5541614464361375

>  <meeko>  (78) 
{"free_energy": -8.37, "intermolecular_energy": -10.46, "internal_energy": -2.1, "cluster_size": 31, "cluster_id": 1, "rank_in_cluster": 16}

>  <energy>  (78) 
-8.15

>  <cluster_rmsd>  (78) 
0.61

>  <cluster>  (78) 
1

$$$$

     RDKit          3D

 58 61  0  0  0  0  0  0  0  0999 V2000
  137.3450   75.4660  219.9400 C   0  0  0  0  0  0  0  0  0  0  0  0
  137.7990   75.1420  221.3460 C   0  0  1  0  0  0  0  0  0  0  0  0
  138.5730   73.9050  221.2420 N   0  0  0  0  0  0  0  0  0  0  0  0
  137.9710   72.7200  220.7390 C   0  0  0  0  0  0  0  0  0  0  0  0
  136.7600   72.7930  220.3970 O   0  0  0  0  0  0  0  0  0  0  0  0
  138.7670   71.4690  220.6370 C   0  0  0  0  0  0  0  0  0  0  0  0
  138.9850   70.9790  221.9760 N   0  0  0  0  0  0  0  0  0  0  0  0
  139.8850   71.6100  222.8700 C   0  0  0  0  0  0  0  0  0  0  0  0
  140.5010   72.6300  222.4600 O   0  0  0  0  0  0  0  0  0  0  0  0
  140.0940   71.1010  224.2210 C   0  0  0  0  0  0  0  0  0  0  0  0
  140.7580   71.8860  225.1400 C   0  0  0  0  0  0  0  0  0  0  0  0
  141.0030   71.4910  226.4390 C   0  0  0  0  0  0  0  0  0  0  0  0
  140.5520   70.2390  226.8220 C   0  0  0  0  0  0  0  0  0  0  0  0
  140.7910   69.8390  228.1140 C   0  0  0  0  0  0  0  0  0  0  0  0
  140.3450   68.5780  228.5250 C   0  0  0  0  0  0  0  0  0  0  0  0
  139.6700   67.7610  227.6170 C   0  0  0  0  0  0  0  0  0  0  0  0
  139.4560   68.2220  226.3200 C   0  0  0  0  0  0  0  0  0  0  0  0
  139.8880   69.4570  225.8990 C   0  0  0  0  0  0  0  0  0  0  0  0
  139.6660   69.8870  224.6220 N   0  0  0  0  0  0  0  0  0  0  0  0
  138.6950   76.1740  221.8960 C   0  0  0  0  0  0  0  0  0  0  0  0
  138.2420   77.4630  222.0870 C   0  0  0  0  0  0  0  0  0  0  0  0
  139.1200   78.4060  222.6090 C   0  0  0  0  0  0  0  0  0  0  0  0
  140.4210   78.1090  222.9440 C   0  0  0  0  0  0  0  0  0  0  0  0
  141.3290   78.9930  223.4600 O   0  0  0  0  0  0  0  0  0  0  0  0
  142.3670   79.6130  222.7440 C   0  0  0  0  0  0  0  0  0  0  0  0
  141.7560   80.6920  221.8620 C   0  0  0  0  0  0  0  0  0  0  0  0
  141.1000   81.5700  222.9290 C   0  0  0  0  0  0  0  0  0  0  0  0
  142.1670   81.6270  223.9960 C   0  0  0  0  0  0  0  0  0  0  0  0
  143.1160   80.4850  223.7500 C   0  0  0  0  0  0  0  0  0  0  0  0
  140.8390   76.8040  222.7370 C   0  0  0  0  0  0  0  0  0  0  0  0
  139.9800   75.8770  222.2260 C   0  0  0  0  0  0  0  0  0  0  0  0
  136.4503   76.1045  219.9816 H   0  0  0  0  0  0  0  0  0  0  0  0
  138.1490   75.9956  219.4080 H   0  0  0  0  0  0  0  0  0  0  0  0
  137.1055   74.5335  219.4080 H   0  0  0  0  0  0  0  0  0  0  0  0
  136.9206   75.0695  222.0042 H   0  0  0  0  0  0  0  0  0  0  0  0
  139.5740   73.8570  221.5270 H   0  0  0  0  0  0  0  0  0  0  0  0
  138.2154   70.7206  220.0491 H   0  0  0  0  0  0  0  0  0  0  0  0
  139.7269   71.6623  220.1358 H   0  0  0  0  0  0  0  0  0  0  0  0
  138.4780   70.1310  222.3290 H   0  0  0  0  0  0  0  0  0  0  0  0
  141.1104   72.8780  224.8210 H   0  0  0  0  0  0  0  0  0  0  0  0
  141.5364   72.1458  227.1438 H   0  0  0  0  0  0  0  0  0  0  0  0
  141.3242   70.4990  228.8141 H   0  0  0  0  0  0  0  0  0  0  0  0
  140.5248   68.2339  229.5542 H   0  0  0  0  0  0  0  0  0  0  0  0
  139.3118   66.7665  227.9214 H   0  0  0  0  0  0  0  0  0  0  0  0
  138.9227   67.5751  225.6079 H   0  0  0  0  0  0  0  0  0  0  0  0
  137.2082   77.7387  221.8317 H   0  0  0  0  0  0  0  0  0  0  0  0
  138.7590   79.4339  222.7607 H   0  0  0  0  0  0  0  0  0  0  0  0
  142.9562   78.8526  222.2105 H   0  0  0  0  0  0  0  0  0  0  0  0
  142.5242   81.2410  221.2977 H   0  0  0  0  0  0  0  0  0  0  0  0
  141.0727   80.3213  221.0838 H   0  0  0  0  0  0  0  0  0  0  0  0
  140.8743   82.5726  222.5368 H   0  0  0  0  0  0  0  0  0  0  0  0
  140.1361   81.1812  223.2891 H   0  0  0  0  0  0  0  0  0  0  0  0
  142.7071   82.5834  223.9360 H   0  0  0  0  0  0  0  0  0  0  0  0
  141.7178   81.5480  224.9970 H   0  0  0  0  0  0  0  0  0  0  0  0
  144.0654   80.8461  223.3279 H   0  0  0  0  0  0  0  0  0  0  0  0
  143.3857   79.9449  224.6696 H   0  0  0  0  0  0  0  0  0  0  0  0
  141.8704   76.5144  222.9866 H   0  0  0  0  0  0  0  0  0  0  0  0
  140.3405   74.8488  222.0748 H   0  0  0  0  0  0  0  0  0  0  0  0
  1  2  1  0
  2  3  1  0
  3  4  1  0
  4  5  2  0
  4  6  1  0
  6  7  1  0
  7  8  1  0
  8  9  2  0
  8 10  1  0
 10 11  2  0
 11 12  1  0
 12 13  2  0
 13 14  1  0
 14 15  2  0
 15 16  1  0
 16 17  2  0
 17 18  1  0
 18 19  2  0
  2 20  1  0
 20 21  2  0
 21 22  1  0
 22 23  2  0
 23 24  1  0
 24 25  1  0
 25 26  1  0
 26 27  1  0
 27 28  1  0
 28 29  1  0
 23 30  1  0
 30 31  2  0
 19 10  1  0
 31 20  1  0
 18 13  1  0
 29 25  1  0
  1 32  1  0
  1 33  1  0
  1 34  1  0
  2 35  1  1
  3 36  1  0
  6 37  1  0
  6 38  1  0
  7 39  1  0
 11 40  1  0
 12 41  1  0
 14 42  1  0
 15 43  1  0
 16 44  1  0
 17 45  1  0
 21 46  1  0
 22 47  1  0
 25 48  1  0
 26 49  1  0
 26 50  1  0
 27 51  1  0
 27 52  1  0
 28 53  1  0
 28 54  1  0
 29 55  1  0
 29 56  1  0
 30 57  1  0
 31 58  1  0
M  END
>  <smiles>  (79) 
CC(NC(=O)CNC(=O)c1ccc2ccccc2n1)c1ccc(OC2CCCC2)cc1

>  <score_type>  (79) 
oracle

>  <origin>  (79) 
autodockgpu

>  <m_score__min__energy>  (79) 
-8.6899999999999995

>  <m_primary>  (79) 
energy

>  <rmsd>  (79) 
5.398628557547269

>  <m_score__min__rmsd>  (79) 
5.398628557547269

>  <meeko>  (79) 
{"free_energy": -8.16, "intermolecular_energy": -10.25, "internal_energy": -2.23, "cluster_size": 31, "cluster_id": 1, "rank_in_cluster": 26}

>  <energy>  (79) 
-8.13

>  <cluster_rmsd>  (79) 
0.87

>  <cluster>  (79) 
1

$$$$

     RDKit          3D

 58 61  0  0  0  0  0  0  0  0999 V2000
  143.2100   75.1090  218.9310 C   0  0  0  0  0  0  0  0  0  0  0  0
  143.2530   74.2620  220.1830 C   0  0  1  0  0  0  0  0  0  0  0  0
  141.8580   74.0390  220.5640 N   0  0  0  0  0  0  0  0  0  0  0  0
  141.0240   75.1350  220.9130 C   0  0  0  0  0  0  0  0  0  0  0  0
  141.5410   76.2830  220.8770 O   0  0  0  0  0  0  0  0  0  0  0  0
  139.6080   74.8960  221.2980 C   0  0  0  0  0  0  0  0  0  0  0  0
  139.6040   73.9530  222.3890 N   0  0  0  0  0  0  0  0  0  0  0  0
  139.7870   72.5640  222.1840 C   0  0  0  0  0  0  0  0  0  0  0  0
  139.9570   72.1640  221.0010 O   0  0  0  0  0  0  0  0  0  0  0  0
  139.7800   71.6240  223.3000 C   0  0  0  0  0  0  0  0  0  0  0  0
  139.2050   70.3830  223.1290 C   0  0  0  0  0  0  0  0  0  0  0  0
  139.1500   69.4290  224.1250 C   0  0  0  0  0  0  0  0  0  0  0  0
  139.7060   69.7510  225.3500 C   0  0  0  0  0  0  0  0  0  0  0  0
  139.6560   68.8070  226.3460 C   0  0  0  0  0  0  0  0  0  0  0  0
  140.2110   69.1110  227.5950 C   0  0  0  0  0  0  0  0  0  0  0  0
  140.8000   70.3590  227.7970 C   0  0  0  0  0  0  0  0  0  0  0  0
  140.8210   71.2760  226.7480 C   0  0  0  0  0  0  0  0  0  0  0  0
  140.2800   70.9950  225.5160 C   0  0  0  0  0  0  0  0  0  0  0  0
  140.3130   71.9110  224.5040 N   0  0  0  0  0  0  0  0  0  0  0  0
  143.8580   72.9400  219.9440 C   0  0  0  0  0  0  0  0  0  0  0  0
  143.0610   71.8370  219.7190 C   0  0  0  0  0  0  0  0  0  0  0  0
  143.6730   70.6090  219.4960 C   0  0  0  0  0  0  0  0  0  0  0  0
  145.0390   70.4460  219.4910 C   0  0  0  0  0  0  0  0  0  0  0  0
  145.6960   69.2650  219.2780 O   0  0  0  0  0  0  0  0  0  0  0  0
  145.2240   67.9890  219.6310 C   0  0  0  0  0  0  0  0  0  0  0  0
  144.1600   67.5830  218.6220 C   0  0  0  0  0  0  0  0  0  0  0  0
  144.9810   67.6280  217.3330 C   0  0  0  0  0  0  0  0  0  0  0  0
  146.2730   66.9690  217.7540 C   0  0  0  0  0  0  0  0  0  0  0  0
  146.3320   67.0070  219.2570 C   0  0  0  0  0  0  0  0  0  0  0  0
  145.8060   71.5770  219.7200 C   0  0  0  0  0  0  0  0  0  0  0  0
  145.2090   72.7830  219.9380 C   0  0  0  0  0  0  0  0  0  0  0  0
  143.1560   76.1719  219.2091 H   0  0  0  0  0  0  0  0  0  0  0  0
  144.1183   74.9311  218.3366 H   0  0  0  0  0  0  0  0  0  0  0  0
  142.3244   74.8401  218.3366 H   0  0  0  0  0  0  0  0  0  0  0  0
  143.8525   74.7758  220.9489 H   0  0  0  0  0  0  0  0  0  0  0  0
  141.4410   73.0840  220.5890 H   0  0  0  0  0  0  0  0  0  0  0  0
  139.1419   75.8400  221.6169 H   0  0  0  0  0  0  0  0  0  0  0  0
  139.0379   74.5004  220.4445 H   0  0  0  0  0  0  0  0  0  0  0  0
  139.4640   74.2750  223.3780 H   0  0  0  0  0  0  0  0  0  0  0  0
  138.7678   70.1406  222.1491 H   0  0  0  0  0  0  0  0  0  0  0  0
  138.6814   68.4491  223.9511 H   0  0  0  0  0  0  0  0  0  0  0  0
  139.1877   67.8282  226.1656 H   0  0  0  0  0  0  0  0  0  0  0  0
  140.1827   68.3723  228.4095 H   0  0  0  0  0  0  0  0  0  0  0  0
  141.2419   70.6159  228.7710 H   0  0  0  0  0  0  0  0  0  0  0  0
  141.2867   72.2590  226.9115 H   0  0  0  0  0  0  0  0  0  0  0  0
  141.9647   71.9272  219.7161 H   0  0  0  0  0  0  0  0  0  0  0  0
  143.0375   69.7294  219.3157 H   0  0  0  0  0  0  0  0  0  0  0  0
  144.8960   67.9909  220.6810 H   0  0  0  0  0  0  0  0  0  0  0  0
  143.7716   66.5737  218.8229 H   0  0  0  0  0  0  0  0  0  0  0  0
  143.2603   68.2159  218.6192 H   0  0  0  0  0  0  0  0  0  0  0  0
  144.4894   67.0632  216.5272 H   0  0  0  0  0  0  0  0  0  0  0  0
  145.1141   68.6427  216.9296 H   0  0  0  0  0  0  0  0  0  0  0  0
  146.2943   65.9265  217.4037 H   0  0  0  0  0  0  0  0  0  0  0  0
  147.1356   67.4952  217.3192 H   0  0  0  0  0  0  0  0  0  0  0  0
  146.1365   66.0122  219.6837 H   0  0  0  0  0  0  0  0  0  0  0  0
  147.3185   67.3070  219.6402 H   0  0  0  0  0  0  0  0  0  0  0  0
  146.9034   71.5013  219.7259 H   0  0  0  0  0  0  0  0  0  0  0  0
  145.8444   73.6631  220.1159 H   0  0  0  0  0  0  0  0  0  0  0  0
  1  2  1  0
  2  3  1  0
  3  4  1  0
  4  5  2  0
  4  6  1  0
  6  7  1  0
  7  8  1  0
  8  9  2  0
  8 10  1  0
 10 11  2  0
 11 12  1  0
 12 13  2  0
 13 14  1  0
 14 15  2  0
 15 16  1  0
 16 17  2  0
 17 18  1  0
 18 19  2  0
  2 20  1  0
 20 21  2  0
 21 22  1  0
 22 23  2  0
 23 24  1  0
 24 25  1  0
 25 26  1  0
 26 27  1  0
 27 28  1  0
 28 29  1  0
 23 30  1  0
 30 31  2  0
 19 10  1  0
 31 20  1  0
 18 13  1  0
 29 25  1  0
  1 32  1  0
  1 33  1  0
  1 34  1  0
  2 35  1  1
  3 36  1  0
  6 37  1  0
  6 38  1  0
  7 39  1  0
 11 40  1  0
 12 41  1  0
 14 42  1  0
 15 43  1  0
 16 44  1  0
 17 45  1  0
 21 46  1  0
 22 47  1  0
 25 48  1  0
 26 49  1  0
 26 50  1  0
 27 51  1  0
 27 52  1  0
 28 53  1  0
 28 54  1  0
 29 55  1  0
 29 56  1  0
 30 57  1  0
 31 58  1  0
M  END
>  <smiles>  (80) 
CC(NC(=O)CNC(=O)c1ccc2ccccc2n1)c1ccc(OC2CCCC2)cc1

>  <score_type>  (80) 
oracle

>  <origin>  (80) 
autodockgpu

>  <m_score__min__energy>  (80) 
-8.6899999999999995

>  <m_primary>  (80) 
energy

>  <rmsd>  (80) 
8.2103727364248

>  <m_score__min__rmsd>  (80) 
8.2103727364248

>  <meeko>  (80) 
{"free_energy": -8.1, "intermolecular_energy": -10.19, "internal_energy": -2.18, "cluster_size": 3, "cluster_id": 3, "rank_in_cluster": 2}

>  <energy>  (80) 
-8.11

>  <cluster_rmsd>  (80) 
1.11

>  <cluster>  (80) 
1

$$$$

     RDKit          3D

 58 61  0  0  0  0  0  0  0  0999 V2000
  137.3980   76.5440  222.8560 C   0  0  0  0  0  0  0  0  0  0  0  0
  136.6190   75.3030  222.4780 C   0  0  1  0  0  0  0  0  0  0  0  0
  137.6200   74.2870  222.1510 N   0  0  0  0  0  0  0  0  0  0  0  0
  137.5720   73.6030  220.9060 C   0  0  0  0  0  0  0  0  0  0  0  0
  136.6390   73.9130  220.1180 O   0  0  0  0  0  0  0  0  0  0  0  0
  138.5940   72.5730  220.5860 C   0  0  0  0  0  0  0  0  0  0  0  0
  138.8080   71.7840  221.7740 N   0  0  0  0  0  0  0  0  0  0  0  0
  139.7360   72.1670  222.7740 C   0  0  0  0  0  0  0  0  0  0  0  0
  140.3810   73.2340  222.5970 O   0  0  0  0  0  0  0  0  0  0  0  0
  139.9400   71.3560  223.9690 C   0  0  0  0  0  0  0  0  0  0  0  0
  140.7070   71.8580  224.9990 C   0  0  0  0  0  0  0  0  0  0  0  0
  140.9560   71.1670  226.1670 C   0  0  0  0  0  0  0  0  0  0  0  0
  140.4000   69.9060  226.2940 C   0  0  0  0  0  0  0  0  0  0  0  0
  140.6420   69.2110  227.4540 C   0  0  0  0  0  0  0  0  0  0  0  0
  140.0910   67.9340  227.6050 C   0  0  0  0  0  0  0  0  0  0  0  0
  139.3110   67.3990  226.5800 C   0  0  0  0  0  0  0  0  0  0  0  0
  139.0990   68.1510  225.4270 C   0  0  0  0  0  0  0  0  0  0  0  0
  139.6330   69.4070  225.2610 C   0  0  0  0  0  0  0  0  0  0  0  0
  139.4110   70.1250  224.1200 N   0  0  0  0  0  0  0  0  0  0  0  0
  135.8170   74.7830  223.5980 C   0  0  0  0  0  0  0  0  0  0  0  0
  135.5120   73.4390  223.6750 C   0  0  0  0  0  0  0  0  0  0  0  0
  134.7530   72.9900  224.7500 C   0  0  0  0  0  0  0  0  0  0  0  0
  134.2930   73.8280  225.7400 C   0  0  0  0  0  0  0  0  0  0  0  0
  133.5430   73.4440  226.8180 O   0  0  0  0  0  0  0  0  0  0  0  0
  132.2750   73.9460  227.1550 C   0  0  0  0  0  0  0  0  0  0  0  0
  131.4670   74.0880  225.8730 C   0  0  0  0  0  0  0  0  0  0  0  0
  131.4740   72.6380  225.3890 C   0  0  0  0  0  0  0  0  0  0  0  0
  131.2110   71.8740  226.6660 C   0  0  0  0  0  0  0  0  0  0  0  0
  131.5220   72.7930  227.8160 C   0  0  0  0  0  0  0  0  0  0  0  0
  134.6190   75.1700  225.6280 C   0  0  0  0  0  0  0  0  0  0  0  0
  135.3640   75.6140  224.5750 C   0  0  0  0  0  0  0  0  0  0  0  0
  137.4490   76.6253  223.9518 H   0  0  0  0  0  0  0  0  0  0  0  0
  138.4163   76.4769  222.4455 H   0  0  0  0  0  0  0  0  0  0  0  0
  136.8949   77.4319  222.4455 H   0  0  0  0  0  0  0  0  0  0  0  0
  135.9326   75.5416  221.6522 H   0  0  0  0  0  0  0  0  0  0  0  0
  138.3880   74.0390  222.8110 H   0  0  0  0  0  0  0  0  0  0  0  0
  138.2349   71.9301  219.7689 H   0  0  0  0  0  0  0  0  0  0  0  0
  139.5326   73.0482  220.2648 H   0  0  0  0  0  0  0  0  0  0  0  0
  138.2770   70.8930  221.9320 H   0  0  0  0  0  0  0  0  0  0  0  0
  141.1429   72.8613  224.8835 H   0  0  0  0  0  0  0  0  0  0  0  0
  141.5731   71.6019  226.9670 H   0  0  0  0  0  0  0  0  0  0  0  0
  141.2590   69.6514  228.2511 H   0  0  0  0  0  0  0  0  0  0  0  0
  140.2713   67.3570  228.5240 H   0  0  0  0  0  0  0  0  0  0  0  0
  138.8692   66.3967  226.6809 H   0  0  0  0  0  0  0  0  0  0  0  0
  138.4830   67.7253  224.6213 H   0  0  0  0  0  0  0  0  0  0  0  0
  135.8618   72.7383  222.9026 H   0  0  0  0  0  0  0  0  0  0  0  0
  134.5098   71.9190  224.8118 H   0  0  0  0  0  0  0  0  0  0  0  0
  132.3848   74.8689  227.7433 H   0  0  0  0  0  0  0  0  0  0  0  0
  130.4463   74.4465  226.0720 H   0  0  0  0  0  0  0  0  0  0  0  0
  131.8668   74.8174  225.1532 H   0  0  0  0  0  0  0  0  0  0  0  0
  130.6807   72.4611  224.6478 H   0  0  0  0  0  0  0  0  0  0  0  0
  132.4062   72.3457  224.8836 H   0  0  0  0  0  0  0  0  0  0  0  0
  130.1564   71.5641  226.7077 H   0  0  0  0  0  0  0  0  0  0  0  0
  131.8367   70.9705  226.7124 H   0  0  0  0  0  0  0  0  0  0  0  0
  130.5985   73.1497  228.2955 H   0  0  0  0  0  0  0  0  0  0  0  0
  132.1011   72.3029  228.6126 H   0  0  0  0  0  0  0  0  0  0  0  0
  134.2750   75.8818  226.3929 H   0  0  0  0  0  0  0  0  0  0  0  0
  135.6077   76.6849  224.5136 H   0  0  0  0  0  0  0  0  0  0  0  0
  1  2  1  0
  2  3  1  0
  3  4  1  0
  4  5  2  0
  4  6  1  0
  6  7  1  0
  7  8  1  0
  8  9  2  0
  8 10  1  0
 10 11  2  0
 11 12  1  0
 12 13  2  0
 13 14  1  0
 14 15  2  0
 15 16  1  0
 16 17  2  0
 17 18  1  0
 18 19  2  0
  2 20  1  0
 20 21  2  0
 21 22  1  0
 22 23  2  0
 23 24  1  0
 24 25  1  0
 25 26  1  0
 26 27  1  0
 27 28  1  0
 28 29  1  0
 23 30  1  0
 30 31  2  0
 19 10  1  0
 31 20  1  0
 18 13  1  0
 29 25  1  0
  1 32  1  0
  1 33  1  0
  1 34  1  0
  2 35  1  6
  3 36  1  0
  6 37  1  0
  6 38  1  0
  7 39  1  0
 11 40  1  0
 12 41  1  0
 14 42  1  0
 15 43  1  0
 16 44  1  0
 17 45  1  0
 21 46  1  0
 22 47  1  0
 25 48  1  0
 26 49  1  0
 26 50  1  0
 27 51  1  0
 27 52  1  0
 28 53  1  0
 28 54  1  0
 29 55  1  0
 29 56  1  0
 30 57  1  0
 31 58  1  0
M  END
>  <smiles>  (81) 
CC(NC(=O)CNC(=O)c1ccc2ccccc2n1)c1ccc(OC2CCCC2)cc1

>  <score_type>  (81) 
oracle

>  <origin>  (81) 
autodockgpu

>  <m_score__min__energy>  (81) 
-8.6899999999999995

>  <m_primary>  (81) 
energy

>  <rmsd>  (81) 
7.192720296963082

>  <m_score__min__rmsd>  (81) 
7.192720296963082

>  <meeko>  (81) 
{"free_energy": -8.4, "intermolecular_energy": -10.48, "internal_energy": -2.46, "cluster_size": 15, "cluster_id": 2, "rank_in_cluster": 12}

>  <energy>  (81) 
-7.88

>  <cluster_rmsd>  (81) 
1.26

>  <cluster>  (81) 
1

$$$$

     RDKit          3D

 58 61  0  0  0  0  0  0  0  0999 V2000
  143.4490   73.4940  220.7410 C   0  0  0  0  0  0  0  0  0  0  0  0
  142.2070   74.0210  220.0570 C   0  0  1  0  0  0  0  0  0  0  0  0
  141.1270   73.1080  220.4330 N   0  0  0  0  0  0  0  0  0  0  0  0
  141.0340   71.8200  219.8400 C   0  0  0  0  0  0  0  0  0  0  0  0
  141.9130   71.5160  218.9910 O   0  0  0  0  0  0  0  0  0  0  0  0
  139.9320   70.9020  220.2300 C   0  0  0  0  0  0  0  0  0  0  0  0
  140.1550   70.5080  221.5990 N   0  0  0  0  0  0  0  0  0  0  0  0
  139.9340   71.3950  222.6820 C   0  0  0  0  0  0  0  0  0  0  0  0
  139.5300   72.5580  222.4140 O   0  0  0  0  0  0  0  0  0  0  0  0
  140.1650   70.9800  224.0610 C   0  0  0  0  0  0  0  0  0  0  0  0
  140.7070   71.8820  224.9530 C   0  0  0  0  0  0  0  0  0  0  0  0
  140.9620   71.5830  226.2750 C   0  0  0  0  0  0  0  0  0  0  0  0
  140.6510   70.3070  226.7130 C   0  0  0  0  0  0  0  0  0  0  0  0
  140.9010   70.0010  228.0280 C   0  0  0  0  0  0  0  0  0  0  0  0
  140.5960   68.7170  228.4930 C   0  0  0  0  0  0  0  0  0  0  0  0
  140.0470   67.7830  227.6140 C   0  0  0  0  0  0  0  0  0  0  0  0
  139.8160   68.1510  226.2920 C   0  0  0  0  0  0  0  0  0  0  0  0
  140.1090   69.4070  225.8170 C   0  0  0  0  0  0  0  0  0  0  0  0
  139.8730   69.7450  224.5150 N   0  0  0  0  0  0  0  0  0  0  0  0
  141.8320   75.3630  220.5340 C   0  0  0  0  0  0  0  0  0  0  0  0
  142.3240   76.4900  219.9070 C   0  0  0  0  0  0  0  0  0  0  0  0
  141.9440   77.7370  220.3880 C   0  0  0  0  0  0  0  0  0  0  0  0
  141.0990   77.8970  221.4630 C   0  0  0  0  0  0  0  0  0  0  0  0
  140.6920   79.0960  221.9800 O   0  0  0  0  0  0  0  0  0  0  0  0
  140.5310   79.3880  223.3450 C   0  0  0  0  0  0  0  0  0  0  0  0
  141.8600   79.1360  224.0420 C   0  0  0  0  0  0  0  0  0  0  0  0
  142.7530   80.1140  223.2790 C   0  0  0  0  0  0  0  0  0  0  0  0
  141.8790   81.3430  223.1920 C   0  0  0  0  0  0  0  0  0  0  0  0
  140.4610   80.9110  223.4490 C   0  0  0  0  0  0  0  0  0  0  0  0
  140.6260   76.7430  222.0660 C   0  0  0  0  0  0  0  0  0  0  0  0
  140.9960   75.5170  221.5960 C   0  0  0  0  0  0  0  0  0  0  0  0
  143.3184   73.5494  221.8318 H   0  0  0  0  0  0  0  0  0  0  0  0
  143.6151   72.4479  220.4443 H   0  0  0  0  0  0  0  0  0  0  0  0
  144.3167   74.1015  220.4443 H   0  0  0  0  0  0  0  0  0  0  0  0
  142.3869   74.0851  218.9737 H   0  0  0  0  0  0  0  0  0  0  0  0
  140.4050   73.3710  221.1370 H   0  0  0  0  0  0  0  0  0  0  0  0
  138.9648   71.4184  220.1413 H   0  0  0  0  0  0  0  0  0  0  0  0
  139.9138   70.0201  219.5728 H   0  0  0  0  0  0  0  0  0  0  0  0
  140.4910   69.5430  221.8340 H   0  0  0  0  0  0  0  0  0  0  0  0
  140.9484   72.8923  224.5910 H   0  0  0  0  0  0  0  0  0  0  0  0
  141.3961   72.3301  226.9557 H   0  0  0  0  0  0  0  0  0  0  0  0
  141.3338   70.7526  228.7046 H   0  0  0  0  0  0  0  0  0  0  0  0
  140.7873   68.4465  229.5419 H   0  0  0  0  0  0  0  0  0  0  0  0
  139.8000   66.7690  227.9614 H   0  0  0  0  0  0  0  0  0  0  0  0
  139.3837   67.4106  225.6029 H   0  0  0  0  0  0  0  0  0  0  0  0
  143.0022   76.4028  219.0453 H   0  0  0  0  0  0  0  0  0  0  0  0
  142.3353   78.6353  219.8881 H   0  0  0  0  0  0  0  0  0  0  0  0
  139.6775   78.8234  223.7484 H   0  0  0  0  0  0  0  0  0  0  0  0
  141.8110   79.3795  225.1136 H   0  0  0  0  0  0  0  0  0  0  0  0
  142.1999   78.0900  224.0248 H   0  0  0  0  0  0  0  0  0  0  0  0
  143.6804   80.3225  223.8327 H   0  0  0  0  0  0  0  0  0  0  0  0
  143.0844   79.7376  222.2999 H   0  0  0  0  0  0  0  0  0  0  0  0
  142.1900   82.0789  223.9482 H   0  0  0  0  0  0  0  0  0  0  0  0
  141.9670   81.8106  222.2002 H   0  0  0  0  0  0  0  0  0  0  0  0
  140.1300   81.2224  224.4507 H   0  0  0  0  0  0  0  0  0  0  0  0
  139.7419   81.3571  222.7462 H   0  0  0  0  0  0  0  0  0  0  0  0
  139.9479   76.8157  222.9291 H   0  0  0  0  0  0  0  0  0  0  0  0
  140.6034   74.6187  222.0948 H   0  0  0  0  0  0  0  0  0  0  0  0
  1  2  1  0
  2  3  1  0
  3  4  1  0
  4  5  2  0
  4  6  1  0
  6  7  1  0
  7  8  1  0
  8  9  2  0
  8 10  1  0
 10 11  2  0
 11 12  1  0
 12 13  2  0
 13 14  1  0
 14 15  2  0
 15 16  1  0
 16 17  2  0
 17 18  1  0
 18 19  2  0
  2 20  1  0
 20 21  2  0
 21 22  1  0
 22 23  2  0
 23 24  1  0
 24 25  1  0
 25 26  1  0
 26 27  1  0
 27 28  1  0
 28 29  1  0
 23 30  1  0
 30 31  2  0
 19 10  1  0
 31 20  1  0
 18 13  1  0
 29 25  1  0
  1 32  1  0
  1 33  1  0
  1 34  1  0
  2 35  1  6
  3 36  1  0
  6 37  1  0
  6 38  1  0
  7 39  1  0
 11 40  1  0
 12 41  1  0
 14 42  1  0
 15 43  1  0
 16 44  1  0
 17 45  1  0
 21 46  1  0
 22 47  1  0
 25 48  1  0
 26 49  1  0
 26 50  1  0
 27 51  1  0
 27 52  1  0
 28 53  1  0
 28 54  1  0
 29 55  1  0
 29 56  1  0
 30 57  1  0
 31 58  1  0
M  END
>  <smiles>  (82) 
CC(NC(=O)CNC(=O)c1ccc2ccccc2n1)c1ccc(OC2CCCC2)cc1

>  <score_type>  (82) 
oracle

>  <origin>  (82) 
autodockgpu

>  <m_score__min__energy>  (82) 
-8.6899999999999995

>  <m_primary>  (82) 
energy

>  <rmsd>  (82) 
5.5083601347708155

>  <m_score__min__rmsd>  (82) 
5.5083601347708155

>  <meeko>  (82) 
{"free_energy": -8.45, "intermolecular_energy": -10.53, "internal_energy": -2.3, "cluster_size": 31, "cluster_id": 1, "rank_in_cluster": 12}

>  <energy>  (82) 
-8.61

>  <cluster_rmsd>  (82) 
0.0

>  <cluster>  (82) 
2

$$$$

     RDKit          3D

 58 61  0  0  0  0  0  0  0  0999 V2000
  143.6600   73.7290  220.6260 C   0  0  0  0  0  0  0  0  0  0  0  0
  142.4130   74.2280  219.9310 C   0  0  1  0  0  0  0  0  0  0  0  0
  141.3790   73.2280  220.1980 N   0  0  0  0  0  0  0  0  0  0  0  0
  140.0670   73.3920  219.6760 C   0  0  0  0  0  0  0  0  0  0  0  0
  139.8500   74.4240  218.9870 O   0  0  0  0  0  0  0  0  0  0  0  0
  139.0250   72.3690  219.9530 C   0  0  0  0  0  0  0  0  0  0  0  0
  139.0460   72.0960  221.3700 N   0  0  0  0  0  0  0  0  0  0  0  0
  139.9960   71.2210  221.9520 C   0  0  0  0  0  0  0  0  0  0  0  0
  140.8380   70.6770  221.1890 O   0  0  0  0  0  0  0  0  0  0  0  0
  140.0020   70.9560  223.3870 C   0  0  0  0  0  0  0  0  0  0  0  0
  139.2730   69.8930  223.8770 C   0  0  0  0  0  0  0  0  0  0  0  0
  139.2170   69.5640  225.2160 C   0  0  0  0  0  0  0  0  0  0  0  0
  139.9360   70.3510  226.0980 C   0  0  0  0  0  0  0  0  0  0  0  0
  139.8870   70.0300  227.4320 C   0  0  0  0  0  0  0  0  0  0  0  0
  140.6050   70.8120  228.3430 C   0  0  0  0  0  0  0  0  0  0  0  0
  141.3520   71.8940  227.8770 C   0  0  0  0  0  0  0  0  0  0  0  0
  141.3650   72.1710  226.5120 C   0  0  0  0  0  0  0  0  0  0  0  0
  140.6650   71.4140  225.6030 C   0  0  0  0  0  0  0  0  0  0  0  0
  140.6920   71.7060  224.2690 N   0  0  0  0  0  0  0  0  0  0  0  0
  141.9380   75.5080  220.4840 C   0  0  0  0  0  0  0  0  0  0  0  0
  142.2720   76.7000  219.8740 C   0  0  0  0  0  0  0  0  0  0  0  0
  141.8010   77.8840  220.4280 C   0  0  0  0  0  0  0  0  0  0  0  0
  141.0170   77.9200  221.5580 C   0  0  0  0  0  0  0  0  0  0  0  0
  140.5270   79.0530  222.1480 O   0  0  0  0  0  0  0  0  0  0  0  0
  140.7000   79.4170  223.4940 C   0  0  0  0  0  0  0  0  0  0  0  0
  142.1750   79.2710  223.8380 C   0  0  0  0  0  0  0  0  0  0  0  0
  142.7840   80.2440  222.8270 C   0  0  0  0  0  0  0  0  0  0  0  0
  141.8420   81.4230  222.9120 C   0  0  0  0  0  0  0  0  0  0  0  0
  140.5650   80.9380  223.5450 C   0  0  0  0  0  0  0  0  0  0  0  0
  140.7030   76.7030  222.1420 C   0  0  0  0  0  0  0  0  0  0  0  0
  141.1620   75.5390  221.6000 C   0  0  0  0  0  0  0  0  0  0  0  0
  143.5198   73.7851  221.7156 H   0  0  0  0  0  0  0  0  0  0  0  0
  143.8499   72.6856  220.3340 H   0  0  0  0  0  0  0  0  0  0  0  0
  144.5173   74.3533  220.3340 H   0  0  0  0  0  0  0  0  0  0  0  0
  142.6278   74.3797  218.8629 H   0  0  0  0  0  0  0  0  0  0  0  0
  141.5710   72.3770  220.7680 H   0  0  0  0  0  0  0  0  0  0  0  0
  138.0364   72.7518  219.6596 H   0  0  0  0  0  0  0  0  0  0  0  0
  139.2234   71.4511  219.3802 H   0  0  0  0  0  0  0  0  0  0  0  0
  138.3500   72.5430  222.0150 H   0  0  0  0  0  0  0  0  0  0  0  0
  138.7070   69.2756  223.1639 H   0  0  0  0  0  0  0  0  0  0  0  0
  138.6230   68.7081  225.5689 H   0  0  0  0  0  0  0  0  0  0  0  0
  139.2927   69.1718  227.7789 H   0  0  0  0  0  0  0  0  0  0  0  0
  140.5807   70.5758  229.4171 H   0  0  0  0  0  0  0  0  0  0  0  0
  141.9232   72.5201  228.5782 H   0  0  0  0  0  0  0  0  0  0  0  0
  141.9558   73.0249  226.1490 H   0  0  0  0  0  0  0  0  0  0  0  0
  142.8973   76.7125  218.9691 H   0  0  0  0  0  0  0  0  0  0  0  0
  142.0666   78.8343  219.9418 H   0  0  0  0  0  0  0  0  0  0  0  0
  140.0130   78.8364  224.1272 H   0  0  0  0  0  0  0  0  0  0  0  0
  142.3842   79.5756  224.8741 H   0  0  0  0  0  0  0  0  0  0  0  0
  142.5632   78.2433  223.7821 H   0  0  0  0  0  0  0  0  0  0  0  0
  143.8069   80.5292  223.1140 H   0  0  0  0  0  0  0  0  0  0  0  0
  142.8787   79.8264  221.8138 H   0  0  0  0  0  0  0  0  0  0  0  0
  142.2888   82.2169  223.5286 H   0  0  0  0  0  0  0  0  0  0  0  0
  141.6459   81.8348  221.9110 H   0  0  0  0  0  0  0  0  0  0  0  0
  140.4815   81.2912  224.5834 H   0  0  0  0  0  0  0  0  0  0  0  0
  139.6644   81.3067  223.0321 H   0  0  0  0  0  0  0  0  0  0  0  0
  140.0799   76.6759  223.0481 H   0  0  0  0  0  0  0  0  0  0  0  0
  140.8941   74.5884  222.0844 H   0  0  0  0  0  0  0  0  0  0  0  0
  1  2  1  0
  2  3  1  0
  3  4  1  0
  4  5  2  0
  4  6  1  0
  6  7  1  0
  7  8  1  0
  8  9  2  0
  8 10  1  0
 10 11  2  0
 11 12  1  0
 12 13  2  0
 13 14  1  0
 14 15  2  0
 15 16  1  0
 16 17  2  0
 17 18  1  0
 18 19  2  0
  2 20  1  0
 20 21  2  0
 21 22  1  0
 22 23  2  0
 23 24  1  0
 24 25  1  0
 25 26  1  0
 26 27  1  0
 27 28  1  0
 28 29  1  0
 23 30  1  0
 30 31  2  0
 19 10  1  0
 31 20  1  0
 18 13  1  0
 29 25  1  0
  1 32  1  0
  1 33  1  0
  1 34  1  0
  2 35  1  6
  3 36  1  0
  6 37  1  0
  6 38  1  0
  7 39  1  0
 11 40  1  0
 12 41  1  0
 14 42  1  0
 15 43  1  0
 16 44  1  0
 17 45  1  0
 21 46  1  0
 22 47  1  0
 25 48  1  0
 26 49  1  0
 26 50  1  0
 27 51  1  0
 27 52  1  0
 28 53  1  0
 28 54  1  0
 29 55  1  0
 29 56  1  0
 30 57  1  0
 31 58  1  0
M  END
>  <smiles>  (83) 
CC(NC(=O)CNC(=O)c1ccc2ccccc2n1)c1ccc(OC2CCCC2)cc1

>  <score_type>  (83) 
oracle

>  <origin>  (83) 
autodockgpu

>  <m_score__min__energy>  (83) 
-8.6899999999999995

>  <m_primary>  (83) 
energy

>  <rmsd>  (83) 
5.532680715628719

>  <m_score__min__rmsd>  (83) 
5.532680715628719

>  <meeko>  (83) 
{"free_energy": -8.13, "intermolecular_energy": -10.22, "internal_energy": -2.19, "cluster_size": 31, "cluster_id": 1, "rank_in_cluster": 29}

>  <energy>  (83) 
-8.61

>  <cluster_rmsd>  (83) 
0.95

>  <cluster>  (83) 
2

$$$$

     RDKit          3D

 58 61  0  0  0  0  0  0  0  0999 V2000
  142.6520   73.3010  219.9290 C   0  0  0  0  0  0  0  0  0  0  0  0
  141.3080   73.9830  219.8070 C   0  0  1  0  0  0  0  0  0  0  0  0
  140.3390   73.0680  220.4090 N   0  0  0  0  0  0  0  0  0  0  0  0
  138.9500   73.3680  220.3770 C   0  0  0  0  0  0  0  0  0  0  0  0
  138.6090   74.4420  219.8130 O   0  0  0  0  0  0  0  0  0  0  0  0
  137.9740   72.4300  220.9920 C   0  0  0  0  0  0  0  0  0  0  0  0
  138.4110   72.1670  222.3410 N   0  0  0  0  0  0  0  0  0  0  0  0
  139.3130   71.1180  222.6480 C   0  0  0  0  0  0  0  0  0  0  0  0
  139.7320   70.4080  221.6950 O   0  0  0  0  0  0  0  0  0  0  0  0
  139.7440   70.8660  224.0190 C   0  0  0  0  0  0  0  0  0  0  0  0
  140.4940   71.8200  224.6740 C   0  0  0  0  0  0  0  0  0  0  0  0
  140.9460   71.6720  225.9690 C   0  0  0  0  0  0  0  0  0  0  0  0
  140.6220   70.4990  226.6290 C   0  0  0  0  0  0  0  0  0  0  0  0
  141.0680   70.3440  227.9180 C   0  0  0  0  0  0  0  0  0  0  0  0
  140.7540   69.1670  228.6060 C   0  0  0  0  0  0  0  0  0  0  0  0
  139.9970   68.1830  227.9680 C   0  0  0  0  0  0  0  0  0  0  0  0
  139.5720   68.3970  226.6600 C   0  0  0  0  0  0  0  0  0  0  0  0
  139.8720   69.5470  225.9690 C   0  0  0  0  0  0  0  0  0  0  0  0
  139.4440   69.7340  224.6860 N   0  0  0  0  0  0  0  0  0  0  0  0
  141.2500   75.2450  220.5660 C   0  0  0  0  0  0  0  0  0  0  0  0
  141.7430   76.4120  220.0190 C   0  0  0  0  0  0  0  0  0  0  0  0
  141.6680   77.5800  220.7690 C   0  0  0  0  0  0  0  0  0  0  0  0
  141.1230   77.6230  222.0320 C   0  0  0  0  0  0  0  0  0  0  0  0
  141.0230   78.7400  222.8150 O   0  0  0  0  0  0  0  0  0  0  0  0
  140.9140   80.0610  222.3480 C   0  0  0  0  0  0  0  0  0  0  0  0
  140.9830   80.9940  223.5480 C   0  0  0  0  0  0  0  0  0  0  0  0
  142.3590   80.6200  224.1000 C   0  0  0  0  0  0  0  0  0  0  0  0
  143.1940   80.5330  222.8430 C   0  0  0  0  0  0  0  0  0  0  0  0
  142.2490   80.3880  221.6810 C   0  0  0  0  0  0  0  0  0  0  0  0
  140.6390   76.4310  222.5460 C   0  0  0  0  0  0  0  0  0  0  0  0
  140.7100   75.2830  221.8130 C   0  0  0  0  0  0  0  0  0  0  0  0
  142.9033   73.1735  220.9923 H   0  0  0  0  0  0  0  0  0  0  0  0
  142.6088   72.3158  219.4417 H   0  0  0  0  0  0  0  0  0  0  0  0
  143.4216   73.9176  219.4417 H   0  0  0  0  0  0  0  0  0  0  0  0
  141.1118   74.2144  218.7497 H   0  0  0  0  0  0  0  0  0  0  0  0
  140.6330   72.1820  220.8720 H   0  0  0  0  0  0  0  0  0  0  0  0
  136.9728   72.8855  221.0043 H   0  0  0  0  0  0  0  0  0  0  0  0
  137.9206   71.4953  220.4145 H   0  0  0  0  0  0  0  0  0  0  0  0
  138.0680   72.7510  223.1420 H   0  0  0  0  0  0  0  0  0  0  0  0
  140.7447   72.7464  224.1364 H   0  0  0  0  0  0  0  0  0  0  0  0
  141.5415   72.4566  226.4587 H   0  0  0  0  0  0  0  0  0  0  0  0
  141.6627   71.1326  228.4022 H   0  0  0  0  0  0  0  0  0  0  0  0
  141.1002   69.0185  229.6395 H   0  0  0  0  0  0  0  0  0  0  0  0
  139.7397   67.2507  228.4920 H   0  0  0  0  0  0  0  0  0  0  0  0
  138.9752   67.6188  226.1618 H   0  0  0  0  0  0  0  0  0  0  0  0
  142.1855   76.4179  219.0119 H   0  0  0  0  0  0  0  0  0  0  0  0
  142.0615   78.5106  220.3340 H   0  0  0  0  0  0  0  0  0  0  0  0
  140.0111   80.1631  221.7281 H   0  0  0  0  0  0  0  0  0  0  0  0
  140.9383   82.0508  223.2460 H   0  0  0  0  0  0  0  0  0  0  0  0
  140.1539   80.8892  224.2633 H   0  0  0  0  0  0  0  0  0  0  0  0
  142.7407   81.3963  224.7795 H   0  0  0  0  0  0  0  0  0  0  0  0
  142.3595   79.6952  224.6955 H   0  0  0  0  0  0  0  0  0  0  0  0
  143.7943   81.4474  222.7269 H   0  0  0  0  0  0  0  0  0  0  0  0
  143.8809   79.6753  222.8929 H   0  0  0  0  0  0  0  0  0  0  0  0
  142.1835   81.3246  221.1078 H   0  0  0  0  0  0  0  0  0  0  0  0
  142.5686   79.6200  220.9612 H   0  0  0  0  0  0  0  0  0  0  0  0
  140.1945   76.4103  223.5520 H   0  0  0  0  0  0  0  0  0  0  0  0
  140.3154   74.3526  222.2473 H   0  0  0  0  0  0  0  0  0  0  0  0
  1  2  1  0
  2  3  1  0
  3  4  1  0
  4  5  2  0
  4  6  1  0
  6  7  1  0
  7  8  1  0
  8  9  2  0
  8 10  1  0
 10 11  2  0
 11 12  1  0
 12 13  2  0
 13 14  1  0
 14 15  2  0
 15 16  1  0
 16 17  2  0
 17 18  1  0
 18 19  2  0
  2 20  1  0
 20 21  2  0
 21 22  1  0
 22 23  2  0
 23 24  1  0
 24 25  1  0
 25 26  1  0
 26 27  1  0
 27 28  1  0
 28 29  1  0
 23 30  1  0
 30 31  2  0
 19 10  1  0
 31 20  1  0
 18 13  1  0
 29 25  1  0
  1 32  1  0
  1 33  1  0
  1 34  1  0
  2 35  1  6
  3 36  1  0
  6 37  1  0
  6 38  1  0
  7 39  1  0
 11 40  1  0
 12 41  1  0
 14 42  1  0
 15 43  1  0
 16 44  1  0
 17 45  1  0
 21 46  1  0
 22 47  1  0
 25 48  1  0
 26 49  1  0
 26 50  1  0
 27 51  1  0
 27 52  1  0
 28 53  1  0
 28 54  1  0
 29 55  1  0
 29 56  1  0
 30 57  1  0
 31 58  1  0
M  END
>  <smiles>  (84) 
CC(NC(=O)CNC(=O)c1ccc2ccccc2n1)c1ccc(OC2CCCC2)cc1

>  <score_type>  (84) 
oracle

>  <origin>  (84) 
autodockgpu

>  <m_score__min__energy>  (84) 
-8.6899999999999995

>  <m_primary>  (84) 
energy

>  <rmsd>  (84) 
5.500204985380774

>  <m_score__min__rmsd>  (84) 
5.500204985380774

>  <meeko>  (84) 
{"free_energy": -8.19, "intermolecular_energy": -10.28, "internal_energy": -2.01, "cluster_size": 31, "cluster_id": 1, "rank_in_cluster": 25}

>  <energy>  (84) 
-8.61

>  <cluster_rmsd>  (84) 
0.05

>  <cluster>  (84) 
2

$$$$

     RDKit          3D

 58 61  0  0  0  0  0  0  0  0999 V2000
  143.9290   72.7660  220.8200 C   0  0  0  0  0  0  0  0  0  0  0  0
  142.6580   73.1270  220.0840 C   0  0  1  0  0  0  0  0  0  0  0  0
  141.6590   72.1450  220.5040 N   0  0  0  0  0  0  0  0  0  0  0  0
  140.5830   71.7980  219.6430 C   0  0  0  0  0  0  0  0  0  0  0  0
  140.5390   72.3730  218.5230 O   0  0  0  0  0  0  0  0  0  0  0  0
  139.5750   70.7980  220.0800 C   0  0  0  0  0  0  0  0  0  0  0  0
  139.8860   70.4280  221.4390 N   0  0  0  0  0  0  0  0  0  0  0  0
  139.7590   71.3400  222.5150 C   0  0  0  0  0  0  0  0  0  0  0  0
  139.3590   72.5060  222.2510 O   0  0  0  0  0  0  0  0  0  0  0  0
  140.0800   70.9490  223.8830 C   0  0  0  0  0  0  0  0  0  0  0  0
  140.6650   71.8700  224.7260 C   0  0  0  0  0  0  0  0  0  0  0  0
  141.0040   71.5930  226.0350 C   0  0  0  0  0  0  0  0  0  0  0  0
  140.7360   70.3210  226.5090 C   0  0  0  0  0  0  0  0  0  0  0  0
  141.0690   70.0370  227.8110 C   0  0  0  0  0  0  0  0  0  0  0  0
  140.8090   68.7570  228.3120 C   0  0  0  0  0  0  0  0  0  0  0  0
  140.2180   67.8040  227.4830 C   0  0  0  0  0  0  0  0  0  0  0  0
  139.9000   68.1500  226.1710 C   0  0  0  0  0  0  0  0  0  0  0  0
  140.1500   69.4020  225.6620 C   0  0  0  0  0  0  0  0  0  0  0  0
  139.8300   69.7180  224.3720 N   0  0  0  0  0  0  0  0  0  0  0  0
  142.1500   74.4580  220.4640 C   0  0  0  0  0  0  0  0  0  0  0  0
  142.5710   75.5840  219.7880 C   0  0  0  0  0  0  0  0  0  0  0  0
  142.0670   76.8200  220.1780 C   0  0  0  0  0  0  0  0  0  0  0  0
  141.1660   76.9670  221.2080 C   0  0  0  0  0  0  0  0  0  0  0  0
  140.6370   78.1540  221.6350 O   0  0  0  0  0  0  0  0  0  0  0  0
  141.3060   79.3890  221.6560 C   0  0  0  0  0  0  0  0  0  0  0  0
  140.4460   80.3800  222.4270 C   0  0  0  0  0  0  0  0  0  0  0  0
  140.3680   79.6720  223.7800 C   0  0  0  0  0  0  0  0  0  0  0  0
  141.7920   79.2060  223.9780 C   0  0  0  0  0  0  0  0  0  0  0  0
  142.4680   79.2290  222.6340 C   0  0  0  0  0  0  0  0  0  0  0  0
  140.7680   75.8120  221.8620 C   0  0  0  0  0  0  0  0  0  0  0  0
  141.2600   74.5990  221.4820 C   0  0  0  0  0  0  0  0  0  0  0  0
  143.7516   72.8164  221.9044 H   0  0  0  0  0  0  0  0  0  0  0  0
  144.2345   71.7456  220.5454 H   0  0  0  0  0  0  0  0  0  0  0  0
  144.7253   73.4735  220.5454 H   0  0  0  0  0  0  0  0  0  0  0  0
  142.8545   73.1348  219.0017 H   0  0  0  0  0  0  0  0  0  0  0  0
  141.7070   71.6750  221.4330 H   0  0  0  0  0  0  0  0  0  0  0  0
  138.5672   71.2362  220.0322 H   0  0  0  0  0  0  0  0  0  0  0  0
  139.5989   69.9147  219.4248 H   0  0  0  0  0  0  0  0  0  0  0  0
  140.2210   69.4610  221.6700 H   0  0  0  0  0  0  0  0  0  0  0  0
  140.8722   72.8772  224.3353 H   0  0  0  0  0  0  0  0  0  0  0  0
  141.4698   72.3549  226.6773 H   0  0  0  0  0  0  0  0  0  0  0  0
  141.5326   70.8036  228.4493 H   0  0  0  0  0  0  0  0  0  0  0  0
  141.0685   68.5045  229.3507 H   0  0  0  0  0  0  0  0  0  0  0  0
  140.0056   66.7926  227.8597 H   0  0  0  0  0  0  0  0  0  0  0  0
  139.4331   67.3955  225.5208 H   0  0  0  0  0  0  0  0  0  0  0  0
  143.2895   75.5061  218.9587 H   0  0  0  0  0  0  0  0  0  0  0  0
  142.4029   77.7189  219.6402 H   0  0  0  0  0  0  0  0  0  0  0  0
  141.5604   79.6908  220.6293 H   0  0  0  0  0  0  0  0  0  0  0  0
  140.9314   81.3637  222.5089 H   0  0  0  0  0  0  0  0  0  0  0  0
  139.4728   80.6040  221.9658 H   0  0  0  0  0  0  0  0  0  0  0  0
  140.0609   80.3659  224.5763 H   0  0  0  0  0  0  0  0  0  0  0  0
  139.6284   78.8583  223.8110 H   0  0  0  0  0  0  0  0  0  0  0  0
  142.3144   79.8804  224.6725 H   0  0  0  0  0  0  0  0  0  0  0  0
  141.8115   78.1918  224.4035 H   0  0  0  0  0  0  0  0  0  0  0  0
  143.1654   80.0763  222.5586 H   0  0  0  0  0  0  0  0  0  0  0  0
  143.0709   78.3294  222.4411 H   0  0  0  0  0  0  0  0  0  0  0  0
  140.0503   75.8745  222.6933 H   0  0  0  0  0  0  0  0  0  0  0  0
  140.9241   73.6999  222.0195 H   0  0  0  0  0  0  0  0  0  0  0  0
  1  2  1  0
  2  3  1  0
  3  4  1  0
  4  5  2  0
  4  6  1  0
  6  7  1  0
  7  8  1  0
  8  9  2  0
  8 10  1  0
 10 11  2  0
 11 12  1  0
 12 13  2  0
 13 14  1  0
 14 15  2  0
 15 16  1  0
 16 17  2  0
 17 18  1  0
 18 19  2  0
  2 20  1  0
 20 21  2  0
 21 22  1  0
 22 23  2  0
 23 24  1  0
 24 25  1  0
 25 26  1  0
 26 27  1  0
 27 28  1  0
 28 29  1  0
 23 30  1  0
 30 31  2  0
 19 10  1  0
 31 20  1  0
 18 13  1  0
 29 25  1  0
  1 32  1  0
  1 33  1  0
  1 34  1  0
  2 35  1  6
  3 36  1  0
  6 37  1  0
  6 38  1  0
  7 39  1  0
 11 40  1  0
 12 41  1  0
 14 42  1  0
 15 43  1  0
 16 44  1  0
 17 45  1  0
 21 46  1  0
 22 47  1  0
 25 48  1  0
 26 49  1  0
 26 50  1  0
 27 51  1  0
 27 52  1  0
 28 53  1  0
 28 54  1  0
 29 55  1  0
 29 56  1  0
 30 57  1  0
 31 58  1  0
M  END
>  <smiles>  (85) 
CC(NC(=O)CNC(=O)c1ccc2ccccc2n1)c1ccc(OC2CCCC2)cc1

>  <score_type>  (85) 
oracle

>  <origin>  (85) 
autodockgpu

>  <m_score__min__energy>  (85) 
-8.6899999999999995

>  <m_primary>  (85) 
energy

>  <rmsd>  (85) 
5.841318353902385

>  <m_score__min__rmsd>  (85) 
5.841318353902385

>  <meeko>  (85) 
{"free_energy": -7.88, "intermolecular_energy": -9.97, "internal_energy": -2.09, "cluster_size": 31, "cluster_id": 1, "rank_in_cluster": 31}

>  <energy>  (85) 
-8.59

>  <cluster_rmsd>  (85) 
0.28

>  <cluster>  (85) 
2

$$$$

     RDKit          3D

 58 61  0  0  0  0  0  0  0  0999 V2000
  143.7220   73.0190  220.8460 C   0  0  0  0  0  0  0  0  0  0  0  0
  142.4710   73.5020  220.1460 C   0  0  1  0  0  0  0  0  0  0  0  0
  141.3900   72.6390  220.6200 N   0  0  0  0  0  0  0  0  0  0  0  0
  140.6180   71.8800  219.6990 C   0  0  0  0  0  0  0  0  0  0  0  0
  140.9110   71.9910  218.4780 O   0  0  0  0  0  0  0  0  0  0  0  0
  139.5210   71.0060  220.1920 C   0  0  0  0  0  0  0  0  0  0  0  0
  139.8570   70.5990  221.5340 N   0  0  0  0  0  0  0  0  0  0  0  0
  139.6630   71.4500  222.6490 C   0  0  0  0  0  0  0  0  0  0  0  0
  139.1800   72.5950  222.4360 O   0  0  0  0  0  0  0  0  0  0  0  0
  140.0090   71.0220  224.0000 C   0  0  0  0  0  0  0  0  0  0  0  0
  140.6980   71.8870  224.8240 C   0  0  0  0  0  0  0  0  0  0  0  0
  141.0690   71.5720  226.1150 C   0  0  0  0  0  0  0  0  0  0  0  0
  140.7240   70.3190  226.5920 C   0  0  0  0  0  0  0  0  0  0  0  0
  141.0880   69.9980  227.8760 C   0  0  0  0  0  0  0  0  0  0  0  0
  140.7510   68.7370  228.3800 C   0  0  0  0  0  0  0  0  0  0  0  0
  140.0540   67.8400  227.5700 C   0  0  0  0  0  0  0  0  0  0  0  0
  139.7110   68.2230  226.2750 C   0  0  0  0  0  0  0  0  0  0  0  0
  140.0340   69.4570  225.7640 C   0  0  0  0  0  0  0  0  0  0  0  0
  139.6860   69.8090  224.4910 N   0  0  0  0  0  0  0  0  0  0  0  0
  142.1220   74.8850  220.5150 C   0  0  0  0  0  0  0  0  0  0  0  0
  142.5940   75.9470  219.7710 C   0  0  0  0  0  0  0  0  0  0  0  0
  142.2390   77.2350  220.1530 C   0  0  0  0  0  0  0  0  0  0  0  0
  141.4380   77.4970  221.2410 C   0  0  0  0  0  0  0  0  0  0  0  0
  141.0570   78.7410  221.6640 O   0  0  0  0  0  0  0  0  0  0  0  0
  140.6510   79.0750  222.9670 C   0  0  0  0  0  0  0  0  0  0  0  0
  141.8620   78.9630  223.8820 C   0  0  0  0  0  0  0  0  0  0  0  0
  142.7940   79.9800  223.2200 C   0  0  0  0  0  0  0  0  0  0  0  0
  141.8560   81.1270  222.9270 C   0  0  0  0  0  0  0  0  0  0  0  0
  140.4520   80.5900  222.9760 C   0  0  0  0  0  0  0  0  0  0  0  0
  140.9830   76.4050  221.9620 C   0  0  0  0  0  0  0  0  0  0  0  0
  141.3290   75.1390  221.5900 C   0  0  0  0  0  0  0  0  0  0  0  0
  143.5775   73.0748  221.9350 H   0  0  0  0  0  0  0  0  0  0  0  0
  143.9256   71.9776  220.5560 H   0  0  0  0  0  0  0  0  0  0  0  0
  144.5726   73.6534  220.5560 H   0  0  0  0  0  0  0  0  0  0  0  0
  142.6275   73.4714  219.0576 H   0  0  0  0  0  0  0  0  0  0  0  0
  141.1570   72.5540  221.6320 H   0  0  0  0  0  0  0  0  0  0  0  0
  138.5716   71.5615  220.1952 H   0  0  0  0  0  0  0  0  0  0  0  0
  139.4043   70.1278  219.5399 H   0  0  0  0  0  0  0  0  0  0  0  0
  140.2600   69.6490  221.7240 H   0  0  0  0  0  0  0  0  0  0  0  0
  140.9656   72.8792  224.4317 H   0  0  0  0  0  0  0  0  0  0  0  0
  141.6184   72.2897  226.7419 H   0  0  0  0  0  0  0  0  0  0  0  0
  141.6358   70.7205  228.4987 H   0  0  0  0  0  0  0  0  0  0  0  0
  141.0330   68.4555  229.4053 H   0  0  0  0  0  0  0  0  0  0  0  0
  139.7791   66.8444  227.9484 H   0  0  0  0  0  0  0  0  0  0  0  0
  139.1623   67.5125  225.6393 H   0  0  0  0  0  0  0  0  0  0  0  0
  143.2371   75.7777  218.8948 H   0  0  0  0  0  0  0  0  0  0  0  0
  142.6145   78.0820  219.5600 H   0  0  0  0  0  0  0  0  0  0  0  0
  139.7869   78.4592  223.2570 H   0  0  0  0  0  0  0  0  0  0  0  0
  141.6188   79.2460  224.9168 H   0  0  0  0  0  0  0  0  0  0  0  0
  142.2773   77.9488  223.9769 H   0  0  0  0  0  0  0  0  0  0  0  0
  143.5991   80.2875  223.9036 H   0  0  0  0  0  0  0  0  0  0  0  0
  143.3100   79.5924  222.3292 H   0  0  0  0  0  0  0  0  0  0  0  0
  141.9821   81.9169  223.6821 H   0  0  0  0  0  0  0  0  0  0  0  0
  142.0704   81.5585  221.9381 H   0  0  0  0  0  0  0  0  0  0  0  0
  139.9386   80.9140  223.8933 H   0  0  0  0  0  0  0  0  0  0  0  0
  139.8272   80.9457  222.1435 H   0  0  0  0  0  0  0  0  0  0  0  0
  140.3387   76.5598  222.8400 H   0  0  0  0  0  0  0  0  0  0  0  0
  140.9523   74.2918  222.1819 H   0  0  0  0  0  0  0  0  0  0  0  0
  1  2  1  0
  2  3  1  0
  3  4  1  0
  4  5  2  0
  4  6  1  0
  6  7  1  0
  7  8  1  0
  8  9  2  0
  8 10  1  0
 10 11  2  0
 11 12  1  0
 12 13  2  0
 13 14  1  0
 14 15  2  0
 15 16  1  0
 16 17  2  0
 17 18  1  0
 18 19  2  0
  2 20  1  0
 20 21  2  0
 21 22  1  0
 22 23  2  0
 23 24  1  0
 24 25  1  0
 25 26  1  0
 26 27  1  0
 27 28  1  0
 28 29  1  0
 23 30  1  0
 30 31  2  0
 19 10  1  0
 31 20  1  0
 18 13  1  0
 29 25  1  0
  1 32  1  0
  1 33  1  0
  1 34  1  0
  2 35  1  6
  3 36  1  0
  6 37  1  0
  6 38  1  0
  7 39  1  0
 11 40  1  0
 12 41  1  0
 14 42  1  0
 15 43  1  0
 16 44  1  0
 17 45  1  0
 21 46  1  0
 22 47  1  0
 25 48  1  0
 26 49  1  0
 26 50  1  0
 27 51  1  0
 27 52  1  0
 28 53  1  0
 28 54  1  0
 29 55  1  0
 29 56  1  0
 30 57  1  0
 31 58  1  0
M  END
>  <smiles>  (86) 
CC(NC(=O)CNC(=O)c1ccc2ccccc2n1)c1ccc(OC2CCCC2)cc1

>  <score_type>  (86) 
oracle

>  <origin>  (86) 
autodockgpu

>  <m_score__min__energy>  (86) 
-8.6899999999999995

>  <m_primary>  (86) 
energy

>  <rmsd>  (86) 
5.7116346356405625

>  <m_score__min__rmsd>  (86) 
5.7116346356405625

>  <meeko>  (86) 
{"free_energy": -8.32, "intermolecular_energy": -10.4, "internal_energy": -2.31, "cluster_size": 31, "cluster_id": 1, "rank_in_cluster": 20}

>  <energy>  (86) 
-8.55

>  <cluster_rmsd>  (86) 
0.47

>  <cluster>  (86) 
2

$$$$

     RDKit          3D

 58 61  0  0  0  0  0  0  0  0999 V2000
  137.8150   76.3500  219.5640 C   0  0  0  0  0  0  0  0  0  0  0  0
  138.1070   75.8490  220.9620 C   0  0  1  0  0  0  0  0  0  0  0  0
  138.9970   74.7000  220.7970 N   0  0  0  0  0  0  0  0  0  0  0  0
  138.5300   73.5110  220.1730 C   0  0  0  0  0  0  0  0  0  0  0  0
  137.3330   73.5040  219.7800 O   0  0  0  0  0  0  0  0  0  0  0  0
  139.4440   72.3500  220.0110 C   0  0  0  0  0  0  0  0  0  0  0  0
  139.4530   71.6240  221.2580 N   0  0  0  0  0  0  0  0  0  0  0  0
  140.0630   72.1440  222.4260 C   0  0  0  0  0  0  0  0  0  0  0  0
  140.6070   73.2780  222.3490 O   0  0  0  0  0  0  0  0  0  0  0  0
  140.0640   71.3950  223.6780 C   0  0  0  0  0  0  0  0  0  0  0  0
  139.5200   70.1280  223.7040 C   0  0  0  0  0  0  0  0  0  0  0  0
  139.4750   69.3440  224.8390 C   0  0  0  0  0  0  0  0  0  0  0  0
  140.0070   69.8730  226.0020 C   0  0  0  0  0  0  0  0  0  0  0  0
  139.9670   69.0990  227.1360 C   0  0  0  0  0  0  0  0  0  0  0  0
  140.4990   69.6120  228.3240 C   0  0  0  0  0  0  0  0  0  0  0  0
  141.0550   70.8910  228.3290 C   0  0  0  0  0  0  0  0  0  0  0  0
  141.0690   71.6290  227.1470 C   0  0  0  0  0  0  0  0  0  0  0  0
  140.5500   71.1410  225.9710 C   0  0  0  0  0  0  0  0  0  0  0  0
  140.5750   71.8840  224.8260 N   0  0  0  0  0  0  0  0  0  0  0  0
  138.8250   76.8470  221.7750 C   0  0  0  0  0  0  0  0  0  0  0  0
  138.1450   77.9010  222.3480 C   0  0  0  0  0  0  0  0  0  0  0  0
  138.8600   78.8190  223.1080 C   0  0  0  0  0  0  0  0  0  0  0  0
  140.2170   78.7210  223.3140 C   0  0  0  0  0  0  0  0  0  0  0  0
  140.9730   79.5910  224.0510 O   0  0  0  0  0  0  0  0  0  0  0  0
  141.1540   80.9570  223.7730 C   0  0  0  0  0  0  0  0  0  0  0  0
  142.5910   81.3230  224.1140 C   0  0  0  0  0  0  0  0  0  0  0  0
  143.3390   80.3730  223.1770 C   0  0  0  0  0  0  0  0  0  0  0  0
  142.5450   80.4970  221.8980 C   0  0  0  0  0  0  0  0  0  0  0  0
  141.2040   81.0790  222.2510 C   0  0  0  0  0  0  0  0  0  0  0  0
  140.8650   77.6480  222.7220 C   0  0  0  0  0  0  0  0  0  0  0  0
  140.1660   76.7450  221.9760 C   0  0  0  0  0  0  0  0  0  0  0  0
  137.2619   77.2990  219.6227 H   0  0  0  0  0  0  0  0  0  0  0  0
  138.7614   76.5098  219.0266 H   0  0  0  0  0  0  0  0  0  0  0  0
  137.2095   75.6053  219.0266 H   0  0  0  0  0  0  0  0  0  0  0  0
  137.1601   75.6155  221.4707 H   0  0  0  0  0  0  0  0  0  0  0  0
  139.9860   74.7190  221.1260 H   0  0  0  0  0  0  0  0  0  0  0  0
  139.0836   71.6992  219.2007 H   0  0  0  0  0  0  0  0  0  0  0  0
  140.4583   72.6899  219.7547 H   0  0  0  0  0  0  0  0  0  0  0  0
  139.0040   70.6790  221.3340 H   0  0  0  0  0  0  0  0  0  0  0  0
  139.1003   69.7213  222.7721 H   0  0  0  0  0  0  0  0  0  0  0  0
  139.0331   68.3369  224.8200 H   0  0  0  0  0  0  0  0  0  0  0  0
  139.5240   68.0925  227.1106 H   0  0  0  0  0  0  0  0  0  0  0  0
  140.4789   69.0120  229.2457 H   0  0  0  0  0  0  0  0  0  0  0  0
  141.4769   71.3117  229.2537 H   0  0  0  0  0  0  0  0  0  0  0  0
  141.5104   72.6365  227.1551 H   0  0  0  0  0  0  0  0  0  0  0  0
  137.0599   78.0128  222.2066 H   0  0  0  0  0  0  0  0  0  0  0  0
  138.3178   79.6602  223.5645 H   0  0  0  0  0  0  0  0  0  0  0  0
  140.3853   81.5472  224.2934 H   0  0  0  0  0  0  0  0  0  0  0  0
  142.8088   82.3767  223.8853 H   0  0  0  0  0  0  0  0  0  0  0  0
  142.8532   81.2249  225.1778 H   0  0  0  0  0  0  0  0  0  0  0  0
  144.3812   80.6938  223.0323 H   0  0  0  0  0  0  0  0  0  0  0  0
  143.4086   79.3426  223.5558 H   0  0  0  0  0  0  0  0  0  0  0  0
  143.0686   81.1607  221.1941 H   0  0  0  0  0  0  0  0  0  0  0  0
  142.4260   79.5135  221.4198 H   0  0  0  0  0  0  0  0  0  0  0  0
  141.1371   82.1315  221.9382 H   0  0  0  0  0  0  0  0  0  0  0  0
  140.3687   80.5663  221.7516 H   0  0  0  0  0  0  0  0  0  0  0  0
  141.9499   77.5240  222.8547 H   0  0  0  0  0  0  0  0  0  0  0  0
  140.7072   75.9029  221.5200 H   0  0  0  0  0  0  0  0  0  0  0  0
  1  2  1  0
  2  3  1  0
  3  4  1  0
  4  5  2  0
  4  6  1  0
  6  7  1  0
  7  8  1  0
  8  9  2  0
  8 10  1  0
 10 11  2  0
 11 12  1  0
 12 13  2  0
 13 14  1  0
 14 15  2  0
 15 16  1  0
 16 17  2  0
 17 18  1  0
 18 19  2  0
  2 20  1  0
 20 21  2  0
 21 22  1  0
 22 23  2  0
 23 24  1  0
 24 25  1  0
 25 26  1  0
 26 27  1  0
 27 28  1  0
 28 29  1  0
 23 30  1  0
 30 31  2  0
 19 10  1  0
 31 20  1  0
 18 13  1  0
 29 25  1  0
  1 32  1  0
  1 33  1  0
  1 34  1  0
  2 35  1  1
  3 36  1  0
  6 37  1  0
  6 38  1  0
  7 39  1  0
 11 40  1  0
 12 41  1  0
 14 42  1  0
 15 43  1  0
 16 44  1  0
 17 45  1  0
 21 46  1  0
 22 47  1  0
 25 48  1  0
 26 49  1  0
 26 50  1  0
 27 51  1  0
 27 52  1  0
 28 53  1  0
 28 54  1  0
 29 55  1  0
 29 56  1  0
 30 57  1  0
 31 58  1  0
M  END
>  <smiles>  (87) 
CC(NC(=O)CNC(=O)c1ccc2ccccc2n1)c1ccc(OC2CCCC2)cc1

>  <score_type>  (87) 
oracle

>  <origin>  (87) 
autodockgpu

>  <m_score__min__energy>  (87) 
-8.6899999999999995

>  <m_primary>  (87) 
energy

>  <rmsd>  (87) 
5.065580588193505

>  <m_score__min__rmsd>  (87) 
5.065580588193505

>  <meeko>  (87) 
{"free_energy": -8.4, "intermolecular_energy": -10.49, "internal_energy": -2.03, "cluster_size": 31, "cluster_id": 1, "rank_in_cluster": 14}

>  <energy>  (87) 
-8.54

>  <cluster_rmsd>  (87) 
0.16

>  <cluster>  (87) 
2

$$$$

     RDKit          3D

 58 61  0  0  0  0  0  0  0  0999 V2000
  143.1810   73.7450  220.7610 C   0  0  0  0  0  0  0  0  0  0  0  0
  142.0640   74.3430  219.9350 C   0  0  1  0  0  0  0  0  0  0  0  0
  140.8440   73.6500  220.3510 N   0  0  0  0  0  0  0  0  0  0  0  0
  140.6160   72.3020  219.9660 C   0  0  0  0  0  0  0  0  0  0  0  0
  141.5020   71.7490  219.2620 O   0  0  0  0  0  0  0  0  0  0  0  0
  139.3730   71.6080  220.3950 C   0  0  0  0  0  0  0  0  0  0  0  0
  139.6280   71.0110  221.6830 N   0  0  0  0  0  0  0  0  0  0  0  0
  139.8720   71.7920  222.8400 C   0  0  0  0  0  0  0  0  0  0  0  0
  139.8600   73.0460  222.7130 O   0  0  0  0  0  0  0  0  0  0  0  0
  140.1280   71.1710  224.1350 C   0  0  0  0  0  0  0  0  0  0  0  0
  140.7720   71.8980  225.1130 C   0  0  0  0  0  0  0  0  0  0  0  0
  141.0580   71.3970  226.3670 C   0  0  0  0  0  0  0  0  0  0  0  0
  140.6730   70.0960  226.6380 C   0  0  0  0  0  0  0  0  0  0  0  0
  140.9530   69.5900  227.8840 C   0  0  0  0  0  0  0  0  0  0  0  0
  140.5740   68.2760  228.1810 C   0  0  0  0  0  0  0  0  0  0  0  0
  139.9220   67.5160  227.2100 C   0  0  0  0  0  0  0  0  0  0  0  0
  139.6630   68.0830  225.9650 C   0  0  0  0  0  0  0  0  0  0  0  0
  140.0290   69.3710  225.6550 C   0  0  0  0  0  0  0  0  0  0  0  0
  139.7650   69.9060  224.4270 N   0  0  0  0  0  0  0  0  0  0  0  0
  141.8690   75.7770  220.2110 C   0  0  0  0  0  0  0  0  0  0  0  0
  142.3860   76.7300  219.3580 C   0  0  0  0  0  0  0  0  0  0  0  0
  142.1790   78.0710  219.6550 C   0  0  0  0  0  0  0  0  0  0  0  0
  141.4800   78.4910  220.7640 C   0  0  0  0  0  0  0  0  0  0  0  0
  141.2450   79.7940  221.1070 O   0  0  0  0  0  0  0  0  0  0  0  0
  142.1800   80.6720  221.6790 C   0  0  0  0  0  0  0  0  0  0  0  0
  141.4270   81.6590  222.5590 C   0  0  0  0  0  0  0  0  0  0  0  0
  140.7710   80.6910  223.5450 C   0  0  0  0  0  0  0  0  0  0  0  0
  141.8970   79.7290  223.8450 C   0  0  0  0  0  0  0  0  0  0  0  0
  142.9180   79.8710  222.7500 C   0  0  0  0  0  0  0  0  0  0  0  0
  140.9760   77.5050  221.5970 C   0  0  0  0  0  0  0  0  0  0  0  0
  141.1770   76.1870  221.3080 C   0  0  0  0  0  0  0  0  0  0  0  0
  142.9525   73.8674  221.8300 H   0  0  0  0  0  0  0  0  0  0  0  0
  143.2776   72.6746  220.5269 H   0  0  0  0  0  0  0  0  0  0  0  0
  144.1254   74.2582  220.5269 H   0  0  0  0  0  0  0  0  0  0  0  0
  142.3027   74.2334  218.8668 H   0  0  0  0  0  0  0  0  0  0  0  0
  140.1180   74.1180  220.9350 H   0  0  0  0  0  0  0  0  0  0  0  0
  138.5479   72.3312  220.4737 H   0  0  0  0  0  0  0  0  0  0  0  0
  139.0883   70.8383  219.6625 H   0  0  0  0  0  0  0  0  0  0  0  0
  139.6410   69.9680  221.8000 H   0  0  0  0  0  0  0  0  0  0  0  0
  141.0735   72.9304  224.8824 H   0  0  0  0  0  0  0  0  0  0  0  0
  141.5726   72.0090  227.1224 H   0  0  0  0  0  0  0  0  0  0  0  0
  141.4666   70.2073  228.6358 H   0  0  0  0  0  0  0  0  0  0  0  0
  140.7883   67.8466  229.1708 H   0  0  0  0  0  0  0  0  0  0  0  0
  139.6162   66.4815  227.4252 H   0  0  0  0  0  0  0  0  0  0  0  0
  139.1477   67.4794  225.2033 H   0  0  0  0  0  0  0  0  0  0  0  0
  142.9504   76.4341  218.4614 H   0  0  0  0  0  0  0  0  0  0  0  0
  142.5916   78.8304  218.9744 H   0  0  0  0  0  0  0  0  0  0  0  0
  142.7945   81.1264  220.8879 H   0  0  0  0  0  0  0  0  0  0  0  0
  142.1096   82.3571  223.0656 H   0  0  0  0  0  0  0  0  0  0  0  0
  140.7280   82.3175  222.0226 H   0  0  0  0  0  0  0  0  0  0  0  0
  140.4390   81.2125  224.4548 H   0  0  0  0  0  0  0  0  0  0  0  0
  139.8673   80.2037  223.1502 H   0  0  0  0  0  0  0  0  0  0  0  0
  142.3516   79.9743  224.8162 H   0  0  0  0  0  0  0  0  0  0  0  0
  141.5214   78.6962  223.8924 H   0  0  0  0  0  0  0  0  0  0  0  0
  143.8049   80.4150  223.1070 H   0  0  0  0  0  0  0  0  0  0  0  0
  143.2903   78.9035  222.3821 H   0  0  0  0  0  0  0  0  0  0  0  0
  140.4101   77.7869  222.4972 H   0  0  0  0  0  0  0  0  0  0  0  0
  140.7639   75.4271  221.9877 H   0  0  0  0  0  0  0  0  0  0  0  0
  1  2  1  0
  2  3  1  0
  3  4  1  0
  4  5  2  0
  4  6  1  0
  6  7  1  0
  7  8  1  0
  8  9  2  0
  8 10  1  0
 10 11  2  0
 11 12  1  0
 12 13  2  0
 13 14  1  0
 14 15  2  0
 15 16  1  0
 16 17  2  0
 17 18  1  0
 18 19  2  0
  2 20  1  0
 20 21  2  0
 21 22  1  0
 22 23  2  0
 23 24  1  0
 24 25  1  0
 25 26  1  0
 26 27  1  0
 27 28  1  0
 28 29  1  0
 23 30  1  0
 30 31  2  0
 19 10  1  0
 31 20  1  0
 18 13  1  0
 29 25  1  0
  1 32  1  0
  1 33  1  0
  1 34  1  0
  2 35  1  6
  3 36  1  0
  6 37  1  0
  6 38  1  0
  7 39  1  0
 11 40  1  0
 12 41  1  0
 14 42  1  0
 15 43  1  0
 16 44  1  0
 17 45  1  0
 21 46  1  0
 22 47  1  0
 25 48  1  0
 26 49  1  0
 26 50  1  0
 27 51  1  0
 27 52  1  0
 28 53  1  0
 28 54  1  0
 29 55  1  0
 29 56  1  0
 30 57  1  0
 31 58  1  0
M  END
>  <smiles>  (88) 
CC(NC(=O)CNC(=O)c1ccc2ccccc2n1)c1ccc(OC2CCCC2)cc1

>  <score_type>  (88) 
oracle

>  <origin>  (88) 
autodockgpu

>  <m_score__min__energy>  (88) 
-8.6899999999999995

>  <m_primary>  (88) 
energy

>  <rmsd>  (88) 
5.1106304323464835

>  <m_score__min__rmsd>  (88) 
5.1106304323464835

>  <meeko>  (88) 
{"free_energy": -8.5, "intermolecular_energy": -10.59, "internal_energy": -2.29, "cluster_size": 31, "cluster_id": 1, "rank_in_cluster": 9}

>  <energy>  (88) 
-8.54

>  <cluster_rmsd>  (88) 
0.25

>  <cluster>  (88) 
2

$$$$

     RDKit          3D

 58 61  0  0  0  0  0  0  0  0999 V2000
  143.6340   73.2680  220.7670 C   0  0  0  0  0  0  0  0  0  0  0  0
  142.3950   73.7830  220.0690 C   0  0  1  0  0  0  0  0  0  0  0  0
  141.2940   72.9380  220.5320 N   0  0  0  0  0  0  0  0  0  0  0  0
  140.7740   71.9120  219.6980 C   0  0  0  0  0  0  0  0  0  0  0  0
  141.3010   71.7750  218.5620 O   0  0  0  0  0  0  0  0  0  0  0  0
  139.6560   71.0590  220.1800 C   0  0  0  0  0  0  0  0  0  0  0  0
  139.9740   70.6380  221.5220 N   0  0  0  0  0  0  0  0  0  0  0  0
  139.6940   71.4460  222.6510 C   0  0  0  0  0  0  0  0  0  0  0  0
  139.1480   72.5640  222.4500 O   0  0  0  0  0  0  0  0  0  0  0  0
  140.0240   71.0040  224.0010 C   0  0  0  0  0  0  0  0  0  0  0  0
  140.7010   71.8610  224.8430 C   0  0  0  0  0  0  0  0  0  0  0  0
  141.0560   71.5330  226.1350 C   0  0  0  0  0  0  0  0  0  0  0  0
  140.7070   70.2750  226.5940 C   0  0  0  0  0  0  0  0  0  0  0  0
  141.0560   69.9400  227.8790 C   0  0  0  0  0  0  0  0  0  0  0  0
  140.7150   68.6730  228.3650 C   0  0  0  0  0  0  0  0  0  0  0  0
  140.0300   67.7840  227.5370 C   0  0  0  0  0  0  0  0  0  0  0  0
  139.7010   68.1800  226.2420 C   0  0  0  0  0  0  0  0  0  0  0  0
  140.0300   69.4200  225.7480 C   0  0  0  0  0  0  0  0  0  0  0  0
  139.6970   69.7850  224.4750 N   0  0  0  0  0  0  0  0  0  0  0  0
  142.0730   75.1690  220.4490 C   0  0  0  0  0  0  0  0  0  0  0  0
  142.5970   76.2280  219.7370 C   0  0  0  0  0  0  0  0  0  0  0  0
  142.2670   77.5210  220.1290 C   0  0  0  0  0  0  0  0  0  0  0  0
  141.4400   77.7890  221.1950 C   0  0  0  0  0  0  0  0  0  0  0  0
  141.0810   79.0360  221.6260 O   0  0  0  0  0  0  0  0  0  0  0  0
  141.8740   80.1930  221.5420 C   0  0  0  0  0  0  0  0  0  0  0  0
  141.0800   81.3550  222.1190 C   0  0  0  0  0  0  0  0  0  0  0  0
  140.8460   80.8410  223.5400 C   0  0  0  0  0  0  0  0  0  0  0  0
  142.1970   80.2690  223.8980 C   0  0  0  0  0  0  0  0  0  0  0  0
  142.9520   80.0490  222.6150 C   0  0  0  0  0  0  0  0  0  0  0  0
  140.9330   76.6990  221.8850 C   0  0  0  0  0  0  0  0  0  0  0  0
  141.2540   75.4300  221.5030 C   0  0  0  0  0  0  0  0  0  0  0  0
  143.4924   73.3269  221.8563 H   0  0  0  0  0  0  0  0  0  0  0  0
  143.8106   72.2219  220.4762 H   0  0  0  0  0  0  0  0  0  0  0  0
  144.5001   73.8806  220.4762 H   0  0  0  0  0  0  0  0  0  0  0  0
  142.5546   73.7588  218.9809 H   0  0  0  0  0  0  0  0  0  0  0  0
  140.8660   73.0600  221.4750 H   0  0  0  0  0  0  0  0  0  0  0  0
  138.7185   71.6345  220.1799 H   0  0  0  0  0  0  0  0  0  0  0  0
  139.5256   70.1866  219.5228 H   0  0  0  0  0  0  0  0  0  0  0  0
  140.4290   69.7090  221.7010 H   0  0  0  0  0  0  0  0  0  0  0  0
  140.9720   72.8578  224.4648 H   0  0  0  0  0  0  0  0  0  0  0  0
  141.5963   72.2448  226.7764 H   0  0  0  0  0  0  0  0  0  0  0  0
  141.5951   70.6564  228.5163 H   0  0  0  0  0  0  0  0  0  0  0  0
  140.9847   68.3808  229.3906 H   0  0  0  0  0  0  0  0  0  0  0  0
  139.7531   66.7837  227.9012 H   0  0  0  0  0  0  0  0  0  0  0  0
  139.1595   67.4762  225.5928 H   0  0  0  0  0  0  0  0  0  0  0  0
  143.2614   76.0536  218.8779 H   0  0  0  0  0  0  0  0  0  0  0  0
  142.6854   78.3657  219.5621 H   0  0  0  0  0  0  0  0  0  0  0  0
  142.2193   80.3324  220.5069 H   0  0  0  0  0  0  0  0  0  0  0  0
  141.6615   82.2887  222.1137 H   0  0  0  0  0  0  0  0  0  0  0  0
  140.1656   81.6110  221.5637 H   0  0  0  0  0  0  0  0  0  0  0  0
  140.5666   81.6597  224.2195 H   0  0  0  0  0  0  0  0  0  0  0  0
  140.0239   80.1142  223.6172 H   0  0  0  0  0  0  0  0  0  0  0  0
  142.7451   80.9747  224.5396 H   0  0  0  0  0  0  0  0  0  0  0  0
  142.0829   79.3223  224.4464 H   0  0  0  0  0  0  0  0  0  0  0  0
  143.7392   80.8065  222.4865 H   0  0  0  0  0  0  0  0  0  0  0  0
  143.4662   79.0772  222.5800 H   0  0  0  0  0  0  0  0  0  0  0  0
  140.2675   76.8587  222.7462 H   0  0  0  0  0  0  0  0  0  0  0  0
  140.8345   74.5851  222.0689 H   0  0  0  0  0  0  0  0  0  0  0  0
  1  2  1  0
  2  3  1  0
  3  4  1  0
  4  5  2  0
  4  6  1  0
  6  7  1  0
  7  8  1  0
  8  9  2  0
  8 10  1  0
 10 11  2  0
 11 12  1  0
 12 13  2  0
 13 14  1  0
 14 15  2  0
 15 16  1  0
 16 17  2  0
 17 18  1  0
 18 19  2  0
  2 20  1  0
 20 21  2  0
 21 22  1  0
 22 23  2  0
 23 24  1  0
 24 25  1  0
 25 26  1  0
 26 27  1  0
 27 28  1  0
 28 29  1  0
 23 30  1  0
 30 31  2  0
 19 10  1  0
 31 20  1  0
 18 13  1  0
 29 25  1  0
  1 32  1  0
  1 33  1  0
  1 34  1  0
  2 35  1  6
  3 36  1  0
  6 37  1  0
  6 38  1  0
  7 39  1  0
 11 40  1  0
 12 41  1  0
 14 42  1  0
 15 43  1  0
 16 44  1  0
 17 45  1  0
 21 46  1  0
 22 47  1  0
 25 48  1  0
 26 49  1  0
 26 50  1  0
 27 51  1  0
 27 52  1  0
 28 53  1  0
 28 54  1  0
 29 55  1  0
 29 56  1  0
 30 57  1  0
 31 58  1  0
M  END
>  <smiles>  (89) 
CC(NC(=O)CNC(=O)c1ccc2ccccc2n1)c1ccc(OC2CCCC2)cc1

>  <score_type>  (89) 
oracle

>  <origin>  (89) 
autodockgpu

>  <m_score__min__energy>  (89) 
-8.6899999999999995

>  <m_primary>  (89) 
energy

>  <rmsd>  (89) 
5.491294006019368

>  <m_score__min__rmsd>  (89) 
5.491294006019368

>  <meeko>  (89) 
{"free_energy": -8.2, "intermolecular_energy": -10.29, "internal_energy": -2.31, "cluster_size": 31, "cluster_id": 1, "rank_in_cluster": 24}

>  <energy>  (89) 
-8.54

>  <cluster_rmsd>  (89) 
0.47

>  <cluster>  (89) 
2

$$$$

     RDKit          3D

 58 61  0  0  0  0  0  0  0  0999 V2000
  142.5770   73.0160  220.0240 C   0  0  0  0  0  0  0  0  0  0  0  0
  141.2940   73.7960  219.8360 C   0  0  1  0  0  0  0  0  0  0  0  0
  140.2560   73.0310  220.5270 N   0  0  0  0  0  0  0  0  0  0  0  0
  138.8830   73.3330  220.3220 C   0  0  0  0  0  0  0  0  0  0  0  0
  138.6160   74.2760  219.5300 O   0  0  0  0  0  0  0  0  0  0  0  0
  137.8370   72.5490  221.0290 C   0  0  0  0  0  0  0  0  0  0  0  0
  138.3190   72.2780  222.3610 N   0  0  0  0  0  0  0  0  0  0  0  0
  139.1550   71.1710  222.6480 C   0  0  0  0  0  0  0  0  0  0  0  0
  139.4750   70.4150  221.6920 O   0  0  0  0  0  0  0  0  0  0  0  0
  139.6330   70.9120  224.0020 C   0  0  0  0  0  0  0  0  0  0  0  0
  140.4040   71.8640  224.6360 C   0  0  0  0  0  0  0  0  0  0  0  0
  140.9000   71.7100  225.9140 C   0  0  0  0  0  0  0  0  0  0  0  0
  140.6010   70.5330  226.5790 C   0  0  0  0  0  0  0  0  0  0  0  0
  141.0910   70.3720  227.8510 C   0  0  0  0  0  0  0  0  0  0  0  0
  140.8020   69.1900  228.5430 C   0  0  0  0  0  0  0  0  0  0  0  0
  140.0250   68.2090  227.9270 C   0  0  0  0  0  0  0  0  0  0  0  0
  139.5550   68.4300  226.6340 C   0  0  0  0  0  0  0  0  0  0  0  0
  139.8300   69.5830  225.9400 C   0  0  0  0  0  0  0  0  0  0  0  0
  139.3570   69.7760  224.6730 N   0  0  0  0  0  0  0  0  0  0  0  0
  141.3510   75.1270  220.4670 C   0  0  0  0  0  0  0  0  0  0  0  0
  141.7710   76.2240  219.7450 C   0  0  0  0  0  0  0  0  0  0  0  0
  141.8090   77.4610  220.3770 C   0  0  0  0  0  0  0  0  0  0  0  0
  141.4440   77.6380  221.6920 C   0  0  0  0  0  0  0  0  0  0  0  0
  141.4610   78.8280  222.3670 O   0  0  0  0  0  0  0  0  0  0  0  0
  142.5460   79.7190  222.4320 C   0  0  0  0  0  0  0  0  0  0  0  0
  142.1970   80.9510  221.6100 C   0  0  0  0  0  0  0  0  0  0  0  0
  140.9410   81.4180  222.3460 C   0  0  0  0  0  0  0  0  0  0  0  0
  141.3390   81.2520  223.7940 C   0  0  0  0  0  0  0  0  0  0  0  0
  142.5200   80.3200  223.8360 C   0  0  0  0  0  0  0  0  0  0  0  0
  141.0270   76.5120  222.3840 C   0  0  0  0  0  0  0  0  0  0  0  0
  140.9890   75.2970  221.7660 C   0  0  0  0  0  0  0  0  0  0  0  0
  142.7778   72.8939  221.0986 H   0  0  0  0  0  0  0  0  0  0  0  0
  142.4764   72.0261  219.5550 H   0  0  0  0  0  0  0  0  0  0  0  0
  143.4095   73.5610  219.5550 H   0  0  0  0  0  0  0  0  0  0  0  0
  141.1084   73.9381  218.7611 H   0  0  0  0  0  0  0  0  0  0  0  0
  140.4890   72.2530  221.1800 H   0  0  0  0  0  0  0  0  0  0  0  0
  136.9036   73.1288  221.0789 H   0  0  0  0  0  0  0  0  0  0  0  0
  137.6317   71.6097  220.4945 H   0  0  0  0  0  0  0  0  0  0  0  0
  138.0590   72.9010  223.1650 H   0  0  0  0  0  0  0  0  0  0  0  0
  140.6352   72.7934  224.0949 H   0  0  0  0  0  0  0  0  0  0  0  0
  141.5104   72.4933  226.3872 H   0  0  0  0  0  0  0  0  0  0  0  0
  141.7008   71.1589  228.3189 H   0  0  0  0  0  0  0  0  0  0  0  0
  141.1841   69.0363  229.5630 H   0  0  0  0  0  0  0  0  0  0  0  0
  139.7865   67.2738  228.4547 H   0  0  0  0  0  0  0  0  0  0  0  0
  138.9422   67.6539  226.1522 H   0  0  0  0  0  0  0  0  0  0  0  0
  142.0696   76.1222  218.6912 H   0  0  0  0  0  0  0  0  0  0  0  0
  142.1452   78.3361  219.8016 H   0  0  0  0  0  0  0  0  0  0  0  0
  143.4694   79.2029  222.1303 H   0  0  0  0  0  0  0  0  0  0  0  0
  142.9961   81.7060  221.6476 H   0  0  0  0  0  0  0  0  0  0  0  0
  142.0603   80.7654  220.5344 H   0  0  0  0  0  0  0  0  0  0  0  0
  140.7099   82.4681  222.1138 H   0  0  0  0  0  0  0  0  0  0  0  0
  140.0344   80.8592  222.0705 H   0  0  0  0  0  0  0  0  0  0  0  0
  141.6151   82.2272  224.2215 H   0  0  0  0  0  0  0  0  0  0  0  0
  140.5029   80.8436  224.3807 H   0  0  0  0  0  0  0  0  0  0  0  0
  143.4488   80.8707  224.0458 H   0  0  0  0  0  0  0  0  0  0  0  0
  142.4397   79.5601  224.6273 H   0  0  0  0  0  0  0  0  0  0  0  0
  140.7248   76.5989  223.4381 H   0  0  0  0  0  0  0  0  0  0  0  0
  140.6526   74.4213  222.3406 H   0  0  0  0  0  0  0  0  0  0  0  0
  1  2  1  0
  2  3  1  0
  3  4  1  0
  4  5  2  0
  4  6  1  0
  6  7  1  0
  7  8  1  0
  8  9  2  0
  8 10  1  0
 10 11  2  0
 11 12  1  0
 12 13  2  0
 13 14  1  0
 14 15  2  0
 15 16  1  0
 16 17  2  0
 17 18  1  0
 18 19  2  0
  2 20  1  0
 20 21  2  0
 21 22  1  0
 22 23  2  0
 23 24  1  0
 24 25  1  0
 25 26  1  0
 26 27  1  0
 27 28  1  0
 28 29  1  0
 23 30  1  0
 30 31  2  0
 19 10  1  0
 31 20  1  0
 18 13  1  0
 29 25  1  0
  1 32  1  0
  1 33  1  0
  1 34  1  0
  2 35  1  6
  3 36  1  0
  6 37  1  0
  6 38  1  0
  7 39  1  0
 11 40  1  0
 12 41  1  0
 14 42  1  0
 15 43  1  0
 16 44  1  0
 17 45  1  0
 21 46  1  0
 22 47  1  0
 25 48  1  0
 26 49  1  0
 26 50  1  0
 27 51  1  0
 27 52  1  0
 28 53  1  0
 28 54  1  0
 29 55  1  0
 29 56  1  0
 30 57  1  0
 31 58  1  0
M  END
>  <smiles>  (90) 
CC(NC(=O)CNC(=O)c1ccc2ccccc2n1)c1ccc(OC2CCCC2)cc1

>  <score_type>  (90) 
oracle

>  <origin>  (90) 
autodockgpu

>  <m_score__min__energy>  (90) 
-8.6899999999999995

>  <m_primary>  (90) 
energy

>  <rmsd>  (90) 
5.663703516523191

>  <m_score__min__rmsd>  (90) 
5.663703516523191

>  <meeko>  (90) 
{"free_energy": -8.15, "intermolecular_energy": -10.24, "internal_energy": -2.22, "cluster_size": 31, "cluster_id": 1, "rank_in_cluster": 28}

>  <energy>  (90) 
-8.47

>  <cluster_rmsd>  (90) 
0.3

>  <cluster>  (90) 
2

$$$$

     RDKit          3D

 58 61  0  0  0  0  0  0  0  0999 V2000
  142.6710   73.1590  220.3560 C   0  0  0  0  0  0  0  0  0  0  0  0
  141.4410   73.9510  219.9730 C   0  0  1  0  0  0  0  0  0  0  0  0
  140.3050   73.2260  220.5430 N   0  0  0  0  0  0  0  0  0  0  0  0
  138.9770   73.6810  220.3210 C   0  0  0  0  0  0  0  0  0  0  0  0
  138.8360   74.7190  219.6220 O   0  0  0  0  0  0  0  0  0  0  0  0
  137.8300   72.9360  220.9050 C   0  0  0  0  0  0  0  0  0  0  0  0
  138.2310   72.4680  222.2090 N   0  0  0  0  0  0  0  0  0  0  0  0
  138.9590   71.2650  222.3850 C   0  0  0  0  0  0  0  0  0  0  0  0
  139.2530   70.6010  221.3550 O   0  0  0  0  0  0  0  0  0  0  0  0
  139.3550   70.8060  223.7120 C   0  0  0  0  0  0  0  0  0  0  0  0
  139.0690   69.5110  224.0880 C   0  0  0  0  0  0  0  0  0  0  0  0
  139.4040   68.9870  225.3200 C   0  0  0  0  0  0  0  0  0  0  0  0
  140.0600   69.8180  226.2110 C   0  0  0  0  0  0  0  0  0  0  0  0
  140.3980   69.3050  227.4390 C   0  0  0  0  0  0  0  0  0  0  0  0
  141.0610   70.1270  228.3570 C   0  0  0  0  0  0  0  0  0  0  0  0
  141.3630   71.4420  228.0040 C   0  0  0  0  0  0  0  0  0  0  0  0
  140.9970   71.9070  226.7440 C   0  0  0  0  0  0  0  0  0  0  0  0
  140.3440   71.1140  225.8300 C   0  0  0  0  0  0  0  0  0  0  0  0
  139.9950   71.5930  224.6000 N   0  0  0  0  0  0  0  0  0  0  0  0
  141.4390   75.3010  220.5620 C   0  0  0  0  0  0  0  0  0  0  0  0
  140.9950   75.5000  221.8530 C   0  0  0  0  0  0  0  0  0  0  0  0
  141.0110   76.7900  222.3700 C   0  0  0  0  0  0  0  0  0  0  0  0
  141.4510   77.8770  221.6510 C   0  0  0  0  0  0  0  0  0  0  0  0
  141.4890   79.1670  222.1060 O   0  0  0  0  0  0  0  0  0  0  0  0
  141.5040   79.5600  223.4550 C   0  0  0  0  0  0  0  0  0  0  0  0
  142.1690   80.9260  223.5430 C   0  0  0  0  0  0  0  0  0  0  0  0
  141.2310   81.7380  222.6490 C   0  0  0  0  0  0  0  0  0  0  0  0
  139.8700   81.2510  223.0870 C   0  0  0  0  0  0  0  0  0  0  0  0
  140.0660   79.9420  223.8030 C   0  0  0  0  0  0  0  0  0  0  0  0
  141.8900   77.6380  220.3590 C   0  0  0  0  0  0  0  0  0  0  0  0
  141.8760   76.3730  219.8480 C   0  0  0  0  0  0  0  0  0  0  0  0
  142.7484   73.1092  221.4521 H   0  0  0  0  0  0  0  0  0  0  0  0
  142.5934   72.1407  219.9472 H   0  0  0  0  0  0  0  0  0  0  0  0
  143.5659   73.6510  219.9472 H   0  0  0  0  0  0  0  0  0  0  0  0
  141.4036   74.0587  218.8789 H   0  0  0  0  0  0  0  0  0  0  0  0
  140.4340   72.3680  221.1190 H   0  0  0  0  0  0  0  0  0  0  0  0
  136.9588   73.6012  220.9970 H   0  0  0  0  0  0  0  0  0  0  0  0
  137.5513   72.0895  220.2602 H   0  0  0  0  0  0  0  0  0  0  0  0
  137.9920   73.0120  223.0730 H   0  0  0  0  0  0  0  0  0  0  0  0
  138.5471   68.8621  223.3693 H   0  0  0  0  0  0  0  0  0  0  0  0
  139.1587   67.9477  225.5838 H   0  0  0  0  0  0  0  0  0  0  0  0
  140.1515   68.2645  227.6970 H   0  0  0  0  0  0  0  0  0  0  0  0
  141.3413   69.7397  229.3477 H   0  0  0  0  0  0  0  0  0  0  0  0
  141.8838   72.1033  228.7122 H   0  0  0  0  0  0  0  0  0  0  0  0
  141.2385   72.9446  226.4701 H   0  0  0  0  0  0  0  0  0  0  0  0
  140.6360   74.6558  222.4601 H   0  0  0  0  0  0  0  0  0  0  0  0
  140.6563   76.9487  223.3991 H   0  0  0  0  0  0  0  0  0  0  0  0
  141.9705   78.7734  224.0663 H   0  0  0  0  0  0  0  0  0  0  0  0
  142.1816   81.3079  224.5745 H   0  0  0  0  0  0  0  0  0  0  0  0
  143.2269   80.9458  223.2423 H   0  0  0  0  0  0  0  0  0  0  0  0
  141.3448   82.8173  222.8280 H   0  0  0  0  0  0  0  0  0  0  0  0
  141.4219   81.6055  221.5738 H   0  0  0  0  0  0  0  0  0  0  0  0
  139.4091   81.9844  223.7650 H   0  0  0  0  0  0  0  0  0  0  0  0
  139.2072   81.1218  222.2187 H   0  0  0  0  0  0  0  0  0  0  0  0
  139.9433   80.0652  224.8892 H   0  0  0  0  0  0  0  0  0  0  0  0
  139.3343   79.1762  223.5059 H   0  0  0  0  0  0  0  0  0  0  0  0
  142.2520   78.4731  219.7413 H   0  0  0  0  0  0  0  0  0  0  0  0
  142.2317   76.2140  218.8193 H   0  0  0  0  0  0  0  0  0  0  0  0
  1  2  1  0
  2  3  1  0
  3  4  1  0
  4  5  2  0
  4  6  1  0
  6  7  1  0
  7  8  1  0
  8  9  2  0
  8 10  1  0
 10 11  2  0
 11 12  1  0
 12 13  2  0
 13 14  1  0
 14 15  2  0
 15 16  1  0
 16 17  2  0
 17 18  1  0
 18 19  2  0
  2 20  1  0
 20 21  2  0
 21 22  1  0
 22 23  2  0
 23 24  1  0
 24 25  1  0
 25 26  1  0
 26 27  1  0
 27 28  1  0
 28 29  1  0
 23 30  1  0
 30 31  2  0
 19 10  1  0
 31 20  1  0
 18 13  1  0
 29 25  1  0
  1 32  1  0
  1 33  1  0
  1 34  1  0
  2 35  1  6
  3 36  1  0
  6 37  1  0
  6 38  1  0
  7 39  1  0
 11 40  1  0
 12 41  1  0
 14 42  1  0
 15 43  1  0
 16 44  1  0
 17 45  1  0
 21 46  1  0
 22 47  1  0
 25 48  1  0
 26 49  1  0
 26 50  1  0
 27 51  1  0
 27 52  1  0
 28 53  1  0
 28 54  1  0
 29 55  1  0
 29 56  1  0
 30 57  1  0
 31 58  1  0
M  END
>  <smiles>  (91) 
CC(NC(=O)CNC(=O)c1ccc2ccccc2n1)c1ccc(OC2CCCC2)cc1

>  <score_type>  (91) 
oracle

>  <origin>  (91) 
autodockgpu

>  <m_score__min__energy>  (91) 
-8.6899999999999995

>  <m_primary>  (91) 
energy

>  <rmsd>  (91) 
5.5383758730179

>  <m_score__min__rmsd>  (91) 
5.5383758730179

>  <meeko>  (91) 
{"free_energy": -8.22, "intermolecular_energy": -10.31, "internal_energy": -2.2, "cluster_size": 31, "cluster_id": 1, "rank_in_cluster": 22}

>  <energy>  (91) 
-8.44

>  <cluster_rmsd>  (91) 
0.71

>  <cluster>  (91) 
2

$$$$

     RDKit          3D

 58 61  0  0  0  0  0  0  0  0999 V2000
  137.7190   76.5350  222.7250 C   0  0  0  0  0  0  0  0  0  0  0  0
  136.9090   75.3070  222.3780 C   0  0  1  0  0  0  0  0  0  0  0  0
  137.8820   74.2520  222.0950 N   0  0  0  0  0  0  0  0  0  0  0  0
  137.7130   73.3980  220.9720 C   0  0  0  0  0  0  0  0  0  0  0  0
  136.6990   73.5960  220.2500 O   0  0  0  0  0  0  0  0  0  0  0  0
  138.7090   72.3300  220.6940 C   0  0  0  0  0  0  0  0  0  0  0  0
  138.9200   71.6000  221.9200 N   0  0  0  0  0  0  0  0  0  0  0  0
  139.8350   72.0390  222.9090 C   0  0  0  0  0  0  0  0  0  0  0  0
  140.4720   73.1040  222.6870 O   0  0  0  0  0  0  0  0  0  0  0  0
  140.0370   71.2880  224.1430 C   0  0  0  0  0  0  0  0  0  0  0  0
  140.7400   71.8690  225.1760 C   0  0  0  0  0  0  0  0  0  0  0  0
  140.9820   71.2390  226.3790 C   0  0  0  0  0  0  0  0  0  0  0  0
  140.4860   69.9570  226.5390 C   0  0  0  0  0  0  0  0  0  0  0  0
  140.7210   69.3210  227.7340 C   0  0  0  0  0  0  0  0  0  0  0  0
  140.2300   68.0240  227.9190 C   0  0  0  0  0  0  0  0  0  0  0  0
  139.5150   67.4100  226.8910 C   0  0  0  0  0  0  0  0  0  0  0  0
  139.3070   68.1040  225.7020 C   0  0  0  0  0  0  0  0  0  0  0  0
  139.7830   69.3780  225.5020 C   0  0  0  0  0  0  0  0  0  0  0  0
  139.5660   70.0380  224.3260 N   0  0  0  0  0  0  0  0  0  0  0  0
  136.0790   74.8460  223.5050 C   0  0  0  0  0  0  0  0  0  0  0  0
  135.6030   75.7470  224.4360 C   0  0  0  0  0  0  0  0  0  0  0  0
  134.8240   75.2700  225.4830 C   0  0  0  0  0  0  0  0  0  0  0  0
  134.5050   73.9400  225.6310 C   0  0  0  0  0  0  0  0  0  0  0  0
  133.7430   73.4140  226.6380 O   0  0  0  0  0  0  0  0  0  0  0  0
  132.4670   72.8450  226.4900 C   0  0  0  0  0  0  0  0  0  0  0  0
  131.6480   73.1920  227.7250 C   0  0  0  0  0  0  0  0  0  0  0  0
  131.6820   74.7190  227.6490 C   0  0  0  0  0  0  0  0  0  0  0  0
  131.4430   74.9710  226.1790 C   0  0  0  0  0  0  0  0  0  0  0  0
  131.7420   73.6920  225.4450 C   0  0  0  0  0  0  0  0  0  0  0  0
  135.0000   73.0660  224.6760 C   0  0  0  0  0  0  0  0  0  0  0  0
  135.7650   73.5310  223.6470 C   0  0  0  0  0  0  0  0  0  0  0  0
  137.7844   76.6342  223.8186 H   0  0  0  0  0  0  0  0  0  0  0  0
  138.7308   76.4378  222.3045 H   0  0  0  0  0  0  0  0  0  0  0  0
  137.2313   77.4268  222.3045 H   0  0  0  0  0  0  0  0  0  0  0  0
  136.2392   75.5397  221.5370 H   0  0  0  0  0  0  0  0  0  0  0  0
  138.7180   74.0990  222.6990 H   0  0  0  0  0  0  0  0  0  0  0  0
  138.3260   71.6534  219.9158 H   0  0  0  0  0  0  0  0  0  0  0  0
  139.6535   72.7663  220.3370 H   0  0  0  0  0  0  0  0  0  0  0  0
  138.3960   70.7130  222.1150 H   0  0  0  0  0  0  0  0  0  0  0  0
  141.1284   72.8883  225.0338 H   0  0  0  0  0  0  0  0  0  0  0  0
  141.5476   71.7366  227.1805 H   0  0  0  0  0  0  0  0  0  0  0  0
  141.2863   69.8236  228.5327 H   0  0  0  0  0  0  0  0  0  0  0  0
  140.4063   67.4935  228.8664 H   0  0  0  0  0  0  0  0  0  0  0  0
  139.1206   66.3910  227.0179 H   0  0  0  0  0  0  0  0  0  0  0  0
  138.7420   67.6157  224.8944 H   0  0  0  0  0  0  0  0  0  0  0  0
  135.8352   76.8188  224.3510 H   0  0  0  0  0  0  0  0  0  0  0  0
  134.4457   75.9873  226.2262 H   0  0  0  0  0  0  0  0  0  0  0  0
  132.5615   71.7696  226.2790 H   0  0  0  0  0  0  0  0  0  0  0  0
  130.6214   72.8030  227.6561 H   0  0  0  0  0  0  0  0  0  0  0  0
  132.0278   72.7674  228.6660 H   0  0  0  0  0  0  0  0  0  0  0  0
  130.8879   75.1667  228.2646 H   0  0  0  0  0  0  0  0  0  0  0  0
  132.6170   75.1590  228.0260 H   0  0  0  0  0  0  0  0  0  0  0  0
  130.3953   75.2625  226.0137 H   0  0  0  0  0  0  0  0  0  0  0  0
  132.0877   75.7851  225.8162 H   0  0  0  0  0  0  0  0  0  0  0  0
  130.8144   73.2013  225.1153 H   0  0  0  0  0  0  0  0  0  0  0  0
  132.3359   73.8493  224.5326 H   0  0  0  0  0  0  0  0  0  0  0  0
  134.7747   71.9917  224.7483 H   0  0  0  0  0  0  0  0  0  0  0  0
  136.1426   72.8141  222.9031 H   0  0  0  0  0  0  0  0  0  0  0  0
  1  2  1  0
  2  3  1  0
  3  4  1  0
  4  5  2  0
  4  6  1  0
  6  7  1  0
  7  8  1  0
  8  9  2  0
  8 10  1  0
 10 11  2  0
 11 12  1  0
 12 13  2  0
 13 14  1  0
 14 15  2  0
 15 16  1  0
 16 17  2  0
 17 18  1  0
 18 19  2  0
  2 20  1  0
 20 21  2  0
 21 22  1  0
 22 23  2  0
 23 24  1  0
 24 25  1  0
 25 26  1  0
 26 27  1  0
 27 28  1  0
 28 29  1  0
 23 30  1  0
 30 31  2  0
 19 10  1  0
 31 20  1  0
 18 13  1  0
 29 25  1  0
  1 32  1  0
  1 33  1  0
  1 34  1  0
  2 35  1  6
  3 36  1  0
  6 37  1  0
  6 38  1  0
  7 39  1  0
 11 40  1  0
 12 41  1  0
 14 42  1  0
 15 43  1  0
 16 44  1  0
 17 45  1  0
 21 46  1  0
 22 47  1  0
 25 48  1  0
 26 49  1  0
 26 50  1  0
 27 51  1  0
 27 52  1  0
 28 53  1  0
 28 54  1  0
 29 55  1  0
 29 56  1  0
 30 57  1  0
 31 58  1  0
M  END
>  <smiles>  (92) 
CC(NC(=O)CNC(=O)c1ccc2ccccc2n1)c1ccc(OC2CCCC2)cc1

>  <score_type>  (92) 
oracle

>  <origin>  (92) 
autodockgpu

>  <m_score__min__energy>  (92) 
-8.6899999999999995

>  <m_primary>  (92) 
energy

>  <rmsd>  (92) 
7.260095535514974

>  <m_score__min__rmsd>  (92) 
7.260095535514974

>  <meeko>  (92) 
{"free_energy": -8.37, "intermolecular_energy": -10.46, "internal_energy": -2.55, "cluster_size": 15, "cluster_id": 2, "rank_in_cluster": 13}

>  <energy>  (92) 
-8.42

>  <cluster_rmsd>  (92) 
0.74

>  <cluster>  (92) 
2

$$$$

     RDKit          3D

 58 61  0  0  0  0  0  0  0  0999 V2000
  137.8570   76.2380  222.4400 C   0  0  0  0  0  0  0  0  0  0  0  0
  137.0220   75.0060  222.1710 C   0  0  1  0  0  0  0  0  0  0  0  0
  137.9750   73.9140  221.9680 N   0  0  0  0  0  0  0  0  0  0  0  0
  138.1180   73.3140  220.6880 C   0  0  0  0  0  0  0  0  0  0  0  0
  137.3950   73.7640  219.7600 O   0  0  0  0  0  0  0  0  0  0  0  0
  139.0900   72.2050  220.4930 C   0  0  0  0  0  0  0  0  0  0  0  0
  139.2140   71.5070  221.7490 N   0  0  0  0  0  0  0  0  0  0  0  0
  140.0390   71.9850  222.7970 C   0  0  0  0  0  0  0  0  0  0  0  0
  140.6750   73.0550  222.6010 O   0  0  0  0  0  0  0  0  0  0  0  0
  140.1540   71.2650  224.0600 C   0  0  0  0  0  0  0  0  0  0  0  0
  140.7510   71.8860  225.1360 C   0  0  0  0  0  0  0  0  0  0  0  0
  140.9050   71.2870  226.3700 C   0  0  0  0  0  0  0  0  0  0  0  0
  140.4290   69.9960  226.5170 C   0  0  0  0  0  0  0  0  0  0  0  0
  140.5770   69.3920  227.7410 C   0  0  0  0  0  0  0  0  0  0  0  0
  140.1040   68.0870  227.9140 C   0  0  0  0  0  0  0  0  0  0  0  0
  139.4950   67.4320  226.8430 C   0  0  0  0  0  0  0  0  0  0  0  0
  139.3720   68.0960  225.6250 C   0  0  0  0  0  0  0  0  0  0  0  0
  139.8320   69.3780  225.4370 C   0  0  0  0  0  0  0  0  0  0  0  0
  139.7000   70.0070  224.2320 N   0  0  0  0  0  0  0  0  0  0  0  0
  136.1770   74.6410  223.3220 C   0  0  0  0  0  0  0  0  0  0  0  0
  135.7830   75.6010  224.2310 C   0  0  0  0  0  0  0  0  0  0  0  0
  134.9850   75.2140  225.3010 C   0  0  0  0  0  0  0  0  0  0  0  0
  134.5700   73.9160  225.4920 C   0  0  0  0  0  0  0  0  0  0  0  0
  133.7870   73.4770  226.5240 O   0  0  0  0  0  0  0  0  0  0  0  0
  132.4750   72.9860  226.4060 C   0  0  0  0  0  0  0  0  0  0  0  0
  131.7080   73.3790  227.6600 C   0  0  0  0  0  0  0  0  0  0  0  0
  131.8310   74.9010  227.5840 C   0  0  0  0  0  0  0  0  0  0  0  0
  131.5720   75.1690  226.1200 C   0  0  0  0  0  0  0  0  0  0  0  0
  131.7780   73.8760  225.3790 C   0  0  0  0  0  0  0  0  0  0  0  0
  134.9860   72.9810  224.5580 C   0  0  0  0  0  0  0  0  0  0  0  0
  135.7690   73.3570  223.5060 C   0  0  0  0  0  0  0  0  0  0  0  0
  137.9559   76.3840  223.5258 H   0  0  0  0  0  0  0  0  0  0  0  0
  138.8546   76.1091  221.9949 H   0  0  0  0  0  0  0  0  0  0  0  0
  137.3677   77.1169  221.9949 H   0  0  0  0  0  0  0  0  0  0  0  0
  136.3618   75.1938  221.3114 H   0  0  0  0  0  0  0  0  0  0  0  0
  138.5680   73.5510  222.7440 H   0  0  0  0  0  0  0  0  0  0  0  0
  138.7235   71.5174  219.7165 H   0  0  0  0  0  0  0  0  0  0  0  0
  140.0657   72.5988  220.1723 H   0  0  0  0  0  0  0  0  0  0  0  0
  138.6900   70.6150  221.9230 H   0  0  0  0  0  0  0  0  0  0  0  0
  141.1242   72.9124  225.0045 H   0  0  0  0  0  0  0  0  0  0  0  0
  141.3878   71.8159  227.2050 H   0  0  0  0  0  0  0  0  0  0  0  0
  141.0600   69.9259  228.5726 H   0  0  0  0  0  0  0  0  0  0  0  0
  140.2112   67.5819  228.8853 H   0  0  0  0  0  0  0  0  0  0  0  0
  139.1173   66.4054  226.9591 H   0  0  0  0  0  0  0  0  0  0  0  0
  138.8898   67.5765  224.7838 H   0  0  0  0  0  0  0  0  0  0  0  0
  136.0936   76.6495  224.1116 H   0  0  0  0  0  0  0  0  0  0  0  0
  134.6714   75.9787  226.0269 H   0  0  0  0  0  0  0  0  0  0  0  0
  132.4996   71.9072  226.1924 H   0  0  0  0  0  0  0  0  0  0  0  0
  130.6587   73.0520  227.6154 H   0  0  0  0  0  0  0  0  0  0  0  0
  132.0843   72.9308  228.5914 H   0  0  0  0  0  0  0  0  0  0  0  0
  131.0800   75.3941  228.2187 H   0  0  0  0  0  0  0  0  0  0  0  0
  132.7992   75.2842  227.9387 H   0  0  0  0  0  0  0  0  0  0  0  0
  130.5395   75.5215  225.9799 H   0  0  0  0  0  0  0  0  0  0  0  0
  132.2544   75.9445  225.7420 H   0  0  0  0  0  0  0  0  0  0  0  0
  130.8156   73.4416  225.0705 H   0  0  0  0  0  0  0  0  0  0  0  0
  132.3593   73.9997  224.4533 H   0  0  0  0  0  0  0  0  0  0  0  0
  134.6830   71.9290  224.6654 H   0  0  0  0  0  0  0  0  0  0  0  0
  136.0820   72.5928  222.7793 H   0  0  0  0  0  0  0  0  0  0  0  0
  1  2  1  0
  2  3  1  0
  3  4  1  0
  4  5  2  0
  4  6  1  0
  6  7  1  0
  7  8  1  0
  8  9  2  0
  8 10  1  0
 10 11  2  0
 11 12  1  0
 12 13  2  0
 13 14  1  0
 14 15  2  0
 15 16  1  0
 16 17  2  0
 17 18  1  0
 18 19  2  0
  2 20  1  0
 20 21  2  0
 21 22  1  0
 22 23  2  0
 23 24  1  0
 24 25  1  0
 25 26  1  0
 26 27  1  0
 27 28  1  0
 28 29  1  0
 23 30  1  0
 30 31  2  0
 19 10  1  0
 31 20  1  0
 18 13  1  0
 29 25  1  0
  1 32  1  0
  1 33  1  0
  1 34  1  0
  2 35  1  6
  3 36  1  0
  6 37  1  0
  6 38  1  0
  7 39  1  0
 11 40  1  0
 12 41  1  0
 14 42  1  0
 15 43  1  0
 16 44  1  0
 17 45  1  0
 21 46  1  0
 22 47  1  0
 25 48  1  0
 26 49  1  0
 26 50  1  0
 27 51  1  0
 27 52  1  0
 28 53  1  0
 28 54  1  0
 29 55  1  0
 29 56  1  0
 30 57  1  0
 31 58  1  0
M  END
>  <smiles>  (93) 
CC(NC(=O)CNC(=O)c1ccc2ccccc2n1)c1ccc(OC2CCCC2)cc1

>  <score_type>  (93) 
oracle

>  <origin>  (93) 
autodockgpu

>  <m_score__min__energy>  (93) 
-8.6899999999999995

>  <m_primary>  (93) 
energy

>  <rmsd>  (93) 
7.252798242167976

>  <m_score__min__rmsd>  (93) 
7.252798242167976

>  <meeko>  (93) 
{"free_energy": -8.42, "intermolecular_energy": -10.51, "internal_energy": -2.47, "cluster_size": 15, "cluster_id": 2, "rank_in_cluster": 11}

>  <energy>  (93) 
-8.4

>  <cluster_rmsd>  (93) 
0.83

>  <cluster>  (93) 
2

$$$$

     RDKit          3D

 58 61  0  0  0  0  0  0  0  0999 V2000
  143.1680   73.3400  220.5680 C   0  0  0  0  0  0  0  0  0  0  0  0
  141.8620   73.9100  220.0620 C   0  0  1  0  0  0  0  0  0  0  0  0
  140.8100   73.0720  220.6390 N   0  0  0  0  0  0  0  0  0  0  0  0
  139.4420   73.3410  220.3600 C   0  0  0  0  0  0  0  0  0  0  0  0
  139.1930   74.3200  219.6060 O   0  0  0  0  0  0  0  0  0  0  0  0
  138.3820   72.4830  220.9510 C   0  0  0  0  0  0  0  0  0  0  0  0
  138.7520   72.2100  222.3180 N   0  0  0  0  0  0  0  0  0  0  0  0
  139.6040   71.1330  222.6660 C   0  0  0  0  0  0  0  0  0  0  0  0
  140.0400   70.4050  221.7340 O   0  0  0  0  0  0  0  0  0  0  0  0
  139.9680   70.8710  224.0550 C   0  0  0  0  0  0  0  0  0  0  0  0
  140.6580   71.8330  224.7610 C   0  0  0  0  0  0  0  0  0  0  0  0
  141.0450   71.6770  226.0770 C   0  0  0  0  0  0  0  0  0  0  0  0
  140.7150   70.4880  226.7030 C   0  0  0  0  0  0  0  0  0  0  0  0
  141.0950   70.3250  228.0130 C   0  0  0  0  0  0  0  0  0  0  0  0
  140.7730   69.1310  228.6670 C   0  0  0  0  0  0  0  0  0  0  0  0
  140.0750   68.1390  227.9770 C   0  0  0  0  0  0  0  0  0  0  0  0
  139.7140   68.3620  226.6510 C   0  0  0  0  0  0  0  0  0  0  0  0
  140.0230   69.5280  225.9920 C   0  0  0  0  0  0  0  0  0  0  0  0
  139.6600   69.7230  224.6900 N   0  0  0  0  0  0  0  0  0  0  0  0
  141.6330   75.2870  220.5320 C   0  0  0  0  0  0  0  0  0  0  0  0
  142.0200   76.3620  219.7590 C   0  0  0  0  0  0  0  0  0  0  0  0
  141.7840   77.6450  220.2400 C   0  0  0  0  0  0  0  0  0  0  0  0
  141.1810   77.8890  221.4520 C   0  0  0  0  0  0  0  0  0  0  0  0
  140.9230   79.1260  221.9760 O   0  0  0  0  0  0  0  0  0  0  0  0
  140.5980   79.3980  223.3150 C   0  0  0  0  0  0  0  0  0  0  0  0
  141.8550   79.2180  224.1540 C   0  0  0  0  0  0  0  0  0  0  0  0
  142.7680   80.2520  223.4940 C   0  0  0  0  0  0  0  0  0  0  0  0
  141.8380   81.4290  223.3130 C   0  0  0  0  0  0  0  0  0  0  0  0
  140.4290   80.9130  223.4140 C   0  0  0  0  0  0  0  0  0  0  0  0
  140.8060   76.7830  222.1990 C   0  0  0  0  0  0  0  0  0  0  0  0
  141.0350   75.5230  221.7300 C   0  0  0  0  0  0  0  0  0  0  0  0
  143.1666   73.3406  221.6680 H   0  0  0  0  0  0  0  0  0  0  0  0
  143.2844   72.3092  220.2020 H   0  0  0  0  0  0  0  0  0  0  0  0
  144.0030   73.9555  220.2020 H   0  0  0  0  0  0  0  0  0  0  0  0
  141.8731   73.9254  218.9622 H   0  0  0  0  0  0  0  0  0  0  0  0
  141.0290   72.2650  221.2600 H   0  0  0  0  0  0  0  0  0  0  0  0
  137.4156   73.0075  220.9218 H   0  0  0  0  0  0  0  0  0  0  0  0
  138.2832   71.5459  220.3836 H   0  0  0  0  0  0  0  0  0  0  0  0
  138.3960   72.8090  223.1030 H   0  0  0  0  0  0  0  0  0  0  0  0
  140.9133   72.7729  224.2498 H   0  0  0  0  0  0  0  0  0  0  0  0
  141.5949   72.4681  226.6078 H   0  0  0  0  0  0  0  0  0  0  0  0
  141.6435   71.1202  228.5391 H   0  0  0  0  0  0  0  0  0  0  0  0
  141.0673   68.9755  229.7154 H   0  0  0  0  0  0  0  0  0  0  0  0
  139.8135   67.1933  228.4742 H   0  0  0  0  0  0  0  0  0  0  0  0
  139.1623   67.5778  226.1119 H   0  0  0  0  0  0  0  0  0  0  0  0
  142.5046   76.2076  218.7836 H   0  0  0  0  0  0  0  0  0  0  0  0
  142.0931   78.5026  219.6243 H   0  0  0  0  0  0  0  0  0  0  0  0
  139.7397   78.7817  223.6208 H   0  0  0  0  0  0  0  0  0  0  0  0
  141.6747   79.4506  225.2139 H   0  0  0  0  0  0  0  0  0  0  0  0
  142.2550   78.1935  224.1737 H   0  0  0  0  0  0  0  0  0  0  0  0
  143.6155   80.5098  224.1461 H   0  0  0  0  0  0  0  0  0  0  0  0
  143.2260   79.9027  222.5569 H   0  0  0  0  0  0  0  0  0  0  0  0
  142.0212   82.1765  224.0989 H   0  0  0  0  0  0  0  0  0  0  0  0
  142.0056   81.9081  222.3371 H   0  0  0  0  0  0  0  0  0  0  0  0
  139.9742   81.1962  224.3747 H   0  0  0  0  0  0  0  0  0  0  0  0
  139.7654   81.3224  222.6381 H   0  0  0  0  0  0  0  0  0  0  0  0
  140.3207   76.9226  223.1762 H   0  0  0  0  0  0  0  0  0  0  0  0
  140.7241   74.6651  222.3443 H   0  0  0  0  0  0  0  0  0  0  0  0
  1  2  1  0
  2  3  1  0
  3  4  1  0
  4  5  2  0
  4  6  1  0
  6  7  1  0
  7  8  1  0
  8  9  2  0
  8 10  1  0
 10 11  2  0
 11 12  1  0
 12 13  2  0
 13 14  1  0
 14 15  2  0
 15 16  1  0
 16 17  2  0
 17 18  1  0
 18 19  2  0
  2 20  1  0
 20 21  2  0
 21 22  1  0
 22 23  2  0
 23 24  1  0
 24 25  1  0
 25 26  1  0
 26 27  1  0
 27 28  1  0
 28 29  1  0
 23 30  1  0
 30 31  2  0
 19 10  1  0
 31 20  1  0
 18 13  1  0
 29 25  1  0
  1 32  1  0
  1 33  1  0
  1 34  1  0
  2 35  1  6
  3 36  1  0
  6 37  1  0
  6 38  1  0
  7 39  1  0
 11 40  1  0
 12 41  1  0
 14 42  1  0
 15 43  1  0
 16 44  1  0
 17 45  1  0
 21 46  1  0
 22 47  1  0
 25 48  1  0
 26 49  1  0
 26 50  1  0
 27 51  1  0
 27 52  1  0
 28 53  1  0
 28 54  1  0
 29 55  1  0
 29 56  1  0
 30 57  1  0
 31 58  1  0
M  END
>  <smiles>  (94) 
CC(NC(=O)CNC(=O)c1ccc2ccccc2n1)c1ccc(OC2CCCC2)cc1

>  <score_type>  (94) 
oracle

>  <origin>  (94) 
autodockgpu

>  <m_score__min__energy>  (94) 
-8.6899999999999995

>  <m_primary>  (94) 
energy

>  <rmsd>  (94) 
5.483877007575002

>  <m_score__min__rmsd>  (94) 
5.483877007575002

>  <meeko>  (94) 
{"free_energy": -8.69, "intermolecular_energy": -10.78, "internal_energy": -2.09, "cluster_size": 31, "cluster_id": 1, "rank_in_cluster": 1}

>  <energy>  (94) 
-8.37

>  <cluster_rmsd>  (94) 
0.74

>  <cluster>  (94) 
2

$$$$

     RDKit          3D

 58 61  0  0  0  0  0  0  0  0999 V2000
  137.2900   75.7190  219.9870 C   0  0  0  0  0  0  0  0  0  0  0  0
  137.7680   75.3060  221.3610 C   0  0  1  0  0  0  0  0  0  0  0  0
  138.4300   74.0140  221.1830 N   0  0  0  0  0  0  0  0  0  0  0  0
  137.6670   72.8160  221.1260 C   0  0  0  0  0  0  0  0  0  0  0  0
  136.4170   72.9270  221.2370 O   0  0  0  0  0  0  0  0  0  0  0  0
  138.3510   71.5090  220.9440 C   0  0  0  0  0  0  0  0  0  0  0  0
  138.7010   71.0120  222.2520 N   0  0  0  0  0  0  0  0  0  0  0  0
  139.6920   71.6320  223.0530 C   0  0  0  0  0  0  0  0  0  0  0  0
  140.2720   72.6480  222.5850 O   0  0  0  0  0  0  0  0  0  0  0  0
  140.0330   71.1150  224.3740 C   0  0  0  0  0  0  0  0  0  0  0  0
  140.7880   71.8930  225.2250 C   0  0  0  0  0  0  0  0  0  0  0  0
  141.1600   71.4910  226.4910 C   0  0  0  0  0  0  0  0  0  0  0  0
  140.7450   70.2390  226.9120 C   0  0  0  0  0  0  0  0  0  0  0  0
  141.1100   69.8310  228.1720 C   0  0  0  0  0  0  0  0  0  0  0  0
  140.7030   68.5700  228.6190 C   0  0  0  0  0  0  0  0  0  0  0  0
  139.9370   67.7600  227.7790 C   0  0  0  0  0  0  0  0  0  0  0  0
  139.5970   68.2280  226.5130 C   0  0  0  0  0  0  0  0  0  0  0  0
  139.9890   69.4640  226.0560 C   0  0  0  0  0  0  0  0  0  0  0  0
  139.6430   69.9010  224.8100 N   0  0  0  0  0  0  0  0  0  0  0  0
  138.7680   76.2390  221.9100 C   0  0  0  0  0  0  0  0  0  0  0  0
  140.1070   75.9070  221.9080 C   0  0  0  0  0  0  0  0  0  0  0  0
  141.0170   76.8160  222.4350 C   0  0  0  0  0  0  0  0  0  0  0  0
  140.6400   78.0320  222.9570 C   0  0  0  0  0  0  0  0  0  0  0  0
  141.4890   78.9650  223.4880 O   0  0  0  0  0  0  0  0  0  0  0  0
  142.5470   79.5900  222.8090 C   0  0  0  0  0  0  0  0  0  0  0  0
  141.9550   80.6100  221.8470 C   0  0  0  0  0  0  0  0  0  0  0  0
  141.2080   81.5080  222.8340 C   0  0  0  0  0  0  0  0  0  0  0  0
  142.2070   81.6460  223.9580 C   0  0  0  0  0  0  0  0  0  0  0  0
  143.2050   80.5290  223.8180 C   0  0  0  0  0  0  0  0  0  0  0  0
  139.2870   78.3290  222.9420 C   0  0  0  0  0  0  0  0  0  0  0  0
  138.3910   77.4390  222.4250 C   0  0  0  0  0  0  0  0  0  0  0  0
  136.4611   76.4352  220.0871 H   0  0  0  0  0  0  0  0  0  0  0  0
  138.1178   76.1907  219.4372 H   0  0  0  0  0  0  0  0  0  0  0  0
  136.9434   74.8315  219.4372 H   0  0  0  0  0  0  0  0  0  0  0  0
  136.9122   75.2820  222.0516 H   0  0  0  0  0  0  0  0  0  0  0  0
  139.4650   73.9340  221.0920 H   0  0  0  0  0  0  0  0  0  0  0  0
  137.6766   70.7998  220.4418 H   0  0  0  0  0  0  0  0  0  0  0  0
  139.2513   71.6282  220.3233 H   0  0  0  0  0  0  0  0  0  0  0  0
  138.2250   70.1660  222.6520 H   0  0  0  0  0  0  0  0  0  0  0  0
  141.1104   72.8854  224.8768 H   0  0  0  0  0  0  0  0  0  0  0  0
  141.7637   72.1407  227.1417 H   0  0  0  0  0  0  0  0  0  0  0  0
  141.7126   70.4856  228.8188 H   0  0  0  0  0  0  0  0  0  0  0  0
  140.9839   68.2197  229.6232 H   0  0  0  0  0  0  0  0  0  0  0  0
  139.6066   66.7654  228.1130 H   0  0  0  0  0  0  0  0  0  0  0  0
  138.9932   67.5861  225.8547 H   0  0  0  0  0  0  0  0  0  0  0  0
  140.4470   74.9443  221.4985 H   0  0  0  0  0  0  0  0  0  0  0  0
  142.0848   76.5518  222.4347 H   0  0  0  0  0  0  0  0  0  0  0  0
  143.1918   78.8291  222.3450 H   0  0  0  0  0  0  0  0  0  0  0  0
  142.7375   81.1618  221.3054 H   0  0  0  0  0  0  0  0  0  0  0  0
  141.3318   80.1836  221.0472 H   0  0  0  0  0  0  0  0  0  0  0  0
  140.9740   82.4850  222.3861 H   0  0  0  0  0  0  0  0  0  0  0  0
  140.2370   81.1015  223.1534 H   0  0  0  0  0  0  0  0  0  0  0  0
  142.7186   82.6173  223.8882 H   0  0  0  0  0  0  0  0  0  0  0  0
  141.7014   81.5928  224.9335 H   0  0  0  0  0  0  0  0  0  0  0  0
  144.1658   80.9052  223.4369 H   0  0  0  0  0  0  0  0  0  0  0  0
  143.4360   80.0374  224.7745 H   0  0  0  0  0  0  0  0  0  0  0  0
  138.9329   79.2876  223.3491 H   0  0  0  0  0  0  0  0  0  0  0  0
  137.3231   77.7028  222.4251 H   0  0  0  0  0  0  0  0  0  0  0  0
  1  2  1  0
  2  3  1  0
  3  4  1  0
  4  5  2  0
  4  6  1  0
  6  7  1  0
  7  8  1  0
  8  9  2  0
  8 10  1  0
 10 11  2  0
 11 12  1  0
 12 13  2  0
 13 14  1  0
 14 15  2  0
 15 16  1  0
 16 17  2  0
 17 18  1  0
 18 19  2  0
  2 20  1  0
 20 21  2  0
 21 22  1  0
 22 23  2  0
 23 24  1  0
 24 25  1  0
 25 26  1  0
 26 27  1  0
 27 28  1  0
 28 29  1  0
 23 30  1  0
 30 31  2  0
 19 10  1  0
 31 20  1  0
 18 13  1  0
 29 25  1  0
  1 32  1  0
  1 33  1  0
  1 34  1  0
  2 35  1  1
  3 36  1  0
  6 37  1  0
  6 38  1  0
  7 39  1  0
 11 40  1  0
 12 41  1  0
 14 42  1  0
 15 43  1  0
 16 44  1  0
 17 45  1  0
 21 46  1  0
 22 47  1  0
 25 48  1  0
 26 49  1  0
 26 50  1  0
 27 51  1  0
 27 52  1  0
 28 53  1  0
 28 54  1  0
 29 55  1  0
 29 56  1  0
 30 57  1  0
 31 58  1  0
M  END
>  <smiles>  (95) 
CC(NC(=O)CNC(=O)c1ccc2ccccc2n1)c1ccc(OC2CCCC2)cc1

>  <score_type>  (95) 
oracle

>  <origin>  (95) 
autodockgpu

>  <m_score__min__energy>  (95) 
-8.6899999999999995

>  <m_primary>  (95) 
energy

>  <rmsd>  (95) 
5.5047386234406535

>  <m_score__min__rmsd>  (95) 
5.5047386234406535

>  <meeko>  (95) 
{"free_energy": -8.37, "intermolecular_energy": -10.46, "internal_energy": -2.34, "cluster_size": 31, "cluster_id": 1, "rank_in_cluster": 17}

>  <energy>  (95) 
-8.35

>  <cluster_rmsd>  (95) 
0.87

>  <cluster>  (95) 
2

$$$$

     RDKit          3D

 58 61  0  0  0  0  0  0  0  0999 V2000
  137.8770   76.5710  222.6310 C   0  0  0  0  0  0  0  0  0  0  0  0
  137.0570   75.3610  222.2420 C   0  0  1  0  0  0  0  0  0  0  0  0
  138.0200   74.2920  221.9810 N   0  0  0  0  0  0  0  0  0  0  0  0
  138.7070   74.2290  220.7380 C   0  0  0  0  0  0  0  0  0  0  0  0
  138.4440   75.1260  219.8930 O   0  0  0  0  0  0  0  0  0  0  0  0
  139.6840   73.1380  220.4850 C   0  0  0  0  0  0  0  0  0  0  0  0
  140.0190   72.5470  221.7570 N   0  0  0  0  0  0  0  0  0  0  0  0
  139.1220   71.6990  222.4520 C   0  0  0  0  0  0  0  0  0  0  0  0
  138.0030   71.4690  221.9220 O   0  0  0  0  0  0  0  0  0  0  0  0
  139.4780   71.1100  223.7390 C   0  0  0  0  0  0  0  0  0  0  0  0
  139.1530   69.7930  223.9880 C   0  0  0  0  0  0  0  0  0  0  0  0
  139.4470   69.1500  225.1730 C   0  0  0  0  0  0  0  0  0  0  0  0
  140.1030   69.8790  226.1500 C   0  0  0  0  0  0  0  0  0  0  0  0
  140.4010   69.2460  227.3320 C   0  0  0  0  0  0  0  0  0  0  0  0
  141.0620   69.9630  228.3350 C   0  0  0  0  0  0  0  0  0  0  0  0
  141.4040   71.2970  228.1120 C   0  0  0  0  0  0  0  0  0  0  0  0
  141.0770   71.8850  226.8920 C   0  0  0  0  0  0  0  0  0  0  0  0
  140.4260   71.1970  225.8960 C   0  0  0  0  0  0  0  0  0  0  0  0
  140.1160   71.7960  224.7090 N   0  0  0  0  0  0  0  0  0  0  0  0
  136.1800   74.9050  223.3340 C   0  0  0  0  0  0  0  0  0  0  0  0
  135.8330   73.5740  223.4420 C   0  0  0  0  0  0  0  0  0  0  0  0
  135.0050   73.1850  224.4880 C   0  0  0  0  0  0  0  0  0  0  0  0
  134.5160   74.0700  225.4210 C   0  0  0  0  0  0  0  0  0  0  0  0
  133.6990   73.7470  226.4690 O   0  0  0  0  0  0  0  0  0  0  0  0
  132.3920   73.2410  226.3640 C   0  0  0  0  0  0  0  0  0  0  0  0
  131.6380   73.6120  227.6340 C   0  0  0  0  0  0  0  0  0  0  0  0
  131.7420   75.1360  227.5730 C   0  0  0  0  0  0  0  0  0  0  0  0
  131.4600   75.4170  226.1150 C   0  0  0  0  0  0  0  0  0  0  0  0
  131.6700   74.1340  225.3570 C   0  0  0  0  0  0  0  0  0  0  0  0
  134.8860   75.3980  225.2800 C   0  0  0  0  0  0  0  0  0  0  0  0
  135.7000   75.7830  224.2550 C   0  0  0  0  0  0  0  0  0  0  0  0
  137.9261   76.6435  223.7275 H   0  0  0  0  0  0  0  0  0  0  0  0
  138.8941   76.4709  222.2242 H   0  0  0  0  0  0  0  0  0  0  0  0
  137.4071   77.4786  222.2242 H   0  0  0  0  0  0  0  0  0  0  0  0
  136.4213   75.6138  221.3807 H   0  0  0  0  0  0  0  0  0  0  0  0
  138.2300   73.5560  222.6890 H   0  0  0  0  0  0  0  0  0  0  0  0
  139.2366   72.3797  219.8256 H   0  0  0  0  0  0  0  0  0  0  0  0
  140.5854   73.5337  219.9942 H   0  0  0  0  0  0  0  0  0  0  0  0
  140.9480   72.7320  222.2090 H   0  0  0  0  0  0  0  0  0  0  0  0
  138.6328   69.2262  223.2018 H   0  0  0  0  0  0  0  0  0  0  0  0
  139.1705   68.0977  225.3352 H   0  0  0  0  0  0  0  0  0  0  0  0
  140.1245   68.1927  227.4874 H   0  0  0  0  0  0  0  0  0  0  0  0
  141.3099   69.4791  229.2912 H   0  0  0  0  0  0  0  0  0  0  0  0
  141.9246   71.8765  228.8886 H   0  0  0  0  0  0  0  0  0  0  0  0
  141.3494   72.9368  226.7198 H   0  0  0  0  0  0  0  0  0  0  0  0
  136.2040   72.8362  222.7153 H   0  0  0  0  0  0  0  0  0  0  0  0
  134.7286   72.1237  224.5737 H   0  0  0  0  0  0  0  0  0  0  0  0
  132.4263   72.1650  226.1382 H   0  0  0  0  0  0  0  0  0  0  0  0
  130.5920   73.2731  227.6008 H   0  0  0  0  0  0  0  0  0  0  0  0
  132.0330   73.1585  228.5550 H   0  0  0  0  0  0  0  0  0  0  0  0
  130.9939   75.6132  228.2231 H   0  0  0  0  0  0  0  0  0  0  0  0
  132.7104   75.5267  227.9188 H   0  0  0  0  0  0  0  0  0  0  0  0
  130.4219   75.7596  225.9927 H   0  0  0  0  0  0  0  0  0  0  0  0
  132.1287   76.2041  225.7363 H   0  0  0  0  0  0  0  0  0  0  0  0
  130.7082   73.6919  225.0577 H   0  0  0  0  0  0  0  0  0  0  0  0
  132.2364   74.2743  224.4245 H   0  0  0  0  0  0  0  0  0  0  0  0
  134.5212   76.1464  225.9989 H   0  0  0  0  0  0  0  0  0  0  0  0
  135.9786   76.8438  224.1703 H   0  0  0  0  0  0  0  0  0  0  0  0
  1  2  1  0
  2  3  1  0
  3  4  1  0
  4  5  2  0
  4  6  1  0
  6  7  1  0
  7  8  1  0
  8  9  2  0
  8 10  1  0
 10 11  2  0
 11 12  1  0
 12 13  2  0
 13 14  1  0
 14 15  2  0
 15 16  1  0
 16 17  2  0
 17 18  1  0
 18 19  2  0
  2 20  1  0
 20 21  2  0
 21 22  1  0
 22 23  2  0
 23 24  1  0
 24 25  1  0
 25 26  1  0
 26 27  1  0
 27 28  1  0
 28 29  1  0
 23 30  1  0
 30 31  2  0
 19 10  1  0
 31 20  1  0
 18 13  1  0
 29 25  1  0
  1 32  1  0
  1 33  1  0
  1 34  1  0
  2 35  1  6
  3 36  1  0
  6 37  1  0
  6 38  1  0
  7 39  1  0
 11 40  1  0
 12 41  1  0
 14 42  1  0
 15 43  1  0
 16 44  1  0
 17 45  1  0
 21 46  1  0
 22 47  1  0
 25 48  1  0
 26 49  1  0
 26 50  1  0
 27 51  1  0
 27 52  1  0
 28 53  1  0
 28 54  1  0
 29 55  1  0
 29 56  1  0
 30 57  1  0
 31 58  1  0
M  END
>  <smiles>  (96) 
CC(NC(=O)CNC(=O)c1ccc2ccccc2n1)c1ccc(OC2CCCC2)cc1

>  <score_type>  (96) 
oracle

>  <origin>  (96) 
autodockgpu

>  <m_score__min__energy>  (96) 
-8.6899999999999995

>  <m_primary>  (96) 
energy

>  <rmsd>  (96) 
7.266112499450333

>  <m_score__min__rmsd>  (96) 
7.266112499450333

>  <meeko>  (96) 
{"free_energy": -7.96, "intermolecular_energy": -10.04, "internal_energy": -2.3, "cluster_size": 15, "cluster_id": 2, "rank_in_cluster": 15}

>  <energy>  (96) 
-7.96

>  <cluster_rmsd>  (96) 
0.94

>  <cluster>  (96) 
2

$$$$

     RDKit          3D

 58 61  0  0  0  0  0  0  0  0999 V2000
  136.9530   76.7760  219.9370 C   0  0  0  0  0  0  0  0  0  0  0  0
  137.4580   76.1010  221.1930 C   0  0  1  0  0  0  0  0  0  0  0  0
  137.9440   74.7860  220.7730 N   0  0  0  0  0  0  0  0  0  0  0  0
  137.3770   73.6020  221.3160 C   0  0  0  0  0  0  0  0  0  0  0  0
  136.4540   73.7450  222.1620 O   0  0  0  0  0  0  0  0  0  0  0  0
  137.8780   72.2720  220.8810 C   0  0  0  0  0  0  0  0  0  0  0  0
  138.3030   71.5580  222.0600 N   0  0  0  0  0  0  0  0  0  0  0  0
  139.3660   72.0170  222.8760 C   0  0  0  0  0  0  0  0  0  0  0  0
  139.9430   73.0860  222.5400 O   0  0  0  0  0  0  0  0  0  0  0  0
  139.7830   71.2810  224.0650 C   0  0  0  0  0  0  0  0  0  0  0  0
  140.6270   71.8890  224.9700 C   0  0  0  0  0  0  0  0  0  0  0  0
  141.0740   71.2750  226.1210 C   0  0  0  0  0  0  0  0  0  0  0  0
  140.6440   69.9820  226.3640 C   0  0  0  0  0  0  0  0  0  0  0  0
  141.0840   69.3630  227.5090 C   0  0  0  0  0  0  0  0  0  0  0  0
  140.6640   68.0560  227.7750 C   0  0  0  0  0  0  0  0  0  0  0  0
  139.8100   67.4150  226.8770 C   0  0  0  0  0  0  0  0  0  0  0  0
  139.3960   68.0930  225.7340 C   0  0  0  0  0  0  0  0  0  0  0  0
  139.8000   69.3770  225.4550 C   0  0  0  0  0  0  0  0  0  0  0  0
  139.3800   70.0220  224.3270 N   0  0  0  0  0  0  0  0  0  0  0  0
  138.5960   76.8170  221.7940 C   0  0  0  0  0  0  0  0  0  0  0  0
  139.8630   76.2730  221.7550 C   0  0  0  0  0  0  0  0  0  0  0  0
  140.9090   76.9820  222.3340 C   0  0  0  0  0  0  0  0  0  0  0  0
  140.7350   78.2030  222.9440 C   0  0  0  0  0  0  0  0  0  0  0  0
  141.7240   78.9450  223.5300 O   0  0  0  0  0  0  0  0  0  0  0  0
  142.7190   79.6670  222.8490 C   0  0  0  0  0  0  0  0  0  0  0  0
  142.0320   80.6480  221.9090 C   0  0  0  0  0  0  0  0  0  0  0  0
  141.2240   81.4650  222.9180 C   0  0  0  0  0  0  0  0  0  0  0  0
  142.2210   81.6700  224.0340 C   0  0  0  0  0  0  0  0  0  0  0  0
  143.3080   80.6440  223.8660 C   0  0  0  0  0  0  0  0  0  0  0  0
  139.4490   78.7170  222.9640 C   0  0  0  0  0  0  0  0  0  0  0  0
  138.4200   78.0240  222.3960 C   0  0  0  0  0  0  0  0  0  0  0  0
  136.3148   77.6291  220.2105 H   0  0  0  0  0  0  0  0  0  0  0  0
  137.8077   77.1329  219.3436 H   0  0  0  0  0  0  0  0  0  0  0  0
  136.3694   76.0568  219.3436 H   0  0  0  0  0  0  0  0  0  0  0  0
  136.6488   76.0654  221.9373 H   0  0  0  0  0  0  0  0  0  0  0  0
  138.7070   74.6810  220.0720 H   0  0  0  0  0  0  0  0  0  0  0  0
  137.0749   71.7160  220.3751 H   0  0  0  0  0  0  0  0  0  0  0  0
  138.7150   72.3865  220.1765 H   0  0  0  0  0  0  0  0  0  0  0  0
  137.8300   70.6670  222.3500 H   0  0  0  0  0  0  0  0  0  0  0  0
  140.9609   72.9165  224.7633 H   0  0  0  0  0  0  0  0  0  0  0  0
  141.7471   71.7934  226.8198 H   0  0  0  0  0  0  0  0  0  0  0  0
  141.7556   69.8869  228.2050 H   0  0  0  0  0  0  0  0  0  0  0  0
  141.0038   67.5380  228.6839 H   0  0  0  0  0  0  0  0  0  0  0  0
  139.4683   66.3873  227.0697 H   0  0  0  0  0  0  0  0  0  0  0  0
  138.7221   67.5836  225.0295 H   0  0  0  0  0  0  0  0  0  0  0  0
  140.0418   75.2990  221.2760 H   0  0  0  0  0  0  0  0  0  0  0  0
  141.9194   76.5483  222.3032 H   0  0  0  0  0  0  0  0  0  0  0  0
  143.4198   78.9698  222.3666 H   0  0  0  0  0  0  0  0  0  0  0  0
  142.7589   81.2717  221.3681 H   0  0  0  0  0  0  0  0  0  0  0  0
  141.4375   80.1827  221.1090 H   0  0  0  0  0  0  0  0  0  0  0  0
  140.9035   82.4254  222.4881 H   0  0  0  0  0  0  0  0  0  0  0  0
  140.2946   80.9733  223.2410 H   0  0  0  0  0  0  0  0  0  0  0  0
  142.6479   82.6821  223.9746 H   0  0  0  0  0  0  0  0  0  0  0  0
  141.7330   81.5593  225.0136 H   0  0  0  0  0  0  0  0  0  0  0  0
  144.2289   81.1058  223.4805 H   0  0  0  0  0  0  0  0  0  0  0  0
  143.5914   80.1599  224.8122 H   0  0  0  0  0  0  0  0  0  0  0  0
  139.2561   79.6895  223.4405 H   0  0  0  0  0  0  0  0  0  0  0  0
  137.4096   78.4579  222.4260 H   0  0  0  0  0  0  0  0  0  0  0  0
  1  2  1  0
  2  3  1  0
  3  4  1  0
  4  5  2  0
  4  6  1  0
  6  7  1  0
  7  8  1  0
  8  9  2  0
  8 10  1  0
 10 11  2  0
 11 12  1  0
 12 13  2  0
 13 14  1  0
 14 15  2  0
 15 16  1  0
 16 17  2  0
 17 18  1  0
 18 19  2  0
  2 20  1  0
 20 21  2  0
 21 22  1  0
 22 23  2  0
 23 24  1  0
 24 25  1  0
 25 26  1  0
 26 27  1  0
 27 28  1  0
 28 29  1  0
 23 30  1  0
 30 31  2  0
 19 10  1  0
 31 20  1  0
 18 13  1  0
 29 25  1  0
  1 32  1  0
  1 33  1  0
  1 34  1  0
  2 35  1  1
  3 36  1  0
  6 37  1  0
  6 38  1  0
  7 39  1  0
 11 40  1  0
 12 41  1  0
 14 42  1  0
 15 43  1  0
 16 44  1  0
 17 45  1  0
 21 46  1  0
 22 47  1  0
 25 48  1  0
 26 49  1  0
 26 50  1  0
 27 51  1  0
 27 52  1  0
 28 53  1  0
 28 54  1  0
 29 55  1  0
 29 56  1  0
 30 57  1  0
 31 58  1  0
M  END
>  <smiles>  (97) 
CC(NC(=O)CNC(=O)c1ccc2ccccc2n1)c1ccc(OC2CCCC2)cc1

>  <score_type>  (97) 
oracle

>  <origin>  (97) 
autodockgpu

>  <m_score__min__energy>  (97) 
-8.6899999999999995

>  <m_primary>  (97) 
energy

>  <rmsd>  (97) 
5.212393553429068

>  <m_score__min__rmsd>  (97) 
5.212393553429068

>  <meeko>  (97) 
{"free_energy": -8.44, "intermolecular_energy": -10.53, "internal_energy": -1.8, "cluster_size": 31, "cluster_id": 1, "rank_in_cluster": 13}

>  <energy>  (97) 
-8.26

>  <cluster_rmsd>  (97) 
0.0

>  <cluster>  (97) 
3

$$$$

     RDKit          3D

 58 61  0  0  0  0  0  0  0  0999 V2000
  137.7430   76.3880  219.4290 C   0  0  0  0  0  0  0  0  0  0  0  0
  138.0190   75.8420  220.8130 C   0  0  1  0  0  0  0  0  0  0  0  0
  138.8810   74.6760  220.6180 N   0  0  0  0  0  0  0  0  0  0  0  0
  138.3240   73.4250  220.2400 C   0  0  0  0  0  0  0  0  0  0  0  0
  137.0750   73.3760  220.0870 O   0  0  0  0  0  0  0  0  0  0  0  0
  139.2100   72.2470  220.0450 C   0  0  0  0  0  0  0  0  0  0  0  0
  139.2830   71.5410  221.3000 N   0  0  0  0  0  0  0  0  0  0  0  0
  139.8820   72.1110  222.4510 C   0  0  0  0  0  0  0  0  0  0  0  0
  140.3600   73.2720  222.3480 O   0  0  0  0  0  0  0  0  0  0  0  0
  139.9470   71.3820  223.7120 C   0  0  0  0  0  0  0  0  0  0  0  0
  139.4590   70.0930  223.7700 C   0  0  0  0  0  0  0  0  0  0  0  0
  139.4770   69.3250  224.9160 C   0  0  0  0  0  0  0  0  0  0  0  0
  140.0150   69.8930  226.0570 C   0  0  0  0  0  0  0  0  0  0  0  0
  140.0370   69.1350  227.2020 C   0  0  0  0  0  0  0  0  0  0  0  0
  140.5750   69.6890  228.3690 C   0  0  0  0  0  0  0  0  0  0  0  0
  141.0760   70.9900  228.3420 C   0  0  0  0  0  0  0  0  0  0  0  0
  141.0270   71.7100  227.1510 C   0  0  0  0  0  0  0  0  0  0  0  0
  140.5010   71.1830  225.9950 C   0  0  0  0  0  0  0  0  0  0  0  0
  140.4650   71.9090  224.8390 N   0  0  0  0  0  0  0  0  0  0  0  0
  138.7590   76.7990  221.6540 C   0  0  0  0  0  0  0  0  0  0  0  0
  138.1010   77.8470  222.2640 C   0  0  0  0  0  0  0  0  0  0  0  0
  138.8370   78.7260  223.0500 C   0  0  0  0  0  0  0  0  0  0  0  0
  140.1930   78.5950  223.2470 C   0  0  0  0  0  0  0  0  0  0  0  0
  140.9680   79.4270  224.0070 O   0  0  0  0  0  0  0  0  0  0  0  0
  141.1240   80.8100  223.8100 C   0  0  0  0  0  0  0  0  0  0  0  0
  142.5700   81.1710  224.1170 C   0  0  0  0  0  0  0  0  0  0  0  0
  143.2890   80.2930  223.0930 C   0  0  0  0  0  0  0  0  0  0  0  0
  142.4440   80.4870  221.8560 C   0  0  0  0  0  0  0  0  0  0  0  0
  141.1110   81.0290  222.2980 C   0  0  0  0  0  0  0  0  0  0  0  0
  140.8180   77.5300  222.6180 C   0  0  0  0  0  0  0  0  0  0  0  0
  140.0990   76.6660  221.8460 C   0  0  0  0  0  0  0  0  0  0  0  0
  137.2482   77.3668  219.5129 H   0  0  0  0  0  0  0  0  0  0  0  0
  138.6916   76.5022  218.8840 H   0  0  0  0  0  0  0  0  0  0  0  0
  137.0885   75.6919  218.8840 H   0  0  0  0  0  0  0  0  0  0  0  0
  137.0654   75.6181  221.3135 H   0  0  0  0  0  0  0  0  0  0  0  0
  139.9140   74.7290  220.7470 H   0  0  0  0  0  0  0  0  0  0  0  0
  138.7928   71.5889  219.2686 H   0  0  0  0  0  0  0  0  0  0  0  0
  140.2122   72.5675  219.7244 H   0  0  0  0  0  0  0  0  0  0  0  0
  138.8890   70.5730  221.3970 H   0  0  0  0  0  0  0  0  0  0  0  0
  139.0335   69.6548  222.8552 H   0  0  0  0  0  0  0  0  0  0  0  0
  139.0786   68.2997  224.9222 H   0  0  0  0  0  0  0  0  0  0  0  0
  139.6385   68.1097  227.2018 H   0  0  0  0  0  0  0  0  0  0  0  0
  140.6024   69.1032  229.2996 H   0  0  0  0  0  0  0  0  0  0  0  0
  141.5041   71.4415  229.2491 H   0  0  0  0  0  0  0  0  0  0  0  0
  141.4229   72.7362  227.1344 H   0  0  0  0  0  0  0  0  0  0  0  0
  137.0177   77.9840  222.1313 H   0  0  0  0  0  0  0  0  0  0  0  0
  138.3131   79.5625  223.5356 H   0  0  0  0  0  0  0  0  0  0  0  0
  140.3712   81.3567  224.3969 H   0  0  0  0  0  0  0  0  0  0  0  0
  142.7681   82.2398  223.9483 H   0  0  0  0  0  0  0  0  0  0  0  0
  142.8754   81.0080  225.1611 H   0  0  0  0  0  0  0  0  0  0  0  0
  144.3212   80.6359  222.9286 H   0  0  0  0  0  0  0  0  0  0  0  0
  143.3837   79.2416  223.4023 H   0  0  0  0  0  0  0  0  0  0  0  0
  142.9324   81.2003  221.1758 H   0  0  0  0  0  0  0  0  0  0  0  0
  142.3164   79.5343  221.3211 H   0  0  0  0  0  0  0  0  0  0  0  0
  141.0208   82.0982  222.0558 H   0  0  0  0  0  0  0  0  0  0  0  0
  140.2614   80.5387  221.8002 H   0  0  0  0  0  0  0  0  0  0  0  0
  141.9007   77.3807  222.7422 H   0  0  0  0  0  0  0  0  0  0  0  0
  140.6226   75.8296  221.3600 H   0  0  0  0  0  0  0  0  0  0  0  0
  1  2  1  0
  2  3  1  0
  3  4  1  0
  4  5  2  0
  4  6  1  0
  6  7  1  0
  7  8  1  0
  8  9  2  0
  8 10  1  0
 10 11  2  0
 11 12  1  0
 12 13  2  0
 13 14  1  0
 14 15  2  0
 15 16  1  0
 16 17  2  0
 17 18  1  0
 18 19  2  0
  2 20  1  0
 20 21  2  0
 21 22  1  0
 22 23  2  0
 23 24  1  0
 24 25  1  0
 25 26  1  0
 26 27  1  0
 27 28  1  0
 28 29  1  0
 23 30  1  0
 30 31  2  0
 19 10  1  0
 31 20  1  0
 18 13  1  0
 29 25  1  0
  1 32  1  0
  1 33  1  0
  1 34  1  0
  2 35  1  1
  3 36  1  0
  6 37  1  0
  6 38  1  0
  7 39  1  0
 11 40  1  0
 12 41  1  0
 14 42  1  0
 15 43  1  0
 16 44  1  0
 17 45  1  0
 21 46  1  0
 22 47  1  0
 25 48  1  0
 26 49  1  0
 26 50  1  0
 27 51  1  0
 27 52  1  0
 28 53  1  0
 28 54  1  0
 29 55  1  0
 29 56  1  0
 30 57  1  0
 31 58  1  0
M  END
>  <smiles>  (98) 
CC(NC(=O)CNC(=O)c1ccc2ccccc2n1)c1ccc(OC2CCCC2)cc1

>  <score_type>  (98) 
oracle

>  <origin>  (98) 
autodockgpu

>  <m_score__min__energy>  (98) 
-8.6899999999999995

>  <m_primary>  (98) 
energy

>  <rmsd>  (98) 
5.133906155326821

>  <m_score__min__rmsd>  (98) 
5.133906155326821

>  <meeko>  (98) 
{"free_energy": -8.34, "intermolecular_energy": -10.42, "internal_energy": -2.03, "cluster_size": 31, "cluster_id": 1, "rank_in_cluster": 19}

>  <energy>  (98) 
-8.1

>  <cluster_rmsd>  (98) 
0.47

>  <cluster>  (98) 
3

$$$$

     RDKit          3D

 58 61  0  0  0  0  0  0  0  0999 V2000
  137.4970   76.6180  222.5740 C   0  0  0  0  0  0  0  0  0  0  0  0
  136.7150   75.3560  222.2860 C   0  0  1  0  0  0  0  0  0  0  0  0
  137.7120   74.3230  222.0060 N   0  0  0  0  0  0  0  0  0  0  0  0
  137.9300   73.8740  220.6760 C   0  0  0  0  0  0  0  0  0  0  0  0
  137.2310   74.4040  219.7710 O   0  0  0  0  0  0  0  0  0  0  0  0
  138.9460   72.8240  220.4040 C   0  0  0  0  0  0  0  0  0  0  0  0
  139.0010   71.9590  221.5560 N   0  0  0  0  0  0  0  0  0  0  0  0
  139.7570   72.2880  222.7090 C   0  0  0  0  0  0  0  0  0  0  0  0
  140.3930   73.3760  222.7020 O   0  0  0  0  0  0  0  0  0  0  0  0
  139.8010   71.4000  223.8660 C   0  0  0  0  0  0  0  0  0  0  0  0
  139.1930   70.1650  223.7890 C   0  0  0  0  0  0  0  0  0  0  0  0
  139.1820   69.2590  224.8290 C   0  0  0  0  0  0  0  0  0  0  0  0
  139.8180   69.6250  226.0020 C   0  0  0  0  0  0  0  0  0  0  0  0
  139.8120   68.7280  227.0420 C   0  0  0  0  0  0  0  0  0  0  0  0
  140.4480   69.0760  228.2390 C   0  0  0  0  0  0  0  0  0  0  0  0
  141.0720   70.3190  228.3460 C   0  0  0  0  0  0  0  0  0  0  0  0
  141.0460   71.1870  227.2570 C   0  0  0  0  0  0  0  0  0  0  0  0
  140.4250   70.8620  226.0750 C   0  0  0  0  0  0  0  0  0  0  0  0
  140.4130   71.7300  225.0210 N   0  0  0  0  0  0  0  0  0  0  0  0
  135.9320   74.9050  223.4500 C   0  0  0  0  0  0  0  0  0  0  0  0
  135.6570   73.5660  223.6310 C   0  0  0  0  0  0  0  0  0  0  0  0
  134.9160   73.1830  224.7420 C   0  0  0  0  0  0  0  0  0  0  0  0
  134.4440   74.0830  225.6700 C   0  0  0  0  0  0  0  0  0  0  0  0
  133.7110   73.7670  226.7810 O   0  0  0  0  0  0  0  0  0  0  0  0
  132.4140   73.2250  226.7800 C   0  0  0  0  0  0  0  0  0  0  0  0
  131.6570   73.8080  227.9650 C   0  0  0  0  0  0  0  0  0  0  0  0
  131.7300   75.2970  227.6240 C   0  0  0  0  0  0  0  0  0  0  0  0
  131.4370   75.3000  226.1420 C   0  0  0  0  0  0  0  0  0  0  0  0
  131.6700   73.9040  225.6310 C   0  0  0  0  0  0  0  0  0  0  0  0
  134.7400   75.4200  225.4540 C   0  0  0  0  0  0  0  0  0  0  0  0
  135.4680   75.7980  224.3650 C   0  0  0  0  0  0  0  0  0  0  0  0
  137.5826   76.7561  223.6619 H   0  0  0  0  0  0  0  0  0  0  0  0
  138.5021   76.5348  222.1348 H   0  0  0  0  0  0  0  0  0  0  0  0
  136.9752   77.4810  222.1348 H   0  0  0  0  0  0  0  0  0  0  0  0
  136.0149   75.5425  221.4583 H   0  0  0  0  0  0  0  0  0  0  0  0
  138.2850   73.8920  222.7630 H   0  0  0  0  0  0  0  0  0  0  0  0
  138.6577   72.2451  219.5142 H   0  0  0  0  0  0  0  0  0  0  0  0
  139.9298   73.2790  220.2163 H   0  0  0  0  0  0  0  0  0  0  0  0
  138.4760   71.0510  221.5730 H   0  0  0  0  0  0  0  0  0  0  0  0
  138.6910   69.8880  222.8502 H   0  0  0  0  0  0  0  0  0  0  0  0
  138.6862   68.2821  224.7295 H   0  0  0  0  0  0  0  0  0  0  0  0
  139.3155   67.7522  226.9359 H   0  0  0  0  0  0  0  0  0  0  0  0
  140.4558   68.3760  229.0875 H   0  0  0  0  0  0  0  0  0  0  0  0
  141.5781   70.6099  229.2783 H   0  0  0  0  0  0  0  0  0  0  0  0
  141.5394   72.1661  227.3462 H   0  0  0  0  0  0  0  0  0  0  0  0
  136.0169   72.8166  222.9106 H   0  0  0  0  0  0  0  0  0  0  0  0
  134.6972   72.1147  224.8861 H   0  0  0  0  0  0  0  0  0  0  0  0
  132.4697   72.1267  226.7554 H   0  0  0  0  0  0  0  0  0  0  0  0
  130.6180   73.4486  228.0019 H   0  0  0  0  0  0  0  0  0  0  0  0
  132.0639   73.5391  228.9510 H   0  0  0  0  0  0  0  0  0  0  0  0
  130.9749   75.8711  228.1809 H   0  0  0  0  0  0  0  0  0  0  0  0
  132.6917   75.7630  227.8848 H   0  0  0  0  0  0  0  0  0  0  0  0
  130.3917   75.5944  225.9666 H   0  0  0  0  0  0  0  0  0  0  0  0
  132.0881   76.0168  225.6202 H   0  0  0  0  0  0  0  0  0  0  0  0
  130.7163   73.3961  225.4251 H   0  0  0  0  0  0  0  0  0  0  0  0
  132.2299   73.8814  224.6844 H   0  0  0  0  0  0  0  0  0  0  0  0
  134.3854   76.1804  226.1654 H   0  0  0  0  0  0  0  0  0  0  0  0
  135.6885   76.8660  224.2209 H   0  0  0  0  0  0  0  0  0  0  0  0
  1  2  1  0
  2  3  1  0
  3  4  1  0
  4  5  2  0
  4  6  1  0
  6  7  1  0
  7  8  1  0
  8  9  2  0
  8 10  1  0
 10 11  2  0
 11 12  1  0
 12 13  2  0
 13 14  1  0
 14 15  2  0
 15 16  1  0
 16 17  2  0
 17 18  1  0
 18 19  2  0
  2 20  1  0
 20 21  2  0
 21 22  1  0
 22 23  2  0
 23 24  1  0
 24 25  1  0
 25 26  1  0
 26 27  1  0
 27 28  1  0
 28 29  1  0
 23 30  1  0
 30 31  2  0
 19 10  1  0
 31 20  1  0
 18 13  1  0
 29 25  1  0
  1 32  1  0
  1 33  1  0
  1 34  1  0
  2 35  1  6
  3 36  1  0
  6 37  1  0
  6 38  1  0
  7 39  1  0
 11 40  1  0
 12 41  1  0
 14 42  1  0
 15 43  1  0
 16 44  1  0
 17 45  1  0
 21 46  1  0
 22 47  1  0
 25 48  1  0
 26 49  1  0
 26 50  1  0
 27 51  1  0
 27 52  1  0
 28 53  1  0
 28 54  1  0
 29 55  1  0
 29 56  1  0
 30 57  1  0
 31 58  1  0
M  END
>  <smiles>  (99) 
CC(NC(=O)CNC(=O)c1ccc2ccccc2n1)c1ccc(OC2CCCC2)cc1

>  <score_type>  (99) 
oracle

>  <origin>  (99) 
autodockgpu

>  <m_score__min__energy>  (99) 
-8.6899999999999995

>  <m_primary>  (99) 
energy

>  <rmsd>  (99) 
7.377637033575488

>  <m_score__min__rmsd>  (99) 
7.377637033575488

>  <meeko>  (99) 
{"free_energy": -8.61, "intermolecular_energy": -10.7, "internal_energy": -2.26, "cluster_size": 15, "cluster_id": 2, "rank_in_cluster": 1}

>  <energy>  (99) 
-8.09

>  <cluster_rmsd>  (99) 
0.73

>  <cluster>  (99) 
3

$$$$

     RDKit          3D

 58 61  0  0  0  0  0  0  0  0999 V2000
  137.3890   76.7130  222.8050 C   0  0  0  0  0  0  0  0  0  0  0  0
  136.6190   75.4640  222.4380 C   0  0  1  0  0  0  0  0  0  0  0  0
  137.6260   74.4530  222.1170 N   0  0  0  0  0  0  0  0  0  0  0  0
  137.6200   73.8090  220.8490 C   0  0  0  0  0  0  0  0  0  0  0  0
  136.7190   74.1500  220.0380 O   0  0  0  0  0  0  0  0  0  0  0  0
  138.6490   72.7840  220.5340 C   0  0  0  0  0  0  0  0  0  0  0  0
  138.7620   71.9110  221.6760 N   0  0  0  0  0  0  0  0  0  0  0  0
  139.6270   72.1990  222.7600 C   0  0  0  0  0  0  0  0  0  0  0  0
  140.3090   73.2570  222.7010 O   0  0  0  0  0  0  0  0  0  0  0  0
  139.7290   71.3040  223.9080 C   0  0  0  0  0  0  0  0  0  0  0  0
  139.1710   70.0460  223.8310 C   0  0  0  0  0  0  0  0  0  0  0  0
  139.2170   69.1310  224.8620 C   0  0  0  0  0  0  0  0  0  0  0  0
  139.8590   69.5120  226.0270 C   0  0  0  0  0  0  0  0  0  0  0  0
  139.9100   68.6070  227.0590 C   0  0  0  0  0  0  0  0  0  0  0  0
  140.5530   68.9710  228.2470 C   0  0  0  0  0  0  0  0  0  0  0  0
  141.1270   70.2380  228.3550 C   0  0  0  0  0  0  0  0  0  0  0  0
  141.0450   71.1130  227.2740 C   0  0  0  0  0  0  0  0  0  0  0  0
  140.4160   70.7730  226.1000 C   0  0  0  0  0  0  0  0  0  0  0  0
  140.3480   71.6490  225.0550 N   0  0  0  0  0  0  0  0  0  0  0  0
  135.8230   74.9460  223.5650 C   0  0  0  0  0  0  0  0  0  0  0  0
  135.4340   73.6230  223.5960 C   0  0  0  0  0  0  0  0  0  0  0  0
  134.6840   73.1750  224.6770 C   0  0  0  0  0  0  0  0  0  0  0  0
  134.3140   73.9950  225.7190 C   0  0  0  0  0  0  0  0  0  0  0  0
  133.5790   73.6120  226.8070 O   0  0  0  0  0  0  0  0  0  0  0  0
  132.3710   74.1950  227.2270 C   0  0  0  0  0  0  0  0  0  0  0  0
  131.4910   74.3940  226.0020 C   0  0  0  0  0  0  0  0  0  0  0  0
  131.3710   72.9480  225.5200 C   0  0  0  0  0  0  0  0  0  0  0  0
  131.1430   72.1990  226.8120 C   0  0  0  0  0  0  0  0  0  0  0  0
  131.5900   73.0910  227.9380 C   0  0  0  0  0  0  0  0  0  0  0  0
  134.7240   75.3170  225.6520 C   0  0  0  0  0  0  0  0  0  0  0  0
  135.4600   75.7590  224.5930 C   0  0  0  0  0  0  0  0  0  0  0  0
  137.4436   76.8016  223.9001 H   0  0  0  0  0  0  0  0  0  0  0  0
  138.4062   76.6516  222.3909 H   0  0  0  0  0  0  0  0  0  0  0  0
  136.8772   77.5942  222.3909 H   0  0  0  0  0  0  0  0  0  0  0  0
  135.9294   75.6915  221.6117 H   0  0  0  0  0  0  0  0  0  0  0  0
  138.3670   74.1790  222.7960 H   0  0  0  0  0  0  0  0  0  0  0  0
  138.3436   72.2060  219.6493 H   0  0  0  0  0  0  0  0  0  0  0  0
  139.6156   73.2623  220.3175 H   0  0  0  0  0  0  0  0  0  0  0  0
  138.2000   71.0270  221.7360 H   0  0  0  0  0  0  0  0  0  0  0  0
  138.6628   69.7569  222.8992 H   0  0  0  0  0  0  0  0  0  0  0  0
  138.7603   68.1353  224.7618 H   0  0  0  0  0  0  0  0  0  0  0  0
  139.4527   67.6122  226.9531 H   0  0  0  0  0  0  0  0  0  0  0  0
  140.6055   68.2645  229.0885 H   0  0  0  0  0  0  0  0  0  0  0  0
  141.6373   70.5419  229.2809 H   0  0  0  0  0  0  0  0  0  0  0  0
  141.4995   72.1108  227.3631 H   0  0  0  0  0  0  0  0  0  0  0  0
  135.7115   72.9369  222.7822 H   0  0  0  0  0  0  0  0  0  0  0  0
  134.3728   72.1202  224.7009 H   0  0  0  0  0  0  0  0  0  0  0  0
  132.5795   75.1070  227.8056 H   0  0  0  0  0  0  0  0  0  0  0  0
  130.5114   74.8177  226.2681 H   0  0  0  0  0  0  0  0  0  0  0  0
  131.8889   75.0982  225.2565 H   0  0  0  0  0  0  0  0  0  0  0  0
  130.5208   72.8259  224.8328 H   0  0  0  0  0  0  0  0  0  0  0  0
  132.2468   72.5968  224.9546 H   0  0  0  0  0  0  0  0  0  0  0  0
  130.0752   71.9598  226.9238 H   0  0  0  0  0  0  0  0  0  0  0  0
  131.7089   71.2558  226.8175 H   0  0  0  0  0  0  0  0  0  0  0  0
  130.7262   73.5055  228.4784 H   0  0  0  0  0  0  0  0  0  0  0  0
  132.1878   72.5610  228.6941 H   0  0  0  0  0  0  0  0  0  0  0  0
  134.4538   76.0144  226.4586 H   0  0  0  0  0  0  0  0  0  0  0  0
  135.7722   76.8135  224.5691 H   0  0  0  0  0  0  0  0  0  0  0  0
  1  2  1  0
  2  3  1  0
  3  4  1  0
  4  5  2  0
  4  6  1  0
  6  7  1  0
  7  8  1  0
  8  9  2  0
  8 10  1  0
 10 11  2  0
 11 12  1  0
 12 13  2  0
 13 14  1  0
 14 15  2  0
 15 16  1  0
 16 17  2  0
 17 18  1  0
 18 19  2  0
  2 20  1  0
 20 21  2  0
 21 22  1  0
 22 23  2  0
 23 24  1  0
 24 25  1  0
 25 26  1  0
 26 27  1  0
 27 28  1  0
 28 29  1  0
 23 30  1  0
 30 31  2  0
 19 10  1  0
 31 20  1  0
 18 13  1  0
 29 25  1  0
  1 32  1  0
  1 33  1  0
  1 34  1  0
  2 35  1  6
  3 36  1  0
  6 37  1  0
  6 38  1  0
  7 39  1  0
 11 40  1  0
 12 41  1  0
 14 42  1  0
 15 43  1  0
 16 44  1  0
 17 45  1  0
 21 46  1  0
 22 47  1  0
 25 48  1  0
 26 49  1  0
 26 50  1  0
 27 51  1  0
 27 52  1  0
 28 53  1  0
 28 54  1  0
 29 55  1  0
 29 56  1  0
 30 57  1  0
 31 58  1  0
M  END
>  <smiles>  (100) 
CC(NC(=O)CNC(=O)c1ccc2ccccc2n1)c1ccc(OC2CCCC2)cc1

>  <score_type>  (100) 
oracle

>  <origin>  (100) 
autodockgpu

>  <m_score__min__energy>  (100) 
-8.6899999999999995

>  <m_primary>  (100) 
energy

>  <rmsd>  (100) 
7.330891913177796

>  <m_score__min__rmsd>  (100) 
7.330891913177796

>  <meeko>  (100) 
{"free_energy": -8.54, "intermolecular_energy": -10.62, "internal_energy": -2.24, "cluster_size": 15, "cluster_id": 2, "rank_in_cluster": 8}

>  <energy>  (100) 
-8.14

>  <cluster_rmsd>  (100) 
0.0

>  <cluster>  (100) 
4

$$$$
