
     RDKit          3D

 52 56  0  0  0  0  0  0  0  0999 V2000
  143.8680   72.5090  220.7520 O   0  0  0  0  0  0  0  0  0  0  0  0
  142.9800   73.3780  220.7020 C   0  0  0  0  0  0  0  0  0  0  0  0
  143.2700   74.6620  220.0080 C   0  0  0  0  0  0  0  0  0  0  0  0
  142.1000   75.5800  220.0510 C   0  0  0  0  0  0  0  0  0  0  0  0
  142.2380   76.8900  219.4030 C   0  0  0  0  0  0  0  0  0  0  0  0
  142.6640   76.9960  218.0920 C   0  0  0  0  0  0  0  0  0  0  0  0
  142.7760   78.2430  217.5190 C   0  0  0  0  0  0  0  0  0  0  0  0
  142.4590   79.3620  218.2690 C   0  0  0  0  0  0  0  0  0  0  0  0
  142.0350   79.3080  219.5700 C   0  0  0  0  0  0  0  0  0  0  0  0
  141.7010   80.4580  220.3880 C   0  0  0  0  0  0  0  0  0  0  0  0
  141.0530   81.3860  219.8290 O   0  0  0  0  0  0  0  0  0  0  0  0
  142.0740   80.5680  221.7730 N   0  0  0  0  0  0  0  0  0  0  0  0
  142.7770   79.8160  222.7800 C   0  0  0  0  0  0  0  0  0  0  0  0
  142.2640   80.7280  223.8440 C   0  0  0  0  0  0  0  0  0  0  0  0
  141.8220   81.6120  222.7310 C   0  0  0  0  0  0  0  0  0  0  0  0
  141.9320   78.0220  220.1220 C   0  0  0  0  0  0  0  0  0  0  0  0
  140.9920   75.2610  220.6270 N   0  0  0  0  0  0  0  0  0  0  0  0
  140.7100   74.0540  221.2810 C   0  0  0  0  0  0  0  0  0  0  0  0
  139.4910   73.7730  221.8760 C   0  0  0  0  0  0  0  0  0  0  0  0
  139.2460   72.5590  222.5110 C   0  0  0  0  0  0  0  0  0  0  0  0
  140.2380   71.5930  222.5580 C   0  0  0  0  0  0  0  0  0  0  0  0
  140.0610   70.3750  223.1670 O   0  0  0  0  0  0  0  0  0  0  0  0
  139.1560   70.0790  224.1950 C   0  0  0  0  0  0  0  0  0  0  0  0
  139.8460   70.4300  225.4870 C   0  0  0  0  0  0  0  0  0  0  0  0
  140.6580   71.5240  225.6210 C   0  0  0  0  0  0  0  0  0  0  0  0
  141.2790   71.8190  226.8160 C   0  0  0  0  0  0  0  0  0  0  0  0
  141.0280   70.9410  227.8630 C   0  0  0  0  0  0  0  0  0  0  0  0
  140.2410   69.8670  227.7640 N   0  0  0  0  0  0  0  0  0  0  0  0
  139.6450   69.5950  226.5970 C   0  0  0  0  0  0  0  0  0  0  0  0
  141.4400   71.9030  221.9580 C   0  0  0  0  0  0  0  0  0  0  0  0
  141.7020   73.0810  221.3330 C   0  0  0  0  0  0  0  0  0  0  0  0
  144.1251   75.1491  220.4996 H   0  0  0  0  0  0  0  0  0  0  0  0
  143.4981   74.4418  218.9547 H   0  0  0  0  0  0  0  0  0  0  0  0
  142.9108   76.0939  217.5130 H   0  0  0  0  0  0  0  0  0  0  0  0
  143.1135   78.3485  216.4774 H   0  0  0  0  0  0  0  0  0  0  0  0
  142.5528   80.3496  217.7937 H   0  0  0  0  0  0  0  0  0  0  0  0
  142.4345   78.7755  222.8805 H   0  0  0  0  0  0  0  0  0  0  0  0
  143.8581   79.6388  222.6806 H   0  0  0  0  0  0  0  0  0  0  0  0
  141.4511   80.3135  224.4583 H   0  0  0  0  0  0  0  0  0  0  0  0
  142.8967   81.0882  224.6686 H   0  0  0  0  0  0  0  0  0  0  0  0
  140.7661   81.9138  222.7940 H   0  0  0  0  0  0  0  0  0  0  0  0
  142.2840   82.6015  222.5991 H   0  0  0  0  0  0  0  0  0  0  0  0
  141.5955   77.9157  221.1639 H   0  0  0  0  0  0  0  0  0  0  0  0
  138.6942   74.5307  221.8458 H   0  0  0  0  0  0  0  0  0  0  0  0
  138.2671   72.3669  222.9745 H   0  0  0  0  0  0  0  0  0  0  0  0
  138.2401   70.6770  224.0788 H   0  0  0  0  0  0  0  0  0  0  0  0
  138.8647   69.0185  224.1752 H   0  0  0  0  0  0  0  0  0  0  0  0
  140.8187   72.1830  224.7550 H   0  0  0  0  0  0  0  0  0  0  0  0
  141.9330   72.6956  226.9333 H   0  0  0  0  0  0  0  0  0  0  0  0
  141.5068   71.1430  228.8325 H   0  0  0  0  0  0  0  0  0  0  0  0
  138.9944   68.7126  226.5073 H   0  0  0  0  0  0  0  0  0  0  0  0
  142.2391   71.1476  221.9871 H   0  0  0  0  0  0  0  0  0  0  0  0
  1  2  2  0
  2  3  1  0
  3  4  1  0
  4  5  1  0
  5  6  2  0
  6  7  1  0
  7  8  2  0
  8  9  1  0
  9 10  1  0
 10 11  2  0
 10 12  1  0
 12 13  1  0
 13 14  1  0
 14 15  1  0
  9 16  2  0
  4 17  2  0
 17 18  1  0
 18 19  2  0
 19 20  1  0
 20 21  2  0
 21 22  1  0
 22 23  1  0
 23 24  1  0
 24 25  2  0
 25 26  1  0
 26 27  2  0
 27 28  1  0
 28 29  2  0
 21 30  1  0
 30 31  2  0
 31  2  1  0
 16  5  1  0
 31 18  1  0
 15 12  1  0
 29 24  1  0
  3 32  1  0
  3 33  1  0
  6 34  1  0
  7 35  1  0
  8 36  1  0
 13 37  1  0
 13 38  1  0
 14 39  1  0
 14 40  1  0
 15 41  1  0
 15 42  1  0
 16 43  1  0
 19 44  1  0
 20 45  1  0
 23 46  1  0
 23 47  1  0
 25 48  1  0
 26 49  1  0
 27 50  1  0
 29 51  1  0
 30 52  1  0
M  END
>  <smiles>  (1) 
O=C1CC(c2cccc(C(=O)N3CCC3)c2)=Nc2ccc(OCc3cccnc3)cc21

>  <score_type>  (1) 
oracle

>  <origin>  (1) 
autodockgpu

>  <m_score__min__energy>  (1) 
-8.8699999999999992

>  <m_primary>  (1) 
energy

>  <rmsd>  (1) 
8.508994605370782

>  <m_score__min__rmsd>  (1) 
8.508994605370782

>  <meeko>  (1) 
{"free_energy": -8.23, "intermolecular_energy": -9.73, "internal_energy": -0.99, "cluster_size": 6, "cluster_id": 3, "rank_in_cluster": 4}

>  <energy>  (1) 
-8.87

>  <cluster_rmsd>  (1) 
0.0

>  <cluster>  (1) 
1

$$$$

     RDKit          3D

 52 56  0  0  0  0  0  0  0  0999 V2000
  142.9840   74.7710  219.6690 O   0  0  0  0  0  0  0  0  0  0  0  0
  142.0220   74.6400  220.4450 C   0  0  0  0  0  0  0  0  0  0  0  0
  141.8070   73.3260  221.1080 C   0  0  0  0  0  0  0  0  0  0  0  0
  140.6120   73.3520  221.9940 C   0  0  0  0  0  0  0  0  0  0  0  0
  140.2740   72.1200  222.7180 C   0  0  0  0  0  0  0  0  0  0  0  0
  139.5440   71.1140  222.1130 C   0  0  0  0  0  0  0  0  0  0  0  0
  139.2520   69.9730  222.8250 C   0  0  0  0  0  0  0  0  0  0  0  0
  139.6960   69.8580  224.1300 C   0  0  0  0  0  0  0  0  0  0  0  0
  140.4200   70.8270  224.7730 C   0  0  0  0  0  0  0  0  0  0  0  0
  140.8960   70.7450  226.1400 C   0  0  0  0  0  0  0  0  0  0  0  0
  141.5130   71.7500  226.5900 O   0  0  0  0  0  0  0  0  0  0  0  0
  140.6900   69.5900  226.9730 N   0  0  0  0  0  0  0  0  0  0  0  0
  140.0870   68.2850  226.9030 C   0  0  0  0  0  0  0  0  0  0  0  0
  140.2000   68.1340  228.3830 C   0  0  0  0  0  0  0  0  0  0  0  0
  141.0730   69.3380  228.3370 C   0  0  0  0  0  0  0  0  0  0  0  0
  140.7000   71.9760  224.0180 C   0  0  0  0  0  0  0  0  0  0  0  0
  139.8840   74.4050  222.1410 N   0  0  0  0  0  0  0  0  0  0  0  0
  140.0800   75.6470  221.5230 C   0  0  0  0  0  0  0  0  0  0  0  0
  139.2600   76.7440  221.7320 C   0  0  0  0  0  0  0  0  0  0  0  0
  139.4910   77.9640  221.1050 C   0  0  0  0  0  0  0  0  0  0  0  0
  140.5680   78.1040  220.2440 C   0  0  0  0  0  0  0  0  0  0  0  0
  140.8530   79.2800  219.5960 O   0  0  0  0  0  0  0  0  0  0  0  0
  141.9660   80.1040  219.8100 C   0  0  0  0  0  0  0  0  0  0  0  0
  141.9970   80.4090  221.2840 C   0  0  0  0  0  0  0  0  0  0  0  0
  142.5300   79.5500  222.2080 C   0  0  0  0  0  0  0  0  0  0  0  0
  142.5410   79.8560  223.5520 C   0  0  0  0  0  0  0  0  0  0  0  0
  141.9830   81.0790  223.9020 C   0  0  0  0  0  0  0  0  0  0  0  0
  141.4570   81.9370  223.0250 N   0  0  0  0  0  0  0  0  0  0  0  0
  141.4540   81.6260  221.7230 C   0  0  0  0  0  0  0  0  0  0  0  0
  141.3650   76.9950  220.0560 C   0  0  0  0  0  0  0  0  0  0  0  0
  141.1590   75.7940  220.6580 C   0  0  0  0  0  0  0  0  0  0  0  0
  141.6632   72.5554  220.3363 H   0  0  0  0  0  0  0  0  0  0  0  0
  142.6896   73.1019  221.7250 H   0  0  0  0  0  0  0  0  0  0  0  0
  139.2003   71.2242  221.0739 H   0  0  0  0  0  0  0  0  0  0  0  0
  138.6719   69.1614  222.3614 H   0  0  0  0  0  0  0  0  0  0  0  0
  139.4544   68.9377  224.6819 H   0  0  0  0  0  0  0  0  0  0  0  0
  139.0512   68.2911  226.5327 H   0  0  0  0  0  0  0  0  0  0  0  0
  140.5096   67.5180  226.2373 H   0  0  0  0  0  0  0  0  0  0  0  0
  139.2582   68.2645  228.9361 H   0  0  0  0  0  0  0  0  0  0  0  0
  140.5155   67.1935  228.8583 H   0  0  0  0  0  0  0  0  0  0  0  0
  140.7748   70.1318  229.0376 H   0  0  0  0  0  0  0  0  0  0  0  0
  142.1373   69.2550  228.6022 H   0  0  0  0  0  0  0  0  0  0  0  0
  141.2793   72.7885  224.4809 H   0  0  0  0  0  0  0  0  0  0  0  0
  138.4017   76.6474  222.4132 H   0  0  0  0  0  0  0  0  0  0  0  0
  138.8204   78.8157  221.2921 H   0  0  0  0  0  0  0  0  0  0  0  0
  142.8874   79.5830  219.5106 H   0  0  0  0  0  0  0  0  0  0  0  0
  141.8974   81.0266  219.2149 H   0  0  0  0  0  0  0  0  0  0  0  0
  142.9587   78.5950  221.8702 H   0  0  0  0  0  0  0  0  0  0  0  0
  142.9660   79.1729  224.3021 H   0  0  0  0  0  0  0  0  0  0  0  0
  141.9740   81.3573  224.9662 H   0  0  0  0  0  0  0  0  0  0  0  0
  141.0237   82.3280  220.9937 H   0  0  0  0  0  0  0  0  0  0  0  0
  142.2234   77.0882  219.3745 H   0  0  0  0  0  0  0  0  0  0  0  0
  1  2  2  0
  2  3  1  0
  3  4  1  0
  4  5  1  0
  5  6  2  0
  6  7  1  0
  7  8  2  0
  8  9  1  0
  9 10  1  0
 10 11  2  0
 10 12  1  0
 12 13  1  0
 13 14  1  0
 14 15  1  0
  9 16  2  0
  4 17  2  0
 17 18  1  0
 18 19  2  0
 19 20  1  0
 20 21  2  0
 21 22  1  0
 22 23  1  0
 23 24  1  0
 24 25  2  0
 25 26  1  0
 26 27  2  0
 27 28  1  0
 28 29  2  0
 21 30  1  0
 30 31  2  0
 31  2  1  0
 16  5  1  0
 31 18  1  0
 15 12  1  0
 29 24  1  0
  3 32  1  0
  3 33  1  0
  6 34  1  0
  7 35  1  0
  8 36  1  0
 13 37  1  0
 13 38  1  0
 14 39  1  0
 14 40  1  0
 15 41  1  0
 15 42  1  0
 16 43  1  0
 19 44  1  0
 20 45  1  0
 23 46  1  0
 23 47  1  0
 25 48  1  0
 26 49  1  0
 27 50  1  0
 29 51  1  0
 30 52  1  0
M  END
>  <smiles>  (2) 
O=C1CC(c2cccc(C(=O)N3CCC3)c2)=Nc2ccc(OCc3cccnc3)cc21

>  <score_type>  (2) 
oracle

>  <origin>  (2) 
autodockgpu

>  <m_score__min__energy>  (2) 
-8.8699999999999992

>  <m_primary>  (2) 
energy

>  <rmsd>  (2) 
7.346588856433971

>  <m_score__min__rmsd>  (2) 
7.346588856433971

>  <meeko>  (2) 
{"free_energy": -8.57, "intermolecular_energy": -10.06, "internal_energy": -1.09, "cluster_size": 37, "cluster_id": 1, "rank_in_cluster": 22}

>  <energy>  (2) 
-8.86

>  <cluster_rmsd>  (2) 
0.18

>  <cluster>  (2) 
1

$$$$

     RDKit          3D

 52 56  0  0  0  0  0  0  0  0999 V2000
  143.0290   73.3120  219.8010 O   0  0  0  0  0  0  0  0  0  0  0  0
  142.0720   73.3250  220.5950 C   0  0  0  0  0  0  0  0  0  0  0  0
  141.5680   72.0330  221.1340 C   0  0  0  0  0  0  0  0  0  0  0  0
  140.4220   72.2400  222.0600 C   0  0  0  0  0  0  0  0  0  0  0  0
  139.8190   71.0490  222.6740 C   0  0  0  0  0  0  0  0  0  0  0  0
  139.0100   70.2010  221.9410 C   0  0  0  0  0  0  0  0  0  0  0  0
  138.4680   69.0940  222.5520 C   0  0  0  0  0  0  0  0  0  0  0  0
  138.7450   68.8540  223.8860 C   0  0  0  0  0  0  0  0  0  0  0  0
  139.5380   69.6650  224.6540 C   0  0  0  0  0  0  0  0  0  0  0  0
  139.8440   69.4490  226.0540 C   0  0  0  0  0  0  0  0  0  0  0  0
  139.6640   68.2840  226.5050 O   0  0  0  0  0  0  0  0  0  0  0  0
  140.3340   70.4910  226.9170 N   0  0  0  0  0  0  0  0  0  0  0  0
  140.6710   71.8900  226.8610 C   0  0  0  0  0  0  0  0  0  0  0  0
  141.3360   71.8000  228.1950 C   0  0  0  0  0  0  0  0  0  0  0  0
  140.6990   70.4600  228.3090 C   0  0  0  0  0  0  0  0  0  0  0  0
  140.0750   70.7840  223.9990 C   0  0  0  0  0  0  0  0  0  0  0  0
  139.9570   73.4100  222.3350 N   0  0  0  0  0  0  0  0  0  0  0  0
  140.4270   74.6320  221.8340 C   0  0  0  0  0  0  0  0  0  0  0  0
  139.8820   75.8590  222.1760 C   0  0  0  0  0  0  0  0  0  0  0  0
  140.3810   77.0520  221.6620 C   0  0  0  0  0  0  0  0  0  0  0  0
  141.4500   77.0310  220.7820 C   0  0  0  0  0  0  0  0  0  0  0  0
  141.9900   78.1710  220.2410 O   0  0  0  0  0  0  0  0  0  0  0  0
  141.4000   79.4420  220.2120 C   0  0  0  0  0  0  0  0  0  0  0  0
  141.7190   80.0940  221.5320 C   0  0  0  0  0  0  0  0  0  0  0  0
  142.3570   79.4340  222.5480 C   0  0  0  0  0  0  0  0  0  0  0  0
  142.6330   80.0560  223.7470 C   0  0  0  0  0  0  0  0  0  0  0  0
  142.2270   81.3810  223.8530 C   0  0  0  0  0  0  0  0  0  0  0  0
  141.6050   82.0490  222.8790 N   0  0  0  0  0  0  0  0  0  0  0  0
  141.3440   81.4320  221.7210 C   0  0  0  0  0  0  0  0  0  0  0  0
  141.9690   75.7950  220.4590 C   0  0  0  0  0  0  0  0  0  0  0  0
  141.4990   74.6170  220.9490 C   0  0  0  0  0  0  0  0  0  0  0  0
  141.2412   71.3992  220.2965 H   0  0  0  0  0  0  0  0  0  0  0  0
  142.3826   71.5509  221.6944 H   0  0  0  0  0  0  0  0  0  0  0  0
  138.8019   70.4090  220.8811 H   0  0  0  0  0  0  0  0  0  0  0  0
  137.8215   68.4072  221.9861 H   0  0  0  0  0  0  0  0  0  0  0  0
  138.3040   67.9626  224.3560 H   0  0  0  0  0  0  0  0  0  0  0  0
  141.3530   72.1525  226.0388 H   0  0  0  0  0  0  0  0  0  0  0  0
  139.8852   72.6397  226.6863 H   0  0  0  0  0  0  0  0  0  0  0  0
  142.4356   71.7902  228.1657 H   0  0  0  0  0  0  0  0  0  0  0  0
  141.2206   72.5762  228.9659 H   0  0  0  0  0  0  0  0  0  0  0  0
  141.4008   69.6535  228.5679 H   0  0  0  0  0  0  0  0  0  0  0  0
  139.9296   70.2812  229.0745 H   0  0  0  0  0  0  0  0  0  0  0  0
  140.7218   71.4715  224.5638 H   0  0  0  0  0  0  0  0  0  0  0  0
  139.0316   75.8910  222.8729 H   0  0  0  0  0  0  0  0  0  0  0  0
  139.9269   78.0103  221.9543 H   0  0  0  0  0  0  0  0  0  0  0  0
  141.8169   80.0353  219.3849 H   0  0  0  0  0  0  0  0  0  0  0  0
  140.3133   79.3718  220.0563 H   0  0  0  0  0  0  0  0  0  0  0  0
  142.6557   78.3851  222.4045 H   0  0  0  0  0  0  0  0  0  0  0  0
  143.1438   79.5350  224.5702 H   0  0  0  0  0  0  0  0  0  0  0  0
  142.4303   81.9106  224.7954 H   0  0  0  0  0  0  0  0  0  0  0  0
  140.8329   81.9767  220.9134 H   0  0  0  0  0  0  0  0  0  0  0  0
  142.8177   75.7598  219.7601 H   0  0  0  0  0  0  0  0  0  0  0  0
  1  2  2  0
  2  3  1  0
  3  4  1  0
  4  5  1  0
  5  6  2  0
  6  7  1  0
  7  8  2  0
  8  9  1  0
  9 10  1  0
 10 11  2  0
 10 12  1  0
 12 13  1  0
 13 14  1  0
 14 15  1  0
  9 16  2  0
  4 17  2  0
 17 18  1  0
 18 19  2  0
 19 20  1  0
 20 21  2  0
 21 22  1  0
 22 23  1  0
 23 24  1  0
 24 25  2  0
 25 26  1  0
 26 27  2  0
 27 28  1  0
 28 29  2  0
 21 30  1  0
 30 31  2  0
 31  2  1  0
 16  5  1  0
 31 18  1  0
 15 12  1  0
 29 24  1  0
  3 32  1  0
  3 33  1  0
  6 34  1  0
  7 35  1  0
  8 36  1  0
 13 37  1  0
 13 38  1  0
 14 39  1  0
 14 40  1  0
 15 41  1  0
 15 42  1  0
 16 43  1  0
 19 44  1  0
 20 45  1  0
 23 46  1  0
 23 47  1  0
 25 48  1  0
 26 49  1  0
 27 50  1  0
 29 51  1  0
 30 52  1  0
M  END
>  <smiles>  (3) 
O=C1CC(c2cccc(C(=O)N3CCC3)c2)=Nc2ccc(OCc3cccnc3)cc21

>  <score_type>  (3) 
oracle

>  <origin>  (3) 
autodockgpu

>  <m_score__min__energy>  (3) 
-8.8699999999999992

>  <m_primary>  (3) 
energy

>  <rmsd>  (3) 
6.328677558401724

>  <m_score__min__rmsd>  (3) 
6.328677558401724

>  <meeko>  (3) 
{"free_energy": -8.83, "intermolecular_energy": -10.32, "internal_energy": -0.91, "cluster_size": 37, "cluster_id": 1, "rank_in_cluster": 3}

>  <energy>  (3) 
-8.83

>  <cluster_rmsd>  (3) 
0.83

>  <cluster>  (3) 
1

$$$$

     RDKit          3D

 52 56  0  0  0  0  0  0  0  0999 V2000
  142.9340   73.0160  220.4980 O   0  0  0  0  0  0  0  0  0  0  0  0
  141.8390   73.1190  221.0780 C   0  0  0  0  0  0  0  0  0  0  0  0
  141.1630   71.8860  221.5630 C   0  0  0  0  0  0  0  0  0  0  0  0
  139.8690   72.1990  222.2250 C   0  0  0  0  0  0  0  0  0  0  0  0
  139.0860   71.0760  222.7570 C   0  0  0  0  0  0  0  0  0  0  0  0
  137.9470   70.6320  222.1120 C   0  0  0  0  0  0  0  0  0  0  0  0
  137.2440   69.5740  222.6410 C   0  0  0  0  0  0  0  0  0  0  0  0
  137.6930   68.9780  223.8050 C   0  0  0  0  0  0  0  0  0  0  0  0
  138.8150   69.3820  224.4810 C   0  0  0  0  0  0  0  0  0  0  0  0
  139.3120   68.7870  225.7050 C   0  0  0  0  0  0  0  0  0  0  0  0
  139.1910   67.5360  225.8220 O   0  0  0  0  0  0  0  0  0  0  0  0
  139.9220   69.5560  226.7580 N   0  0  0  0  0  0  0  0  0  0  0  0
  140.2530   70.9230  227.0620 C   0  0  0  0  0  0  0  0  0  0  0  0
  141.0970   70.4810  228.2110 C   0  0  0  0  0  0  0  0  0  0  0  0
  140.4760   69.1420  228.0190 C   0  0  0  0  0  0  0  0  0  0  0  0
  139.5070   70.4630  223.9140 C   0  0  0  0  0  0  0  0  0  0  0  0
  139.4270   73.4040  222.3450 N   0  0  0  0  0  0  0  0  0  0  0  0
  140.0580   74.5720  221.8940 C   0  0  0  0  0  0  0  0  0  0  0  0
  139.5290   75.8410  222.0610 C   0  0  0  0  0  0  0  0  0  0  0  0
  140.1890   76.9780  221.6050 C   0  0  0  0  0  0  0  0  0  0  0  0
  141.4110   76.8550  220.9630 C   0  0  0  0  0  0  0  0  0  0  0  0
  142.1140   77.9360  220.4910 O   0  0  0  0  0  0  0  0  0  0  0  0
  141.6230   79.2350  220.3040 C   0  0  0  0  0  0  0  0  0  0  0  0
  141.8550   79.9710  221.5970 C   0  0  0  0  0  0  0  0  0  0  0  0
  142.5290   79.4200  222.6530 C   0  0  0  0  0  0  0  0  0  0  0  0
  142.7230   80.1170  223.8270 C   0  0  0  0  0  0  0  0  0  0  0  0
  142.1950   81.4010  223.8640 C   0  0  0  0  0  0  0  0  0  0  0  0
  141.5340   81.9660  222.8510 N   0  0  0  0  0  0  0  0  0  0  0  0
  141.3540   81.2760  221.7190 C   0  0  0  0  0  0  0  0  0  0  0  0
  141.9110   75.5790  220.8100 C   0  0  0  0  0  0  0  0  0  0  0  0
  141.2840   74.4550  221.2480 C   0  0  0  0  0  0  0  0  0  0  0  0
  140.9751   71.2211  220.7071 H   0  0  0  0  0  0  0  0  0  0  0  0
  141.8191   71.3996  222.2999 H   0  0  0  0  0  0  0  0  0  0  0  0
  137.6064   71.1189  221.1863 H   0  0  0  0  0  0  0  0  0  0  0  0
  136.3346   69.2063  222.1432 H   0  0  0  0  0  0  0  0  0  0  0  0
  137.1180   68.1328  224.2111 H   0  0  0  0  0  0  0  0  0  0  0  0
  140.8145   71.4340  226.2661 H   0  0  0  0  0  0  0  0  0  0  0  0
  139.4532   71.6619  227.2180 H   0  0  0  0  0  0  0  0  0  0  0  0
  142.1817   70.5197  228.0322 H   0  0  0  0  0  0  0  0  0  0  0  0
  141.0939   71.0003  229.1807 H   0  0  0  0  0  0  0  0  0  0  0  0
  141.2034   68.3208  227.9382 H   0  0  0  0  0  0  0  0  0  0  0  0
  139.8195   68.7245  228.7967 H   0  0  0  0  0  0  0  0  0  0  0  0
  140.4161   70.8323  224.4112 H   0  0  0  0  0  0  0  0  0  0  0  0
  138.5596   75.9533  222.5686 H   0  0  0  0  0  0  0  0  0  0  0  0
  139.7419   77.9720  221.7537 H   0  0  0  0  0  0  0  0  0  0  0  0
  142.1621   79.7303  219.4830 H   0  0  0  0  0  0  0  0  0  0  0  0
  140.5552   79.2221  220.0401 H   0  0  0  0  0  0  0  0  0  0  0  0
  142.9251   78.3977  222.5632 H   0  0  0  0  0  0  0  0  0  0  0  0
  143.2627   79.6827  224.6815 H   0  0  0  0  0  0  0  0  0  0  0  0
  142.3297   81.9884  224.7842 H   0  0  0  0  0  0  0  0  0  0  0  0
  140.8104   81.7341  220.8795 H   0  0  0  0  0  0  0  0  0  0  0  0
  142.8792   75.4631  220.3009 H   0  0  0  0  0  0  0  0  0  0  0  0
  1  2  2  0
  2  3  1  0
  3  4  1  0
  4  5  1  0
  5  6  2  0
  6  7  1  0
  7  8  2  0
  8  9  1  0
  9 10  1  0
 10 11  2  0
 10 12  1  0
 12 13  1  0
 13 14  1  0
 14 15  1  0
  9 16  2  0
  4 17  2  0
 17 18  1  0
 18 19  2  0
 19 20  1  0
 20 21  2  0
 21 22  1  0
 22 23  1  0
 23 24  1  0
 24 25  2  0
 25 26  1  0
 26 27  2  0
 27 28  1  0
 28 29  2  0
 21 30  1  0
 30 31  2  0
 31  2  1  0
 16  5  1  0
 31 18  1  0
 15 12  1  0
 29 24  1  0
  3 32  1  0
  3 33  1  0
  6 34  1  0
  7 35  1  0
  8 36  1  0
 13 37  1  0
 13 38  1  0
 14 39  1  0
 14 40  1  0
 15 41  1  0
 15 42  1  0
 16 43  1  0
 19 44  1  0
 20 45  1  0
 23 46  1  0
 23 47  1  0
 25 48  1  0
 26 49  1  0
 27 50  1  0
 29 51  1  0
 30 52  1  0
M  END
>  <smiles>  (4) 
O=C1CC(c2cccc(C(=O)N3CCC3)c2)=Nc2ccc(OCc3cccnc3)cc21

>  <score_type>  (4) 
oracle

>  <origin>  (4) 
autodockgpu

>  <m_score__min__energy>  (4) 
-8.8699999999999992

>  <m_primary>  (4) 
energy

>  <rmsd>  (4) 
6.186207056452981

>  <m_score__min__rmsd>  (4) 
6.186207056452981

>  <meeko>  (4) 
{"free_energy": -8.82, "intermolecular_energy": -10.31, "internal_energy": -1.0, "cluster_size": 37, "cluster_id": 1, "rank_in_cluster": 5}

>  <energy>  (4) 
-8.83

>  <cluster_rmsd>  (4) 
0.3

>  <cluster>  (4) 
1

$$$$

     RDKit          3D

 52 56  0  0  0  0  0  0  0  0999 V2000
  142.4800   74.5000  219.2160 O   0  0  0  0  0  0  0  0  0  0  0  0
  141.6950   74.4370  220.1790 C   0  0  0  0  0  0  0  0  0  0  0  0
  141.4890   73.1280  220.8540 C   0  0  0  0  0  0  0  0  0  0  0  0
  140.5170   73.2400  221.9740 C   0  0  0  0  0  0  0  0  0  0  0  0
  140.2130   72.0220  222.7370 C   0  0  0  0  0  0  0  0  0  0  0  0
  139.5100   70.9780  222.1640 C   0  0  0  0  0  0  0  0  0  0  0  0
  139.2500   69.8530  222.9120 C   0  0  0  0  0  0  0  0  0  0  0  0
  139.6970   69.7910  224.2200 C   0  0  0  0  0  0  0  0  0  0  0  0
  140.3950   70.7990  224.8310 C   0  0  0  0  0  0  0  0  0  0  0  0
  140.8730   70.7730  226.1990 C   0  0  0  0  0  0  0  0  0  0  0  0
  141.4100   71.8280  226.6360 O   0  0  0  0  0  0  0  0  0  0  0  0
  140.7550   69.6170  227.0480 N   0  0  0  0  0  0  0  0  0  0  0  0
  140.2540   68.2680  226.9960 C   0  0  0  0  0  0  0  0  0  0  0  0
  140.3750   68.1470  228.4780 C   0  0  0  0  0  0  0  0  0  0  0  0
  141.1540   69.4140  228.4150 C   0  0  0  0  0  0  0  0  0  0  0  0
  140.6430   71.9310  224.0400 C   0  0  0  0  0  0  0  0  0  0  0  0
  139.9490   74.3530  222.2880 N   0  0  0  0  0  0  0  0  0  0  0  0
  140.1390   75.5920  221.6590 C   0  0  0  0  0  0  0  0  0  0  0  0
  139.4990   76.7560  222.0520 C   0  0  0  0  0  0  0  0  0  0  0  0
  139.7190   77.9690  221.4070 C   0  0  0  0  0  0  0  0  0  0  0  0
  140.5990   78.0320  220.3390 C   0  0  0  0  0  0  0  0  0  0  0  0
  140.8610   79.1970  219.6610 O   0  0  0  0  0  0  0  0  0  0  0  0
  141.9630   80.0420  219.8480 C   0  0  0  0  0  0  0  0  0  0  0  0
  142.0070   80.3720  221.3170 C   0  0  0  0  0  0  0  0  0  0  0  0
  142.5740   79.5410  222.2460 C   0  0  0  0  0  0  0  0  0  0  0  0
  142.5970   79.8680  223.5850 C   0  0  0  0  0  0  0  0  0  0  0  0
  142.0130   81.0830  223.9240 C   0  0  0  0  0  0  0  0  0  0  0  0
  141.4540   81.9130  223.0410 N   0  0  0  0  0  0  0  0  0  0  0  0
  141.4400   81.5820  221.7440 C   0  0  0  0  0  0  0  0  0  0  0  0
  141.2190   76.8570  219.9710 C   0  0  0  0  0  0  0  0  0  0  0  0
  141.0210   75.6620  220.5860 C   0  0  0  0  0  0  0  0  0  0  0  0
  141.1067   72.4034  220.1199 H   0  0  0  0  0  0  0  0  0  0  0  0
  142.4536   72.7961  221.2657 H   0  0  0  0  0  0  0  0  0  0  0  0
  139.1628   71.0463  221.1225 H   0  0  0  0  0  0  0  0  0  0  0  0
  138.6925   69.0115  222.4748 H   0  0  0  0  0  0  0  0  0  0  0  0
  139.4800   68.8825  224.8011 H   0  0  0  0  0  0  0  0  0  0  0  0
  139.2216   68.1892  226.6245 H   0  0  0  0  0  0  0  0  0  0  0  0
  140.7358   67.5265  226.3418 H   0  0  0  0  0  0  0  0  0  0  0  0
  139.4248   68.2131  229.0283 H   0  0  0  0  0  0  0  0  0  0  0  0
  140.7602   67.2403  228.9673 H   0  0  0  0  0  0  0  0  0  0  0  0
  140.7952   70.1925  229.1043 H   0  0  0  0  0  0  0  0  0  0  0  0
  142.2212   69.4161  228.6815 H   0  0  0  0  0  0  0  0  0  0  0  0
  141.1997   72.7734  224.4765 H   0  0  0  0  0  0  0  0  0  0  0  0
  138.7969   76.7203  222.8980 H   0  0  0  0  0  0  0  0  0  0  0  0
  139.1955   78.8757  221.7443 H   0  0  0  0  0  0  0  0  0  0  0  0
  142.8890   79.5309  219.5458 H   0  0  0  0  0  0  0  0  0  0  0  0
  141.8722   80.9535  219.2389 H   0  0  0  0  0  0  0  0  0  0  0  0
  143.0210   78.5915  221.9165 H   0  0  0  0  0  0  0  0  0  0  0  0
  143.0499   79.2077  224.3392 H   0  0  0  0  0  0  0  0  0  0  0  0
  142.0115   81.3781  224.9837 H   0  0  0  0  0  0  0  0  0  0  0  0
  140.9821   82.2615  221.0101 H   0  0  0  0  0  0  0  0  0  0  0  0
  141.9199   76.8892  219.1239 H   0  0  0  0  0  0  0  0  0  0  0  0
  1  2  2  0
  2  3  1  0
  3  4  1  0
  4  5  1  0
  5  6  2  0
  6  7  1  0
  7  8  2  0
  8  9  1  0
  9 10  1  0
 10 11  2  0
 10 12  1  0
 12 13  1  0
 13 14  1  0
 14 15  1  0
  9 16  2  0
  4 17  2  0
 17 18  1  0
 18 19  2  0
 19 20  1  0
 20 21  2  0
 21 22  1  0
 22 23  1  0
 23 24  1  0
 24 25  2  0
 25 26  1  0
 26 27  2  0
 27 28  1  0
 28 29  2  0
 21 30  1  0
 30 31  2  0
 31  2  1  0
 16  5  1  0
 31 18  1  0
 15 12  1  0
 29 24  1  0
  3 32  1  0
  3 33  1  0
  6 34  1  0
  7 35  1  0
  8 36  1  0
 13 37  1  0
 13 38  1  0
 14 39  1  0
 14 40  1  0
 15 41  1  0
 15 42  1  0
 16 43  1  0
 19 44  1  0
 20 45  1  0
 23 46  1  0
 23 47  1  0
 25 48  1  0
 26 49  1  0
 27 50  1  0
 29 51  1  0
 30 52  1  0
M  END
>  <smiles>  (5) 
O=C1CC(c2cccc(C(=O)N3CCC3)c2)=Nc2ccc(OCc3cccnc3)cc21

>  <score_type>  (5) 
oracle

>  <origin>  (5) 
autodockgpu

>  <m_score__min__energy>  (5) 
-8.8699999999999992

>  <m_primary>  (5) 
energy

>  <rmsd>  (5) 
7.364849053584577

>  <m_score__min__rmsd>  (5) 
7.364849053584577

>  <meeko>  (5) 
{"free_energy": -8.66, "intermolecular_energy": -10.16, "internal_energy": -1.05, "cluster_size": 37, "cluster_id": 1, "rank_in_cluster": 9}

>  <energy>  (5) 
-8.82

>  <cluster_rmsd>  (5) 
0.28

>  <cluster>  (5) 
1

$$$$

     RDKit          3D

 52 56  0  0  0  0  0  0  0  0999 V2000
  136.6070   75.0410  221.8920 O   0  0  0  0  0  0  0  0  0  0  0  0
  137.6230   74.3270  221.9590 C   0  0  0  0  0  0  0  0  0  0  0  0
  137.4690   72.8850  222.2900 C   0  0  0  0  0  0  0  0  0  0  0  0
  138.7840   72.1920  222.3310 C   0  0  0  0  0  0  0  0  0  0  0  0
  138.7880   70.7570  222.6460 C   0  0  0  0  0  0  0  0  0  0  0  0
  138.5110   69.8130  221.6760 C   0  0  0  0  0  0  0  0  0  0  0  0
  138.5300   68.4780  222.0110 C   0  0  0  0  0  0  0  0  0  0  0  0
  138.8270   68.1120  223.3110 C   0  0  0  0  0  0  0  0  0  0  0  0
  139.1070   69.0090  224.3070 C   0  0  0  0  0  0  0  0  0  0  0  0
  139.4150   68.6630  225.6810 C   0  0  0  0  0  0  0  0  0  0  0  0
  139.1870   67.4730  226.0340 O   0  0  0  0  0  0  0  0  0  0  0  0
  139.9570   69.6050  226.6230 N   0  0  0  0  0  0  0  0  0  0  0  0
  140.3550   70.9880  226.6810 C   0  0  0  0  0  0  0  0  0  0  0  0
  141.0260   70.7580  227.9940 C   0  0  0  0  0  0  0  0  0  0  0  0
  140.3320   69.4410  228.0020 C   0  0  0  0  0  0  0  0  0  0  0  0
  139.0790   70.3610  223.9310 C   0  0  0  0  0  0  0  0  0  0  0  0
  139.8950   72.8020  222.0990 N   0  0  0  0  0  0  0  0  0  0  0  0
  140.0500   74.1590  221.7840 C   0  0  0  0  0  0  0  0  0  0  0  0
  141.2780   74.7530  221.5400 C   0  0  0  0  0  0  0  0  0  0  0  0
  141.3910   76.1030  221.2230 C   0  0  0  0  0  0  0  0  0  0  0  0
  140.2540   76.8910  221.1460 C   0  0  0  0  0  0  0  0  0  0  0  0
  140.2960   78.2280  220.8370 O   0  0  0  0  0  0  0  0  0  0  0  0
  141.4380   78.9770  220.5240 C   0  0  0  0  0  0  0  0  0  0  0  0
  141.7280   79.8400  221.7230 C   0  0  0  0  0  0  0  0  0  0  0  0
  142.2990   79.3500  222.8670 C   0  0  0  0  0  0  0  0  0  0  0  0
  142.5490   80.1640  223.9520 C   0  0  0  0  0  0  0  0  0  0  0  0
  142.1890   81.4980  223.8060 C   0  0  0  0  0  0  0  0  0  0  0  0
  141.6330   82.0040  222.7040 N   0  0  0  0  0  0  0  0  0  0  0  0
  141.3960   81.2010  221.6590 C   0  0  0  0  0  0  0  0  0  0  0  0
  139.0470   76.2720  221.3960 C   0  0  0  0  0  0  0  0  0  0  0  0
  138.9120   74.9560  221.7060 C   0  0  0  0  0  0  0  0  0  0  0  0
  136.9860   72.7937  223.2740 H   0  0  0  0  0  0  0  0  0  0  0  0
  136.8553   72.4148  221.5075 H   0  0  0  0  0  0  0  0  0  0  0  0
  138.2778   70.1248  220.6472 H   0  0  0  0  0  0  0  0  0  0  0  0
  138.3114   67.7111  221.2533 H   0  0  0  0  0  0  0  0  0  0  0  0
  138.8390   67.0404  223.5589 H   0  0  0  0  0  0  0  0  0  0  0  0
  141.0411   71.2893  225.8757 H   0  0  0  0  0  0  0  0  0  0  0  0
  139.6013   71.7827  226.5794 H   0  0  0  0  0  0  0  0  0  0  0  0
  142.1238   70.7040  227.9511 H   0  0  0  0  0  0  0  0  0  0  0  0
  140.9509   71.4705  228.8287 H   0  0  0  0  0  0  0  0  0  0  0  0
  141.0003   68.5863  228.1834 H   0  0  0  0  0  0  0  0  0  0  0  0
  139.5619   69.2310  228.7589 H   0  0  0  0  0  0  0  0  0  0  0  0
  139.2967   71.1287  224.6881 H   0  0  0  0  0  0  0  0  0  0  0  0
  142.1893   74.1397  221.5986 H   0  0  0  0  0  0  0  0  0  0  0  0
  142.3809   76.5438  221.0339 H   0  0  0  0  0  0  0  0  0  0  0  0
  142.2877   78.3078  220.3236 H   0  0  0  0  0  0  0  0  0  0  0  0
  141.2769   79.5890  219.6243 H   0  0  0  0  0  0  0  0  0  0  0  0
  142.5641   78.2838  222.9219 H   0  0  0  0  0  0  0  0  0  0  0  0
  143.0055   79.7805  224.8764 H   0  0  0  0  0  0  0  0  0  0  0  0
  142.3737   82.1783  224.6505 H   0  0  0  0  0  0  0  0  0  0  0  0
  140.9388   81.6107  220.7462 H   0  0  0  0  0  0  0  0  0  0  0  0
  138.1343   76.8835  221.3408 H   0  0  0  0  0  0  0  0  0  0  0  0
  1  2  2  0
  2  3  1  0
  3  4  1  0
  4  5  1  0
  5  6  2  0
  6  7  1  0
  7  8  2  0
  8  9  1  0
  9 10  1  0
 10 11  2  0
 10 12  1  0
 12 13  1  0
 13 14  1  0
 14 15  1  0
  9 16  2  0
  4 17  2  0
 17 18  1  0
 18 19  2  0
 19 20  1  0
 20 21  2  0
 21 22  1  0
 22 23  1  0
 23 24  1  0
 24 25  2  0
 25 26  1  0
 26 27  2  0
 27 28  1  0
 28 29  2  0
 21 30  1  0
 30 31  2  0
 31  2  1  0
 16  5  1  0
 31 18  1  0
 15 12  1  0
 29 24  1  0
  3 32  1  0
  3 33  1  0
  6 34  1  0
  7 35  1  0
  8 36  1  0
 13 37  1  0
 13 38  1  0
 14 39  1  0
 14 40  1  0
 15 41  1  0
 15 42  1  0
 16 43  1  0
 19 44  1  0
 20 45  1  0
 23 46  1  0
 23 47  1  0
 25 48  1  0
 26 49  1  0
 27 50  1  0
 29 51  1  0
 30 52  1  0
M  END
>  <smiles>  (6) 
O=C1CC(c2cccc(C(=O)N3CCC3)c2)=Nc2ccc(OCc3cccnc3)cc21

>  <score_type>  (6) 
oracle

>  <origin>  (6) 
autodockgpu

>  <m_score__min__energy>  (6) 
-8.8699999999999992

>  <m_primary>  (6) 
energy

>  <rmsd>  (6) 
6.154549029812097

>  <m_score__min__rmsd>  (6) 
6.154549029812097

>  <meeko>  (6) 
{"free_energy": -8.4, "intermolecular_energy": -9.89, "internal_energy": -0.93, "cluster_size": 37, "cluster_id": 1, "rank_in_cluster": 33}

>  <energy>  (6) 
-8.8

>  <cluster_rmsd>  (6) 
0.28

>  <cluster>  (6) 
1

$$$$

     RDKit          3D

 52 56  0  0  0  0  0  0  0  0999 V2000
  142.8630   73.0720  220.6200 O   0  0  0  0  0  0  0  0  0  0  0  0
  141.7640   73.2450  221.1770 C   0  0  0  0  0  0  0  0  0  0  0  0
  141.0450   72.0650  221.7280 C   0  0  0  0  0  0  0  0  0  0  0  0
  139.7520   72.4580  222.3490 C   0  0  0  0  0  0  0  0  0  0  0  0
  138.9280   71.3940  222.9390 C   0  0  0  0  0  0  0  0  0  0  0  0
  137.5950   71.2560  222.6040 C   0  0  0  0  0  0  0  0  0  0  0  0
  136.8590   70.2430  223.1760 C   0  0  0  0  0  0  0  0  0  0  0  0
  137.4710   69.3860  224.0720 C   0  0  0  0  0  0  0  0  0  0  0  0
  138.7870   69.4830  224.4370 C   0  0  0  0  0  0  0  0  0  0  0  0
  139.4600   68.6090  225.3770 C   0  0  0  0  0  0  0  0  0  0  0  0
  139.5590   67.3930  225.0540 O   0  0  0  0  0  0  0  0  0  0  0  0
  140.0030   69.0720  226.6260 N   0  0  0  0  0  0  0  0  0  0  0  0
  140.1210   70.2920  227.3820 C   0  0  0  0  0  0  0  0  0  0  0  0
  141.1040   69.6470  228.3020 C   0  0  0  0  0  0  0  0  0  0  0  0
  140.7050   68.3630  227.6630 C   0  0  0  0  0  0  0  0  0  0  0  0
  139.5080   70.5260  223.8350 C   0  0  0  0  0  0  0  0  0  0  0  0
  139.3450   73.6800  222.3860 N   0  0  0  0  0  0  0  0  0  0  0  0
  140.0180   74.7980  221.8720 C   0  0  0  0  0  0  0  0  0  0  0  0
  139.5250   76.0900  221.9510 C   0  0  0  0  0  0  0  0  0  0  0  0
  140.2260   77.1760  221.4340 C   0  0  0  0  0  0  0  0  0  0  0  0
  141.4510   76.9770  220.8200 C   0  0  0  0  0  0  0  0  0  0  0  0
  142.1930   78.0040  220.2920 O   0  0  0  0  0  0  0  0  0  0  0  0
  141.7700   79.3260  220.0980 C   0  0  0  0  0  0  0  0  0  0  0  0
  141.9170   80.0220  221.4250 C   0  0  0  0  0  0  0  0  0  0  0  0
  142.5410   79.4460  222.4990 C   0  0  0  0  0  0  0  0  0  0  0  0
  142.6580   80.1070  223.7030 C   0  0  0  0  0  0  0  0  0  0  0  0
  142.1080   81.3820  223.7530 C   0  0  0  0  0  0  0  0  0  0  0  0
  141.4960   81.9700  222.7230 N   0  0  0  0  0  0  0  0  0  0  0  0
  141.3900   81.3160  221.5600 C   0  0  0  0  0  0  0  0  0  0  0  0
  141.9140   75.6800  220.7560 C   0  0  0  0  0  0  0  0  0  0  0  0
  141.2480   74.6040  221.2530 C   0  0  0  0  0  0  0  0  0  0  0  0
  140.8486   71.3530  220.9128 H   0  0  0  0  0  0  0  0  0  0  0  0
  141.6761   71.6065  222.5036 H   0  0  0  0  0  0  0  0  0  0  0  0
  137.1269   71.9478  221.8882 H   0  0  0  0  0  0  0  0  0  0  0  0
  135.7959   70.1167  222.9231 H   0  0  0  0  0  0  0  0  0  0  0  0
  136.8668   68.5813  224.5164 H   0  0  0  0  0  0  0  0  0  0  0  0
  140.5333   71.1349  226.8079 H   0  0  0  0  0  0  0  0  0  0  0  0
  139.2215   70.7770  227.7891 H   0  0  0  0  0  0  0  0  0  0  0  0
  142.1520   69.9398  228.1407 H   0  0  0  0  0  0  0  0  0  0  0  0
  141.0800   69.7972  229.3914 H   0  0  0  0  0  0  0  0  0  0  0  0
  141.5527   67.7644  227.2983 H   0  0  0  0  0  0  0  0  0  0  0  0
  140.1833   67.5950  228.2529 H   0  0  0  0  0  0  0  0  0  0  0  0
  140.5709   70.6535  224.0878 H   0  0  0  0  0  0  0  0  0  0  0  0
  138.5527   76.2627  222.4356 H   0  0  0  0  0  0  0  0  0  0  0  0
  139.8075   78.1902  221.5131 H   0  0  0  0  0  0  0  0  0  0  0  0
  142.3968   79.8179  219.3396 H   0  0  0  0  0  0  0  0  0  0  0  0
  140.7294   79.3623  219.7434 H   0  0  0  0  0  0  0  0  0  0  0  0
  142.9583   78.4332  222.3988 H   0  0  0  0  0  0  0  0  0  0  0  0
  143.1567   79.6525  224.5718 H   0  0  0  0  0  0  0  0  0  0  0  0
  142.1814   81.9401  224.6981 H   0  0  0  0  0  0  0  0  0  0  0  0
  140.8878   81.7946  220.7064 H   0  0  0  0  0  0  0  0  0  0  0  0
  142.8856   75.5043  220.2712 H   0  0  0  0  0  0  0  0  0  0  0  0
  1  2  2  0
  2  3  1  0
  3  4  1  0
  4  5  1  0
  5  6  2  0
  6  7  1  0
  7  8  2  0
  8  9  1  0
  9 10  1  0
 10 11  2  0
 10 12  1  0
 12 13  1  0
 13 14  1  0
 14 15  1  0
  9 16  2  0
  4 17  2  0
 17 18  1  0
 18 19  2  0
 19 20  1  0
 20 21  2  0
 21 22  1  0
 22 23  1  0
 23 24  1  0
 24 25  2  0
 25 26  1  0
 26 27  2  0
 27 28  1  0
 28 29  2  0
 21 30  1  0
 30 31  2  0
 31  2  1  0
 16  5  1  0
 31 18  1  0
 15 12  1  0
 29 24  1  0
  3 32  1  0
  3 33  1  0
  6 34  1  0
  7 35  1  0
  8 36  1  0
 13 37  1  0
 13 38  1  0
 14 39  1  0
 14 40  1  0
 15 41  1  0
 15 42  1  0
 16 43  1  0
 19 44  1  0
 20 45  1  0
 23 46  1  0
 23 47  1  0
 25 48  1  0
 26 49  1  0
 27 50  1  0
 29 51  1  0
 30 52  1  0
M  END
>  <smiles>  (7) 
O=C1CC(c2cccc(C(=O)N3CCC3)c2)=Nc2ccc(OCc3cccnc3)cc21

>  <score_type>  (7) 
oracle

>  <origin>  (7) 
autodockgpu

>  <m_score__min__energy>  (7) 
-8.8699999999999992

>  <m_primary>  (7) 
energy

>  <rmsd>  (7) 
6.328457710430068

>  <m_score__min__rmsd>  (7) 
6.328457710430068

>  <meeko>  (7) 
{"free_energy": -8.86, "intermolecular_energy": -10.35, "internal_energy": -0.99, "cluster_size": 37, "cluster_id": 1, "rank_in_cluster": 2}

>  <energy>  (7) 
-8.74

>  <cluster_rmsd>  (7) 
0.27

>  <cluster>  (7) 
1

$$$$

     RDKit          3D

 52 56  0  0  0  0  0  0  0  0999 V2000
  142.8550   73.0970  220.7280 O   0  0  0  0  0  0  0  0  0  0  0  0
  141.7430   73.2900  221.2490 C   0  0  0  0  0  0  0  0  0  0  0  0
  141.0080   72.1310  221.8230 C   0  0  0  0  0  0  0  0  0  0  0  0
  139.6990   72.5460  222.3960 C   0  0  0  0  0  0  0  0  0  0  0  0
  138.8590   71.5040  223.0020 C   0  0  0  0  0  0  0  0  0  0  0  0
  137.5080   71.4260  222.7220 C   0  0  0  0  0  0  0  0  0  0  0  0
  136.7570   70.4320  223.3070 C   0  0  0  0  0  0  0  0  0  0  0  0
  137.3720   69.5330  224.1610 C   0  0  0  0  0  0  0  0  0  0  0  0
  138.7060   69.5710  224.4690 C   0  0  0  0  0  0  0  0  0  0  0  0
  139.3820   68.6520  225.3630 C   0  0  0  0  0  0  0  0  0  0  0  0
  139.4770   67.4520  224.9830 O   0  0  0  0  0  0  0  0  0  0  0  0
  139.9330   69.0550  226.6300 N   0  0  0  0  0  0  0  0  0  0  0  0
  140.0570   70.2380  227.4420 C   0  0  0  0  0  0  0  0  0  0  0  0
  141.0440   69.5480  228.3250 C   0  0  0  0  0  0  0  0  0  0  0  0
  140.6390   68.2970  227.6280 C   0  0  0  0  0  0  0  0  0  0  0  0
  139.4410   70.5960  223.8560 C   0  0  0  0  0  0  0  0  0  0  0  0
  139.2930   73.7690  222.3780 N   0  0  0  0  0  0  0  0  0  0  0  0
  139.9800   74.8670  221.8420 C   0  0  0  0  0  0  0  0  0  0  0  0
  139.4870   76.1610  221.8610 C   0  0  0  0  0  0  0  0  0  0  0  0
  140.2020   77.2280  221.3240 C   0  0  0  0  0  0  0  0  0  0  0  0
  141.4430   77.0060  220.7500 C   0  0  0  0  0  0  0  0  0  0  0  0
  142.1990   78.0140  220.2040 O   0  0  0  0  0  0  0  0  0  0  0  0
  141.8100   79.3480  220.0270 C   0  0  0  0  0  0  0  0  0  0  0  0
  141.9340   80.0150  221.3720 C   0  0  0  0  0  0  0  0  0  0  0  0
  142.5620   79.4240  222.4350 C   0  0  0  0  0  0  0  0  0  0  0  0
  142.6580   80.0570  223.6560 C   0  0  0  0  0  0  0  0  0  0  0  0
  142.0830   81.3200  223.7330 C   0  0  0  0  0  0  0  0  0  0  0  0
  141.4660   81.9210  222.7140 N   0  0  0  0  0  0  0  0  0  0  0  0
  141.3810   81.2930  221.5340 C   0  0  0  0  0  0  0  0  0  0  0  0
  141.9060   75.7080  220.7440 C   0  0  0  0  0  0  0  0  0  0  0  0
  141.2260   74.6510  221.2630 C   0  0  0  0  0  0  0  0  0  0  0  0
  140.8321   71.3903  221.0290 H   0  0  0  0  0  0  0  0  0  0  0  0
  141.6180   71.7009  222.6310 H   0  0  0  0  0  0  0  0  0  0  0  0
  137.0384   72.1498  222.0396 H   0  0  0  0  0  0  0  0  0  0  0  0
  135.6799   70.3529  223.0982 H   0  0  0  0  0  0  0  0  0  0  0  0
  136.7554   68.7446  224.6174 H   0  0  0  0  0  0  0  0  0  0  0  0
  140.4677   71.1065  226.9062 H   0  0  0  0  0  0  0  0  0  0  0  0
  139.1607   70.7049  227.8764 H   0  0  0  0  0  0  0  0  0  0  0  0
  142.0917   69.8463  228.1720 H   0  0  0  0  0  0  0  0  0  0  0  0
  141.0263   69.6461  229.4205 H   0  0  0  0  0  0  0  0  0  0  0  0
  141.4836   67.7149  227.2306 H   0  0  0  0  0  0  0  0  0  0  0  0
  140.1189   67.5029  228.1838 H   0  0  0  0  0  0  0  0  0  0  0  0
  140.5180   70.6766  224.0648 H   0  0  0  0  0  0  0  0  0  0  0  0
  138.5025   76.3512  222.3132 H   0  0  0  0  0  0  0  0  0  0  0  0
  139.7827   78.2445  221.3554 H   0  0  0  0  0  0  0  0  0  0  0  0
  142.4681   79.8414  219.2966 H   0  0  0  0  0  0  0  0  0  0  0  0
  140.7804   79.4135  219.6453 H   0  0  0  0  0  0  0  0  0  0  0  0
  142.9996   78.4223  222.3124 H   0  0  0  0  0  0  0  0  0  0  0  0
  143.1593   79.5907  224.5170 H   0  0  0  0  0  0  0  0  0  0  0  0
  142.1400   81.8564  224.6917 H   0  0  0  0  0  0  0  0  0  0  0  0
  140.8751   81.7821  220.6885 H   0  0  0  0  0  0  0  0  0  0  0  0
  142.8891   75.5145  220.2901 H   0  0  0  0  0  0  0  0  0  0  0  0
  1  2  2  0
  2  3  1  0
  3  4  1  0
  4  5  1  0
  5  6  2  0
  6  7  1  0
  7  8  2  0
  8  9  1  0
  9 10  1  0
 10 11  2  0
 10 12  1  0
 12 13  1  0
 13 14  1  0
 14 15  1  0
  9 16  2  0
  4 17  2  0
 17 18  1  0
 18 19  2  0
 19 20  1  0
 20 21  2  0
 21 22  1  0
 22 23  1  0
 23 24  1  0
 24 25  2  0
 25 26  1  0
 26 27  2  0
 27 28  1  0
 28 29  2  0
 21 30  1  0
 30 31  2  0
 31  2  1  0
 16  5  1  0
 31 18  1  0
 15 12  1  0
 29 24  1  0
  3 32  1  0
  3 33  1  0
  6 34  1  0
  7 35  1  0
  8 36  1  0
 13 37  1  0
 13 38  1  0
 14 39  1  0
 14 40  1  0
 15 41  1  0
 15 42  1  0
 16 43  1  0
 19 44  1  0
 20 45  1  0
 23 46  1  0
 23 47  1  0
 25 48  1  0
 26 49  1  0
 27 50  1  0
 29 51  1  0
 30 52  1  0
M  END
>  <smiles>  (8) 
O=C1CC(c2cccc(C(=O)N3CCC3)c2)=Nc2ccc(OCc3cccnc3)cc21

>  <score_type>  (8) 
oracle

>  <origin>  (8) 
autodockgpu

>  <m_score__min__energy>  (8) 
-8.8699999999999992

>  <m_primary>  (8) 
energy

>  <rmsd>  (8) 
6.341317946640723

>  <m_score__min__rmsd>  (8) 
6.341317946640723

>  <meeko>  (8) 
{"free_energy": -8.8, "intermolecular_energy": -10.29, "internal_energy": -0.99, "cluster_size": 37, "cluster_id": 1, "rank_in_cluster": 6}

>  <energy>  (8) 
-8.69

>  <cluster_rmsd>  (8) 
0.99

>  <cluster>  (8) 
1

$$$$

     RDKit          3D

 52 56  0  0  0  0  0  0  0  0999 V2000
  142.9760   74.5280  220.3670 O   0  0  0  0  0  0  0  0  0  0  0  0
  141.8990   74.2680  220.9330 C   0  0  0  0  0  0  0  0  0  0  0  0
  141.6640   72.8850  221.4290 C   0  0  0  0  0  0  0  0  0  0  0  0
  140.3280   72.7570  222.0700 C   0  0  0  0  0  0  0  0  0  0  0  0
  139.9540   71.4430  222.6100 C   0  0  0  0  0  0  0  0  0  0  0  0
  139.6620   70.3840  221.7710 C   0  0  0  0  0  0  0  0  0  0  0  0
  139.3210   69.1680  222.3170 C   0  0  0  0  0  0  0  0  0  0  0  0
  139.2780   69.0330  223.6930 C   0  0  0  0  0  0  0  0  0  0  0  0
  139.5580   70.0510  224.5650 C   0  0  0  0  0  0  0  0  0  0  0  0
  139.5170   69.9490  226.0100 C   0  0  0  0  0  0  0  0  0  0  0  0
  138.8180   69.0170  226.4960 O   0  0  0  0  0  0  0  0  0  0  0  0
  140.2280   70.8480  226.8790 N   0  0  0  0  0  0  0  0  0  0  0  0
  141.0950   71.9940  226.7940 C   0  0  0  0  0  0  0  0  0  0  0  0
  141.4390   71.8620  228.2410 C   0  0  0  0  0  0  0  0  0  0  0  0
  140.3140   70.8910  228.3150 C   0  0  0  0  0  0  0  0  0  0  0  0
  139.9020   71.2770  223.9740 C   0  0  0  0  0  0  0  0  0  0  0  0
  139.5090   73.7470  222.1650 N   0  0  0  0  0  0  0  0  0  0  0  0
  139.7230   75.0530  221.7030 C   0  0  0  0  0  0  0  0  0  0  0  0
  138.7990   76.0760  221.8440 C   0  0  0  0  0  0  0  0  0  0  0  0
  139.0510   77.3630  221.3780 C   0  0  0  0  0  0  0  0  0  0  0  0
  140.2550   77.6460  220.7530 C   0  0  0  0  0  0  0  0  0  0  0  0
  140.5660   78.8950  220.2730 O   0  0  0  0  0  0  0  0  0  0  0  0
  141.8300   79.5000  220.2770 C   0  0  0  0  0  0  0  0  0  0  0  0
  142.0130   80.1020  221.6460 C   0  0  0  0  0  0  0  0  0  0  0  0
  142.4720   79.3820  222.7160 C   0  0  0  0  0  0  0  0  0  0  0  0
  142.6270   79.9600  223.9590 C   0  0  0  0  0  0  0  0  0  0  0  0
  142.2900   81.3050  224.0490 C   0  0  0  0  0  0  0  0  0  0  0  0
  141.8420   82.0320  223.0240 N   0  0  0  0  0  0  0  0  0  0  0  0
  141.6970   81.4570  221.8240 C   0  0  0  0  0  0  0  0  0  0  0  0
  141.1530   76.6080  220.6270 C   0  0  0  0  0  0  0  0  0  0  0  0
  140.9290   75.3440  221.0740 C   0  0  0  0  0  0  0  0  0  0  0  0
  141.7225   72.1862  220.5815 H   0  0  0  0  0  0  0  0  0  0  0  0
  142.4321   72.6523  222.1812 H   0  0  0  0  0  0  0  0  0  0  0  0
  139.7018   70.5120  220.6792 H   0  0  0  0  0  0  0  0  0  0  0  0
  139.0852   68.3128  221.6666 H   0  0  0  0  0  0  0  0  0  0  0  0
  139.0035   68.0529  224.1101 H   0  0  0  0  0  0  0  0  0  0  0  0
  141.9512   71.8570  226.1171 H   0  0  0  0  0  0  0  0  0  0  0  0
  140.7107   72.9480  226.4038 H   0  0  0  0  0  0  0  0  0  0  0  0
  142.4330   71.4372  228.4449 H   0  0  0  0  0  0  0  0  0  0  0  0
  141.5147   72.7305  228.9118 H   0  0  0  0  0  0  0  0  0  0  0  0
  140.5851   69.9289  228.7743 H   0  0  0  0  0  0  0  0  0  0  0  0
  139.4212   71.1296  228.9116 H   0  0  0  0  0  0  0  0  0  0  0  0
  140.1377   72.1330  224.6234 H   0  0  0  0  0  0  0  0  0  0  0  0
  137.8392   75.8649  222.3382 H   0  0  0  0  0  0  0  0  0  0  0  0
  138.2966   78.1533  221.5055 H   0  0  0  0  0  0  0  0  0  0  0  0
  142.6109   78.7495  220.0846 H   0  0  0  0  0  0  0  0  0  0  0  0
  141.9058   80.2671  219.4922 H   0  0  0  0  0  0  0  0  0  0  0  0
  142.7227   78.3194  222.5818 H   0  0  0  0  0  0  0  0  0  0  0  0
  142.9948   79.3911  224.8256 H   0  0  0  0  0  0  0  0  0  0  0  0
  142.3993   81.8006  225.0249 H   0  0  0  0  0  0  0  0  0  0  0  0
  141.3284   82.0496  220.9737 H   0  0  0  0  0  0  0  0  0  0  0  0
  142.1134   76.8160  220.1326 H   0  0  0  0  0  0  0  0  0  0  0  0
  1  2  2  0
  2  3  1  0
  3  4  1  0
  4  5  1  0
  5  6  2  0
  6  7  1  0
  7  8  2  0
  8  9  1  0
  9 10  1  0
 10 11  2  0
 10 12  1  0
 12 13  1  0
 13 14  1  0
 14 15  1  0
  9 16  2  0
  4 17  2  0
 17 18  1  0
 18 19  2  0
 19 20  1  0
 20 21  2  0
 21 22  1  0
 22 23  1  0
 23 24  1  0
 24 25  2  0
 25 26  1  0
 26 27  2  0
 27 28  1  0
 28 29  2  0
 21 30  1  0
 30 31  2  0
 31  2  1  0
 16  5  1  0
 31 18  1  0
 15 12  1  0
 29 24  1  0
  3 32  1  0
  3 33  1  0
  6 34  1  0
  7 35  1  0
  8 36  1  0
 13 37  1  0
 13 38  1  0
 14 39  1  0
 14 40  1  0
 15 41  1  0
 15 42  1  0
 16 43  1  0
 19 44  1  0
 20 45  1  0
 23 46  1  0
 23 47  1  0
 25 48  1  0
 26 49  1  0
 27 50  1  0
 29 51  1  0
 30 52  1  0
M  END
>  <smiles>  (9) 
O=C1CC(c2cccc(C(=O)N3CCC3)c2)=Nc2ccc(OCc3cccnc3)cc21

>  <score_type>  (9) 
oracle

>  <origin>  (9) 
autodockgpu

>  <m_score__min__energy>  (9) 
-8.8699999999999992

>  <m_primary>  (9) 
energy

>  <rmsd>  (9) 
6.481966453927264

>  <m_score__min__rmsd>  (9) 
6.481966453927264

>  <meeko>  (9) 
{"free_energy": -8.3, "intermolecular_energy": -9.79, "internal_energy": -1.06, "cluster_size": 37, "cluster_id": 1, "rank_in_cluster": 36}

>  <energy>  (9) 
-8.66

>  <cluster_rmsd>  (9) 
1.39

>  <cluster>  (9) 
1

$$$$

     RDKit          3D

 52 56  0  0  0  0  0  0  0  0999 V2000
  142.8670   73.0710  220.8120 O   0  0  0  0  0  0  0  0  0  0  0  0
  141.7410   73.2760  221.2980 C   0  0  0  0  0  0  0  0  0  0  0  0
  141.0050   72.1380  221.9110 C   0  0  0  0  0  0  0  0  0  0  0  0
  139.6790   72.5650  222.4330 C   0  0  0  0  0  0  0  0  0  0  0  0
  138.8370   71.5450  223.0700 C   0  0  0  0  0  0  0  0  0  0  0  0
  137.4720   71.5110  222.8540 C   0  0  0  0  0  0  0  0  0  0  0  0
  136.7180   70.5350  223.4670 C   0  0  0  0  0  0  0  0  0  0  0  0
  137.3430   69.6110  224.2840 C   0  0  0  0  0  0  0  0  0  0  0  0
  138.6910   69.6050  224.5300 C   0  0  0  0  0  0  0  0  0  0  0  0
  139.3790   68.6580  225.3850 C   0  0  0  0  0  0  0  0  0  0  0  0
  139.4690   67.4710  224.9650 O   0  0  0  0  0  0  0  0  0  0  0  0
  139.9470   69.0210  226.6560 N   0  0  0  0  0  0  0  0  0  0  0  0
  140.0820   70.1760  227.5040 C   0  0  0  0  0  0  0  0  0  0  0  0
  141.0810   69.4600  228.3510 C   0  0  0  0  0  0  0  0  0  0  0  0
  140.6670   68.2310  227.6200 C   0  0  0  0  0  0  0  0  0  0  0  0
  139.4290   70.6120  223.8900 C   0  0  0  0  0  0  0  0  0  0  0  0
  139.2610   73.7810  222.3470 N   0  0  0  0  0  0  0  0  0  0  0  0
  139.9480   74.8600  221.7730 C   0  0  0  0  0  0  0  0  0  0  0  0
  139.4410   76.1480  221.7180 C   0  0  0  0  0  0  0  0  0  0  0  0
  140.1580   77.1950  221.1460 C   0  0  0  0  0  0  0  0  0  0  0  0
  141.4140   76.9600  220.6110 C   0  0  0  0  0  0  0  0  0  0  0  0
  142.1720   77.9490  220.0340 O   0  0  0  0  0  0  0  0  0  0  0  0
  141.8260   79.3010  219.9080 C   0  0  0  0  0  0  0  0  0  0  0  0
  141.7430   79.8550  221.3060 C   0  0  0  0  0  0  0  0  0  0  0  0
  140.8070   80.7820  221.6810 C   0  0  0  0  0  0  0  0  0  0  0  0
  140.7570   81.2740  222.9680 C   0  0  0  0  0  0  0  0  0  0  0  0
  141.7070   80.7710  223.8480 C   0  0  0  0  0  0  0  0  0  0  0  0
  142.6300   79.8670  223.5110 N   0  0  0  0  0  0  0  0  0  0  0  0
  142.6660   79.3990  222.2580 C   0  0  0  0  0  0  0  0  0  0  0  0
  141.8900   75.6690  220.6800 C   0  0  0  0  0  0  0  0  0  0  0  0
  141.2100   74.6310  221.2340 C   0  0  0  0  0  0  0  0  0  0  0  0
  140.8554   71.3576  221.1503 H   0  0  0  0  0  0  0  0  0  0  0  0
  141.6005   71.7548  222.7527 H   0  0  0  0  0  0  0  0  0  0  0  0
  136.9935   72.2549  222.2000 H   0  0  0  0  0  0  0  0  0  0  0  0
  135.6304   70.4910  223.3084 H   0  0  0  0  0  0  0  0  0  0  0  0
  136.7239   68.8381  224.7629 H   0  0  0  0  0  0  0  0  0  0  0  0
  140.4849   71.0617  226.9910 H   0  0  0  0  0  0  0  0  0  0  0  0
  139.1913   70.6271  227.9657 H   0  0  0  0  0  0  0  0  0  0  0  0
  142.1263   69.7640  228.1933 H   0  0  0  0  0  0  0  0  0  0  0  0
  141.0783   69.5235  229.4492 H   0  0  0  0  0  0  0  0  0  0  0  0
  141.5062   67.6625  227.1928 H   0  0  0  0  0  0  0  0  0  0  0  0
  140.1549   67.4189  228.1569 H   0  0  0  0  0  0  0  0  0  0  0  0
  140.5165   70.6572  224.0489 H   0  0  0  0  0  0  0  0  0  0  0  0
  138.4443   76.3489  222.1379 H   0  0  0  0  0  0  0  0  0  0  0  0
  139.7281   78.2071  221.1188 H   0  0  0  0  0  0  0  0  0  0  0  0
  142.5944   79.8375  219.3320 H   0  0  0  0  0  0  0  0  0  0  0  0
  140.8699   79.4184  219.3769 H   0  0  0  0  0  0  0  0  0  0  0  0
  140.0791   81.1419  220.9390 H   0  0  0  0  0  0  0  0  0  0  0  0
  140.0103   82.0195  223.2791 H   0  0  0  0  0  0  0  0  0  0  0  0
  141.6983   81.1395  224.8844 H   0  0  0  0  0  0  0  0  0  0  0  0
  143.4230   78.6533  221.9735 H   0  0  0  0  0  0  0  0  0  0  0  0
  142.8856   75.4651  220.2591 H   0  0  0  0  0  0  0  0  0  0  0  0
  1  2  2  0
  2  3  1  0
  3  4  1  0
  4  5  1  0
  5  6  2  0
  6  7  1  0
  7  8  2  0
  8  9  1  0
  9 10  1  0
 10 11  2  0
 10 12  1  0
 12 13  1  0
 13 14  1  0
 14 15  1  0
  9 16  2  0
  4 17  2  0
 17 18  1  0
 18 19  2  0
 19 20  1  0
 20 21  2  0
 21 22  1  0
 22 23  1  0
 23 24  1  0
 24 25  2  0
 25 26  1  0
 26 27  2  0
 27 28  1  0
 28 29  2  0
 21 30  1  0
 30 31  2  0
 31  2  1  0
 16  5  1  0
 31 18  1  0
 15 12  1  0
 29 24  1  0
  3 32  1  0
  3 33  1  0
  6 34  1  0
  7 35  1  0
  8 36  1  0
 13 37  1  0
 13 38  1  0
 14 39  1  0
 14 40  1  0
 15 41  1  0
 15 42  1  0
 16 43  1  0
 19 44  1  0
 20 45  1  0
 23 46  1  0
 23 47  1  0
 25 48  1  0
 26 49  1  0
 27 50  1  0
 29 51  1  0
 30 52  1  0
M  END
>  <smiles>  (10) 
O=C1CC(c2cccc(C(=O)N3CCC3)c2)=Nc2ccc(OCc3cccnc3)cc21

>  <score_type>  (10) 
oracle

>  <origin>  (10) 
autodockgpu

>  <m_score__min__energy>  (10) 
-8.8699999999999992

>  <m_primary>  (10) 
energy

>  <rmsd>  (10) 
6.3596705842402095

>  <m_score__min__rmsd>  (10) 
6.3596705842402095

>  <meeko>  (10) 
{"free_energy": -8.45, "intermolecular_energy": -9.94, "internal_energy": -0.98, "cluster_size": 37, "cluster_id": 1, "rank_in_cluster": 32}

>  <energy>  (10) 
-8.66

>  <cluster_rmsd>  (10) 
1.39

>  <cluster>  (10) 
1

$$$$

     RDKit          3D

 52 56  0  0  0  0  0  0  0  0999 V2000
  139.5010   74.1660  222.3280 O   0  0  0  0  0  0  0  0  0  0  0  0
  140.5030   74.4650  221.6570 C   0  0  0  0  0  0  0  0  0  0  0  0
  141.4960   73.4050  221.3350 C   0  0  0  0  0  0  0  0  0  0  0  0
  142.6270   73.9420  220.5330 C   0  0  0  0  0  0  0  0  0  0  0  0
  143.6880   73.0070  220.1390 C   0  0  0  0  0  0  0  0  0  0  0  0
  145.0100   73.4080  220.0870 C   0  0  0  0  0  0  0  0  0  0  0  0
  145.9750   72.4990  219.7170 C   0  0  0  0  0  0  0  0  0  0  0  0
  145.6000   71.2040  219.4050 C   0  0  0  0  0  0  0  0  0  0  0  0
  144.3050   70.7600  219.4400 C   0  0  0  0  0  0  0  0  0  0  0  0
  143.8740   69.4150  219.1140 C   0  0  0  0  0  0  0  0  0  0  0  0
  142.6770   69.2740  218.7420 O   0  0  0  0  0  0  0  0  0  0  0  0
  144.7450   68.2730  219.1970 N   0  0  0  0  0  0  0  0  0  0  0  0
  146.1040   67.9560  219.5530 C   0  0  0  0  0  0  0  0  0  0  0  0
  145.9580   66.5910  218.9670 C   0  0  0  0  0  0  0  0  0  0  0  0
  144.5000   66.8850  218.9050 C   0  0  0  0  0  0  0  0  0  0  0  0
  143.3470   71.7120  219.8220 C   0  0  0  0  0  0  0  0  0  0  0  0
  142.6970   75.1800  220.1800 N   0  0  0  0  0  0  0  0  0  0  0  0
  141.7660   76.1850  220.4760 C   0  0  0  0  0  0  0  0  0  0  0  0
  141.9010   77.4990  220.0590 C   0  0  0  0  0  0  0  0  0  0  0  0
  140.9510   78.4690  220.3670 C   0  0  0  0  0  0  0  0  0  0  0  0
  139.8340   78.1270  221.1120 C   0  0  0  0  0  0  0  0  0  0  0  0
  138.8600   79.0340  221.4480 O   0  0  0  0  0  0  0  0  0  0  0  0
  138.7380   79.7160  222.6660 C   0  0  0  0  0  0  0  0  0  0  0  0
  140.1340   80.0890  223.0900 C   0  0  0  0  0  0  0  0  0  0  0  0
  140.9300   79.2590  223.8330 C   0  0  0  0  0  0  0  0  0  0  0  0
  142.2030   79.6280  224.2090 C   0  0  0  0  0  0  0  0  0  0  0  0
  142.6200   80.8850  223.7890 C   0  0  0  0  0  0  0  0  0  0  0  0
  141.8680   81.7160  223.0640 N   0  0  0  0  0  0  0  0  0  0  0  0
  140.6340   81.3430  222.7060 C   0  0  0  0  0  0  0  0  0  0  0  0
  139.7290   76.8120  221.5130 C   0  0  0  0  0  0  0  0  0  0  0  0
  140.6430   75.8490  221.2240 C   0  0  0  0  0  0  0  0  0  0  0  0
  141.8900   72.9876  222.2734 H   0  0  0  0  0  0  0  0  0  0  0  0
  140.9910   72.6283  220.7419 H   0  0  0  0  0  0  0  0  0  0  0  0
  145.2876   74.4422  220.3386 H   0  0  0  0  0  0  0  0  0  0  0  0
  147.0324   72.7985  219.6698 H   0  0  0  0  0  0  0  0  0  0  0  0
  146.3857   70.4918  219.1127 H   0  0  0  0  0  0  0  0  0  0  0  0
  146.8552   68.5807  219.0476 H   0  0  0  0  0  0  0  0  0  0  0  0
  146.4431   68.0756  220.5926 H   0  0  0  0  0  0  0  0  0  0  0  0
  146.4451   66.4504  217.9908 H   0  0  0  0  0  0  0  0  0  0  0  0
  146.3590   65.6916  219.4573 H   0  0  0  0  0  0  0  0  0  0  0  0
  144.0518   66.7101  217.9158 H   0  0  0  0  0  0  0  0  0  0  0  0
  143.7971   66.3094  219.5251 H   0  0  0  0  0  0  0  0  0  0  0  0
  142.2894   71.4133  219.8695 H   0  0  0  0  0  0  0  0  0  0  0  0
  142.7837   77.7841  219.4678 H   0  0  0  0  0  0  0  0  0  0  0  0
  141.0868   79.5039  220.0199 H   0  0  0  0  0  0  0  0  0  0  0  0
  138.1263   80.6208  222.5351 H   0  0  0  0  0  0  0  0  0  0  0  0
  138.2463   79.0895  223.4247 H   0  0  0  0  0  0  0  0  0  0  0  0
  140.5442   78.2747  224.1368 H   0  0  0  0  0  0  0  0  0  0  0  0
  142.8498   78.9677  224.8054 H   0  0  0  0  0  0  0  0  0  0  0  0
  143.6307   81.2153  224.0709 H   0  0  0  0  0  0  0  0  0  0  0  0
  140.0085   82.0221  222.1080 H   0  0  0  0  0  0  0  0  0  0  0  0
  138.8481   76.5238  222.1054 H   0  0  0  0  0  0  0  0  0  0  0  0
  1  2  2  0
  2  3  1  0
  3  4  1  0
  4  5  1  0
  5  6  2  0
  6  7  1  0
  7  8  2  0
  8  9  1  0
  9 10  1  0
 10 11  2  0
 10 12  1  0
 12 13  1  0
 13 14  1  0
 14 15  1  0
  9 16  2  0
  4 17  2  0
 17 18  1  0
 18 19  2  0
 19 20  1  0
 20 21  2  0
 21 22  1  0
 22 23  1  0
 23 24  1  0
 24 25  2  0
 25 26  1  0
 26 27  2  0
 27 28  1  0
 28 29  2  0
 21 30  1  0
 30 31  2  0
 31  2  1  0
 16  5  1  0
 31 18  1  0
 15 12  1  0
 29 24  1  0
  3 32  1  0
  3 33  1  0
  6 34  1  0
  7 35  1  0
  8 36  1  0
 13 37  1  0
 13 38  1  0
 14 39  1  0
 14 40  1  0
 15 41  1  0
 15 42  1  0
 16 43  1  0
 19 44  1  0
 20 45  1  0
 23 46  1  0
 23 47  1  0
 25 48  1  0
 26 49  1  0
 27 50  1  0
 29 51  1  0
 30 52  1  0
M  END
>  <smiles>  (11) 
O=C1CC(c2cccc(C(=O)N3CCC3)c2)=Nc2ccc(OCc3cccnc3)cc21

>  <score_type>  (11) 
oracle

>  <origin>  (11) 
autodockgpu

>  <m_score__min__energy>  (11) 
-8.8699999999999992

>  <m_primary>  (11) 
energy

>  <rmsd>  (11) 
7.874294352050129

>  <m_score__min__rmsd>  (11) 
7.874294352050129

>  <meeko>  (11) 
{"free_energy": -7.9, "intermolecular_energy": -9.39, "internal_energy": -1.17, "cluster_size": 2, "cluster_id": 7, "rank_in_cluster": 2}

>  <energy>  (11) 
-8.64

>  <cluster_rmsd>  (11) 
1.4

>  <cluster>  (11) 
1

$$$$

     RDKit          3D

 52 56  0  0  0  0  0  0  0  0999 V2000
  142.6790   73.7860  220.7860 O   0  0  0  0  0  0  0  0  0  0  0  0
  141.5630   73.5180  221.2660 C   0  0  0  0  0  0  0  0  0  0  0  0
  141.2530   72.1060  221.6160 C   0  0  0  0  0  0  0  0  0  0  0  0
  139.8790   71.9720  222.1690 C   0  0  0  0  0  0  0  0  0  0  0  0
  139.4300   70.6300  222.5620 C   0  0  0  0  0  0  0  0  0  0  0  0
  138.8110   69.7910  221.6540 C   0  0  0  0  0  0  0  0  0  0  0  0
  138.4090   68.5380  222.0610 C   0  0  0  0  0  0  0  0  0  0  0  0
  138.6350   68.1480  223.3690 C   0  0  0  0  0  0  0  0  0  0  0  0
  139.2430   68.9430  224.3040 C   0  0  0  0  0  0  0  0  0  0  0  0
  139.4890   68.5710  225.6830 C   0  0  0  0  0  0  0  0  0  0  0  0
  139.2180   67.3820  226.0110 O   0  0  0  0  0  0  0  0  0  0  0  0
  140.0200   69.4860  226.6580 N   0  0  0  0  0  0  0  0  0  0  0  0
  140.4510   70.8570  226.7510 C   0  0  0  0  0  0  0  0  0  0  0  0
  141.0660   70.5910  228.0850 C   0  0  0  0  0  0  0  0  0  0  0  0
  140.3380   69.2940  228.0480 C   0  0  0  0  0  0  0  0  0  0  0  0
  139.6390   70.2120  223.8560 C   0  0  0  0  0  0  0  0  0  0  0  0
  139.0900   72.9810  222.3140 N   0  0  0  0  0  0  0  0  0  0  0  0
  139.3750   74.3140  221.9890 C   0  0  0  0  0  0  0  0  0  0  0  0
  138.4800   75.3550  222.1760 C   0  0  0  0  0  0  0  0  0  0  0  0
  138.8030   76.6690  221.8480 C   0  0  0  0  0  0  0  0  0  0  0  0
  140.0490   76.9610  221.3180 C   0  0  0  0  0  0  0  0  0  0  0  0
  140.4300   78.2350  220.9750 O   0  0  0  0  0  0  0  0  0  0  0  0
  141.7420   78.7120  220.8620 C   0  0  0  0  0  0  0  0  0  0  0  0
  141.9370   79.7020  221.9810 C   0  0  0  0  0  0  0  0  0  0  0  0
  142.5490   79.3760  223.1610 C   0  0  0  0  0  0  0  0  0  0  0  0
  142.7100   80.3020  224.1690 C   0  0  0  0  0  0  0  0  0  0  0  0
  142.2160   81.5750  223.9090 C   0  0  0  0  0  0  0  0  0  0  0  0
  141.6160   81.9230  222.7680 N   0  0  0  0  0  0  0  0  0  0  0  0
  141.4670   81.0120  221.7990 C   0  0  0  0  0  0  0  0  0  0  0  0
  140.9170   75.9040  221.1430 C   0  0  0  0  0  0  0  0  0  0  0  0
  140.6240   74.6140  221.4560 C   0  0  0  0  0  0  0  0  0  0  0  0
  141.3362   71.4866  220.7108 H   0  0  0  0  0  0  0  0  0  0  0  0
  141.9683   71.7750  222.3833 H   0  0  0  0  0  0  0  0  0  0  0  0
  138.6415   70.1204  220.6183 H   0  0  0  0  0  0  0  0  0  0  0  0
  137.9141   67.8555  221.3544 H   0  0  0  0  0  0  0  0  0  0  0  0
  138.3081   67.1433  223.6752 H   0  0  0  0  0  0  0  0  0  0  0  0
  141.1745   71.1511  225.9764 H   0  0  0  0  0  0  0  0  0  0  0  0
  139.7226   71.6727  226.6330 H   0  0  0  0  0  0  0  0  0  0  0  0
  142.1628   70.5079  228.0822 H   0  0  0  0  0  0  0  0  0  0  0  0
  140.9784   71.2938  228.9266 H   0  0  0  0  0  0  0  0  0  0  0  0
  140.9760   68.4193  228.2423 H   0  0  0  0  0  0  0  0  0  0  0  0
  139.5344   69.0951  228.7723 H   0  0  0  0  0  0  0  0  0  0  0  0
  140.1329   70.8953  224.5625 H   0  0  0  0  0  0  0  0  0  0  0  0
  137.4866   75.1373  222.5953 H   0  0  0  0  0  0  0  0  0  0  0  0
  138.0703   77.4735  222.0094 H   0  0  0  0  0  0  0  0  0  0  0  0
  142.4575   77.8822  220.9601 H   0  0  0  0  0  0  0  0  0  0  0  0
  141.9105   79.1822  219.8820 H   0  0  0  0  0  0  0  0  0  0  0  0
  142.9209   78.3513  223.3082 H   0  0  0  0  0  0  0  0  0  0  0  0
  143.1995   80.0491  225.1211 H   0  0  0  0  0  0  0  0  0  0  0  0
  142.3260   82.3417  224.6901 H   0  0  0  0  0  0  0  0  0  0  0  0
  140.9741   81.2910  220.8560 H   0  0  0  0  0  0  0  0  0  0  0  0
  141.9108   76.1185  220.7230 H   0  0  0  0  0  0  0  0  0  0  0  0
  1  2  2  0
  2  3  1  0
  3  4  1  0
  4  5  1  0
  5  6  2  0
  6  7  1  0
  7  8  2  0
  8  9  1  0
  9 10  1  0
 10 11  2  0
 10 12  1  0
 12 13  1  0
 13 14  1  0
 14 15  1  0
  9 16  2  0
  4 17  2  0
 17 18  1  0
 18 19  2  0
 19 20  1  0
 20 21  2  0
 21 22  1  0
 22 23  1  0
 23 24  1  0
 24 25  2  0
 25 26  1  0
 26 27  2  0
 27 28  1  0
 28 29  2  0
 21 30  1  0
 30 31  2  0
 31  2  1  0
 16  5  1  0
 31 18  1  0
 15 12  1  0
 29 24  1  0
  3 32  1  0
  3 33  1  0
  6 34  1  0
  7 35  1  0
  8 36  1  0
 13 37  1  0
 13 38  1  0
 14 39  1  0
 14 40  1  0
 15 41  1  0
 15 42  1  0
 16 43  1  0
 19 44  1  0
 20 45  1  0
 23 46  1  0
 23 47  1  0
 25 48  1  0
 26 49  1  0
 27 50  1  0
 29 51  1  0
 30 52  1  0
M  END
>  <smiles>  (12) 
O=C1CC(c2cccc(C(=O)N3CCC3)c2)=Nc2ccc(OCc3cccnc3)cc21

>  <score_type>  (12) 
oracle

>  <origin>  (12) 
autodockgpu

>  <m_score__min__energy>  (12) 
-8.8699999999999992

>  <m_primary>  (12) 
energy

>  <rmsd>  (12) 
6.117908562759299

>  <m_score__min__rmsd>  (12) 
6.117908562759299

>  <meeko>  (12) 
{"free_energy": -8.62, "intermolecular_energy": -10.11, "internal_energy": -0.93, "cluster_size": 37, "cluster_id": 1, "rank_in_cluster": 13}

>  <energy>  (12) 
-8.63

>  <cluster_rmsd>  (12) 
0.92

>  <cluster>  (12) 
1

$$$$

     RDKit          3D

 52 56  0  0  0  0  0  0  0  0999 V2000
  143.0510   74.4830  219.5420 O   0  0  0  0  0  0  0  0  0  0  0  0
  142.1010   74.4460  220.3430 C   0  0  0  0  0  0  0  0  0  0  0  0
  141.8050   73.1700  221.0490 C   0  0  0  0  0  0  0  0  0  0  0  0
  140.6370   73.3100  221.9600 C   0  0  0  0  0  0  0  0  0  0  0  0
  140.2260   72.1270  222.7280 C   0  0  0  0  0  0  0  0  0  0  0  0
  139.4170   71.1580  222.1660 C   0  0  0  0  0  0  0  0  0  0  0  0
  139.0580   70.0620  222.9180 C   0  0  0  0  0  0  0  0  0  0  0  0
  139.5160   69.9560  224.2190 C   0  0  0  0  0  0  0  0  0  0  0  0
  140.3190   70.8890  224.8190 C   0  0  0  0  0  0  0  0  0  0  0  0
  140.8120   70.8150  226.1800 C   0  0  0  0  0  0  0  0  0  0  0  0
  141.3860   71.8430  226.6360 O   0  0  0  0  0  0  0  0  0  0  0  0
  140.6690   69.6420  227.0020 N   0  0  0  0  0  0  0  0  0  0  0  0
  140.1270   68.3110  226.9230 C   0  0  0  0  0  0  0  0  0  0  0  0
  140.2630   68.1490  228.4000 C   0  0  0  0  0  0  0  0  0  0  0  0
  141.0780   69.3940  228.3590 C   0  0  0  0  0  0  0  0  0  0  0  0
  140.6650   71.9920  224.0250 C   0  0  0  0  0  0  0  0  0  0  0  0
  139.9930   74.4180  222.0930 N   0  0  0  0  0  0  0  0  0  0  0  0
  140.2660   75.6250  221.4340 C   0  0  0  0  0  0  0  0  0  0  0  0
  139.5340   76.7850  221.6290 C   0  0  0  0  0  0  0  0  0  0  0  0
  139.8400   77.9670  220.9610 C   0  0  0  0  0  0  0  0  0  0  0  0
  140.9030   78.0020  220.0730 C   0  0  0  0  0  0  0  0  0  0  0  0
  141.2580   79.1350  219.3840 O   0  0  0  0  0  0  0  0  0  0  0  0
  142.1340   80.1380  219.8210 C   0  0  0  0  0  0  0  0  0  0  0  0
  141.8290   80.3700  221.2780 C   0  0  0  0  0  0  0  0  0  0  0  0
  142.5870   79.8390  222.2870 C   0  0  0  0  0  0  0  0  0  0  0  0
  142.2810   80.0660  223.6120 C   0  0  0  0  0  0  0  0  0  0  0  0
  141.1660   80.8600  223.8510 C   0  0  0  0  0  0  0  0  0  0  0  0
  140.4090   81.3910  222.8890 N   0  0  0  0  0  0  0  0  0  0  0  0
  140.7190   81.1620  221.6070 C   0  0  0  0  0  0  0  0  0  0  0  0
  141.6110   76.8320  219.9000 C   0  0  0  0  0  0  0  0  0  0  0  0
  141.3310   75.6660  220.5410 C   0  0  0  0  0  0  0  0  0  0  0  0
  141.5857   72.3914  220.3035 H   0  0  0  0  0  0  0  0  0  0  0  0
  142.6832   72.8974  221.6526 H   0  0  0  0  0  0  0  0  0  0  0  0
  139.0638   71.2611  221.1294 H   0  0  0  0  0  0  0  0  0  0  0  0
  138.4144   69.2797  222.4892 H   0  0  0  0  0  0  0  0  0  0  0  0
  139.2187   69.0732  224.8041 H   0  0  0  0  0  0  0  0  0  0  0  0
  139.0881   68.2726  226.5635 H   0  0  0  0  0  0  0  0  0  0  0  0
  140.5778   67.5722  226.2441 H   0  0  0  0  0  0  0  0  0  0  0  0
  139.3221   68.2286  228.9642 H   0  0  0  0  0  0  0  0  0  0  0  0
  140.6277   67.2193  228.8611 H   0  0  0  0  0  0  0  0  0  0  0  0
  140.7500   70.1652  229.0715 H   0  0  0  0  0  0  0  0  0  0  0  0
  142.1478   69.3589  228.6126 H   0  0  0  0  0  0  0  0  0  0  0  0
  141.3084   72.7748  224.4531 H   0  0  0  0  0  0  0  0  0  0  0  0
  138.6875   76.7714  222.3313 H   0  0  0  0  0  0  0  0  0  0  0  0
  139.2393   78.8714  221.1376 H   0  0  0  0  0  0  0  0  0  0  0  0
  143.1771   79.8107  219.6989 H   0  0  0  0  0  0  0  0  0  0  0  0
  142.0043   81.0607  219.2364 H   0  0  0  0  0  0  0  0  0  0  0  0
  143.4591   79.2178  222.0350 H   0  0  0  0  0  0  0  0  0  0  0  0
  142.8830   79.6442  224.4303 H   0  0  0  0  0  0  0  0  0  0  0  0
  140.8907   81.0631  224.8965 H   0  0  0  0  0  0  0  0  0  0  0  0
  140.1005   81.5969  220.8080 H   0  0  0  0  0  0  0  0  0  0  0  0
  142.4576   76.8423  219.1977 H   0  0  0  0  0  0  0  0  0  0  0  0
  1  2  2  0
  2  3  1  0
  3  4  1  0
  4  5  1  0
  5  6  2  0
  6  7  1  0
  7  8  2  0
  8  9  1  0
  9 10  1  0
 10 11  2  0
 10 12  1  0
 12 13  1  0
 13 14  1  0
 14 15  1  0
  9 16  2  0
  4 17  2  0
 17 18  1  0
 18 19  2  0
 19 20  1  0
 20 21  2  0
 21 22  1  0
 22 23  1  0
 23 24  1  0
 24 25  2  0
 25 26  1  0
 26 27  2  0
 27 28  1  0
 28 29  2  0
 21 30  1  0
 30 31  2  0
 31  2  1  0
 16  5  1  0
 31 18  1  0
 15 12  1  0
 29 24  1  0
  3 32  1  0
  3 33  1  0
  6 34  1  0
  7 35  1  0
  8 36  1  0
 13 37  1  0
 13 38  1  0
 14 39  1  0
 14 40  1  0
 15 41  1  0
 15 42  1  0
 16 43  1  0
 19 44  1  0
 20 45  1  0
 23 46  1  0
 23 47  1  0
 25 48  1  0
 26 49  1  0
 27 50  1  0
 29 51  1  0
 30 52  1  0
M  END
>  <smiles>  (13) 
O=C1CC(c2cccc(C(=O)N3CCC3)c2)=Nc2ccc(OCc3cccnc3)cc21

>  <score_type>  (13) 
oracle

>  <origin>  (13) 
autodockgpu

>  <m_score__min__energy>  (13) 
-8.8699999999999992

>  <m_primary>  (13) 
energy

>  <rmsd>  (13) 
7.347334384485006

>  <m_score__min__rmsd>  (13) 
7.347334384485006

>  <meeko>  (13) 
{"free_energy": -8.53, "intermolecular_energy": -10.02, "internal_energy": -1.09, "cluster_size": 37, "cluster_id": 1, "rank_in_cluster": 25}

>  <energy>  (13) 
-8.62

>  <cluster_rmsd>  (13) 
0.91

>  <cluster>  (13) 
1

$$$$

     RDKit          3D

 52 56  0  0  0  0  0  0  0  0999 V2000
  143.8460   72.4070  220.5510 O   0  0  0  0  0  0  0  0  0  0  0  0
  142.9960   73.3140  220.5630 C   0  0  0  0  0  0  0  0  0  0  0  0
  143.2970   74.5900  219.8610 C   0  0  0  0  0  0  0  0  0  0  0  0
  142.1730   75.5570  219.9850 C   0  0  0  0  0  0  0  0  0  0  0  0
  142.3270   76.8670  219.3380 C   0  0  0  0  0  0  0  0  0  0  0  0
  142.7670   76.9700  218.0320 C   0  0  0  0  0  0  0  0  0  0  0  0
  142.8930   78.2160  217.4610 C   0  0  0  0  0  0  0  0  0  0  0  0
  142.5770   79.3370  218.2070 C   0  0  0  0  0  0  0  0  0  0  0  0
  142.1390   79.2860  219.5040 C   0  0  0  0  0  0  0  0  0  0  0  0
  141.8050   80.4380  220.3180 C   0  0  0  0  0  0  0  0  0  0  0  0
  141.2710   81.4180  219.7280 O   0  0  0  0  0  0  0  0  0  0  0  0
  142.0550   80.4950  221.7340 N   0  0  0  0  0  0  0  0  0  0  0  0
  142.6140   79.6780  222.7790 C   0  0  0  0  0  0  0  0  0  0  0  0
  142.0650   80.6000  223.8170 C   0  0  0  0  0  0  0  0  0  0  0  0
  141.7840   81.5330  222.6920 C   0  0  0  0  0  0  0  0  0  0  0  0
  142.0210   78.0010  220.0540 C   0  0  0  0  0  0  0  0  0  0  0  0
  141.0900   75.2810  220.6270 N   0  0  0  0  0  0  0  0  0  0  0  0
  140.7980   74.0810  221.2890 C   0  0  0  0  0  0  0  0  0  0  0  0
  139.6070   73.8470  221.9580 C   0  0  0  0  0  0  0  0  0  0  0  0
  139.3500   72.6380  222.5990 C   0  0  0  0  0  0  0  0  0  0  0  0
  140.3010   71.6310  222.5770 C   0  0  0  0  0  0  0  0  0  0  0  0
  140.1090   70.4160  223.1870 O   0  0  0  0  0  0  0  0  0  0  0  0
  139.1890   70.1270  224.2040 C   0  0  0  0  0  0  0  0  0  0  0  0
  139.8660   70.4680  225.5050 C   0  0  0  0  0  0  0  0  0  0  0  0
  140.7090   71.5380  225.6440 C   0  0  0  0  0  0  0  0  0  0  0  0
  141.3180   71.8240  226.8470 C   0  0  0  0  0  0  0  0  0  0  0  0
  141.0220   70.9640  227.8970 C   0  0  0  0  0  0  0  0  0  0  0  0
  140.2040   69.9140  227.7920 N   0  0  0  0  0  0  0  0  0  0  0  0
  139.6210   69.6490  226.6170 C   0  0  0  0  0  0  0  0  0  0  0  0
  141.4750   71.8940  221.9050 C   0  0  0  0  0  0  0  0  0  0  0  0
  141.7480   73.0660  221.2720 C   0  0  0  0  0  0  0  0  0  0  0  0
  144.2020   75.0351  220.3002 H   0  0  0  0  0  0  0  0  0  0  0  0
  143.4481   74.3703  218.7938 H   0  0  0  0  0  0  0  0  0  0  0  0
  143.0137   76.0664  217.4553 H   0  0  0  0  0  0  0  0  0  0  0  0
  143.2412   78.3191  216.4227 H   0  0  0  0  0  0  0  0  0  0  0  0
  142.6832   80.3238  217.7327 H   0  0  0  0  0  0  0  0  0  0  0  0
  142.1983   78.6604  222.8208 H   0  0  0  0  0  0  0  0  0  0  0  0
  143.6861   79.4321  222.7721 H   0  0  0  0  0  0  0  0  0  0  0  0
  141.1746   80.2275  224.3447 H   0  0  0  0  0  0  0  0  0  0  0  0
  142.6411   80.9009  224.7045 H   0  0  0  0  0  0  0  0  0  0  0  0
  140.7482   81.9025  222.6677 H   0  0  0  0  0  0  0  0  0  0  0  0
  142.3186   82.4922  222.6279 H   0  0  0  0  0  0  0  0  0  0  0  0
  141.6723   77.8967  221.0920 H   0  0  0  0  0  0  0  0  0  0  0  0
  138.8435   74.6385  221.9832 H   0  0  0  0  0  0  0  0  0  0  0  0
  138.3945   72.4829  223.1214 H   0  0  0  0  0  0  0  0  0  0  0  0
  138.2806   70.7344  224.0781 H   0  0  0  0  0  0  0  0  0  0  0  0
  138.8880   69.0693  224.1783 H   0  0  0  0  0  0  0  0  0  0  0  0
  140.9047   72.1842  224.7756 H   0  0  0  0  0  0  0  0  0  0  0  0
  141.9969   72.6809  226.9682 H   0  0  0  0  0  0  0  0  0  0  0  0
  141.4895   71.1598  228.8733 H   0  0  0  0  0  0  0  0  0  0  0  0
  138.9467   68.7851  226.5228 H   0  0  0  0  0  0  0  0  0  0  0  0
  142.2408   71.1048  221.8790 H   0  0  0  0  0  0  0  0  0  0  0  0
  1  2  2  0
  2  3  1  0
  3  4  1  0
  4  5  1  0
  5  6  2  0
  6  7  1  0
  7  8  2  0
  8  9  1  0
  9 10  1  0
 10 11  2  0
 10 12  1  0
 12 13  1  0
 13 14  1  0
 14 15  1  0
  9 16  2  0
  4 17  2  0
 17 18  1  0
 18 19  2  0
 19 20  1  0
 20 21  2  0
 21 22  1  0
 22 23  1  0
 23 24  1  0
 24 25  2  0
 25 26  1  0
 26 27  2  0
 27 28  1  0
 28 29  2  0
 21 30  1  0
 30 31  2  0
 31  2  1  0
 16  5  1  0
 31 18  1  0
 15 12  1  0
 29 24  1  0
  3 32  1  0
  3 33  1  0
  6 34  1  0
  7 35  1  0
  8 36  1  0
 13 37  1  0
 13 38  1  0
 14 39  1  0
 14 40  1  0
 15 41  1  0
 15 42  1  0
 16 43  1  0
 19 44  1  0
 20 45  1  0
 23 46  1  0
 23 47  1  0
 25 48  1  0
 26 49  1  0
 27 50  1  0
 29 51  1  0
 30 52  1  0
M  END
>  <smiles>  (14) 
O=C1CC(c2cccc(C(=O)N3CCC3)c2)=Nc2ccc(OCc3cccnc3)cc21

>  <score_type>  (14) 
oracle

>  <origin>  (14) 
autodockgpu

>  <m_score__min__energy>  (14) 
-8.8699999999999992

>  <m_primary>  (14) 
energy

>  <rmsd>  (14) 
8.501428169388582

>  <m_score__min__rmsd>  (14) 
8.501428169388582

>  <meeko>  (14) 
{"free_energy": -8.26, "intermolecular_energy": -9.75, "internal_energy": -0.98, "cluster_size": 6, "cluster_id": 3, "rank_in_cluster": 1}

>  <energy>  (14) 
-8.61

>  <cluster_rmsd>  (14) 
1.1

>  <cluster>  (14) 
1

$$$$

     RDKit          3D

 52 56  0  0  0  0  0  0  0  0999 V2000
  138.0290   75.1370  221.8050 O   0  0  0  0  0  0  0  0  0  0  0  0
  138.8590   74.2110  221.7880 C   0  0  0  0  0  0  0  0  0  0  0  0
  138.4350   72.8580  222.2380 C   0  0  0  0  0  0  0  0  0  0  0  0
  139.5540   71.8810  222.1560 C   0  0  0  0  0  0  0  0  0  0  0  0
  139.2830   70.4980  222.5680 C   0  0  0  0  0  0  0  0  0  0  0  0
  138.8360   69.5570  221.6580 C   0  0  0  0  0  0  0  0  0  0  0  0
  138.5980   68.2700  222.0840 C   0  0  0  0  0  0  0  0  0  0  0  0
  138.8120   67.9470  223.4120 C   0  0  0  0  0  0  0  0  0  0  0  0
  139.2520   68.8430  224.3500 C   0  0  0  0  0  0  0  0  0  0  0  0
  139.4810   68.5420  225.7490 C   0  0  0  0  0  0  0  0  0  0  0  0
  139.1940   67.3750  226.1360 O   0  0  0  0  0  0  0  0  0  0  0  0
  140.0100   69.5030  226.6800 N   0  0  0  0  0  0  0  0  0  0  0  0
  140.4530   70.8730  226.7050 C   0  0  0  0  0  0  0  0  0  0  0  0
  141.0510   70.6730  228.0570 C   0  0  0  0  0  0  0  0  0  0  0  0
  140.3110   69.3820  228.0820 C   0  0  0  0  0  0  0  0  0  0  0  0
  139.4850   70.1450  223.8820 C   0  0  0  0  0  0  0  0  0  0  0  0
  140.7280   72.2090  221.7380 N   0  0  0  0  0  0  0  0  0  0  0  0
  141.1360   73.4800  221.3110 C   0  0  0  0  0  0  0  0  0  0  0  0
  142.4170   73.7640  220.8670 C   0  0  0  0  0  0  0  0  0  0  0  0
  142.7830   75.0380  220.4440 C   0  0  0  0  0  0  0  0  0  0  0  0
  141.8510   76.0640  220.4610 C   0  0  0  0  0  0  0  0  0  0  0  0
  142.1470   77.3420  220.0550 O   0  0  0  0  0  0  0  0  0  0  0  0
  141.3300   78.4720  220.1940 C   0  0  0  0  0  0  0  0  0  0  0  0
  141.6780   79.0920  221.5220 C   0  0  0  0  0  0  0  0  0  0  0  0
  142.2190   80.3450  221.6350 C   0  0  0  0  0  0  0  0  0  0  0  0
  142.5300   80.8850  222.8650 C   0  0  0  0  0  0  0  0  0  0  0  0
  142.2610   80.0830  223.9670 C   0  0  0  0  0  0  0  0  0  0  0  0
  141.7340   78.8600  223.8870 N   0  0  0  0  0  0  0  0  0  0  0  0
  141.4370   78.3480  222.6870 C   0  0  0  0  0  0  0  0  0  0  0  0
  140.5860   75.7510  220.9080 C   0  0  0  0  0  0  0  0  0  0  0  0
  140.2060   74.5140  221.3260 C   0  0  0  0  0  0  0  0  0  0  0  0
  138.0901   72.9198  223.2807 H   0  0  0  0  0  0  0  0  0  0  0  0
  137.6258   72.5124  221.5779 H   0  0  0  0  0  0  0  0  0  0  0  0
  138.6726   69.8340  220.6061 H   0  0  0  0  0  0  0  0  0  0  0  0
  138.2417   67.5069  221.3764 H   0  0  0  0  0  0  0  0  0  0  0  0
  138.6180   66.9128  223.7326 H   0  0  0  0  0  0  0  0  0  0  0  0
  141.1874   71.1191  225.9239 H   0  0  0  0  0  0  0  0  0  0  0  0
  139.7336   71.6878  226.5359 H   0  0  0  0  0  0  0  0  0  0  0  0
  142.1470   70.5800  228.0705 H   0  0  0  0  0  0  0  0  0  0  0  0
  140.9612   71.4207  228.8588 H   0  0  0  0  0  0  0  0  0  0  0  0
  140.9385   68.5132  228.3298 H   0  0  0  0  0  0  0  0  0  0  0  0
  139.4981   69.2289  228.8071 H   0  0  0  0  0  0  0  0  0  0  0  0
  139.8409   70.9087  224.5892 H   0  0  0  0  0  0  0  0  0  0  0  0
  143.1665   72.9591  220.8483 H   0  0  0  0  0  0  0  0  0  0  0  0
  143.8090   75.2305  220.0971 H   0  0  0  0  0  0  0  0  0  0  0  0
  141.5256   79.1847  219.3792 H   0  0  0  0  0  0  0  0  0  0  0  0
  140.2650   78.2003  220.1492 H   0  0  0  0  0  0  0  0  0  0  0  0
  142.4095   80.9332  220.7252 H   0  0  0  0  0  0  0  0  0  0  0  0
  142.9649   81.8902  222.9675 H   0  0  0  0  0  0  0  0  0  0  0  0
  142.4967   80.4802  224.9654 H   0  0  0  0  0  0  0  0  0  0  0  0
  141.0023   77.3402  222.6135 H   0  0  0  0  0  0  0  0  0  0  0  0
  139.8344   76.5540  220.9281 H   0  0  0  0  0  0  0  0  0  0  0  0
  1  2  2  0
  2  3  1  0
  3  4  1  0
  4  5  1  0
  5  6  2  0
  6  7  1  0
  7  8  2  0
  8  9  1  0
  9 10  1  0
 10 11  2  0
 10 12  1  0
 12 13  1  0
 13 14  1  0
 14 15  1  0
  9 16  2  0
  4 17  2  0
 17 18  1  0
 18 19  2  0
 19 20  1  0
 20 21  2  0
 21 22  1  0
 22 23  1  0
 23 24  1  0
 24 25  2  0
 25 26  1  0
 26 27  2  0
 27 28  1  0
 28 29  2  0
 21 30  1  0
 30 31  2  0
 31  2  1  0
 16  5  1  0
 31 18  1  0
 15 12  1  0
 29 24  1  0
  3 32  1  0
  3 33  1  0
  6 34  1  0
  7 35  1  0
  8 36  1  0
 13 37  1  0
 13 38  1  0
 14 39  1  0
 14 40  1  0
 15 41  1  0
 15 42  1  0
 16 43  1  0
 19 44  1  0
 20 45  1  0
 23 46  1  0
 23 47  1  0
 25 48  1  0
 26 49  1  0
 27 50  1  0
 29 51  1  0
 30 52  1  0
M  END
>  <smiles>  (15) 
O=C1CC(c2cccc(C(=O)N3CCC3)c2)=Nc2ccc(OCc3cccnc3)cc21

>  <score_type>  (15) 
oracle

>  <origin>  (15) 
autodockgpu

>  <m_score__min__energy>  (15) 
-8.8699999999999992

>  <m_primary>  (15) 
energy

>  <rmsd>  (15) 
6.092429487406532

>  <m_score__min__rmsd>  (15) 
6.092429487406532

>  <meeko>  (15) 
{"free_energy": -8.36, "intermolecular_energy": -9.85, "internal_energy": -0.96, "cluster_size": 37, "cluster_id": 1, "rank_in_cluster": 35}

>  <energy>  (15) 
-8.59

>  <cluster_rmsd>  (15) 
1.1

>  <cluster>  (15) 
1

$$$$

     RDKit          3D

 52 56  0  0  0  0  0  0  0  0999 V2000
  138.0980   75.1870  221.8930 O   0  0  0  0  0  0  0  0  0  0  0  0
  138.9130   74.2490  221.8420 C   0  0  0  0  0  0  0  0  0  0  0  0
  138.4820   72.8980  222.2900 C   0  0  0  0  0  0  0  0  0  0  0  0
  139.5840   71.9060  222.1630 C   0  0  0  0  0  0  0  0  0  0  0  0
  139.3050   70.5220  222.5690 C   0  0  0  0  0  0  0  0  0  0  0  0
  138.8580   69.5870  221.6550 C   0  0  0  0  0  0  0  0  0  0  0  0
  138.6120   68.2990  222.0750 C   0  0  0  0  0  0  0  0  0  0  0  0
  138.8180   67.9710  223.4020 C   0  0  0  0  0  0  0  0  0  0  0  0
  139.2580   68.8610  224.3450 C   0  0  0  0  0  0  0  0  0  0  0  0
  139.4790   68.5540  225.7450 C   0  0  0  0  0  0  0  0  0  0  0  0
  139.1940   67.3850  226.1240 O   0  0  0  0  0  0  0  0  0  0  0  0
  139.9990   69.5130  226.6830 N   0  0  0  0  0  0  0  0  0  0  0  0
  140.4380   70.8840  226.7170 C   0  0  0  0  0  0  0  0  0  0  0  0
  141.0280   70.6790  228.0730 C   0  0  0  0  0  0  0  0  0  0  0  0
  140.2920   69.3860  228.0870 C   0  0  0  0  0  0  0  0  0  0  0  0
  139.4990   70.1640  223.8830 C   0  0  0  0  0  0  0  0  0  0  0  0
  140.7500   72.2210  221.7140 N   0  0  0  0  0  0  0  0  0  0  0  0
  141.1630   73.4900  221.2870 C   0  0  0  0  0  0  0  0  0  0  0  0
  142.4350   73.7600  220.8070 C   0  0  0  0  0  0  0  0  0  0  0  0
  142.8060   75.0330  220.3860 C   0  0  0  0  0  0  0  0  0  0  0  0
  141.8910   76.0720  220.4420 C   0  0  0  0  0  0  0  0  0  0  0  0
  142.1930   77.3500  220.0400 O   0  0  0  0  0  0  0  0  0  0  0  0
  141.3760   78.4810  220.1670 C   0  0  0  0  0  0  0  0  0  0  0  0
  141.6960   79.0950  221.5040 C   0  0  0  0  0  0  0  0  0  0  0  0
  142.2430   80.3430  221.6340 C   0  0  0  0  0  0  0  0  0  0  0  0
  142.5280   80.8780  222.8720 C   0  0  0  0  0  0  0  0  0  0  0  0
  142.2270   80.0750  223.9650 C   0  0  0  0  0  0  0  0  0  0  0  0
  141.6930   78.8560  223.8700 N   0  0  0  0  0  0  0  0  0  0  0  0
  141.4210   78.3500  222.6610 C   0  0  0  0  0  0  0  0  0  0  0  0
  140.6350   75.7730  220.9250 C   0  0  0  0  0  0  0  0  0  0  0  0
  140.2500   74.5380  221.3410 C   0  0  0  0  0  0  0  0  0  0  0  0
  138.1698   72.9530  223.3433 H   0  0  0  0  0  0  0  0  0  0  0  0
  137.6476   72.5717  221.6518 H   0  0  0  0  0  0  0  0  0  0  0  0
  138.7004   69.8686  220.6034 H   0  0  0  0  0  0  0  0  0  0  0  0
  138.2558   67.5400  221.3630 H   0  0  0  0  0  0  0  0  0  0  0  0
  138.6171   66.9368  223.7182 H   0  0  0  0  0  0  0  0  0  0  0  0
  141.1769   71.1357  225.9419 H   0  0  0  0  0  0  0  0  0  0  0  0
  139.7176   71.6977  226.5468 H   0  0  0  0  0  0  0  0  0  0  0  0
  142.1241   70.5892  228.0934 H   0  0  0  0  0  0  0  0  0  0  0  0
  140.9305   71.4225  228.8778 H   0  0  0  0  0  0  0  0  0  0  0  0
  140.9207   68.5179  228.3344 H   0  0  0  0  0  0  0  0  0  0  0  0
  139.4751   69.2269  228.8063 H   0  0  0  0  0  0  0  0  0  0  0  0
  139.8546   70.9237  224.5946 H   0  0  0  0  0  0  0  0  0  0  0  0
  143.1719   72.9448  220.7576 H   0  0  0  0  0  0  0  0  0  0  0  0
  143.8235   75.2143  220.0095 H   0  0  0  0  0  0  0  0  0  0  0  0
  141.5904   79.1967  219.3596 H   0  0  0  0  0  0  0  0  0  0  0  0
  140.3118   78.2112  220.0989 H   0  0  0  0  0  0  0  0  0  0  0  0
  142.4599   80.9320  220.7306 H   0  0  0  0  0  0  0  0  0  0  0  0
  142.9671   81.8799  222.9875 H   0  0  0  0  0  0  0  0  0  0  0  0
  142.4420   80.4680  224.9696 H   0  0  0  0  0  0  0  0  0  0  0  0
  140.9801   77.3460  222.5740 H   0  0  0  0  0  0  0  0  0  0  0  0
  139.8967   76.5867  220.9770 H   0  0  0  0  0  0  0  0  0  0  0  0
  1  2  2  0
  2  3  1  0
  3  4  1  0
  4  5  1  0
  5  6  2  0
  6  7  1  0
  7  8  2  0
  8  9  1  0
  9 10  1  0
 10 11  2  0
 10 12  1  0
 12 13  1  0
 13 14  1  0
 14 15  1  0
  9 16  2  0
  4 17  2  0
 17 18  1  0
 18 19  2  0
 19 20  1  0
 20 21  2  0
 21 22  1  0
 22 23  1  0
 23 24  1  0
 24 25  2  0
 25 26  1  0
 26 27  2  0
 27 28  1  0
 28 29  2  0
 21 30  1  0
 30 31  2  0
 31  2  1  0
 16  5  1  0
 31 18  1  0
 15 12  1  0
 29 24  1  0
  3 32  1  0
  3 33  1  0
  6 34  1  0
  7 35  1  0
  8 36  1  0
 13 37  1  0
 13 38  1  0
 14 39  1  0
 14 40  1  0
 15 41  1  0
 15 42  1  0
 16 43  1  0
 19 44  1  0
 20 45  1  0
 23 46  1  0
 23 47  1  0
 25 48  1  0
 26 49  1  0
 27 50  1  0
 29 51  1  0
 30 52  1  0
M  END
>  <smiles>  (16) 
O=C1CC(c2cccc(C(=O)N3CCC3)c2)=Nc2ccc(OCc3cccnc3)cc21

>  <score_type>  (16) 
oracle

>  <origin>  (16) 
autodockgpu

>  <m_score__min__energy>  (16) 
-8.8699999999999992

>  <m_primary>  (16) 
energy

>  <rmsd>  (16) 
6.08857331287181

>  <m_score__min__rmsd>  (16) 
6.08857331287181

>  <meeko>  (16) 
{"free_energy": -8.38, "intermolecular_energy": -9.87, "internal_energy": -0.95, "cluster_size": 37, "cluster_id": 1, "rank_in_cluster": 34}

>  <energy>  (16) 
-8.58

>  <cluster_rmsd>  (16) 
1.39

>  <cluster>  (16) 
1

$$$$

     RDKit          3D

 52 56  0  0  0  0  0  0  0  0999 V2000
  143.8530   72.5220  220.7050 O   0  0  0  0  0  0  0  0  0  0  0  0
  142.9620   73.3900  220.6800 C   0  0  0  0  0  0  0  0  0  0  0  0
  143.2360   74.6810  219.9940 C   0  0  0  0  0  0  0  0  0  0  0  0
  142.0650   75.5950  220.0680 C   0  0  0  0  0  0  0  0  0  0  0  0
  142.1870   76.9130  219.4310 C   0  0  0  0  0  0  0  0  0  0  0  0
  142.6130   77.0350  218.1220 C   0  0  0  0  0  0  0  0  0  0  0  0
  142.7110   78.2880  217.5600 C   0  0  0  0  0  0  0  0  0  0  0  0
  142.3800   79.3960  218.3190 C   0  0  0  0  0  0  0  0  0  0  0  0
  141.9540   79.3270  219.6190 C   0  0  0  0  0  0  0  0  0  0  0  0
  141.6050   80.4650  220.4450 C   0  0  0  0  0  0  0  0  0  0  0  0
  140.8530   81.3370  219.9280 O   0  0  0  0  0  0  0  0  0  0  0  0
  142.0750   80.6250  221.7960 N   0  0  0  0  0  0  0  0  0  0  0  0
  142.9040   79.9410  222.7540 C   0  0  0  0  0  0  0  0  0  0  0  0
  142.4130   80.8350  223.8440 C   0  0  0  0  0  0  0  0  0  0  0  0
  141.8260   81.6660  222.7570 C   0  0  0  0  0  0  0  0  0  0  0  0
  141.8660   78.0350  220.1590 C   0  0  0  0  0  0  0  0  0  0  0  0
  140.9680   75.2680  220.6610 N   0  0  0  0  0  0  0  0  0  0  0  0
  140.7010   74.0530  221.3070 C   0  0  0  0  0  0  0  0  0  0  0  0
  139.4940   73.7620  221.9220 C   0  0  0  0  0  0  0  0  0  0  0  0
  139.2640   72.5410  222.5480 C   0  0  0  0  0  0  0  0  0  0  0  0
  140.2590   71.5780  222.5680 C   0  0  0  0  0  0  0  0  0  0  0  0
  140.0960   70.3530  223.1670 O   0  0  0  0  0  0  0  0  0  0  0  0
  139.1880   70.0360  224.1860 C   0  0  0  0  0  0  0  0  0  0  0  0
  139.8700   70.3710  225.4870 C   0  0  0  0  0  0  0  0  0  0  0  0
  140.5530   71.5400  225.6860 C   0  0  0  0  0  0  0  0  0  0  0  0
  141.1700   71.8180  226.8870 C   0  0  0  0  0  0  0  0  0  0  0  0
  141.0520   70.8430  227.8700 C   0  0  0  0  0  0  0  0  0  0  0  0
  140.3920   69.6950  227.7060 N   0  0  0  0  0  0  0  0  0  0  0  0
  139.7980   69.4390  226.5340 C   0  0  0  0  0  0  0  0  0  0  0  0
  141.4490   71.8970  221.9490 C   0  0  0  0  0  0  0  0  0  0  0  0
  141.6970   73.0820  221.3310 C   0  0  0  0  0  0  0  0  0  0  0  0
  144.0988   75.1654  220.4745 H   0  0  0  0  0  0  0  0  0  0  0  0
  143.4452   74.4720  218.9345 H   0  0  0  0  0  0  0  0  0  0  0  0
  142.8710   76.1408  217.5356 H   0  0  0  0  0  0  0  0  0  0  0  0
  143.0485   78.4066  216.5198 H   0  0  0  0  0  0  0  0  0  0  0  0
  142.4636   80.3886  217.8523 H   0  0  0  0  0  0  0  0  0  0  0  0
  142.6432   78.8816  222.8941 H   0  0  0  0  0  0  0  0  0  0  0  0
  143.9838   79.8362  222.5723 H   0  0  0  0  0  0  0  0  0  0  0  0
  141.6808   80.3773  224.5255 H   0  0  0  0  0  0  0  0  0  0  0  0
  143.0808   81.2523  224.6121 H   0  0  0  0  0  0  0  0  0  0  0  0
  140.7597   81.8961  222.8984 H   0  0  0  0  0  0  0  0  0  0  0  0
  142.2068   82.6821  222.5765 H   0  0  0  0  0  0  0  0  0  0  0  0
  141.5291   77.9154  221.1993 H   0  0  0  0  0  0  0  0  0  0  0  0
  138.6949   74.5179  221.9151 H   0  0  0  0  0  0  0  0  0  0  0  0
  138.2938   72.3409  223.0261 H   0  0  0  0  0  0  0  0  0  0  0  0
  138.2692   70.6305  224.0746 H   0  0  0  0  0  0  0  0  0  0  0  0
  138.9031   68.9742  224.1484 H   0  0  0  0  0  0  0  0  0  0  0  0
  140.6110   72.2745  224.8692 H   0  0  0  0  0  0  0  0  0  0  0  0
  141.7219   72.7543  227.0567 H   0  0  0  0  0  0  0  0  0  0  0  0
  141.5318   71.0288  228.8423 H   0  0  0  0  0  0  0  0  0  0  0  0
  139.2516   68.4951  226.3910 H   0  0  0  0  0  0  0  0  0  0  0  0
  142.2501   71.1432  221.9557 H   0  0  0  0  0  0  0  0  0  0  0  0
  1  2  2  0
  2  3  1  0
  3  4  1  0
  4  5  1  0
  5  6  2  0
  6  7  1  0
  7  8  2  0
  8  9  1  0
  9 10  1  0
 10 11  2  0
 10 12  1  0
 12 13  1  0
 13 14  1  0
 14 15  1  0
  9 16  2  0
  4 17  2  0
 17 18  1  0
 18 19  2  0
 19 20  1  0
 20 21  2  0
 21 22  1  0
 22 23  1  0
 23 24  1  0
 24 25  2  0
 25 26  1  0
 26 27  2  0
 27 28  1  0
 28 29  2  0
 21 30  1  0
 30 31  2  0
 31  2  1  0
 16  5  1  0
 31 18  1  0
 15 12  1  0
 29 24  1  0
  3 32  1  0
  3 33  1  0
  6 34  1  0
  7 35  1  0
  8 36  1  0
 13 37  1  0
 13 38  1  0
 14 39  1  0
 14 40  1  0
 15 41  1  0
 15 42  1  0
 16 43  1  0
 19 44  1  0
 20 45  1  0
 23 46  1  0
 23 47  1  0
 25 48  1  0
 26 49  1  0
 27 50  1  0
 29 51  1  0
 30 52  1  0
M  END
>  <smiles>  (17) 
O=C1CC(c2cccc(C(=O)N3CCC3)c2)=Nc2ccc(OCc3cccnc3)cc21

>  <score_type>  (17) 
oracle

>  <origin>  (17) 
autodockgpu

>  <m_score__min__energy>  (17) 
-8.8699999999999992

>  <m_primary>  (17) 
energy

>  <rmsd>  (17) 
8.536954465964243

>  <m_score__min__rmsd>  (17) 
8.536954465964243

>  <meeko>  (17) 
{"free_energy": -8.21, "intermolecular_energy": -9.7, "internal_energy": -1.0, "cluster_size": 6, "cluster_id": 3, "rank_in_cluster": 6}

>  <energy>  (17) 
-8.58

>  <cluster_rmsd>  (17) 
1.38

>  <cluster>  (17) 
1

$$$$

     RDKit          3D

 52 56  0  0  0  0  0  0  0  0999 V2000
  141.6550   74.2700  218.7360 O   0  0  0  0  0  0  0  0  0  0  0  0
  141.1260   74.2550  219.8610 C   0  0  0  0  0  0  0  0  0  0  0  0
  140.9290   72.9490  220.5450 C   0  0  0  0  0  0  0  0  0  0  0  0
  140.2810   73.1220  221.8730 C   0  0  0  0  0  0  0  0  0  0  0  0
  140.0220   71.9150  222.6680 C   0  0  0  0  0  0  0  0  0  0  0  0
  139.3810   70.8210  222.1160 C   0  0  0  0  0  0  0  0  0  0  0  0
  139.1620   69.7070  222.8940 C   0  0  0  0  0  0  0  0  0  0  0  0
  139.5890   69.7060  224.2100 C   0  0  0  0  0  0  0  0  0  0  0  0
  140.2270   70.7640  224.8010 C   0  0  0  0  0  0  0  0  0  0  0  0
  140.6820   70.8020  226.1770 C   0  0  0  0  0  0  0  0  0  0  0  0
  141.0600   71.9210  226.6220 O   0  0  0  0  0  0  0  0  0  0  0  0
  140.7110   69.6400  227.0240 N   0  0  0  0  0  0  0  0  0  0  0  0
  140.4020   68.2350  226.9640 C   0  0  0  0  0  0  0  0  0  0  0  0
  140.5150   68.1290  228.4490 C   0  0  0  0  0  0  0  0  0  0  0  0
  141.1120   69.4910  228.3980 C   0  0  0  0  0  0  0  0  0  0  0  0
  140.4340   71.8830  223.9800 C   0  0  0  0  0  0  0  0  0  0  0  0
  139.9500   74.2790  222.3350 N   0  0  0  0  0  0  0  0  0  0  0  0
  140.1350   75.5140  221.6990 C   0  0  0  0  0  0  0  0  0  0  0  0
  139.7600   76.7260  222.2570 C   0  0  0  0  0  0  0  0  0  0  0  0
  139.9660   77.9330  221.5970 C   0  0  0  0  0  0  0  0  0  0  0  0
  140.5600   77.9420  220.3450 C   0  0  0  0  0  0  0  0  0  0  0  0
  140.7930   79.0980  219.6420 O   0  0  0  0  0  0  0  0  0  0  0  0
  141.8860   79.9620  219.7930 C   0  0  0  0  0  0  0  0  0  0  0  0
  141.9040   80.3840  221.2380 C   0  0  0  0  0  0  0  0  0  0  0  0
  142.5740   79.6840  222.2060 C   0  0  0  0  0  0  0  0  0  0  0  0
  142.5700   80.0920  223.5220 C   0  0  0  0  0  0  0  0  0  0  0  0
  141.8500   81.2480  223.7980 C   0  0  0  0  0  0  0  0  0  0  0  0
  141.1880   81.9520  222.8760 N   0  0  0  0  0  0  0  0  0  0  0  0
  141.2010   81.5420  221.6020 C   0  0  0  0  0  0  0  0  0  0  0  0
  140.9200   76.7210  219.8160 C   0  0  0  0  0  0  0  0  0  0  0  0
  140.7300   75.5300  220.4420 C   0  0  0  0  0  0  0  0  0  0  0  0
  140.2919   72.3090  219.9169 H   0  0  0  0  0  0  0  0  0  0  0  0
  141.9156   72.4877  220.6995 H   0  0  0  0  0  0  0  0  0  0  0  0
  139.0500   70.8409  221.0672 H   0  0  0  0  0  0  0  0  0  0  0  0
  138.6530   68.8269  222.4740 H   0  0  0  0  0  0  0  0  0  0  0  0
  139.4060   68.8058  224.8150 H   0  0  0  0  0  0  0  0  0  0  0  0
  139.3965   68.0152  226.5759 H   0  0  0  0  0  0  0  0  0  0  0  0
  140.9919   67.5684  226.3177 H   0  0  0  0  0  0  0  0  0  0  0  0
  139.5562   68.0621  228.9840 H   0  0  0  0  0  0  0  0  0  0  0  0
  141.0140   67.2833  228.9448 H   0  0  0  0  0  0  0  0  0  0  0  0
  140.6379   70.2111  229.0811 H   0  0  0  0  0  0  0  0  0  0  0  0
  142.1643   69.6398  228.6817 H   0  0  0  0  0  0  0  0  0  0  0  0
  140.9425   72.7636  224.3994 H   0  0  0  0  0  0  0  0  0  0  0  0
  139.2861   76.7336  223.2497 H   0  0  0  0  0  0  0  0  0  0  0  0
  139.6581   78.8783  222.0678 H   0  0  0  0  0  0  0  0  0  0  0  0
  142.8203   79.4403  219.5383 H   0  0  0  0  0  0  0  0  0  0  0  0
  141.7986   80.8327  219.1264 H   0  0  0  0  0  0  0  0  0  0  0  0
  143.1278   78.7756  221.9265 H   0  0  0  0  0  0  0  0  0  0  0  0
  143.1044   79.5363  224.3066 H   0  0  0  0  0  0  0  0  0  0  0  0
  141.8237   81.6047  224.8382 H   0  0  0  0  0  0  0  0  0  0  0  0
  140.6578   82.1158  220.8367 H   0  0  0  0  0  0  0  0  0  0  0  0
  141.3918   76.7101  218.8224 H   0  0  0  0  0  0  0  0  0  0  0  0
  1  2  2  0
  2  3  1  0
  3  4  1  0
  4  5  1  0
  5  6  2  0
  6  7  1  0
  7  8  2  0
  8  9  1  0
  9 10  1  0
 10 11  2  0
 10 12  1  0
 12 13  1  0
 13 14  1  0
 14 15  1  0
  9 16  2  0
  4 17  2  0
 17 18  1  0
 18 19  2  0
 19 20  1  0
 20 21  2  0
 21 22  1  0
 22 23  1  0
 23 24  1  0
 24 25  2  0
 25 26  1  0
 26 27  2  0
 27 28  1  0
 28 29  2  0
 21 30  1  0
 30 31  2  0
 31  2  1  0
 16  5  1  0
 31 18  1  0
 15 12  1  0
 29 24  1  0
  3 32  1  0
  3 33  1  0
  6 34  1  0
  7 35  1  0
  8 36  1  0
 13 37  1  0
 13 38  1  0
 14 39  1  0
 14 40  1  0
 15 41  1  0
 15 42  1  0
 16 43  1  0
 19 44  1  0
 20 45  1  0
 23 46  1  0
 23 47  1  0
 25 48  1  0
 26 49  1  0
 27 50  1  0
 29 51  1  0
 30 52  1  0
M  END
>  <smiles>  (18) 
O=C1CC(c2cccc(C(=O)N3CCC3)c2)=Nc2ccc(OCc3cccnc3)cc21

>  <score_type>  (18) 
oracle

>  <origin>  (18) 
autodockgpu

>  <m_score__min__energy>  (18) 
-8.8699999999999992

>  <m_primary>  (18) 
energy

>  <rmsd>  (18) 
7.364893736005385

>  <m_score__min__rmsd>  (18) 
7.364893736005385

>  <meeko>  (18) 
{"free_energy": -8.57, "intermolecular_energy": -10.06, "internal_energy": -0.98, "cluster_size": 37, "cluster_id": 1, "rank_in_cluster": 20}

>  <energy>  (18) 
-8.57

>  <cluster_rmsd>  (18) 
0.82

>  <cluster>  (18) 
1

$$$$

     RDKit          3D

 52 56  0  0  0  0  0  0  0  0999 V2000
  143.8830   72.5660  220.7790 O   0  0  0  0  0  0  0  0  0  0  0  0
  142.9930   73.4310  220.7150 C   0  0  0  0  0  0  0  0  0  0  0  0
  143.2840   74.7110  220.0150 C   0  0  0  0  0  0  0  0  0  0  0  0
  142.1110   75.6250  220.0400 C   0  0  0  0  0  0  0  0  0  0  0  0
  142.2500   76.9310  219.3840 C   0  0  0  0  0  0  0  0  0  0  0  0
  142.6590   77.0280  218.0680 C   0  0  0  0  0  0  0  0  0  0  0  0
  142.7730   78.2720  217.4880 C   0  0  0  0  0  0  0  0  0  0  0  0
  142.4750   79.3960  218.2370 C   0  0  0  0  0  0  0  0  0  0  0  0
  142.0670   79.3510  219.5440 C   0  0  0  0  0  0  0  0  0  0  0  0
  141.7530   80.5070  220.3600 C   0  0  0  0  0  0  0  0  0  0  0  0
  141.1910   81.4780  219.7820 O   0  0  0  0  0  0  0  0  0  0  0  0
  142.0510   80.5770  221.7660 N   0  0  0  0  0  0  0  0  0  0  0  0
  142.6520   79.7720  222.7980 C   0  0  0  0  0  0  0  0  0  0  0  0
  142.1320   80.6980  223.8470 C   0  0  0  0  0  0  0  0  0  0  0  0
  141.8050   81.6200  222.7250 C   0  0  0  0  0  0  0  0  0  0  0  0
  141.9610   78.0690  220.1020 C   0  0  0  0  0  0  0  0  0  0  0  0
  140.9980   75.3060  220.6070 N   0  0  0  0  0  0  0  0  0  0  0  0
  140.7140   74.1020  221.2670 C   0  0  0  0  0  0  0  0  0  0  0  0
  139.4910   73.8200  221.8520 C   0  0  0  0  0  0  0  0  0  0  0  0
  139.2440   72.6090  222.4930 C   0  0  0  0  0  0  0  0  0  0  0  0
  140.2400   71.6480  222.5570 C   0  0  0  0  0  0  0  0  0  0  0  0
  140.0610   70.4340  223.1720 O   0  0  0  0  0  0  0  0  0  0  0  0
  139.1490   70.1420  224.1950 C   0  0  0  0  0  0  0  0  0  0  0  0
  139.8350   70.4820  225.4920 C   0  0  0  0  0  0  0  0  0  0  0  0
  140.6660   71.5620  225.6290 C   0  0  0  0  0  0  0  0  0  0  0  0
  141.2830   71.8470  226.8280 C   0  0  0  0  0  0  0  0  0  0  0  0
  141.0070   70.9770  227.8750 C   0  0  0  0  0  0  0  0  0  0  0  0
  140.2020   69.9180  227.7720 N   0  0  0  0  0  0  0  0  0  0  0  0
  139.6100   69.6540  226.6010 C   0  0  0  0  0  0  0  0  0  0  0  0
  141.4460   71.9580  221.9670 C   0  0  0  0  0  0  0  0  0  0  0  0
  141.7100   73.1330  221.3360 C   0  0  0  0  0  0  0  0  0  0  0  0
  144.1325   75.2048  220.5112 H   0  0  0  0  0  0  0  0  0  0  0  0
  143.5222   74.4839  218.9654 H   0  0  0  0  0  0  0  0  0  0  0  0
  142.8911   76.1215  217.4897 H   0  0  0  0  0  0  0  0  0  0  0  0
  143.0972   78.3705  216.4415 H   0  0  0  0  0  0  0  0  0  0  0  0
  142.5710   80.3808  217.7565 H   0  0  0  0  0  0  0  0  0  0  0  0
  142.2458   78.7518  222.8619 H   0  0  0  0  0  0  0  0  0  0  0  0
  143.7251   79.5339  222.7562 H   0  0  0  0  0  0  0  0  0  0  0  0
  141.2633   80.3231  224.4081 H   0  0  0  0  0  0  0  0  0  0  0  0
  142.7360   81.0103  224.7117 H   0  0  0  0  0  0  0  0  0  0  0  0
  140.7661   81.9813  222.7336 H   0  0  0  0  0  0  0  0  0  0  0  0
  142.3296   82.5827  222.6353 H   0  0  0  0  0  0  0  0  0  0  0  0
  141.6361   77.9696  221.1482 H   0  0  0  0  0  0  0  0  0  0  0  0
  138.6917   74.5745  221.8090 H   0  0  0  0  0  0  0  0  0  0  0  0
  138.2610   72.4158  222.9473 H   0  0  0  0  0  0  0  0  0  0  0  0
  138.2388   70.7482  224.0766 H   0  0  0  0  0  0  0  0  0  0  0  0
  138.8495   69.0839  224.1698 H   0  0  0  0  0  0  0  0  0  0  0  0
  140.8449   72.2163  224.7631 H   0  0  0  0  0  0  0  0  0  0  0  0
  141.9532   72.7109  226.9485 H   0  0  0  0  0  0  0  0  0  0  0  0
  141.4809   71.1730  228.8481 H   0  0  0  0  0  0  0  0  0  0  0  0
  138.9439   68.7835  226.5082 H   0  0  0  0  0  0  0  0  0  0  0  0
  142.2474   71.2057  222.0093 H   0  0  0  0  0  0  0  0  0  0  0  0
  1  2  2  0
  2  3  1  0
  3  4  1  0
  4  5  1  0
  5  6  2  0
  6  7  1  0
  7  8  2  0
  8  9  1  0
  9 10  1  0
 10 11  2  0
 10 12  1  0
 12 13  1  0
 13 14  1  0
 14 15  1  0
  9 16  2  0
  4 17  2  0
 17 18  1  0
 18 19  2  0
 19 20  1  0
 20 21  2  0
 21 22  1  0
 22 23  1  0
 23 24  1  0
 24 25  2  0
 25 26  1  0
 26 27  2  0
 27 28  1  0
 28 29  2  0
 21 30  1  0
 30 31  2  0
 31  2  1  0
 16  5  1  0
 31 18  1  0
 15 12  1  0
 29 24  1  0
  3 32  1  0
  3 33  1  0
  6 34  1  0
  7 35  1  0
  8 36  1  0
 13 37  1  0
 13 38  1  0
 14 39  1  0
 14 40  1  0
 15 41  1  0
 15 42  1  0
 16 43  1  0
 19 44  1  0
 20 45  1  0
 23 46  1  0
 23 47  1  0
 25 48  1  0
 26 49  1  0
 27 50  1  0
 29 51  1  0
 30 52  1  0
M  END
>  <smiles>  (19) 
O=C1CC(c2cccc(C(=O)N3CCC3)c2)=Nc2ccc(OCc3cccnc3)cc21

>  <score_type>  (19) 
oracle

>  <origin>  (19) 
autodockgpu

>  <m_score__min__energy>  (19) 
-8.8699999999999992

>  <m_primary>  (19) 
energy

>  <rmsd>  (19) 
8.52099851589166

>  <m_score__min__rmsd>  (19) 
8.52099851589166

>  <meeko>  (19) 
{"free_energy": -8.23, "intermolecular_energy": -9.73, "internal_energy": -0.99, "cluster_size": 6, "cluster_id": 3, "rank_in_cluster": 5}

>  <energy>  (19) 
-8.57

>  <cluster_rmsd>  (19) 
1.04

>  <cluster>  (19) 
1

$$$$

     RDKit          3D

 52 56  0  0  0  0  0  0  0  0999 V2000
  142.4450   74.3040  219.2560 O   0  0  0  0  0  0  0  0  0  0  0  0
  141.6610   74.2620  220.2200 C   0  0  0  0  0  0  0  0  0  0  0  0
  141.4670   72.9710  220.9340 C   0  0  0  0  0  0  0  0  0  0  0  0
  140.4940   73.1070  222.0500 C   0  0  0  0  0  0  0  0  0  0  0  0
  140.2030   71.9110  222.8500 C   0  0  0  0  0  0  0  0  0  0  0  0
  139.5800   70.8120  222.2870 C   0  0  0  0  0  0  0  0  0  0  0  0
  139.3290   69.7070  223.0700 C   0  0  0  0  0  0  0  0  0  0  0  0
  139.7040   69.7230  224.4010 C   0  0  0  0  0  0  0  0  0  0  0  0
  140.3220   70.7870  225.0030 C   0  0  0  0  0  0  0  0  0  0  0  0
  140.7230   70.8410  226.3950 C   0  0  0  0  0  0  0  0  0  0  0  0
  140.9650   71.9830  226.8750 O   0  0  0  0  0  0  0  0  0  0  0  0
  140.8470   69.6690  227.2200 N   0  0  0  0  0  0  0  0  0  0  0  0
  140.6920   68.2410  227.1230 C   0  0  0  0  0  0  0  0  0  0  0  0
  140.7650   68.1140  228.6080 C   0  0  0  0  0  0  0  0  0  0  0  0
  141.2150   69.5330  228.6050 C   0  0  0  0  0  0  0  0  0  0  0  0
  140.5630   71.8940  224.1770 C   0  0  0  0  0  0  0  0  0  0  0  0
  139.9160   74.2240  222.3310 N   0  0  0  0  0  0  0  0  0  0  0  0
  140.0940   75.4450  221.6660 C   0  0  0  0  0  0  0  0  0  0  0  0
  139.4420   76.6140  222.0240 C   0  0  0  0  0  0  0  0  0  0  0  0
  139.6500   77.8100  221.3420 C   0  0  0  0  0  0  0  0  0  0  0  0
  140.5290   77.8490  220.2730 C   0  0  0  0  0  0  0  0  0  0  0  0
  140.7800   78.9960  219.5600 O   0  0  0  0  0  0  0  0  0  0  0  0
  141.8550   79.8760  219.7440 C   0  0  0  0  0  0  0  0  0  0  0  0
  141.8790   80.2230  221.2100 C   0  0  0  0  0  0  0  0  0  0  0  0
  141.2820   81.3480  221.7140 C   0  0  0  0  0  0  0  0  0  0  0  0
  141.3220   81.6420  223.0600 C   0  0  0  0  0  0  0  0  0  0  0  0
  142.0000   80.7310  223.8610 C   0  0  0  0  0  0  0  0  0  0  0  0
  142.5900   79.6260  223.3980 N   0  0  0  0  0  0  0  0  0  0  0  0
  142.5420   79.3540  222.0890 C   0  0  0  0  0  0  0  0  0  0  0  0
  141.1610   76.6700  219.9390 C   0  0  0  0  0  0  0  0  0  0  0  0
  140.9740   75.4920  220.5900 C   0  0  0  0  0  0  0  0  0  0  0  0
  141.0917   72.2214  220.2218 H   0  0  0  0  0  0  0  0  0  0  0  0
  142.4345   72.6605  221.3553 H   0  0  0  0  0  0  0  0  0  0  0  0
  139.2884   70.8203  221.2264 H   0  0  0  0  0  0  0  0  0  0  0  0
  138.8359   68.8220  222.6416 H   0  0  0  0  0  0  0  0  0  0  0  0
  139.4943   68.8315  225.0103 H   0  0  0  0  0  0  0  0  0  0  0  0
  139.7295   67.9246  226.6947 H   0  0  0  0  0  0  0  0  0  0  0  0
  141.3715   67.6554  226.4863 H   0  0  0  0  0  0  0  0  0  0  0  0
  139.8011   67.9338  229.1064 H   0  0  0  0  0  0  0  0  0  0  0  0
  141.3343   67.3148  229.1052 H   0  0  0  0  0  0  0  0  0  0  0  0
  140.6438   70.1832  229.2839 H   0  0  0  0  0  0  0  0  0  0  0  0
  142.2350   69.7864  228.9297 H   0  0  0  0  0  0  0  0  0  0  0  0
  141.0568   72.7789  224.6050 H   0  0  0  0  0  0  0  0  0  0  0  0
  138.7403   76.5967  222.8709 H   0  0  0  0  0  0  0  0  0  0  0  0
  139.1174   78.7213  221.6517 H   0  0  0  0  0  0  0  0  0  0  0  0
  142.7979   79.3898  219.4533 H   0  0  0  0  0  0  0  0  0  0  0  0
  141.7412   80.7775  219.1241 H   0  0  0  0  0  0  0  0  0  0  0  0
  140.7590   82.0320  221.0294 H   0  0  0  0  0  0  0  0  0  0  0  0
  140.8463   82.5428  223.4749 H   0  0  0  0  0  0  0  0  0  0  0  0
  142.0539   80.9321  224.9411 H   0  0  0  0  0  0  0  0  0  0  0  0
  143.0245   78.4450  221.7004 H   0  0  0  0  0  0  0  0  0  0  0  0
  141.8616   76.6839  219.0911 H   0  0  0  0  0  0  0  0  0  0  0  0
  1  2  2  0
  2  3  1  0
  3  4  1  0
  4  5  1  0
  5  6  2  0
  6  7  1  0
  7  8  2  0
  8  9  1  0
  9 10  1  0
 10 11  2  0
 10 12  1  0
 12 13  1  0
 13 14  1  0
 14 15  1  0
  9 16  2  0
  4 17  2  0
 17 18  1  0
 18 19  2  0
 19 20  1  0
 20 21  2  0
 21 22  1  0
 22 23  1  0
 23 24  1  0
 24 25  2  0
 25 26  1  0
 26 27  2  0
 27 28  1  0
 28 29  2  0
 21 30  1  0
 30 31  2  0
 31  2  1  0
 16  5  1  0
 31 18  1  0
 15 12  1  0
 29 24  1  0
  3 32  1  0
  3 33  1  0
  6 34  1  0
  7 35  1  0
  8 36  1  0
 13 37  1  0
 13 38  1  0
 14 39  1  0
 14 40  1  0
 15 41  1  0
 15 42  1  0
 16 43  1  0
 19 44  1  0
 20 45  1  0
 23 46  1  0
 23 47  1  0
 25 48  1  0
 26 49  1  0
 27 50  1  0
 29 51  1  0
 30 52  1  0
M  END
>  <smiles>  (20) 
O=C1CC(c2cccc(C(=O)N3CCC3)c2)=Nc2ccc(OCc3cccnc3)cc21

>  <score_type>  (20) 
oracle

>  <origin>  (20) 
autodockgpu

>  <m_score__min__energy>  (20) 
-8.8699999999999992

>  <m_primary>  (20) 
energy

>  <rmsd>  (20) 
7.371604631697128

>  <m_score__min__rmsd>  (20) 
7.371604631697128

>  <meeko>  (20) 
{"free_energy": -8.46, "intermolecular_energy": -9.95, "internal_energy": -1.04, "cluster_size": 37, "cluster_id": 1, "rank_in_cluster": 30}

>  <energy>  (20) 
-8.57

>  <cluster_rmsd>  (20) 
1.42

>  <cluster>  (20) 
1

$$$$

     RDKit          3D

 52 56  0  0  0  0  0  0  0  0999 V2000
  142.6690   73.9410  220.4500 O   0  0  0  0  0  0  0  0  0  0  0  0
  141.6040   73.6810  221.0360 C   0  0  0  0  0  0  0  0  0  0  0  0
  141.3090   72.2690  221.3980 C   0  0  0  0  0  0  0  0  0  0  0  0
  139.9960   72.1460  222.0860 C   0  0  0  0  0  0  0  0  0  0  0  0
  139.5690   70.8050  222.5050 C   0  0  0  0  0  0  0  0  0  0  0  0
  139.0440   69.9070  221.5950 C   0  0  0  0  0  0  0  0  0  0  0  0
  138.6600   68.6570  222.0270 C   0  0  0  0  0  0  0  0  0  0  0  0
  138.8080   68.3290  223.3630 C   0  0  0  0  0  0  0  0  0  0  0  0
  139.3210   69.1840  224.3020 C   0  0  0  0  0  0  0  0  0  0  0  0
  139.4840   68.8780  225.7090 C   0  0  0  0  0  0  0  0  0  0  0  0
  139.1650   67.7150  226.0810 O   0  0  0  0  0  0  0  0  0  0  0  0
  139.9860   69.8300  226.6640 N   0  0  0  0  0  0  0  0  0  0  0  0
  140.4470   71.1930  226.7110 C   0  0  0  0  0  0  0  0  0  0  0  0
  140.9840   70.9830  228.0880 C   0  0  0  0  0  0  0  0  0  0  0  0
  140.2250   69.7020  228.0770 C   0  0  0  0  0  0  0  0  0  0  0  0
  139.7020   70.4480  223.8270 C   0  0  0  0  0  0  0  0  0  0  0  0
  139.2410   73.1640  222.3220 N   0  0  0  0  0  0  0  0  0  0  0  0
  139.5120   74.4980  221.9870 C   0  0  0  0  0  0  0  0  0  0  0  0
  138.6570   75.5480  222.2770 C   0  0  0  0  0  0  0  0  0  0  0  0
  138.9650   76.8620  221.9340 C   0  0  0  0  0  0  0  0  0  0  0  0
  140.1550   77.1440  221.2850 C   0  0  0  0  0  0  0  0  0  0  0  0
  140.5190   78.4170  220.9220 O   0  0  0  0  0  0  0  0  0  0  0  0
  141.8240   78.9170  220.8250 C   0  0  0  0  0  0  0  0  0  0  0  0
  142.0110   79.8570  221.9860 C   0  0  0  0  0  0  0  0  0  0  0  0
  142.7040   79.5110  223.1150 C   0  0  0  0  0  0  0  0  0  0  0  0
  142.8560   80.3920  224.1650 C   0  0  0  0  0  0  0  0  0  0  0  0
  142.2670   81.6400  224.0010 C   0  0  0  0  0  0  0  0  0  0  0  0
  141.5870   82.0060  222.9120 N   0  0  0  0  0  0  0  0  0  0  0  0
  141.4480   81.1390  221.9020 C   0  0  0  0  0  0  0  0  0  0  0  0
  140.9850   76.0780  221.0100 C   0  0  0  0  0  0  0  0  0  0  0  0
  140.7060   74.7880  221.3340 C   0  0  0  0  0  0  0  0  0  0  0  0
  141.2906   71.6613  220.4813 H   0  0  0  0  0  0  0  0  0  0  0  0
  142.0930   71.9176  222.0849 H   0  0  0  0  0  0  0  0  0  0  0  0
  138.9341   70.1877  220.5371 H   0  0  0  0  0  0  0  0  0  0  0  0
  138.2405   67.9279  221.3182 H   0  0  0  0  0  0  0  0  0  0  0  0
  138.4963   67.3258  223.6892 H   0  0  0  0  0  0  0  0  0  0  0  0
  141.2177   71.4296  225.9626 H   0  0  0  0  0  0  0  0  0  0  0  0
  139.7470   72.0181  226.5129 H   0  0  0  0  0  0  0  0  0  0  0  0
  142.0770   70.8746  228.1487 H   0  0  0  0  0  0  0  0  0  0  0  0
  140.8706   71.7304  228.8870 H   0  0  0  0  0  0  0  0  0  0  0  0
  140.8290   68.8238  228.3490 H   0  0  0  0  0  0  0  0  0  0  0  0
  139.3795   69.5591  228.7660 H   0  0  0  0  0  0  0  0  0  0  0  0
  140.1210   71.1779  224.5352 H   0  0  0  0  0  0  0  0  0  0  0  0
  137.7082   75.3383  222.7926 H   0  0  0  0  0  0  0  0  0  0  0  0
  138.2644   77.6741  222.1782 H   0  0  0  0  0  0  0  0  0  0  0  0
  142.5513   78.0937  220.8821 H   0  0  0  0  0  0  0  0  0  0  0  0
  141.9810   79.4336  219.8666 H   0  0  0  0  0  0  0  0  0  0  0  0
  143.1495   78.5078  223.1861 H   0  0  0  0  0  0  0  0  0  0  0  0
  143.4097   80.1233  225.0767 H   0  0  0  0  0  0  0  0  0  0  0  0
  142.3671   82.3702  224.8176 H   0  0  0  0  0  0  0  0  0  0  0  0
  140.8893   81.4333  221.0013 H   0  0  0  0  0  0  0  0  0  0  0  0
  141.9346   76.2851  220.4949 H   0  0  0  0  0  0  0  0  0  0  0  0
  1  2  2  0
  2  3  1  0
  3  4  1  0
  4  5  1  0
  5  6  2  0
  6  7  1  0
  7  8  2  0
  8  9  1  0
  9 10  1  0
 10 11  2  0
 10 12  1  0
 12 13  1  0
 13 14  1  0
 14 15  1  0
  9 16  2  0
  4 17  2  0
 17 18  1  0
 18 19  2  0
 19 20  1  0
 20 21  2  0
 21 22  1  0
 22 23  1  0
 23 24  1  0
 24 25  2  0
 25 26  1  0
 26 27  2  0
 27 28  1  0
 28 29  2  0
 21 30  1  0
 30 31  2  0
 31  2  1  0
 16  5  1  0
 31 18  1  0
 15 12  1  0
 29 24  1  0
  3 32  1  0
  3 33  1  0
  6 34  1  0
  7 35  1  0
  8 36  1  0
 13 37  1  0
 13 38  1  0
 14 39  1  0
 14 40  1  0
 15 41  1  0
 15 42  1  0
 16 43  1  0
 19 44  1  0
 20 45  1  0
 23 46  1  0
 23 47  1  0
 25 48  1  0
 26 49  1  0
 27 50  1  0
 29 51  1  0
 30 52  1  0
M  END
>  <smiles>  (21) 
O=C1CC(c2cccc(C(=O)N3CCC3)c2)=Nc2ccc(OCc3cccnc3)cc21

>  <score_type>  (21) 
oracle

>  <origin>  (21) 
autodockgpu

>  <m_score__min__energy>  (21) 
-8.8699999999999992

>  <m_primary>  (21) 
energy

>  <rmsd>  (21) 
6.179893904494851

>  <m_score__min__rmsd>  (21) 
6.179893904494851

>  <meeko>  (21) 
{"free_energy": -8.63, "intermolecular_energy": -10.12, "internal_energy": -0.93, "cluster_size": 37, "cluster_id": 1, "rank_in_cluster": 12}

>  <energy>  (21) 
-8.57

>  <cluster_rmsd>  (21) 
1.41

>  <cluster>  (21) 
1

$$$$

     RDKit          3D

 52 56  0  0  0  0  0  0  0  0999 V2000
  142.8920   73.0130  220.3530 O   0  0  0  0  0  0  0  0  0  0  0  0
  141.8210   73.1120  220.9780 C   0  0  0  0  0  0  0  0  0  0  0  0
  141.1470   71.8730  221.4490 C   0  0  0  0  0  0  0  0  0  0  0  0
  139.8830   72.1810  222.1700 C   0  0  0  0  0  0  0  0  0  0  0  0
  139.1060   71.0520  222.6960 C   0  0  0  0  0  0  0  0  0  0  0  0
  137.9650   70.6090  222.0530 C   0  0  0  0  0  0  0  0  0  0  0  0
  137.2670   69.5440  222.5760 C   0  0  0  0  0  0  0  0  0  0  0  0
  137.7230   68.9410  223.7340 C   0  0  0  0  0  0  0  0  0  0  0  0
  138.8460   69.3430  224.4080 C   0  0  0  0  0  0  0  0  0  0  0  0
  139.3500   68.7410  225.6260 C   0  0  0  0  0  0  0  0  0  0  0  0
  139.2520   67.4860  225.7250 O   0  0  0  0  0  0  0  0  0  0  0  0
  139.9410   69.5060  226.6920 N   0  0  0  0  0  0  0  0  0  0  0  0
  140.2460   70.8750  227.0170 C   0  0  0  0  0  0  0  0  0  0  0  0
  141.0930   70.4330  228.1630 C   0  0  0  0  0  0  0  0  0  0  0  0
  140.4990   69.0850  227.9500 C   0  0  0  0  0  0  0  0  0  0  0  0
  139.5330   70.4310  223.8470 C   0  0  0  0  0  0  0  0  0  0  0  0
  139.4620   73.3870  222.3430 N   0  0  0  0  0  0  0  0  0  0  0  0
  140.0920   74.5600  221.9050 C   0  0  0  0  0  0  0  0  0  0  0  0
  139.5860   75.8300  222.1310 C   0  0  0  0  0  0  0  0  0  0  0  0
  140.2450   76.9720  221.6850 C   0  0  0  0  0  0  0  0  0  0  0  0
  141.4390   76.8540  220.9940 C   0  0  0  0  0  0  0  0  0  0  0  0
  142.1390   77.9410  220.5290 O   0  0  0  0  0  0  0  0  0  0  0  0
  141.6410   79.2370  220.3430 C   0  0  0  0  0  0  0  0  0  0  0  0
  141.7280   79.9260  221.6800 C   0  0  0  0  0  0  0  0  0  0  0  0
  140.6670   80.5810  222.2460 C   0  0  0  0  0  0  0  0  0  0  0  0
  140.7760   81.2050  223.4700 C   0  0  0  0  0  0  0  0  0  0  0  0
  142.0200   81.1250  224.0830 C   0  0  0  0  0  0  0  0  0  0  0  0
  143.0720   80.4930  223.5570 N   0  0  0  0  0  0  0  0  0  0  0  0
  142.9500   79.8920  222.3680 C   0  0  0  0  0  0  0  0  0  0  0  0
  141.9160   75.5780  220.7830 C   0  0  0  0  0  0  0  0  0  0  0  0
  141.2910   74.4480  221.2090 C   0  0  0  0  0  0  0  0  0  0  0  0
  140.9176   71.2385  220.5803 H   0  0  0  0  0  0  0  0  0  0  0  0
  141.8237   71.3548  222.1443 H   0  0  0  0  0  0  0  0  0  0  0  0
  137.6185   71.1025  221.1330 H   0  0  0  0  0  0  0  0  0  0  0  0
  136.3571   69.1769  222.0786 H   0  0  0  0  0  0  0  0  0  0  0  0
  137.1522   68.0911  224.1364 H   0  0  0  0  0  0  0  0  0  0  0  0
  140.8013   71.4074  226.2307 H   0  0  0  0  0  0  0  0  0  0  0  0
  139.4320   71.5967  227.1801 H   0  0  0  0  0  0  0  0  0  0  0  0
  142.1775   70.4950  227.9896 H   0  0  0  0  0  0  0  0  0  0  0  0
  141.0755   70.9385  229.1398 H   0  0  0  0  0  0  0  0  0  0  0  0
  141.2426   68.2793  227.8605 H   0  0  0  0  0  0  0  0  0  0  0  0
  139.8481   68.6439  228.7193 H   0  0  0  0  0  0  0  0  0  0  0  0
  140.4427   70.7992  224.3440 H   0  0  0  0  0  0  0  0  0  0  0  0
  138.6377   75.9386  222.6778 H   0  0  0  0  0  0  0  0  0  0  0  0
  139.8179   77.9666  221.8812 H   0  0  0  0  0  0  0  0  0  0  0  0
  142.2477   79.7738  219.5989 H   0  0  0  0  0  0  0  0  0  0  0  0
  140.6050   79.2153  219.9739 H   0  0  0  0  0  0  0  0  0  0  0  0
  139.7059   80.6098  221.7117 H   0  0  0  0  0  0  0  0  0  0  0  0
  139.9299   81.7339  223.9331 H   0  0  0  0  0  0  0  0  0  0  0  0
  142.1461   81.6119  225.0612 H   0  0  0  0  0  0  0  0  0  0  0  0
  143.8118   79.3688  221.9279 H   0  0  0  0  0  0  0  0  0  0  0  0
  142.8631   75.4668  220.2348 H   0  0  0  0  0  0  0  0  0  0  0  0
  1  2  2  0
  2  3  1  0
  3  4  1  0
  4  5  1  0
  5  6  2  0
  6  7  1  0
  7  8  2  0
  8  9  1  0
  9 10  1  0
 10 11  2  0
 10 12  1  0
 12 13  1  0
 13 14  1  0
 14 15  1  0
  9 16  2  0
  4 17  2  0
 17 18  1  0
 18 19  2  0
 19 20  1  0
 20 21  2  0
 21 22  1  0
 22 23  1  0
 23 24  1  0
 24 25  2  0
 25 26  1  0
 26 27  2  0
 27 28  1  0
 28 29  2  0
 21 30  1  0
 30 31  2  0
 31  2  1  0
 16  5  1  0
 31 18  1  0
 15 12  1  0
 29 24  1  0
  3 32  1  0
  3 33  1  0
  6 34  1  0
  7 35  1  0
  8 36  1  0
 13 37  1  0
 13 38  1  0
 14 39  1  0
 14 40  1  0
 15 41  1  0
 15 42  1  0
 16 43  1  0
 19 44  1  0
 20 45  1  0
 23 46  1  0
 23 47  1  0
 25 48  1  0
 26 49  1  0
 27 50  1  0
 29 51  1  0
 30 52  1  0
M  END
>  <smiles>  (22) 
O=C1CC(c2cccc(C(=O)N3CCC3)c2)=Nc2ccc(OCc3cccnc3)cc21

>  <score_type>  (22) 
oracle

>  <origin>  (22) 
autodockgpu

>  <m_score__min__energy>  (22) 
-8.8699999999999992

>  <m_primary>  (22) 
energy

>  <rmsd>  (22) 
6.197420118360763

>  <m_score__min__rmsd>  (22) 
6.197420118360763

>  <meeko>  (22) 
{"free_energy": -8.56, "intermolecular_energy": -10.05, "internal_energy": -0.99, "cluster_size": 37, "cluster_id": 1, "rank_in_cluster": 23}

>  <energy>  (22) 
-8.57

>  <cluster_rmsd>  (22) 
1.41

>  <cluster>  (22) 
1

$$$$

     RDKit          3D

 52 56  0  0  0  0  0  0  0  0999 V2000
  142.5820   74.4960  219.2500 O   0  0  0  0  0  0  0  0  0  0  0  0
  141.7660   74.4360  220.1860 C   0  0  0  0  0  0  0  0  0  0  0  0
  141.5490   73.1320  220.8680 C   0  0  0  0  0  0  0  0  0  0  0  0
  140.5390   73.2470  221.9540 C   0  0  0  0  0  0  0  0  0  0  0  0
  140.2210   72.0360  222.7200 C   0  0  0  0  0  0  0  0  0  0  0  0
  139.4900   71.0070  222.1560 C   0  0  0  0  0  0  0  0  0  0  0  0
  139.2170   69.8850  222.9060 C   0  0  0  0  0  0  0  0  0  0  0  0
  139.6800   69.8140  224.2080 C   0  0  0  0  0  0  0  0  0  0  0  0
  140.4060   70.8060  224.8110 C   0  0  0  0  0  0  0  0  0  0  0  0
  140.9010   70.7690  226.1730 C   0  0  0  0  0  0  0  0  0  0  0  0
  141.4820   71.8060  226.5970 O   0  0  0  0  0  0  0  0  0  0  0  0
  140.7530   69.6220  227.0280 N   0  0  0  0  0  0  0  0  0  0  0  0
  140.2030   68.2920  226.9890 C   0  0  0  0  0  0  0  0  0  0  0  0
  140.3410   68.1730  228.4710 C   0  0  0  0  0  0  0  0  0  0  0  0
  141.1640   69.4110  228.3910 C   0  0  0  0  0  0  0  0  0  0  0  0
  140.6670   71.9340  224.0180 C   0  0  0  0  0  0  0  0  0  0  0  0
  139.9520   74.3590  222.2370 N   0  0  0  0  0  0  0  0  0  0  0  0
  140.1510   75.5920  221.6020 C   0  0  0  0  0  0  0  0  0  0  0  0
  139.4880   76.7550  221.9610 C   0  0  0  0  0  0  0  0  0  0  0  0
  139.7190   77.9630  221.3100 C   0  0  0  0  0  0  0  0  0  0  0  0
  140.6330   78.0230  220.2710 C   0  0  0  0  0  0  0  0  0  0  0  0
  140.9080   79.1830  219.5890 O   0  0  0  0  0  0  0  0  0  0  0  0
  142.0090   80.0260  219.7860 C   0  0  0  0  0  0  0  0  0  0  0  0
  142.0250   80.3770  221.2500 C   0  0  0  0  0  0  0  0  0  0  0  0
  142.5730   79.5600  222.2020 C   0  0  0  0  0  0  0  0  0  0  0  0
  142.5710   79.9060  223.5360 C   0  0  0  0  0  0  0  0  0  0  0  0
  141.9820   81.1260  223.8460 C   0  0  0  0  0  0  0  0  0  0  0  0
  141.4400   81.9440  222.9410 N   0  0  0  0  0  0  0  0  0  0  0  0
  141.4510   81.5940  221.6490 C   0  0  0  0  0  0  0  0  0  0  0  0
  141.2760   76.8500  219.9360 C   0  0  0  0  0  0  0  0  0  0  0  0
  141.0670   75.6590  220.5570 C   0  0  0  0  0  0  0  0  0  0  0  0
  141.1978   72.3963  220.1295 H   0  0  0  0  0  0  0  0  0  0  0  0
  142.5021   72.8131  221.3150 H   0  0  0  0  0  0  0  0  0  0  0  0
  139.1304   71.0838  221.1193 H   0  0  0  0  0  0  0  0  0  0  0  0
  138.6377   69.0550  222.4753 H   0  0  0  0  0  0  0  0  0  0  0  0
  139.4520   68.9098  224.7914 H   0  0  0  0  0  0  0  0  0  0  0  0
  139.1633   68.2491  226.6325 H   0  0  0  0  0  0  0  0  0  0  0  0
  140.6481   67.5308  226.3314 H   0  0  0  0  0  0  0  0  0  0  0  0
  139.4018   68.2755  229.0344 H   0  0  0  0  0  0  0  0  0  0  0  0
  140.7005   67.2551  228.9590 H   0  0  0  0  0  0  0  0  0  0  0  0
  140.8430   70.2050  229.0813 H   0  0  0  0  0  0  0  0  0  0  0  0
  142.2343   69.3761  228.6427 H   0  0  0  0  0  0  0  0  0  0  0  0
  141.2471   72.7639  224.4479 H   0  0  0  0  0  0  0  0  0  0  0  0
  138.7586   76.7222  222.7838 H   0  0  0  0  0  0  0  0  0  0  0  0
  139.1768   78.8685  221.6199 H   0  0  0  0  0  0  0  0  0  0  0  0
  142.9387   79.5070  219.5099 H   0  0  0  0  0  0  0  0  0  0  0  0
  141.9341   80.9289  219.1622 H   0  0  0  0  0  0  0  0  0  0  0  0
  143.0253   78.6054  221.8951 H   0  0  0  0  0  0  0  0  0  0  0  0
  143.0088   79.2563  224.3081 H   0  0  0  0  0  0  0  0  0  0  0  0
  141.9612   81.4364  224.9011 H   0  0  0  0  0  0  0  0  0  0  0  0
  141.0082   82.2632  220.8967 H   0  0  0  0  0  0  0  0  0  0  0  0
  142.0052   76.8800  219.1130 H   0  0  0  0  0  0  0  0  0  0  0  0
  1  2  2  0
  2  3  1  0
  3  4  1  0
  4  5  1  0
  5  6  2  0
  6  7  1  0
  7  8  2  0
  8  9  1  0
  9 10  1  0
 10 11  2  0
 10 12  1  0
 12 13  1  0
 13 14  1  0
 14 15  1  0
  9 16  2  0
  4 17  2  0
 17 18  1  0
 18 19  2  0
 19 20  1  0
 20 21  2  0
 21 22  1  0
 22 23  1  0
 23 24  1  0
 24 25  2  0
 25 26  1  0
 26 27  2  0
 27 28  1  0
 28 29  2  0
 21 30  1  0
 30 31  2  0
 31  2  1  0
 16  5  1  0
 31 18  1  0
 15 12  1  0
 29 24  1  0
  3 32  1  0
  3 33  1  0
  6 34  1  0
  7 35  1  0
  8 36  1  0
 13 37  1  0
 13 38  1  0
 14 39  1  0
 14 40  1  0
 15 41  1  0
 15 42  1  0
 16 43  1  0
 19 44  1  0
 20 45  1  0
 23 46  1  0
 23 47  1  0
 25 48  1  0
 26 49  1  0
 27 50  1  0
 29 51  1  0
 30 52  1  0
M  END
>  <smiles>  (23) 
O=C1CC(c2cccc(C(=O)N3CCC3)c2)=Nc2ccc(OCc3cccnc3)cc21

>  <score_type>  (23) 
oracle

>  <origin>  (23) 
autodockgpu

>  <m_score__min__energy>  (23) 
-8.8699999999999992

>  <m_primary>  (23) 
energy

>  <rmsd>  (23) 
7.3632507404065

>  <m_score__min__rmsd>  (23) 
7.3632507404065

>  <meeko>  (23) 
{"free_energy": -8.66, "intermolecular_energy": -10.15, "internal_energy": -1.06, "cluster_size": 37, "cluster_id": 1, "rank_in_cluster": 10}

>  <energy>  (23) 
-8.56

>  <cluster_rmsd>  (23) 
0.62

>  <cluster>  (23) 
1

$$$$

     RDKit          3D

 52 56  0  0  0  0  0  0  0  0999 V2000
  142.9260   73.4120  219.5570 O   0  0  0  0  0  0  0  0  0  0  0  0
  142.0360   73.3930  220.4250 C   0  0  0  0  0  0  0  0  0  0  0  0
  141.5790   72.0810  220.9580 C   0  0  0  0  0  0  0  0  0  0  0  0
  140.5110   72.2510  221.9790 C   0  0  0  0  0  0  0  0  0  0  0  0
  139.9610   71.0380  222.5970 C   0  0  0  0  0  0  0  0  0  0  0  0
  139.4260   70.0230  221.8250 C   0  0  0  0  0  0  0  0  0  0  0  0
  138.9250   68.9000  222.4430 C   0  0  0  0  0  0  0  0  0  0  0  0
  138.9670   68.8120  223.8230 C   0  0  0  0  0  0  0  0  0  0  0  0
  139.4850   69.7910  224.6300 C   0  0  0  0  0  0  0  0  0  0  0  0
  139.5400   69.7360  226.0780 C   0  0  0  0  0  0  0  0  0  0  0  0
  138.9450   68.7730  226.6350 O   0  0  0  0  0  0  0  0  0  0  0  0
  140.2320   70.7160  226.8720 N   0  0  0  0  0  0  0  0  0  0  0  0
  141.0030   71.9200  226.6970 C   0  0  0  0  0  0  0  0  0  0  0  0
  141.4430   71.8660  228.1220 C   0  0  0  0  0  0  0  0  0  0  0  0
  140.4020   70.8160  228.2970 C   0  0  0  0  0  0  0  0  0  0  0  0
  139.9870   70.9200  223.9670 C   0  0  0  0  0  0  0  0  0  0  0  0
  140.0670   73.4090  222.3300 N   0  0  0  0  0  0  0  0  0  0  0  0
  140.4930   74.6490  221.8350 C   0  0  0  0  0  0  0  0  0  0  0  0
  139.9760   75.8620  222.2620 C   0  0  0  0  0  0  0  0  0  0  0  0
  140.4300   77.0740  221.7510 C   0  0  0  0  0  0  0  0  0  0  0  0
  141.4250   77.0870  220.7880 C   0  0  0  0  0  0  0  0  0  0  0  0
  141.9180   78.2480  220.2450 O   0  0  0  0  0  0  0  0  0  0  0  0
  141.3070   79.5090  220.2730 C   0  0  0  0  0  0  0  0  0  0  0  0
  141.7020   80.1480  221.5780 C   0  0  0  0  0  0  0  0  0  0  0  0
  142.5710   79.5600  222.4580 C   0  0  0  0  0  0  0  0  0  0  0  0
  142.9110   80.1680  223.6480 C   0  0  0  0  0  0  0  0  0  0  0  0
  142.3210   81.4020  223.8900 C   0  0  0  0  0  0  0  0  0  0  0  0
  141.4710   82.0000  223.0520 N   0  0  0  0  0  0  0  0  0  0  0  0
  141.1510   81.3970  221.9010 C   0  0  0  0  0  0  0  0  0  0  0  0
  141.9190   75.8650  220.3830 C   0  0  0  0  0  0  0  0  0  0  0  0
  141.4920   74.6690  220.8670 C   0  0  0  0  0  0  0  0  0  0  0  0
  141.1871   71.4747  220.1280 H   0  0  0  0  0  0  0  0  0  0  0  0
  142.4367   71.5837  221.4345 H   0  0  0  0  0  0  0  0  0  0  0  0
  139.4011   70.1123  220.7289 H   0  0  0  0  0  0  0  0  0  0  0  0
  138.4960   68.0815  221.8463 H   0  0  0  0  0  0  0  0  0  0  0  0
  138.5624   67.9064  224.2986 H   0  0  0  0  0  0  0  0  0  0  0  0
  141.8246   71.8226  225.9721 H   0  0  0  0  0  0  0  0  0  0  0  0
  140.5241   72.8283  226.3024 H   0  0  0  0  0  0  0  0  0  0  0  0
  142.4772   71.5244  228.2758 H   0  0  0  0  0  0  0  0  0  0  0  0
  141.4921   72.7612  228.7594 H   0  0  0  0  0  0  0  0  0  0  0  0
  140.7739   69.8937  228.7672 H   0  0  0  0  0  0  0  0  0  0  0  0
  139.5315   71.0080  228.9416 H   0  0  0  0  0  0  0  0  0  0  0  0
  140.4161   71.7390  224.5628 H   0  0  0  0  0  0  0  0  0  0  0  0
  139.1847   75.8667  223.0261 H   0  0  0  0  0  0  0  0  0  0  0  0
  139.9994   78.0199  222.1113 H   0  0  0  0  0  0  0  0  0  0  0  0
  141.6589   80.1203  219.4289 H   0  0  0  0  0  0  0  0  0  0  0  0
  140.2137   79.4227  220.1878 H   0  0  0  0  0  0  0  0  0  0  0  0
  143.0074   78.5812  222.2101 H   0  0  0  0  0  0  0  0  0  0  0  0
  143.6071   79.7040  224.3622 H   0  0  0  0  0  0  0  0  0  0  0  0
  142.5692   81.9179  224.8293 H   0  0  0  0  0  0  0  0  0  0  0  0
  140.4522   81.8833  221.2045 H   0  0  0  0  0  0  0  0  0  0  0  0
  142.7100   75.8577  219.6186 H   0  0  0  0  0  0  0  0  0  0  0  0
  1  2  2  0
  2  3  1  0
  3  4  1  0
  4  5  1  0
  5  6  2  0
  6  7  1  0
  7  8  2  0
  8  9  1  0
  9 10  1  0
 10 11  2  0
 10 12  1  0
 12 13  1  0
 13 14  1  0
 14 15  1  0
  9 16  2  0
  4 17  2  0
 17 18  1  0
 18 19  2  0
 19 20  1  0
 20 21  2  0
 21 22  1  0
 22 23  1  0
 23 24  1  0
 24 25  2  0
 25 26  1  0
 26 27  2  0
 27 28  1  0
 28 29  2  0
 21 30  1  0
 30 31  2  0
 31  2  1  0
 16  5  1  0
 31 18  1  0
 15 12  1  0
 29 24  1  0
  3 32  1  0
  3 33  1  0
  6 34  1  0
  7 35  1  0
  8 36  1  0
 13 37  1  0
 13 38  1  0
 14 39  1  0
 14 40  1  0
 15 41  1  0
 15 42  1  0
 16 43  1  0
 19 44  1  0
 20 45  1  0
 23 46  1  0
 23 47  1  0
 25 48  1  0
 26 49  1  0
 27 50  1  0
 29 51  1  0
 30 52  1  0
M  END
>  <smiles>  (24) 
O=C1CC(c2cccc(C(=O)N3CCC3)c2)=Nc2ccc(OCc3cccnc3)cc21

>  <score_type>  (24) 
oracle

>  <origin>  (24) 
autodockgpu

>  <m_score__min__energy>  (24) 
-8.8699999999999992

>  <m_primary>  (24) 
energy

>  <rmsd>  (24) 
6.375532914317614

>  <m_score__min__rmsd>  (24) 
6.375532914317614

>  <meeko>  (24) 
{"free_energy": -8.69, "intermolecular_energy": -10.18, "internal_energy": -0.94, "cluster_size": 37, "cluster_id": 1, "rank_in_cluster": 8}

>  <energy>  (24) 
-8.55

>  <cluster_rmsd>  (24) 
1.39

>  <cluster>  (24) 
1

$$$$

     RDKit          3D

 52 56  0  0  0  0  0  0  0  0999 V2000
  139.4480   74.1240  222.2600 O   0  0  0  0  0  0  0  0  0  0  0  0
  140.4690   74.4330  221.6210 C   0  0  0  0  0  0  0  0  0  0  0  0
  141.4590   73.3720  221.2920 C   0  0  0  0  0  0  0  0  0  0  0  0
  142.6140   73.9220  220.5320 C   0  0  0  0  0  0  0  0  0  0  0  0
  143.6760   72.9880  220.1350 C   0  0  0  0  0  0  0  0  0  0  0  0
  144.9850   73.4110  220.0010 C   0  0  0  0  0  0  0  0  0  0  0  0
  145.9510   72.5030  219.6320 C   0  0  0  0  0  0  0  0  0  0  0  0
  145.5900   71.1880  219.4030 C   0  0  0  0  0  0  0  0  0  0  0  0
  144.3080   70.7210  219.5220 C   0  0  0  0  0  0  0  0  0  0  0  0
  143.8920   69.3530  219.2840 C   0  0  0  0  0  0  0  0  0  0  0  0
  142.6620   69.1590  219.0750 O   0  0  0  0  0  0  0  0  0  0  0  0
  144.8100   68.2450  219.2770 N   0  0  0  0  0  0  0  0  0  0  0  0
  146.2150   67.9880  219.4580 C   0  0  0  0  0  0  0  0  0  0  0  0
  146.0480   66.6040  218.9260 C   0  0  0  0  0  0  0  0  0  0  0  0
  144.5850   66.8430  219.0500 C   0  0  0  0  0  0  0  0  0  0  0  0
  143.3490   71.6730  219.9000 C   0  0  0  0  0  0  0  0  0  0  0  0
  142.7040   75.1680  220.2170 N   0  0  0  0  0  0  0  0  0  0  0  0
  141.7750   76.1740  220.5210 C   0  0  0  0  0  0  0  0  0  0  0  0
  141.9310   77.4980  220.1460 C   0  0  0  0  0  0  0  0  0  0  0  0
  140.9830   78.4670  220.4600 C   0  0  0  0  0  0  0  0  0  0  0  0
  139.8460   78.1150  221.1680 C   0  0  0  0  0  0  0  0  0  0  0  0
  138.8720   79.0210  221.5080 O   0  0  0  0  0  0  0  0  0  0  0  0
  138.8030   79.7690  222.6910 C   0  0  0  0  0  0  0  0  0  0  0  0
  140.2220   80.0930  223.0770 C   0  0  0  0  0  0  0  0  0  0  0  0
  140.8340   81.2680  222.7330 C   0  0  0  0  0  0  0  0  0  0  0  0
  142.1360   81.5360  223.0980 C   0  0  0  0  0  0  0  0  0  0  0  0
  142.7780   80.5450  223.8310 C   0  0  0  0  0  0  0  0  0  0  0  0
  142.2070   79.3910  224.1830 N   0  0  0  0  0  0  0  0  0  0  0  0
  140.9420   79.1450  223.8210 C   0  0  0  0  0  0  0  0  0  0  0  0
  139.7200   76.7900  221.5280 C   0  0  0  0  0  0  0  0  0  0  0  0
  140.6320   75.8270  221.2330 C   0  0  0  0  0  0  0  0  0  0  0  0
  141.8268   72.9238  222.2268 H   0  0  0  0  0  0  0  0  0  0  0  0
  140.9612   72.6171  220.6657 H   0  0  0  0  0  0  0  0  0  0  0  0
  145.2517   74.4618  220.1873 H   0  0  0  0  0  0  0  0  0  0  0  0
  146.9985   72.8197  219.5205 H   0  0  0  0  0  0  0  0  0  0  0  0
  146.3764   70.4773  219.1088 H   0  0  0  0  0  0  0  0  0  0  0  0
  146.8682   68.6262  218.8448 H   0  0  0  0  0  0  0  0  0  0  0  0
  146.6820   68.1477  220.4410 H   0  0  0  0  0  0  0  0  0  0  0  0
  146.4086   66.4554  217.8975 H   0  0  0  0  0  0  0  0  0  0  0  0
  146.5449   65.7331  219.3784 H   0  0  0  0  0  0  0  0  0  0  0  0
  144.0187   66.6255  218.1324 H   0  0  0  0  0  0  0  0  0  0  0  0
  143.9928   66.2588  219.7697 H   0  0  0  0  0  0  0  0  0  0  0  0
  142.3013   71.3572  220.0120 H   0  0  0  0  0  0  0  0  0  0  0  0
  142.8298   77.7919  219.5840 H   0  0  0  0  0  0  0  0  0  0  0  0
  141.1363   79.5102  220.1466 H   0  0  0  0  0  0  0  0  0  0  0  0
  138.2344   80.6954  222.5220 H   0  0  0  0  0  0  0  0  0  0  0  0
  138.2932   79.2068  223.4873 H   0  0  0  0  0  0  0  0  0  0  0  0
  140.2740   82.0156  222.1520 H   0  0  0  0  0  0  0  0  0  0  0  0
  142.6364   82.4770  222.8257 H   0  0  0  0  0  0  0  0  0  0  0  0
  143.8189   80.7222  224.1395 H   0  0  0  0  0  0  0  0  0  0  0  0
  140.4648   78.1963  224.1076 H   0  0  0  0  0  0  0  0  0  0  0  0
  138.8226   76.4932  222.0907 H   0  0  0  0  0  0  0  0  0  0  0  0
  1  2  2  0
  2  3  1  0
  3  4  1  0
  4  5  1  0
  5  6  2  0
  6  7  1  0
  7  8  2  0
  8  9  1  0
  9 10  1  0
 10 11  2  0
 10 12  1  0
 12 13  1  0
 13 14  1  0
 14 15  1  0
  9 16  2  0
  4 17  2  0
 17 18  1  0
 18 19  2  0
 19 20  1  0
 20 21  2  0
 21 22  1  0
 22 23  1  0
 23 24  1  0
 24 25  2  0
 25 26  1  0
 26 27  2  0
 27 28  1  0
 28 29  2  0
 21 30  1  0
 30 31  2  0
 31  2  1  0
 16  5  1  0
 31 18  1  0
 15 12  1  0
 29 24  1  0
  3 32  1  0
  3 33  1  0
  6 34  1  0
  7 35  1  0
  8 36  1  0
 13 37  1  0
 13 38  1  0
 14 39  1  0
 14 40  1  0
 15 41  1  0
 15 42  1  0
 16 43  1  0
 19 44  1  0
 20 45  1  0
 23 46  1  0
 23 47  1  0
 25 48  1  0
 26 49  1  0
 27 50  1  0
 29 51  1  0
 30 52  1  0
M  END
>  <smiles>  (25) 
O=C1CC(c2cccc(C(=O)N3CCC3)c2)=Nc2ccc(OCc3cccnc3)cc21

>  <score_type>  (25) 
oracle

>  <origin>  (25) 
autodockgpu

>  <m_score__min__energy>  (25) 
-8.8699999999999992

>  <m_primary>  (25) 
energy

>  <rmsd>  (25) 
7.878301398404

>  <m_score__min__rmsd>  (25) 
7.878301398404

>  <meeko>  (25) 
{"free_energy": -7.9, "intermolecular_energy": -9.39, "internal_energy": -1.09, "cluster_size": 2, "cluster_id": 7, "rank_in_cluster": 1}

>  <energy>  (25) 
-8.53

>  <cluster_rmsd>  (25) 
1.41

>  <cluster>  (25) 
1

$$$$

     RDKit          3D

 52 56  0  0  0  0  0  0  0  0999 V2000
  142.8780   73.0800  220.8500 O   0  0  0  0  0  0  0  0  0  0  0  0
  141.7460   73.2840  221.3220 C   0  0  0  0  0  0  0  0  0  0  0  0
  141.0120   72.1500  221.9440 C   0  0  0  0  0  0  0  0  0  0  0  0
  139.6790   72.5750  222.4480 C   0  0  0  0  0  0  0  0  0  0  0  0
  138.8370   71.5580  223.0920 C   0  0  0  0  0  0  0  0  0  0  0  0
  137.4700   71.5300  222.8890 C   0  0  0  0  0  0  0  0  0  0  0  0
  136.7180   70.5580  223.5070 C   0  0  0  0  0  0  0  0  0  0  0  0
  137.3470   69.6300  224.3170 C   0  0  0  0  0  0  0  0  0  0  0  0
  138.6960   69.6160  224.5500 C   0  0  0  0  0  0  0  0  0  0  0  0
  139.3880   68.6650  225.3970 C   0  0  0  0  0  0  0  0  0  0  0  0
  139.4910   67.4840  224.9640 O   0  0  0  0  0  0  0  0  0  0  0  0
  139.9460   69.0170  226.6760 N   0  0  0  0  0  0  0  0  0  0  0  0
  140.0670   70.1630  227.5390 C   0  0  0  0  0  0  0  0  0  0  0  0
  141.0670   69.4450  228.3820 C   0  0  0  0  0  0  0  0  0  0  0  0
  140.6670   68.2220  227.6340 C   0  0  0  0  0  0  0  0  0  0  0  0
  139.4330   70.6210  223.9040 C   0  0  0  0  0  0  0  0  0  0  0  0
  139.2530   73.7870  222.3410 N   0  0  0  0  0  0  0  0  0  0  0  0
  139.9380   74.8620  221.7580 C   0  0  0  0  0  0  0  0  0  0  0  0
  139.4230   76.1460  221.6800 C   0  0  0  0  0  0  0  0  0  0  0  0
  140.1370   77.1900  221.0990 C   0  0  0  0  0  0  0  0  0  0  0  0
  141.4000   76.9560  220.5800 C   0  0  0  0  0  0  0  0  0  0  0  0
  142.1570   77.9420  219.9960 O   0  0  0  0  0  0  0  0  0  0  0  0
  141.8400   79.3040  219.9210 C   0  0  0  0  0  0  0  0  0  0  0  0
  141.7440   79.8010  221.3400 C   0  0  0  0  0  0  0  0  0  0  0  0
  142.6400   79.4450  222.3120 C   0  0  0  0  0  0  0  0  0  0  0  0
  142.5250   79.9130  223.6030 C   0  0  0  0  0  0  0  0  0  0  0  0
  141.4520   80.7600  223.8490 C   0  0  0  0  0  0  0  0  0  0  0  0
  140.5630   81.1250  222.9230 N   0  0  0  0  0  0  0  0  0  0  0  0
  140.6880   80.6620  221.6730 C   0  0  0  0  0  0  0  0  0  0  0  0
  141.8850   75.6690  220.6710 C   0  0  0  0  0  0  0  0  0  0  0  0
  141.2060   74.6340  221.2330 C   0  0  0  0  0  0  0  0  0  0  0  0
  140.8744   71.3582  221.1929 H   0  0  0  0  0  0  0  0  0  0  0  0
  141.6023   71.7826  222.7964 H   0  0  0  0  0  0  0  0  0  0  0  0
  136.9888   72.2768  222.2404 H   0  0  0  0  0  0  0  0  0  0  0  0
  135.6287   70.5192  223.3587 H   0  0  0  0  0  0  0  0  0  0  0  0
  136.7286   68.8599  224.8012 H   0  0  0  0  0  0  0  0  0  0  0  0
  140.4652   71.0582  227.0390 H   0  0  0  0  0  0  0  0  0  0  0  0
  139.1703   70.6012  228.0014 H   0  0  0  0  0  0  0  0  0  0  0  0
  142.1106   69.7595  228.2335 H   0  0  0  0  0  0  0  0  0  0  0  0
  141.0581   69.4949  229.4808 H   0  0  0  0  0  0  0  0  0  0  0  0
  141.5132   67.6656  227.2046 H   0  0  0  0  0  0  0  0  0  0  0  0
  140.1586   67.3995  228.1584 H   0  0  0  0  0  0  0  0  0  0  0  0
  140.5223   70.6606  224.0519 H   0  0  0  0  0  0  0  0  0  0  0  0
  138.4215   76.3459  222.0888 H   0  0  0  0  0  0  0  0  0  0  0  0
  139.6996   78.1982  221.0520 H   0  0  0  0  0  0  0  0  0  0  0  0
  142.6285   79.8482  219.3805 H   0  0  0  0  0  0  0  0  0  0  0  0
  140.8956   79.4628  219.3797 H   0  0  0  0  0  0  0  0  0  0  0  0
  143.4704   78.7702  222.0567 H   0  0  0  0  0  0  0  0  0  0  0  0
  143.2396   79.6328  224.3909 H   0  0  0  0  0  0  0  0  0  0  0  0
  141.3275   81.1537  224.8686 H   0  0  0  0  0  0  0  0  0  0  0  0
  139.9594   80.9581  220.9039 H   0  0  0  0  0  0  0  0  0  0  0  0
  142.8860   75.4663  220.2625 H   0  0  0  0  0  0  0  0  0  0  0  0
  1  2  2  0
  2  3  1  0
  3  4  1  0
  4  5  1  0
  5  6  2  0
  6  7  1  0
  7  8  2  0
  8  9  1  0
  9 10  1  0
 10 11  2  0
 10 12  1  0
 12 13  1  0
 13 14  1  0
 14 15  1  0
  9 16  2  0
  4 17  2  0
 17 18  1  0
 18 19  2  0
 19 20  1  0
 20 21  2  0
 21 22  1  0
 22 23  1  0
 23 24  1  0
 24 25  2  0
 25 26  1  0
 26 27  2  0
 27 28  1  0
 28 29  2  0
 21 30  1  0
 30 31  2  0
 31  2  1  0
 16  5  1  0
 31 18  1  0
 15 12  1  0
 29 24  1  0
  3 32  1  0
  3 33  1  0
  6 34  1  0
  7 35  1  0
  8 36  1  0
 13 37  1  0
 13 38  1  0
 14 39  1  0
 14 40  1  0
 15 41  1  0
 15 42  1  0
 16 43  1  0
 19 44  1  0
 20 45  1  0
 23 46  1  0
 23 47  1  0
 25 48  1  0
 26 49  1  0
 27 50  1  0
 29 51  1  0
 30 52  1  0
M  END
>  <smiles>  (26) 
O=C1CC(c2cccc(C(=O)N3CCC3)c2)=Nc2ccc(OCc3cccnc3)cc21

>  <score_type>  (26) 
oracle

>  <origin>  (26) 
autodockgpu

>  <m_score__min__energy>  (26) 
-8.8699999999999992

>  <m_primary>  (26) 
energy

>  <rmsd>  (26) 
6.3678835570588985

>  <m_score__min__rmsd>  (26) 
6.3678835570588985

>  <meeko>  (26) 
{"free_energy": -8.48, "intermolecular_energy": -9.97, "internal_energy": -1.03, "cluster_size": 37, "cluster_id": 1, "rank_in_cluster": 29}

>  <energy>  (26) 
-8.52

>  <cluster_rmsd>  (26) 
1.46

>  <cluster>  (26) 
1

$$$$

     RDKit          3D

 52 56  0  0  0  0  0  0  0  0999 V2000
  143.8510   72.4330  220.5700 O   0  0  0  0  0  0  0  0  0  0  0  0
  142.9960   73.3360  220.5790 C   0  0  0  0  0  0  0  0  0  0  0  0
  143.2930   74.6140  219.8780 C   0  0  0  0  0  0  0  0  0  0  0  0
  142.1640   75.5760  219.9980 C   0  0  0  0  0  0  0  0  0  0  0  0
  142.3130   76.8860  219.3510 C   0  0  0  0  0  0  0  0  0  0  0  0
  142.7550   76.9910  218.0460 C   0  0  0  0  0  0  0  0  0  0  0  0
  142.8770   78.2370  217.4750 C   0  0  0  0  0  0  0  0  0  0  0  0
  142.5550   79.3570  218.2210 C   0  0  0  0  0  0  0  0  0  0  0  0
  142.1150   79.3040  219.5170 C   0  0  0  0  0  0  0  0  0  0  0  0
  141.7740   80.4550  220.3300 C   0  0  0  0  0  0  0  0  0  0  0  0
  141.1930   81.4120  219.7490 O   0  0  0  0  0  0  0  0  0  0  0  0
  142.0690   80.5330  221.7360 N   0  0  0  0  0  0  0  0  0  0  0  0
  142.6840   79.7440  222.7710 C   0  0  0  0  0  0  0  0  0  0  0  0
  142.1430   80.6610  223.8170 C   0  0  0  0  0  0  0  0  0  0  0  0
  141.7990   81.5740  222.6930 C   0  0  0  0  0  0  0  0  0  0  0  0
  142.0010   78.0190  220.0670 C   0  0  0  0  0  0  0  0  0  0  0  0
  141.0800   75.2940  220.6360 N   0  0  0  0  0  0  0  0  0  0  0  0
  140.7910   74.0920  221.2980 C   0  0  0  0  0  0  0  0  0  0  0  0
  139.6000   73.8520  221.9630 C   0  0  0  0  0  0  0  0  0  0  0  0
  139.3470   72.6430  222.6030 C   0  0  0  0  0  0  0  0  0  0  0  0
  140.3020   71.6400  222.5840 C   0  0  0  0  0  0  0  0  0  0  0  0
  140.1140   70.4240  223.1940 O   0  0  0  0  0  0  0  0  0  0  0  0
  139.1920   70.1310  224.2070 C   0  0  0  0  0  0  0  0  0  0  0  0
  139.8640   70.4750  225.5110 C   0  0  0  0  0  0  0  0  0  0  0  0
  140.6840   71.5610  225.6570 C   0  0  0  0  0  0  0  0  0  0  0  0
  141.2880   71.8500  226.8630 C   0  0  0  0  0  0  0  0  0  0  0  0
  141.0100   70.9750  227.9060 C   0  0  0  0  0  0  0  0  0  0  0  0
  140.2140   69.9100  227.7940 N   0  0  0  0  0  0  0  0  0  0  0  0
  139.6350   69.6430  226.6170 C   0  0  0  0  0  0  0  0  0  0  0  0
  141.4770   71.9090  221.9160 C   0  0  0  0  0  0  0  0  0  0  0  0
  141.7470   73.0820  221.2840 C   0  0  0  0  0  0  0  0  0  0  0  0
  144.1943   75.0634  220.3204 H   0  0  0  0  0  0  0  0  0  0  0  0
  143.4484   74.3950  218.8113 H   0  0  0  0  0  0  0  0  0  0  0  0
  143.0066   76.0883  217.4699 H   0  0  0  0  0  0  0  0  0  0  0  0
  143.2265   78.3415  216.4373 H   0  0  0  0  0  0  0  0  0  0  0  0
  142.6580   80.3443  217.7471 H   0  0  0  0  0  0  0  0  0  0  0  0
  142.2990   78.7157  222.8366 H   0  0  0  0  0  0  0  0  0  0  0  0
  143.7620   79.5287  222.7319 H   0  0  0  0  0  0  0  0  0  0  0  0
  141.2812   80.2692  224.3772 H   0  0  0  0  0  0  0  0  0  0  0  0
  142.7389   80.9874  224.6821 H   0  0  0  0  0  0  0  0  0  0  0  0
  140.7527   81.9135  222.6989 H   0  0  0  0  0  0  0  0  0  0  0  0
  142.3033   82.5474  222.6023 H   0  0  0  0  0  0  0  0  0  0  0  0
  141.6508   77.9133  221.1044 H   0  0  0  0  0  0  0  0  0  0  0  0
  138.8325   74.6396  221.9857 H   0  0  0  0  0  0  0  0  0  0  0  0
  138.3908   72.4840  223.1229 H   0  0  0  0  0  0  0  0  0  0  0  0
  138.2815   70.7346  224.0781 H   0  0  0  0  0  0  0  0  0  0  0  0
  138.8952   69.0721  224.1801 H   0  0  0  0  0  0  0  0  0  0  0  0
  140.8654   72.2179  224.7935 H   0  0  0  0  0  0  0  0  0  0  0  0
  141.9491   72.7198  226.9912 H   0  0  0  0  0  0  0  0  0  0  0  0
  141.4744   71.1723  228.8835 H   0  0  0  0  0  0  0  0  0  0  0  0
  138.9768   68.7674  226.5166 H   0  0  0  0  0  0  0  0  0  0  0  0
  142.2466   71.1234  221.8927 H   0  0  0  0  0  0  0  0  0  0  0  0
  1  2  2  0
  2  3  1  0
  3  4  1  0
  4  5  1  0
  5  6  2  0
  6  7  1  0
  7  8  2  0
  8  9  1  0
  9 10  1  0
 10 11  2  0
 10 12  1  0
 12 13  1  0
 13 14  1  0
 14 15  1  0
  9 16  2  0
  4 17  2  0
 17 18  1  0
 18 19  2  0
 19 20  1  0
 20 21  2  0
 21 22  1  0
 22 23  1  0
 23 24  1  0
 24 25  2  0
 25 26  1  0
 26 27  2  0
 27 28  1  0
 28 29  2  0
 21 30  1  0
 30 31  2  0
 31  2  1  0
 16  5  1  0
 31 18  1  0
 15 12  1  0
 29 24  1  0
  3 32  1  0
  3 33  1  0
  6 34  1  0
  7 35  1  0
  8 36  1  0
 13 37  1  0
 13 38  1  0
 14 39  1  0
 14 40  1  0
 15 41  1  0
 15 42  1  0
 16 43  1  0
 19 44  1  0
 20 45  1  0
 23 46  1  0
 23 47  1  0
 25 48  1  0
 26 49  1  0
 27 50  1  0
 29 51  1  0
 30 52  1  0
M  END
>  <smiles>  (27) 
O=C1CC(c2cccc(C(=O)N3CCC3)c2)=Nc2ccc(OCc3cccnc3)cc21

>  <score_type>  (27) 
oracle

>  <origin>  (27) 
autodockgpu

>  <m_score__min__energy>  (27) 
-8.8699999999999992

>  <m_primary>  (27) 
energy

>  <rmsd>  (27) 
8.520941641560782

>  <m_score__min__rmsd>  (27) 
8.520941641560782

>  <meeko>  (27) 
{"free_energy": -8.26, "intermolecular_energy": -9.75, "internal_energy": -0.99, "cluster_size": 6, "cluster_id": 3, "rank_in_cluster": 2}

>  <energy>  (27) 
-8.49

>  <cluster_rmsd>  (27) 
1.19

>  <cluster>  (27) 
1

$$$$

     RDKit          3D

 52 56  0  0  0  0  0  0  0  0999 V2000
  141.5020   74.3330  218.5850 O   0  0  0  0  0  0  0  0  0  0  0  0
  141.0800   74.3220  219.7550 C   0  0  0  0  0  0  0  0  0  0  0  0
  140.8460   73.0120  220.4210 C   0  0  0  0  0  0  0  0  0  0  0  0
  140.3390   73.1900  221.8080 C   0  0  0  0  0  0  0  0  0  0  0  0
  140.0620   71.9800  222.5930 C   0  0  0  0  0  0  0  0  0  0  0  0
  139.4800   70.8700  222.0100 C   0  0  0  0  0  0  0  0  0  0  0  0
  139.2410   69.7530  222.7800 C   0  0  0  0  0  0  0  0  0  0  0  0
  139.5900   69.7680  224.1180 C   0  0  0  0  0  0  0  0  0  0  0  0
  140.1670   70.8430  224.7400 C   0  0  0  0  0  0  0  0  0  0  0  0
  140.5380   70.8970  226.1410 C   0  0  0  0  0  0  0  0  0  0  0  0
  140.7220   72.0430  226.6380 O   0  0  0  0  0  0  0  0  0  0  0  0
  140.6960   69.7220  226.9550 N   0  0  0  0  0  0  0  0  0  0  0  0
  140.6030   68.2900  226.8380 C   0  0  0  0  0  0  0  0  0  0  0  0
  140.6530   68.1480  228.3230 C   0  0  0  0  0  0  0  0  0  0  0  0
  141.0420   69.5840  228.3440 C   0  0  0  0  0  0  0  0  0  0  0  0
  140.3960   71.9630  223.9270 C   0  0  0  0  0  0  0  0  0  0  0  0
  140.1430   74.3520  222.3290 N   0  0  0  0  0  0  0  0  0  0  0  0
  140.3630   75.5910  221.7100 C   0  0  0  0  0  0  0  0  0  0  0  0
  140.1360   76.8080  222.3310 C   0  0  0  0  0  0  0  0  0  0  0  0
  140.3730   78.0180  221.6850 C   0  0  0  0  0  0  0  0  0  0  0  0
  140.8480   78.0230  220.3840 C   0  0  0  0  0  0  0  0  0  0  0  0
  141.1040   79.1810  219.6920 O   0  0  0  0  0  0  0  0  0  0  0  0
  142.1480   80.0840  219.9310 C   0  0  0  0  0  0  0  0  0  0  0  0
  142.0510   80.4770  221.3820 C   0  0  0  0  0  0  0  0  0  0  0  0
  142.9410   80.0430  222.3280 C   0  0  0  0  0  0  0  0  0  0  0  0
  142.8250   80.4170  223.6500 C   0  0  0  0  0  0  0  0  0  0  0  0
  141.7590   81.2540  223.9530 C   0  0  0  0  0  0  0  0  0  0  0  0
  140.8770   81.6940  223.0530 N   0  0  0  0  0  0  0  0  0  0  0  0
  141.0020   81.3220  221.7740 C   0  0  0  0  0  0  0  0  0  0  0  0
  141.0620   76.7970  219.7920 C   0  0  0  0  0  0  0  0  0  0  0  0
  140.8390   75.6030  220.4030 C   0  0  0  0  0  0  0  0  0  0  0  0
  140.1057   72.4425  219.8399 H   0  0  0  0  0  0  0  0  0  0  0  0
  141.8036   72.4729  220.4695 H   0  0  0  0  0  0  0  0  0  0  0  0
  139.2108   70.8785  220.9435 H   0  0  0  0  0  0  0  0  0  0  0  0
  138.7780   68.8596  222.3357 H   0  0  0  0  0  0  0  0  0  0  0  0
  139.3931   68.8661  224.7161 H   0  0  0  0  0  0  0  0  0  0  0  0
  139.6629   67.9390  226.3873 H   0  0  0  0  0  0  0  0  0  0  0  0
  141.3183   67.7412  226.2078 H   0  0  0  0  0  0  0  0  0  0  0  0
  139.6883   67.9213  228.8005 H   0  0  0  0  0  0  0  0  0  0  0  0
  141.2460   67.3677  228.8225 H   0  0  0  0  0  0  0  0  0  0  0  0
  140.4307   70.2013  229.0188 H   0  0  0  0  0  0  0  0  0  0  0  0
  142.0441   69.8758  228.6913 H   0  0  0  0  0  0  0  0  0  0  0  0
  140.8579   72.8571  224.3711 H   0  0  0  0  0  0  0  0  0  0  0  0
  139.7577   76.8187  223.3639 H   0  0  0  0  0  0  0  0  0  0  0  0
  140.1835   78.9678  222.2065 H   0  0  0  0  0  0  0  0  0  0  0  0
  143.1178   79.6049  219.7312 H   0  0  0  0  0  0  0  0  0  0  0  0
  142.0707   80.9636  219.2750 H   0  0  0  0  0  0  0  0  0  0  0  0
  143.7665   79.3815  222.0266 H   0  0  0  0  0  0  0  0  0  0  0  0
  143.5336   80.0734  224.4179 H   0  0  0  0  0  0  0  0  0  0  0  0
  141.6340   81.5737  224.9981 H   0  0  0  0  0  0  0  0  0  0  0  0
  140.2790   81.6803  221.0264 H   0  0  0  0  0  0  0  0  0  0  0  0
  141.4375   76.7836  218.7582 H   0  0  0  0  0  0  0  0  0  0  0  0
  1  2  2  0
  2  3  1  0
  3  4  1  0
  4  5  1  0
  5  6  2  0
  6  7  1  0
  7  8  2  0
  8  9  1  0
  9 10  1  0
 10 11  2  0
 10 12  1  0
 12 13  1  0
 13 14  1  0
 14 15  1  0
  9 16  2  0
  4 17  2  0
 17 18  1  0
 18 19  2  0
 19 20  1  0
 20 21  2  0
 21 22  1  0
 22 23  1  0
 23 24  1  0
 24 25  2  0
 25 26  1  0
 26 27  2  0
 27 28  1  0
 28 29  2  0
 21 30  1  0
 30 31  2  0
 31  2  1  0
 16  5  1  0
 31 18  1  0
 15 12  1  0
 29 24  1  0
  3 32  1  0
  3 33  1  0
  6 34  1  0
  7 35  1  0
  8 36  1  0
 13 37  1  0
 13 38  1  0
 14 39  1  0
 14 40  1  0
 15 41  1  0
 15 42  1  0
 16 43  1  0
 19 44  1  0
 20 45  1  0
 23 46  1  0
 23 47  1  0
 25 48  1  0
 26 49  1  0
 27 50  1  0
 29 51  1  0
 30 52  1  0
M  END
>  <smiles>  (28) 
O=C1CC(c2cccc(C(=O)N3CCC3)c2)=Nc2ccc(OCc3cccnc3)cc21

>  <score_type>  (28) 
oracle

>  <origin>  (28) 
autodockgpu

>  <m_score__min__energy>  (28) 
-8.8699999999999992

>  <m_primary>  (28) 
energy

>  <rmsd>  (28) 
7.386659968767486

>  <m_score__min__rmsd>  (28) 
7.386659968767486

>  <meeko>  (28) 
{"free_energy": -8.52, "intermolecular_energy": -10.01, "internal_energy": -0.93, "cluster_size": 37, "cluster_id": 1, "rank_in_cluster": 26}

>  <energy>  (28) 
-8.48

>  <cluster_rmsd>  (28) 
1.42

>  <cluster>  (28) 
1

$$$$

     RDKit          3D

 52 56  0  0  0  0  0  0  0  0999 V2000
  135.9170   74.7350  221.9370 O   0  0  0  0  0  0  0  0  0  0  0  0
  137.0140   74.1580  222.0350 C   0  0  0  0  0  0  0  0  0  0  0  0
  137.0340   72.6960  222.3080 C   0  0  0  0  0  0  0  0  0  0  0  0
  138.4260   72.1780  222.3980 C   0  0  0  0  0  0  0  0  0  0  0  0
  138.6040   70.7440  222.6640 C   0  0  0  0  0  0  0  0  0  0  0  0
  138.4770   69.8100  221.6530 C   0  0  0  0  0  0  0  0  0  0  0  0
  138.6560   68.4770  221.9430 C   0  0  0  0  0  0  0  0  0  0  0  0
  138.9580   68.1010  223.2390 C   0  0  0  0  0  0  0  0  0  0  0  0
  139.0930   68.9880  224.2740 C   0  0  0  0  0  0  0  0  0  0  0  0
  139.4020   68.6320  225.6450 C   0  0  0  0  0  0  0  0  0  0  0  0
  139.1780   67.4380  225.9880 O   0  0  0  0  0  0  0  0  0  0  0  0
  139.9420   69.5680  226.5950 N   0  0  0  0  0  0  0  0  0  0  0  0
  140.3350   70.9510  226.6650 C   0  0  0  0  0  0  0  0  0  0  0  0
  141.0070   70.7110  227.9760 C   0  0  0  0  0  0  0  0  0  0  0  0
  140.3170   69.3930  227.9730 C   0  0  0  0  0  0  0  0  0  0  0  0
  138.9040   70.3390  223.9440 C   0  0  0  0  0  0  0  0  0  0  0  0
  139.4570   72.9360  222.2490 N   0  0  0  0  0  0  0  0  0  0  0  0
  139.4470   74.3140  221.9890 C   0  0  0  0  0  0  0  0  0  0  0  0
  140.5970   75.0710  221.8330 C   0  0  0  0  0  0  0  0  0  0  0  0
  140.5470   76.4360  221.5690 C   0  0  0  0  0  0  0  0  0  0  0  0
  139.3210   77.0720  221.4560 C   0  0  0  0  0  0  0  0  0  0  0  0
  139.2020   78.4150  221.1950 O   0  0  0  0  0  0  0  0  0  0  0  0
  138.9920   79.4330  222.1350 C   0  0  0  0  0  0  0  0  0  0  0  0
  140.3430   79.7810  222.7000 C   0  0  0  0  0  0  0  0  0  0  0  0
  140.9450   79.0470  223.6870 C   0  0  0  0  0  0  0  0  0  0  0  0
  142.1820   79.3920  224.1880 C   0  0  0  0  0  0  0  0  0  0  0  0
  142.7710   80.5200  223.6300 C   0  0  0  0  0  0  0  0  0  0  0  0
  142.2100   81.2550  222.6670 N   0  0  0  0  0  0  0  0  0  0  0  0
  141.0080   80.9070  222.1910 C   0  0  0  0  0  0  0  0  0  0  0  0
  138.1960   76.2920  221.6180 C   0  0  0  0  0  0  0  0  0  0  0  0
  138.2200   74.9580  221.8760 C   0  0  0  0  0  0  0  0  0  0  0  0
  136.5183   72.5029  223.2603 H   0  0  0  0  0  0  0  0  0  0  0  0
  136.5272   72.1825  221.4777 H   0  0  0  0  0  0  0  0  0  0  0  0
  138.2356   70.1288  220.6283 H   0  0  0  0  0  0  0  0  0  0  0  0
  138.5599   67.7184  221.1523 H   0  0  0  0  0  0  0  0  0  0  0  0
  139.0975   67.0306  223.4504 H   0  0  0  0  0  0  0  0  0  0  0  0
  141.0200   71.2618  225.8624 H   0  0  0  0  0  0  0  0  0  0  0  0
  139.5788   71.7442  226.5704 H   0  0  0  0  0  0  0  0  0  0  0  0
  142.1050   70.6602  227.9323 H   0  0  0  0  0  0  0  0  0  0  0  0
  140.9301   71.4160  228.8169 H   0  0  0  0  0  0  0  0  0  0  0  0
  140.9874   68.5385  228.1474 H   0  0  0  0  0  0  0  0  0  0  0  0
  139.5474   69.1744  228.7280 H   0  0  0  0  0  0  0  0  0  0  0  0
  138.9988   71.0983  224.7342 H   0  0  0  0  0  0  0  0  0  0  0  0
  141.5769   74.5789  221.9203 H   0  0  0  0  0  0  0  0  0  0  0  0
  141.4784   77.0091  221.4503 H   0  0  0  0  0  0  0  0  0  0  0  0
  138.5458   80.3129  221.6484 H   0  0  0  0  0  0  0  0  0  0  0  0
  138.3027   79.1057  222.9273 H   0  0  0  0  0  0  0  0  0  0  0  0
  140.4299   78.1622  224.0891 H   0  0  0  0  0  0  0  0  0  0  0  0
  142.6731   78.8096  224.9815 H   0  0  0  0  0  0  0  0  0  0  0  0
  143.7591   80.8258  224.0043 H   0  0  0  0  0  0  0  0  0  0  0  0
  140.5393   81.5068  221.3969 H   0  0  0  0  0  0  0  0  0  0  0  0
  137.2146   76.7815  221.5328 H   0  0  0  0  0  0  0  0  0  0  0  0
  1  2  2  0
  2  3  1  0
  3  4  1  0
  4  5  1  0
  5  6  2  0
  6  7  1  0
  7  8  2  0
  8  9  1  0
  9 10  1  0
 10 11  2  0
 10 12  1  0
 12 13  1  0
 13 14  1  0
 14 15  1  0
  9 16  2  0
  4 17  2  0
 17 18  1  0
 18 19  2  0
 19 20  1  0
 20 21  2  0
 21 22  1  0
 22 23  1  0
 23 24  1  0
 24 25  2  0
 25 26  1  0
 26 27  2  0
 27 28  1  0
 28 29  2  0
 21 30  1  0
 30 31  2  0
 31  2  1  0
 16  5  1  0
 31 18  1  0
 15 12  1  0
 29 24  1  0
  3 32  1  0
  3 33  1  0
  6 34  1  0
  7 35  1  0
  8 36  1  0
 13 37  1  0
 13 38  1  0
 14 39  1  0
 14 40  1  0
 15 41  1  0
 15 42  1  0
 16 43  1  0
 19 44  1  0
 20 45  1  0
 23 46  1  0
 23 47  1  0
 25 48  1  0
 26 49  1  0
 27 50  1  0
 29 51  1  0
 30 52  1  0
M  END
>  <smiles>  (29) 
O=C1CC(c2cccc(C(=O)N3CCC3)c2)=Nc2ccc(OCc3cccnc3)cc21

>  <score_type>  (29) 
oracle

>  <origin>  (29) 
autodockgpu

>  <m_score__min__energy>  (29) 
-8.8699999999999992

>  <m_primary>  (29) 
energy

>  <rmsd>  (29) 
6.184352217034117

>  <m_score__min__rmsd>  (29) 
6.184352217034117

>  <meeko>  (29) 
{"free_energy": -7.99, "intermolecular_energy": -9.48, "internal_energy": -1.02, "cluster_size": 1, "cluster_id": 6, "rank_in_cluster": 1}

>  <energy>  (29) 
-8.48

>  <cluster_rmsd>  (29) 
0.51

>  <cluster>  (29) 
1

$$$$

     RDKit          3D

 52 56  0  0  0  0  0  0  0  0999 V2000
  142.8470   74.4210  220.3690 O   0  0  0  0  0  0  0  0  0  0  0  0
  141.8050   74.1620  220.9960 C   0  0  0  0  0  0  0  0  0  0  0  0
  141.5660   72.7640  221.4460 C   0  0  0  0  0  0  0  0  0  0  0  0
  140.2740   72.6390  222.1730 C   0  0  0  0  0  0  0  0  0  0  0  0
  139.9030   71.3120  222.6790 C   0  0  0  0  0  0  0  0  0  0  0  0
  139.5150   70.3030  221.8180 C   0  0  0  0  0  0  0  0  0  0  0  0
  139.1790   69.0710  222.3330 C   0  0  0  0  0  0  0  0  0  0  0  0
  139.2370   68.8710  223.7000 C   0  0  0  0  0  0  0  0  0  0  0  0
  139.6140   69.8390  224.5930 C   0  0  0  0  0  0  0  0  0  0  0  0
  139.6800   69.6690  226.0310 C   0  0  0  0  0  0  0  0  0  0  0  0
  139.1640   68.6200  226.5060 O   0  0  0  0  0  0  0  0  0  0  0  0
  140.3000   70.6280  226.9060 N   0  0  0  0  0  0  0  0  0  0  0  0
  140.9760   71.8980  226.8330 C   0  0  0  0  0  0  0  0  0  0  0  0
  141.4270   71.7580  228.2490 C   0  0  0  0  0  0  0  0  0  0  0  0
  140.4700   70.6220  228.3350 C   0  0  0  0  0  0  0  0  0  0  0  0
  139.9500   71.0820  224.0350 C   0  0  0  0  0  0  0  0  0  0  0  0
  139.4910   73.6440  222.3680 N   0  0  0  0  0  0  0  0  0  0  0  0
  139.7090   74.9640  221.9490 C   0  0  0  0  0  0  0  0  0  0  0  0
  138.8250   76.0010  222.1980 C   0  0  0  0  0  0  0  0  0  0  0  0
  139.0800   77.3020  221.7730 C   0  0  0  0  0  0  0  0  0  0  0  0
  140.2450   77.5840  221.0790 C   0  0  0  0  0  0  0  0  0  0  0  0
  140.5570   78.8450  220.6330 O   0  0  0  0  0  0  0  0  0  0  0  0
  141.8310   79.4260  220.5960 C   0  0  0  0  0  0  0  0  0  0  0  0
  142.0230   80.1220  221.9180 C   0  0  0  0  0  0  0  0  0  0  0  0
  143.1370   79.9440  222.6940 C   0  0  0  0  0  0  0  0  0  0  0  0
  143.2840   80.5920  223.9020 C   0  0  0  0  0  0  0  0  0  0  0  0
  142.2390   81.4280  224.2740 C   0  0  0  0  0  0  0  0  0  0  0  0
  141.1420   81.6230  223.5380 N   0  0  0  0  0  0  0  0  0  0  0  0
  141.0140   80.9870  222.3680 C   0  0  0  0  0  0  0  0  0  0  0  0
  141.1040   76.5310  220.8450 C   0  0  0  0  0  0  0  0  0  0  0  0
  140.8760   75.2540  221.2510 C   0  0  0  0  0  0  0  0  0  0  0  0
  141.5466   72.1037  220.5665 H   0  0  0  0  0  0  0  0  0  0  0  0
  142.3772   72.4786  222.1319 H   0  0  0  0  0  0  0  0  0  0  0  0
  139.4750   70.4821  220.7334 H   0  0  0  0  0  0  0  0  0  0  0  0
  138.8679   68.2549  221.6643 H   0  0  0  0  0  0  0  0  0  0  0  0
  138.9654   67.8798  224.0921 H   0  0  0  0  0  0  0  0  0  0  0  0
  141.7984   71.9249  226.1029 H   0  0  0  0  0  0  0  0  0  0  0  0
  140.4272   72.7970  226.5157 H   0  0  0  0  0  0  0  0  0  0  0  0
  142.4850   71.4840  228.3741 H   0  0  0  0  0  0  0  0  0  0  0  0
  141.4120   72.5978  228.9593 H   0  0  0  0  0  0  0  0  0  0  0  0
  140.9132   69.6947  228.7271 H   0  0  0  0  0  0  0  0  0  0  0  0
  139.5911   70.6933  228.9926 H   0  0  0  0  0  0  0  0  0  0  0  0
  140.2609   71.8988  224.7030 H   0  0  0  0  0  0  0  0  0  0  0  0
  137.8953   75.7906  222.7470 H   0  0  0  0  0  0  0  0  0  0  0  0
  138.3582   78.1038  221.9878 H   0  0  0  0  0  0  0  0  0  0  0  0
  142.5986   78.6499  220.4602 H   0  0  0  0  0  0  0  0  0  0  0  0
  141.9214   80.1327  219.7579 H   0  0  0  0  0  0  0  0  0  0  0  0
  143.9325   79.2688  222.3458 H   0  0  0  0  0  0  0  0  0  0  0  0
  144.1747   80.4553  224.5328 H   0  0  0  0  0  0  0  0  0  0  0  0
  142.3200   81.9615  225.2325 H   0  0  0  0  0  0  0  0  0  0  0  0
  140.1135   81.1429  221.7559 H   0  0  0  0  0  0  0  0  0  0  0  0
  142.0335   76.7377  220.2944 H   0  0  0  0  0  0  0  0  0  0  0  0
  1  2  2  0
  2  3  1  0
  3  4  1  0
  4  5  1  0
  5  6  2  0
  6  7  1  0
  7  8  2  0
  8  9  1  0
  9 10  1  0
 10 11  2  0
 10 12  1  0
 12 13  1  0
 13 14  1  0
 14 15  1  0
  9 16  2  0
  4 17  2  0
 17 18  1  0
 18 19  2  0
 19 20  1  0
 20 21  2  0
 21 22  1  0
 22 23  1  0
 23 24  1  0
 24 25  2  0
 25 26  1  0
 26 27  2  0
 27 28  1  0
 28 29  2  0
 21 30  1  0
 30 31  2  0
 31  2  1  0
 16  5  1  0
 31 18  1  0
 15 12  1  0
 29 24  1  0
  3 32  1  0
  3 33  1  0
  6 34  1  0
  7 35  1  0
  8 36  1  0
 13 37  1  0
 13 38  1  0
 14 39  1  0
 14 40  1  0
 15 41  1  0
 15 42  1  0
 16 43  1  0
 19 44  1  0
 20 45  1  0
 23 46  1  0
 23 47  1  0
 25 48  1  0
 26 49  1  0
 27 50  1  0
 29 51  1  0
 30 52  1  0
M  END
>  <smiles>  (30) 
O=C1CC(c2cccc(C(=O)N3CCC3)c2)=Nc2ccc(OCc3cccnc3)cc21

>  <score_type>  (30) 
oracle

>  <origin>  (30) 
autodockgpu

>  <m_score__min__energy>  (30) 
-8.8699999999999992

>  <m_primary>  (30) 
energy

>  <rmsd>  (30) 
6.407516923874492

>  <m_score__min__rmsd>  (30) 
6.407516923874492

>  <meeko>  (30) 
{"free_energy": -8.59, "intermolecular_energy": -10.08, "internal_energy": -0.99, "cluster_size": 37, "cluster_id": 1, "rank_in_cluster": 15}

>  <energy>  (30) 
-8.46

>  <cluster_rmsd>  (30) 
1.46

>  <cluster>  (30) 
1

$$$$

     RDKit          3D

 52 56  0  0  0  0  0  0  0  0999 V2000
  140.1230   74.7110  222.2930 O   0  0  0  0  0  0  0  0  0  0  0  0
  140.7480   75.6360  221.7440 C   0  0  0  0  0  0  0  0  0  0  0  0
  140.6610   77.0040  222.3220 C   0  0  0  0  0  0  0  0  0  0  0  0
  141.4630   77.9790  221.5360 C   0  0  0  0  0  0  0  0  0  0  0  0
  141.4740   79.3760  221.9890 C   0  0  0  0  0  0  0  0  0  0  0  0
  141.6240   79.6900  223.3270 C   0  0  0  0  0  0  0  0  0  0  0  0
  141.6330   81.0120  223.7100 C   0  0  0  0  0  0  0  0  0  0  0  0
  141.4920   81.9960  222.7490 C   0  0  0  0  0  0  0  0  0  0  0  0
  141.3390   81.7350  221.4130 C   0  0  0  0  0  0  0  0  0  0  0  0
  141.1820   82.7380  220.3780 C   0  0  0  0  0  0  0  0  0  0  0  0
  140.6280   83.8210  220.7140 O   0  0  0  0  0  0  0  0  0  0  0  0
  141.6270   82.5430  219.0240 N   0  0  0  0  0  0  0  0  0  0  0  0
  142.2680   81.5370  218.2180 C   0  0  0  0  0  0  0  0  0  0  0  0
  142.4930   82.5300  217.1260 C   0  0  0  0  0  0  0  0  0  0  0  0
  141.5680   83.4180  217.8830 C   0  0  0  0  0  0  0  0  0  0  0  0
  141.3350   80.3780  221.0570 C   0  0  0  0  0  0  0  0  0  0  0  0
  142.1380   77.6370  220.4920 N   0  0  0  0  0  0  0  0  0  0  0  0
  142.2280   76.3510  219.9420 C   0  0  0  0  0  0  0  0  0  0  0  0
  142.9780   76.0500  218.8180 C   0  0  0  0  0  0  0  0  0  0  0  0
  143.0480   74.7580  218.3050 C   0  0  0  0  0  0  0  0  0  0  0  0
  142.3530   73.7320  218.9250 C   0  0  0  0  0  0  0  0  0  0  0  0
  142.3820   72.4370  218.4710 O   0  0  0  0  0  0  0  0  0  0  0  0
  143.3860   71.4890  218.7120 C   0  0  0  0  0  0  0  0  0  0  0  0
  144.4760   72.2010  219.4690 C   0  0  0  0  0  0  0  0  0  0  0  0
  144.4520   72.3600  220.8290 C   0  0  0  0  0  0  0  0  0  0  0  0
  145.4630   73.0200  221.4940 C   0  0  0  0  0  0  0  0  0  0  0  0
  146.4950   73.5060  220.7020 C   0  0  0  0  0  0  0  0  0  0  0  0
  146.5460   73.3660  219.3750 N   0  0  0  0  0  0  0  0  0  0  0  0
  145.5570   72.7230  218.7430 C   0  0  0  0  0  0  0  0  0  0  0  0
  141.6150   74.0630  220.0410 C   0  0  0  0  0  0  0  0  0  0  0  0
  141.5320   75.3170  220.5590 C   0  0  0  0  0  0  0  0  0  0  0  0
  139.6090   77.3253  222.3236 H   0  0  0  0  0  0  0  0  0  0  0  0
  141.0620   76.9726  223.3458 H   0  0  0  0  0  0  0  0  0  0  0  0
  141.7348   78.8927  224.0767 H   0  0  0  0  0  0  0  0  0  0  0  0
  141.7511   81.2828  224.7696 H   0  0  0  0  0  0  0  0  0  0  0  0
  141.5033   83.0464  223.0753 H   0  0  0  0  0  0  0  0  0  0  0  0
  143.1946   81.1376  218.6561 H   0  0  0  0  0  0  0  0  0  0  0  0
  141.7500   80.5906  218.0036 H   0  0  0  0  0  0  0  0  0  0  0  0
  143.5254   82.8999  217.0403 H   0  0  0  0  0  0  0  0  0  0  0  0
  142.3408   82.2855  216.0644 H   0  0  0  0  0  0  0  0  0  0  0  0
  141.9707   84.4241  218.0716 H   0  0  0  0  0  0  0  0  0  0  0  0
  140.5942   83.6924  217.4512 H   0  0  0  0  0  0  0  0  0  0  0  0
  141.2168   80.1064  219.9976 H   0  0  0  0  0  0  0  0  0  0  0  0
  143.5346   76.8550  218.3159 H   0  0  0  0  0  0  0  0  0  0  0  0
  143.6533   74.5520  217.4099 H   0  0  0  0  0  0  0  0  0  0  0  0
  142.9873   70.6579  219.3123 H   0  0  0  0  0  0  0  0  0  0  0  0
  143.7672   71.0663  217.7707 H   0  0  0  0  0  0  0  0  0  0  0  0
  143.6072   71.9520  221.4034 H   0  0  0  0  0  0  0  0  0  0  0  0
  145.4530   73.1536  222.5858 H   0  0  0  0  0  0  0  0  0  0  0  0
  147.3202   74.0384  221.1976 H   0  0  0  0  0  0  0  0  0  0  0  0
  145.5918   72.6033  217.6501 H   0  0  0  0  0  0  0  0  0  0  0  0
  141.0570   73.2603  220.5452 H   0  0  0  0  0  0  0  0  0  0  0  0
  1  2  2  0
  2  3  1  0
  3  4  1  0
  4  5  1  0
  5  6  2  0
  6  7  1  0
  7  8  2  0
  8  9  1  0
  9 10  1  0
 10 11  2  0
 10 12  1  0
 12 13  1  0
 13 14  1  0
 14 15  1  0
  9 16  2  0
  4 17  2  0
 17 18  1  0
 18 19  2  0
 19 20  1  0
 20 21  2  0
 21 22  1  0
 22 23  1  0
 23 24  1  0
 24 25  2  0
 25 26  1  0
 26 27  2  0
 27 28  1  0
 28 29  2  0
 21 30  1  0
 30 31  2  0
 31  2  1  0
 16  5  1  0
 31 18  1  0
 15 12  1  0
 29 24  1  0
  3 32  1  0
  3 33  1  0
  6 34  1  0
  7 35  1  0
  8 36  1  0
 13 37  1  0
 13 38  1  0
 14 39  1  0
 14 40  1  0
 15 41  1  0
 15 42  1  0
 16 43  1  0
 19 44  1  0
 20 45  1  0
 23 46  1  0
 23 47  1  0
 25 48  1  0
 26 49  1  0
 27 50  1  0
 29 51  1  0
 30 52  1  0
M  END
>  <smiles>  (31) 
O=C1CC(c2cccc(C(=O)N3CCC3)c2)=Nc2ccc(OCc3cccnc3)cc21

>  <score_type>  (31) 
oracle

>  <origin>  (31) 
autodockgpu

>  <m_score__min__energy>  (31) 
-8.8699999999999992

>  <m_primary>  (31) 
energy

>  <rmsd>  (31) 
9.973488165535285

>  <m_score__min__rmsd>  (31) 
9.973488165535285

>  <meeko>  (31) 
{"free_energy": -8.0, "intermolecular_energy": -9.49, "internal_energy": -1.26, "cluster_size": 2, "cluster_id": 5, "rank_in_cluster": 1}

>  <energy>  (31) 
-8.45

>  <cluster_rmsd>  (31) 
1.18

>  <cluster>  (31) 
1

$$$$

     RDKit          3D

 52 56  0  0  0  0  0  0  0  0999 V2000
  143.0880   73.8510  219.2910 O   0  0  0  0  0  0  0  0  0  0  0  0
  142.2080   73.7890  220.1680 C   0  0  0  0  0  0  0  0  0  0  0  0
  141.7690   72.4520  220.6510 C   0  0  0  0  0  0  0  0  0  0  0  0
  140.7110   72.5700  221.6900 C   0  0  0  0  0  0  0  0  0  0  0  0
  140.1780   71.3270  222.2640 C   0  0  0  0  0  0  0  0  0  0  0  0
  139.8320   70.2600  221.4560 C   0  0  0  0  0  0  0  0  0  0  0  0
  139.3400   69.1110  222.0330 C   0  0  0  0  0  0  0  0  0  0  0  0
  139.2030   69.0510  223.4080 C   0  0  0  0  0  0  0  0  0  0  0  0
  139.5310   70.0810  224.2490 C   0  0  0  0  0  0  0  0  0  0  0  0
  139.3950   70.0560  225.6920 C   0  0  0  0  0  0  0  0  0  0  0  0
  138.5450   69.2550  226.1710 O   0  0  0  0  0  0  0  0  0  0  0  0
  140.1770   70.8890  226.5670 N   0  0  0  0  0  0  0  0  0  0  0  0
  141.2020   71.8970  226.4900 C   0  0  0  0  0  0  0  0  0  0  0  0
  141.4420   71.7900  227.9590 C   0  0  0  0  0  0  0  0  0  0  0  0
  140.1880   70.9900  228.0020 C   0  0  0  0  0  0  0  0  0  0  0  0
  140.0300   71.2360  223.6280 C   0  0  0  0  0  0  0  0  0  0  0  0
  140.2630   73.7080  222.0950 N   0  0  0  0  0  0  0  0  0  0  0  0
  140.6730   74.9720  221.6480 C   0  0  0  0  0  0  0  0  0  0  0  0
  140.1520   76.1610  222.1310 C   0  0  0  0  0  0  0  0  0  0  0  0
  140.5900   77.3980  221.6670 C   0  0  0  0  0  0  0  0  0  0  0  0
  141.5730   77.4590  220.6930 C   0  0  0  0  0  0  0  0  0  0  0  0
  142.0500   78.6460  220.1940 O   0  0  0  0  0  0  0  0  0  0  0  0
  141.4630   79.9100  220.3390 C   0  0  0  0  0  0  0  0  0  0  0  0
  141.8020   80.3840  221.7280 C   0  0  0  0  0  0  0  0  0  0  0  0
  142.9970   80.1060  222.3350 C   0  0  0  0  0  0  0  0  0  0  0  0
  143.2780   80.5500  223.6090 C   0  0  0  0  0  0  0  0  0  0  0  0
  142.2790   81.2910  224.2280 C   0  0  0  0  0  0  0  0  0  0  0  0
  141.1050   81.5790  223.6620 N   0  0  0  0  0  0  0  0  0  0  0  0
  140.8470   81.1400  222.4240 C   0  0  0  0  0  0  0  0  0  0  0  0
  142.0710   76.2600  220.2310 C   0  0  0  0  0  0  0  0  0  0  0  0
  141.6600   75.0410  220.6700 C   0  0  0  0  0  0  0  0  0  0  0  0
  141.3732   71.8768  219.8010 H   0  0  0  0  0  0  0  0  0  0  0  0
  142.6364   71.9433  221.0969 H   0  0  0  0  0  0  0  0  0  0  0  0
  139.9485   70.3283  220.3643 H   0  0  0  0  0  0  0  0  0  0  0  0
  139.0591   68.2507  221.4078 H   0  0  0  0  0  0  0  0  0  0  0  0
  138.8087   68.1245  223.8507 H   0  0  0  0  0  0  0  0  0  0  0  0
  142.0666   71.6084  225.8742 H   0  0  0  0  0  0  0  0  0  0  0  0
  140.9799   72.8749  226.0380 H   0  0  0  0  0  0  0  0  0  0  0  0
  142.3525   71.2414  228.2419 H   0  0  0  0  0  0  0  0  0  0  0  0
  141.6026   72.6715  228.5971 H   0  0  0  0  0  0  0  0  0  0  0  0
  140.2936   70.0232  228.5160 H   0  0  0  0  0  0  0  0  0  0  0  0
  139.3062   71.3797  228.5316 H   0  0  0  0  0  0  0  0  0  0  0  0
  140.3119   72.0965  224.2525 H   0  0  0  0  0  0  0  0  0  0  0  0
  139.3696   76.1267  222.9035 H   0  0  0  0  0  0  0  0  0  0  0  0
  140.1569   78.3243  222.0725 H   0  0  0  0  0  0  0  0  0  0  0  0
  141.8699   80.6058  219.5905 H   0  0  0  0  0  0  0  0  0  0  0  0
  140.3741   79.8616  220.1906 H   0  0  0  0  0  0  0  0  0  0  0  0
  143.7501   79.5147  221.7936 H   0  0  0  0  0  0  0  0  0  0  0  0
  144.2348   80.3311  224.1055 H   0  0  0  0  0  0  0  0  0  0  0  0
  142.4669   81.6628  225.2461 H   0  0  0  0  0  0  0  0  0  0  0  0
  139.8819   81.3731  221.9504 H   0  0  0  0  0  0  0  0  0  0  0  0
  142.8517   76.2915  219.4568 H   0  0  0  0  0  0  0  0  0  0  0  0
  1  2  2  0
  2  3  1  0
  3  4  1  0
  4  5  1  0
  5  6  2  0
  6  7  1  0
  7  8  2  0
  8  9  1  0
  9 10  1  0
 10 11  2  0
 10 12  1  0
 12 13  1  0
 13 14  1  0
 14 15  1  0
  9 16  2  0
  4 17  2  0
 17 18  1  0
 18 19  2  0
 19 20  1  0
 20 21  2  0
 21 22  1  0
 22 23  1  0
 23 24  1  0
 24 25  2  0
 25 26  1  0
 26 27  2  0
 27 28  1  0
 28 29  2  0
 21 30  1  0
 30 31  2  0
 31  2  1  0
 16  5  1  0
 31 18  1  0
 15 12  1  0
 29 24  1  0
  3 32  1  0
  3 33  1  0
  6 34  1  0
  7 35  1  0
  8 36  1  0
 13 37  1  0
 13 38  1  0
 14 39  1  0
 14 40  1  0
 15 41  1  0
 15 42  1  0
 16 43  1  0
 19 44  1  0
 20 45  1  0
 23 46  1  0
 23 47  1  0
 25 48  1  0
 26 49  1  0
 27 50  1  0
 29 51  1  0
 30 52  1  0
M  END
>  <smiles>  (32) 
O=C1CC(c2cccc(C(=O)N3CCC3)c2)=Nc2ccc(OCc3cccnc3)cc21

>  <score_type>  (32) 
oracle

>  <origin>  (32) 
autodockgpu

>  <m_score__min__energy>  (32) 
-8.8699999999999992

>  <m_primary>  (32) 
energy

>  <rmsd>  (32) 
6.53884045620426

>  <m_score__min__rmsd>  (32) 
6.53884045620426

>  <meeko>  (32) 
{"free_energy": -8.49, "intermolecular_energy": -9.99, "internal_energy": -1.01, "cluster_size": 37, "cluster_id": 1, "rank_in_cluster": 27}

>  <energy>  (32) 
-8.45

>  <cluster_rmsd>  (32) 
0.67

>  <cluster>  (32) 
1

$$$$

     RDKit          3D

 52 56  0  0  0  0  0  0  0  0999 V2000
  143.0910   73.1400  220.1590 O   0  0  0  0  0  0  0  0  0  0  0  0
  142.0350   73.1320  220.8160 C   0  0  0  0  0  0  0  0  0  0  0  0
  141.4730   71.8270  221.2570 C   0  0  0  0  0  0  0  0  0  0  0  0
  140.2100   72.0080  222.0220 C   0  0  0  0  0  0  0  0  0  0  0  0
  139.5390   70.8030  222.5260 C   0  0  0  0  0  0  0  0  0  0  0  0
  138.6920   70.0680  221.7170 C   0  0  0  0  0  0  0  0  0  0  0  0
  138.0860   68.9420  222.2260 C   0  0  0  0  0  0  0  0  0  0  0  0
  138.3380   68.5710  223.5340 C   0  0  0  0  0  0  0  0  0  0  0  0
  139.1680   69.2660  224.3740 C   0  0  0  0  0  0  0  0  0  0  0  0
  139.4500   68.9120  225.7510 C   0  0  0  0  0  0  0  0  0  0  0  0
  139.1980   67.7250  226.0980 O   0  0  0  0  0  0  0  0  0  0  0  0
  139.9950   69.8430  226.7030 N   0  0  0  0  0  0  0  0  0  0  0  0
  140.4140   71.2190  226.7700 C   0  0  0  0  0  0  0  0  0  0  0  0
  141.0630   70.9740  228.0920 C   0  0  0  0  0  0  0  0  0  0  0  0
  140.3470   69.6690  228.0870 C   0  0  0  0  0  0  0  0  0  0  0  0
  139.7690   70.4080  223.8230 C   0  0  0  0  0  0  0  0  0  0  0  0
  139.7030   73.1700  222.2530 N   0  0  0  0  0  0  0  0  0  0  0  0
  140.2260   74.4040  221.8430 C   0  0  0  0  0  0  0  0  0  0  0  0
  139.6310   75.6220  222.1320 C   0  0  0  0  0  0  0  0  0  0  0  0
  140.1850   76.8280  221.7130 C   0  0  0  0  0  0  0  0  0  0  0  0
  141.3640   76.8290  220.9860 C   0  0  0  0  0  0  0  0  0  0  0  0
  141.9630   77.9830  220.5440 O   0  0  0  0  0  0  0  0  0  0  0  0
  141.3620   79.2440  220.4280 C   0  0  0  0  0  0  0  0  0  0  0  0
  141.7160   80.0050  221.6780 C   0  0  0  0  0  0  0  0  0  0  0  0
  141.4290   81.3340  221.8420 C   0  0  0  0  0  0  0  0  0  0  0  0
  141.7680   82.0050  222.9980 C   0  0  0  0  0  0  0  0  0  0  0  0
  142.4110   81.2520  223.9720 C   0  0  0  0  0  0  0  0  0  0  0  0
  142.7030   79.9560  223.8410 N   0  0  0  0  0  0  0  0  0  0  0  0
  142.3670   79.3180  222.7130 C   0  0  0  0  0  0  0  0  0  0  0  0
  141.9310   75.6030  220.7140 C   0  0  0  0  0  0  0  0  0  0  0  0
  141.4090   74.4130  221.1120 C   0  0  0  0  0  0  0  0  0  0  0  0
  141.2686   71.2081  220.3709 H   0  0  0  0  0  0  0  0  0  0  0  0
  142.2078   71.3392  221.9143 H   0  0  0  0  0  0  0  0  0  0  0  0
  138.5048   70.3796  220.6788 H   0  0  0  0  0  0  0  0  0  0  0  0
  137.4085   68.3437  221.5991 H   0  0  0  0  0  0  0  0  0  0  0  0
  137.8446   67.6676  223.9218 H   0  0  0  0  0  0  0  0  0  0  0  0
  141.1160   71.5113  225.9752 H   0  0  0  0  0  0  0  0  0  0  0  0
  139.6749   72.0262  226.6600 H   0  0  0  0  0  0  0  0  0  0  0  0
  142.1603   70.9015  228.0640 H   0  0  0  0  0  0  0  0  0  0  0  0
  140.9883   71.6855  228.9276 H   0  0  0  0  0  0  0  0  0  0  0  0
  140.9980   68.8027  228.2758 H   0  0  0  0  0  0  0  0  0  0  0  0
  139.5628   69.4701  228.8323 H   0  0  0  0  0  0  0  0  0  0  0  0
  140.4465   71.0071  224.4492 H   0  0  0  0  0  0  0  0  0  0  0  0
  138.6945   75.6358  222.7088 H   0  0  0  0  0  0  0  0  0  0  0  0
  139.6878   77.7780  221.9586 H   0  0  0  0  0  0  0  0  0  0  0  0
  141.7484   79.7687  219.5418 H   0  0  0  0  0  0  0  0  0  0  0  0
  140.2717   79.1551  220.3127 H   0  0  0  0  0  0  0  0  0  0  0  0
  140.9171   81.8778  221.0344 H   0  0  0  0  0  0  0  0  0  0  0  0
  141.5428   83.0723  223.1402 H   0  0  0  0  0  0  0  0  0  0  0  0
  142.6969   81.7540  224.9081 H   0  0  0  0  0  0  0  0  0  0  0  0
  142.6027   78.2498  222.5974 H   0  0  0  0  0  0  0  0  0  0  0  0
  142.8674   75.5863  220.1370 H   0  0  0  0  0  0  0  0  0  0  0  0
  1  2  2  0
  2  3  1  0
  3  4  1  0
  4  5  1  0
  5  6  2  0
  6  7  1  0
  7  8  2  0
  8  9  1  0
  9 10  1  0
 10 11  2  0
 10 12  1  0
 12 13  1  0
 13 14  1  0
 14 15  1  0
  9 16  2  0
  4 17  2  0
 17 18  1  0
 18 19  2  0
 19 20  1  0
 20 21  2  0
 21 22  1  0
 22 23  1  0
 23 24  1  0
 24 25  2  0
 25 26  1  0
 26 27  2  0
 27 28  1  0
 28 29  2  0
 21 30  1  0
 30 31  2  0
 31  2  1  0
 16  5  1  0
 31 18  1  0
 15 12  1  0
 29 24  1  0
  3 32  1  0
  3 33  1  0
  6 34  1  0
  7 35  1  0
  8 36  1  0
 13 37  1  0
 13 38  1  0
 14 39  1  0
 14 40  1  0
 15 41  1  0
 15 42  1  0
 16 43  1  0
 19 44  1  0
 20 45  1  0
 23 46  1  0
 23 47  1  0
 25 48  1  0
 26 49  1  0
 27 50  1  0
 29 51  1  0
 30 52  1  0
M  END
>  <smiles>  (33) 
O=C1CC(c2cccc(C(=O)N3CCC3)c2)=Nc2ccc(OCc3cccnc3)cc21

>  <score_type>  (33) 
oracle

>  <origin>  (33) 
autodockgpu

>  <m_score__min__energy>  (33) 
-8.8699999999999992

>  <m_primary>  (33) 
energy

>  <rmsd>  (33) 
6.181518510464609

>  <m_score__min__rmsd>  (33) 
6.181518510464609

>  <meeko>  (33) 
{"free_energy": -8.57, "intermolecular_energy": -10.07, "internal_energy": -0.89, "cluster_size": 37, "cluster_id": 1, "rank_in_cluster": 18}

>  <energy>  (33) 
-8.4

>  <cluster_rmsd>  (33) 
1.62

>  <cluster>  (33) 
1

$$$$

     RDKit          3D

 52 56  0  0  0  0  0  0  0  0999 V2000
  143.9090   72.5140  220.8170 O   0  0  0  0  0  0  0  0  0  0  0  0
  143.0220   73.3820  220.7360 C   0  0  0  0  0  0  0  0  0  0  0  0
  143.3290   74.6600  220.0390 C   0  0  0  0  0  0  0  0  0  0  0  0
  142.1570   75.5760  220.0430 C   0  0  0  0  0  0  0  0  0  0  0  0
  142.3110   76.8810  219.3870 C   0  0  0  0  0  0  0  0  0  0  0  0
  142.7510   76.9760  218.0800 C   0  0  0  0  0  0  0  0  0  0  0  0
  142.8770   78.2180  217.5000 C   0  0  0  0  0  0  0  0  0  0  0  0
  142.5610   79.3440  218.2390 C   0  0  0  0  0  0  0  0  0  0  0  0
  142.1230   79.3020  219.5360 C   0  0  0  0  0  0  0  0  0  0  0  0
  141.7890   80.4590  220.3420 C   0  0  0  0  0  0  0  0  0  0  0  0
  141.2110   81.4160  219.7560 O   0  0  0  0  0  0  0  0  0  0  0  0
  142.0850   80.5460  221.7480 N   0  0  0  0  0  0  0  0  0  0  0  0
  142.6980   79.7600  222.7870 C   0  0  0  0  0  0  0  0  0  0  0  0
  142.1620   80.6870  223.8270 C   0  0  0  0  0  0  0  0  0  0  0  0
  141.8210   81.5940  222.6980 C   0  0  0  0  0  0  0  0  0  0  0  0
  142.0050   78.0200  220.0950 C   0  0  0  0  0  0  0  0  0  0  0  0
  141.0340   75.2610  220.5920 N   0  0  0  0  0  0  0  0  0  0  0  0
  140.7360   74.0590  221.2480 C   0  0  0  0  0  0  0  0  0  0  0  0
  139.5020   73.7820  221.8130 C   0  0  0  0  0  0  0  0  0  0  0  0
  139.2420   72.5730  222.4520 C   0  0  0  0  0  0  0  0  0  0  0  0
  140.2340   71.6090  222.5340 C   0  0  0  0  0  0  0  0  0  0  0  0
  140.0410   70.3960  223.1480 O   0  0  0  0  0  0  0  0  0  0  0  0
  139.1450   70.1190  224.1880 C   0  0  0  0  0  0  0  0  0  0  0  0
  139.8560   70.4640  225.4710 C   0  0  0  0  0  0  0  0  0  0  0  0
  140.7020   71.5330  225.5840 C   0  0  0  0  0  0  0  0  0  0  0  0
  141.3420   71.8220  226.7710 C   0  0  0  0  0  0  0  0  0  0  0  0
  141.0720   70.9660  227.8310 C   0  0  0  0  0  0  0  0  0  0  0  0
  140.2510   69.9160  227.7510 N   0  0  0  0  0  0  0  0  0  0  0  0
  139.6370   69.6490  226.5920 C   0  0  0  0  0  0  0  0  0  0  0  0
  141.4510   71.9150  221.9640 C   0  0  0  0  0  0  0  0  0  0  0  0
  141.7280   73.0880  221.3350 C   0  0  0  0  0  0  0  0  0  0  0  0
  144.1699   75.1527  220.5490 H   0  0  0  0  0  0  0  0  0  0  0  0
  143.5858   74.4313  218.9941 H   0  0  0  0  0  0  0  0  0  0  0  0
  142.9979   76.0686  217.5094 H   0  0  0  0  0  0  0  0  0  0  0  0
  143.2249   78.3141  216.4609 H   0  0  0  0  0  0  0  0  0  0  0  0
  142.6674   80.3276  217.7582 H   0  0  0  0  0  0  0  0  0  0  0  0
  142.3082   78.7339  222.8597 H   0  0  0  0  0  0  0  0  0  0  0  0
  143.7748   79.5387  222.7481 H   0  0  0  0  0  0  0  0  0  0  0  0
  141.2990   80.3029  224.3906 H   0  0  0  0  0  0  0  0  0  0  0  0
  142.7604   81.0166  224.6891 H   0  0  0  0  0  0  0  0  0  0  0  0
  140.7763   81.9384  222.7029 H   0  0  0  0  0  0  0  0  0  0  0  0
  142.3295   82.5645  222.6004 H   0  0  0  0  0  0  0  0  0  0  0  0
  141.6563   77.9228  221.1337 H   0  0  0  0  0  0  0  0  0  0  0  0
  138.7054   74.5384  221.7551 H   0  0  0  0  0  0  0  0  0  0  0  0
  138.2513   72.3833  222.8909 H   0  0  0  0  0  0  0  0  0  0  0  0
  138.2374   70.7312  224.0804 H   0  0  0  0  0  0  0  0  0  0  0  0
  138.8372   69.0630  224.1762 H   0  0  0  0  0  0  0  0  0  0  0  0
  140.8757   72.1763  224.7088 H   0  0  0  0  0  0  0  0  0  0  0  0
  142.0248   72.6784  226.8721 H   0  0  0  0  0  0  0  0  0  0  0  0
  141.5642   71.1651  228.7944 H   0  0  0  0  0  0  0  0  0  0  0  0
  138.9578   68.7869  226.5180 H   0  0  0  0  0  0  0  0  0  0  0  0
  142.2500   71.1612  222.0218 H   0  0  0  0  0  0  0  0  0  0  0  0
  1  2  2  0
  2  3  1  0
  3  4  1  0
  4  5  1  0
  5  6  2  0
  6  7  1  0
  7  8  2  0
  8  9  1  0
  9 10  1  0
 10 11  2  0
 10 12  1  0
 12 13  1  0
 13 14  1  0
 14 15  1  0
  9 16  2  0
  4 17  2  0
 17 18  1  0
 18 19  2  0
 19 20  1  0
 20 21  2  0
 21 22  1  0
 22 23  1  0
 23 24  1  0
 24 25  2  0
 25 26  1  0
 26 27  2  0
 27 28  1  0
 28 29  2  0
 21 30  1  0
 30 31  2  0
 31  2  1  0
 16  5  1  0
 31 18  1  0
 15 12  1  0
 29 24  1  0
  3 32  1  0
  3 33  1  0
  6 34  1  0
  7 35  1  0
  8 36  1  0
 13 37  1  0
 13 38  1  0
 14 39  1  0
 14 40  1  0
 15 41  1  0
 15 42  1  0
 16 43  1  0
 19 44  1  0
 20 45  1  0
 23 46  1  0
 23 47  1  0
 25 48  1  0
 26 49  1  0
 27 50  1  0
 29 51  1  0
 30 52  1  0
M  END
>  <smiles>  (34) 
O=C1CC(c2cccc(C(=O)N3CCC3)c2)=Nc2ccc(OCc3cccnc3)cc21

>  <score_type>  (34) 
oracle

>  <origin>  (34) 
autodockgpu

>  <m_score__min__energy>  (34) 
-8.8699999999999992

>  <m_primary>  (34) 
energy

>  <rmsd>  (34) 
8.50246452402076

>  <m_score__min__rmsd>  (34) 
8.50246452402076

>  <meeko>  (34) 
{"free_energy": -8.23, "intermolecular_energy": -9.73, "internal_energy": -0.99, "cluster_size": 6, "cluster_id": 3, "rank_in_cluster": 3}

>  <energy>  (34) 
-8.38

>  <cluster_rmsd>  (34) 
1.59

>  <cluster>  (34) 
1

$$$$

     RDKit          3D

 52 56  0  0  0  0  0  0  0  0999 V2000
  142.5220   74.5870  219.2690 O   0  0  0  0  0  0  0  0  0  0  0  0
  141.7170   74.4910  220.2110 C   0  0  0  0  0  0  0  0  0  0  0  0
  141.5380   73.1710  220.8730 C   0  0  0  0  0  0  0  0  0  0  0  0
  140.5370   73.2430  221.9700 C   0  0  0  0  0  0  0  0  0  0  0  0
  140.2550   72.0110  222.7180 C   0  0  0  0  0  0  0  0  0  0  0  0
  139.5950   70.9510  222.1250 C   0  0  0  0  0  0  0  0  0  0  0  0
  139.3540   69.8120  222.8590 C   0  0  0  0  0  0  0  0  0  0  0  0
  139.7800   69.7530  224.1740 C   0  0  0  0  0  0  0  0  0  0  0  0
  140.4360   70.7760  224.8060 C   0  0  0  0  0  0  0  0  0  0  0  0
  140.8900   70.7520  226.1820 C   0  0  0  0  0  0  0  0  0  0  0  0
  141.4240   71.8070  226.6250 O   0  0  0  0  0  0  0  0  0  0  0  0
  140.7520   69.6000  227.0330 N   0  0  0  0  0  0  0  0  0  0  0  0
  140.2460   68.2530  226.9770 C   0  0  0  0  0  0  0  0  0  0  0  0
  140.3410   68.1370  228.4620 C   0  0  0  0  0  0  0  0  0  0  0  0
  141.1260   69.4000  228.4080 C   0  0  0  0  0  0  0  0  0  0  0  0
  140.6650   71.9210  224.0290 C   0  0  0  0  0  0  0  0  0  0  0  0
  139.9250   74.3350  222.2780 N   0  0  0  0  0  0  0  0  0  0  0  0
  140.0890   75.5830  221.6620 C   0  0  0  0  0  0  0  0  0  0  0  0
  139.4010   76.7230  222.0470 C   0  0  0  0  0  0  0  0  0  0  0  0
  139.5960   77.9470  221.4150 C   0  0  0  0  0  0  0  0  0  0  0  0
  140.4990   78.0470  220.3680 C   0  0  0  0  0  0  0  0  0  0  0  0
  140.7380   79.2240  219.7040 O   0  0  0  0  0  0  0  0  0  0  0  0
  141.8620   80.0490  219.8460 C   0  0  0  0  0  0  0  0  0  0  0  0
  141.9790   80.3670  221.3130 C   0  0  0  0  0  0  0  0  0  0  0  0
  142.5750   79.5210  222.2090 C   0  0  0  0  0  0  0  0  0  0  0  0
  142.6650   79.8370  223.5480 C   0  0  0  0  0  0  0  0  0  0  0  0
  142.1180   81.0580  223.9210 C   0  0  0  0  0  0  0  0  0  0  0  0
  141.5330   81.9050  223.0710 N   0  0  0  0  0  0  0  0  0  0  0  0
  141.4530   81.5830  221.7740 C   0  0  0  0  0  0  0  0  0  0  0  0
  141.1660   76.8960  220.0070 C   0  0  0  0  0  0  0  0  0  0  0  0
  140.9930   75.6900  220.6100 C   0  0  0  0  0  0  0  0  0  0  0  0
  141.1971   72.4395  220.1255 H   0  0  0  0  0  0  0  0  0  0  0  0
  142.5030   72.8681  221.3056 H   0  0  0  0  0  0  0  0  0  0  0  0
  139.2659   71.0172  221.0775 H   0  0  0  0  0  0  0  0  0  0  0  0
  138.8288   68.9585  222.4054 H   0  0  0  0  0  0  0  0  0  0  0  0
  139.5808   68.8334  224.7437 H   0  0  0  0  0  0  0  0  0  0  0  0
  139.2199   68.1774  226.5880 H   0  0  0  0  0  0  0  0  0  0  0  0
  140.7356   67.5070  226.3338 H   0  0  0  0  0  0  0  0  0  0  0  0
  139.3818   68.2091  228.9956 H   0  0  0  0  0  0  0  0  0  0  0  0
  140.7140   67.2305  228.9611 H   0  0  0  0  0  0  0  0  0  0  0  0
  140.7584   70.1825  229.0881 H   0  0  0  0  0  0  0  0  0  0  0  0
  142.1884   69.3985  228.6931 H   0  0  0  0  0  0  0  0  0  0  0  0
  141.1895   72.7752  224.4821 H   0  0  0  0  0  0  0  0  0  0  0  0
  138.6805   76.6581  222.8756 H   0  0  0  0  0  0  0  0  0  0  0  0
  139.0348   78.8335  221.7454 H   0  0  0  0  0  0  0  0  0  0  0  0
  142.7642   79.5246  219.4981 H   0  0  0  0  0  0  0  0  0  0  0  0
  141.7590   80.9665  219.2480 H   0  0  0  0  0  0  0  0  0  0  0  0
  142.9916   78.5674  221.8526 H   0  0  0  0  0  0  0  0  0  0  0  0
  143.1407   79.1636  224.2761 H   0  0  0  0  0  0  0  0  0  0  0  0
  142.1700   81.3446  224.9817 H   0  0  0  0  0  0  0  0  0  0  0  0
  140.9727   82.2750  221.0666 H   0  0  0  0  0  0  0  0  0  0  0  0
  141.8851   76.9574  219.1769 H   0  0  0  0  0  0  0  0  0  0  0  0
  1  2  2  0
  2  3  1  0
  3  4  1  0
  4  5  1  0
  5  6  2  0
  6  7  1  0
  7  8  2  0
  8  9  1  0
  9 10  1  0
 10 11  2  0
 10 12  1  0
 12 13  1  0
 13 14  1  0
 14 15  1  0
  9 16  2  0
  4 17  2  0
 17 18  1  0
 18 19  2  0
 19 20  1  0
 20 21  2  0
 21 22  1  0
 22 23  1  0
 23 24  1  0
 24 25  2  0
 25 26  1  0
 26 27  2  0
 27 28  1  0
 28 29  2  0
 21 30  1  0
 30 31  2  0
 31  2  1  0
 16  5  1  0
 31 18  1  0
 15 12  1  0
 29 24  1  0
  3 32  1  0
  3 33  1  0
  6 34  1  0
  7 35  1  0
  8 36  1  0
 13 37  1  0
 13 38  1  0
 14 39  1  0
 14 40  1  0
 15 41  1  0
 15 42  1  0
 16 43  1  0
 19 44  1  0
 20 45  1  0
 23 46  1  0
 23 47  1  0
 25 48  1  0
 26 49  1  0
 27 50  1  0
 29 51  1  0
 30 52  1  0
M  END
>  <smiles>  (35) 
O=C1CC(c2cccc(C(=O)N3CCC3)c2)=Nc2ccc(OCc3cccnc3)cc21

>  <score_type>  (35) 
oracle

>  <origin>  (35) 
autodockgpu

>  <m_score__min__energy>  (35) 
-8.8699999999999992

>  <m_primary>  (35) 
energy

>  <rmsd>  (35) 
7.364825056741322

>  <m_score__min__rmsd>  (35) 
7.364825056741322

>  <meeko>  (35) 
{"free_energy": -8.64, "intermolecular_energy": -10.13, "internal_energy": -1.07, "cluster_size": 37, "cluster_id": 1, "rank_in_cluster": 11}

>  <energy>  (35) 
-8.36

>  <cluster_rmsd>  (35) 
1.6

>  <cluster>  (35) 
1

$$$$

     RDKit          3D

 52 56  0  0  0  0  0  0  0  0999 V2000
  143.7660   76.2420  218.0430 O   0  0  0  0  0  0  0  0  0  0  0  0
  143.1540   75.7320  218.9980 C   0  0  0  0  0  0  0  0  0  0  0  0
  142.0930   76.5240  219.6770 C   0  0  0  0  0  0  0  0  0  0  0  0
  141.4740   75.7610  220.7940 C   0  0  0  0  0  0  0  0  0  0  0  0
  140.4060   76.4170  221.5580 C   0  0  0  0  0  0  0  0  0  0  0  0
  139.1510   75.8480  221.6630 C   0  0  0  0  0  0  0  0  0  0  0  0
  138.1780   76.4940  222.3930 C   0  0  0  0  0  0  0  0  0  0  0  0
  138.4800   77.6960  223.0060 C   0  0  0  0  0  0  0  0  0  0  0  0
  139.7070   78.3000  222.9310 C   0  0  0  0  0  0  0  0  0  0  0  0
  140.0570   79.5610  223.5530 C   0  0  0  0  0  0  0  0  0  0  0  0
  139.1300   80.1830  224.1430 O   0  0  0  0  0  0  0  0  0  0  0  0
  141.3870   80.1070  223.5220 N   0  0  0  0  0  0  0  0  0  0  0  0
  142.6900   79.7850  222.9990 C   0  0  0  0  0  0  0  0  0  0  0  0
  143.3080   80.8610  223.8280 C   0  0  0  0  0  0  0  0  0  0  0  0
  141.9160   81.3210  224.0860 C   0  0  0  0  0  0  0  0  0  0  0  0
  140.6740   77.6150  222.1790 C   0  0  0  0  0  0  0  0  0  0  0  0
  141.8410   74.5630  221.0990 N   0  0  0  0  0  0  0  0  0  0  0  0
  142.8370   73.8090  220.4640 C   0  0  0  0  0  0  0  0  0  0  0  0
  143.1780   72.5210  220.8410 C   0  0  0  0  0  0  0  0  0  0  0  0
  144.1700   71.8000  220.1810 C   0  0  0  0  0  0  0  0  0  0  0  0
  144.8440   72.3740  219.1150 C   0  0  0  0  0  0  0  0  0  0  0  0
  145.8300   71.7170  218.4210 O   0  0  0  0  0  0  0  0  0  0  0  0
  145.6470   70.7830  217.3920 C   0  0  0  0  0  0  0  0  0  0  0  0
  145.7380   69.4210  218.0280 C   0  0  0  0  0  0  0  0  0  0  0  0
  145.3810   68.2730  217.3740 C   0  0  0  0  0  0  0  0  0  0  0  0
  145.4720   67.0390  217.9830 C   0  0  0  0  0  0  0  0  0  0  0  0
  145.9450   67.0400  219.2890 C   0  0  0  0  0  0  0  0  0  0  0  0
  146.3010   68.1430  219.9520 N   0  0  0  0  0  0  0  0  0  0  0  0
  146.2070   69.3330  219.3470 C   0  0  0  0  0  0  0  0  0  0  0  0
  144.4830   73.6570  218.7650 C   0  0  0  0  0  0  0  0  0  0  0  0
  143.5190   74.3790  219.3940 C   0  0  0  0  0  0  0  0  0  0  0  0
  142.5372   77.4472  220.0776 H   0  0  0  0  0  0  0  0  0  0  0  0
  141.3093   76.7543  218.9403 H   0  0  0  0  0  0  0  0  0  0  0  0
  138.9316   74.8899  221.1691 H   0  0  0  0  0  0  0  0  0  0  0  0
  137.1722   76.0587  222.4873 H   0  0  0  0  0  0  0  0  0  0  0  0
  137.6903   78.1953  223.5866 H   0  0  0  0  0  0  0  0  0  0  0  0
  143.0351   78.7719  223.2530 H   0  0  0  0  0  0  0  0  0  0  0  0
  142.8571   79.7627  221.9120 H   0  0  0  0  0  0  0  0  0  0  0  0
  143.8522   80.5077  224.7163 H   0  0  0  0  0  0  0  0  0  0  0  0
  144.0890   81.5311  223.4393 H   0  0  0  0  0  0  0  0  0  0  0  0
  141.6817   81.4561  225.1522 H   0  0  0  0  0  0  0  0  0  0  0  0
  141.5802   82.2961  223.7033 H   0  0  0  0  0  0  0  0  0  0  0  0
  141.6796   78.0505  222.0830 H   0  0  0  0  0  0  0  0  0  0  0  0
  142.6504   72.0541  221.6857 H   0  0  0  0  0  0  0  0  0  0  0  0
  144.4176   70.7783  220.5048 H   0  0  0  0  0  0  0  0  0  0  0  0
  144.6598   70.9195  216.9263 H   0  0  0  0  0  0  0  0  0  0  0  0
  146.4055   70.9054  216.6048 H   0  0  0  0  0  0  0  0  0  0  0  0
  145.0132   68.3360  216.3392 H   0  0  0  0  0  0  0  0  0  0  0  0
  145.1874   66.1107  217.4661 H   0  0  0  0  0  0  0  0  0  0  0  0
  146.0315   66.0741  219.8082 H   0  0  0  0  0  0  0  0  0  0  0  0
  146.4988   70.2461  219.8865 H   0  0  0  0  0  0  0  0  0  0  0  0
  145.0096   74.1273  217.9215 H   0  0  0  0  0  0  0  0  0  0  0  0
  1  2  2  0
  2  3  1  0
  3  4  1  0
  4  5  1  0
  5  6  2  0
  6  7  1  0
  7  8  2  0
  8  9  1  0
  9 10  1  0
 10 11  2  0
 10 12  1  0
 12 13  1  0
 13 14  1  0
 14 15  1  0
  9 16  2  0
  4 17  2  0
 17 18  1  0
 18 19  2  0
 19 20  1  0
 20 21  2  0
 21 22  1  0
 22 23  1  0
 23 24  1  0
 24 25  2  0
 25 26  1  0
 26 27  2  0
 27 28  1  0
 28 29  2  0
 21 30  1  0
 30 31  2  0
 31  2  1  0
 16  5  1  0
 31 18  1  0
 15 12  1  0
 29 24  1  0
  3 32  1  0
  3 33  1  0
  6 34  1  0
  7 35  1  0
  8 36  1  0
 13 37  1  0
 13 38  1  0
 14 39  1  0
 14 40  1  0
 15 41  1  0
 15 42  1  0
 16 43  1  0
 19 44  1  0
 20 45  1  0
 23 46  1  0
 23 47  1  0
 25 48  1  0
 26 49  1  0
 27 50  1  0
 29 51  1  0
 30 52  1  0
M  END
>  <smiles>  (36) 
O=C1CC(c2cccc(C(=O)N3CCC3)c2)=Nc2ccc(OCc3cccnc3)cc21

>  <score_type>  (36) 
oracle

>  <origin>  (36) 
autodockgpu

>  <m_score__min__energy>  (36) 
-8.8699999999999992

>  <m_primary>  (36) 
energy

>  <rmsd>  (36) 
9.105207479906305

>  <m_score__min__rmsd>  (36) 
9.105207479906305

>  <meeko>  (36) 
{"free_energy": -8.63, "intermolecular_energy": -10.12, "internal_energy": -0.9, "cluster_size": 1, "cluster_id": 2, "rank_in_cluster": 1}

>  <energy>  (36) 
-8.3

>  <cluster_rmsd>  (36) 
1.13

>  <cluster>  (36) 
1

$$$$

     RDKit          3D

 52 56  0  0  0  0  0  0  0  0999 V2000
  142.6780   74.3900  219.2710 O   0  0  0  0  0  0  0  0  0  0  0  0
  141.8560   74.3600  220.2040 C   0  0  0  0  0  0  0  0  0  0  0  0
  141.5970   73.0680  220.8930 C   0  0  0  0  0  0  0  0  0  0  0  0
  140.5870   73.2200  221.9750 C   0  0  0  0  0  0  0  0  0  0  0  0
  140.2300   72.0230  222.7470 C   0  0  0  0  0  0  0  0  0  0  0  0
  139.4770   71.0100  222.1840 C   0  0  0  0  0  0  0  0  0  0  0  0
  139.1670   69.9030  222.9400 C   0  0  0  0  0  0  0  0  0  0  0  0
  139.6160   69.8280  224.2460 C   0  0  0  0  0  0  0  0  0  0  0  0
  140.3630   70.8060  224.8480 C   0  0  0  0  0  0  0  0  0  0  0  0
  140.8460   70.7660  226.2150 C   0  0  0  0  0  0  0  0  0  0  0  0
  141.4040   71.8090  226.6530 O   0  0  0  0  0  0  0  0  0  0  0  0
  140.7080   69.6090  227.0600 N   0  0  0  0  0  0  0  0  0  0  0  0
  140.1800   68.2710  227.0050 C   0  0  0  0  0  0  0  0  0  0  0  0
  140.3050   68.1420  228.4870 C   0  0  0  0  0  0  0  0  0  0  0  0
  141.1080   69.3940  228.4250 C   0  0  0  0  0  0  0  0  0  0  0  0
  140.6610   71.9200  224.0490 C   0  0  0  0  0  0  0  0  0  0  0  0
  140.0330   74.3510  222.2490 N   0  0  0  0  0  0  0  0  0  0  0  0
  140.2720   75.5740  221.6060 C   0  0  0  0  0  0  0  0  0  0  0  0
  139.6430   76.7580  221.9550 C   0  0  0  0  0  0  0  0  0  0  0  0
  139.9130   77.9540  221.2980 C   0  0  0  0  0  0  0  0  0  0  0  0
  140.8320   77.9800  220.2620 C   0  0  0  0  0  0  0  0  0  0  0  0
  141.1440   79.1270  219.5740 O   0  0  0  0  0  0  0  0  0  0  0  0
  142.1360   80.0580  219.9100 C   0  0  0  0  0  0  0  0  0  0  0  0
  141.9420   80.3860  221.3670 C   0  0  0  0  0  0  0  0  0  0  0  0
  142.6920   79.8160  222.3600 C   0  0  0  0  0  0  0  0  0  0  0  0
  142.4890   80.1330  223.6870 C   0  0  0  0  0  0  0  0  0  0  0  0
  141.4870   81.0600  223.9430 C   0  0  0  0  0  0  0  0  0  0  0  0
  140.7410   81.6330  222.9960 N   0  0  0  0  0  0  0  0  0  0  0  0
  140.9500   81.3150  221.7130 C   0  0  0  0  0  0  0  0  0  0  0  0
  141.4400   76.7860  219.9370 C   0  0  0  0  0  0  0  0  0  0  0  0
  141.1940   75.6060  220.5650 C   0  0  0  0  0  0  0  0  0  0  0  0
  141.2261   72.3388  220.1577 H   0  0  0  0  0  0  0  0  0  0  0  0
  142.5385   72.7234  221.3456 H   0  0  0  0  0  0  0  0  0  0  0  0
  139.1295   71.0879  221.1433 H   0  0  0  0  0  0  0  0  0  0  0  0
  138.5684   69.0863  222.5103 H   0  0  0  0  0  0  0  0  0  0  0  0
  139.3593   68.9342  224.8335 H   0  0  0  0  0  0  0  0  0  0  0  0
  139.1447   68.2144  226.6377 H   0  0  0  0  0  0  0  0  0  0  0  0
  140.6440   67.5225  226.3459 H   0  0  0  0  0  0  0  0  0  0  0  0
  139.3587   68.2244  229.0417 H   0  0  0  0  0  0  0  0  0  0  0  0
  140.6747   67.2262  228.9714 H   0  0  0  0  0  0  0  0  0  0  0  0
  140.7667   70.1771  229.1180 H   0  0  0  0  0  0  0  0  0  0  0  0
  142.1760   69.3747  228.6875 H   0  0  0  0  0  0  0  0  0  0  0  0
  141.2588   72.7377  224.4778 H   0  0  0  0  0  0  0  0  0  0  0  0
  138.9095   76.7522  222.7747 H   0  0  0  0  0  0  0  0  0  0  0  0
  139.3976   78.8775  221.6007 H   0  0  0  0  0  0  0  0  0  0  0  0
  143.1339   79.6245  219.7481 H   0  0  0  0  0  0  0  0  0  0  0  0
  142.0603   80.9610  219.2865 H   0  0  0  0  0  0  0  0  0  0  0  0
  143.4737   79.0892  222.0940 H   0  0  0  0  0  0  0  0  0  0  0  0
  143.0843   79.6794  224.4931 H   0  0  0  0  0  0  0  0  0  0  0  0
  141.2966   81.3390  224.9899 H   0  0  0  0  0  0  0  0  0  0  0  0
  140.3410   81.7843  220.9263 H   0  0  0  0  0  0  0  0  0  0  0  0
  142.1719   76.7886  219.1159 H   0  0  0  0  0  0  0  0  0  0  0  0
  1  2  2  0
  2  3  1  0
  3  4  1  0
  4  5  1  0
  5  6  2  0
  6  7  1  0
  7  8  2  0
  8  9  1  0
  9 10  1  0
 10 11  2  0
 10 12  1  0
 12 13  1  0
 13 14  1  0
 14 15  1  0
  9 16  2  0
  4 17  2  0
 17 18  1  0
 18 19  2  0
 19 20  1  0
 20 21  2  0
 21 22  1  0
 22 23  1  0
 23 24  1  0
 24 25  2  0
 25 26  1  0
 26 27  2  0
 27 28  1  0
 28 29  2  0
 21 30  1  0
 30 31  2  0
 31  2  1  0
 16  5  1  0
 31 18  1  0
 15 12  1  0
 29 24  1  0
  3 32  1  0
  3 33  1  0
  6 34  1  0
  7 35  1  0
  8 36  1  0
 13 37  1  0
 13 38  1  0
 14 39  1  0
 14 40  1  0
 15 41  1  0
 15 42  1  0
 16 43  1  0
 19 44  1  0
 20 45  1  0
 23 46  1  0
 23 47  1  0
 25 48  1  0
 26 49  1  0
 27 50  1  0
 29 51  1  0
 30 52  1  0
M  END
>  <smiles>  (37) 
O=C1CC(c2cccc(C(=O)N3CCC3)c2)=Nc2ccc(OCc3cccnc3)cc21

>  <score_type>  (37) 
oracle

>  <origin>  (37) 
autodockgpu

>  <m_score__min__energy>  (37) 
-8.8699999999999992

>  <m_primary>  (37) 
energy

>  <rmsd>  (37) 
7.354070728302313

>  <m_score__min__rmsd>  (37) 
7.354070728302313

>  <meeko>  (37) 
{"free_energy": -8.58, "intermolecular_energy": -10.07, "internal_energy": -1.08, "cluster_size": 37, "cluster_id": 1, "rank_in_cluster": 17}

>  <energy>  (37) 
-8.23

>  <cluster_rmsd>  (37) 
1.84

>  <cluster>  (37) 
1

$$$$

     RDKit          3D

 52 56  0  0  0  0  0  0  0  0999 V2000
  142.7720   74.5340  219.3240 O   0  0  0  0  0  0  0  0  0  0  0  0
  141.8960   74.4630  220.2030 C   0  0  0  0  0  0  0  0  0  0  0  0
  141.6720   73.1630  220.8920 C   0  0  0  0  0  0  0  0  0  0  0  0
  140.5870   73.2630  221.9040 C   0  0  0  0  0  0  0  0  0  0  0  0
  140.2540   72.0540  222.6680 C   0  0  0  0  0  0  0  0  0  0  0  0
  139.5700   71.0050  222.0810 C   0  0  0  0  0  0  0  0  0  0  0  0
  139.2810   69.8870  222.8300 C   0  0  0  0  0  0  0  0  0  0  0  0
  139.6820   69.8380  224.1520 C   0  0  0  0  0  0  0  0  0  0  0  0
  140.3600   70.8500  224.7780 C   0  0  0  0  0  0  0  0  0  0  0  0
  140.7900   70.8360  226.1630 C   0  0  0  0  0  0  0  0  0  0  0  0
  141.2410   71.9180  226.6310 O   0  0  0  0  0  0  0  0  0  0  0  0
  140.7170   69.6630  226.9930 N   0  0  0  0  0  0  0  0  0  0  0  0
  140.3080   68.2860  226.9070 C   0  0  0  0  0  0  0  0  0  0  0  0
  140.3840   68.1520  228.3920 C   0  0  0  0  0  0  0  0  0  0  0  0
  141.0800   69.4680  228.3720 C   0  0  0  0  0  0  0  0  0  0  0  0
  140.6390   71.9740  223.9860 C   0  0  0  0  0  0  0  0  0  0  0  0
  139.9480   74.3600  222.1270 N   0  0  0  0  0  0  0  0  0  0  0  0
  140.1540   75.5890  221.4850 C   0  0  0  0  0  0  0  0  0  0  0  0
  139.4320   76.7350  221.7780 C   0  0  0  0  0  0  0  0  0  0  0  0
  139.6700   77.9400  221.1230 C   0  0  0  0  0  0  0  0  0  0  0  0
  140.6520   78.0120  220.1480 C   0  0  0  0  0  0  0  0  0  0  0  0
  140.9370   79.1700  219.4660 O   0  0  0  0  0  0  0  0  0  0  0  0
  141.9590   80.0820  219.7600 C   0  0  0  0  0  0  0  0  0  0  0  0
  141.8910   80.3400  221.2430 C   0  0  0  0  0  0  0  0  0  0  0  0
  142.5660   79.5780  222.1590 C   0  0  0  0  0  0  0  0  0  0  0  0
  142.4830   79.8360  223.5100 C   0  0  0  0  0  0  0  0  0  0  0  0
  141.6780   80.9090  223.8750 C   0  0  0  0  0  0  0  0  0  0  0  0
  141.0090   81.6690  223.0060 N   0  0  0  0  0  0  0  0  0  0  0  0
  141.1010   81.4060  221.6970 C   0  0  0  0  0  0  0  0  0  0  0  0
  141.3510   76.8560  219.8780 C   0  0  0  0  0  0  0  0  0  0  0  0
  141.1370   75.6680  220.5040 C   0  0  0  0  0  0  0  0  0  0  0  0
  141.3948   72.4052  220.1444 H   0  0  0  0  0  0  0  0  0  0  0  0
  142.6013   72.8814  221.4087 H   0  0  0  0  0  0  0  0  0  0  0  0
  139.2604   71.0635  221.0271 H   0  0  0  0  0  0  0  0  0  0  0  0
  138.7373   69.0423  222.3818 H   0  0  0  0  0  0  0  0  0  0  0  0
  139.4432   68.9355  224.7338 H   0  0  0  0  0  0  0  0  0  0  0  0
  139.2969   68.1454  226.4973 H   0  0  0  0  0  0  0  0  0  0  0  0
  140.8604   67.5868  226.2620 H   0  0  0  0  0  0  0  0  0  0  0  0
  139.4126   68.1483  228.9082 H   0  0  0  0  0  0  0  0  0  0  0  0
  140.8102   67.2655  228.8843 H   0  0  0  0  0  0  0  0  0  0  0  0
  140.6465   70.2120  229.0565 H   0  0  0  0  0  0  0  0  0  0  0  0
  142.1346   69.5363  228.6773 H   0  0  0  0  0  0  0  0  0  0  0  0
  141.1833   72.8186  224.4336 H   0  0  0  0  0  0  0  0  0  0  0  0
  138.6492   76.6912  222.5495 H   0  0  0  0  0  0  0  0  0  0  0  0
  139.0802   78.8326  221.3787 H   0  0  0  0  0  0  0  0  0  0  0  0
  142.9371   79.6552  219.4933 H   0  0  0  0  0  0  0  0  0  0  0  0
  141.8360   81.0140  219.1888 H   0  0  0  0  0  0  0  0  0  0  0  0
  143.1883   78.7414  221.8085 H   0  0  0  0  0  0  0  0  0  0  0  0
  143.0208   79.2301  224.2541 H   0  0  0  0  0  0  0  0  0  0  0  0
  141.5870   81.1459  224.9453 H   0  0  0  0  0  0  0  0  0  0  0  0
  140.5543   82.0290  220.9738 H   0  0  0  0  0  0  0  0  0  0  0  0
  142.1332   76.8966  219.1057 H   0  0  0  0  0  0  0  0  0  0  0  0
  1  2  2  0
  2  3  1  0
  3  4  1  0
  4  5  1  0
  5  6  2  0
  6  7  1  0
  7  8  2  0
  8  9  1  0
  9 10  1  0
 10 11  2  0
 10 12  1  0
 12 13  1  0
 13 14  1  0
 14 15  1  0
  9 16  2  0
  4 17  2  0
 17 18  1  0
 18 19  2  0
 19 20  1  0
 20 21  2  0
 21 22  1  0
 22 23  1  0
 23 24  1  0
 24 25  2  0
 25 26  1  0
 26 27  2  0
 27 28  1  0
 28 29  2  0
 21 30  1  0
 30 31  2  0
 31  2  1  0
 16  5  1  0
 31 18  1  0
 15 12  1  0
 29 24  1  0
  3 32  1  0
  3 33  1  0
  6 34  1  0
  7 35  1  0
  8 36  1  0
 13 37  1  0
 13 38  1  0
 14 39  1  0
 14 40  1  0
 15 41  1  0
 15 42  1  0
 16 43  1  0
 19 44  1  0
 20 45  1  0
 23 46  1  0
 23 47  1  0
 25 48  1  0
 26 49  1  0
 27 50  1  0
 29 51  1  0
 30 52  1  0
M  END
>  <smiles>  (38) 
O=C1CC(c2cccc(C(=O)N3CCC3)c2)=Nc2ccc(OCc3cccnc3)cc21

>  <score_type>  (38) 
oracle

>  <origin>  (38) 
autodockgpu

>  <m_score__min__energy>  (38) 
-8.8699999999999992

>  <m_primary>  (38) 
energy

>  <rmsd>  (38) 
7.370004121668896

>  <m_score__min__rmsd>  (38) 
7.370004121668896

>  <meeko>  (38) 
{"free_energy": -8.57, "intermolecular_energy": -10.06, "internal_energy": -1.11, "cluster_size": 37, "cluster_id": 1, "rank_in_cluster": 21}

>  <energy>  (38) 
-8.63

>  <cluster_rmsd>  (38) 
0.0

>  <cluster>  (38) 
2

$$$$

     RDKit          3D

 52 56  0  0  0  0  0  0  0  0999 V2000
  140.1490   74.6950  222.3430 O   0  0  0  0  0  0  0  0  0  0  0  0
  140.7390   75.6230  221.7610 C   0  0  0  0  0  0  0  0  0  0  0  0
  140.7000   76.9850  222.3580 C   0  0  0  0  0  0  0  0  0  0  0  0
  141.4510   77.9650  221.5280 C   0  0  0  0  0  0  0  0  0  0  0  0
  141.5010   79.3560  221.9950 C   0  0  0  0  0  0  0  0  0  0  0  0
  141.7150   79.6540  223.3270 C   0  0  0  0  0  0  0  0  0  0  0  0
  141.7600   80.9710  223.7230 C   0  0  0  0  0  0  0  0  0  0  0  0
  141.5910   81.9670  222.7790 C   0  0  0  0  0  0  0  0  0  0  0  0
  141.3750   81.7230  221.4480 C   0  0  0  0  0  0  0  0  0  0  0  0
  141.1870   82.7390  220.4320 C   0  0  0  0  0  0  0  0  0  0  0  0
  140.6390   83.8160  220.7980 O   0  0  0  0  0  0  0  0  0  0  0  0
  141.5940   82.5630  219.0640 N   0  0  0  0  0  0  0  0  0  0  0  0
  142.2150   81.5700  218.2260 C   0  0  0  0  0  0  0  0  0  0  0  0
  142.4060   82.5780  217.1420 C   0  0  0  0  0  0  0  0  0  0  0  0
  141.5010   83.4530  217.9370 C   0  0  0  0  0  0  0  0  0  0  0  0
  141.3360   80.3700  221.0800 C   0  0  0  0  0  0  0  0  0  0  0  0
  142.0480   77.6310  220.4350 N   0  0  0  0  0  0  0  0  0  0  0  0
  142.0910   76.3510  219.8670 C   0  0  0  0  0  0  0  0  0  0  0  0
  142.7590   76.0590  218.6880 C   0  0  0  0  0  0  0  0  0  0  0  0
  142.7850   74.7720  218.1580 C   0  0  0  0  0  0  0  0  0  0  0  0
  142.1300   73.7430  218.8150 C   0  0  0  0  0  0  0  0  0  0  0  0
  142.1190   72.4520  218.3460 O   0  0  0  0  0  0  0  0  0  0  0  0
  143.1540   71.5140  218.4570 C   0  0  0  0  0  0  0  0  0  0  0  0
  144.2650   72.1900  219.2160 C   0  0  0  0  0  0  0  0  0  0  0  0
  144.2510   72.3350  220.5770 C   0  0  0  0  0  0  0  0  0  0  0  0
  145.2820   72.9610  221.2450 C   0  0  0  0  0  0  0  0  0  0  0  0
  146.3240   73.4270  220.4540 C   0  0  0  0  0  0  0  0  0  0  0  0
  146.3660   73.2990  219.1260 N   0  0  0  0  0  0  0  0  0  0  0  0
  145.3580   72.6890  218.4910 C   0  0  0  0  0  0  0  0  0  0  0  0
  141.4740   74.0650  219.9840 C   0  0  0  0  0  0  0  0  0  0  0  0
  141.4350   75.3130  220.5200 C   0  0  0  0  0  0  0  0  0  0  0  0
  139.6524   77.3113  222.4363 H   0  0  0  0  0  0  0  0  0  0  0  0
  141.1711   76.9406  223.3510 H   0  0  0  0  0  0  0  0  0  0  0  0
  141.8479   78.8473  224.0629 H   0  0  0  0  0  0  0  0  0  0  0  0
  141.9286   81.2286  224.7790 H   0  0  0  0  0  0  0  0  0  0  0  0
  141.6322   83.0136  223.1152 H   0  0  0  0  0  0  0  0  0  0  0  0
  143.1548   81.1677  218.6321 H   0  0  0  0  0  0  0  0  0  0  0  0
  141.6937   80.6250  218.0134 H   0  0  0  0  0  0  0  0  0  0  0  0
  143.4346   82.9520  217.0318 H   0  0  0  0  0  0  0  0  0  0  0  0
  142.2239   82.3474  216.0820 H   0  0  0  0  0  0  0  0  0  0  0  0
  141.9067   84.4575  218.1278 H   0  0  0  0  0  0  0  0  0  0  0  0
  140.5147   83.7305  217.5367 H   0  0  0  0  0  0  0  0  0  0  0  0
  141.1678   80.1110  220.0242 H   0  0  0  0  0  0  0  0  0  0  0  0
  143.2832   76.8668  218.1564 H   0  0  0  0  0  0  0  0  0  0  0  0
  143.3241   74.5726  217.2201 H   0  0  0  0  0  0  0  0  0  0  0  0
  142.8050   70.6263  219.0048 H   0  0  0  0  0  0  0  0  0  0  0  0
  143.4955   71.1798  217.4662 H   0  0  0  0  0  0  0  0  0  0  0  0
  143.3981   71.9433  221.1507 H   0  0  0  0  0  0  0  0  0  0  0  0
  145.2793   73.0839  222.3381 H   0  0  0  0  0  0  0  0  0  0  0  0
  147.1651   73.9318  220.9516 H   0  0  0  0  0  0  0  0  0  0  0  0
  145.3864   72.5784  217.3969 H   0  0  0  0  0  0  0  0  0  0  0  0
  140.9481   73.2594  220.5174 H   0  0  0  0  0  0  0  0  0  0  0  0
  1  2  2  0
  2  3  1  0
  3  4  1  0
  4  5  1  0
  5  6  2  0
  6  7  1  0
  7  8  2  0
  8  9  1  0
  9 10  1  0
 10 11  2  0
 10 12  1  0
 12 13  1  0
 13 14  1  0
 14 15  1  0
  9 16  2  0
  4 17  2  0
 17 18  1  0
 18 19  2  0
 19 20  1  0
 20 21  2  0
 21 22  1  0
 22 23  1  0
 23 24  1  0
 24 25  2  0
 25 26  1  0
 26 27  2  0
 27 28  1  0
 28 29  2  0
 21 30  1  0
 30 31  2  0
 31  2  1  0
 16  5  1  0
 31 18  1  0
 15 12  1  0
 29 24  1  0
  3 32  1  0
  3 33  1  0
  6 34  1  0
  7 35  1  0
  8 36  1  0
 13 37  1  0
 13 38  1  0
 14 39  1  0
 14 40  1  0
 15 41  1  0
 15 42  1  0
 16 43  1  0
 19 44  1  0
 20 45  1  0
 23 46  1  0
 23 47  1  0
 25 48  1  0
 26 49  1  0
 27 50  1  0
 29 51  1  0
 30 52  1  0
M  END
>  <smiles>  (39) 
O=C1CC(c2cccc(C(=O)N3CCC3)c2)=Nc2ccc(OCc3cccnc3)cc21

>  <score_type>  (39) 
oracle

>  <origin>  (39) 
autodockgpu

>  <m_score__min__energy>  (39) 
-8.8699999999999992

>  <m_primary>  (39) 
energy

>  <rmsd>  (39) 
9.968480296812578

>  <m_score__min__rmsd>  (39) 
9.968480296812578

>  <meeko>  (39) 
{"free_energy": -7.96, "intermolecular_energy": -9.45, "internal_energy": -1.26, "cluster_size": 2, "cluster_id": 5, "rank_in_cluster": 2}

>  <energy>  (39) 
-8.26

>  <cluster_rmsd>  (39) 
0.0

>  <cluster>  (39) 
3

$$$$

     RDKit          3D

 52 56  0  0  0  0  0  0  0  0999 V2000
  143.0750   74.8320  219.7850 O   0  0  0  0  0  0  0  0  0  0  0  0
  142.0700   74.6940  220.5030 C   0  0  0  0  0  0  0  0  0  0  0  0
  141.8380   73.3850  221.1710 C   0  0  0  0  0  0  0  0  0  0  0  0
  140.5910   73.4010  221.9820 C   0  0  0  0  0  0  0  0  0  0  0  0
  140.2320   72.1730  222.7030 C   0  0  0  0  0  0  0  0  0  0  0  0
  139.4570   71.1960  222.1060 C   0  0  0  0  0  0  0  0  0  0  0  0
  139.1460   70.0580  222.8160 C   0  0  0  0  0  0  0  0  0  0  0  0
  139.6160   69.9180  224.1090 C   0  0  0  0  0  0  0  0  0  0  0  0
  140.3850   70.8570  224.7430 C   0  0  0  0  0  0  0  0  0  0  0  0
  140.8890   70.7480  226.0980 C   0  0  0  0  0  0  0  0  0  0  0  0
  141.5530   71.7260  226.5400 O   0  0  0  0  0  0  0  0  0  0  0  0
  140.6600   69.5950  226.9280 N   0  0  0  0  0  0  0  0  0  0  0  0
  140.0060   68.3140  226.8640 C   0  0  0  0  0  0  0  0  0  0  0  0
  140.1480   68.1480  228.3400 C   0  0  0  0  0  0  0  0  0  0  0  0
  141.0650   69.3190  228.2810 C   0  0  0  0  0  0  0  0  0  0  0  0
  140.6830   72.0040  223.9920 C   0  0  0  0  0  0  0  0  0  0  0  0
  139.8360   74.4420  222.0680 N   0  0  0  0  0  0  0  0  0  0  0  0
  140.0470   75.6790  221.4440 C   0  0  0  0  0  0  0  0  0  0  0  0
  139.1950   76.7620  221.5850 C   0  0  0  0  0  0  0  0  0  0  0  0
  139.4430   77.9780  220.9540 C   0  0  0  0  0  0  0  0  0  0  0  0
  140.5680   78.1260  220.1600 C   0  0  0  0  0  0  0  0  0  0  0  0
  140.8700   79.2980  219.5120 O   0  0  0  0  0  0  0  0  0  0  0  0
  141.9830   80.1170  219.7430 C   0  0  0  0  0  0  0  0  0  0  0  0
  142.0020   80.4090  221.2210 C   0  0  0  0  0  0  0  0  0  0  0  0
  142.5700   79.5630  222.1350 C   0  0  0  0  0  0  0  0  0  0  0  0
  142.5700   79.8550  223.4830 C   0  0  0  0  0  0  0  0  0  0  0  0
  141.9620   81.0510  223.8450 C   0  0  0  0  0  0  0  0  0  0  0  0
  141.4010   81.8950  222.9770 N   0  0  0  0  0  0  0  0  0  0  0  0
  141.4090   81.5980  221.6720 C   0  0  0  0  0  0  0  0  0  0  0  0
  141.3950   77.0300  220.0380 C   0  0  0  0  0  0  0  0  0  0  0  0
  141.1740   75.8340  220.6440 C   0  0  0  0  0  0  0  0  0  0  0  0
  141.7552   72.6015  220.4033 H   0  0  0  0  0  0  0  0  0  0  0  0
  142.6851   73.1856  221.8438 H   0  0  0  0  0  0  0  0  0  0  0  0
  139.0932   71.3263  221.0761 H   0  0  0  0  0  0  0  0  0  0  0  0
  138.5304   69.2688  222.3597 H   0  0  0  0  0  0  0  0  0  0  0  0
  139.3577   69.0010  224.6590 H   0  0  0  0  0  0  0  0  0  0  0  0
  138.9628   68.3621  226.5185 H   0  0  0  0  0  0  0  0  0  0  0  0
  140.3833   67.5364  226.1835 H   0  0  0  0  0  0  0  0  0  0  0  0
  139.2250   68.3098  228.9162 H   0  0  0  0  0  0  0  0  0  0  0  0
  140.4388   67.1928  228.8016 H   0  0  0  0  0  0  0  0  0  0  0  0
  140.8135   70.1185  228.9935 H   0  0  0  0  0  0  0  0  0  0  0  0
  142.1313   69.1941  228.5205 H   0  0  0  0  0  0  0  0  0  0  0  0
  141.2973   72.7941  224.4486 H   0  0  0  0  0  0  0  0  0  0  0  0
  138.2977   76.6584  222.2129 H   0  0  0  0  0  0  0  0  0  0  0  0
  138.7468   78.8194  221.0858 H   0  0  0  0  0  0  0  0  0  0  0  0
  142.9056   79.5963  219.4469 H   0  0  0  0  0  0  0  0  0  0  0  0
  141.9219   81.0450  219.1556 H   0  0  0  0  0  0  0  0  0  0  0  0
  143.0367   78.6298  221.7868 H   0  0  0  0  0  0  0  0  0  0  0  0
  143.0235   79.1824  224.2260 H   0  0  0  0  0  0  0  0  0  0  0  0
  141.9420   81.3182  224.9119 H   0  0  0  0  0  0  0  0  0  0  0  0
  140.9488   82.2888  220.9501 H   0  0  0  0  0  0  0  0  0  0  0  0
  142.2921   77.1300  219.4093 H   0  0  0  0  0  0  0  0  0  0  0  0
  1  2  2  0
  2  3  1  0
  3  4  1  0
  4  5  1  0
  5  6  2  0
  6  7  1  0
  7  8  2  0
  8  9  1  0
  9 10  1  0
 10 11  2  0
 10 12  1  0
 12 13  1  0
 13 14  1  0
 14 15  1  0
  9 16  2  0
  4 17  2  0
 17 18  1  0
 18 19  2  0
 19 20  1  0
 20 21  2  0
 21 22  1  0
 22 23  1  0
 23 24  1  0
 24 25  2  0
 25 26  1  0
 26 27  2  0
 27 28  1  0
 28 29  2  0
 21 30  1  0
 30 31  2  0
 31  2  1  0
 16  5  1  0
 31 18  1  0
 15 12  1  0
 29 24  1  0
  3 32  1  0
  3 33  1  0
  6 34  1  0
  7 35  1  0
  8 36  1  0
 13 37  1  0
 13 38  1  0
 14 39  1  0
 14 40  1  0
 15 41  1  0
 15 42  1  0
 16 43  1  0
 19 44  1  0
 20 45  1  0
 23 46  1  0
 23 47  1  0
 25 48  1  0
 26 49  1  0
 27 50  1  0
 29 51  1  0
 30 52  1  0
M  END
>  <smiles>  (40) 
O=C1CC(c2cccc(C(=O)N3CCC3)c2)=Nc2ccc(OCc3cccnc3)cc21

>  <score_type>  (40) 
oracle

>  <origin>  (40) 
autodockgpu

>  <m_score__min__energy>  (40) 
-8.8699999999999992

>  <m_primary>  (40) 
energy

>  <rmsd>  (40) 
7.337269861990367

>  <m_score__min__rmsd>  (40) 
7.337269861990367

>  <meeko>  (40) 
{"free_energy": -8.48, "intermolecular_energy": -9.97, "internal_energy": -1.11, "cluster_size": 37, "cluster_id": 1, "rank_in_cluster": 28}

>  <energy>  (40) 
-8.26

>  <cluster_rmsd>  (40) 
0.04

>  <cluster>  (40) 
3

$$$$

     RDKit          3D

 52 56  0  0  0  0  0  0  0  0999 V2000
  142.8250   73.7180  219.1100 O   0  0  0  0  0  0  0  0  0  0  0  0
  142.0420   73.6700  220.0750 C   0  0  0  0  0  0  0  0  0  0  0  0
  141.5950   72.3410  220.5720 C   0  0  0  0  0  0  0  0  0  0  0  0
  140.6620   72.4760  221.7230 C   0  0  0  0  0  0  0  0  0  0  0  0
  140.1360   71.2430  222.3220 C   0  0  0  0  0  0  0  0  0  0  0  0
  139.7650   70.1690  221.5340 C   0  0  0  0  0  0  0  0  0  0  0  0
  139.2810   69.0300  222.1350 C   0  0  0  0  0  0  0  0  0  0  0  0
  139.1760   68.9850  223.5140 C   0  0  0  0  0  0  0  0  0  0  0  0
  139.5280   70.0220  224.3360 C   0  0  0  0  0  0  0  0  0  0  0  0
  139.4260   70.0140  225.7820 C   0  0  0  0  0  0  0  0  0  0  0  0
  138.6180   69.1880  226.2910 O   0  0  0  0  0  0  0  0  0  0  0  0
  140.1940   70.8890  226.6260 N   0  0  0  0  0  0  0  0  0  0  0  0
  141.1770   71.9350  226.5110 C   0  0  0  0  0  0  0  0  0  0  0  0
  141.4540   71.8600  227.9760 C   0  0  0  0  0  0  0  0  0  0  0  0
  140.2340   71.0120  228.0590 C   0  0  0  0  0  0  0  0  0  0  0  0
  140.0180   71.1670  223.6910 C   0  0  0  0  0  0  0  0  0  0  0  0
  140.3140   73.6220  222.2000 N   0  0  0  0  0  0  0  0  0  0  0  0
  140.7320   74.8780  221.7400 C   0  0  0  0  0  0  0  0  0  0  0  0
  140.3230   76.0750  222.3040 C   0  0  0  0  0  0  0  0  0  0  0  0
  140.7660   77.3040  221.8230 C   0  0  0  0  0  0  0  0  0  0  0  0
  141.6410   77.3490  220.7510 C   0  0  0  0  0  0  0  0  0  0  0  0
  142.1170   78.5270  220.2300 O   0  0  0  0  0  0  0  0  0  0  0  0
  141.5050   79.7850  220.3130 C   0  0  0  0  0  0  0  0  0  0  0  0
  141.7960   80.3130  221.6930 C   0  0  0  0  0  0  0  0  0  0  0  0
  142.9530   80.0260  222.3670 C   0  0  0  0  0  0  0  0  0  0  0  0
  143.1910   80.5220  223.6310 C   0  0  0  0  0  0  0  0  0  0  0  0
  142.1910   81.3230  224.1680 C   0  0  0  0  0  0  0  0  0  0  0  0
  141.0540   81.6210  223.5350 N   0  0  0  0  0  0  0  0  0  0  0  0
  140.8370   81.1320  222.3080 C   0  0  0  0  0  0  0  0  0  0  0  0
  142.0290   76.1420  220.2100 C   0  0  0  0  0  0  0  0  0  0  0  0
  141.6100   74.9310  220.6620 C   0  0  0  0  0  0  0  0  0  0  0  0
  141.0830   71.8082  219.7572 H   0  0  0  0  0  0  0  0  0  0  0  0
  142.4807   71.7823  220.9088 H   0  0  0  0  0  0  0  0  0  0  0  0
  139.8558   70.2247  220.4392 H   0  0  0  0  0  0  0  0  0  0  0  0
  138.9808   68.1646  221.5260 H   0  0  0  0  0  0  0  0  0  0  0  0
  138.7881   68.0649  223.9756 H   0  0  0  0  0  0  0  0  0  0  0  0
  142.0382   71.6708  225.8797 H   0  0  0  0  0  0  0  0  0  0  0  0
  140.9067   72.8965  226.0501 H   0  0  0  0  0  0  0  0  0  0  0  0
  142.3917   71.3521  228.2458 H   0  0  0  0  0  0  0  0  0  0  0  0
  141.5938   72.7567  228.5976 H   0  0  0  0  0  0  0  0  0  0  0  0
  140.3895   70.0579  228.5839 H   0  0  0  0  0  0  0  0  0  0  0  0
  139.3497   71.3749  228.6034 H   0  0  0  0  0  0  0  0  0  0  0  0
  140.3179   72.0329  224.2995 H   0  0  0  0  0  0  0  0  0  0  0  0
  139.6282   76.0540  223.1565 H   0  0  0  0  0  0  0  0  0  0  0  0
  140.4218   78.2369  222.2934 H   0  0  0  0  0  0  0  0  0  0  0  0
  141.9218   80.4611  219.5519 H   0  0  0  0  0  0  0  0  0  0  0  0
  140.4218   79.7124  220.1356 H   0  0  0  0  0  0  0  0  0  0  0  0
  143.7091   79.3856  221.8893 H   0  0  0  0  0  0  0  0  0  0  0  0
  144.1167   80.2972  224.1811 H   0  0  0  0  0  0  0  0  0  0  0  0
  142.3453   81.7366  225.1755 H   0  0  0  0  0  0  0  0  0  0  0  0
  139.9029   81.3733  221.7796 H   0  0  0  0  0  0  0  0  0  0  0  0
  142.7230   76.1603  219.3568 H   0  0  0  0  0  0  0  0  0  0  0  0
  1  2  2  0
  2  3  1  0
  3  4  1  0
  4  5  1  0
  5  6  2  0
  6  7  1  0
  7  8  2  0
  8  9  1  0
  9 10  1  0
 10 11  2  0
 10 12  1  0
 12 13  1  0
 13 14  1  0
 14 15  1  0
  9 16  2  0
  4 17  2  0
 17 18  1  0
 18 19  2  0
 19 20  1  0
 20 21  2  0
 21 22  1  0
 22 23  1  0
 23 24  1  0
 24 25  2  0
 25 26  1  0
 26 27  2  0
 27 28  1  0
 28 29  2  0
 21 30  1  0
 30 31  2  0
 31  2  1  0
 16  5  1  0
 31 18  1  0
 15 12  1  0
 29 24  1  0
  3 32  1  0
  3 33  1  0
  6 34  1  0
  7 35  1  0
  8 36  1  0
 13 37  1  0
 13 38  1  0
 14 39  1  0
 14 40  1  0
 15 41  1  0
 15 42  1  0
 16 43  1  0
 19 44  1  0
 20 45  1  0
 23 46  1  0
 23 47  1  0
 25 48  1  0
 26 49  1  0
 27 50  1  0
 29 51  1  0
 30 52  1  0
M  END
>  <smiles>  (41) 
O=C1CC(c2cccc(C(=O)N3CCC3)c2)=Nc2ccc(OCc3cccnc3)cc21

>  <score_type>  (41) 
oracle

>  <origin>  (41) 
autodockgpu

>  <m_score__min__energy>  (41) 
-8.8699999999999992

>  <m_primary>  (41) 
energy

>  <rmsd>  (41) 
6.516549054706169

>  <m_score__min__rmsd>  (41) 
6.516549054706169

>  <meeko>  (41) 
{"free_energy": -8.45, "intermolecular_energy": -9.94, "internal_energy": -0.99, "cluster_size": 37, "cluster_id": 1, "rank_in_cluster": 31}

>  <energy>  (41) 
-8.23

>  <cluster_rmsd>  (41) 
0.11

>  <cluster>  (41) 
3

$$$$

     RDKit          3D

 52 56  0  0  0  0  0  0  0  0999 V2000
  143.0640   73.7230  220.1070 O   0  0  0  0  0  0  0  0  0  0  0  0
  142.0500   73.6460  220.8220 C   0  0  0  0  0  0  0  0  0  0  0  0
  141.6250   72.3120  221.3260 C   0  0  0  0  0  0  0  0  0  0  0  0
  140.3950   72.4100  222.1570 C   0  0  0  0  0  0  0  0  0  0  0  0
  139.8570   71.1680  222.7260 C   0  0  0  0  0  0  0  0  0  0  0  0
  139.0810   70.3130  221.9660 C   0  0  0  0  0  0  0  0  0  0  0  0
  138.5990   69.1560  222.5360 C   0  0  0  0  0  0  0  0  0  0  0  0
  138.9020   68.8760  223.8560 C   0  0  0  0  0  0  0  0  0  0  0  0
  139.6650   69.6920  224.6500 C   0  0  0  0  0  0  0  0  0  0  0  0
  139.9970   69.4340  226.0370 C   0  0  0  0  0  0  0  0  0  0  0  0
  139.8590   68.2480  226.4460 O   0  0  0  0  0  0  0  0  0  0  0  0
  140.4660   70.4580  226.9320 N   0  0  0  0  0  0  0  0  0  0  0  0
  140.7580   71.8680  226.9250 C   0  0  0  0  0  0  0  0  0  0  0  0
  141.4440   71.7500  228.2450 C   0  0  0  0  0  0  0  0  0  0  0  0
  140.8510   70.3870  228.3170 C   0  0  0  0  0  0  0  0  0  0  0  0
  140.1400   70.8610  224.0370 C   0  0  0  0  0  0  0  0  0  0  0  0
  139.8050   73.5320  222.3890 N   0  0  0  0  0  0  0  0  0  0  0  0
  140.1990   74.7930  221.9200 C   0  0  0  0  0  0  0  0  0  0  0  0
  139.5200   75.9650  222.2130 C   0  0  0  0  0  0  0  0  0  0  0  0
  139.9460   77.2000  221.7340 C   0  0  0  0  0  0  0  0  0  0  0  0
  141.0790   77.2780  220.9420 C   0  0  0  0  0  0  0  0  0  0  0  0
  141.5540   78.4650  220.4400 O   0  0  0  0  0  0  0  0  0  0  0  0
  141.0150   79.7400  220.6590 C   0  0  0  0  0  0  0  0  0  0  0  0
  141.6150   80.2440  221.9460 C   0  0  0  0  0  0  0  0  0  0  0  0
  140.9840   81.1540  222.7510 C   0  0  0  0  0  0  0  0  0  0  0  0
  141.5590   81.5990  223.9220 C   0  0  0  0  0  0  0  0  0  0  0  0
  142.8070   81.0680  224.2260 C   0  0  0  0  0  0  0  0  0  0  0  0
  143.4450   80.1790  223.4620 N   0  0  0  0  0  0  0  0  0  0  0  0
  142.8740   79.7560  222.3280 C   0  0  0  0  0  0  0  0  0  0  0  0
  141.7330   76.0960  220.6670 C   0  0  0  0  0  0  0  0  0  0  0  0
  141.3360   74.8790  221.1230 C   0  0  0  0  0  0  0  0  0  0  0  0
  141.4254   71.6528  220.4683 H   0  0  0  0  0  0  0  0  0  0  0  0
  142.4332   71.9059  221.9521 H   0  0  0  0  0  0  0  0  0  0  0  0
  138.8511   70.5542  220.9177 H   0  0  0  0  0  0  0  0  0  0  0  0
  137.9800   68.4623  221.9481 H   0  0  0  0  0  0  0  0  0  0  0  0
  138.5086   67.9464  224.2931 H   0  0  0  0  0  0  0  0  0  0  0  0
  141.4196   72.1829  226.1046 H   0  0  0  0  0  0  0  0  0  0  0  0
  139.9464   72.5980  226.7893 H   0  0  0  0  0  0  0  0  0  0  0  0
  142.5428   71.7763  228.2010 H   0  0  0  0  0  0  0  0  0  0  0  0
  141.3154   72.4930  229.0459 H   0  0  0  0  0  0  0  0  0  0  0  0
  141.5813   69.5942  228.5366 H   0  0  0  0  0  0  0  0  0  0  0  0
  140.0983   70.1555  229.0850 H   0  0  0  0  0  0  0  0  0  0  0  0
  140.7593   71.5552  224.6240 H   0  0  0  0  0  0  0  0  0  0  0  0
  138.6188   75.9176  222.8420 H   0  0  0  0  0  0  0  0  0  0  0  0
  139.3841   78.1120  221.9839 H   0  0  0  0  0  0  0  0  0  0  0  0
  141.2784   80.4115  219.8285 H   0  0  0  0  0  0  0  0  0  0  0  0
  139.9174   79.7022  220.7203 H   0  0  0  0  0  0  0  0  0  0  0  0
  139.9963   81.5385  222.4568 H   0  0  0  0  0  0  0  0  0  0  0  0
  141.0607   82.3297  224.5760 H   0  0  0  0  0  0  0  0  0  0  0  0
  143.2985   81.4006  225.1522 H   0  0  0  0  0  0  0  0  0  0  0  0
  143.3934   79.0231  221.6931 H   0  0  0  0  0  0  0  0  0  0  0  0
  142.6343   76.1409  220.0380 H   0  0  0  0  0  0  0  0  0  0  0  0
  1  2  2  0
  2  3  1  0
  3  4  1  0
  4  5  1  0
  5  6  2  0
  6  7  1  0
  7  8  2  0
  8  9  1  0
  9 10  1  0
 10 11  2  0
 10 12  1  0
 12 13  1  0
 13 14  1  0
 14 15  1  0
  9 16  2  0
  4 17  2  0
 17 18  1  0
 18 19  2  0
 19 20  1  0
 20 21  2  0
 21 22  1  0
 22 23  1  0
 23 24  1  0
 24 25  2  0
 25 26  1  0
 26 27  2  0
 27 28  1  0
 28 29  2  0
 21 30  1  0
 30 31  2  0
 31  2  1  0
 16  5  1  0
 31 18  1  0
 15 12  1  0
 29 24  1  0
  3 32  1  0
  3 33  1  0
  6 34  1  0
  7 35  1  0
  8 36  1  0
 13 37  1  0
 13 38  1  0
 14 39  1  0
 14 40  1  0
 15 41  1  0
 15 42  1  0
 16 43  1  0
 19 44  1  0
 20 45  1  0
 23 46  1  0
 23 47  1  0
 25 48  1  0
 26 49  1  0
 27 50  1  0
 29 51  1  0
 30 52  1  0
M  END
>  <smiles>  (42) 
O=C1CC(c2cccc(C(=O)N3CCC3)c2)=Nc2ccc(OCc3cccnc3)cc21

>  <score_type>  (42) 
oracle

>  <origin>  (42) 
autodockgpu

>  <m_score__min__energy>  (42) 
-8.8699999999999992

>  <m_primary>  (42) 
energy

>  <rmsd>  (42) 
6.359200453940977

>  <m_score__min__rmsd>  (42) 
6.359200453940977

>  <meeko>  (42) 
{"free_energy": -8.57, "intermolecular_energy": -10.07, "internal_energy": -0.96, "cluster_size": 37, "cluster_id": 1, "rank_in_cluster": 19}

>  <energy>  (42) 
-8.23

>  <cluster_rmsd>  (42) 
0.13

>  <cluster>  (42) 
3

$$$$

     RDKit          3D

 52 56  0  0  0  0  0  0  0  0999 V2000
  136.6360   73.5040  221.7620 O   0  0  0  0  0  0  0  0  0  0  0  0
  137.8730   73.6050  221.8350 C   0  0  0  0  0  0  0  0  0  0  0  0
  138.5270   74.8300  221.3030 C   0  0  0  0  0  0  0  0  0  0  0  0
  140.0040   74.7750  221.4700 C   0  0  0  0  0  0  0  0  0  0  0  0
  140.7880   75.9210  220.9900 C   0  0  0  0  0  0  0  0  0  0  0  0
  141.7940   75.7560  220.0570 C   0  0  0  0  0  0  0  0  0  0  0  0
  142.5020   76.8570  219.6290 C   0  0  0  0  0  0  0  0  0  0  0  0
  142.1900   78.1030  220.1420 C   0  0  0  0  0  0  0  0  0  0  0  0
  141.2030   78.3160  221.0680 C   0  0  0  0  0  0  0  0  0  0  0  0
  140.8530   79.6050  221.6330 C   0  0  0  0  0  0  0  0  0  0  0  0
  139.7630   80.1160  221.2550 O   0  0  0  0  0  0  0  0  0  0  0  0
  141.6830   80.2940  222.5840 N   0  0  0  0  0  0  0  0  0  0  0  0
  142.9380   80.1210  223.2680 C   0  0  0  0  0  0  0  0  0  0  0  0
  142.6140   81.2540  224.1850 C   0  0  0  0  0  0  0  0  0  0  0  0
  141.4950   81.5550  223.2520 C   0  0  0  0  0  0  0  0  0  0  0  0
  140.5020   77.1740  221.4820 C   0  0  0  0  0  0  0  0  0  0  0  0
  140.6020   73.7720  222.0160 N   0  0  0  0  0  0  0  0  0  0  0  0
  139.9940   72.6150  222.5220 C   0  0  0  0  0  0  0  0  0  0  0  0
  140.6970   71.5730  223.1040 C   0  0  0  0  0  0  0  0  0  0  0  0
  140.0570   70.4420  223.6010 C   0  0  0  0  0  0  0  0  0  0  0  0
  138.6780   70.3390  223.5200 C   0  0  0  0  0  0  0  0  0  0  0  0
  137.9850   69.2520  223.9940 O   0  0  0  0  0  0  0  0  0  0  0  0
  137.5680   69.0370  225.3140 C   0  0  0  0  0  0  0  0  0  0  0  0
  138.8140   68.7770  226.1200 C   0  0  0  0  0  0  0  0  0  0  0  0
  139.2280   69.6030  227.1300 C   0  0  0  0  0  0  0  0  0  0  0  0
  140.3750   69.3410  227.8490 C   0  0  0  0  0  0  0  0  0  0  0  0
  141.0720   68.1960  227.4850 C   0  0  0  0  0  0  0  0  0  0  0  0
  140.6920   67.3710  226.5070 N   0  0  0  0  0  0  0  0  0  0  0  0
  139.5760   67.6390  225.8170 C   0  0  0  0  0  0  0  0  0  0  0  0
  138.0060   71.3910  222.9350 C   0  0  0  0  0  0  0  0  0  0  0  0
  138.6090   72.5050  222.4430 C   0  0  0  0  0  0  0  0  0  0  0  0
  138.2915   74.9250  220.2327 H   0  0  0  0  0  0  0  0  0  0  0  0
  138.1478   75.6960  221.8654 H   0  0  0  0  0  0  0  0  0  0  0  0
  142.0266   74.7566  219.6607 H   0  0  0  0  0  0  0  0  0  0  0  0
  143.3068   76.7467  218.8873 H   0  0  0  0  0  0  0  0  0  0  0  0
  142.7659   78.9704  219.7871 H   0  0  0  0  0  0  0  0  0  0  0  0
  143.0396   79.1506  223.7759 H   0  0  0  0  0  0  0  0  0  0  0  0
  143.8800   80.1241  222.7000 H   0  0  0  0  0  0  0  0  0  0  0  0
  142.3062   80.9574  225.1986 H   0  0  0  0  0  0  0  0  0  0  0  0
  143.3587   82.0089  224.4773 H   0  0  0  0  0  0  0  0  0  0  0  0
  140.5176   81.6560  223.7464 H   0  0  0  0  0  0  0  0  0  0  0  0
  141.5005   82.4896  222.6718 H   0  0  0  0  0  0  0  0  0  0  0  0
  139.6974   77.2834  222.2241 H   0  0  0  0  0  0  0  0  0  0  0  0
  141.7925   71.6417  223.1753 H   0  0  0  0  0  0  0  0  0  0  0  0
  140.6446   69.6316  224.0571 H   0  0  0  0  0  0  0  0  0  0  0  0
  137.0463   69.9264  225.6972 H   0  0  0  0  0  0  0  0  0  0  0  0
  136.8696   68.1895  225.3772 H   0  0  0  0  0  0  0  0  0  0  0  0
  138.6326   70.4953  227.3734 H   0  0  0  0  0  0  0  0  0  0  0  0
  140.7173   69.9988  228.6615 H   0  0  0  0  0  0  0  0  0  0  0  0
  141.9929   67.9545  228.0361 H   0  0  0  0  0  0  0  0  0  0  0  0
  139.2557   66.9641  225.0096 H   0  0  0  0  0  0  0  0  0  0  0  0
  136.9105   71.3243  222.8617 H   0  0  0  0  0  0  0  0  0  0  0  0
  1  2  2  0
  2  3  1  0
  3  4  1  0
  4  5  1  0
  5  6  2  0
  6  7  1  0
  7  8  2  0
  8  9  1  0
  9 10  1  0
 10 11  2  0
 10 12  1  0
 12 13  1  0
 13 14  1  0
 14 15  1  0
  9 16  2  0
  4 17  2  0
 17 18  1  0
 18 19  2  0
 19 20  1  0
 20 21  2  0
 21 22  1  0
 22 23  1  0
 23 24  1  0
 24 25  2  0
 25 26  1  0
 26 27  2  0
 27 28  1  0
 28 29  2  0
 21 30  1  0
 30 31  2  0
 31  2  1  0
 16  5  1  0
 31 18  1  0
 15 12  1  0
 29 24  1  0
  3 32  1  0
  3 33  1  0
  6 34  1  0
  7 35  1  0
  8 36  1  0
 13 37  1  0
 13 38  1  0
 14 39  1  0
 14 40  1  0
 15 41  1  0
 15 42  1  0
 16 43  1  0
 19 44  1  0
 20 45  1  0
 23 46  1  0
 23 47  1  0
 25 48  1  0
 26 49  1  0
 27 50  1  0
 29 51  1  0
 30 52  1  0
M  END
>  <smiles>  (43) 
O=C1CC(c2cccc(C(=O)N3CCC3)c2)=Nc2ccc(OCc3cccnc3)cc21

>  <score_type>  (43) 
oracle

>  <origin>  (43) 
autodockgpu

>  <m_score__min__energy>  (43) 
-8.8699999999999992

>  <m_primary>  (43) 
energy

>  <rmsd>  (43) 
7.799085699341276

>  <m_score__min__rmsd>  (43) 
7.799085699341276

>  <meeko>  (43) 
{"free_energy": -8.01, "intermolecular_energy": -9.5, "internal_energy": -1.06, "cluster_size": 1, "cluster_id": 4, "rank_in_cluster": 1}

>  <energy>  (43) 
-8.23

>  <cluster_rmsd>  (43) 
0.12

>  <cluster>  (43) 
3

$$$$

     RDKit          3D

 52 56  0  0  0  0  0  0  0  0999 V2000
  142.6880   73.0380  220.0290 O   0  0  0  0  0  0  0  0  0  0  0  0
  141.6950   73.1360  220.7720 C   0  0  0  0  0  0  0  0  0  0  0  0
  141.0240   71.8950  221.2430 C   0  0  0  0  0  0  0  0  0  0  0  0
  139.8570   72.2030  222.1130 C   0  0  0  0  0  0  0  0  0  0  0  0
  139.0940   71.0720  222.6550 C   0  0  0  0  0  0  0  0  0  0  0  0
  137.9020   70.6750  222.0810 C   0  0  0  0  0  0  0  0  0  0  0  0
  137.2190   69.6060  222.6170 C   0  0  0  0  0  0  0  0  0  0  0  0
  137.7430   68.9540  223.7190 C   0  0  0  0  0  0  0  0  0  0  0  0
  138.9190   69.3110  224.3240 C   0  0  0  0  0  0  0  0  0  0  0  0
  139.4940   68.6560  225.4820 C   0  0  0  0  0  0  0  0  0  0  0  0
  139.5410   67.3950  225.4600 O   0  0  0  0  0  0  0  0  0  0  0  0
  139.9990   69.3790  226.6190 N   0  0  0  0  0  0  0  0  0  0  0  0
  140.1470   70.7370  227.0750 C   0  0  0  0  0  0  0  0  0  0  0  0
  141.0450   70.2870  228.1790 C   0  0  0  0  0  0  0  0  0  0  0  0
  140.6070   68.9070  227.8350 C   0  0  0  0  0  0  0  0  0  0  0  0
  139.5880   70.4030  223.7510 C   0  0  0  0  0  0  0  0  0  0  0  0
  139.5080   73.4100  222.3990 N   0  0  0  0  0  0  0  0  0  0  0  0
  140.1360   74.5850  221.9620 C   0  0  0  0  0  0  0  0  0  0  0  0
  139.7100   75.8560  222.3130 C   0  0  0  0  0  0  0  0  0  0  0  0
  140.3640   77.0000  221.8640 C   0  0  0  0  0  0  0  0  0  0  0  0
  141.4720   76.8820  221.0410 C   0  0  0  0  0  0  0  0  0  0  0  0
  142.1630   77.9690  220.5660 O   0  0  0  0  0  0  0  0  0  0  0  0
  141.6500   79.2540  220.3470 C   0  0  0  0  0  0  0  0  0  0  0  0
  141.8660   80.0260  221.6220 C   0  0  0  0  0  0  0  0  0  0  0  0
  142.5520   79.5130  222.6910 C   0  0  0  0  0  0  0  0  0  0  0  0
  142.7320   80.2420  223.8470 C   0  0  0  0  0  0  0  0  0  0  0  0
  142.1780   81.5160  223.8540 C   0  0  0  0  0  0  0  0  0  0  0  0
  141.5060   82.0430  222.8280 N   0  0  0  0  0  0  0  0  0  0  0  0
  141.3400   81.3230  221.7120 C   0  0  0  0  0  0  0  0  0  0  0  0
  141.8700   75.6050  220.7080 C   0  0  0  0  0  0  0  0  0  0  0  0
  141.2480   74.4740  221.1350 C   0  0  0  0  0  0  0  0  0  0  0  0
  140.6778   71.3224  220.3699 H   0  0  0  0  0  0  0  0  0  0  0  0
  141.7487   71.3125  221.8308 H   0  0  0  0  0  0  0  0  0  0  0  0
  137.5025   71.2071  221.2050 H   0  0  0  0  0  0  0  0  0  0  0  0
  136.2682   69.2745  222.1742 H   0  0  0  0  0  0  0  0  0  0  0  0
  137.1842   68.1015  224.1324 H   0  0  0  0  0  0  0  0  0  0  0  0
  140.6339   71.4020  226.3465 H   0  0  0  0  0  0  0  0  0  0  0  0
  139.2567   71.3421  227.3012 H   0  0  0  0  0  0  0  0  0  0  0  0
  142.1145   70.4881  228.0186 H   0  0  0  0  0  0  0  0  0  0  0  0
  140.9753   70.6918  229.1994 H   0  0  0  0  0  0  0  0  0  0  0  0
  141.4369   68.2032  227.6742 H   0  0  0  0  0  0  0  0  0  0  0  0
  140.0137   68.3240  228.5549 H   0  0  0  0  0  0  0  0  0  0  0  0
  140.5390   70.7353  224.1927 H   0  0  0  0  0  0  0  0  0  0  0  0
  138.8304   75.9641  222.9647 H   0  0  0  0  0  0  0  0  0  0  0  0
  140.0019   77.9950  222.1620 H   0  0  0  0  0  0  0  0  0  0  0  0
  142.1821   79.7385  219.5151 H   0  0  0  0  0  0  0  0  0  0  0  0
  140.5830   79.2156  220.0821 H   0  0  0  0  0  0  0  0  0  0  0  0
  142.9684   78.4970  222.6255 H   0  0  0  0  0  0  0  0  0  0  0  0
  143.2808   79.8395  224.7112 H   0  0  0  0  0  0  0  0  0  0  0  0
  142.3005   82.1276  224.7600 H   0  0  0  0  0  0  0  0  0  0  0  0
  140.7885   81.7504  220.8616 H   0  0  0  0  0  0  0  0  0  0  0  0
  142.7477   75.4938  220.0544 H   0  0  0  0  0  0  0  0  0  0  0  0
  1  2  2  0
  2  3  1  0
  3  4  1  0
  4  5  1  0
  5  6  2  0
  6  7  1  0
  7  8  2  0
  8  9  1  0
  9 10  1  0
 10 11  2  0
 10 12  1  0
 12 13  1  0
 13 14  1  0
 14 15  1  0
  9 16  2  0
  4 17  2  0
 17 18  1  0
 18 19  2  0
 19 20  1  0
 20 21  2  0
 21 22  1  0
 22 23  1  0
 23 24  1  0
 24 25  2  0
 25 26  1  0
 26 27  2  0
 27 28  1  0
 28 29  2  0
 21 30  1  0
 30 31  2  0
 31  2  1  0
 16  5  1  0
 31 18  1  0
 15 12  1  0
 29 24  1  0
  3 32  1  0
  3 33  1  0
  6 34  1  0
  7 35  1  0
  8 36  1  0
 13 37  1  0
 13 38  1  0
 14 39  1  0
 14 40  1  0
 15 41  1  0
 15 42  1  0
 16 43  1  0
 19 44  1  0
 20 45  1  0
 23 46  1  0
 23 47  1  0
 25 48  1  0
 26 49  1  0
 27 50  1  0
 29 51  1  0
 30 52  1  0
M  END
>  <smiles>  (44) 
O=C1CC(c2cccc(C(=O)N3CCC3)c2)=Nc2ccc(OCc3cccnc3)cc21

>  <score_type>  (44) 
oracle

>  <origin>  (44) 
autodockgpu

>  <m_score__min__energy>  (44) 
-8.8699999999999992

>  <m_primary>  (44) 
energy

>  <rmsd>  (44) 
6.262413745551648

>  <m_score__min__rmsd>  (44) 
6.262413745551648

>  <meeko>  (44) 
{"free_energy": -8.74, "intermolecular_energy": -10.23, "internal_energy": -0.99, "cluster_size": 37, "cluster_id": 1, "rank_in_cluster": 7}

>  <energy>  (44) 
-8.21

>  <cluster_rmsd>  (44) 
0.21

>  <cluster>  (44) 
3

$$$$

     RDKit          3D

 52 56  0  0  0  0  0  0  0  0999 V2000
  143.0560   74.5410  219.5760 O   0  0  0  0  0  0  0  0  0  0  0  0
  142.1000   74.4810  220.3700 C   0  0  0  0  0  0  0  0  0  0  0  0
  141.8240   73.1960  221.0670 C   0  0  0  0  0  0  0  0  0  0  0  0
  140.6470   73.3080  221.9690 C   0  0  0  0  0  0  0  0  0  0  0  0
  140.2540   72.1140  222.7280 C   0  0  0  0  0  0  0  0  0  0  0  0
  139.4730   71.1290  222.1540 C   0  0  0  0  0  0  0  0  0  0  0  0
  139.1310   70.0230  222.8980 C   0  0  0  0  0  0  0  0  0  0  0  0
  139.5760   69.9220  224.2040 C   0  0  0  0  0  0  0  0  0  0  0  0
  140.3490   70.8720  224.8170 C   0  0  0  0  0  0  0  0  0  0  0  0
  140.8280   70.8040  226.1840 C   0  0  0  0  0  0  0  0  0  0  0  0
  141.3770   71.8420  226.6480 O   0  0  0  0  0  0  0  0  0  0  0  0
  140.6960   69.6280  227.0020 N   0  0  0  0  0  0  0  0  0  0  0  0
  140.1800   68.2870  226.9150 C   0  0  0  0  0  0  0  0  0  0  0  0
  140.3010   68.1250  228.3940 C   0  0  0  0  0  0  0  0  0  0  0  0
  141.0940   69.3850  228.3630 C   0  0  0  0  0  0  0  0  0  0  0  0
  140.6800   71.9850  224.0300 C   0  0  0  0  0  0  0  0  0  0  0  0
  139.9790   74.4030  222.1020 N   0  0  0  0  0  0  0  0  0  0  0  0
  140.2330   75.6180  221.4510 C   0  0  0  0  0  0  0  0  0  0  0  0
  139.4760   76.7620  221.6440 C   0  0  0  0  0  0  0  0  0  0  0  0
  139.7640   77.9530  220.9840 C   0  0  0  0  0  0  0  0  0  0  0  0
  140.8330   78.0130  220.1050 C   0  0  0  0  0  0  0  0  0  0  0  0
  141.1710   79.1570  219.4240 O   0  0  0  0  0  0  0  0  0  0  0  0
  142.1400   80.0970  219.7990 C   0  0  0  0  0  0  0  0  0  0  0  0
  141.9610   80.3320  221.2760 C   0  0  0  0  0  0  0  0  0  0  0  0
  142.5820   79.5690  222.2280 C   0  0  0  0  0  0  0  0  0  0  0  0
  142.3970   79.8060  223.5730 C   0  0  0  0  0  0  0  0  0  0  0  0
  141.5480   80.8590  223.8940 C   0  0  0  0  0  0  0  0  0  0  0  0
  140.9300   81.6200  222.9880 N   0  0  0  0  0  0  0  0  0  0  0  0
  141.1200   81.3770  221.6860 C   0  0  0  0  0  0  0  0  0  0  0  0
  141.5660   76.8590  219.9330 C   0  0  0  0  0  0  0  0  0  0  0  0
  141.3040   75.6850  220.5660 C   0  0  0  0  0  0  0  0  0  0  0  0
  141.6261   72.4171  220.3159 H   0  0  0  0  0  0  0  0  0  0  0  0
  142.7028   72.9377  221.6762 H   0  0  0  0  0  0  0  0  0  0  0  0
  139.1286   71.2279  221.1140 H   0  0  0  0  0  0  0  0  0  0  0  0
  138.5105   69.2278  222.4590 H   0  0  0  0  0  0  0  0  0  0  0  0
  139.2935   69.0297  224.7818 H   0  0  0  0  0  0  0  0  0  0  0  0
  139.1465   68.2297  226.5428 H   0  0  0  0  0  0  0  0  0  0  0  0
  140.6529   67.5578  226.2408 H   0  0  0  0  0  0  0  0  0  0  0  0
  139.3522   68.1869  228.9471 H   0  0  0  0  0  0  0  0  0  0  0  0
  140.6765   67.2014  228.8588 H   0  0  0  0  0  0  0  0  0  0  0  0
  140.7443   70.1492  229.0728 H   0  0  0  0  0  0  0  0  0  0  0  0
  142.1614   69.3685  228.6282 H   0  0  0  0  0  0  0  0  0  0  0  0
  141.3004   72.7807  224.4681 H   0  0  0  0  0  0  0  0  0  0  0  0
  138.6235   76.7281  222.3383 H   0  0  0  0  0  0  0  0  0  0  0  0
  139.1442   78.8446  221.1599 H   0  0  0  0  0  0  0  0  0  0  0  0
  143.1477   79.7052  219.5962 H   0  0  0  0  0  0  0  0  0  0  0  0
  142.0266   81.0324  219.2314 H   0  0  0  0  0  0  0  0  0  0  0  0
  143.2433   78.7486  221.9124 H   0  0  0  0  0  0  0  0  0  0  0  0
  142.8912   79.1988  224.3457 H   0  0  0  0  0  0  0  0  0  0  0  0
  141.3752   81.0782  224.9580 H   0  0  0  0  0  0  0  0  0  0  0  0
  140.6142   81.9998  220.9335 H   0  0  0  0  0  0  0  0  0  0  0  0
  142.4184   76.8898  219.2384 H   0  0  0  0  0  0  0  0  0  0  0  0
  1  2  2  0
  2  3  1  0
  3  4  1  0
  4  5  1  0
  5  6  2  0
  6  7  1  0
  7  8  2  0
  8  9  1  0
  9 10  1  0
 10 11  2  0
 10 12  1  0
 12 13  1  0
 13 14  1  0
 14 15  1  0
  9 16  2  0
  4 17  2  0
 17 18  1  0
 18 19  2  0
 19 20  1  0
 20 21  2  0
 21 22  1  0
 22 23  1  0
 23 24  1  0
 24 25  2  0
 25 26  1  0
 26 27  2  0
 27 28  1  0
 28 29  2  0
 21 30  1  0
 30 31  2  0
 31  2  1  0
 16  5  1  0
 31 18  1  0
 15 12  1  0
 29 24  1  0
  3 32  1  0
  3 33  1  0
  6 34  1  0
  7 35  1  0
  8 36  1  0
 13 37  1  0
 13 38  1  0
 14 39  1  0
 14 40  1  0
 15 41  1  0
 15 42  1  0
 16 43  1  0
 19 44  1  0
 20 45  1  0
 23 46  1  0
 23 47  1  0
 25 48  1  0
 26 49  1  0
 27 50  1  0
 29 51  1  0
 30 52  1  0
M  END
>  <smiles>  (45) 
O=C1CC(c2cccc(C(=O)N3CCC3)c2)=Nc2ccc(OCc3cccnc3)cc21

>  <score_type>  (45) 
oracle

>  <origin>  (45) 
autodockgpu

>  <m_score__min__energy>  (45) 
-8.8699999999999992

>  <m_primary>  (45) 
energy

>  <rmsd>  (45) 
7.35191243621671

>  <m_score__min__rmsd>  (45) 
7.35191243621671

>  <meeko>  (45) 
{"free_energy": -8.55, "intermolecular_energy": -10.04, "internal_energy": -1.11, "cluster_size": 37, "cluster_id": 1, "rank_in_cluster": 24}

>  <energy>  (45) 
-8.01

>  <cluster_rmsd>  (45) 
0.0

>  <cluster>  (45) 
4

$$$$

     RDKit          3D

 52 56  0  0  0  0  0  0  0  0999 V2000
  142.9330   72.9990  220.4130 O   0  0  0  0  0  0  0  0  0  0  0  0
  141.8530   73.1020  221.0210 C   0  0  0  0  0  0  0  0  0  0  0  0
  141.1790   71.8670  221.5030 C   0  0  0  0  0  0  0  0  0  0  0  0
  139.9030   72.1800  222.2000 C   0  0  0  0  0  0  0  0  0  0  0  0
  139.1240   71.0550  222.7340 C   0  0  0  0  0  0  0  0  0  0  0  0
  137.9960   70.5950  222.0810 C   0  0  0  0  0  0  0  0  0  0  0  0
  137.2970   69.5350  222.6120 C   0  0  0  0  0  0  0  0  0  0  0  0
  137.7390   68.9540  223.7870 C   0  0  0  0  0  0  0  0  0  0  0  0
  138.8490   69.3750  224.4710 C   0  0  0  0  0  0  0  0  0  0  0  0
  139.3370   68.7960  225.7070 C   0  0  0  0  0  0  0  0  0  0  0  0
  139.2220   67.5460  225.8360 O   0  0  0  0  0  0  0  0  0  0  0  0
  139.9340   69.5800  226.7560 N   0  0  0  0  0  0  0  0  0  0  0  0
  140.2560   70.9520  227.0480 C   0  0  0  0  0  0  0  0  0  0  0  0
  141.0910   70.5270  228.2100 C   0  0  0  0  0  0  0  0  0  0  0  0
  140.4790   69.1830  228.0270 C   0  0  0  0  0  0  0  0  0  0  0  0
  139.5370   70.4560  223.9020 C   0  0  0  0  0  0  0  0  0  0  0  0
  139.4730   73.3860  222.3470 N   0  0  0  0  0  0  0  0  0  0  0  0
  140.1020   74.5550  221.8980 C   0  0  0  0  0  0  0  0  0  0  0  0
  139.5870   75.8260  222.0960 C   0  0  0  0  0  0  0  0  0  0  0  0
  140.2450   76.9650  221.6410 C   0  0  0  0  0  0  0  0  0  0  0  0
  141.4500   76.8420  220.9680 C   0  0  0  0  0  0  0  0  0  0  0  0
  142.1500   77.9240  220.4960 O   0  0  0  0  0  0  0  0  0  0  0  0
  141.6550   79.2220  220.3070 C   0  0  0  0  0  0  0  0  0  0  0  0
  141.8860   79.9620  221.5980 C   0  0  0  0  0  0  0  0  0  0  0  0
  142.5560   79.4110  222.6570 C   0  0  0  0  0  0  0  0  0  0  0  0
  142.7500   80.1120  223.8290 C   0  0  0  0  0  0  0  0  0  0  0  0
  142.2270   81.3980  223.8610 C   0  0  0  0  0  0  0  0  0  0  0  0
  141.5710   81.9620  222.8440 N   0  0  0  0  0  0  0  0  0  0  0  0
  141.3900   81.2690  221.7130 C   0  0  0  0  0  0  0  0  0  0  0  0
  141.9370   75.5650  220.7860 C   0  0  0  0  0  0  0  0  0  0  0  0
  141.3120   74.4390  221.2220 C   0  0  0  0  0  0  0  0  0  0  0  0
  140.9659   71.2166  220.6419 H   0  0  0  0  0  0  0  0  0  0  0  0
  141.8482   71.3643  222.2167 H   0  0  0  0  0  0  0  0  0  0  0  0
  137.6608   71.0707  221.1475 H   0  0  0  0  0  0  0  0  0  0  0  0
  136.3968   69.1540  222.1076 H   0  0  0  0  0  0  0  0  0  0  0  0
  137.1677   68.1071  224.1948 H   0  0  0  0  0  0  0  0  0  0  0  0
  140.8228   71.4568  226.2518 H   0  0  0  0  0  0  0  0  0  0  0  0
  139.4513   71.6888  227.1882 H   0  0  0  0  0  0  0  0  0  0  0  0
  142.1772   70.5694  228.0413 H   0  0  0  0  0  0  0  0  0  0  0  0
  141.0757   71.0569  229.1738 H   0  0  0  0  0  0  0  0  0  0  0  0
  141.2115   68.3649  227.9619 H   0  0  0  0  0  0  0  0  0  0  0  0
  139.8176   68.7706  228.8032 H   0  0  0  0  0  0  0  0  0  0  0  0
  140.4370   70.8381  224.4061 H   0  0  0  0  0  0  0  0  0  0  0  0
  138.6308   75.9381  222.6280 H   0  0  0  0  0  0  0  0  0  0  0  0
  139.8096   77.9600  221.8152 H   0  0  0  0  0  0  0  0  0  0  0  0
  142.1918   79.7170  219.4843 H   0  0  0  0  0  0  0  0  0  0  0  0
  140.5869   79.2053  220.0447 H   0  0  0  0  0  0  0  0  0  0  0  0
  142.9482   78.3869  222.5714 H   0  0  0  0  0  0  0  0  0  0  0  0
  143.2863   79.6787  224.6861 H   0  0  0  0  0  0  0  0  0  0  0  0
  142.3613   81.9877  224.7798 H   0  0  0  0  0  0  0  0  0  0  0  0
  140.8502   81.7263  220.8706 H   0  0  0  0  0  0  0  0  0  0  0  0
  142.8927   75.4498  220.2538 H   0  0  0  0  0  0  0  0  0  0  0  0
  1  2  2  0
  2  3  1  0
  3  4  1  0
  4  5  1  0
  5  6  2  0
  6  7  1  0
  7  8  2  0
  8  9  1  0
  9 10  1  0
 10 11  2  0
 10 12  1  0
 12 13  1  0
 13 14  1  0
 14 15  1  0
  9 16  2  0
  4 17  2  0
 17 18  1  0
 18 19  2  0
 19 20  1  0
 20 21  2  0
 21 22  1  0
 22 23  1  0
 23 24  1  0
 24 25  2  0
 25 26  1  0
 26 27  2  0
 27 28  1  0
 28 29  2  0
 21 30  1  0
 30 31  2  0
 31  2  1  0
 16  5  1  0
 31 18  1  0
 15 12  1  0
 29 24  1  0
  3 32  1  0
  3 33  1  0
  6 34  1  0
  7 35  1  0
  8 36  1  0
 13 37  1  0
 13 38  1  0
 14 39  1  0
 14 40  1  0
 15 41  1  0
 15 42  1  0
 16 43  1  0
 19 44  1  0
 20 45  1  0
 23 46  1  0
 23 47  1  0
 25 48  1  0
 26 49  1  0
 27 50  1  0
 29 51  1  0
 30 52  1  0
M  END
>  <smiles>  (46) 
O=C1CC(c2cccc(C(=O)N3CCC3)c2)=Nc2ccc(OCc3cccnc3)cc21

>  <score_type>  (46) 
oracle

>  <origin>  (46) 
autodockgpu

>  <m_score__min__energy>  (46) 
-8.8699999999999992

>  <m_primary>  (46) 
energy

>  <rmsd>  (46) 
6.192180432135567

>  <m_score__min__rmsd>  (46) 
6.192180432135567

>  <meeko>  (46) 
{"free_energy": -8.83, "intermolecular_energy": -10.32, "internal_energy": -1.0, "cluster_size": 37, "cluster_id": 1, "rank_in_cluster": 4}

>  <energy>  (46) 
-8.0

>  <cluster_rmsd>  (46) 
0.0

>  <cluster>  (46) 
5

$$$$

     RDKit          3D

 52 56  0  0  0  0  0  0  0  0999 V2000
  142.6000   74.3890  219.1710 O   0  0  0  0  0  0  0  0  0  0  0  0
  141.8160   74.3650  220.1360 C   0  0  0  0  0  0  0  0  0  0  0  0
  141.5580   73.0700  220.8200 C   0  0  0  0  0  0  0  0  0  0  0  0
  140.5950   73.2290  221.9430 C   0  0  0  0  0  0  0  0  0  0  0  0
  140.2430   72.0300  222.7140 C   0  0  0  0  0  0  0  0  0  0  0  0
  139.5170   71.0020  222.1420 C   0  0  0  0  0  0  0  0  0  0  0  0
  139.2110   69.8930  222.8980 C   0  0  0  0  0  0  0  0  0  0  0  0
  139.6380   69.8320  224.2120 C   0  0  0  0  0  0  0  0  0  0  0  0
  140.3590   70.8240  224.8230 C   0  0  0  0  0  0  0  0  0  0  0  0
  140.8160   70.7980  226.1980 C   0  0  0  0  0  0  0  0  0  0  0  0
  141.3330   71.8580  226.6480 O   0  0  0  0  0  0  0  0  0  0  0  0
  140.7010   69.6370  227.0400 N   0  0  0  0  0  0  0  0  0  0  0  0
  140.2180   68.2820  226.9750 C   0  0  0  0  0  0  0  0  0  0  0  0
  140.3190   68.1560  228.4580 C   0  0  0  0  0  0  0  0  0  0  0  0
  141.0820   69.4330  228.4130 C   0  0  0  0  0  0  0  0  0  0  0  0
  140.6530   71.9390  224.0240 C   0  0  0  0  0  0  0  0  0  0  0  0
  140.0770   74.3680  222.2530 N   0  0  0  0  0  0  0  0  0  0  0  0
  140.3160   75.5930  221.6160 C   0  0  0  0  0  0  0  0  0  0  0  0
  139.7280   76.7860  222.0050 C   0  0  0  0  0  0  0  0  0  0  0  0
  139.9960   77.9850  221.3520 C   0  0  0  0  0  0  0  0  0  0  0  0
  140.8740   78.0040  220.2800 C   0  0  0  0  0  0  0  0  0  0  0  0
  141.1830   79.1530  219.5940 O   0  0  0  0  0  0  0  0  0  0  0  0
  142.1920   80.0710  219.9140 C   0  0  0  0  0  0  0  0  0  0  0  0
  142.0190   80.4090  221.3710 C   0  0  0  0  0  0  0  0  0  0  0  0
  142.7990   79.8640  222.3560 C   0  0  0  0  0  0  0  0  0  0  0  0
  142.6150   80.1900  223.6830 C   0  0  0  0  0  0  0  0  0  0  0  0
  141.5990   81.0990  223.9500 C   0  0  0  0  0  0  0  0  0  0  0  0
  140.8240   81.6480  223.0120 N   0  0  0  0  0  0  0  0  0  0  0  0
  141.0150   81.3210  221.7280 C   0  0  0  0  0  0  0  0  0  0  0  0
  141.4430   76.8030  219.9160 C   0  0  0  0  0  0  0  0  0  0  0  0
  141.1960   75.6200  220.5390 C   0  0  0  0  0  0  0  0  0  0  0  0
  141.1434   72.3575  220.0917 H   0  0  0  0  0  0  0  0  0  0  0  0
  142.5094   72.7010  221.2308 H   0  0  0  0  0  0  0  0  0  0  0  0
  139.1876   71.0694  221.0947 H   0  0  0  0  0  0  0  0  0  0  0  0
  138.6334   69.0647  222.4619 H   0  0  0  0  0  0  0  0  0  0  0  0
  139.3846   68.9371  224.7994 H   0  0  0  0  0  0  0  0  0  0  0  0
  139.1922   68.1918  226.5882 H   0  0  0  0  0  0  0  0  0  0  0  0
  140.7187   67.5495  226.3248 H   0  0  0  0  0  0  0  0  0  0  0  0
  139.3600   68.2071  228.9944 H   0  0  0  0  0  0  0  0  0  0  0  0
  140.7091   67.2520  228.9486 H   0  0  0  0  0  0  0  0  0  0  0  0
  140.7024   70.2035  229.1001 H   0  0  0  0  0  0  0  0  0  0  0  0
  142.1448   69.4480  228.6961 H   0  0  0  0  0  0  0  0  0  0  0  0
  141.2304   72.7679  224.4594 H   0  0  0  0  0  0  0  0  0  0  0  0
  139.0292   76.7850  222.8545 H   0  0  0  0  0  0  0  0  0  0  0  0
  139.5125   78.9150  221.6856 H   0  0  0  0  0  0  0  0  0  0  0  0
  143.1817   79.6222  219.7433 H   0  0  0  0  0  0  0  0  0  0  0  0
  142.1225   80.9719  219.2866 H   0  0  0  0  0  0  0  0  0  0  0  0
  143.5900   79.1502  222.0823 H   0  0  0  0  0  0  0  0  0  0  0  0
  143.2350   79.7567  224.4817 H   0  0  0  0  0  0  0  0  0  0  0  0
  141.4224   81.3836  224.9978 H   0  0  0  0  0  0  0  0  0  0  0  0
  140.3813   81.7699  220.9489 H   0  0  0  0  0  0  0  0  0  0  0  0
  142.1421   76.8012  219.0667 H   0  0  0  0  0  0  0  0  0  0  0  0
  1  2  2  0
  2  3  1  0
  3  4  1  0
  4  5  1  0
  5  6  2  0
  6  7  1  0
  7  8  2  0
  8  9  1  0
  9 10  1  0
 10 11  2  0
 10 12  1  0
 12 13  1  0
 13 14  1  0
 14 15  1  0
  9 16  2  0
  4 17  2  0
 17 18  1  0
 18 19  2  0
 19 20  1  0
 20 21  2  0
 21 22  1  0
 22 23  1  0
 23 24  1  0
 24 25  2  0
 25 26  1  0
 26 27  2  0
 27 28  1  0
 28 29  2  0
 21 30  1  0
 30 31  2  0
 31  2  1  0
 16  5  1  0
 31 18  1  0
 15 12  1  0
 29 24  1  0
  3 32  1  0
  3 33  1  0
  6 34  1  0
  7 35  1  0
  8 36  1  0
 13 37  1  0
 13 38  1  0
 14 39  1  0
 14 40  1  0
 15 41  1  0
 15 42  1  0
 16 43  1  0
 19 44  1  0
 20 45  1  0
 23 46  1  0
 23 47  1  0
 25 48  1  0
 26 49  1  0
 27 50  1  0
 29 51  1  0
 30 52  1  0
M  END
>  <smiles>  (47) 
O=C1CC(c2cccc(C(=O)N3CCC3)c2)=Nc2ccc(OCc3cccnc3)cc21

>  <score_type>  (47) 
oracle

>  <origin>  (47) 
autodockgpu

>  <m_score__min__energy>  (47) 
-8.8699999999999992

>  <m_primary>  (47) 
energy

>  <rmsd>  (47) 
7.363525423211758

>  <m_score__min__rmsd>  (47) 
7.363525423211758

>  <meeko>  (47) 
{"free_energy": -8.58, "intermolecular_energy": -10.08, "internal_energy": -1.07, "cluster_size": 37, "cluster_id": 1, "rank_in_cluster": 16}

>  <energy>  (47) 
-7.96

>  <cluster_rmsd>  (47) 
0.2

>  <cluster>  (47) 
5

$$$$

     RDKit          3D

 52 56  0  0  0  0  0  0  0  0999 V2000
  136.4390   75.0920  221.9600 O   0  0  0  0  0  0  0  0  0  0  0  0
  137.4640   74.3930  222.0360 C   0  0  0  0  0  0  0  0  0  0  0  0
  137.3230   72.9390  222.3200 C   0  0  0  0  0  0  0  0  0  0  0  0
  138.6480   72.2650  222.3800 C   0  0  0  0  0  0  0  0  0  0  0  0
  138.6660   70.8220  222.6520 C   0  0  0  0  0  0  0  0  0  0  0  0
  138.3530   69.9060  221.6660 C   0  0  0  0  0  0  0  0  0  0  0  0
  138.3870   68.5620  221.9610 C   0  0  0  0  0  0  0  0  0  0  0  0
  138.7340   68.1590  223.2380 C   0  0  0  0  0  0  0  0  0  0  0  0
  139.0500   69.0280  224.2490 C   0  0  0  0  0  0  0  0  0  0  0  0
  139.4110   68.6430  225.5990 C   0  0  0  0  0  0  0  0  0  0  0  0
  139.2200   67.4370  225.9180 O   0  0  0  0  0  0  0  0  0  0  0  0
  139.9650   69.5650  226.5540 N   0  0  0  0  0  0  0  0  0  0  0  0
  140.3350   70.9530  226.6470 C   0  0  0  0  0  0  0  0  0  0  0  0
  141.0550   70.6940  227.9280 C   0  0  0  0  0  0  0  0  0  0  0  0
  140.3880   69.3630  227.9140 C   0  0  0  0  0  0  0  0  0  0  0  0
  139.0060   70.3890  223.9130 C   0  0  0  0  0  0  0  0  0  0  0  0
  139.7550   72.8990  222.1980 N   0  0  0  0  0  0  0  0  0  0  0  0
  139.8970   74.2670  221.9280 C   0  0  0  0  0  0  0  0  0  0  0  0
  141.1220   74.8860  221.7370 C   0  0  0  0  0  0  0  0  0  0  0  0
  141.2220   76.2470  221.4640 C   0  0  0  0  0  0  0  0  0  0  0  0
  140.0760   77.0190  221.3760 C   0  0  0  0  0  0  0  0  0  0  0  0
  140.1050   78.3650  221.1070 O   0  0  0  0  0  0  0  0  0  0  0  0
  139.7160   79.3980  221.9700 C   0  0  0  0  0  0  0  0  0  0  0  0
  140.9740   79.9110  222.6200 C   0  0  0  0  0  0  0  0  0  0  0  0
  140.9690   80.9020  223.5650 C   0  0  0  0  0  0  0  0  0  0  0  0
  142.1370   81.3540  224.1410 C   0  0  0  0  0  0  0  0  0  0  0  0
  143.3060   80.7420  223.7040 C   0  0  0  0  0  0  0  0  0  0  0  0
  143.3420   79.7740  222.7860 N   0  0  0  0  0  0  0  0  0  0  0  0
  142.2000   79.3460  222.2360 C   0  0  0  0  0  0  0  0  0  0  0  0
  138.8730   76.3750  221.5720 C   0  0  0  0  0  0  0  0  0  0  0  0
  138.7500   75.0480  221.8400 C   0  0  0  0  0  0  0  0  0  0  0  0
  136.8127   72.8112  223.2861 H   0  0  0  0  0  0  0  0  0  0  0  0
  136.7399   72.4830  221.5063 H   0  0  0  0  0  0  0  0  0  0  0  0
  138.0797   70.2471  220.6566 H   0  0  0  0  0  0  0  0  0  0  0  0
  138.1410   67.8169  221.1901 H   0  0  0  0  0  0  0  0  0  0  0  0
  138.7575   67.0806  223.4538 H   0  0  0  0  0  0  0  0  0  0  0  0
  140.9867   71.2969  225.8303 H   0  0  0  0  0  0  0  0  0  0  0  0
  139.5614   71.7335  226.5983 H   0  0  0  0  0  0  0  0  0  0  0  0
  142.1516   70.6647  227.8466 H   0  0  0  0  0  0  0  0  0  0  0  0
  140.9943   71.3765  228.7885 H   0  0  0  0  0  0  0  0  0  0  0  0
  141.0787   68.5170  228.0449 H   0  0  0  0  0  0  0  0  0  0  0  0
  139.6476   69.1118  228.6877 H   0  0  0  0  0  0  0  0  0  0  0  0
  139.2514   71.1350  224.6832 H   0  0  0  0  0  0  0  0  0  0  0  0
  142.0409   74.2849  221.8030 H   0  0  0  0  0  0  0  0  0  0  0  0
  142.2098   76.7086  221.3184 H   0  0  0  0  0  0  0  0  0  0  0  0
  139.2265   80.2030  221.4023 H   0  0  0  0  0  0  0  0  0  0  0  0
  138.9987   79.0380  222.7223 H   0  0  0  0  0  0  0  0  0  0  0  0
  140.0111   81.3476  223.8715 H   0  0  0  0  0  0  0  0  0  0  0  0
  142.1435   82.1502  224.9000 H   0  0  0  0  0  0  0  0  0  0  0  0
  144.2587   81.0756  224.1411 H   0  0  0  0  0  0  0  0  0  0  0  0
  142.2220   78.5478  221.4795 H   0  0  0  0  0  0  0  0  0  0  0  0
  137.9526   76.9740  221.5073 H   0  0  0  0  0  0  0  0  0  0  0  0
  1  2  2  0
  2  3  1  0
  3  4  1  0
  4  5  1  0
  5  6  2  0
  6  7  1  0
  7  8  2  0
  8  9  1  0
  9 10  1  0
 10 11  2  0
 10 12  1  0
 12 13  1  0
 13 14  1  0
 14 15  1  0
  9 16  2  0
  4 17  2  0
 17 18  1  0
 18 19  2  0
 19 20  1  0
 20 21  2  0
 21 22  1  0
 22 23  1  0
 23 24  1  0
 24 25  2  0
 25 26  1  0
 26 27  2  0
 27 28  1  0
 28 29  2  0
 21 30  1  0
 30 31  2  0
 31  2  1  0
 16  5  1  0
 31 18  1  0
 15 12  1  0
 29 24  1  0
  3 32  1  0
  3 33  1  0
  6 34  1  0
  7 35  1  0
  8 36  1  0
 13 37  1  0
 13 38  1  0
 14 39  1  0
 14 40  1  0
 15 41  1  0
 15 42  1  0
 16 43  1  0
 19 44  1  0
 20 45  1  0
 23 46  1  0
 23 47  1  0
 25 48  1  0
 26 49  1  0
 27 50  1  0
 29 51  1  0
 30 52  1  0
M  END
>  <smiles>  (48) 
O=C1CC(c2cccc(C(=O)N3CCC3)c2)=Nc2ccc(OCc3cccnc3)cc21

>  <score_type>  (48) 
oracle

>  <origin>  (48) 
autodockgpu

>  <m_score__min__energy>  (48) 
-8.8699999999999992

>  <m_primary>  (48) 
energy

>  <rmsd>  (48) 
6.155063186619754

>  <m_score__min__rmsd>  (48) 
6.155063186619754

>  <meeko>  (48) 
{"free_energy": -8.23, "intermolecular_energy": -9.72, "internal_energy": -0.9, "cluster_size": 37, "cluster_id": 1, "rank_in_cluster": 37}

>  <energy>  (48) 
-7.99

>  <cluster_rmsd>  (48) 
0.0

>  <cluster>  (48) 
6

$$$$

     RDKit          3D

 52 56  0  0  0  0  0  0  0  0999 V2000
  142.9220   73.0530  220.5410 O   0  0  0  0  0  0  0  0  0  0  0  0
  141.8250   73.1940  221.1090 C   0  0  0  0  0  0  0  0  0  0  0  0
  141.1240   71.9890  221.6290 C   0  0  0  0  0  0  0  0  0  0  0  0
  139.8300   72.3460  222.2700 C   0  0  0  0  0  0  0  0  0  0  0  0
  139.0240   71.2540  222.8320 C   0  0  0  0  0  0  0  0  0  0  0  0
  137.7470   70.9990  222.3700 C   0  0  0  0  0  0  0  0  0  0  0  0
  137.0270   69.9630  222.9200 C   0  0  0  0  0  0  0  0  0  0  0  0
  137.5970   69.2010  223.9240 C   0  0  0  0  0  0  0  0  0  0  0  0
  138.8570   69.4160  224.4160 C   0  0  0  0  0  0  0  0  0  0  0  0
  139.4850   68.6430  225.4700 C   0  0  0  0  0  0  0  0  0  0  0  0
  139.5590   67.3960  225.2960 O   0  0  0  0  0  0  0  0  0  0  0  0
  140.0100   69.2390  226.6700 N   0  0  0  0  0  0  0  0  0  0  0  0
  140.1420   70.5360  227.2800 C   0  0  0  0  0  0  0  0  0  0  0  0
  141.0860   69.9820  228.2950 C   0  0  0  0  0  0  0  0  0  0  0  0
  140.6680   68.6410  227.8010 C   0  0  0  0  0  0  0  0  0  0  0  0
  139.5630   70.4780  223.8320 C   0  0  0  0  0  0  0  0  0  0  0  0
  139.4080   73.5610  222.3460 N   0  0  0  0  0  0  0  0  0  0  0  0
  140.0620   74.7020  221.8620 C   0  0  0  0  0  0  0  0  0  0  0  0
  139.5540   75.9850  221.9830 C   0  0  0  0  0  0  0  0  0  0  0  0
  140.2370   77.0950  221.4950 C   0  0  0  0  0  0  0  0  0  0  0  0
  141.4610   76.9300  220.8670 C   0  0  0  0  0  0  0  0  0  0  0  0
  142.1850   77.9830  220.3650 O   0  0  0  0  0  0  0  0  0  0  0  0
  141.7270   79.2910  220.1620 C   0  0  0  0  0  0  0  0  0  0  0  0
  141.9110   80.0180  221.4680 C   0  0  0  0  0  0  0  0  0  0  0  0
  142.5510   79.4610  222.5430 C   0  0  0  0  0  0  0  0  0  0  0  0
  142.7020   80.1500  223.7270 C   0  0  0  0  0  0  0  0  0  0  0  0
  142.1680   81.4320  223.7570 C   0  0  0  0  0  0  0  0  0  0  0  0
  141.5400   82.0020  222.7260 N   0  0  0  0  0  0  0  0  0  0  0  0
  141.4010   81.3210  221.5820 C   0  0  0  0  0  0  0  0  0  0  0  0
  141.9400   75.6420  220.7610 C   0  0  0  0  0  0  0  0  0  0  0  0
  141.2910   74.5440  221.2300 C   0  0  0  0  0  0  0  0  0  0  0  0
  140.9311   71.2994  220.7940 H   0  0  0  0  0  0  0  0  0  0  0  0
  141.7660   71.5161  222.3868 H   0  0  0  0  0  0  0  0  0  0  0  0
  137.3107   71.6171  221.5715 H   0  0  0  0  0  0  0  0  0  0  0  0
  136.0093   69.7433  222.5651 H   0  0  0  0  0  0  0  0  0  0  0  0
  137.0059   68.3772  224.3506 H   0  0  0  0  0  0  0  0  0  0  0  0
  140.5894   71.2954  226.6219 H   0  0  0  0  0  0  0  0  0  0  0  0
  139.2461   71.0862  227.6035 H   0  0  0  0  0  0  0  0  0  0  0  0
  142.1448   70.2290  228.1279 H   0  0  0  0  0  0  0  0  0  0  0  0
  141.0408   70.2606  229.3582 H   0  0  0  0  0  0  0  0  0  0  0  0
  141.5078   67.9835  227.5318 H   0  0  0  0  0  0  0  0  0  0  0  0
  140.1124   67.9606  228.4630 H   0  0  0  0  0  0  0  0  0  0  0  0
  140.5813   70.6977  224.1852 H   0  0  0  0  0  0  0  0  0  0  0  0
  138.5830   76.1306  222.4790 H   0  0  0  0  0  0  0  0  0  0  0  0
  139.8062   78.1009  221.6075 H   0  0  0  0  0  0  0  0  0  0  0  0
  142.3129   79.7797  219.3696 H   0  0  0  0  0  0  0  0  0  0  0  0
  140.6726   79.2983  219.8487 H   0  0  0  0  0  0  0  0  0  0  0  0
  142.9536   78.4407  222.4596 H   0  0  0  0  0  0  0  0  0  0  0  0
  143.2145   79.7112  224.5958 H   0  0  0  0  0  0  0  0  0  0  0  0
  142.2686   82.0124  224.6860 H   0  0  0  0  0  0  0  0  0  0  0  0
  140.8852   81.7841  220.7279 H   0  0  0  0  0  0  0  0  0  0  0  0
  142.9103   75.4932  220.2647 H   0  0  0  0  0  0  0  0  0  0  0  0
  1  2  2  0
  2  3  1  0
  3  4  1  0
  4  5  1  0
  5  6  2  0
  6  7  1  0
  7  8  2  0
  8  9  1  0
  9 10  1  0
 10 11  2  0
 10 12  1  0
 12 13  1  0
 13 14  1  0
 14 15  1  0
  9 16  2  0
  4 17  2  0
 17 18  1  0
 18 19  2  0
 19 20  1  0
 20 21  2  0
 21 22  1  0
 22 23  1  0
 23 24  1  0
 24 25  2  0
 25 26  1  0
 26 27  2  0
 27 28  1  0
 28 29  2  0
 21 30  1  0
 30 31  2  0
 31  2  1  0
 16  5  1  0
 31 18  1  0
 15 12  1  0
 29 24  1  0
  3 32  1  0
  3 33  1  0
  6 34  1  0
  7 35  1  0
  8 36  1  0
 13 37  1  0
 13 38  1  0
 14 39  1  0
 14 40  1  0
 15 41  1  0
 15 42  1  0
 16 43  1  0
 19 44  1  0
 20 45  1  0
 23 46  1  0
 23 47  1  0
 25 48  1  0
 26 49  1  0
 27 50  1  0
 29 51  1  0
 30 52  1  0
M  END
>  <smiles>  (49) 
O=C1CC(c2cccc(C(=O)N3CCC3)c2)=Nc2ccc(OCc3cccnc3)cc21

>  <score_type>  (49) 
oracle

>  <origin>  (49) 
autodockgpu

>  <m_score__min__energy>  (49) 
-8.8699999999999992

>  <m_primary>  (49) 
energy

>  <rmsd>  (49) 
6.283746383941318

>  <m_score__min__rmsd>  (49) 
6.283746383941318

>  <meeko>  (49) 
{"free_energy": -8.87, "intermolecular_energy": -10.37, "internal_energy": -1.0, "cluster_size": 37, "cluster_id": 1, "rank_in_cluster": 1}

>  <energy>  (49) 
-7.9

>  <cluster_rmsd>  (49) 
0.0

>  <cluster>  (49) 
7

$$$$

     RDKit          3D

 52 56  0  0  0  0  0  0  0  0999 V2000
  142.9660   73.5980  219.4300 O   0  0  0  0  0  0  0  0  0  0  0  0
  142.0970   73.5560  220.3190 C   0  0  0  0  0  0  0  0  0  0  0  0
  141.6400   72.2310  220.8150 C   0  0  0  0  0  0  0  0  0  0  0  0
  140.6000   72.3730  221.8690 C   0  0  0  0  0  0  0  0  0  0  0  0
  140.0520   71.1430  222.4560 C   0  0  0  0  0  0  0  0  0  0  0  0
  139.5720   70.1230  221.6570 C   0  0  0  0  0  0  0  0  0  0  0  0
  139.0710   68.9850  222.2470 C   0  0  0  0  0  0  0  0  0  0  0  0
  139.0600   68.8880  223.6260 C   0  0  0  0  0  0  0  0  0  0  0  0
  139.5230   69.8700  224.4600 C   0  0  0  0  0  0  0  0  0  0  0  0
  139.5210   69.8070  225.9090 C   0  0  0  0  0  0  0  0  0  0  0  0
  138.8640   68.8670  226.4370 O   0  0  0  0  0  0  0  0  0  0  0  0
  140.2250   70.7510  226.7350 N   0  0  0  0  0  0  0  0  0  0  0  0
  141.0540   71.9200  226.5970 C   0  0  0  0  0  0  0  0  0  0  0  0
  141.4370   71.8390  228.0370 C   0  0  0  0  0  0  0  0  0  0  0  0
  140.3460   70.8360  228.1660 C   0  0  0  0  0  0  0  0  0  0  0  0
  140.0270   71.0160  223.8260 C   0  0  0  0  0  0  0  0  0  0  0  0
  140.1780   73.5220  222.2730 N   0  0  0  0  0  0  0  0  0  0  0  0
  140.6040   74.7750  221.8130 C   0  0  0  0  0  0  0  0  0  0  0  0
  140.1120   75.9760  222.2970 C   0  0  0  0  0  0  0  0  0  0  0  0
  140.5650   77.2020  221.8200 C   0  0  0  0  0  0  0  0  0  0  0  0
  141.5360   77.2410  220.8330 C   0  0  0  0  0  0  0  0  0  0  0  0
  142.0280   78.4160  220.3200 O   0  0  0  0  0  0  0  0  0  0  0  0
  141.4240   79.6780  220.3970 C   0  0  0  0  0  0  0  0  0  0  0  0
  141.7530   80.2280  221.7600 C   0  0  0  0  0  0  0  0  0  0  0  0
  142.9610   80.0230  222.3710 C   0  0  0  0  0  0  0  0  0  0  0  0
  143.2320   80.5360  223.6210 C   0  0  0  0  0  0  0  0  0  0  0  0
  142.2100   81.2680  224.2120 C   0  0  0  0  0  0  0  0  0  0  0  0
  141.0230   81.4860  223.6410 N   0  0  0  0  0  0  0  0  0  0  0  0
  140.7750   80.9810  222.4270 C   0  0  0  0  0  0  0  0  0  0  0  0
  142.0060   76.0300  220.3710 C   0  0  0  0  0  0  0  0  0  0  0  0
  141.5790   74.8210  220.8220 C   0  0  0  0  0  0  0  0  0  0  0  0
  141.2208   71.6595  219.9738 H   0  0  0  0  0  0  0  0  0  0  0  0
  142.5043   71.7086  221.2509 H   0  0  0  0  0  0  0  0  0  0  0  0
  139.5901   70.2195  220.5614 H   0  0  0  0  0  0  0  0  0  0  0  0
  138.6837   68.1620  221.6284 H   0  0  0  0  0  0  0  0  0  0  0  0
  138.6565   67.9702  224.0786 H   0  0  0  0  0  0  0  0  0  0  0  0
  141.8972   71.7900  225.9027 H   0  0  0  0  0  0  0  0  0  0  0  0
  140.6310   72.8506  226.1908 H   0  0  0  0  0  0  0  0  0  0  0  0
  142.4487   71.4513  228.2270 H   0  0  0  0  0  0  0  0  0  0  0  0
  141.5013   72.7278  228.6819 H   0  0  0  0  0  0  0  0  0  0  0  0
  140.6592   69.8958  228.6434 H   0  0  0  0  0  0  0  0  0  0  0  0
  139.4614   71.0629  228.7792 H   0  0  0  0  0  0  0  0  0  0  0  0
  140.4145   71.8393  224.4441 H   0  0  0  0  0  0  0  0  0  0  0  0
  139.3408   75.9600  223.0812 H   0  0  0  0  0  0  0  0  0  0  0  0
  140.1531   78.1378  222.2257 H   0  0  0  0  0  0  0  0  0  0  0  0
  141.8240   80.3390  219.6140 H   0  0  0  0  0  0  0  0  0  0  0  0
  140.3363   79.6078  220.2487 H   0  0  0  0  0  0  0  0  0  0  0  0
  143.7328   79.4354  221.8523 H   0  0  0  0  0  0  0  0  0  0  0  0
  144.1989   80.3756  224.1204 H   0  0  0  0  0  0  0  0  0  0  0  0
  142.3894   81.6936  225.2103 H   0  0  0  0  0  0  0  0  0  0  0  0
  139.7997   81.1571  221.9497 H   0  0  0  0  0  0  0  0  0  0  0  0
  142.7768   76.0431  219.5863 H   0  0  0  0  0  0  0  0  0  0  0  0
  1  2  2  0
  2  3  1  0
  3  4  1  0
  4  5  1  0
  5  6  2  0
  6  7  1  0
  7  8  2  0
  8  9  1  0
  9 10  1  0
 10 11  2  0
 10 12  1  0
 12 13  1  0
 13 14  1  0
 14 15  1  0
  9 16  2  0
  4 17  2  0
 17 18  1  0
 18 19  2  0
 19 20  1  0
 20 21  2  0
 21 22  1  0
 22 23  1  0
 23 24  1  0
 24 25  2  0
 25 26  1  0
 26 27  2  0
 27 28  1  0
 28 29  2  0
 21 30  1  0
 30 31  2  0
 31  2  1  0
 16  5  1  0
 31 18  1  0
 15 12  1  0
 29 24  1  0
  3 32  1  0
  3 33  1  0
  6 34  1  0
  7 35  1  0
  8 36  1  0
 13 37  1  0
 13 38  1  0
 14 39  1  0
 14 40  1  0
 15 41  1  0
 15 42  1  0
 16 43  1  0
 19 44  1  0
 20 45  1  0
 23 46  1  0
 23 47  1  0
 25 48  1  0
 26 49  1  0
 27 50  1  0
 29 51  1  0
 30 52  1  0
M  END
>  <smiles>  (50) 
O=C1CC(c2cccc(C(=O)N3CCC3)c2)=Nc2ccc(OCc3cccnc3)cc21

>  <score_type>  (50) 
oracle

>  <origin>  (50) 
autodockgpu

>  <m_score__min__energy>  (50) 
-8.8699999999999992

>  <m_primary>  (50) 
energy

>  <rmsd>  (50) 
6.425602098941526

>  <m_score__min__rmsd>  (50) 
6.425602098941526

>  <meeko>  (50) 
{"free_energy": -8.61, "intermolecular_energy": -10.1, "internal_energy": -0.99, "cluster_size": 37, "cluster_id": 1, "rank_in_cluster": 14}

>  <energy>  (50) 
-7.9

>  <cluster_rmsd>  (50) 
0.53

>  <cluster>  (50) 
7

$$$$
