
     RDKit          3D

 51 54  0  0  0  0  0  0  0  0999 V2000
  141.9120   76.0680  218.7390 O   0  0  0  0  0  0  0  0  0  0  0  0
  141.8660   76.4320  219.9440 C   0  0  0  0  0  0  0  0  0  0  0  0
  141.8380   75.4770  220.9740 N   0  0  0  0  0  0  0  0  0  0  0  0
  141.8600   74.0470  220.7460 C   0  0  0  0  0  0  0  0  0  0  0  0
  140.8330   73.4110  221.5990 C   0  0  0  0  0  0  0  0  0  0  0  0
  140.0980   74.1620  222.2910 O   0  0  0  0  0  0  0  0  0  0  0  0
  140.7220   71.9900  221.6020 N   0  0  0  0  0  0  0  0  0  0  0  0
  141.0040   71.0870  220.4780 C   0  0  0  0  0  0  0  0  0  0  0  0
  140.1750   69.8460  220.7320 C   0  0  0  0  0  0  0  0  0  0  0  0
  139.3440   70.2040  221.9690 C   0  0  0  0  0  0  0  0  0  0  0  0
  140.3140   71.1130  222.6780 C   0  0  2  0  0  0  0  0  0  0  0  0
  139.6660   71.8450  223.8330 C   0  0  0  0  0  0  0  0  0  0  0  0
  140.1330   71.1190  225.0650 C   0  0  0  0  0  0  0  0  0  0  0  0
  140.6770   71.8790  226.0840 C   0  0  0  0  0  0  0  0  0  0  0  0
  141.1110   71.2080  227.2280 C   0  0  0  0  0  0  0  0  0  0  0  0
  141.0060   69.8430  227.3490 C   0  0  0  0  0  0  0  0  0  0  0  0
  140.4500   69.1030  226.2980 C   0  0  0  0  0  0  0  0  0  0  0  0
  140.3260   67.3580  226.4760 Cl  0  0  0  0  0  0  0  0  0  0  0  0
  140.0080   69.7430  225.1430 C   0  0  0  0  0  0  0  0  0  0  0  0
  141.8410   77.8700  220.2740 C   0  0  0  0  0  0  0  0  0  0  0  0
  141.8020   78.8130  219.2670 C   0  0  0  0  0  0  0  0  0  0  0  0
  141.7800   80.1530  219.6400 C   0  0  0  0  0  0  0  0  0  0  0  0
  141.7960   80.5210  220.9670 C   0  0  0  0  0  0  0  0  0  0  0  0
  141.7750   81.8410  221.3800 C   0  0  0  0  0  0  0  0  0  0  0  0
  141.7910   82.1880  222.7200 C   0  0  0  0  0  0  0  0  0  0  0  0
  141.8300   81.2200  223.6890 C   0  0  0  0  0  0  0  0  0  0  0  0
  141.8510   79.8850  223.2950 C   0  0  0  0  0  0  0  0  0  0  0  0
  141.8350   79.5430  221.9420 C   0  0  0  0  0  0  0  0  0  0  0  0
  141.8560   78.2580  221.5660 N   0  0  0  0  0  0  0  0  0  0  0  0
  141.8000   75.8440  221.9650 H   0  0  0  0  0  0  0  0  0  0  0  0
  141.6426   73.8382  219.6881 H   0  0  0  0  0  0  0  0  0  0  0  0
  142.8531   73.6447  220.9950 H   0  0  0  0  0  0  0  0  0  0  0  0
  140.7115   71.5556  219.5268 H   0  0  0  0  0  0  0  0  0  0  0  0
  142.0760   70.8514  220.4054 H   0  0  0  0  0  0  0  0  0  0  0  0
  139.5237   69.6279  219.8728 H   0  0  0  0  0  0  0  0  0  0  0  0
  140.7916   68.9473  220.8810 H   0  0  0  0  0  0  0  0  0  0  0  0
  138.4150   70.7279  221.6997 H   0  0  0  0  0  0  0  0  0  0  0  0
  138.9967   69.3438  222.5601 H   0  0  0  0  0  0  0  0  0  0  0  0
  141.1564   70.5942  223.1589 H   0  0  0  0  0  0  0  0  0  0  0  0
  139.9916   72.8954  223.8565 H   0  0  0  0  0  0  0  0  0  0  0  0
  138.5691   71.8571  223.7513 H   0  0  0  0  0  0  0  0  0  0  0  0
  140.7644   72.9720  225.9961 H   0  0  0  0  0  0  0  0  0  0  0  0
  141.5487   71.7868  228.0547 H   0  0  0  0  0  0  0  0  0  0  0  0
  141.3549   69.3372  228.2614 H   0  0  0  0  0  0  0  0  0  0  0  0
  139.5702   69.1690  224.3130 H   0  0  0  0  0  0  0  0  0  0  0  0
  141.7888   78.5158  218.2080 H   0  0  0  0  0  0  0  0  0  0  0  0
  141.7493   80.9309  218.8628 H   0  0  0  0  0  0  0  0  0  0  0  0
  141.7447   82.6376  220.6221 H   0  0  0  0  0  0  0  0  0  0  0  0
  141.7723   83.2491  223.0092 H   0  0  0  0  0  0  0  0  0  0  0  0
  141.8444   81.4918  224.7548 H   0  0  0  0  0  0  0  0  0  0  0  0
  141.8805   79.0923  224.0571 H   0  0  0  0  0  0  0  0  0  0  0  0
  1  2  2  0
  2  3  1  0
  3  4  1  0
  4  5  1  0
  5  6  2  0
  5  7  1  0
  7  8  1  0
  8  9  1  0
  9 10  1  0
 10 11  1  0
 11 12  1  0
 12 13  1  0
 13 14  2  0
 14 15  1  0
 15 16  2  0
 16 17  1  0
 17 18  1  0
 17 19  2  0
  2 20  1  0
 20 21  2  0
 21 22  1  0
 22 23  2  0
 23 24  1  0
 24 25  2  0
 25 26  1  0
 26 27  2  0
 27 28  1  0
 28 29  2  0
 11  7  1  0
 19 13  1  0
 29 20  1  0
 28 23  1  0
  3 30  1  0
  4 31  1  0
  4 32  1  0
  8 33  1  0
  8 34  1  0
  9 35  1  0
  9 36  1  0
 10 37  1  0
 10 38  1  0
 11 39  1  1
 12 40  1  0
 12 41  1  0
 14 42  1  0
 15 43  1  0
 16 44  1  0
 19 45  1  0
 21 46  1  0
 22 47  1  0
 24 48  1  0
 25 49  1  0
 26 50  1  0
 27 51  1  0
M  END
>  <smiles>  (1) 
O=C(NCC(=O)N1CCCC1Cc1cccc(Cl)c1)c1ccc2ccccc2n1

>  <score_type>  (1) 
oracle

>  <origin>  (1) 
autodockgpu

>  <m_score__min__energy>  (1) 
-9.2899999999999991

>  <m_primary>  (1) 
energy

>  <rmsd>  (1) 
8.772673332807319

>  <m_score__min__rmsd>  (1) 
8.772673332807319

>  <meeko>  (1) 
{"free_energy": -8.72, "intermolecular_energy": -10.51, "internal_energy": -1.87, "cluster_size": 3, "cluster_id": 4, "rank_in_cluster": 1}

>  <energy>  (1) 
-9.29

>  <cluster_rmsd>  (1) 
0.0

>  <cluster>  (1) 
1

$$$$

     RDKit          3D

 51 54  0  0  0  0  0  0  0  0999 V2000
  139.9420   71.0820  221.2380 O   0  0  0  0  0  0  0  0  0  0  0  0
  139.8250   71.6920  222.3350 C   0  0  0  0  0  0  0  0  0  0  0  0
  139.6240   73.0820  222.3560 N   0  0  0  0  0  0  0  0  0  0  0  0
  139.5380   73.9010  221.1650 C   0  0  0  0  0  0  0  0  0  0  0  0
  139.4160   75.3190  221.5670 C   0  0  0  0  0  0  0  0  0  0  0  0
  138.8410   75.5730  222.6580 O   0  0  0  0  0  0  0  0  0  0  0  0
  139.9490   76.3270  220.7120 N   0  0  0  0  0  0  0  0  0  0  0  0
  139.9070   76.3430  219.2440 C   0  0  0  0  0  0  0  0  0  0  0  0
  141.0800   77.1970  218.8100 C   0  0  0  0  0  0  0  0  0  0  0  0
  141.8130   77.5100  220.1200 C   0  0  0  0  0  0  0  0  0  0  0  0
  140.6430   77.5460  221.0690 C   0  0  2  0  0  0  0  0  0  0  0  0
  141.0860   77.5820  222.5150 C   0  0  0  0  0  0  0  0  0  0  0  0
  141.4130   79.0250  222.7870 C   0  0  0  0  0  0  0  0  0  0  0  0
  142.1910   79.3030  223.8950 C   0  0  0  0  0  0  0  0  0  0  0  0
  142.4950   80.6420  224.1500 C   0  0  0  0  0  0  0  0  0  0  0  0
  142.0430   81.6530  223.3350 C   0  0  0  0  0  0  0  0  0  0  0  0
  141.2570   81.3360  222.2210 C   0  0  0  0  0  0  0  0  0  0  0  0
  140.6910   82.6470  221.1950 Cl  0  0  0  0  0  0  0  0  0  0  0  0
  140.9360   80.0100  221.9410 C   0  0  0  0  0  0  0  0  0  0  0  0
  139.8980   70.9400  223.6020 C   0  0  0  0  0  0  0  0  0  0  0  0
  139.4820   69.6250  223.6540 C   0  0  0  0  0  0  0  0  0  0  0  0
  139.5750   68.9690  224.8780 C   0  0  0  0  0  0  0  0  0  0  0  0
  140.0670   69.6110  225.9920 C   0  0  0  0  0  0  0  0  0  0  0  0
  140.1770   68.9940  227.2260 C   0  0  0  0  0  0  0  0  0  0  0  0
  140.6740   69.6590  228.3340 C   0  0  0  0  0  0  0  0  0  0  0  0
  141.0770   70.9650  228.2380 C   0  0  0  0  0  0  0  0  0  0  0  0
  140.9760   71.6050  227.0060 C   0  0  0  0  0  0  0  0  0  0  0  0
  140.4730   70.9270  225.8930 C   0  0  0  0  0  0  0  0  0  0  0  0
  140.3760   71.5450  224.7090 N   0  0  0  0  0  0  0  0  0  0  0  0
  139.5320   73.5370  223.3060 H   0  0  0  0  0  0  0  0  0  0  0  0
  140.4452   73.7660  220.5577 H   0  0  0  0  0  0  0  0  0  0  0  0
  138.6605   73.6049  220.5714 H   0  0  0  0  0  0  0  0  0  0  0  0
  140.0076   75.3224  218.8462 H   0  0  0  0  0  0  0  0  0  0  0  0
  138.9531   76.7427  218.8694 H   0  0  0  0  0  0  0  0  0  0  0  0
  141.7327   76.6434  218.1190 H   0  0  0  0  0  0  0  0  0  0  0  0
  140.7681   78.1039  218.2713 H   0  0  0  0  0  0  0  0  0  0  0  0
  142.5306   76.7198  220.3857 H   0  0  0  0  0  0  0  0  0  0  0  0
  142.4252   78.4237  220.1027 H   0  0  0  0  0  0  0  0  0  0  0  0
  140.0139   78.4444  220.9842 H   0  0  0  0  0  0  0  0  0  0  0  0
  140.2767   77.2379  223.1758 H   0  0  0  0  0  0  0  0  0  0  0  0
  141.9462   76.9218  222.6998 H   0  0  0  0  0  0  0  0  0  0  0  0
  142.5570   78.4997  224.5514 H   0  0  0  0  0  0  0  0  0  0  0  0
  143.1118   80.8943  225.0252 H   0  0  0  0  0  0  0  0  0  0  0  0
  142.2965   82.7003  223.5562 H   0  0  0  0  0  0  0  0  0  0  0  0
  140.3181   79.7522  221.0682 H   0  0  0  0  0  0  0  0  0  0  0  0
  139.0915   69.1145  222.7613 H   0  0  0  0  0  0  0  0  0  0  0  0
  139.2502   67.9210  224.9565 H   0  0  0  0  0  0  0  0  0  0  0  0
  139.8606   67.9456  227.3294 H   0  0  0  0  0  0  0  0  0  0  0  0
  140.7458   69.1350  229.2985 H   0  0  0  0  0  0  0  0  0  0  0  0
  141.4721   71.4967  229.1162 H   0  0  0  0  0  0  0  0  0  0  0  0
  141.2949   72.6532  226.9080 H   0  0  0  0  0  0  0  0  0  0  0  0
  1  2  2  0
  2  3  1  0
  3  4  1  0
  4  5  1  0
  5  6  2  0
  5  7  1  0
  7  8  1  0
  8  9  1  0
  9 10  1  0
 10 11  1  0
 11 12  1  0
 12 13  1  0
 13 14  2  0
 14 15  1  0
 15 16  2  0
 16 17  1  0
 17 18  1  0
 17 19  2  0
  2 20  1  0
 20 21  2  0
 21 22  1  0
 22 23  2  0
 23 24  1  0
 24 25  2  0
 25 26  1  0
 26 27  2  0
 27 28  1  0
 28 29  2  0
 11  7  1  0
 19 13  1  0
 29 20  1  0
 28 23  1  0
  3 30  1  0
  4 31  1  0
  4 32  1  0
  8 33  1  0
  8 34  1  0
  9 35  1  0
  9 36  1  0
 10 37  1  0
 10 38  1  0
 11 39  1  6
 12 40  1  0
 12 41  1  0
 14 42  1  0
 15 43  1  0
 16 44  1  0
 19 45  1  0
 21 46  1  0
 22 47  1  0
 24 48  1  0
 25 49  1  0
 26 50  1  0
 27 51  1  0
M  END
>  <smiles>  (2) 
O=C(NCC(=O)N1CCCC1Cc1cccc(Cl)c1)c1ccc2ccccc2n1

>  <score_type>  (2) 
oracle

>  <origin>  (2) 
autodockgpu

>  <m_score__min__energy>  (2) 
-9.2899999999999991

>  <m_primary>  (2) 
energy

>  <rmsd>  (2) 
1.5059148242750657

>  <m_score__min__rmsd>  (2) 
1.5059148242750657

>  <meeko>  (2) 
{"free_energy": -9.09, "intermolecular_energy": -10.88, "internal_energy": -1.99, "cluster_size": 39, "cluster_id": 1, "rank_in_cluster": 5}

>  <energy>  (2) 
-9.27

>  <cluster_rmsd>  (2) 
0.77

>  <cluster>  (2) 
1

$$$$

     RDKit          3D

 51 54  0  0  0  0  0  0  0  0999 V2000
  137.9640   70.6320  221.8750 O   0  0  0  0  0  0  0  0  0  0  0  0
  138.6810   71.1170  222.7910 C   0  0  0  0  0  0  0  0  0  0  0  0
  139.1060   72.4550  222.7260 N   0  0  0  0  0  0  0  0  0  0  0  0
  138.7680   73.3550  221.6440 C   0  0  0  0  0  0  0  0  0  0  0  0
  139.5490   74.6010  221.7980 C   0  0  0  0  0  0  0  0  0  0  0  0
  140.7900   74.4990  221.9780 O   0  0  0  0  0  0  0  0  0  0  0  0
  138.8690   75.8530  221.7380 N   0  0  0  0  0  0  0  0  0  0  0  0
  137.4280   76.0590  221.5370 C   0  0  0  0  0  0  0  0  0  0  0  0
  137.2930   77.4400  220.9310 C   0  0  0  0  0  0  0  0  0  0  0  0
  138.7420   77.8850  220.6990 C   0  0  0  0  0  0  0  0  0  0  0  0
  139.4140   77.1890  221.8540 C   0  0  2  0  0  0  0  0  0  0  0  0
  140.9220   77.2320  221.7420 C   0  0  0  0  0  0  0  0  0  0  0  0
  141.3190   78.5610  222.3240 C   0  0  0  0  0  0  0  0  0  0  0  0
  141.8250   78.5680  223.6100 C   0  0  0  0  0  0  0  0  0  0  0  0
  142.1930   79.8010  224.1520 C   0  0  0  0  0  0  0  0  0  0  0  0
  142.0620   80.9700  223.4410 C   0  0  0  0  0  0  0  0  0  0  0  0
  141.5460   80.9280  222.1410 C   0  0  0  0  0  0  0  0  0  0  0  0
  141.3880   82.4370  221.2520 Cl  0  0  0  0  0  0  0  0  0  0  0  0
  141.1690   79.7130  221.5720 C   0  0  0  0  0  0  0  0  0  0  0  0
  139.0750   70.2740  223.9350 C   0  0  0  0  0  0  0  0  0  0  0  0
  138.8330   68.9150  223.9140 C   0  0  0  0  0  0  0  0  0  0  0  0
  139.2280   68.1740  225.0230 C   0  0  0  0  0  0  0  0  0  0  0  0
  139.8380   68.7770  226.1000 C   0  0  0  0  0  0  0  0  0  0  0  0
  140.2450   68.0740  227.2200 C   0  0  0  0  0  0  0  0  0  0  0  0
  140.8570   68.7020  228.2930 C   0  0  0  0  0  0  0  0  0  0  0  0
  141.0800   70.0530  228.2730 C   0  0  0  0  0  0  0  0  0  0  0  0
  140.6780   70.7790  227.1550 C   0  0  0  0  0  0  0  0  0  0  0  0
  140.0610   70.1390  226.0780 C   0  0  0  0  0  0  0  0  0  0  0  0
  139.6750   70.8390  225.0030 N   0  0  0  0  0  0  0  0  0  0  0  0
  139.7060   72.8040  223.5250 H   0  0  0  0  0  0  0  0  0  0  0  0
  139.0116   72.8828  220.6808 H   0  0  0  0  0  0  0  0  0  0  0  0
  137.6922   73.5830  221.6702 H   0  0  0  0  0  0  0  0  0  0  0  0
  137.0235   75.2986  220.8528 H   0  0  0  0  0  0  0  0  0  0  0  0
  136.8697   75.9731  222.4809 H   0  0  0  0  0  0  0  0  0  0  0  0
  136.7398   77.3981  219.9812 H   0  0  0  0  0  0  0  0  0  0  0  0
  136.7347   78.1337  221.5769 H   0  0  0  0  0  0  0  0  0  0  0  0
  139.1272   77.5342  219.7302 H   0  0  0  0  0  0  0  0  0  0  0  0
  138.8932   78.9739  220.6612 H   0  0  0  0  0  0  0  0  0  0  0  0
  139.2282   77.6500  222.8353 H   0  0  0  0  0  0  0  0  0  0  0  0
  141.3756   76.4088  222.3136 H   0  0  0  0  0  0  0  0  0  0  0  0
  141.2620   77.1187  220.7020 H   0  0  0  0  0  0  0  0  0  0  0  0
  141.9338   77.6367  224.1853 H   0  0  0  0  0  0  0  0  0  0  0  0
  142.5981   79.8378  225.1740 H   0  0  0  0  0  0  0  0  0  0  0  0
  142.3599   81.9292  223.8896 H   0  0  0  0  0  0  0  0  0  0  0  0
  140.7624   79.6707  220.5508 H   0  0  0  0  0  0  0  0  0  0  0  0
  138.3458   68.4358  223.0521 H   0  0  0  0  0  0  0  0  0  0  0  0
  139.0501   67.0886  225.0398 H   0  0  0  0  0  0  0  0  0  0  0  0
  140.0783   66.9874  227.2598 H   0  0  0  0  0  0  0  0  0  0  0  0
  141.1661   68.1107  229.1676 H   0  0  0  0  0  0  0  0  0  0  0  0
  141.5667   70.5543  229.1226 H   0  0  0  0  0  0  0  0  0  0  0  0
  140.8477   71.8653  227.1198 H   0  0  0  0  0  0  0  0  0  0  0  0
  1  2  2  0
  2  3  1  0
  3  4  1  0
  4  5  1  0
  5  6  2  0
  5  7  1  0
  7  8  1  0
  8  9  1  0
  9 10  1  0
 10 11  1  0
 11 12  1  0
 12 13  1  0
 13 14  2  0
 14 15  1  0
 15 16  2  0
 16 17  1  0
 17 18  1  0
 17 19  2  0
  2 20  1  0
 20 21  2  0
 21 22  1  0
 22 23  2  0
 23 24  1  0
 24 25  2  0
 25 26  1  0
 26 27  2  0
 27 28  1  0
 28 29  2  0
 11  7  1  0
 19 13  1  0
 29 20  1  0
 28 23  1  0
  3 30  1  0
  4 31  1  0
  4 32  1  0
  8 33  1  0
  8 34  1  0
  9 35  1  0
  9 36  1  0
 10 37  1  0
 10 38  1  0
 11 39  1  1
 12 40  1  0
 12 41  1  0
 14 42  1  0
 15 43  1  0
 16 44  1  0
 19 45  1  0
 21 46  1  0
 22 47  1  0
 24 48  1  0
 25 49  1  0
 26 50  1  0
 27 51  1  0
M  END
>  <smiles>  (3) 
O=C(NCC(=O)N1CCCC1Cc1cccc(Cl)c1)c1ccc2ccccc2n1

>  <score_type>  (3) 
oracle

>  <origin>  (3) 
autodockgpu

>  <m_score__min__energy>  (3) 
-9.2899999999999991

>  <m_primary>  (3) 
energy

>  <rmsd>  (3) 
2.1536268774229197

>  <m_score__min__rmsd>  (3) 
2.1536268774229197

>  <meeko>  (3) 
{"free_energy": -8.99, "intermolecular_energy": -10.78, "internal_energy": -1.65, "cluster_size": 39, "cluster_id": 1, "rank_in_cluster": 11}

>  <energy>  (3) 
-9.18

>  <cluster_rmsd>  (3) 
0.82

>  <cluster>  (3) 
1

$$$$

     RDKit          3D

 51 54  0  0  0  0  0  0  0  0999 V2000
  140.1420   71.0450  221.2530 O   0  0  0  0  0  0  0  0  0  0  0  0
  139.9080   71.6480  222.3360 C   0  0  0  0  0  0  0  0  0  0  0  0
  139.6040   73.0200  222.3330 N   0  0  0  0  0  0  0  0  0  0  0  0
  139.5350   73.8260  221.1320 C   0  0  0  0  0  0  0  0  0  0  0  0
  139.4170   75.2490  221.5190 C   0  0  0  0  0  0  0  0  0  0  0  0
  138.7060   75.5300  222.5180 O   0  0  0  0  0  0  0  0  0  0  0  0
  140.1070   76.2320  220.7510 N   0  0  0  0  0  0  0  0  0  0  0  0
  140.5850   76.0870  219.3690 C   0  0  0  0  0  0  0  0  0  0  0  0
  141.7370   77.0600  219.2310 C   0  0  0  0  0  0  0  0  0  0  0  0
  141.9230   77.6160  220.6470 C   0  0  0  0  0  0  0  0  0  0  0  0
  140.4960   77.5730  221.1310 C   0  0  2  0  0  0  0  0  0  0  0  0
  140.3940   77.8260  222.6190 C   0  0  0  0  0  0  0  0  0  0  0  0
  141.0230   79.1770  222.8280 C   0  0  0  0  0  0  0  0  0  0  0  0
  141.9880   79.2840  223.8120 C   0  0  0  0  0  0  0  0  0  0  0  0
  142.5730   80.5360  224.0090 C   0  0  0  0  0  0  0  0  0  0  0  0
  142.2100   81.6290  223.2580 C   0  0  0  0  0  0  0  0  0  0  0  0
  141.2280   81.4860  222.2700 C   0  0  0  0  0  0  0  0  0  0  0  0
  140.7800   82.8980  221.3230 Cl  0  0  0  0  0  0  0  0  0  0  0  0
  140.6260   80.2490  222.0500 C   0  0  0  0  0  0  0  0  0  0  0  0
  139.9550   70.9080  223.6100 C   0  0  0  0  0  0  0  0  0  0  0  0
  139.5100   69.6030  223.6730 C   0  0  0  0  0  0  0  0  0  0  0  0
  139.5790   68.9570  224.9030 C   0  0  0  0  0  0  0  0  0  0  0  0
  140.0750   69.6000  226.0160 C   0  0  0  0  0  0  0  0  0  0  0  0
  140.1610   68.9920  227.2560 C   0  0  0  0  0  0  0  0  0  0  0  0
  140.6630   69.6580  228.3610 C   0  0  0  0  0  0  0  0  0  0  0  0
  141.0950   70.9540  228.2560 C   0  0  0  0  0  0  0  0  0  0  0  0
  141.0180   71.5830  227.0170 C   0  0  0  0  0  0  0  0  0  0  0  0
  140.5100   70.9050  225.9070 C   0  0  0  0  0  0  0  0  0  0  0  0
  140.4360   71.5130  224.7160 N   0  0  0  0  0  0  0  0  0  0  0  0
  139.4170   73.4690  223.2720 H   0  0  0  0  0  0  0  0  0  0  0  0
  140.4476   73.6795  220.5355 H   0  0  0  0  0  0  0  0  0  0  0  0
  138.6626   73.5283  220.5317 H   0  0  0  0  0  0  0  0  0  0  0  0
  140.9282   75.0578  219.1876 H   0  0  0  0  0  0  0  0  0  0  0  0
  139.7883   76.2942  218.6394 H   0  0  0  0  0  0  0  0  0  0  0  0
  142.6467   76.5435  218.8909 H   0  0  0  0  0  0  0  0  0  0  0  0
  141.5398   77.8477  218.4890 H   0  0  0  0  0  0  0  0  0  0  0  0
  142.5801   76.9762  221.2543 H   0  0  0  0  0  0  0  0  0  0  0  0
  142.4015   78.6051  220.6986 H   0  0  0  0  0  0  0  0  0  0  0  0
  139.8459   78.3515  220.7050 H   0  0  0  0  0  0  0  0  0  0  0  0
  139.3414   77.8360  222.9383 H   0  0  0  0  0  0  0  0  0  0  0  0
  140.8938   77.0420  223.2068 H   0  0  0  0  0  0  0  0  0  0  0  0
  142.2840   78.4146  224.4174 H   0  0  0  0  0  0  0  0  0  0  0  0
  143.3441   80.6511  224.7850 H   0  0  0  0  0  0  0  0  0  0  0  0
  142.6860   82.6054  223.4314 H   0  0  0  0  0  0  0  0  0  0  0  0
  139.8536   80.1280  221.2762 H   0  0  0  0  0  0  0  0  0  0  0  0
  139.1150   69.0921  222.7825 H   0  0  0  0  0  0  0  0  0  0  0  0
  139.2322   67.9166  224.9884 H   0  0  0  0  0  0  0  0  0  0  0  0
  139.8214   67.9516  227.3667 H   0  0  0  0  0  0  0  0  0  0  0  0
  140.7155   69.1424  229.3313 H   0  0  0  0  0  0  0  0  0  0  0  0
  141.4941   71.4859  229.1322 H   0  0  0  0  0  0  0  0  0  0  0  0
  141.3602   72.6230  226.9112 H   0  0  0  0  0  0  0  0  0  0  0  0
  1  2  2  0
  2  3  1  0
  3  4  1  0
  4  5  1  0
  5  6  2  0
  5  7  1  0
  7  8  1  0
  8  9  1  0
  9 10  1  0
 10 11  1  0
 11 12  1  0
 12 13  1  0
 13 14  2  0
 14 15  1  0
 15 16  2  0
 16 17  1  0
 17 18  1  0
 17 19  2  0
  2 20  1  0
 20 21  2  0
 21 22  1  0
 22 23  2  0
 23 24  1  0
 24 25  2  0
 25 26  1  0
 26 27  2  0
 27 28  1  0
 28 29  2  0
 11  7  1  0
 19 13  1  0
 29 20  1  0
 28 23  1  0
  3 30  1  0
  4 31  1  0
  4 32  1  0
  8 33  1  0
  8 34  1  0
  9 35  1  0
  9 36  1  0
 10 37  1  0
 10 38  1  0
 11 39  1  6
 12 40  1  0
 12 41  1  0
 14 42  1  0
 15 43  1  0
 16 44  1  0
 19 45  1  0
 21 46  1  0
 22 47  1  0
 24 48  1  0
 25 49  1  0
 26 50  1  0
 27 51  1  0
M  END
>  <smiles>  (4) 
O=C(NCC(=O)N1CCCC1Cc1cccc(Cl)c1)c1ccc2ccccc2n1

>  <score_type>  (4) 
oracle

>  <origin>  (4) 
autodockgpu

>  <m_score__min__energy>  (4) 
-9.2899999999999991

>  <m_primary>  (4) 
energy

>  <rmsd>  (4) 
1.6982116957768203

>  <m_score__min__rmsd>  (4) 
1.6982116957768203

>  <meeko>  (4) 
{"free_energy": -9.07, "intermolecular_energy": -10.86, "internal_energy": -1.85, "cluster_size": 39, "cluster_id": 1, "rank_in_cluster": 8}

>  <energy>  (4) 
-9.15

>  <cluster_rmsd>  (4) 
1.23

>  <cluster>  (4) 
1

$$$$

     RDKit          3D

 51 54  0  0  0  0  0  0  0  0999 V2000
  140.2640   71.3590  221.2100 O   0  0  0  0  0  0  0  0  0  0  0  0
  140.0350   71.9850  222.2800 C   0  0  0  0  0  0  0  0  0  0  0  0
  139.7820   73.3670  222.2530 N   0  0  0  0  0  0  0  0  0  0  0  0
  139.7620   74.1570  221.0400 C   0  0  0  0  0  0  0  0  0  0  0  0
  139.8020   75.5910  221.4040 C   0  0  0  0  0  0  0  0  0  0  0  0
  139.9000   75.8850  222.6230 O   0  0  0  0  0  0  0  0  0  0  0  0
  139.7280   76.5680  220.3680 N   0  0  0  0  0  0  0  0  0  0  0  0
  138.7870   76.5800  219.2400 C   0  0  0  0  0  0  0  0  0  0  0  0
  139.4700   77.3720  218.1460 C   0  0  0  0  0  0  0  0  0  0  0  0
  140.8670   77.6530  218.7100 C   0  0  0  0  0  0  0  0  0  0  0  0
  140.5380   77.7520  220.1780 C   0  0  2  0  0  0  0  0  0  0  0  0
  141.7820   77.7710  221.0380 C   0  0  0  0  0  0  0  0  0  0  0  0
  141.5590   78.8880  222.0210 C   0  0  0  0  0  0  0  0  0  0  0  0
  142.6600   79.6360  222.3950 C   0  0  0  0  0  0  0  0  0  0  0  0
  142.4560   80.6730  223.3070 C   0  0  0  0  0  0  0  0  0  0  0  0
  141.2110   80.9490  223.8200 C   0  0  0  0  0  0  0  0  0  0  0  0
  140.1170   80.1710  223.4200 C   0  0  0  0  0  0  0  0  0  0  0  0
  138.5350   80.5440  224.0910 Cl  0  0  0  0  0  0  0  0  0  0  0  0
  140.2890   79.1300  222.5120 C   0  0  0  0  0  0  0  0  0  0  0  0
  140.0340   71.2620  223.5650 C   0  0  0  0  0  0  0  0  0  0  0  0
  139.5490   69.9710  223.6360 C   0  0  0  0  0  0  0  0  0  0  0  0
  139.5740   69.3420  224.8770 C   0  0  0  0  0  0  0  0  0  0  0  0
  140.0650   69.9860  225.9900 C   0  0  0  0  0  0  0  0  0  0  0  0
  140.1070   69.3950  227.2410 C   0  0  0  0  0  0  0  0  0  0  0  0
  140.6040   70.0620  228.3470 C   0  0  0  0  0  0  0  0  0  0  0  0
  141.0760   71.3430  228.2340 C   0  0  0  0  0  0  0  0  0  0  0  0
  141.0420   71.9560  226.9850 C   0  0  0  0  0  0  0  0  0  0  0  0
  140.5390   71.2770  225.8730 C   0  0  0  0  0  0  0  0  0  0  0  0
  140.5080   71.8700  224.6720 N   0  0  0  0  0  0  0  0  0  0  0  0
  139.5960   73.8370  223.1820 H   0  0  0  0  0  0  0  0  0  0  0  0
  140.6373   73.9079  220.4221 H   0  0  0  0  0  0  0  0  0  0  0  0
  138.8468   73.9418  220.4689 H   0  0  0  0  0  0  0  0  0  0  0  0
  138.5824   75.5540  218.9002 H   0  0  0  0  0  0  0  0  0  0  0  0
  137.8213   77.0252  219.5214 H   0  0  0  0  0  0  0  0  0  0  0  0
  139.5336   76.7837  217.2187 H   0  0  0  0  0  0  0  0  0  0  0  0
  138.9254   78.2915  217.8854 H   0  0  0  0  0  0  0  0  0  0  0  0
  141.5651   76.8287  218.5022 H   0  0  0  0  0  0  0  0  0  0  0  0
  141.3704   78.5345  218.2863 H   0  0  0  0  0  0  0  0  0  0  0  0
  140.0254   78.6805  220.4697 H   0  0  0  0  0  0  0  0  0  0  0  0
  141.9035   76.8122  221.5633 H   0  0  0  0  0  0  0  0  0  0  0  0
  142.6941   77.9213  220.4418 H   0  0  0  0  0  0  0  0  0  0  0  0
  143.6597   79.4219  221.9890 H   0  0  0  0  0  0  0  0  0  0  0  0
  143.3136   81.2850  223.6232 H   0  0  0  0  0  0  0  0  0  0  0  0
  141.0752   81.7721  224.5370 H   0  0  0  0  0  0  0  0  0  0  0  0
  139.4351   78.5145  222.1926 H   0  0  0  0  0  0  0  0  0  0  0  0
  139.1574   69.4589  222.7447 H   0  0  0  0  0  0  0  0  0  0  0  0
  139.1953   68.3135  224.9700 H   0  0  0  0  0  0  0  0  0  0  0  0
  139.7350   68.3666  227.3593 H   0  0  0  0  0  0  0  0  0  0  0  0
  140.6202   69.5592  229.3252 H   0  0  0  0  0  0  0  0  0  0  0  0
  141.4731   71.8753  229.1109 H   0  0  0  0  0  0  0  0  0  0  0  0
  141.4148   72.9848  226.8726 H   0  0  0  0  0  0  0  0  0  0  0  0
  1  2  2  0
  2  3  1  0
  3  4  1  0
  4  5  1  0
  5  6  2  0
  5  7  1  0
  7  8  1  0
  8  9  1  0
  9 10  1  0
 10 11  1  0
 11 12  1  0
 12 13  1  0
 13 14  2  0
 14 15  1  0
 15 16  2  0
 16 17  1  0
 17 18  1  0
 17 19  2  0
  2 20  1  0
 20 21  2  0
 21 22  1  0
 22 23  2  0
 23 24  1  0
 24 25  2  0
 25 26  1  0
 26 27  2  0
 27 28  1  0
 28 29  2  0
 11  7  1  0
 19 13  1  0
 29 20  1  0
 28 23  1  0
  3 30  1  0
  4 31  1  0
  4 32  1  0
  8 33  1  0
  8 34  1  0
  9 35  1  0
  9 36  1  0
 10 37  1  0
 10 38  1  0
 11 39  1  6
 12 40  1  0
 12 41  1  0
 14 42  1  0
 15 43  1  0
 16 44  1  0
 19 45  1  0
 21 46  1  0
 22 47  1  0
 24 48  1  0
 25 49  1  0
 26 50  1  0
 27 51  1  0
M  END
>  <smiles>  (5) 
O=C(NCC(=O)N1CCCC1Cc1cccc(Cl)c1)c1ccc2ccccc2n1

>  <score_type>  (5) 
oracle

>  <origin>  (5) 
autodockgpu

>  <m_score__min__energy>  (5) 
-9.2899999999999991

>  <m_primary>  (5) 
energy

>  <rmsd>  (5) 
1.4187487609785043

>  <m_score__min__rmsd>  (5) 
1.4187487609785043

>  <meeko>  (5) 
{"free_energy": -8.81, "intermolecular_energy": -10.6, "internal_energy": -2.15, "cluster_size": 39, "cluster_id": 1, "rank_in_cluster": 22}

>  <energy>  (5) 
-9.09

>  <cluster_rmsd>  (5) 
1.22

>  <cluster>  (5) 
1

$$$$

     RDKit          3D

 51 54  0  0  0  0  0  0  0  0999 V2000
  139.8760   70.6310  221.3100 O   0  0  0  0  0  0  0  0  0  0  0  0
  139.7930   71.2660  222.3960 C   0  0  0  0  0  0  0  0  0  0  0  0
  139.7230   72.6700  222.3930 N   0  0  0  0  0  0  0  0  0  0  0  0
  139.7380   73.4740  221.1890 C   0  0  0  0  0  0  0  0  0  0  0  0
  140.2280   74.8280  221.5260 C   0  0  0  0  0  0  0  0  0  0  0  0
  139.9160   75.3040  222.6480 O   0  0  0  0  0  0  0  0  0  0  0  0
  141.0250   75.5300  220.5740 N   0  0  0  0  0  0  0  0  0  0  0  0
  142.2940   75.0750  219.9890 C   0  0  0  0  0  0  0  0  0  0  0  0
  143.0300   76.3340  219.5820 C   0  0  0  0  0  0  0  0  0  0  0  0
  142.1430   77.4680  220.1090 C   0  0  0  0  0  0  0  0  0  0  0  0
  140.7880   76.8220  219.9690 C   0  0  2  0  0  0  0  0  0  0  0  0
  139.7050   77.6190  220.6620 C   0  0  0  0  0  0  0  0  0  0  0  0
  140.4370   78.5200  221.6190 C   0  0  0  0  0  0  0  0  0  0  0  0
  140.9590   77.9450  222.7630 C   0  0  0  0  0  0  0  0  0  0  0  0
  141.6380   78.7790  223.6530 C   0  0  0  0  0  0  0  0  0  0  0  0
  141.7870   80.1240  223.4100 C   0  0  0  0  0  0  0  0  0  0  0  0
  141.2450   80.6750  222.2430 C   0  0  0  0  0  0  0  0  0  0  0  0
  141.4500   82.3980  221.9560 Cl  0  0  0  0  0  0  0  0  0  0  0  0
  140.5620   79.8680  221.3360 C   0  0  0  0  0  0  0  0  0  0  0  0
  139.7700   70.5310  223.6740 C   0  0  0  0  0  0  0  0  0  0  0  0
  139.2060   69.2730  223.7420 C   0  0  0  0  0  0  0  0  0  0  0  0
  139.2140   68.6300  224.9760 C   0  0  0  0  0  0  0  0  0  0  0  0
  139.7650   69.2300  226.0860 C   0  0  0  0  0  0  0  0  0  0  0  0
  139.7930   68.6230  227.3290 C   0  0  0  0  0  0  0  0  0  0  0  0
  140.3530   69.2460  228.4330 C   0  0  0  0  0  0  0  0  0  0  0  0
  140.9030   70.4960  228.3220 C   0  0  0  0  0  0  0  0  0  0  0  0
  140.8850   71.1230  227.0800 C   0  0  0  0  0  0  0  0  0  0  0  0
  140.3190   70.4890  225.9720 C   0  0  0  0  0  0  0  0  0  0  0  0
  140.3030   71.0960  224.7770 N   0  0  0  0  0  0  0  0  0  0  0  0
  139.6540   73.1460  223.3350 H   0  0  0  0  0  0  0  0  0  0  0  0
  140.4054   73.0138  220.4455 H   0  0  0  0  0  0  0  0  0  0  0  0
  138.7232   73.5375  220.7694 H   0  0  0  0  0  0  0  0  0  0  0  0
  142.8786   74.5115  220.7311 H   0  0  0  0  0  0  0  0  0  0  0  0
  142.1299   74.4048  219.1323 H   0  0  0  0  0  0  0  0  0  0  0  0
  144.0275   76.3707  220.0442 H   0  0  0  0  0  0  0  0  0  0  0  0
  143.1959   76.3955  218.4963 H   0  0  0  0  0  0  0  0  0  0  0  0
  142.3726   77.7136  221.1564 H   0  0  0  0  0  0  0  0  0  0  0  0
  142.2563   78.4285  219.5849 H   0  0  0  0  0  0  0  0  0  0  0  0
  140.4182   76.7559  218.9351 H   0  0  0  0  0  0  0  0  0  0  0  0
  139.1344   78.2121  219.9322 H   0  0  0  0  0  0  0  0  0  0  0  0
  138.9802   76.9711  221.1767 H   0  0  0  0  0  0  0  0  0  0  0  0
  140.8435   76.8698  222.9644 H   0  0  0  0  0  0  0  0  0  0  0  0
  142.0644   78.3494  224.5715 H   0  0  0  0  0  0  0  0  0  0  0  0
  142.3270   80.7611  224.1259 H   0  0  0  0  0  0  0  0  0  0  0  0
  140.1324   80.2927  220.4167 H   0  0  0  0  0  0  0  0  0  0  0  0
  138.7664   68.7963  222.8534 H   0  0  0  0  0  0  0  0  0  0  0  0
  138.7731   67.6263  225.0661 H   0  0  0  0  0  0  0  0  0  0  0  0
  139.3590   67.6188  227.4440 H   0  0  0  0  0  0  0  0  0  0  0  0
  140.3560   68.7330  229.4060 H   0  0  0  0  0  0  0  0  0  0  0  0
  141.3492   70.9931  229.1959 H   0  0  0  0  0  0  0  0  0  0  0  0
  141.3205   72.1271  226.9699 H   0  0  0  0  0  0  0  0  0  0  0  0
  1  2  2  0
  2  3  1  0
  3  4  1  0
  4  5  1  0
  5  6  2  0
  5  7  1  0
  7  8  1  0
  8  9  1  0
  9 10  1  0
 10 11  1  0
 11 12  1  0
 12 13  1  0
 13 14  2  0
 14 15  1  0
 15 16  2  0
 16 17  1  0
 17 18  1  0
 17 19  2  0
  2 20  1  0
 20 21  2  0
 21 22  1  0
 22 23  2  0
 23 24  1  0
 24 25  2  0
 25 26  1  0
 26 27  2  0
 27 28  1  0
 28 29  2  0
 11  7  1  0
 19 13  1  0
 29 20  1  0
 28 23  1  0
  3 30  1  0
  4 31  1  0
  4 32  1  0
  8 33  1  0
  8 34  1  0
  9 35  1  0
  9 36  1  0
 10 37  1  0
 10 38  1  0
 11 39  1  6
 12 40  1  0
 12 41  1  0
 14 42  1  0
 15 43  1  0
 16 44  1  0
 19 45  1  0
 21 46  1  0
 22 47  1  0
 24 48  1  0
 25 49  1  0
 26 50  1  0
 27 51  1  0
M  END
>  <smiles>  (6) 
O=C(NCC(=O)N1CCCC1Cc1cccc(Cl)c1)c1ccc2ccccc2n1

>  <score_type>  (6) 
oracle

>  <origin>  (6) 
autodockgpu

>  <m_score__min__energy>  (6) 
-9.2899999999999991

>  <m_primary>  (6) 
energy

>  <rmsd>  (6) 
1.915164936592759

>  <m_score__min__rmsd>  (6) 
1.915164936592759

>  <meeko>  (6) 
{"free_energy": -8.9, "intermolecular_energy": -10.69, "internal_energy": -1.86, "cluster_size": 39, "cluster_id": 1, "rank_in_cluster": 15}

>  <energy>  (6) 
-9.09

>  <cluster_rmsd>  (6) 
1.2

>  <cluster>  (6) 
1

$$$$

     RDKit          3D

 51 54  0  0  0  0  0  0  0  0999 V2000
  138.9570   70.8060  221.3690 O   0  0  0  0  0  0  0  0  0  0  0  0
  139.2500   71.5090  222.3740 C   0  0  0  0  0  0  0  0  0  0  0  0
  139.2930   72.9100  222.2710 N   0  0  0  0  0  0  0  0  0  0  0  0
  139.0140   73.6360  221.0500 C   0  0  0  0  0  0  0  0  0  0  0  0
  139.4030   75.0500  221.2360 C   0  0  0  0  0  0  0  0  0  0  0  0
  139.6980   75.4310  222.3990 O   0  0  0  0  0  0  0  0  0  0  0  0
  139.4280   75.9140  220.1030 N   0  0  0  0  0  0  0  0  0  0  0  0
  138.5740   75.8210  218.9100 C   0  0  0  0  0  0  0  0  0  0  0  0
  139.3540   76.4850  217.7960 C   0  0  0  0  0  0  0  0  0  0  0  0
  140.7110   76.8050  218.4340 C   0  0  0  0  0  0  0  0  0  0  0  0
  140.2750   77.0610  219.8530 C   0  0  2  0  0  0  0  0  0  0  0  0
  141.4510   77.1540  220.8000 C   0  0  0  0  0  0  0  0  0  0  0  0
  141.5950   78.6210  221.1000 C   0  0  0  0  0  0  0  0  0  0  0  0
  141.3330   79.5100  220.0740 C   0  0  0  0  0  0  0  0  0  0  0  0
  141.4670   80.8720  220.3500 C   0  0  0  0  0  0  0  0  0  0  0  0
  141.8440   81.3230  221.5920 C   0  0  0  0  0  0  0  0  0  0  0  0
  142.1020   80.3960  222.6090 C   0  0  0  0  0  0  0  0  0  0  0  0
  142.5840   80.9980  224.1900 Cl  0  0  0  0  0  0  0  0  0  0  0  0
  141.9780   79.0310  222.3650 C   0  0  0  0  0  0  0  0  0  0  0  0
  139.5480   70.8560  223.6620 C   0  0  0  0  0  0  0  0  0  0  0  0
  139.2810   69.5140  223.8390 C   0  0  0  0  0  0  0  0  0  0  0  0
  139.5840   68.9550  225.0770 C   0  0  0  0  0  0  0  0  0  0  0  0
  140.1320   69.7160  226.0850 C   0  0  0  0  0  0  0  0  0  0  0  0
  140.4480   69.1990  227.3290 C   0  0  0  0  0  0  0  0  0  0  0  0
  140.9980   69.9830  228.3280 C   0  0  0  0  0  0  0  0  0  0  0  0
  141.2480   71.3130  228.1100 C   0  0  0  0  0  0  0  0  0  0  0  0
  140.9380   71.8540  226.8660 C   0  0  0  0  0  0  0  0  0  0  0  0
  140.3830   71.0560  225.8630 C   0  0  0  0  0  0  0  0  0  0  0  0
  140.0850   71.5790  224.6670 N   0  0  0  0  0  0  0  0  0  0  0  0
  139.5440   73.4450  223.1480 H   0  0  0  0  0  0  0  0  0  0  0  0
  139.5907   73.2001  220.2209 H   0  0  0  0  0  0  0  0  0  0  0  0
  137.9415   73.5717  220.8142 H   0  0  0  0  0  0  0  0  0  0  0  0
  138.3733   74.7680  218.6630 H   0  0  0  0  0  0  0  0  0  0  0  0
  137.5997   76.3063  219.0690 H   0  0  0  0  0  0  0  0  0  0  0  0
  139.4746   75.8022  216.9421 H   0  0  0  0  0  0  0  0  0  0  0  0
  138.8502   77.3794  217.4008 H   0  0  0  0  0  0  0  0  0  0  0  0
  141.4051   75.9543  218.3668 H   0  0  0  0  0  0  0  0  0  0  0  0
  141.2635   77.6306  217.9615 H   0  0  0  0  0  0  0  0  0  0  0  0
  139.7613   78.0216  220.0058 H   0  0  0  0  0  0  0  0  0  0  0  0
  141.2504   76.5888  221.7221 H   0  0  0  0  0  0  0  0  0  0  0  0
  142.3673   76.7299  220.3634 H   0  0  0  0  0  0  0  0  0  0  0  0
  141.0301   79.1572  219.0771 H   0  0  0  0  0  0  0  0  0  0  0  0
  141.2656   81.6027  219.5528 H   0  0  0  0  0  0  0  0  0  0  0  0
  141.9421   82.4014  221.7853 H   0  0  0  0  0  0  0  0  0  0  0  0
  142.1795   78.2963  223.1584 H   0  0  0  0  0  0  0  0  0  0  0  0
  138.8447   68.9081  223.0312 H   0  0  0  0  0  0  0  0  0  0  0  0
  139.3824   67.8880  225.2529 H   0  0  0  0  0  0  0  0  0  0  0  0
  140.2566   68.1345  227.5296 H   0  0  0  0  0  0  0  0  0  0  0  0
  141.2363   69.5356  229.3042 H   0  0  0  0  0  0  0  0  0  0  0  0
  141.6845   71.9395  228.9018 H   0  0  0  0  0  0  0  0  0  0  0  0
  141.1317   72.9191  226.6709 H   0  0  0  0  0  0  0  0  0  0  0  0
  1  2  2  0
  2  3  1  0
  3  4  1  0
  4  5  1  0
  5  6  2  0
  5  7  1  0
  7  8  1  0
  8  9  1  0
  9 10  1  0
 10 11  1  0
 11 12  1  0
 12 13  1  0
 13 14  2  0
 14 15  1  0
 15 16  2  0
 16 17  1  0
 17 18  1  0
 17 19  2  0
  2 20  1  0
 20 21  2  0
 21 22  1  0
 22 23  2  0
 23 24  1  0
 24 25  2  0
 25 26  1  0
 26 27  2  0
 27 28  1  0
 28 29  2  0
 11  7  1  0
 19 13  1  0
 29 20  1  0
 28 23  1  0
  3 30  1  0
  4 31  1  0
  4 32  1  0
  8 33  1  0
  8 34  1  0
  9 35  1  0
  9 36  1  0
 10 37  1  0
 10 38  1  0
 11 39  1  6
 12 40  1  0
 12 41  1  0
 14 42  1  0
 15 43  1  0
 16 44  1  0
 19 45  1  0
 21 46  1  0
 22 47  1  0
 24 48  1  0
 25 49  1  0
 26 50  1  0
 27 51  1  0
M  END
>  <smiles>  (7) 
O=C(NCC(=O)N1CCCC1Cc1cccc(Cl)c1)c1ccc2ccccc2n1

>  <score_type>  (7) 
oracle

>  <origin>  (7) 
autodockgpu

>  <m_score__min__energy>  (7) 
-9.2899999999999991

>  <m_primary>  (7) 
energy

>  <rmsd>  (7) 
1.076076538076525

>  <m_score__min__rmsd>  (7) 
1.076076538076525

>  <meeko>  (7) 
{"free_energy": -8.31, "intermolecular_energy": -10.1, "internal_energy": -2.11, "cluster_size": 39, "cluster_id": 1, "rank_in_cluster": 39}

>  <energy>  (7) 
-9.07

>  <cluster_rmsd>  (7) 
1.3

>  <cluster>  (7) 
1

$$$$

     RDKit          3D

 51 54  0  0  0  0  0  0  0  0999 V2000
  138.0680   70.9320  221.8730 O   0  0  0  0  0  0  0  0  0  0  0  0
  138.8100   71.3640  222.7960 C   0  0  0  0  0  0  0  0  0  0  0  0
  139.3500   72.6590  222.7250 N   0  0  0  0  0  0  0  0  0  0  0  0
  139.1080   73.5730  221.6280 C   0  0  0  0  0  0  0  0  0  0  0  0
  140.2860   74.4540  221.4730 C   0  0  0  0  0  0  0  0  0  0  0  0
  141.3760   74.0710  221.9700 O   0  0  0  0  0  0  0  0  0  0  0  0
  140.1370   75.6880  220.7740 N   0  0  0  0  0  0  0  0  0  0  0  0
  139.7350   75.8570  219.3710 C   0  0  0  0  0  0  0  0  0  0  0  0
  140.3150   77.1860  218.9370 C   0  0  0  0  0  0  0  0  0  0  0  0
  141.1530   77.6340  220.1400 C   0  0  0  0  0  0  0  0  0  0  0  0
  140.3390   77.0360  221.2590 C   0  0  2  0  0  0  0  0  0  0  0  0
  141.0680   77.0930  222.5830 C   0  0  0  0  0  0  0  0  0  0  0  0
  141.0030   78.5360  223.0020 C   0  0  0  0  0  0  0  0  0  0  0  0
  142.1970   79.2270  223.0940 C   0  0  0  0  0  0  0  0  0  0  0  0
  142.1390   80.5660  223.4840 C   0  0  0  0  0  0  0  0  0  0  0  0
  140.9450   81.1850  223.7670 C   0  0  0  0  0  0  0  0  0  0  0  0
  139.7540   80.4560  223.6640 C   0  0  0  0  0  0  0  0  0  0  0  0
  138.2390   81.2710  224.0320 Cl  0  0  0  0  0  0  0  0  0  0  0  0
  139.7780   79.1180  223.2790 C   0  0  0  0  0  0  0  0  0  0  0  0
  139.1110   70.5040  223.9550 C   0  0  0  0  0  0  0  0  0  0  0  0
  138.7310   69.1770  223.9540 C   0  0  0  0  0  0  0  0  0  0  0  0
  139.0430   68.4160  225.0760 C   0  0  0  0  0  0  0  0  0  0  0  0
  139.7080   68.9700  226.1470 C   0  0  0  0  0  0  0  0  0  0  0  0
  140.0370   68.2480  227.2810 C   0  0  0  0  0  0  0  0  0  0  0  0
  140.7050   68.8270  228.3460 C   0  0  0  0  0  0  0  0  0  0  0  0
  141.0650   70.1480  228.3080 C   0  0  0  0  0  0  0  0  0  0  0  0
  140.7430   70.8930  227.1770 C   0  0  0  0  0  0  0  0  0  0  0  0
  140.0690   70.3020  226.1060 C   0  0  0  0  0  0  0  0  0  0  0  0
  139.7610   71.0210  225.0180 N   0  0  0  0  0  0  0  0  0  0  0  0
  139.9640   72.9650  223.5300 H   0  0  0  0  0  0  0  0  0  0  0  0
  138.9477   73.0034  220.7007 H   0  0  0  0  0  0  0  0  0  0  0  0
  138.2134   74.1783  221.8362 H   0  0  0  0  0  0  0  0  0  0  0  0
  140.1411   75.0415  218.7546 H   0  0  0  0  0  0  0  0  0  0  0  0
  138.6413   75.8340  219.2561 H   0  0  0  0  0  0  0  0  0  0  0  0
  140.9459   77.0646  218.0441 H   0  0  0  0  0  0  0  0  0  0  0  0
  139.5403   77.9177  218.6640 H   0  0  0  0  0  0  0  0  0  0  0  0
  142.1706   77.2177  220.1071 H   0  0  0  0  0  0  0  0  0  0  0  0
  141.3172   78.7192  220.2135 H   0  0  0  0  0  0  0  0  0  0  0  0
  139.3993   77.5657  221.4743 H   0  0  0  0  0  0  0  0  0  0  0  0
  140.5708   76.4520  223.3259 H   0  0  0  0  0  0  0  0  0  0  0  0
  142.1042   76.7335  222.4996 H   0  0  0  0  0  0  0  0  0  0  0  0
  143.1570   78.7397  222.8682 H   0  0  0  0  0  0  0  0  0  0  0  0
  143.0732   81.1407  223.5670 H   0  0  0  0  0  0  0  0  0  0  0  0
  140.9252   82.2419  224.0712 H   0  0  0  0  0  0  0  0  0  0  0  0
  138.8469   78.5381  223.1971 H   0  0  0  0  0  0  0  0  0  0  0  0
  138.2005   68.7370  223.0967 H   0  0  0  0  0  0  0  0  0  0  0  0
  138.7540   67.3551  225.1081 H   0  0  0  0  0  0  0  0  0  0  0  0
  139.7600   67.1849  227.3374 H   0  0  0  0  0  0  0  0  0  0  0  0
  140.9490   68.2208  229.2309 H   0  0  0  0  0  0  0  0  0  0  0  0
  141.5969   70.6101  229.1527 H   0  0  0  0  0  0  0  0  0  0  0  0
  141.0217   71.9559  227.1264 H   0  0  0  0  0  0  0  0  0  0  0  0
  1  2  2  0
  2  3  1  0
  3  4  1  0
  4  5  1  0
  5  6  2  0
  5  7  1  0
  7  8  1  0
  8  9  1  0
  9 10  1  0
 10 11  1  0
 11 12  1  0
 12 13  1  0
 13 14  2  0
 14 15  1  0
 15 16  2  0
 16 17  1  0
 17 18  1  0
 17 19  2  0
  2 20  1  0
 20 21  2  0
 21 22  1  0
 22 23  2  0
 23 24  1  0
 24 25  2  0
 25 26  1  0
 26 27  2  0
 27 28  1  0
 28 29  2  0
 11  7  1  0
 19 13  1  0
 29 20  1  0
 28 23  1  0
  3 30  1  0
  4 31  1  0
  4 32  1  0
  8 33  1  0
  8 34  1  0
  9 35  1  0
  9 36  1  0
 10 37  1  0
 10 38  1  0
 11 39  1  1
 12 40  1  0
 12 41  1  0
 14 42  1  0
 15 43  1  0
 16 44  1  0
 19 45  1  0
 21 46  1  0
 22 47  1  0
 24 48  1  0
 25 49  1  0
 26 50  1  0
 27 51  1  0
M  END
>  <smiles>  (8) 
O=C(NCC(=O)N1CCCC1Cc1cccc(Cl)c1)c1ccc2ccccc2n1

>  <score_type>  (8) 
oracle

>  <origin>  (8) 
autodockgpu

>  <m_score__min__energy>  (8) 
-9.2899999999999991

>  <m_primary>  (8) 
energy

>  <rmsd>  (8) 
1.35553402441782

>  <m_score__min__rmsd>  (8) 
1.35553402441782

>  <meeko>  (8) 
{"free_energy": -8.68, "intermolecular_energy": -10.47, "internal_energy": -1.96, "cluster_size": 39, "cluster_id": 1, "rank_in_cluster": 28}

>  <energy>  (8) 
-9.07

>  <cluster_rmsd>  (8) 
1.19

>  <cluster>  (8) 
1

$$$$

     RDKit          3D

 51 54  0  0  0  0  0  0  0  0999 V2000
  139.6800   70.8650  221.2120 O   0  0  0  0  0  0  0  0  0  0  0  0
  139.6920   71.5170  222.2910 C   0  0  0  0  0  0  0  0  0  0  0  0
  139.6730   72.9220  222.2710 N   0  0  0  0  0  0  0  0  0  0  0  0
  139.6400   73.7090  221.0570 C   0  0  0  0  0  0  0  0  0  0  0  0
  140.4110   74.9530  221.2730 C   0  0  0  0  0  0  0  0  0  0  0  0
  140.2110   75.5910  222.3390 O   0  0  0  0  0  0  0  0  0  0  0  0
  141.3380   75.3720  220.2740 N   0  0  0  0  0  0  0  0  0  0  0  0
  142.6410   74.7600  219.9770 C   0  0  0  0  0  0  0  0  0  0  0  0
  143.4750   75.8590  219.3520 C   0  0  0  0  0  0  0  0  0  0  0  0
  142.5890   77.1050  219.4670 C   0  0  0  0  0  0  0  0  0  0  0  0
  141.2290   76.4690  219.3370 C   0  0  2  0  0  0  0  0  0  0  0  0
  140.1160   77.4350  219.6740 C   0  0  0  0  0  0  0  0  0  0  0  0
  140.8050   78.6310  220.2720 C   0  0  0  0  0  0  0  0  0  0  0  0
  141.0980   79.6860  219.4280 C   0  0  0  0  0  0  0  0  0  0  0  0
  141.7380   80.7960  219.9810 C   0  0  0  0  0  0  0  0  0  0  0  0
  142.0690   80.8500  221.3140 C   0  0  0  0  0  0  0  0  0  0  0  0
  141.7590   79.7640  222.1410 C   0  0  0  0  0  0  0  0  0  0  0  0
  142.1930   79.8560  223.8430 Cl  0  0  0  0  0  0  0  0  0  0  0  0
  141.1210   78.6410  221.6190 C   0  0  0  0  0  0  0  0  0  0  0  0
  139.7240   70.8000  223.5790 C   0  0  0  0  0  0  0  0  0  0  0  0
  139.2180   69.5190  223.6750 C   0  0  0  0  0  0  0  0  0  0  0  0
  139.2780   68.8940  224.9170 C   0  0  0  0  0  0  0  0  0  0  0  0
  139.8220   69.5330  226.0080 C   0  0  0  0  0  0  0  0  0  0  0  0
  139.9000   68.9470  227.2590 C   0  0  0  0  0  0  0  0  0  0  0  0
  140.4520   69.6080  228.3420 C   0  0  0  0  0  0  0  0  0  0  0  0
  140.9440   70.8800  228.2050 C   0  0  0  0  0  0  0  0  0  0  0  0
  140.8750   71.4880  226.9550 C   0  0  0  0  0  0  0  0  0  0  0  0
  140.3170   70.8150  225.8660 C   0  0  0  0  0  0  0  0  0  0  0  0
  140.2520   71.4030  224.6650 N   0  0  0  0  0  0  0  0  0  0  0  0
  139.6840   73.4120  223.2090 H   0  0  0  0  0  0  0  0  0  0  0  0
  140.0879   73.1352  220.2323 H   0  0  0  0  0  0  0  0  0  0  0  0
  138.5992   73.9548  220.7996 H   0  0  0  0  0  0  0  0  0  0  0  0
  143.1144   74.3974  220.9014 H   0  0  0  0  0  0  0  0  0  0  0  0
  142.5402   73.8943  219.3059 H   0  0  0  0  0  0  0  0  0  0  0  0
  144.4172   75.9966  219.9028 H   0  0  0  0  0  0  0  0  0  0  0  0
  143.7608   75.6361  218.3134 H   0  0  0  0  0  0  0  0  0  0  0  0
  142.7141   77.6072  220.4376 H   0  0  0  0  0  0  0  0  0  0  0  0
  142.8034   77.8963  218.7336 H   0  0  0  0  0  0  0  0  0  0  0  0
  140.9716   76.1463  218.3174 H   0  0  0  0  0  0  0  0  0  0  0  0
  139.5642   77.7207  218.7663 H   0  0  0  0  0  0  0  0  0  0  0  0
  139.3815   76.9940  220.3639 H   0  0  0  0  0  0  0  0  0  0  0  0
  140.8364   79.6518  218.3601 H   0  0  0  0  0  0  0  0  0  0  0  0
  141.9841   81.6502  219.3331 H   0  0  0  0  0  0  0  0  0  0  0  0
  142.5721   81.7370  221.7264 H   0  0  0  0  0  0  0  0  0  0  0  0
  140.8745   77.7832  222.2620 H   0  0  0  0  0  0  0  0  0  0  0  0
  138.7833   69.0109  222.8016 H   0  0  0  0  0  0  0  0  0  0  0  0
  138.8843   67.8729  225.0286 H   0  0  0  0  0  0  0  0  0  0  0  0
  139.5122   67.9268  227.3965 H   0  0  0  0  0  0  0  0  0  0  0  0
  140.4964   69.1085  229.3211 H   0  0  0  0  0  0  0  0  0  0  0  0
  141.3835   71.4084  229.0638 H   0  0  0  0  0  0  0  0  0  0  0  0
  141.2638   72.5086  226.8235 H   0  0  0  0  0  0  0  0  0  0  0  0
  1  2  2  0
  2  3  1  0
  3  4  1  0
  4  5  1  0
  5  6  2  0
  5  7  1  0
  7  8  1  0
  8  9  1  0
  9 10  1  0
 10 11  1  0
 11 12  1  0
 12 13  1  0
 13 14  2  0
 14 15  1  0
 15 16  2  0
 16 17  1  0
 17 18  1  0
 17 19  2  0
  2 20  1  0
 20 21  2  0
 21 22  1  0
 22 23  2  0
 23 24  1  0
 24 25  2  0
 25 26  1  0
 26 27  2  0
 27 28  1  0
 28 29  2  0
 11  7  1  0
 19 13  1  0
 29 20  1  0
 28 23  1  0
  3 30  1  0
  4 31  1  0
  4 32  1  0
  8 33  1  0
  8 34  1  0
  9 35  1  0
  9 36  1  0
 10 37  1  0
 10 38  1  0
 11 39  1  6
 12 40  1  0
 12 41  1  0
 14 42  1  0
 15 43  1  0
 16 44  1  0
 19 45  1  0
 21 46  1  0
 22 47  1  0
 24 48  1  0
 25 49  1  0
 26 50  1  0
 27 51  1  0
M  END
>  <smiles>  (9) 
O=C(NCC(=O)N1CCCC1Cc1cccc(Cl)c1)c1ccc2ccccc2n1

>  <score_type>  (9) 
oracle

>  <origin>  (9) 
autodockgpu

>  <m_score__min__energy>  (9) 
-9.2899999999999991

>  <m_primary>  (9) 
energy

>  <rmsd>  (9) 
1.9734697544091122

>  <m_score__min__rmsd>  (9) 
1.9734697544091122

>  <meeko>  (9) 
{"free_energy": -8.71, "intermolecular_energy": -10.5, "internal_energy": -1.82, "cluster_size": 39, "cluster_id": 1, "rank_in_cluster": 25}

>  <energy>  (9) 
-9.04

>  <cluster_rmsd>  (9) 
1.27

>  <cluster>  (9) 
1

$$$$

     RDKit          3D

 51 54  0  0  0  0  0  0  0  0999 V2000
  140.9640   71.7430  221.4580 O   0  0  0  0  0  0  0  0  0  0  0  0
  140.2130   72.1180  222.3980 C   0  0  0  0  0  0  0  0  0  0  0  0
  139.4470   73.2890  222.2700 N   0  0  0  0  0  0  0  0  0  0  0  0
  139.4540   74.1310  221.0920 C   0  0  0  0  0  0  0  0  0  0  0  0
  139.3730   75.5450  221.5160 C   0  0  0  0  0  0  0  0  0  0  0  0
  139.0740   75.7840  222.7150 O   0  0  0  0  0  0  0  0  0  0  0  0
  139.6340   76.5690  220.5580 N   0  0  0  0  0  0  0  0  0  0  0  0
  139.0690   76.6670  219.2050 C   0  0  0  0  0  0  0  0  0  0  0  0
  140.0650   77.4790  218.4040 C   0  0  0  0  0  0  0  0  0  0  0  0
  141.2390   77.6790  219.3690 C   0  0  0  0  0  0  0  0  0  0  0  0
  140.4930   77.7270  220.6780 C   0  0  2  0  0  0  0  0  0  0  0  0
  141.4270   77.6590  221.8660 C   0  0  0  0  0  0  0  0  0  0  0  0
  141.5780   79.0840  222.3250 C   0  0  0  0  0  0  0  0  0  0  0  0
  142.3110   79.3080  223.4750 C   0  0  0  0  0  0  0  0  0  0  0  0
  142.4530   80.6290  223.9030 C   0  0  0  0  0  0  0  0  0  0  0  0
  141.8880   81.6760  223.2140 C   0  0  0  0  0  0  0  0  0  0  0  0
  141.1500   81.4140  222.0530 C   0  0  0  0  0  0  0  0  0  0  0  0
  140.4380   82.7700  221.1900 Cl  0  0  0  0  0  0  0  0  0  0  0  0
  140.9910   80.1060  221.6010 C   0  0  0  0  0  0  0  0  0  0  0  0
  140.1390   71.3230  223.6380 C   0  0  0  0  0  0  0  0  0  0  0  0
  139.5840   70.0590  223.6210 C   0  0  0  0  0  0  0  0  0  0  0  0
  139.5430   69.3570  224.8220 C   0  0  0  0  0  0  0  0  0  0  0  0
  140.0400   69.9070  225.9820 C   0  0  0  0  0  0  0  0  0  0  0  0
  140.0180   69.2420  227.1960 C   0  0  0  0  0  0  0  0  0  0  0  0
  140.5230   69.8150  228.3510 C   0  0  0  0  0  0  0  0  0  0  0  0
  141.0670   71.0720  228.3240 C   0  0  0  0  0  0  0  0  0  0  0  0
  141.0980   71.7580  227.1140 C   0  0  0  0  0  0  0  0  0  0  0  0
  140.5870   71.1750  225.9530 C   0  0  0  0  0  0  0  0  0  0  0  0
  140.6180   71.8370  224.7890 N   0  0  0  0  0  0  0  0  0  0  0  0
  138.8350   73.5520  223.0930 H   0  0  0  0  0  0  0  0  0  0  0  0
  140.3831   73.9674  220.5262 H   0  0  0  0  0  0  0  0  0  0  0  0
  138.5951   73.8835  220.4508 H   0  0  0  0  0  0  0  0  0  0  0  0
  138.9489   75.6656  218.7659 H   0  0  0  0  0  0  0  0  0  0  0  0
  138.0744   77.1369  219.2129 H   0  0  0  0  0  0  0  0  0  0  0  0
  140.3855   76.9300  217.5063 H   0  0  0  0  0  0  0  0  0  0  0  0
  139.6451   78.4299  218.0441 H   0  0  0  0  0  0  0  0  0  0  0  0
  141.9462   76.8373  219.3323 H   0  0  0  0  0  0  0  0  0  0  0  0
  141.8673   78.5574  219.1601 H   0  0  0  0  0  0  0  0  0  0  0  0
  139.9405   78.6616  220.8548 H   0  0  0  0  0  0  0  0  0  0  0  0
  140.9924   77.0397  222.6645 H   0  0  0  0  0  0  0  0  0  0  0  0
  142.3941   77.2042  221.6056 H   0  0  0  0  0  0  0  0  0  0  0  0
  142.7658   78.4759  224.0325 H   0  0  0  0  0  0  0  0  0  0  0  0
  143.0318   80.8376  224.8149 H   0  0  0  0  0  0  0  0  0  0  0  0
  142.0143   82.7088  223.5710 H   0  0  0  0  0  0  0  0  0  0  0  0
  140.4126   79.8911  220.6903 H   0  0  0  0  0  0  0  0  0  0  0  0
  139.1886   69.6226  222.6919 H   0  0  0  0  0  0  0  0  0  0  0  0
  139.1069   68.3474  224.8447 H   0  0  0  0  0  0  0  0  0  0  0  0
  139.5876   68.2308  227.2444 H   0  0  0  0  0  0  0  0  0  0  0  0
  140.4871   69.2563  229.2979 H   0  0  0  0  0  0  0  0  0  0  0  0
  141.4707   71.5292  229.2394 H   0  0  0  0  0  0  0  0  0  0  0  0
  141.5292   72.7691  227.0717 H   0  0  0  0  0  0  0  0  0  0  0  0
  1  2  2  0
  2  3  1  0
  3  4  1  0
  4  5  1  0
  5  6  2  0
  5  7  1  0
  7  8  1  0
  8  9  1  0
  9 10  1  0
 10 11  1  0
 11 12  1  0
 12 13  1  0
 13 14  2  0
 14 15  1  0
 15 16  2  0
 16 17  1  0
 17 18  1  0
 17 19  2  0
  2 20  1  0
 20 21  2  0
 21 22  1  0
 22 23  2  0
 23 24  1  0
 24 25  2  0
 25 26  1  0
 26 27  2  0
 27 28  1  0
 28 29  2  0
 11  7  1  0
 19 13  1  0
 29 20  1  0
 28 23  1  0
  3 30  1  0
  4 31  1  0
  4 32  1  0
  8 33  1  0
  8 34  1  0
  9 35  1  0
  9 36  1  0
 10 37  1  0
 10 38  1  0
 11 39  1  1
 12 40  1  0
 12 41  1  0
 14 42  1  0
 15 43  1  0
 16 44  1  0
 19 45  1  0
 21 46  1  0
 22 47  1  0
 24 48  1  0
 25 49  1  0
 26 50  1  0
 27 51  1  0
M  END
>  <smiles>  (10) 
O=C(NCC(=O)N1CCCC1Cc1cccc(Cl)c1)c1ccc2ccccc2n1

>  <score_type>  (10) 
oracle

>  <origin>  (10) 
autodockgpu

>  <m_score__min__energy>  (10) 
-9.2899999999999991

>  <m_primary>  (10) 
energy

>  <rmsd>  (10) 
1.4743075057904906

>  <m_score__min__rmsd>  (10) 
1.4743075057904906

>  <meeko>  (10) 
{"free_energy": -8.9, "intermolecular_energy": -10.69, "internal_energy": -1.82, "cluster_size": 39, "cluster_id": 1, "rank_in_cluster": 14}

>  <energy>  (10) 
-9.01

>  <cluster_rmsd>  (10) 
1.3

>  <cluster>  (10) 
1

$$$$

     RDKit          3D

 51 54  0  0  0  0  0  0  0  0999 V2000
  141.0780   71.3770  221.4100 O   0  0  0  0  0  0  0  0  0  0  0  0
  140.4670   71.9200  222.3710 C   0  0  0  0  0  0  0  0  0  0  0  0
  140.0030   73.2410  222.2600 N   0  0  0  0  0  0  0  0  0  0  0  0
  140.1790   74.0600  221.0790 C   0  0  0  0  0  0  0  0  0  0  0  0
  139.5390   75.3730  221.3090 C   0  0  0  0  0  0  0  0  0  0  0  0
  138.6320   75.4410  222.1780 O   0  0  0  0  0  0  0  0  0  0  0  0
  139.9720   76.4950  220.5430 N   0  0  0  0  0  0  0  0  0  0  0  0
  139.8920   76.6440  219.0840 C   0  0  0  0  0  0  0  0  0  0  0  0
  140.9850   77.6230  218.7120 C   0  0  0  0  0  0  0  0  0  0  0  0
  141.7250   77.8690  220.0310 C   0  0  0  0  0  0  0  0  0  0  0  0
  140.5800   77.7260  221.0010 C   0  0  2  0  0  0  0  0  0  0  0  0
  141.0560   77.6620  222.4350 C   0  0  0  0  0  0  0  0  0  0  0  0
  141.4290   79.0760  222.7860 C   0  0  0  0  0  0  0  0  0  0  0  0
  142.2380   79.2650  223.8920 C   0  0  0  0  0  0  0  0  0  0  0  0
  142.5850   80.5770  224.2190 C   0  0  0  0  0  0  0  0  0  0  0  0
  142.1460   81.6480  223.4770 C   0  0  0  0  0  0  0  0  0  0  0  0
  141.3280   81.4200  222.3640 C   0  0  0  0  0  0  0  0  0  0  0  0
  140.7800   82.8060  221.4310 Cl  0  0  0  0  0  0  0  0  0  0  0  0
  140.9640   80.1230  222.0110 C   0  0  0  0  0  0  0  0  0  0  0  0
  140.2410   71.1620  223.6150 C   0  0  0  0  0  0  0  0  0  0  0  0
  139.5530   69.9650  223.5850 C   0  0  0  0  0  0  0  0  0  0  0  0
  139.3710   69.2960  224.7920 C   0  0  0  0  0  0  0  0  0  0  0  0
  139.8600   69.8130  225.9700 C   0  0  0  0  0  0  0  0  0  0  0  0
  139.7000   69.1790  227.1900 C   0  0  0  0  0  0  0  0  0  0  0  0
  140.2010   69.7170  228.3640 C   0  0  0  0  0  0  0  0  0  0  0  0
  140.8780   70.9080  228.3500 C   0  0  0  0  0  0  0  0  0  0  0  0
  141.0500   71.5620  227.1330 C   0  0  0  0  0  0  0  0  0  0  0  0
  140.5420   71.0130  225.9540 C   0  0  0  0  0  0  0  0  0  0  0  0
  140.7090   71.6450  224.7840 N   0  0  0  0  0  0  0  0  0  0  0  0
  139.4980   73.6410  223.0990 H   0  0  0  0  0  0  0  0  0  0  0  0
  141.2523   74.2012  220.8837 H   0  0  0  0  0  0  0  0  0  0  0  0
  139.7180   73.5669  220.2105 H   0  0  0  0  0  0  0  0  0  0  0  0
  140.0598   75.6757  218.5898 H   0  0  0  0  0  0  0  0  0  0  0  0
  138.9014   77.0011  218.7659 H   0  0  0  0  0  0  0  0  0  0  0  0
  141.6600   77.1886  217.9599 H   0  0  0  0  0  0  0  0  0  0  0  0
  140.5914   78.5491  218.2677 H   0  0  0  0  0  0  0  0  0  0  0  0
  142.5068   77.1156  220.2077 H   0  0  0  0  0  0  0  0  0  0  0  0
  142.2658   78.8252  220.0887 H   0  0  0  0  0  0  0  0  0  0  0  0
  139.8826   78.5766  221.0135 H   0  0  0  0  0  0  0  0  0  0  0  0
  140.2525   77.2996  223.0931 H   0  0  0  0  0  0  0  0  0  0  0  0
  141.9015   76.9693  222.5587 H   0  0  0  0  0  0  0  0  0  0  0  0
  142.5943   78.4139  224.4910 H   0  0  0  0  0  0  0  0  0  0  0  0
  143.2268   80.7588  225.0937 H   0  0  0  0  0  0  0  0  0  0  0  0
  142.4343   82.6726  223.7548 H   0  0  0  0  0  0  0  0  0  0  0  0
  140.3224   79.9358  221.1373 H   0  0  0  0  0  0  0  0  0  0  0  0
  139.1630   69.5551  222.6416 H   0  0  0  0  0  0  0  0  0  0  0  0
  138.8280   68.3394  224.8045 H   0  0  0  0  0  0  0  0  0  0  0  0
  139.1600   68.2214  227.2283 H   0  0  0  0  0  0  0  0  0  0  0  0
  140.0542   69.1839  229.3149 H   0  0  0  0  0  0  0  0  0  0  0  0
  141.2771   71.3383  229.2804 H   0  0  0  0  0  0  0  0  0  0  0  0
  141.5907   72.5194  227.1000 H   0  0  0  0  0  0  0  0  0  0  0  0
  1  2  2  0
  2  3  1  0
  3  4  1  0
  4  5  1  0
  5  6  2  0
  5  7  1  0
  7  8  1  0
  8  9  1  0
  9 10  1  0
 10 11  1  0
 11 12  1  0
 12 13  1  0
 13 14  2  0
 14 15  1  0
 15 16  2  0
 16 17  1  0
 17 18  1  0
 17 19  2  0
  2 20  1  0
 20 21  2  0
 21 22  1  0
 22 23  2  0
 23 24  1  0
 24 25  2  0
 25 26  1  0
 26 27  2  0
 27 28  1  0
 28 29  2  0
 11  7  1  0
 19 13  1  0
 29 20  1  0
 28 23  1  0
  3 30  1  0
  4 31  1  0
  4 32  1  0
  8 33  1  0
  8 34  1  0
  9 35  1  0
  9 36  1  0
 10 37  1  0
 10 38  1  0
 11 39  1  1
 12 40  1  0
 12 41  1  0
 14 42  1  0
 15 43  1  0
 16 44  1  0
 19 45  1  0
 21 46  1  0
 22 47  1  0
 24 48  1  0
 25 49  1  0
 26 50  1  0
 27 51  1  0
M  END
>  <smiles>  (11) 
O=C(NCC(=O)N1CCCC1Cc1cccc(Cl)c1)c1ccc2ccccc2n1

>  <score_type>  (11) 
oracle

>  <origin>  (11) 
autodockgpu

>  <m_score__min__energy>  (11) 
-9.2899999999999991

>  <m_primary>  (11) 
energy

>  <rmsd>  (11) 
1.7320978673022394

>  <m_score__min__rmsd>  (11) 
1.7320978673022394

>  <meeko>  (11) 
{"free_energy": -9.04, "intermolecular_energy": -10.83, "internal_energy": -1.86, "cluster_size": 39, "cluster_id": 1, "rank_in_cluster": 9}

>  <energy>  (11) 
-8.99

>  <cluster_rmsd>  (11) 
0.96

>  <cluster>  (11) 
1

$$$$

     RDKit          3D

 51 54  0  0  0  0  0  0  0  0999 V2000
  140.5910   71.1760  221.3230 O   0  0  0  0  0  0  0  0  0  0  0  0
  140.0080   71.6930  222.3140 C   0  0  0  0  0  0  0  0  0  0  0  0
  139.3980   72.9530  222.2010 N   0  0  0  0  0  0  0  0  0  0  0  0
  139.3870   73.7350  220.9820 C   0  0  0  0  0  0  0  0  0  0  0  0
  139.2560   75.1660  221.3340 C   0  0  0  0  0  0  0  0  0  0  0  0
  138.5280   75.4660  222.3160 O   0  0  0  0  0  0  0  0  0  0  0  0
  139.9540   76.1350  220.5550 N   0  0  0  0  0  0  0  0  0  0  0  0
  140.0240   76.1940  219.0890 C   0  0  0  0  0  0  0  0  0  0  0  0
  141.3080   76.9300  218.7710 C   0  0  0  0  0  0  0  0  0  0  0  0
  141.9690   77.1290  220.1390 C   0  0  0  0  0  0  0  0  0  0  0  0
  140.7410   77.2640  221.0020 C   0  0  2  0  0  0  0  0  0  0  0  0
  141.0750   77.2140  222.4770 C   0  0  0  0  0  0  0  0  0  0  0  0
  140.9570   78.6360  222.9520 C   0  0  0  0  0  0  0  0  0  0  0  0
  142.1170   79.3860  223.0140 C   0  0  0  0  0  0  0  0  0  0  0  0
  142.0090   80.7060  223.4550 C   0  0  0  0  0  0  0  0  0  0  0  0
  140.8000   81.2510  223.8150 C   0  0  0  0  0  0  0  0  0  0  0  0
  139.6440   80.4640  223.7410 C   0  0  0  0  0  0  0  0  0  0  0  0
  138.1090   81.1830  224.2090 Cl  0  0  0  0  0  0  0  0  0  0  0  0
  139.7190   79.1430  223.3060 C   0  0  0  0  0  0  0  0  0  0  0  0
  139.9670   70.9690  223.5980 C   0  0  0  0  0  0  0  0  0  0  0  0
  139.4150   69.7050  223.6660 C   0  0  0  0  0  0  0  0  0  0  0  0
  139.4050   69.0720  224.9050 C   0  0  0  0  0  0  0  0  0  0  0  0
  139.9280   69.6880  226.0210 C   0  0  0  0  0  0  0  0  0  0  0  0
  139.9370   69.0920  227.2700 C   0  0  0  0  0  0  0  0  0  0  0  0
  140.4690   69.7300  228.3780 C   0  0  0  0  0  0  0  0  0  0  0  0
  141.0070   70.9850  228.2680 C   0  0  0  0  0  0  0  0  0  0  0  0
  141.0080   71.6010  227.0200 C   0  0  0  0  0  0  0  0  0  0  0  0
  140.4700   70.9520  225.9060 C   0  0  0  0  0  0  0  0  0  0  0  0
  140.4720   71.5480  224.7070 N   0  0  0  0  0  0  0  0  0  0  0  0
  138.9230   73.3340  223.0670 H   0  0  0  0  0  0  0  0  0  0  0  0
  140.3256   73.5743  220.4313 H   0  0  0  0  0  0  0  0  0  0  0  0
  138.5420   73.4273  220.3485 H   0  0  0  0  0  0  0  0  0  0  0  0
  140.0481   75.1794  218.6648 H   0  0  0  0  0  0  0  0  0  0  0  0
  139.1474   76.7017  218.6602 H   0  0  0  0  0  0  0  0  0  0  0  0
  141.9499   76.3290  218.1102 H   0  0  0  0  0  0  0  0  0  0  0  0
  141.1327   77.8790  218.2431 H   0  0  0  0  0  0  0  0  0  0  0  0
  142.5787   76.2604  220.4286 H   0  0  0  0  0  0  0  0  0  0  0  0
  142.6725   77.9727  220.1968 H   0  0  0  0  0  0  0  0  0  0  0  0
  140.2170   78.2261  220.9027 H   0  0  0  0  0  0  0  0  0  0  0  0
  140.3643   76.5674  223.0125 H   0  0  0  0  0  0  0  0  0  0  0  0
  142.0775   76.7996  222.6595 H   0  0  0  0  0  0  0  0  0  0  0  0
  143.0888   78.9583  222.7265 H   0  0  0  0  0  0  0  0  0  0  0  0
  142.9155   81.3262  223.5159 H   0  0  0  0  0  0  0  0  0  0  0  0
  140.7408   82.2946  224.1577 H   0  0  0  0  0  0  0  0  0  0  0  0
  138.8160   78.5178  223.2453 H   0  0  0  0  0  0  0  0  0  0  0  0
  138.9983   69.2163  222.7730 H   0  0  0  0  0  0  0  0  0  0  0  0
  138.9730   68.0644  224.9949 H   0  0  0  0  0  0  0  0  0  0  0  0
  139.5102   68.0848  227.3857 H   0  0  0  0  0  0  0  0  0  0  0  0
  140.4595   69.2246  229.3550 H   0  0  0  0  0  0  0  0  0  0  0  0
  141.4290   71.4947  229.1467 H   0  0  0  0  0  0  0  0  0  0  0  0
  141.4363   72.6082  226.9098 H   0  0  0  0  0  0  0  0  0  0  0  0
  1  2  2  0
  2  3  1  0
  3  4  1  0
  4  5  1  0
  5  6  2  0
  5  7  1  0
  7  8  1  0
  8  9  1  0
  9 10  1  0
 10 11  1  0
 11 12  1  0
 12 13  1  0
 13 14  2  0
 14 15  1  0
 15 16  2  0
 16 17  1  0
 17 18  1  0
 17 19  2  0
  2 20  1  0
 20 21  2  0
 21 22  1  0
 22 23  2  0
 23 24  1  0
 24 25  2  0
 25 26  1  0
 26 27  2  0
 27 28  1  0
 28 29  2  0
 11  7  1  0
 19 13  1  0
 29 20  1  0
 28 23  1  0
  3 30  1  0
  4 31  1  0
  4 32  1  0
  8 33  1  0
  8 34  1  0
  9 35  1  0
  9 36  1  0
 10 37  1  0
 10 38  1  0
 11 39  1  1
 12 40  1  0
 12 41  1  0
 14 42  1  0
 15 43  1  0
 16 44  1  0
 19 45  1  0
 21 46  1  0
 22 47  1  0
 24 48  1  0
 25 49  1  0
 26 50  1  0
 27 51  1  0
M  END
>  <smiles>  (12) 
O=C(NCC(=O)N1CCCC1Cc1cccc(Cl)c1)c1ccc2ccccc2n1

>  <score_type>  (12) 
oracle

>  <origin>  (12) 
autodockgpu

>  <m_score__min__energy>  (12) 
-9.2899999999999991

>  <m_primary>  (12) 
energy

>  <rmsd>  (12) 
1.4990703942124366

>  <m_score__min__rmsd>  (12) 
1.4990703942124366

>  <meeko>  (12) 
{"free_energy": -8.93, "intermolecular_energy": -10.72, "internal_energy": -1.86, "cluster_size": 39, "cluster_id": 1, "rank_in_cluster": 13}

>  <energy>  (12) 
-8.93

>  <cluster_rmsd>  (12) 
1.12

>  <cluster>  (12) 
1

$$$$

     RDKit          3D

 51 54  0  0  0  0  0  0  0  0999 V2000
  140.8490   71.5630  221.3440 O   0  0  0  0  0  0  0  0  0  0  0  0
  140.3560   72.1100  222.3670 C   0  0  0  0  0  0  0  0  0  0  0  0
  139.9340   73.4500  222.3220 N   0  0  0  0  0  0  0  0  0  0  0  0
  140.0260   74.2830  221.1410 C   0  0  0  0  0  0  0  0  0  0  0  0
  139.7300   75.6820  221.5200 C   0  0  0  0  0  0  0  0  0  0  0  0
  138.5490   75.9640  221.8500 O   0  0  0  0  0  0  0  0  0  0  0  0
  140.7840   76.6410  221.4950 N   0  0  0  0  0  0  0  0  0  0  0  0
  141.0160   77.7130  222.4730 C   0  0  0  0  0  0  0  0  0  0  0  0
  141.7840   78.7850  221.7300 C   0  0  0  0  0  0  0  0  0  0  0  0
  141.8190   78.2790  220.2840 C   0  0  0  0  0  0  0  0  0  0  0  0
  141.8520   76.7930  220.5300 C   0  0  2  0  0  0  0  0  0  0  0  0
  141.6270   76.0020  219.2600 C   0  0  0  0  0  0  0  0  0  0  0  0
  142.5220   74.7990  219.3870 C   0  0  0  0  0  0  0  0  0  0  0  0
  142.1380   73.6480  218.7260 C   0  0  0  0  0  0  0  0  0  0  0  0
  142.9660   72.5300  218.8420 C   0  0  0  0  0  0  0  0  0  0  0  0
  144.1240   72.5630  219.5830 C   0  0  0  0  0  0  0  0  0  0  0  0
  144.4830   73.7460  220.2400 C   0  0  0  0  0  0  0  0  0  0  0  0
  145.9680   73.7620  221.1820 Cl  0  0  0  0  0  0  0  0  0  0  0  0
  143.6770   74.8770  220.1440 C   0  0  0  0  0  0  0  0  0  0  0  0
  140.2210   71.3380  223.6160 C   0  0  0  0  0  0  0  0  0  0  0  0
  139.6410   70.0850  223.6000 C   0  0  0  0  0  0  0  0  0  0  0  0
  139.5420   69.4060  224.8100 C   0  0  0  0  0  0  0  0  0  0  0  0
  140.0070   69.9660  225.9790 C   0  0  0  0  0  0  0  0  0  0  0  0
  139.9280   69.3240  227.2020 C   0  0  0  0  0  0  0  0  0  0  0  0
  140.4020   69.9060  228.3650 C   0  0  0  0  0  0  0  0  0  0  0  0
  140.9710   71.1520  228.3370 C   0  0  0  0  0  0  0  0  0  0  0  0
  141.0610   71.8160  227.1170 C   0  0  0  0  0  0  0  0  0  0  0  0
  140.5800   71.2220  225.9480 C   0  0  0  0  0  0  0  0  0  0  0  0
  140.6680   71.8630  224.7750 N   0  0  0  0  0  0  0  0  0  0  0  0
  139.5280   73.8520  223.2120 H   0  0  0  0  0  0  0  0  0  0  0  0
  141.0414   74.2203  220.7226 H   0  0  0  0  0  0  0  0  0  0  0  0
  139.3046   73.9401  220.3847 H   0  0  0  0  0  0  0  0  0  0  0  0
  140.0586   78.1114  222.8399 H   0  0  0  0  0  0  0  0  0  0  0  0
  141.5713   77.3495  223.3502 H   0  0  0  0  0  0  0  0  0  0  0  0
  141.2653   79.7530  221.7933 H   0  0  0  0  0  0  0  0  0  0  0  0
  142.7889   78.9516  222.1453 H   0  0  0  0  0  0  0  0  0  0  0  0
  140.9217   78.5806  219.7237 H   0  0  0  0  0  0  0  0  0  0  0  0
  142.6495   78.6674  219.6763 H   0  0  0  0  0  0  0  0  0  0  0  0
  142.8196   76.4112  220.8878 H   0  0  0  0  0  0  0  0  0  0  0  0
  140.5743   75.6938  219.1778 H   0  0  0  0  0  0  0  0  0  0  0  0
  141.8534   76.5923  218.3599 H   0  0  0  0  0  0  0  0  0  0  0  0
  141.2139   73.6139  218.1303 H   0  0  0  0  0  0  0  0  0  0  0  0
  142.6850   71.5991  218.3277 H   0  0  0  0  0  0  0  0  0  0  0  0
  144.7613   71.6696  219.6587 H   0  0  0  0  0  0  0  0  0  0  0  0
  143.9520   75.8100  220.6577 H   0  0  0  0  0  0  0  0  0  0  0  0
  139.2708   69.6400  222.6646 H   0  0  0  0  0  0  0  0  0  0  0  0
  139.0850   68.4057  224.8334 H   0  0  0  0  0  0  0  0  0  0  0  0
  139.4756   68.3225  227.2515 H   0  0  0  0  0  0  0  0  0  0  0  0
  140.3212   69.3641  229.3188 H   0  0  0  0  0  0  0  0  0  0  0  0
  141.3487   71.6178  229.2592 H   0  0  0  0  0  0  0  0  0  0  0  0
  141.5148   72.8171  227.0732 H   0  0  0  0  0  0  0  0  0  0  0  0
  1  2  2  0
  2  3  1  0
  3  4  1  0
  4  5  1  0
  5  6  2  0
  5  7  1  0
  7  8  1  0
  8  9  1  0
  9 10  1  0
 10 11  1  0
 11 12  1  0
 12 13  1  0
 13 14  2  0
 14 15  1  0
 15 16  2  0
 16 17  1  0
 17 18  1  0
 17 19  2  0
  2 20  1  0
 20 21  2  0
 21 22  1  0
 22 23  2  0
 23 24  1  0
 24 25  2  0
 25 26  1  0
 26 27  2  0
 27 28  1  0
 28 29  2  0
 11  7  1  0
 19 13  1  0
 29 20  1  0
 28 23  1  0
  3 30  1  0
  4 31  1  0
  4 32  1  0
  8 33  1  0
  8 34  1  0
  9 35  1  0
  9 36  1  0
 10 37  1  0
 10 38  1  0
 11 39  1  1
 12 40  1  0
 12 41  1  0
 14 42  1  0
 15 43  1  0
 16 44  1  0
 19 45  1  0
 21 46  1  0
 22 47  1  0
 24 48  1  0
 25 49  1  0
 26 50  1  0
 27 51  1  0
M  END
>  <smiles>  (13) 
O=C(NCC(=O)N1CCCC1Cc1cccc(Cl)c1)c1ccc2ccccc2n1

>  <score_type>  (13) 
oracle

>  <origin>  (13) 
autodockgpu

>  <m_score__min__energy>  (13) 
-9.2899999999999991

>  <m_primary>  (13) 
energy

>  <rmsd>  (13) 
2.6224038764046402

>  <m_score__min__rmsd>  (13) 
2.6224038764046402

>  <meeko>  (13) 
{"free_energy": -8.69, "intermolecular_energy": -10.48, "internal_energy": -1.82, "cluster_size": 4, "cluster_id": 2, "rank_in_cluster": 4}

>  <energy>  (13) 
-8.93

>  <cluster_rmsd>  (13) 
1.6

>  <cluster>  (13) 
1

$$$$

     RDKit          3D

 51 54  0  0  0  0  0  0  0  0999 V2000
  140.3940   71.3780  221.2800 O   0  0  0  0  0  0  0  0  0  0  0  0
  140.1020   71.9610  222.3590 C   0  0  0  0  0  0  0  0  0  0  0  0
  139.8000   73.3340  222.3640 N   0  0  0  0  0  0  0  0  0  0  0  0
  139.7980   74.1620  221.1770 C   0  0  0  0  0  0  0  0  0  0  0  0
  139.7110   75.5810  221.5850 C   0  0  0  0  0  0  0  0  0  0  0  0
  139.2200   75.8380  222.7150 O   0  0  0  0  0  0  0  0  0  0  0  0
  140.1800   76.5860  220.6900 N   0  0  0  0  0  0  0  0  0  0  0  0
  140.0510   76.5860  219.2260 C   0  0  0  0  0  0  0  0  0  0  0  0
  141.1860   77.4490  218.7160 C   0  0  0  0  0  0  0  0  0  0  0  0
  141.9910   77.7840  219.9760 C   0  0  0  0  0  0  0  0  0  0  0  0
  140.8780   77.8170  220.9930 C   0  0  2  0  0  0  0  0  0  0  0  0
  141.4060   77.8730  222.4090 C   0  0  0  0  0  0  0  0  0  0  0  0
  141.5490   79.3390  222.7150 C   0  0  0  0  0  0  0  0  0  0  0  0
  142.2940   79.6880  223.8250 C   0  0  0  0  0  0  0  0  0  0  0  0
  142.4280   81.0480  224.1110 C   0  0  0  0  0  0  0  0  0  0  0  0
  141.8450   82.0120  223.3230 C   0  0  0  0  0  0  0  0  0  0  0  0
  141.0970   81.6240  222.2060 C   0  0  0  0  0  0  0  0  0  0  0  0
  140.3610   82.8760  221.2140 Cl  0  0  0  0  0  0  0  0  0  0  0  0
  140.9440   80.2750  221.8950 C   0  0  0  0  0  0  0  0  0  0  0  0
  140.0770   71.1980  223.6200 C   0  0  0  0  0  0  0  0  0  0  0  0
  139.5810   69.9090  223.6430 C   0  0  0  0  0  0  0  0  0  0  0  0
  139.5840   69.2400  224.8630 C   0  0  0  0  0  0  0  0  0  0  0  0
  140.0660   69.8440  226.0030 C   0  0  0  0  0  0  0  0  0  0  0  0
  140.0870   69.2120  227.2340 C   0  0  0  0  0  0  0  0  0  0  0  0
  140.5760   69.8390  228.3680 C   0  0  0  0  0  0  0  0  0  0  0  0
  141.0600   71.1190  228.3020 C   0  0  0  0  0  0  0  0  0  0  0  0
  141.0480   71.7720  227.0730 C   0  0  0  0  0  0  0  0  0  0  0  0
  140.5530   71.1340  225.9330 C   0  0  0  0  0  0  0  0  0  0  0  0
  140.5430   71.7650  224.7520 N   0  0  0  0  0  0  0  0  0  0  0  0
  139.5630   73.7660  223.3000 H   0  0  0  0  0  0  0  0  0  0  0  0
  140.7258   73.9968  220.6096 H   0  0  0  0  0  0  0  0  0  0  0  0
  138.9380   73.9026  220.5421 H   0  0  0  0  0  0  0  0  0  0  0  0
  140.1405   75.5626  218.8329 H   0  0  0  0  0  0  0  0  0  0  0  0
  139.0718   76.9702  218.9042 H   0  0  0  0  0  0  0  0  0  0  0  0
  141.8035   76.8959  217.9929 H   0  0  0  0  0  0  0  0  0  0  0  0
  140.8316   78.3469  218.1885 H   0  0  0  0  0  0  0  0  0  0  0  0
  142.7324   77.0048  220.2066 H   0  0  0  0  0  0  0  0  0  0  0  0
  142.5903   78.7043  219.9133 H   0  0  0  0  0  0  0  0  0  0  0  0
  140.2338   78.7068  220.9370 H   0  0  0  0  0  0  0  0  0  0  0  0
  140.6970   77.4004  223.1047 H   0  0  0  0  0  0  0  0  0  0  0  0
  142.3592   77.3344  222.5156 H   0  0  0  0  0  0  0  0  0  0  0  0
  142.7642   78.9227  224.4599 H   0  0  0  0  0  0  0  0  0  0  0  0
  143.0148   81.3559  224.9889 H   0  0  0  0  0  0  0  0  0  0  0  0
  141.9654   83.0775  223.5682 H   0  0  0  0  0  0  0  0  0  0  0  0
  140.3568   79.9615  221.0193 H   0  0  0  0  0  0  0  0  0  0  0  0
  139.1977   69.4291  222.7304 H   0  0  0  0  0  0  0  0  0  0  0  0
  139.1953   68.2124  224.9178 H   0  0  0  0  0  0  0  0  0  0  0  0
  139.7049   68.1836  227.3140 H   0  0  0  0  0  0  0  0  0  0  0  0
  140.5758   69.3048  229.3296 H   0  0  0  0  0  0  0  0  0  0  0  0
  141.4495   71.6196  229.2007 H   0  0  0  0  0  0  0  0  0  0  0  0
  141.4319   72.8001  226.9986 H   0  0  0  0  0  0  0  0  0  0  0  0
  1  2  2  0
  2  3  1  0
  3  4  1  0
  4  5  1  0
  5  6  2  0
  5  7  1  0
  7  8  1  0
  8  9  1  0
  9 10  1  0
 10 11  1  0
 11 12  1  0
 12 13  1  0
 13 14  2  0
 14 15  1  0
 15 16  2  0
 16 17  1  0
 17 18  1  0
 17 19  2  0
  2 20  1  0
 20 21  2  0
 21 22  1  0
 22 23  2  0
 23 24  1  0
 24 25  2  0
 25 26  1  0
 26 27  2  0
 27 28  1  0
 28 29  2  0
 11  7  1  0
 19 13  1  0
 29 20  1  0
 28 23  1  0
  3 30  1  0
  4 31  1  0
  4 32  1  0
  8 33  1  0
  8 34  1  0
  9 35  1  0
  9 36  1  0
 10 37  1  0
 10 38  1  0
 11 39  1  6
 12 40  1  0
 12 41  1  0
 14 42  1  0
 15 43  1  0
 16 44  1  0
 19 45  1  0
 21 46  1  0
 22 47  1  0
 24 48  1  0
 25 49  1  0
 26 50  1  0
 27 51  1  0
M  END
>  <smiles>  (14) 
O=C(NCC(=O)N1CCCC1Cc1cccc(Cl)c1)c1ccc2ccccc2n1

>  <score_type>  (14) 
oracle

>  <origin>  (14) 
autodockgpu

>  <m_score__min__energy>  (14) 
-9.2899999999999991

>  <m_primary>  (14) 
energy

>  <rmsd>  (14) 
1.6500466189526786

>  <m_score__min__rmsd>  (14) 
1.6500466189526786

>  <meeko>  (14) 
{"free_energy": -9.01, "intermolecular_energy": -10.8, "internal_energy": -2.01, "cluster_size": 39, "cluster_id": 1, "rank_in_cluster": 10}

>  <energy>  (14) 
-8.9

>  <cluster_rmsd>  (14) 
1.26

>  <cluster>  (14) 
1

$$$$

     RDKit          3D

 51 54  0  0  0  0  0  0  0  0999 V2000
  138.8850   70.9920  221.4060 O   0  0  0  0  0  0  0  0  0  0  0  0
  139.2670   71.6180  222.4320 C   0  0  0  0  0  0  0  0  0  0  0  0
  139.4500   73.0100  222.3870 N   0  0  0  0  0  0  0  0  0  0  0  0
  139.2220   73.8140  221.2050 C   0  0  0  0  0  0  0  0  0  0  0  0
  139.8520   75.1380  221.3990 C   0  0  0  0  0  0  0  0  0  0  0  0
  140.6700   75.2660  222.3470 O   0  0  0  0  0  0  0  0  0  0  0  0
  139.5090   76.2020  220.5150 N   0  0  0  0  0  0  0  0  0  0  0  0
  138.4050   76.2140  219.5460 C   0  0  0  0  0  0  0  0  0  0  0  0
  138.8150   77.1980  218.4710 C   0  0  0  0  0  0  0  0  0  0  0  0
  140.2460   77.5920  218.8570 C   0  0  0  0  0  0  0  0  0  0  0  0
  140.1450   77.4920  220.3570 C   0  0  2  0  0  0  0  0  0  0  0  0
  141.5000   77.5770  221.0240 C   0  0  0  0  0  0  0  0  0  0  0  0
  141.3760   78.6970  222.0200 C   0  0  0  0  0  0  0  0  0  0  0  0
  142.5330   79.3630  222.3780 C   0  0  0  0  0  0  0  0  0  0  0  0
  142.4200   80.4020  223.3030 C   0  0  0  0  0  0  0  0  0  0  0  0
  141.2080   80.7590  223.8440 C   0  0  0  0  0  0  0  0  0  0  0  0
  140.0550   80.0640  223.4600 C   0  0  0  0  0  0  0  0  0  0  0  0
  138.5160   80.5390  224.1660 Cl  0  0  0  0  0  0  0  0  0  0  0  0
  140.1350   79.0220  222.5400 C   0  0  0  0  0  0  0  0  0  0  0  0
  139.5220   70.8820  223.6840 C   0  0  0  0  0  0  0  0  0  0  0  0
  139.2290   69.5360  223.7710 C   0  0  0  0  0  0  0  0  0  0  0  0
  139.4920   68.8960  224.9790 C   0  0  0  0  0  0  0  0  0  0  0  0
  140.0260   69.5850  226.0450 C   0  0  0  0  0  0  0  0  0  0  0  0
  140.3030   68.9860  227.2610 C   0  0  0  0  0  0  0  0  0  0  0  0
  140.8400   69.6980  228.3200 C   0  0  0  0  0  0  0  0  0  0  0  0
  141.1170   71.0330  228.1920 C   0  0  0  0  0  0  0  0  0  0  0  0
  140.8470   71.6550  226.9760 C   0  0  0  0  0  0  0  0  0  0  0  0
  140.3050   70.9310  225.9130 C   0  0  0  0  0  0  0  0  0  0  0  0
  140.0450   71.5320  224.7440 N   0  0  0  0  0  0  0  0  0  0  0  0
  139.7700   73.4780  223.2800 H   0  0  0  0  0  0  0  0  0  0  0  0
  139.6664   73.3181  220.3294 H   0  0  0  0  0  0  0  0  0  0  0  0
  138.1414   73.9355  221.0390 H   0  0  0  0  0  0  0  0  0  0  0  0
  138.2621   75.2122  219.1148 H   0  0  0  0  0  0  0  0  0  0  0  0
  137.4535   76.5007  220.0177 H   0  0  0  0  0  0  0  0  0  0  0  0
  138.7938   76.7244  217.4784 H   0  0  0  0  0  0  0  0  0  0  0  0
  138.1392   78.0636  218.4085 H   0  0  0  0  0  0  0  0  0  0  0  0
  140.9876   76.8893  218.4494 H   0  0  0  0  0  0  0  0  0  0  0  0
  140.5773   78.5699  218.4776 H   0  0  0  0  0  0  0  0  0  0  0  0
  139.5869   78.3122  220.8321 H   0  0  0  0  0  0  0  0  0  0  0  0
  141.7399   76.6320  221.5333 H   0  0  0  0  0  0  0  0  0  0  0  0
  142.3064   77.7580  220.2981 H   0  0  0  0  0  0  0  0  0  0  0  0
  143.5071   79.0844  221.9496 H   0  0  0  0  0  0  0  0  0  0  0  0
  143.3244   80.9494  223.6069 H   0  0  0  0  0  0  0  0  0  0  0  0
  141.1446   81.5821  224.5710 H   0  0  0  0  0  0  0  0  0  0  0  0
  139.2339   78.4704  222.2338 H   0  0  0  0  0  0  0  0  0  0  0  0
  138.8032   68.9889  222.9169 H   0  0  0  0  0  0  0  0  0  0  0  0
  139.2699   67.8237  225.0836 H   0  0  0  0  0  0  0  0  0  0  0  0
  140.0907   67.9144  227.3900 H   0  0  0  0  0  0  0  0  0  0  0  0
  141.0459   69.1871  229.2722 H   0  0  0  0  0  0  0  0  0  0  0  0
  141.5435   71.6015  229.0316 H   0  0  0  0  0  0  0  0  0  0  0  0
  141.0628   72.7265  226.8520 H   0  0  0  0  0  0  0  0  0  0  0  0
  1  2  2  0
  2  3  1  0
  3  4  1  0
  4  5  1  0
  5  6  2  0
  5  7  1  0
  7  8  1  0
  8  9  1  0
  9 10  1  0
 10 11  1  0
 11 12  1  0
 12 13  1  0
 13 14  2  0
 14 15  1  0
 15 16  2  0
 16 17  1  0
 17 18  1  0
 17 19  2  0
  2 20  1  0
 20 21  2  0
 21 22  1  0
 22 23  2  0
 23 24  1  0
 24 25  2  0
 25 26  1  0
 26 27  2  0
 27 28  1  0
 28 29  2  0
 11  7  1  0
 19 13  1  0
 29 20  1  0
 28 23  1  0
  3 30  1  0
  4 31  1  0
  4 32  1  0
  8 33  1  0
  8 34  1  0
  9 35  1  0
  9 36  1  0
 10 37  1  0
 10 38  1  0
 11 39  1  1
 12 40  1  0
 12 41  1  0
 14 42  1  0
 15 43  1  0
 16 44  1  0
 19 45  1  0
 21 46  1  0
 22 47  1  0
 24 48  1  0
 25 49  1  0
 26 50  1  0
 27 51  1  0
M  END
>  <smiles>  (15) 
O=C(NCC(=O)N1CCCC1Cc1cccc(Cl)c1)c1ccc2ccccc2n1

>  <score_type>  (15) 
oracle

>  <origin>  (15) 
autodockgpu

>  <m_score__min__energy>  (15) 
-9.2899999999999991

>  <m_primary>  (15) 
energy

>  <rmsd>  (15) 
1.2255037948468677

>  <m_score__min__rmsd>  (15) 
1.2255037948468677

>  <meeko>  (15) 
{"free_energy": -8.6, "intermolecular_energy": -10.39, "internal_energy": -2.16, "cluster_size": 39, "cluster_id": 1, "rank_in_cluster": 31}

>  <energy>  (15) 
-8.9

>  <cluster_rmsd>  (15) 
1.41

>  <cluster>  (15) 
1

$$$$

     RDKit          3D

 51 54  0  0  0  0  0  0  0  0999 V2000
  140.7470   71.6420  221.2820 O   0  0  0  0  0  0  0  0  0  0  0  0
  140.3040   72.1820  222.3310 C   0  0  0  0  0  0  0  0  0  0  0  0
  139.9270   73.5350  222.3280 N   0  0  0  0  0  0  0  0  0  0  0  0
  140.0120   74.3910  221.1630 C   0  0  0  0  0  0  0  0  0  0  0  0
  140.6560   75.6640  221.5520 C   0  0  0  0  0  0  0  0  0  0  0  0
  140.3820   76.1400  222.6850 O   0  0  0  0  0  0  0  0  0  0  0  0
  141.5510   76.2920  220.6380 N   0  0  0  0  0  0  0  0  0  0  0  0
  141.6600   77.7320  220.3670 C   0  0  0  0  0  0  0  0  0  0  0  0
  142.2260   77.8440  218.9670 C   0  0  0  0  0  0  0  0  0  0  0  0
  142.2770   76.3930  218.4730 C   0  0  0  0  0  0  0  0  0  0  0  0
  142.5430   75.6850  219.7760 C   0  0  2  0  0  0  0  0  0  0  0  0
  142.3890   74.1860  219.6490 C   0  0  0  0  0  0  0  0  0  0  0  0
  143.7650   73.6300  219.8910 C   0  0  0  0  0  0  0  0  0  0  0  0
  144.6380   74.3940  220.6430 C   0  0  0  0  0  0  0  0  0  0  0  0
  145.9160   73.8810  220.8690 C   0  0  0  0  0  0  0  0  0  0  0  0
  146.3030   72.6610  220.3680 C   0  0  0  0  0  0  0  0  0  0  0  0
  145.3940   71.9120  219.6100 C   0  0  0  0  0  0  0  0  0  0  0  0
  145.9130   70.3550  218.9790 Cl  0  0  0  0  0  0  0  0  0  0  0  0
  144.1120   72.3980  219.3670 C   0  0  0  0  0  0  0  0  0  0  0  0
  140.1820   71.3870  223.5670 C   0  0  0  0  0  0  0  0  0  0  0  0
  139.5890   70.1400  223.5360 C   0  0  0  0  0  0  0  0  0  0  0  0
  139.5030   69.4380  224.7350 C   0  0  0  0  0  0  0  0  0  0  0  0
  139.9920   69.9710  225.9060 C   0  0  0  0  0  0  0  0  0  0  0  0
  139.9250   69.3060  227.1180 C   0  0  0  0  0  0  0  0  0  0  0  0
  140.4240   69.8610  228.2840 C   0  0  0  0  0  0  0  0  0  0  0  0
  141.0040   71.1020  228.2720 C   0  0  0  0  0  0  0  0  0  0  0  0
  141.0810   71.7880  227.0630 C   0  0  0  0  0  0  0  0  0  0  0  0
  140.5770   71.2220  225.8910 C   0  0  0  0  0  0  0  0  0  0  0  0
  140.6520   71.8850  224.7290 N   0  0  0  0  0  0  0  0  0  0  0  0
  139.5620   73.9310  223.2390 H   0  0  0  0  0  0  0  0  0  0  0  0
  140.6111   73.8966  220.3841 H   0  0  0  0  0  0  0  0  0  0  0  0
  139.0037   74.5875  220.7697 H   0  0  0  0  0  0  0  0  0  0  0  0
  140.6698   78.2082  220.4196 H   0  0  0  0  0  0  0  0  0  0  0  0
  142.3005   78.2366  221.1053 H   0  0  0  0  0  0  0  0  0  0  0  0
  141.5700   78.4525  218.3271 H   0  0  0  0  0  0  0  0  0  0  0  0
  143.2103   78.3346  218.9452 H   0  0  0  0  0  0  0  0  0  0  0  0
  141.3222   76.0799  218.0253 H   0  0  0  0  0  0  0  0  0  0  0  0
  143.0139   76.1982  217.6799 H   0  0  0  0  0  0  0  0  0  0  0  0
  143.5707   75.7938  220.1529 H   0  0  0  0  0  0  0  0  0  0  0  0
  141.6809   73.8054  220.3998 H   0  0  0  0  0  0  0  0  0  0  0  0
  141.9931   73.8938  218.6652 H   0  0  0  0  0  0  0  0  0  0  0  0
  144.3362   75.3709  221.0485 H   0  0  0  0  0  0  0  0  0  0  0  0
  146.6318   74.4679  221.4632 H   0  0  0  0  0  0  0  0  0  0  0  0
  147.3157   72.2770  220.5603 H   0  0  0  0  0  0  0  0  0  0  0  0
  143.3924   71.8160  218.7725 H   0  0  0  0  0  0  0  0  0  0  0  0
  139.1990   69.7171  222.5984 H   0  0  0  0  0  0  0  0  0  0  0  0
  139.0369   68.4417  224.7468 H   0  0  0  0  0  0  0  0  0  0  0  0
  139.4624   68.3087  227.1558 H   0  0  0  0  0  0  0  0  0  0  0  0
  140.3542   69.3008  229.2281 H   0  0  0  0  0  0  0  0  0  0  0  0
  141.4000   71.5465  229.1970 H   0  0  0  0  0  0  0  0  0  0  0  0
  141.5434   72.7856  227.0311 H   0  0  0  0  0  0  0  0  0  0  0  0
  1  2  2  0
  2  3  1  0
  3  4  1  0
  4  5  1  0
  5  6  2  0
  5  7  1  0
  7  8  1  0
  8  9  1  0
  9 10  1  0
 10 11  1  0
 11 12  1  0
 12 13  1  0
 13 14  2  0
 14 15  1  0
 15 16  2  0
 16 17  1  0
 17 18  1  0
 17 19  2  0
  2 20  1  0
 20 21  2  0
 21 22  1  0
 22 23  2  0
 23 24  1  0
 24 25  2  0
 25 26  1  0
 26 27  2  0
 27 28  1  0
 28 29  2  0
 11  7  1  0
 19 13  1  0
 29 20  1  0
 28 23  1  0
  3 30  1  0
  4 31  1  0
  4 32  1  0
  8 33  1  0
  8 34  1  0
  9 35  1  0
  9 36  1  0
 10 37  1  0
 10 38  1  0
 11 39  1  1
 12 40  1  0
 12 41  1  0
 14 42  1  0
 15 43  1  0
 16 44  1  0
 19 45  1  0
 21 46  1  0
 22 47  1  0
 24 48  1  0
 25 49  1  0
 26 50  1  0
 27 51  1  0
M  END
>  <smiles>  (16) 
O=C(NCC(=O)N1CCCC1Cc1cccc(Cl)c1)c1ccc2ccccc2n1

>  <score_type>  (16) 
oracle

>  <origin>  (16) 
autodockgpu

>  <m_score__min__energy>  (16) 
-9.2899999999999991

>  <m_primary>  (16) 
energy

>  <rmsd>  (16) 
2.188136254727672

>  <m_score__min__rmsd>  (16) 
2.188136254727672

>  <meeko>  (16) 
{"free_energy": -9.13, "intermolecular_energy": -10.92, "internal_energy": -1.72, "cluster_size": 4, "cluster_id": 2, "rank_in_cluster": 1}

>  <energy>  (16) 
-8.9

>  <cluster_rmsd>  (16) 
1.66

>  <cluster>  (16) 
1

$$$$

     RDKit          3D

 51 54  0  0  0  0  0  0  0  0999 V2000
  140.1460   71.4060  221.2170 O   0  0  0  0  0  0  0  0  0  0  0  0
  139.9560   72.0150  222.3050 C   0  0  0  0  0  0  0  0  0  0  0  0
  139.7180   73.3990  222.3110 N   0  0  0  0  0  0  0  0  0  0  0  0
  139.6740   74.2140  221.1150 C   0  0  0  0  0  0  0  0  0  0  0  0
  139.7660   75.6380  221.5030 C   0  0  0  0  0  0  0  0  0  0  0  0
  139.9520   75.9050  222.7190 O   0  0  0  0  0  0  0  0  0  0  0  0
  139.6420   76.6380  220.4950 N   0  0  0  0  0  0  0  0  0  0  0  0
  138.6140   76.7020  219.4470 C   0  0  0  0  0  0  0  0  0  0  0  0
  139.2330   77.4950  218.3150 C   0  0  0  0  0  0  0  0  0  0  0  0
  140.6800   77.7200  218.7700 C   0  0  0  0  0  0  0  0  0  0  0  0
  140.4730   77.7990  220.2610 C   0  0  2  0  0  0  0  0  0  0  0  0
  141.7820   77.7620  221.0180 C   0  0  0  0  0  0  0  0  0  0  0  0
  141.8160   79.0450  221.8010 C   0  0  0  0  0  0  0  0  0  0  0  0
  142.2100   78.9730  223.1250 C   0  0  0  0  0  0  0  0  0  0  0  0
  142.2430   80.1630  223.8540 C   0  0  0  0  0  0  0  0  0  0  0  0
  141.8980   81.3670  223.2870 C   0  0  0  0  0  0  0  0  0  0  0  0
  141.5040   81.4040  221.9440 C   0  0  0  0  0  0  0  0  0  0  0  0
  141.0680   82.9570  221.2420 Cl  0  0  0  0  0  0  0  0  0  0  0  0
  141.4610   80.2340  221.1910 C   0  0  0  0  0  0  0  0  0  0  0  0
  139.9820   71.2670  223.5760 C   0  0  0  0  0  0  0  0  0  0  0  0
  139.5390   69.9600  223.6220 C   0  0  0  0  0  0  0  0  0  0  0  0
  139.5880   69.3070  224.8500 C   0  0  0  0  0  0  0  0  0  0  0  0
  140.0630   69.9440  225.9750 C   0  0  0  0  0  0  0  0  0  0  0  0
  140.1280   69.3300  227.2130 C   0  0  0  0  0  0  0  0  0  0  0  0
  140.6090   69.9900  228.3310 C   0  0  0  0  0  0  0  0  0  0  0  0
  141.0390   71.2880  228.2410 C   0  0  0  0  0  0  0  0  0  0  0  0
  140.9820   71.9240  227.0050 C   0  0  0  0  0  0  0  0  0  0  0  0
  140.4960   71.2520  225.8820 C   0  0  0  0  0  0  0  0  0  0  0  0
  140.4410   71.8670  224.6930 N   0  0  0  0  0  0  0  0  0  0  0  0
  139.5650   73.8530  223.2550 H   0  0  0  0  0  0  0  0  0  0  0  0
  140.5186   73.9544  220.4598 H   0  0  0  0  0  0  0  0  0  0  0  0
  138.7322   74.0344  220.5757 H   0  0  0  0  0  0  0  0  0  0  0  0
  138.3495   75.6900  219.1067 H   0  0  0  0  0  0  0  0  0  0  0  0
  137.6889   77.1710  219.8133 H   0  0  0  0  0  0  0  0  0  0  0  0
  139.2026   76.9243  217.3751 H   0  0  0  0  0  0  0  0  0  0  0  0
  138.6999   78.4363  218.1156 H   0  0  0  0  0  0  0  0  0  0  0  0
  141.3315   76.8785  218.4918 H   0  0  0  0  0  0  0  0  0  0  0  0
  141.1769   78.5937  218.3231 H   0  0  0  0  0  0  0  0  0  0  0  0
  140.0161   78.7369  220.6097 H   0  0  0  0  0  0  0  0  0  0  0  0
  141.8127   76.8953  221.6947 H   0  0  0  0  0  0  0  0  0  0  0  0
  142.6461   77.6666  220.3441 H   0  0  0  0  0  0  0  0  0  0  0  0
  142.4871   78.0136  223.5863 H   0  0  0  0  0  0  0  0  0  0  0  0
  142.5530   80.1367  224.9091 H   0  0  0  0  0  0  0  0  0  0  0  0
  141.9312   82.2915  223.8822 H   0  0  0  0  0  0  0  0  0  0  0  0
  141.1519   80.2549  220.1355 H   0  0  0  0  0  0  0  0  0  0  0  0
  139.1614   69.4537  222.7214 H   0  0  0  0  0  0  0  0  0  0  0  0
  139.2418   68.2655  224.9233 H   0  0  0  0  0  0  0  0  0  0  0  0
  139.7881   68.2885  227.3119 H   0  0  0  0  0  0  0  0  0  0  0  0
  140.6462   69.4685  229.2988 H   0  0  0  0  0  0  0  0  0  0  0  0
  141.4211   71.8158  229.1272 H   0  0  0  0  0  0  0  0  0  0  0  0
  141.3229   72.9657  226.9118 H   0  0  0  0  0  0  0  0  0  0  0  0
  1  2  2  0
  2  3  1  0
  3  4  1  0
  4  5  1  0
  5  6  2  0
  5  7  1  0
  7  8  1  0
  8  9  1  0
  9 10  1  0
 10 11  1  0
 11 12  1  0
 12 13  1  0
 13 14  2  0
 14 15  1  0
 15 16  2  0
 16 17  1  0
 17 18  1  0
 17 19  2  0
  2 20  1  0
 20 21  2  0
 21 22  1  0
 22 23  2  0
 23 24  1  0
 24 25  2  0
 25 26  1  0
 26 27  2  0
 27 28  1  0
 28 29  2  0
 11  7  1  0
 19 13  1  0
 29 20  1  0
 28 23  1  0
  3 30  1  0
  4 31  1  0
  4 32  1  0
  8 33  1  0
  8 34  1  0
  9 35  1  0
  9 36  1  0
 10 37  1  0
 10 38  1  0
 11 39  1  6
 12 40  1  0
 12 41  1  0
 14 42  1  0
 15 43  1  0
 16 44  1  0
 19 45  1  0
 21 46  1  0
 22 47  1  0
 24 48  1  0
 25 49  1  0
 26 50  1  0
 27 51  1  0
M  END
>  <smiles>  (17) 
O=C(NCC(=O)N1CCCC1Cc1cccc(Cl)c1)c1ccc2ccccc2n1

>  <score_type>  (17) 
oracle

>  <origin>  (17) 
autodockgpu

>  <m_score__min__energy>  (17) 
-9.2899999999999991

>  <m_primary>  (17) 
energy

>  <rmsd>  (17) 
1.4514018935204394

>  <m_score__min__rmsd>  (17) 
1.4514018935204394

>  <meeko>  (17) 
{"free_energy": -8.76, "intermolecular_energy": -10.55, "internal_energy": -2.12, "cluster_size": 39, "cluster_id": 1, "rank_in_cluster": 24}

>  <energy>  (17) 
-8.87

>  <cluster_rmsd>  (17) 
1.42

>  <cluster>  (17) 
1

$$$$

     RDKit          3D

 51 54  0  0  0  0  0  0  0  0999 V2000
  138.7970   70.6660  221.5620 O   0  0  0  0  0  0  0  0  0  0  0  0
  139.1590   71.2040  222.6440 C   0  0  0  0  0  0  0  0  0  0  0  0
  139.3420   72.5950  222.7180 N   0  0  0  0  0  0  0  0  0  0  0  0
  139.1370   73.4940  221.6030 C   0  0  0  0  0  0  0  0  0  0  0  0
  139.8780   74.7490  221.8580 C   0  0  0  0  0  0  0  0  0  0  0  0
  141.1310   74.7250  221.7430 O   0  0  0  0  0  0  0  0  0  0  0  0
  139.1500   75.9190  222.2210 N   0  0  0  0  0  0  0  0  0  0  0  0
  137.7010   76.0130  222.4520 C   0  0  0  0  0  0  0  0  0  0  0  0
  137.3370   77.4580  222.1800 C   0  0  0  0  0  0  0  0  0  0  0  0
  138.6410   78.0760  221.6630 C   0  0  0  0  0  0  0  0  0  0  0  0
  139.6410   77.2620  222.4440 C   0  0  2  0  0  0  0  0  0  0  0  0
  141.0540   77.4720  221.9480 C   0  0  0  0  0  0  0  0  0  0  0  0
  141.4470   78.8330  222.4540 C   0  0  0  0  0  0  0  0  0  0  0  0
  142.1430   78.8920  223.6470 C   0  0  0  0  0  0  0  0  0  0  0  0
  142.5080   80.1540  224.1190 C   0  0  0  0  0  0  0  0  0  0  0  0
  142.1930   81.3020  223.4300 C   0  0  0  0  0  0  0  0  0  0  0  0
  141.4870   81.2060  222.2250 C   0  0  0  0  0  0  0  0  0  0  0  0
  141.0950   82.6880  221.3640 Cl  0  0  0  0  0  0  0  0  0  0  0  0
  141.1080   79.9610  221.7290 C   0  0  0  0  0  0  0  0  0  0  0  0
  139.3900   70.3660  223.8350 C   0  0  0  0  0  0  0  0  0  0  0  0
  139.0180   69.0370  223.8330 C   0  0  0  0  0  0  0  0  0  0  0  0
  139.2630   68.2980  224.9870 C   0  0  0  0  0  0  0  0  0  0  0  0
  139.8550   68.8760  226.0880 C   0  0  0  0  0  0  0  0  0  0  0  0
  140.1150   68.1760  227.2530 C   0  0  0  0  0  0  0  0  0  0  0  0
  140.7110   68.7780  228.3480 C   0  0  0  0  0  0  0  0  0  0  0  0
  141.0650   70.1000  228.3090 C   0  0  0  0  0  0  0  0  0  0  0  0
  140.8120   70.8230  227.1460 C   0  0  0  0  0  0  0  0  0  0  0  0
  140.2110   70.2090  226.0450 C   0  0  0  0  0  0  0  0  0  0  0  0
  139.9680   70.9070  224.9280 N   0  0  0  0  0  0  0  0  0  0  0  0
  139.6450   72.9870  223.6530 H   0  0  0  0  0  0  0  0  0  0  0  0
  139.5083   73.0270  220.6788 H   0  0  0  0  0  0  0  0  0  0  0  0
  138.0644   73.7103  221.4905 H   0  0  0  0  0  0  0  0  0  0  0  0
  137.1589   75.3451  221.7664 H   0  0  0  0  0  0  0  0  0  0  0  0
  137.4320   75.7116  223.4751 H   0  0  0  0  0  0  0  0  0  0  0  0
  136.5440   77.5255  221.4207 H   0  0  0  0  0  0  0  0  0  0  0  0
  136.9481   77.9723  223.0712 H   0  0  0  0  0  0  0  0  0  0  0  0
  138.7579   77.9356  220.5783 H   0  0  0  0  0  0  0  0  0  0  0  0
  138.7235   79.1648  221.7960 H   0  0  0  0  0  0  0  0  0  0  0  0
  139.7136   77.5273  223.5091 H   0  0  0  0  0  0  0  0  0  0  0  0
  141.7247   76.7003  222.3538 H   0  0  0  0  0  0  0  0  0  0  0  0
  141.1213   77.4037  220.8522 H   0  0  0  0  0  0  0  0  0  0  0  0
  142.3996   77.9786  224.2036 H   0  0  0  0  0  0  0  0  0  0  0  0
  143.0617   80.2324  225.0662 H   0  0  0  0  0  0  0  0  0  0  0  0
  142.4927   82.2852  223.8217 H   0  0  0  0  0  0  0  0  0  0  0  0
  140.5524   79.8768  220.7834 H   0  0  0  0  0  0  0  0  0  0  0  0
  138.5453   68.5785  222.9519 H   0  0  0  0  0  0  0  0  0  0  0  0
  138.9793   67.2357  225.0200 H   0  0  0  0  0  0  0  0  0  0  0  0
  139.8407   67.1123  227.3106 H   0  0  0  0  0  0  0  0  0  0  0  0
  140.9018   68.1891  229.2573 H   0  0  0  0  0  0  0  0  0  0  0  0
  141.5390   70.5806  229.1775 H   0  0  0  0  0  0  0  0  0  0  0  0
  141.0878   71.8866  227.0941 H   0  0  0  0  0  0  0  0  0  0  0  0
  1  2  2  0
  2  3  1  0
  3  4  1  0
  4  5  1  0
  5  6  2  0
  5  7  1  0
  7  8  1  0
  8  9  1  0
  9 10  1  0
 10 11  1  0
 11 12  1  0
 12 13  1  0
 13 14  2  0
 14 15  1  0
 15 16  2  0
 16 17  1  0
 17 18  1  0
 17 19  2  0
  2 20  1  0
 20 21  2  0
 21 22  1  0
 22 23  2  0
 23 24  1  0
 24 25  2  0
 25 26  1  0
 26 27  2  0
 27 28  1  0
 28 29  2  0
 11  7  1  0
 19 13  1  0
 29 20  1  0
 28 23  1  0
  3 30  1  0
  4 31  1  0
  4 32  1  0
  8 33  1  0
  8 34  1  0
  9 35  1  0
  9 36  1  0
 10 37  1  0
 10 38  1  0
 11 39  1  1
 12 40  1  0
 12 41  1  0
 14 42  1  0
 15 43  1  0
 16 44  1  0
 19 45  1  0
 21 46  1  0
 22 47  1  0
 24 48  1  0
 25 49  1  0
 26 50  1  0
 27 51  1  0
M  END
>  <smiles>  (18) 
O=C(NCC(=O)N1CCCC1Cc1cccc(Cl)c1)c1ccc2ccccc2n1

>  <score_type>  (18) 
oracle

>  <origin>  (18) 
autodockgpu

>  <m_score__min__energy>  (18) 
-9.2899999999999991

>  <m_primary>  (18) 
energy

>  <rmsd>  (18) 
2.5249523793968542

>  <m_score__min__rmsd>  (18) 
2.5249523793968542

>  <meeko>  (18) 
{"free_energy": -9.27, "intermolecular_energy": -11.06, "internal_energy": -1.46, "cluster_size": 39, "cluster_id": 1, "rank_in_cluster": 2}

>  <energy>  (18) 
-8.83

>  <cluster_rmsd>  (18) 
1.4

>  <cluster>  (18) 
1

$$$$

     RDKit          3D

 51 54  0  0  0  0  0  0  0  0999 V2000
  139.9180   70.5630  221.2830 O   0  0  0  0  0  0  0  0  0  0  0  0
  139.8800   71.2360  222.3480 C   0  0  0  0  0  0  0  0  0  0  0  0
  139.9060   72.6400  222.3010 N   0  0  0  0  0  0  0  0  0  0  0  0
  139.9760   73.4030  221.0730 C   0  0  0  0  0  0  0  0  0  0  0  0
  140.3360   74.8000  221.3980 C   0  0  0  0  0  0  0  0  0  0  0  0
  139.9560   75.2620  222.5050 O   0  0  0  0  0  0  0  0  0  0  0  0
  141.0910   75.5560  220.4540 N   0  0  0  0  0  0  0  0  0  0  0  0
  142.3500   75.1510  219.8130 C   0  0  0  0  0  0  0  0  0  0  0  0
  143.0500   76.4400  219.4380 C   0  0  0  0  0  0  0  0  0  0  0  0
  142.1590   77.5330  220.0390 C   0  0  0  0  0  0  0  0  0  0  0  0
  140.8130   76.8680  219.9120 C   0  0  2  0  0  0  0  0  0  0  0  0
  139.7380   77.6140  220.6710 C   0  0  0  0  0  0  0  0  0  0  0  0
  140.4820   78.5200  221.6130 C   0  0  0  0  0  0  0  0  0  0  0  0
  141.0380   77.9470  222.7410 C   0  0  0  0  0  0  0  0  0  0  0  0
  141.7290   78.7860  223.6170 C   0  0  0  0  0  0  0  0  0  0  0  0
  141.8590   80.1330  223.3760 C   0  0  0  0  0  0  0  0  0  0  0  0
  141.2840   80.6810  222.2230 C   0  0  0  0  0  0  0  0  0  0  0  0
  141.4640   82.4070  221.9360 Cl  0  0  0  0  0  0  0  0  0  0  0  0
  140.5880   79.8710  221.3300 C   0  0  0  0  0  0  0  0  0  0  0  0
  139.8070   70.5440  223.6480 C   0  0  0  0  0  0  0  0  0  0  0  0
  139.2420   69.2880  223.7360 C   0  0  0  0  0  0  0  0  0  0  0  0
  139.2020   68.6870  224.9910 C   0  0  0  0  0  0  0  0  0  0  0  0
  139.7080   69.3250  226.1010 C   0  0  0  0  0  0  0  0  0  0  0  0
  139.6880   68.7610  227.3640 C   0  0  0  0  0  0  0  0  0  0  0  0
  140.2020   69.4220  228.4670 C   0  0  0  0  0  0  0  0  0  0  0  0
  140.7540   70.6690  228.3360 C   0  0  0  0  0  0  0  0  0  0  0  0
  140.7850   71.2540  227.0730 C   0  0  0  0  0  0  0  0  0  0  0  0
  140.2640   70.5820  225.9660 C   0  0  0  0  0  0  0  0  0  0  0  0
  140.2950   71.1470  224.7520 N   0  0  0  0  0  0  0  0  0  0  0  0
  139.8710   73.1490  223.2280 H   0  0  0  0  0  0  0  0  0  0  0  0
  140.7401   72.9689  220.4114 H   0  0  0  0  0  0  0  0  0  0  0  0
  139.0021   73.3779  220.5621 H   0  0  0  0  0  0  0  0  0  0  0  0
  142.9672   74.5687  220.5130 H   0  0  0  0  0  0  0  0  0  0  0  0
  142.1723   74.5141  218.9339 H   0  0  0  0  0  0  0  0  0  0  0  0
  144.0604   76.4768  219.8713 H   0  0  0  0  0  0  0  0  0  0  0  0
  143.1815   76.5503  218.3515 H   0  0  0  0  0  0  0  0  0  0  0  0
  142.4159   77.7386  221.0886 H   0  0  0  0  0  0  0  0  0  0  0  0
  142.2388   78.5167  219.5532 H   0  0  0  0  0  0  0  0  0  0  0  0
  140.4133   76.8386  218.8876 H   0  0  0  0  0  0  0  0  0  0  0  0
  139.1150   78.2018  219.9809 H   0  0  0  0  0  0  0  0  0  0  0  0
  139.0602   76.9312  221.2043 H   0  0  0  0  0  0  0  0  0  0  0  0
  140.9397   76.8698  222.9411 H   0  0  0  0  0  0  0  0  0  0  0  0
  142.1813   78.3580  224.5238 H   0  0  0  0  0  0  0  0  0  0  0  0
  142.4088   80.7735  224.0813 H   0  0  0  0  0  0  0  0  0  0  0  0
  140.1335   80.2940  220.4220 H   0  0  0  0  0  0  0  0  0  0  0  0
  138.8383   68.7806  222.8474 H   0  0  0  0  0  0  0  0  0  0  0  0
  138.7588   67.6859  225.0975 H   0  0  0  0  0  0  0  0  0  0  0  0
  139.2518   67.7598  227.4958 H   0  0  0  0  0  0  0  0  0  0  0  0
  140.1668   68.9420  229.4561 H   0  0  0  0  0  0  0  0  0  0  0  0
  141.1639   71.1967  229.2098 H   0  0  0  0  0  0  0  0  0  0  0  0
  141.2240   72.2546  226.9463 H   0  0  0  0  0  0  0  0  0  0  0  0
  1  2  2  0
  2  3  1  0
  3  4  1  0
  4  5  1  0
  5  6  2  0
  5  7  1  0
  7  8  1  0
  8  9  1  0
  9 10  1  0
 10 11  1  0
 11 12  1  0
 12 13  1  0
 13 14  2  0
 14 15  1  0
 15 16  2  0
 16 17  1  0
 17 18  1  0
 17 19  2  0
  2 20  1  0
 20 21  2  0
 21 22  1  0
 22 23  2  0
 23 24  1  0
 24 25  2  0
 25 26  1  0
 26 27  2  0
 27 28  1  0
 28 29  2  0
 11  7  1  0
 19 13  1  0
 29 20  1  0
 28 23  1  0
  3 30  1  0
  4 31  1  0
  4 32  1  0
  8 33  1  0
  8 34  1  0
  9 35  1  0
  9 36  1  0
 10 37  1  0
 10 38  1  0
 11 39  1  6
 12 40  1  0
 12 41  1  0
 14 42  1  0
 15 43  1  0
 16 44  1  0
 19 45  1  0
 21 46  1  0
 22 47  1  0
 24 48  1  0
 25 49  1  0
 26 50  1  0
 27 51  1  0
M  END
>  <smiles>  (19) 
O=C(NCC(=O)N1CCCC1Cc1cccc(Cl)c1)c1ccc2ccccc2n1

>  <score_type>  (19) 
oracle

>  <origin>  (19) 
autodockgpu

>  <m_score__min__energy>  (19) 
-9.2899999999999991

>  <m_primary>  (19) 
energy

>  <rmsd>  (19) 
1.9395893052150084

>  <m_score__min__rmsd>  (19) 
1.9395893052150084

>  <meeko>  (19) 
{"free_energy": -8.81, "intermolecular_energy": -10.6, "internal_energy": -1.96, "cluster_size": 39, "cluster_id": 1, "rank_in_cluster": 20}

>  <energy>  (19) 
-8.82

>  <cluster_rmsd>  (19) 
1.95

>  <cluster>  (19) 
1

$$$$

     RDKit          3D

 51 54  0  0  0  0  0  0  0  0999 V2000
  138.2200   70.6210  221.7910 O   0  0  0  0  0  0  0  0  0  0  0  0
  138.8300   71.1070  222.7820 C   0  0  0  0  0  0  0  0  0  0  0  0
  139.1880   72.4650  222.7980 N   0  0  0  0  0  0  0  0  0  0  0  0
  138.8990   73.3860  221.7190 C   0  0  0  0  0  0  0  0  0  0  0  0
  139.6230   74.6520  221.9650 C   0  0  0  0  0  0  0  0  0  0  0  0
  140.8810   74.6210  221.9580 O   0  0  0  0  0  0  0  0  0  0  0  0
  138.8730   75.8420  222.1980 N   0  0  0  0  0  0  0  0  0  0  0  0
  137.4220   75.9360  222.4090 C   0  0  0  0  0  0  0  0  0  0  0  0
  137.0370   77.3370  221.9850 C   0  0  0  0  0  0  0  0  0  0  0  0
  138.3350   77.9200  221.4150 C   0  0  0  0  0  0  0  0  0  0  0  0
  139.3410   77.2090  222.2820 C   0  0  2  0  0  0  0  0  0  0  0  0
  140.7550   77.3890  221.7760 C   0  0  0  0  0  0  0  0  0  0  0  0
  141.1960   78.7220  222.3170 C   0  0  0  0  0  0  0  0  0  0  0  0
  141.8480   78.7300  223.5360 C   0  0  0  0  0  0  0  0  0  0  0  0
  142.2580   79.9660  224.0400 C   0  0  0  0  0  0  0  0  0  0  0  0
  142.0270   81.1360  223.3580 C   0  0  0  0  0  0  0  0  0  0  0  0
  141.3640   81.0920  222.1260 C   0  0  0  0  0  0  0  0  0  0  0  0
  141.0810   82.6040  221.2720 Cl  0  0  0  0  0  0  0  0  0  0  0  0
  140.9420   79.8750  221.5970 C   0  0  0  0  0  0  0  0  0  0  0  0
  139.1660   70.2440  223.9290 C   0  0  0  0  0  0  0  0  0  0  0  0
  138.8880   68.8920  223.8870 C   0  0  0  0  0  0  0  0  0  0  0  0
  139.2290   68.1300  225.0010 C   0  0  0  0  0  0  0  0  0  0  0  0
  139.8210   68.7060  226.1020 C   0  0  0  0  0  0  0  0  0  0  0  0
  140.1750   67.9840  227.2270 C   0  0  0  0  0  0  0  0  0  0  0  0
  140.7710   68.5840  228.3230 C   0  0  0  0  0  0  0  0  0  0  0  0
  141.0290   69.9300  228.3240 C   0  0  0  0  0  0  0  0  0  0  0  0
  140.6810   70.6760  227.2020 C   0  0  0  0  0  0  0  0  0  0  0  0
  140.0810   70.0630  226.1000 C   0  0  0  0  0  0  0  0  0  0  0  0
  139.7470   70.7830  225.0210 N   0  0  0  0  0  0  0  0  0  0  0  0
  139.6970   72.8140  223.6570 H   0  0  0  0  0  0  0  0  0  0  0  0
  139.2287   72.9513  220.7638 H   0  0  0  0  0  0  0  0  0  0  0  0
  137.8169   73.5779  221.6716 H   0  0  0  0  0  0  0  0  0  0  0  0
  136.8959   75.1909  221.7942 H   0  0  0  0  0  0  0  0  0  0  0  0
  137.1503   75.7395  223.4566 H   0  0  0  0  0  0  0  0  0  0  0  0
  136.2495   77.3110  221.2174 H   0  0  0  0  0  0  0  0  0  0  0  0
  136.6321   77.9349  222.8148 H   0  0  0  0  0  0  0  0  0  0  0  0
  138.4629   77.6699  220.3515 H   0  0  0  0  0  0  0  0  0  0  0  0
  138.3988   79.0180  221.4348 H   0  0  0  0  0  0  0  0  0  0  0  0
  139.4010   77.5857  223.3137 H   0  0  0  0  0  0  0  0  0  0  0  0
  141.4052   76.5851  222.1516 H   0  0  0  0  0  0  0  0  0  0  0  0
  140.8087   77.3507  220.6780 H   0  0  0  0  0  0  0  0  0  0  0  0
  142.0368   77.7976  224.0882 H   0  0  0  0  0  0  0  0  0  0  0  0
  142.7793   80.0038  225.0079 H   0  0  0  0  0  0  0  0  0  0  0  0
  142.3597   82.0976  223.7759 H   0  0  0  0  0  0  0  0  0  0  0  0
  140.4194   79.8318  220.6300 H   0  0  0  0  0  0  0  0  0  0  0  0
  138.4146   68.4341  223.0059 H   0  0  0  0  0  0  0  0  0  0  0  0
  139.0219   67.0497  225.0014 H   0  0  0  0  0  0  0  0  0  0  0  0
  139.9774   66.9022  227.2517 H   0  0  0  0  0  0  0  0  0  0  0  0
  141.0395   67.9760  229.1995 H   0  0  0  0  0  0  0  0  0  0  0  0
  141.5013   70.4106  229.1935 H   0  0  0  0  0  0  0  0  0  0  0  0
  140.8802   71.7576  227.1830 H   0  0  0  0  0  0  0  0  0  0  0  0
  1  2  2  0
  2  3  1  0
  3  4  1  0
  4  5  1  0
  5  6  2  0
  5  7  1  0
  7  8  1  0
  8  9  1  0
  9 10  1  0
 10 11  1  0
 11 12  1  0
 12 13  1  0
 13 14  2  0
 14 15  1  0
 15 16  2  0
 16 17  1  0
 17 18  1  0
 17 19  2  0
  2 20  1  0
 20 21  2  0
 21 22  1  0
 22 23  2  0
 23 24  1  0
 24 25  2  0
 25 26  1  0
 26 27  2  0
 27 28  1  0
 28 29  2  0
 11  7  1  0
 19 13  1  0
 29 20  1  0
 28 23  1  0
  3 30  1  0
  4 31  1  0
  4 32  1  0
  8 33  1  0
  8 34  1  0
  9 35  1  0
  9 36  1  0
 10 37  1  0
 10 38  1  0
 11 39  1  1
 12 40  1  0
 12 41  1  0
 14 42  1  0
 15 43  1  0
 16 44  1  0
 19 45  1  0
 21 46  1  0
 22 47  1  0
 24 48  1  0
 25 49  1  0
 26 50  1  0
 27 51  1  0
M  END
>  <smiles>  (20) 
O=C(NCC(=O)N1CCCC1Cc1cccc(Cl)c1)c1ccc2ccccc2n1

>  <score_type>  (20) 
oracle

>  <origin>  (20) 
autodockgpu

>  <m_score__min__energy>  (20) 
-9.2899999999999991

>  <m_primary>  (20) 
energy

>  <rmsd>  (20) 
2.540067993522782

>  <m_score__min__rmsd>  (20) 
2.540067993522782

>  <meeko>  (20) 
{"free_energy": -9.18, "intermolecular_energy": -10.97, "internal_energy": -1.58, "cluster_size": 39, "cluster_id": 1, "rank_in_cluster": 3}

>  <energy>  (20) 
-8.81

>  <cluster_rmsd>  (20) 
1.47

>  <cluster>  (20) 
1

$$$$

     RDKit          3D

 51 54  0  0  0  0  0  0  0  0999 V2000
  137.9710   70.7820  221.8570 O   0  0  0  0  0  0  0  0  0  0  0  0
  138.6450   71.3080  222.7830 C   0  0  0  0  0  0  0  0  0  0  0  0
  139.0270   72.6580  222.7040 N   0  0  0  0  0  0  0  0  0  0  0  0
  138.6910   73.5250  221.5950 C   0  0  0  0  0  0  0  0  0  0  0  0
  139.6660   74.6370  221.5460 C   0  0  0  0  0  0  0  0  0  0  0  0
  140.6380   74.6020  222.3450 O   0  0  0  0  0  0  0  0  0  0  0  0
  139.4640   75.6910  220.6080 N   0  0  0  0  0  0  0  0  0  0  0  0
  138.5110   75.6980  219.4900 C   0  0  0  0  0  0  0  0  0  0  0  0
  139.0820   76.6630  218.4720 C   0  0  0  0  0  0  0  0  0  0  0  0
  140.4450   77.0510  219.0550 C   0  0  0  0  0  0  0  0  0  0  0  0
  140.1280   76.9740  220.5260 C   0  0  2  0  0  0  0  0  0  0  0  0
  141.3740   77.0580  221.3800 C   0  0  0  0  0  0  0  0  0  0  0  0
  141.2160   78.3230  222.1780 C   0  0  0  0  0  0  0  0  0  0  0  0
  142.3550   79.0630  222.4320 C   0  0  0  0  0  0  0  0  0  0  0  0
  142.2110   80.2370  223.1730 C   0  0  0  0  0  0  0  0  0  0  0  0
  140.9850   80.6510  223.6380 C   0  0  0  0  0  0  0  0  0  0  0  0
  139.8510   79.8770  223.3640 C   0  0  0  0  0  0  0  0  0  0  0  0
  138.2950   80.4280  223.9700 Cl  0  0  0  0  0  0  0  0  0  0  0  0
  139.9630   78.7010  222.6280 C   0  0  0  0  0  0  0  0  0  0  0  0
  139.0330   70.5010  223.9550 C   0  0  0  0  0  0  0  0  0  0  0  0
  138.7720   69.1450  223.9820 C   0  0  0  0  0  0  0  0  0  0  0  0
  139.1620   68.4380  225.1150 C   0  0  0  0  0  0  0  0  0  0  0  0
  139.7850   69.0700  226.1680 C   0  0  0  0  0  0  0  0  0  0  0  0
  140.1880   68.4020  227.3110 C   0  0  0  0  0  0  0  0  0  0  0  0
  140.8140   69.0580  228.3570 C   0  0  0  0  0  0  0  0  0  0  0  0
  141.0540   70.4050  228.2900 C   0  0  0  0  0  0  0  0  0  0  0  0
  140.6570   71.0960  227.1480 C   0  0  0  0  0  0  0  0  0  0  0  0
  140.0260   70.4270  226.0970 C   0  0  0  0  0  0  0  0  0  0  0  0
  139.6450   71.0950  225.0000 N   0  0  0  0  0  0  0  0  0  0  0  0
  139.5910   73.0420  223.5120 H   0  0  0  0  0  0  0  0  0  0  0  0
  138.7324   72.9554  220.6548 H   0  0  0  0  0  0  0  0  0  0  0  0
  137.6749   73.9248  221.7279 H   0  0  0  0  0  0  0  0  0  0  0  0
  138.4212   74.6912  219.0561 H   0  0  0  0  0  0  0  0  0  0  0  0
  137.5046   75.9995  219.8158 H   0  0  0  0  0  0  0  0  0  0  0  0
  139.1997   76.1749  217.4933 H   0  0  0  0  0  0  0  0  0  0  0  0
  138.4310   77.5330  218.3008 H   0  0  0  0  0  0  0  0  0  0  0  0
  141.2307   76.3365  218.7682 H   0  0  0  0  0  0  0  0  0  0  0  0
  140.8370   78.0207  218.7143 H   0  0  0  0  0  0  0  0  0  0  0  0
  139.5151   77.8053  220.9045 H   0  0  0  0  0  0  0  0  0  0  0  0
  141.4445   76.1864  222.0474 H   0  0  0  0  0  0  0  0  0  0  0  0
  142.2910   77.0652  220.7725 H   0  0  0  0  0  0  0  0  0  0  0  0
  143.3394   78.7386  222.0636 H   0  0  0  0  0  0  0  0  0  0  0  0
  143.1006   80.8463  223.3905 H   0  0  0  0  0  0  0  0  0  0  0  0
  140.8961   81.5807  224.2192 H   0  0  0  0  0  0  0  0  0  0  0  0
  139.0770   78.0868  222.4093 H   0  0  0  0  0  0  0  0  0  0  0  0
  138.2744   68.6428  223.1392 H   0  0  0  0  0  0  0  0  0  0  0  0
  138.9695   67.3564  225.1706 H   0  0  0  0  0  0  0  0  0  0  0  0
  140.0059   67.3201  227.3906 H   0  0  0  0  0  0  0  0  0  0  0  0
  141.1212   68.4929  229.2494 H   0  0  0  0  0  0  0  0  0  0  0  0
  141.5496   70.9295  229.1203 H   0  0  0  0  0  0  0  0  0  0  0  0
  140.8420   72.1778  227.0731 H   0  0  0  0  0  0  0  0  0  0  0  0
  1  2  2  0
  2  3  1  0
  3  4  1  0
  4  5  1  0
  5  6  2  0
  5  7  1  0
  7  8  1  0
  8  9  1  0
  9 10  1  0
 10 11  1  0
 11 12  1  0
 12 13  1  0
 13 14  2  0
 14 15  1  0
 15 16  2  0
 16 17  1  0
 17 18  1  0
 17 19  2  0
  2 20  1  0
 20 21  2  0
 21 22  1  0
 22 23  2  0
 23 24  1  0
 24 25  2  0
 25 26  1  0
 26 27  2  0
 27 28  1  0
 28 29  2  0
 11  7  1  0
 19 13  1  0
 29 20  1  0
 28 23  1  0
  3 30  1  0
  4 31  1  0
  4 32  1  0
  8 33  1  0
  8 34  1  0
  9 35  1  0
  9 36  1  0
 10 37  1  0
 10 38  1  0
 11 39  1  1
 12 40  1  0
 12 41  1  0
 14 42  1  0
 15 43  1  0
 16 44  1  0
 19 45  1  0
 21 46  1  0
 22 47  1  0
 24 48  1  0
 25 49  1  0
 26 50  1  0
 27 51  1  0
M  END
>  <smiles>  (21) 
O=C(NCC(=O)N1CCCC1Cc1cccc(Cl)c1)c1ccc2ccccc2n1

>  <score_type>  (21) 
oracle

>  <origin>  (21) 
autodockgpu

>  <m_score__min__energy>  (21) 
-9.2899999999999991

>  <m_primary>  (21) 
energy

>  <rmsd>  (21) 
1.1039755236890552

>  <m_score__min__rmsd>  (21) 
1.1039755236890552

>  <meeko>  (21) 
{"free_energy": -8.44, "intermolecular_energy": -10.23, "internal_energy": -2.1, "cluster_size": 39, "cluster_id": 1, "rank_in_cluster": 34}

>  <energy>  (21) 
-8.81

>  <cluster_rmsd>  (21) 
1.63

>  <cluster>  (21) 
1

$$$$

     RDKit          3D

 51 54  0  0  0  0  0  0  0  0999 V2000
  140.2980   71.0780  221.3660 O   0  0  0  0  0  0  0  0  0  0  0  0
  139.9740   71.6380  222.4480 C   0  0  0  0  0  0  0  0  0  0  0  0
  139.7030   73.0160  222.4800 N   0  0  0  0  0  0  0  0  0  0  0  0
  139.7690   73.8770  221.3170 C   0  0  0  0  0  0  0  0  0  0  0  0
  141.1880   74.1840  221.0310 C   0  0  0  0  0  0  0  0  0  0  0  0
  141.9890   73.2190  220.9270 O   0  0  0  0  0  0  0  0  0  0  0  0
  141.5830   75.5460  220.8870 N   0  0  0  0  0  0  0  0  0  0  0  0
  141.0830   76.6900  221.6620 C   0  0  0  0  0  0  0  0  0  0  0  0
  141.2840   77.9020  220.7770 C   0  0  0  0  0  0  0  0  0  0  0  0
  141.7830   77.3140  219.4530 C   0  0  0  0  0  0  0  0  0  0  0  0
  142.5440   76.1210  219.9710 C   0  0  2  0  0  0  0  0  0  0  0  0
  142.9480   75.1780  218.8580 C   0  0  0  0  0  0  0  0  0  0  0  0
  144.0320   74.3190  219.4490 C   0  0  0  0  0  0  0  0  0  0  0  0
  144.7880   74.8610  220.4720 C   0  0  0  0  0  0  0  0  0  0  0  0
  145.7950   74.0660  221.0210 C   0  0  0  0  0  0  0  0  0  0  0  0
  146.0350   72.7900  220.5700 C   0  0  0  0  0  0  0  0  0  0  0  0
  145.2510   72.2720  219.5310 C   0  0  0  0  0  0  0  0  0  0  0  0
  145.5780   70.6370  218.9710 Cl  0  0  0  0  0  0  0  0  0  0  0  0
  144.2390   73.0410  218.9630 C   0  0  0  0  0  0  0  0  0  0  0  0
  139.8790   70.8410  223.6850 C   0  0  0  0  0  0  0  0  0  0  0  0
  139.2410   69.6170  223.6750 C   0  0  0  0  0  0  0  0  0  0  0  0
  139.1840   68.9110  224.8740 C   0  0  0  0  0  0  0  0  0  0  0  0
  139.7450   69.4190  226.0240 C   0  0  0  0  0  0  0  0  0  0  0  0
  139.7110   68.7490  227.2340 C   0  0  0  0  0  0  0  0  0  0  0  0
  140.2810   69.2790  228.3790 C   0  0  0  0  0  0  0  0  0  0  0  0
  140.9060   70.4970  228.3450 C   0  0  0  0  0  0  0  0  0  0  0  0
  140.9520   71.1880  227.1370 C   0  0  0  0  0  0  0  0  0  0  0  0
  140.3740   70.6480  225.9870 C   0  0  0  0  0  0  0  0  0  0  0  0
  140.4200   71.3140  224.8260 N   0  0  0  0  0  0  0  0  0  0  0  0
  139.4360   73.4290  223.4170 H   0  0  0  0  0  0  0  0  0  0  0  0
  139.3198   73.3659  220.4527 H   0  0  0  0  0  0  0  0  0  0  0  0
  139.2165   74.8085  221.5097 H   0  0  0  0  0  0  0  0  0  0  0  0
  140.0162   76.5583  221.8959 H   0  0  0  0  0  0  0  0  0  0  0  0
  141.6125   76.7942  222.6205 H   0  0  0  0  0  0  0  0  0  0  0  0
  140.3368   78.4425  220.6327 H   0  0  0  0  0  0  0  0  0  0  0  0
  141.9863   78.6303  221.2087 H   0  0  0  0  0  0  0  0  0  0  0  0
  140.9506   77.0154  218.7988 H   0  0  0  0  0  0  0  0  0  0  0  0
  142.3699   78.0047  218.8297 H   0  0  0  0  0  0  0  0  0  0  0  0
  143.5056   76.3647  220.4462 H   0  0  0  0  0  0  0  0  0  0  0  0
  142.0931   74.5606  218.5451 H   0  0  0  0  0  0  0  0  0  0  0  0
  143.2909   75.7182  217.9632 H   0  0  0  0  0  0  0  0  0  0  0  0
  144.6025   75.8811  220.8395 H   0  0  0  0  0  0  0  0  0  0  0  0
  146.4128   74.4711  221.8360 H   0  0  0  0  0  0  0  0  0  0  0  0
  146.8339   72.1823  221.0200 H   0  0  0  0  0  0  0  0  0  0  0  0
  143.6188   72.6415  218.1470 H   0  0  0  0  0  0  0  0  0  0  0  0
  138.7942   69.2142  222.7541 H   0  0  0  0  0  0  0  0  0  0  0  0
  138.6829   67.9322  224.9027 H   0  0  0  0  0  0  0  0  0  0  0  0
  139.2172   67.7676  227.2878 H   0  0  0  0  0  0  0  0  0  0  0  0
  140.2315   68.7173  229.3235 H   0  0  0  0  0  0  0  0  0  0  0  0
  141.3618   70.9203  229.2522 H   0  0  0  0  0  0  0  0  0  0  0  0
  141.4484   72.1684  227.0886 H   0  0  0  0  0  0  0  0  0  0  0  0
  1  2  2  0
  2  3  1  0
  3  4  1  0
  4  5  1  0
  5  6  2  0
  5  7  1  0
  7  8  1  0
  8  9  1  0
  9 10  1  0
 10 11  1  0
 11 12  1  0
 12 13  1  0
 13 14  2  0
 14 15  1  0
 15 16  2  0
 16 17  1  0
 17 18  1  0
 17 19  2  0
  2 20  1  0
 20 21  2  0
 21 22  1  0
 22 23  2  0
 23 24  1  0
 24 25  2  0
 25 26  1  0
 26 27  2  0
 27 28  1  0
 28 29  2  0
 11  7  1  0
 19 13  1  0
 29 20  1  0
 28 23  1  0
  3 30  1  0
  4 31  1  0
  4 32  1  0
  8 33  1  0
  8 34  1  0
  9 35  1  0
  9 36  1  0
 10 37  1  0
 10 38  1  0
 11 39  1  1
 12 40  1  0
 12 41  1  0
 14 42  1  0
 15 43  1  0
 16 44  1  0
 19 45  1  0
 21 46  1  0
 22 47  1  0
 24 48  1  0
 25 49  1  0
 26 50  1  0
 27 51  1  0
M  END
>  <smiles>  (22) 
O=C(NCC(=O)N1CCCC1Cc1cccc(Cl)c1)c1ccc2ccccc2n1

>  <score_type>  (22) 
oracle

>  <origin>  (22) 
autodockgpu

>  <m_score__min__energy>  (22) 
-9.2899999999999991

>  <m_primary>  (22) 
energy

>  <rmsd>  (22) 
2.119076969004891

>  <m_score__min__rmsd>  (22) 
2.119076969004891

>  <meeko>  (22) 
{"free_energy": -8.82, "intermolecular_energy": -10.61, "internal_energy": -1.53, "cluster_size": 4, "cluster_id": 2, "rank_in_cluster": 3}

>  <energy>  (22) 
-8.81

>  <cluster_rmsd>  (22) 
1.69

>  <cluster>  (22) 
1

$$$$

     RDKit          3D

 51 54  0  0  0  0  0  0  0  0999 V2000
  140.9950   71.9410  222.0660 O   0  0  0  0  0  0  0  0  0  0  0  0
  139.9480   71.8310  222.7600 C   0  0  0  0  0  0  0  0  0  0  0  0
  138.8410   72.6590  222.5110 N   0  0  0  0  0  0  0  0  0  0  0  0
  138.8100   73.6700  221.4750 C   0  0  0  0  0  0  0  0  0  0  0  0
  139.5220   74.8730  221.9590 C   0  0  0  0  0  0  0  0  0  0  0  0
  140.7780   74.8300  222.0140 O   0  0  0  0  0  0  0  0  0  0  0  0
  138.7620   76.0170  222.3400 N   0  0  0  0  0  0  0  0  0  0  0  0
  137.3990   76.0220  222.8880 C   0  0  0  0  0  0  0  0  0  0  0  0
  136.8230   77.3780  222.5400 C   0  0  0  0  0  0  0  0  0  0  0  0
  137.9030   78.0250  221.6660 C   0  0  0  0  0  0  0  0  0  0  0  0
  139.1350   77.4150  222.2830 C   0  0  2  0  0  0  0  0  0  0  0  0
  140.3730   77.6700  221.4520 C   0  0  0  0  0  0  0  0  0  0  0  0
  141.0170   78.8800  222.0730 C   0  0  0  0  0  0  0  0  0  0  0  0
  141.8110   78.6780  223.1860 C   0  0  0  0  0  0  0  0  0  0  0  0
  142.4090   79.7990  223.7640 C   0  0  0  0  0  0  0  0  0  0  0  0
  142.2220   81.0610  223.2530 C   0  0  0  0  0  0  0  0  0  0  0  0
  141.4110   81.2310  222.1250 C   0  0  0  0  0  0  0  0  0  0  0  0
  141.1870   82.8560  221.4900 Cl  0  0  0  0  0  0  0  0  0  0  0  0
  140.8000   80.1320  221.5260 C   0  0  0  0  0  0  0  0  0  0  0  0
  139.8880   70.8270  223.8390 C   0  0  0  0  0  0  0  0  0  0  0  0
  139.2450   69.6230  223.6320 C   0  0  0  0  0  0  0  0  0  0  0  0
  139.2210   68.7160  224.6870 C   0  0  0  0  0  0  0  0  0  0  0  0
  139.8190   69.0130  225.8920 C   0  0  0  0  0  0  0  0  0  0  0  0
  139.8170   68.1390  226.9640 C   0  0  0  0  0  0  0  0  0  0  0  0
  140.4240   68.4580  228.1670 C   0  0  0  0  0  0  0  0  0  0  0  0
  141.0520   69.6650  228.3310 C   0  0  0  0  0  0  0  0  0  0  0  0
  141.0650   70.5590  227.2640 C   0  0  0  0  0  0  0  0  0  0  0  0
  140.4500   70.2300  226.0540 C   0  0  0  0  0  0  0  0  0  0  0  0
  140.4640   71.0920  225.0290 N   0  0  0  0  0  0  0  0  0  0  0  0
  137.9920   72.5190  223.1260 H   0  0  0  0  0  0  0  0  0  0  0  0
  139.3047   73.2870  220.5702 H   0  0  0  0  0  0  0  0  0  0  0  0
  137.7675   73.9253  221.2340 H   0  0  0  0  0  0  0  0  0  0  0  0
  136.7988   75.2215  222.4309 H   0  0  0  0  0  0  0  0  0  0  0  0
  137.3972   75.8465  223.9739 H   0  0  0  0  0  0  0  0  0  0  0  0
  135.8807   77.2714  221.9826 H   0  0  0  0  0  0  0  0  0  0  0  0
  136.5828   77.9776  223.4303 H   0  0  0  0  0  0  0  0  0  0  0  0
  137.7944   77.7449  220.6078 H   0  0  0  0  0  0  0  0  0  0  0  0
  137.8886   79.1248  221.6480 H   0  0  0  0  0  0  0  0  0  0  0  0
  139.4087   77.8329  223.2630 H   0  0  0  0  0  0  0  0  0  0  0  0
  141.0522   76.8058  221.4949 H   0  0  0  0  0  0  0  0  0  0  0  0
  140.1323   77.8292  220.3905 H   0  0  0  0  0  0  0  0  0  0  0  0
  141.9660   77.6711  223.6010 H   0  0  0  0  0  0  0  0  0  0  0  0
  143.0462   79.6690  224.6512 H   0  0  0  0  0  0  0  0  0  0  0  0
  142.7049   81.9289  223.7258 H   0  0  0  0  0  0  0  0  0  0  0  0
  140.1606   80.2565  220.6397 H   0  0  0  0  0  0  0  0  0  0  0  0
  138.7690   69.3892  222.6683 H   0  0  0  0  0  0  0  0  0  0  0  0
  138.7168   67.7471  224.5568 H   0  0  0  0  0  0  0  0  0  0  0  0
  139.3195   67.1637  226.8580 H   0  0  0  0  0  0  0  0  0  0  0  0
  140.4019   67.7370  228.9975 H   0  0  0  0  0  0  0  0  0  0  0  0
  141.5354   69.9218  229.2851 H   0  0  0  0  0  0  0  0  0  0  0  0
  141.5640   71.5330  227.3749 H   0  0  0  0  0  0  0  0  0  0  0  0
  1  2  2  0
  2  3  1  0
  3  4  1  0
  4  5  1  0
  5  6  2  0
  5  7  1  0
  7  8  1  0
  8  9  1  0
  9 10  1  0
 10 11  1  0
 11 12  1  0
 12 13  1  0
 13 14  2  0
 14 15  1  0
 15 16  2  0
 16 17  1  0
 17 18  1  0
 17 19  2  0
  2 20  1  0
 20 21  2  0
 21 22  1  0
 22 23  2  0
 23 24  1  0
 24 25  2  0
 25 26  1  0
 26 27  2  0
 27 28  1  0
 28 29  2  0
 11  7  1  0
 19 13  1  0
 29 20  1  0
 28 23  1  0
  3 30  1  0
  4 31  1  0
  4 32  1  0
  8 33  1  0
  8 34  1  0
  9 35  1  0
  9 36  1  0
 10 37  1  0
 10 38  1  0
 11 39  1  1
 12 40  1  0
 12 41  1  0
 14 42  1  0
 15 43  1  0
 16 44  1  0
 19 45  1  0
 21 46  1  0
 22 47  1  0
 24 48  1  0
 25 49  1  0
 26 50  1  0
 27 51  1  0
M  END
>  <smiles>  (23) 
O=C(NCC(=O)N1CCCC1Cc1cccc(Cl)c1)c1ccc2ccccc2n1

>  <score_type>  (23) 
oracle

>  <origin>  (23) 
autodockgpu

>  <m_score__min__energy>  (23) 
-9.2899999999999991

>  <m_primary>  (23) 
energy

>  <rmsd>  (23) 
2.7992756174256836

>  <m_score__min__rmsd>  (23) 
2.7992756174256836

>  <meeko>  (23) 
{"free_energy": -9.29, "intermolecular_energy": -11.08, "internal_energy": -1.27, "cluster_size": 39, "cluster_id": 1, "rank_in_cluster": 1}

>  <energy>  (23) 
-8.77

>  <cluster_rmsd>  (23) 
1.66

>  <cluster>  (23) 
1

$$$$

     RDKit          3D

 51 54  0  0  0  0  0  0  0  0999 V2000
  138.9720   71.1240  221.3370 O   0  0  0  0  0  0  0  0  0  0  0  0
  139.2430   71.7700  222.3850 C   0  0  0  0  0  0  0  0  0  0  0  0
  139.2650   73.1750  222.3650 N   0  0  0  0  0  0  0  0  0  0  0  0
  138.9890   73.9680  221.1860 C   0  0  0  0  0  0  0  0  0  0  0  0
  139.2320   75.3930  221.5010 C   0  0  0  0  0  0  0  0  0  0  0  0
  139.2760   75.7270  222.7130 O   0  0  0  0  0  0  0  0  0  0  0  0
  139.4030   76.3170  220.4290 N   0  0  0  0  0  0  0  0  0  0  0  0
  138.6520   76.3440  219.1670 C   0  0  0  0  0  0  0  0  0  0  0  0
  139.5610   77.0220  218.1640 C   0  0  0  0  0  0  0  0  0  0  0  0
  140.8740   77.2200  218.9310 C   0  0  0  0  0  0  0  0  0  0  0  0
  140.3320   77.4220  220.3230 C   0  0  2  0  0  0  0  0  0  0  0  0
  141.4250   77.3870  221.3670 C   0  0  0  0  0  0  0  0  0  0  0  0
  141.1930   78.6070  222.2160 C   0  0  0  0  0  0  0  0  0  0  0  0
  142.2950   79.3730  222.5450 C   0  0  0  0  0  0  0  0  0  0  0  0
  142.0820   80.5060  223.3330 C   0  0  0  0  0  0  0  0  0  0  0  0
  140.8270   80.8560  223.7690 C   0  0  0  0  0  0  0  0  0  0  0  0
  139.7310   80.0580  223.4170 C   0  0  0  0  0  0  0  0  0  0  0  0
  138.1350   80.5270  223.9880 Cl  0  0  0  0  0  0  0  0  0  0  0  0
  139.9120   78.9220  222.6330 C   0  0  0  0  0  0  0  0  0  0  0  0
  139.5370   71.0470  223.6360 C   0  0  0  0  0  0  0  0  0  0  0  0
  139.3310   69.6840  223.7160 C   0  0  0  0  0  0  0  0  0  0  0  0
  139.6270   69.0580  224.9230 C   0  0  0  0  0  0  0  0  0  0  0  0
  140.1080   69.7750  225.9950 C   0  0  0  0  0  0  0  0  0  0  0  0
  140.4150   69.1900  227.2110 C   0  0  0  0  0  0  0  0  0  0  0  0
  140.8970   69.9300  228.2770 C   0  0  0  0  0  0  0  0  0  0  0  0
  141.0880   71.2820  228.1550 C   0  0  0  0  0  0  0  0  0  0  0  0
  140.7860   71.8900  226.9400 C   0  0  0  0  0  0  0  0  0  0  0  0
  140.2990   71.1370  225.8700 C   0  0  0  0  0  0  0  0  0  0  0  0
  140.0090   71.7250  224.7020 N   0  0  0  0  0  0  0  0  0  0  0  0
  139.4980   73.6610  223.2760 H   0  0  0  0  0  0  0  0  0  0  0  0
  139.6505   73.6529  220.3656 H   0  0  0  0  0  0  0  0  0  0  0  0
  137.9425   73.8270  220.8778 H   0  0  0  0  0  0  0  0  0  0  0  0
  138.4151   75.3209  218.8397 H   0  0  0  0  0  0  0  0  0  0  0  0
  137.6962   76.8778  219.2746 H   0  0  0  0  0  0  0  0  0  0  0  0
  139.7156   76.3834  217.2818 H   0  0  0  0  0  0  0  0  0  0  0  0
  139.1445   77.9669  217.7850 H   0  0  0  0  0  0  0  0  0  0  0  0
  141.5214   76.3328  218.8691 H   0  0  0  0  0  0  0  0  0  0  0  0
  141.5117   78.0350  218.5579 H   0  0  0  0  0  0  0  0  0  0  0  0
  139.8627   78.4022  220.4930 H   0  0  0  0  0  0  0  0  0  0  0  0
  141.3498   76.4732  221.9748 H   0  0  0  0  0  0  0  0  0  0  0  0
  142.4278   77.3834  220.9148 H   0  0  0  0  0  0  0  0  0  0  0  0
  143.3029   79.1003  222.1989 H   0  0  0  0  0  0  0  0  0  0  0  0
  142.9408   81.1342  223.6117 H   0  0  0  0  0  0  0  0  0  0  0  0
  140.6844   81.7539  224.3883 H   0  0  0  0  0  0  0  0  0  0  0  0
  139.0569   78.2898  222.3517 H   0  0  0  0  0  0  0  0  0  0  0  0
  138.9470   69.1140  222.8572 H   0  0  0  0  0  0  0  0  0  0  0  0
  139.4742   67.9732  225.0220 H   0  0  0  0  0  0  0  0  0  0  0  0
  140.2719   68.1063  227.3340 H   0  0  0  0  0  0  0  0  0  0  0  0
  141.1284   69.4295  229.2288 H   0  0  0  0  0  0  0  0  0  0  0  0
  141.4717   71.8736  228.9992 H   0  0  0  0  0  0  0  0  0  0  0  0
  140.9324   72.9738  226.8217 H   0  0  0  0  0  0  0  0  0  0  0  0
  1  2  2  0
  2  3  1  0
  3  4  1  0
  4  5  1  0
  5  6  2  0
  5  7  1  0
  7  8  1  0
  8  9  1  0
  9 10  1  0
 10 11  1  0
 11 12  1  0
 12 13  1  0
 13 14  2  0
 14 15  1  0
 15 16  2  0
 16 17  1  0
 17 18  1  0
 17 19  2  0
  2 20  1  0
 20 21  2  0
 21 22  1  0
 22 23  2  0
 23 24  1  0
 24 25  2  0
 25 26  1  0
 26 27  2  0
 27 28  1  0
 28 29  2  0
 11  7  1  0
 19 13  1  0
 29 20  1  0
 28 23  1  0
  3 30  1  0
  4 31  1  0
  4 32  1  0
  8 33  1  0
  8 34  1  0
  9 35  1  0
  9 36  1  0
 10 37  1  0
 10 38  1  0
 11 39  1  6
 12 40  1  0
 12 41  1  0
 14 42  1  0
 15 43  1  0
 16 44  1  0
 19 45  1  0
 21 46  1  0
 22 47  1  0
 24 48  1  0
 25 49  1  0
 26 50  1  0
 27 51  1  0
M  END
>  <smiles>  (24) 
O=C(NCC(=O)N1CCCC1Cc1cccc(Cl)c1)c1ccc2ccccc2n1

>  <score_type>  (24) 
oracle

>  <origin>  (24) 
autodockgpu

>  <m_score__min__energy>  (24) 
-9.2899999999999991

>  <m_primary>  (24) 
energy

>  <rmsd>  (24) 
1.2004013783407321

>  <m_score__min__rmsd>  (24) 
1.2004013783407321

>  <meeko>  (24) 
{"free_energy": -8.44, "intermolecular_energy": -10.23, "internal_energy": -2.28, "cluster_size": 39, "cluster_id": 1, "rank_in_cluster": 35}

>  <energy>  (24) 
-8.76

>  <cluster_rmsd>  (24) 
1.37

>  <cluster>  (24) 
1

$$$$

     RDKit          3D

 51 54  0  0  0  0  0  0  0  0999 V2000
  137.6820   71.8950  222.6980 O   0  0  0  0  0  0  0  0  0  0  0  0
  138.8850   71.6590  222.9920 C   0  0  0  0  0  0  0  0  0  0  0  0
  139.9230   72.3570  222.3520 N   0  0  0  0  0  0  0  0  0  0  0  0
  139.7070   73.3680  221.3390 C   0  0  0  0  0  0  0  0  0  0  0  0
  141.0140   73.9390  220.9480 C   0  0  0  0  0  0  0  0  0  0  0  0
  142.0500   73.2870  221.2370 O   0  0  0  0  0  0  0  0  0  0  0  0
  141.0440   75.1920  220.2680 N   0  0  0  0  0  0  0  0  0  0  0  0
  141.2150   75.4010  218.8240 C   0  0  0  0  0  0  0  0  0  0  0  0
  141.7990   76.7910  218.6780 C   0  0  0  0  0  0  0  0  0  0  0  0
  142.0520   77.2380  220.1220 C   0  0  0  0  0  0  0  0  0  0  0  0
  140.9190   76.5260  220.8160 C   0  0  2  0  0  0  0  0  0  0  0  0
  141.0590   76.5700  222.3220 C   0  0  0  0  0  0  0  0  0  0  0  0
  140.7220   77.9850  222.7030 C   0  0  0  0  0  0  0  0  0  0  0  0
  139.4020   78.3790  222.5880 C   0  0  0  0  0  0  0  0  0  0  0  0
  139.0860   79.6920  222.9410 C   0  0  0  0  0  0  0  0  0  0  0  0
  140.0450   80.5690  223.3890 C   0  0  0  0  0  0  0  0  0  0  0  0
  141.3730   80.1380  223.4940 C   0  0  0  0  0  0  0  0  0  0  0  0
  142.5810   81.2800  224.0690 Cl  0  0  0  0  0  0  0  0  0  0  0  0
  141.7190   78.8350  223.1490 C   0  0  0  0  0  0  0  0  0  0  0  0
  139.2020   70.6440  224.0140 C   0  0  0  0  0  0  0  0  0  0  0  0
  138.8740   69.3200  223.8050 C   0  0  0  0  0  0  0  0  0  0  0  0
  139.1980   68.4100  224.8060 C   0  0  0  0  0  0  0  0  0  0  0  0
  139.8250   68.8190  225.9620 C   0  0  0  0  0  0  0  0  0  0  0  0
  140.1650   67.9460  226.9800 C   0  0  0  0  0  0  0  0  0  0  0  0
  140.7950   68.3800  228.1340 C   0  0  0  0  0  0  0  0  0  0  0  0
  141.1040   69.7040  228.3020 C   0  0  0  0  0  0  0  0  0  0  0  0
  140.7710   70.5990  227.2900 C   0  0  0  0  0  0  0  0  0  0  0  0
  140.1350   70.1540  226.1290 C   0  0  0  0  0  0  0  0  0  0  0  0
  139.8160   71.0180  225.1560 N   0  0  0  0  0  0  0  0  0  0  0  0
  140.9110   72.1140  222.6420 H   0  0  0  0  0  0  0  0  0  0  0  0
  139.2245   72.9141  220.4609 H   0  0  0  0  0  0  0  0  0  0  0  0
  139.0567   74.1614  221.7360 H   0  0  0  0  0  0  0  0  0  0  0  0
  141.9021   74.6504  218.4064 H   0  0  0  0  0  0  0  0  0  0  0  0
  140.2621   75.3019  218.2835 H   0  0  0  0  0  0  0  0  0  0  0  0
  142.7386   76.7627  218.1067 H   0  0  0  0  0  0  0  0  0  0  0  0
  141.1331   77.4758  218.1324 H   0  0  0  0  0  0  0  0  0  0  0  0
  143.0326   76.9001  220.4885 H   0  0  0  0  0  0  0  0  0  0  0  0
  142.0777   78.3273  220.2731 H   0  0  0  0  0  0  0  0  0  0  0  0
  139.9280   76.9734  220.6495 H   0  0  0  0  0  0  0  0  0  0  0  0
  140.3601   75.8651  222.7960 H   0  0  0  0  0  0  0  0  0  0  0  0
  142.0683   76.2825  222.6517 H   0  0  0  0  0  0  0  0  0  0  0  0
  138.6285   77.6830  222.2312 H   0  0  0  0  0  0  0  0  0  0  0  0
  138.0436   80.0334  222.8586 H   0  0  0  0  0  0  0  0  0  0  0  0
  139.7719   81.5989  223.6623 H   0  0  0  0  0  0  0  0  0  0  0  0
  142.7601   78.4889  223.2289 H   0  0  0  0  0  0  0  0  0  0  0  0
  138.3743   68.9959  222.8802 H   0  0  0  0  0  0  0  0  0  0  0  0
  138.9495   67.3468  224.6721 H   0  0  0  0  0  0  0  0  0  0  0  0
  139.9282   66.8775  226.8695 H   0  0  0  0  0  0  0  0  0  0  0  0
  141.0494   67.6560  228.9221 H   0  0  0  0  0  0  0  0  0  0  0  0
  141.6047   70.0522  229.2175 H   0  0  0  0  0  0  0  0  0  0  0  0
  141.0108   71.6663  227.4054 H   0  0  0  0  0  0  0  0  0  0  0  0
  1  2  2  0
  2  3  1  0
  3  4  1  0
  4  5  1  0
  5  6  2  0
  5  7  1  0
  7  8  1  0
  8  9  1  0
  9 10  1  0
 10 11  1  0
 11 12  1  0
 12 13  1  0
 13 14  2  0
 14 15  1  0
 15 16  2  0
 16 17  1  0
 17 18  1  0
 17 19  2  0
  2 20  1  0
 20 21  2  0
 21 22  1  0
 22 23  2  0
 23 24  1  0
 24 25  2  0
 25 26  1  0
 26 27  2  0
 27 28  1  0
 28 29  2  0
 11  7  1  0
 19 13  1  0
 29 20  1  0
 28 23  1  0
  3 30  1  0
  4 31  1  0
  4 32  1  0
  8 33  1  0
  8 34  1  0
  9 35  1  0
  9 36  1  0
 10 37  1  0
 10 38  1  0
 11 39  1  1
 12 40  1  0
 12 41  1  0
 14 42  1  0
 15 43  1  0
 16 44  1  0
 19 45  1  0
 21 46  1  0
 22 47  1  0
 24 48  1  0
 25 49  1  0
 26 50  1  0
 27 51  1  0
M  END
>  <smiles>  (25) 
O=C(NCC(=O)N1CCCC1Cc1cccc(Cl)c1)c1ccc2ccccc2n1

>  <score_type>  (25) 
oracle

>  <origin>  (25) 
autodockgpu

>  <m_score__min__energy>  (25) 
-9.2899999999999991

>  <m_primary>  (25) 
energy

>  <rmsd>  (25) 
1.7082187824764399

>  <m_score__min__rmsd>  (25) 
1.7082187824764399

>  <meeko>  (25) 
{"free_energy": -8.34, "intermolecular_energy": -10.13, "internal_energy": -1.92, "cluster_size": 39, "cluster_id": 1, "rank_in_cluster": 37}

>  <energy>  (25) 
-8.71

>  <cluster_rmsd>  (25) 
1.89

>  <cluster>  (25) 
1

$$$$

     RDKit          3D

 51 54  0  0  0  0  0  0  0  0999 V2000
  141.6200   75.8440  218.8710 O   0  0  0  0  0  0  0  0  0  0  0  0
  141.8040   76.2030  220.0660 C   0  0  0  0  0  0  0  0  0  0  0  0
  142.0090   75.2430  221.0710 N   0  0  0  0  0  0  0  0  0  0  0  0
  142.0260   73.8150  220.8290 C   0  0  0  0  0  0  0  0  0  0  0  0
  140.9060   73.1930  221.5680 C   0  0  0  0  0  0  0  0  0  0  0  0
  140.2370   73.9220  222.3460 O   0  0  0  0  0  0  0  0  0  0  0  0
  140.6340   71.8070  221.3710 N   0  0  0  0  0  0  0  0  0  0  0  0
  140.9590   71.0120  220.1790 C   0  0  0  0  0  0  0  0  0  0  0  0
  139.9680   69.8670  220.1690 C   0  0  0  0  0  0  0  0  0  0  0  0
  139.0270   70.1830  221.3370 C   0  0  0  0  0  0  0  0  0  0  0  0
  139.9920   70.8710  222.2680 C   0  0  2  0  0  0  0  0  0  0  0  0
  139.2850   71.5410  223.4260 C   0  0  0  0  0  0  0  0  0  0  0  0
  139.9120   70.9510  224.6600 C   0  0  0  0  0  0  0  0  0  0  0  0
  140.6390   71.8010  225.4720 C   0  0  0  0  0  0  0  0  0  0  0  0
  141.2230   71.2560  226.6170 C   0  0  0  0  0  0  0  0  0  0  0  0
  141.0840   69.9260  226.9350 C   0  0  0  0  0  0  0  0  0  0  0  0
  140.3410   69.0930  226.0900 C   0  0  0  0  0  0  0  0  0  0  0  0
  140.1790   67.3950  226.5190 Cl  0  0  0  0  0  0  0  0  0  0  0  0
  139.7480   69.6060  224.9400 C   0  0  0  0  0  0  0  0  0  0  0  0
  141.8050   77.6370  220.4070 C   0  0  0  0  0  0  0  0  0  0  0  0
  141.8020   78.5900  219.4080 C   0  0  0  0  0  0  0  0  0  0  0  0
  141.8030   79.9270  219.7930 C   0  0  0  0  0  0  0  0  0  0  0  0
  141.8060   80.2830  221.1230 C   0  0  0  0  0  0  0  0  0  0  0  0
  141.8070   81.6000  221.5460 C   0  0  0  0  0  0  0  0  0  0  0  0
  141.8100   81.9350  222.8900 C   0  0  0  0  0  0  0  0  0  0  0  0
  141.8130   80.9590  223.8510 C   0  0  0  0  0  0  0  0  0  0  0  0
  141.8120   79.6270  223.4460 C   0  0  0  0  0  0  0  0  0  0  0  0
  141.8090   79.2960  222.0890 C   0  0  0  0  0  0  0  0  0  0  0  0
  141.8080   78.0140  221.7030 N   0  0  0  0  0  0  0  0  0  0  0  0
  142.1590   75.6050  222.0540 H   0  0  0  0  0  0  0  0  0  0  0  0
  141.9115   73.6211  219.7523 H   0  0  0  0  0  0  0  0  0  0  0  0
  142.9812   73.3894  221.1704 H   0  0  0  0  0  0  0  0  0  0  0  0
  140.8503   71.6216  219.2698 H   0  0  0  0  0  0  0  0  0  0  0  0
  141.9976   70.6505  220.2022 H   0  0  0  0  0  0  0  0  0  0  0  0
  139.4152   69.8362  219.2185 H   0  0  0  0  0  0  0  0  0  0  0  0
  140.4536   68.8851  220.2694 H   0  0  0  0  0  0  0  0  0  0  0  0
  138.2071   70.8500  221.0323 H   0  0  0  0  0  0  0  0  0  0  0  0
  138.5096   69.3119  221.7653 H   0  0  0  0  0  0  0  0  0  0  0  0
  140.6996   70.1960  222.7717 H   0  0  0  0  0  0  0  0  0  0  0  0
  139.4405   72.6295  223.3962 H   0  0  0  0  0  0  0  0  0  0  0  0
  138.1977   71.3770  223.3966 H   0  0  0  0  0  0  0  0  0  0  0  0
  140.7532   72.8669  225.2253 H   0  0  0  0  0  0  0  0  0  0  0  0
  141.8093   71.9075  227.2816 H   0  0  0  0  0  0  0  0  0  0  0  0
  141.5518   69.5203  227.8442 H   0  0  0  0  0  0  0  0  0  0  0  0
  139.1634   68.9581  224.2703 H   0  0  0  0  0  0  0  0  0  0  0  0
  141.7989   78.3026  218.3462 H   0  0  0  0  0  0  0  0  0  0  0  0
  141.8014   80.7121  219.0225 H   0  0  0  0  0  0  0  0  0  0  0  0
  141.8054   82.4032  220.7945 H   0  0  0  0  0  0  0  0  0  0  0  0
  141.8100   82.9938  223.1881 H   0  0  0  0  0  0  0  0  0  0  0  0
  141.8161   81.2218  224.9191 H   0  0  0  0  0  0  0  0  0  0  0  0
  141.8136   78.8277  224.2018 H   0  0  0  0  0  0  0  0  0  0  0  0
  1  2  2  0
  2  3  1  0
  3  4  1  0
  4  5  1  0
  5  6  2  0
  5  7  1  0
  7  8  1  0
  8  9  1  0
  9 10  1  0
 10 11  1  0
 11 12  1  0
 12 13  1  0
 13 14  2  0
 14 15  1  0
 15 16  2  0
 16 17  1  0
 17 18  1  0
 17 19  2  0
  2 20  1  0
 20 21  2  0
 21 22  1  0
 22 23  2  0
 23 24  1  0
 24 25  2  0
 25 26  1  0
 26 27  2  0
 27 28  1  0
 28 29  2  0
 11  7  1  0
 19 13  1  0
 29 20  1  0
 28 23  1  0
  3 30  1  0
  4 31  1  0
  4 32  1  0
  8 33  1  0
  8 34  1  0
  9 35  1  0
  9 36  1  0
 10 37  1  0
 10 38  1  0
 11 39  1  1
 12 40  1  0
 12 41  1  0
 14 42  1  0
 15 43  1  0
 16 44  1  0
 19 45  1  0
 21 46  1  0
 22 47  1  0
 24 48  1  0
 25 49  1  0
 26 50  1  0
 27 51  1  0
M  END
>  <smiles>  (26) 
O=C(NCC(=O)N1CCCC1Cc1cccc(Cl)c1)c1ccc2ccccc2n1

>  <score_type>  (26) 
oracle

>  <origin>  (26) 
autodockgpu

>  <m_score__min__energy>  (26) 
-9.2899999999999991

>  <m_primary>  (26) 
energy

>  <rmsd>  (26) 
8.597381196751146

>  <m_score__min__rmsd>  (26) 
8.597381196751146

>  <meeko>  (26) 
{"free_energy": -8.71, "intermolecular_energy": -10.5, "internal_energy": -1.79, "cluster_size": 3, "cluster_id": 4, "rank_in_cluster": 2}

>  <energy>  (26) 
-8.71

>  <cluster_rmsd>  (26) 
1.65

>  <cluster>  (26) 
1

$$$$

     RDKit          3D

 51 54  0  0  0  0  0  0  0  0999 V2000
  138.5310   70.5650  221.5220 O   0  0  0  0  0  0  0  0  0  0  0  0
  138.9490   71.1970  222.5290 C   0  0  0  0  0  0  0  0  0  0  0  0
  139.1260   72.5900  222.4700 N   0  0  0  0  0  0  0  0  0  0  0  0
  138.8530   73.3860  221.2930 C   0  0  0  0  0  0  0  0  0  0  0  0
  139.6820   74.6100  221.3420 C   0  0  0  0  0  0  0  0  0  0  0  0
  140.4460   74.7630  222.3300 O   0  0  0  0  0  0  0  0  0  0  0  0
  139.5810   75.5550  220.2800 N   0  0  0  0  0  0  0  0  0  0  0  0
  138.7280   75.4460  219.0880 C   0  0  0  0  0  0  0  0  0  0  0  0
  139.4020   76.2880  218.0250 C   0  0  0  0  0  0  0  0  0  0  0  0
  140.7160   76.7270  218.6790 C   0  0  0  0  0  0  0  0  0  0  0  0
  140.2720   76.8160  220.1170 C   0  0  2  0  0  0  0  0  0  0  0  0
  141.4410   76.9840  221.0620 C   0  0  0  0  0  0  0  0  0  0  0  0
  141.0060   78.0450  222.0360 C   0  0  0  0  0  0  0  0  0  0  0  0
  139.6950   78.0080  222.4730 C   0  0  0  0  0  0  0  0  0  0  0  0
  139.2880   78.9920  223.3770 C   0  0  0  0  0  0  0  0  0  0  0  0
  140.1510   79.9640  223.8220 C   0  0  0  0  0  0  0  0  0  0  0  0
  141.4730   79.9730  223.3590 C   0  0  0  0  0  0  0  0  0  0  0  0
  142.5580   81.2270  223.9440 Cl  0  0  0  0  0  0  0  0  0  0  0  0
  141.9080   79.0050  222.4570 C   0  0  0  0  0  0  0  0  0  0  0  0
  139.2520   70.4690  223.7760 C   0  0  0  0  0  0  0  0  0  0  0  0
  138.9280   69.1320  223.8960 C   0  0  0  0  0  0  0  0  0  0  0  0
  139.2390   68.5000  225.0960 C   0  0  0  0  0  0  0  0  0  0  0  0
  139.8480   69.1860  226.1230 C   0  0  0  0  0  0  0  0  0  0  0  0
  140.1740   68.5940  227.3300 C   0  0  0  0  0  0  0  0  0  0  0  0
  140.7870   69.3030  228.3490 C   0  0  0  0  0  0  0  0  0  0  0  0
  141.0920   70.6290  228.1890 C   0  0  0  0  0  0  0  0  0  0  0  0
  140.7730   71.2440  226.9810 C   0  0  0  0  0  0  0  0  0  0  0  0
  140.1550   70.5220  225.9580 C   0  0  0  0  0  0  0  0  0  0  0  0
  139.8490   71.1170  224.7970 N   0  0  0  0  0  0  0  0  0  0  0  0
  139.4780   73.0630  223.3480 H   0  0  0  0  0  0  0  0  0  0  0  0
  139.1003   72.8080  220.3904 H   0  0  0  0  0  0  0  0  0  0  0  0
  137.7874   73.6574  221.2645 H   0  0  0  0  0  0  0  0  0  0  0  0
  138.6583   74.3982  218.7605 H   0  0  0  0  0  0  0  0  0  0  0  0
  137.7026   75.7896  219.2891 H   0  0  0  0  0  0  0  0  0  0  0  0
  139.5951   75.6939  217.1196 H   0  0  0  0  0  0  0  0  0  0  0  0
  138.7837   77.1391  217.7035 H   0  0  0  0  0  0  0  0  0  0  0  0
  141.5107   75.9788  218.5421 H   0  0  0  0  0  0  0  0  0  0  0  0
  141.1530   77.6498  218.2698 H   0  0  0  0  0  0  0  0  0  0  0  0
  139.6436   77.6889  220.3476 H   0  0  0  0  0  0  0  0  0  0  0  0
  141.6523   76.0407  221.5869 H   0  0  0  0  0  0  0  0  0  0  0  0
  142.3635   77.2633  220.5320 H   0  0  0  0  0  0  0  0  0  0  0  0
  138.9983   77.2325  222.1219 H   0  0  0  0  0  0  0  0  0  0  0  0
  138.2503   78.9886  223.7418 H   0  0  0  0  0  0  0  0  0  0  0  0
  139.8071   80.7278  224.5350 H   0  0  0  0  0  0  0  0  0  0  0  0
  142.9444   79.0041  222.0883 H   0  0  0  0  0  0  0  0  0  0  0  0
  138.4420   68.5868  223.0734 H   0  0  0  0  0  0  0  0  0  0  0  0
  138.9945   67.4355  225.2263 H   0  0  0  0  0  0  0  0  0  0  0  0
  139.9397   67.5304  227.4845 H   0  0  0  0  0  0  0  0  0  0  0  0
  141.0312   68.7974  229.2949 H   0  0  0  0  0  0  0  0  0  0  0  0
  141.5782   71.1954  228.9970 H   0  0  0  0  0  0  0  0  0  0  0  0
  141.0099   72.3077  226.8314 H   0  0  0  0  0  0  0  0  0  0  0  0
  1  2  2  0
  2  3  1  0
  3  4  1  0
  4  5  1  0
  5  6  2  0
  5  7  1  0
  7  8  1  0
  8  9  1  0
  9 10  1  0
 10 11  1  0
 11 12  1  0
 12 13  1  0
 13 14  2  0
 14 15  1  0
 15 16  2  0
 16 17  1  0
 17 18  1  0
 17 19  2  0
  2 20  1  0
 20 21  2  0
 21 22  1  0
 22 23  2  0
 23 24  1  0
 24 25  2  0
 25 26  1  0
 26 27  2  0
 27 28  1  0
 28 29  2  0
 11  7  1  0
 19 13  1  0
 29 20  1  0
 28 23  1  0
  3 30  1  0
  4 31  1  0
  4 32  1  0
  8 33  1  0
  8 34  1  0
  9 35  1  0
  9 36  1  0
 10 37  1  0
 10 38  1  0
 11 39  1  6
 12 40  1  0
 12 41  1  0
 14 42  1  0
 15 43  1  0
 16 44  1  0
 19 45  1  0
 21 46  1  0
 22 47  1  0
 24 48  1  0
 25 49  1  0
 26 50  1  0
 27 51  1  0
M  END
>  <smiles>  (27) 
O=C(NCC(=O)N1CCCC1Cc1cccc(Cl)c1)c1ccc2ccccc2n1

>  <score_type>  (27) 
oracle

>  <origin>  (27) 
autodockgpu

>  <m_score__min__energy>  (27) 
-9.2899999999999991

>  <m_primary>  (27) 
energy

>  <rmsd>  (27) 
0.9315125986796022

>  <m_score__min__rmsd>  (27) 
0.9315125986796022

>  <meeko>  (27) 
{"free_energy": -8.57, "intermolecular_energy": -10.36, "internal_energy": -2.12, "cluster_size": 39, "cluster_id": 1, "rank_in_cluster": 32}

>  <energy>  (27) 
-8.69

>  <cluster_rmsd>  (27) 
0.54

>  <cluster>  (27) 
1

$$$$

     RDKit          3D

 51 54  0  0  0  0  0  0  0  0999 V2000
  139.0710   74.9410  221.6180 O   0  0  0  0  0  0  0  0  0  0  0  0
  140.1770   75.5290  221.7700 C   0  0  0  0  0  0  0  0  0  0  0  0
  141.3780   74.8750  221.4480 N   0  0  0  0  0  0  0  0  0  0  0  0
  141.4450   73.5230  220.9330 C   0  0  0  0  0  0  0  0  0  0  0  0
  140.7990   72.6110  221.9020 C   0  0  0  0  0  0  0  0  0  0  0  0
  140.6710   73.0080  223.0890 O   0  0  0  0  0  0  0  0  0  0  0  0
  140.3520   71.3330  221.4540 N   0  0  0  0  0  0  0  0  0  0  0  0
  140.7330   70.6600  220.2050 C   0  0  0  0  0  0  0  0  0  0  0  0
  139.5920   69.7180  219.8840 C   0  0  0  0  0  0  0  0  0  0  0  0
  138.5400   70.0350  220.9520 C   0  0  0  0  0  0  0  0  0  0  0  0
  139.4410   70.4120  222.1000 C   0  0  2  0  0  0  0  0  0  0  0  0
  138.6720   71.0350  223.2440 C   0  0  0  0  0  0  0  0  0  0  0  0
  139.3180   70.4910  224.4890 C   0  0  0  0  0  0  0  0  0  0  0  0
  139.3820   69.1160  224.6250 C   0  0  0  0  0  0  0  0  0  0  0  0
  139.9800   68.6090  225.7800 C   0  0  0  0  0  0  0  0  0  0  0  0
  140.4910   69.4360  226.7520 C   0  0  0  0  0  0  0  0  0  0  0  0
  140.4090   70.8240  226.5830 C   0  0  0  0  0  0  0  0  0  0  0  0
  141.0700   71.8610  227.8400 Cl  0  0  0  0  0  0  0  0  0  0  0  0
  139.8180   71.3600  225.4420 C   0  0  0  0  0  0  0  0  0  0  0  0
  140.2070   76.9090  222.2880 C   0  0  0  0  0  0  0  0  0  0  0  0
  139.0320   77.5500  222.6260 C   0  0  0  0  0  0  0  0  0  0  0  0
  139.1250   78.8520  223.1090 C   0  0  0  0  0  0  0  0  0  0  0  0
  140.3460   79.4740  223.2430 C   0  0  0  0  0  0  0  0  0  0  0  0
  140.4800   80.7660  223.7200 C   0  0  0  0  0  0  0  0  0  0  0  0
  141.7190   81.3720  223.8470 C   0  0  0  0  0  0  0  0  0  0  0  0
  142.8610   80.7000  223.4990 C   0  0  0  0  0  0  0  0  0  0  0  0
  142.7480   79.3990  223.0180 C   0  0  0  0  0  0  0  0  0  0  0  0
  141.4950   78.7940  222.8930 C   0  0  0  0  0  0  0  0  0  0  0  0
  141.3890   77.5420  222.4290 N   0  0  0  0  0  0  0  0  0  0  0  0
  142.2720   75.4190  221.5960 H   0  0  0  0  0  0  0  0  0  0  0  0
  140.9203   73.4687  219.9677 H   0  0  0  0  0  0  0  0  0  0  0  0
  142.4953   73.2303  220.7873 H   0  0  0  0  0  0  0  0  0  0  0  0
  140.8626   71.3952  219.3971 H   0  0  0  0  0  0  0  0  0  0  0  0
  141.6872   70.1225  220.3076 H   0  0  0  0  0  0  0  0  0  0  0  0
  139.1967   69.9115  218.8759 H   0  0  0  0  0  0  0  0  0  0  0  0
  139.8992   68.6618  219.8918 H   0  0  0  0  0  0  0  0  0  0  0  0
  137.8908   70.8703  220.6508 H   0  0  0  0  0  0  0  0  0  0  0  0
  137.8340   69.2187  221.1648 H   0  0  0  0  0  0  0  0  0  0  0  0
  139.9485   69.5627  222.5807 H   0  0  0  0  0  0  0  0  0  0  0  0
  138.7541   72.1315  223.2133 H   0  0  0  0  0  0  0  0  0  0  0  0
  137.5988   70.7982  223.1980 H   0  0  0  0  0  0  0  0  0  0  0  0
  138.9767   68.4468  223.8517 H   0  0  0  0  0  0  0  0  0  0  0  0
  140.0440   67.5193  225.9159 H   0  0  0  0  0  0  0  0  0  0  0  0
  140.9592   69.0123  227.6527 H   0  0  0  0  0  0  0  0  0  0  0  0
  139.7503   72.4489  225.3017 H   0  0  0  0  0  0  0  0  0  0  0  0
  138.0581   77.0502  222.5176 H   0  0  0  0  0  0  0  0  0  0  0  0
  138.2086   79.3926  223.3881 H   0  0  0  0  0  0  0  0  0  0  0  0
  139.5781   81.3270  224.0061 H   0  0  0  0  0  0  0  0  0  0  0  0
  141.7866   82.4009  224.2303 H   0  0  0  0  0  0  0  0  0  0  0  0
  143.8465   81.1787  223.5977 H   0  0  0  0  0  0  0  0  0  0  0  0
  143.6531   78.8422  222.7338 H   0  0  0  0  0  0  0  0  0  0  0  0
  1  2  2  0
  2  3  1  0
  3  4  1  0
  4  5  1  0
  5  6  2  0
  5  7  1  0
  7  8  1  0
  8  9  1  0
  9 10  1  0
 10 11  1  0
 11 12  1  0
 12 13  1  0
 13 14  2  0
 14 15  1  0
 15 16  2  0
 16 17  1  0
 17 18  1  0
 17 19  2  0
  2 20  1  0
 20 21  2  0
 21 22  1  0
 22 23  2  0
 23 24  1  0
 24 25  2  0
 25 26  1  0
 26 27  2  0
 27 28  1  0
 28 29  2  0
 11  7  1  0
 19 13  1  0
 29 20  1  0
 28 23  1  0
  3 30  1  0
  4 31  1  0
  4 32  1  0
  8 33  1  0
  8 34  1  0
  9 35  1  0
  9 36  1  0
 10 37  1  0
 10 38  1  0
 11 39  1  1
 12 40  1  0
 12 41  1  0
 14 42  1  0
 15 43  1  0
 16 44  1  0
 19 45  1  0
 21 46  1  0
 22 47  1  0
 24 48  1  0
 25 49  1  0
 26 50  1  0
 27 51  1  0
M  END
>  <smiles>  (28) 
O=C(NCC(=O)N1CCCC1Cc1cccc(Cl)c1)c1ccc2ccccc2n1

>  <score_type>  (28) 
oracle

>  <origin>  (28) 
autodockgpu

>  <m_score__min__energy>  (28) 
-9.2899999999999991

>  <m_primary>  (28) 
energy

>  <rmsd>  (28) 
7.9262226177811055

>  <m_score__min__rmsd>  (28) 
7.9262226177811055

>  <meeko>  (28) 
{"free_energy": -8.83, "intermolecular_energy": -10.62, "internal_energy": -1.77, "cluster_size": 4, "cluster_id": 3, "rank_in_cluster": 2}

>  <energy>  (28) 
-8.68

>  <cluster_rmsd>  (28) 
1.57

>  <cluster>  (28) 
1

$$$$

     RDKit          3D

 51 54  0  0  0  0  0  0  0  0999 V2000
  139.9920   71.0830  221.2480 O   0  0  0  0  0  0  0  0  0  0  0  0
  139.8580   71.6890  222.3450 C   0  0  0  0  0  0  0  0  0  0  0  0
  139.6620   73.0800  222.3680 N   0  0  0  0  0  0  0  0  0  0  0  0
  139.5990   73.9030  221.1790 C   0  0  0  0  0  0  0  0  0  0  0  0
  139.7540   75.3210  221.5710 C   0  0  0  0  0  0  0  0  0  0  0  0
  139.3650   75.6590  222.7190 O   0  0  0  0  0  0  0  0  0  0  0  0
  140.3330   76.2350  220.6420 N   0  0  0  0  0  0  0  0  0  0  0  0
  140.4000   76.0760  219.1830 C   0  0  0  0  0  0  0  0  0  0  0  0
  141.5870   76.9030  218.7360 C   0  0  0  0  0  0  0  0  0  0  0  0
  142.2140   77.3880  220.0480 C   0  0  0  0  0  0  0  0  0  0  0  0
  140.9760   77.5060  220.8990 C   0  0  2  0  0  0  0  0  0  0  0  0
  141.3080   77.7240  222.3580 C   0  0  0  0  0  0  0  0  0  0  0  0
  141.4670   79.2130  222.5040 C   0  0  0  0  0  0  0  0  0  0  0  0
  142.0360   79.6810  223.6730 C   0  0  0  0  0  0  0  0  0  0  0  0
  142.1840   81.0620  223.8110 C   0  0  0  0  0  0  0  0  0  0  0  0
  141.7830   81.9330  222.8260 C   0  0  0  0  0  0  0  0  0  0  0  0
  141.2090   81.4250  221.6540 C   0  0  0  0  0  0  0  0  0  0  0  0
  140.7030   82.5600  220.4090 Cl  0  0  0  0  0  0  0  0  0  0  0  0
  141.0480   80.0520  221.4870 C   0  0  0  0  0  0  0  0  0  0  0  0
  139.9070   70.9320  223.6100 C   0  0  0  0  0  0  0  0  0  0  0  0
  139.4920   69.6160  223.6480 C   0  0  0  0  0  0  0  0  0  0  0  0
  139.5620   68.9540  224.8710 C   0  0  0  0  0  0  0  0  0  0  0  0
  140.0290   69.5930  225.9980 C   0  0  0  0  0  0  0  0  0  0  0  0
  140.1140   68.9700  227.2310 C   0  0  0  0  0  0  0  0  0  0  0  0
  140.5870   69.6320  228.3510 C   0  0  0  0  0  0  0  0  0  0  0  0
  140.9900   70.9390  228.2700 C   0  0  0  0  0  0  0  0  0  0  0  0
  140.9120   71.5840  227.0380 C   0  0  0  0  0  0  0  0  0  0  0  0
  140.4340   70.9100  225.9130 C   0  0  0  0  0  0  0  0  0  0  0  0
  140.3600   71.5330  224.7290 N   0  0  0  0  0  0  0  0  0  0  0  0
  139.5560   73.5310  223.3190 H   0  0  0  0  0  0  0  0  0  0  0  0
  140.4082   73.6195  220.4900 H   0  0  0  0  0  0  0  0  0  0  0  0
  138.6317   73.7583  220.6756 H   0  0  0  0  0  0  0  0  0  0  0  0
  140.5477   75.0185  218.9186 H   0  0  0  0  0  0  0  0  0  0  0  0
  139.4699   76.4032  218.6953 H   0  0  0  0  0  0  0  0  0  0  0  0
  142.2992   76.2888  218.1655 H   0  0  0  0  0  0  0  0  0  0  0  0
  141.3005   77.7313  218.0713 H   0  0  0  0  0  0  0  0  0  0  0  0
  142.9232   76.6538  220.4579 H   0  0  0  0  0  0  0  0  0  0  0  0
  142.8098   78.3089  219.9652 H   0  0  0  0  0  0  0  0  0  0  0  0
  140.3400   78.3716  220.6618 H   0  0  0  0  0  0  0  0  0  0  0  0
  140.4924   77.3578  222.9988 H   0  0  0  0  0  0  0  0  0  0  0  0
  142.2152   77.1804  222.6606 H   0  0  0  0  0  0  0  0  0  0  0  0
  142.3603   78.9907  224.4656 H   0  0  0  0  0  0  0  0  0  0  0  0
  142.6330   81.4636  224.7314 H   0  0  0  0  0  0  0  0  0  0  0  0
  141.9116   83.0176  222.9570 H   0  0  0  0  0  0  0  0  0  0  0  0
  140.5988   79.6446  220.5692 H   0  0  0  0  0  0  0  0  0  0  0  0
  139.1198   69.1090  222.7455 H   0  0  0  0  0  0  0  0  0  0  0  0
  139.2393   67.9045  224.9380 H   0  0  0  0  0  0  0  0  0  0  0  0
  139.7972   67.9207  227.3235 H   0  0  0  0  0  0  0  0  0  0  0  0
  140.6398   69.1040  229.3146 H   0  0  0  0  0  0  0  0  0  0  0  0
  141.3668   71.4672  229.1583 H   0  0  0  0  0  0  0  0  0  0  0  0
  141.2298   72.6335  226.9508 H   0  0  0  0  0  0  0  0  0  0  0  0
  1  2  2  0
  2  3  1  0
  3  4  1  0
  4  5  1  0
  5  6  2  0
  5  7  1  0
  7  8  1  0
  8  9  1  0
  9 10  1  0
 10 11  1  0
 11 12  1  0
 12 13  1  0
 13 14  2  0
 14 15  1  0
 15 16  2  0
 16 17  1  0
 17 18  1  0
 17 19  2  0
  2 20  1  0
 20 21  2  0
 21 22  1  0
 22 23  2  0
 23 24  1  0
 24 25  2  0
 25 26  1  0
 26 27  2  0
 27 28  1  0
 28 29  2  0
 11  7  1  0
 19 13  1  0
 29 20  1  0
 28 23  1  0
  3 30  1  0
  4 31  1  0
  4 32  1  0
  8 33  1  0
  8 34  1  0
  9 35  1  0
  9 36  1  0
 10 37  1  0
 10 38  1  0
 11 39  1  6
 12 40  1  0
 12 41  1  0
 14 42  1  0
 15 43  1  0
 16 44  1  0
 19 45  1  0
 21 46  1  0
 22 47  1  0
 24 48  1  0
 25 49  1  0
 26 50  1  0
 27 51  1  0
M  END
>  <smiles>  (29) 
O=C(NCC(=O)N1CCCC1Cc1cccc(Cl)c1)c1ccc2ccccc2n1

>  <score_type>  (29) 
oracle

>  <origin>  (29) 
autodockgpu

>  <m_score__min__energy>  (29) 
-9.2899999999999991

>  <m_primary>  (29) 
energy

>  <rmsd>  (29) 
1.5203520818508611

>  <m_score__min__rmsd>  (29) 
1.5203520818508611

>  <meeko>  (29) 
{"free_energy": -9.07, "intermolecular_energy": -10.86, "internal_energy": -2.0, "cluster_size": 39, "cluster_id": 1, "rank_in_cluster": 7}

>  <energy>  (29) 
-8.66

>  <cluster_rmsd>  (29) 
1.67

>  <cluster>  (29) 
1

$$$$

     RDKit          3D

 51 54  0  0  0  0  0  0  0  0999 V2000
  141.2630   71.4460  221.3860 O   0  0  0  0  0  0  0  0  0  0  0  0
  140.5980   72.0420  222.2770 C   0  0  0  0  0  0  0  0  0  0  0  0
  140.1480   73.3560  222.0660 N   0  0  0  0  0  0  0  0  0  0  0  0
  140.3980   74.1070  220.8540 C   0  0  0  0  0  0  0  0  0  0  0  0
  139.2710   75.0380  220.6290 C   0  0  0  0  0  0  0  0  0  0  0  0
  138.7270   75.0380  219.4940 O   0  0  0  0  0  0  0  0  0  0  0  0
  138.8520   75.8870  221.6950 N   0  0  0  0  0  0  0  0  0  0  0  0
  137.5410   75.8800  222.3580 C   0  0  0  0  0  0  0  0  0  0  0  0
  137.3580   77.2740  222.9170 C   0  0  0  0  0  0  0  0  0  0  0  0
  138.5760   78.0450  222.3950 C   0  0  0  0  0  0  0  0  0  0  0  0
  139.5930   76.9330  222.3670 C   0  0  2  0  0  0  0  0  0  0  0  0
  140.8550   77.3360  221.6380 C   0  0  0  0  0  0  0  0  0  0  0  0
  141.2490   78.6570  222.2400 C   0  0  0  0  0  0  0  0  0  0  0  0
  141.8230   78.6370  223.4980 C   0  0  0  0  0  0  0  0  0  0  0  0
  142.1890   79.8610  224.0600 C   0  0  0  0  0  0  0  0  0  0  0  0
  141.9910   81.0480  223.3950 C   0  0  0  0  0  0  0  0  0  0  0  0
  141.4070   81.0330  222.1230 C   0  0  0  0  0  0  0  0  0  0  0  0
  141.1640   82.5650  221.2940 Cl  0  0  0  0  0  0  0  0  0  0  0  0
  141.0300   79.8270  221.5360 C   0  0  0  0  0  0  0  0  0  0  0  0
  140.2940   71.3540  223.5450 C   0  0  0  0  0  0  0  0  0  0  0  0
  139.5520   70.1890  223.5430 C   0  0  0  0  0  0  0  0  0  0  0  0
  139.2970   69.5870  224.7720 C   0  0  0  0  0  0  0  0  0  0  0  0
  139.7700   70.1340  225.9430 C   0  0  0  0  0  0  0  0  0  0  0  0
  139.5390   69.5660  227.1830 C   0  0  0  0  0  0  0  0  0  0  0  0
  140.0240   70.1340  228.3490 C   0  0  0  0  0  0  0  0  0  0  0  0
  140.7570   71.2910  228.3060 C   0  0  0  0  0  0  0  0  0  0  0  0
  141.0010   71.8800  227.0680 C   0  0  0  0  0  0  0  0  0  0  0  0
  140.5080   71.3000  225.8970 C   0  0  0  0  0  0  0  0  0  0  0  0
  140.7440   71.8690  224.7070 N   0  0  0  0  0  0  0  0  0  0  0  0
  139.5950   73.8020  222.8500 H   0  0  0  0  0  0  0  0  0  0  0  0
  141.3331   74.6769  220.9585 H   0  0  0  0  0  0  0  0  0  0  0  0
  140.4906   73.4192  220.0006 H   0  0  0  0  0  0  0  0  0  0  0  0
  136.7460   75.6498  221.6335 H   0  0  0  0  0  0  0  0  0  0  0  0
  137.4891   75.1157  223.1474 H   0  0  0  0  0  0  0  0  0  0  0  0
  136.4237   77.7233  222.5493 H   0  0  0  0  0  0  0  0  0  0  0  0
  137.2886   77.2845  224.0148 H   0  0  0  0  0  0  0  0  0  0  0  0
  138.3975   78.4611  221.3925 H   0  0  0  0  0  0  0  0  0  0  0  0
  138.8626   78.9218  222.9943 H   0  0  0  0  0  0  0  0  0  0  0  0
  139.9685   76.6327  223.3564 H   0  0  0  0  0  0  0  0  0  0  0  0
  141.6469   76.5886  221.7942 H   0  0  0  0  0  0  0  0  0  0  0  0
  140.6988   77.4078  220.5515 H   0  0  0  0  0  0  0  0  0  0  0  0
  141.9851   77.6913  224.0359 H   0  0  0  0  0  0  0  0  0  0  0  0
  142.6473   79.8764  225.0599 H   0  0  0  0  0  0  0  0  0  0  0  0
  142.2887   82.0003  223.8581 H   0  0  0  0  0  0  0  0  0  0  0  0
  140.5695   79.8060  220.5372 H   0  0  0  0  0  0  0  0  0  0  0  0
  139.1766   69.7532  222.6054 H   0  0  0  0  0  0  0  0  0  0  0  0
  138.7077   68.6588  224.8078 H   0  0  0  0  0  0  0  0  0  0  0  0
  138.9535   68.6368  227.2445 H   0  0  0  0  0  0  0  0  0  0  0  0
  139.8194   69.6530  229.3168 H   0  0  0  0  0  0  0  0  0  0  0  0
  141.1445   71.7449  229.2300 H   0  0  0  0  0  0  0  0  0  0  0  0
  141.5867   72.8094  227.0119 H   0  0  0  0  0  0  0  0  0  0  0  0
  1  2  2  0
  2  3  1  0
  3  4  1  0
  4  5  1  0
  5  6  2  0
  5  7  1  0
  7  8  1  0
  8  9  1  0
  9 10  1  0
 10 11  1  0
 11 12  1  0
 12 13  1  0
 13 14  2  0
 14 15  1  0
 15 16  2  0
 16 17  1  0
 17 18  1  0
 17 19  2  0
  2 20  1  0
 20 21  2  0
 21 22  1  0
 22 23  2  0
 23 24  1  0
 24 25  2  0
 25 26  1  0
 26 27  2  0
 27 28  1  0
 28 29  2  0
 11  7  1  0
 19 13  1  0
 29 20  1  0
 28 23  1  0
  3 30  1  0
  4 31  1  0
  4 32  1  0
  8 33  1  0
  8 34  1  0
  9 35  1  0
  9 36  1  0
 10 37  1  0
 10 38  1  0
 11 39  1  1
 12 40  1  0
 12 41  1  0
 14 42  1  0
 15 43  1  0
 16 44  1  0
 19 45  1  0
 21 46  1  0
 22 47  1  0
 24 48  1  0
 25 49  1  0
 26 50  1  0
 27 51  1  0
M  END
>  <smiles>  (30) 
O=C(NCC(=O)N1CCCC1Cc1cccc(Cl)c1)c1ccc2ccccc2n1

>  <score_type>  (30) 
oracle

>  <origin>  (30) 
autodockgpu

>  <m_score__min__energy>  (30) 
-9.2899999999999991

>  <m_primary>  (30) 
energy

>  <rmsd>  (30) 
2.9594732164897914

>  <m_score__min__rmsd>  (30) 
2.9594732164897914

>  <meeko>  (30) 
{"free_energy": -8.93, "intermolecular_energy": -10.72, "internal_energy": -1.41, "cluster_size": 39, "cluster_id": 1, "rank_in_cluster": 12}

>  <energy>  (30) 
-8.65

>  <cluster_rmsd>  (30) 
1.55

>  <cluster>  (30) 
1

$$$$

     RDKit          3D

 51 54  0  0  0  0  0  0  0  0999 V2000
  139.6750   70.6540  221.3540 O   0  0  0  0  0  0  0  0  0  0  0  0
  139.6940   71.2770  222.4500 C   0  0  0  0  0  0  0  0  0  0  0  0
  139.6860   72.6820  222.4660 N   0  0  0  0  0  0  0  0  0  0  0  0
  139.6540   73.5010  221.2720 C   0  0  0  0  0  0  0  0  0  0  0  0
  140.2070   74.8340  221.5930 C   0  0  0  0  0  0  0  0  0  0  0  0
  139.9090   75.3430  222.7050 O   0  0  0  0  0  0  0  0  0  0  0  0
  141.0460   75.4810  220.6390 N   0  0  0  0  0  0  0  0  0  0  0  0
  142.3360   74.9920  220.1330 C   0  0  0  0  0  0  0  0  0  0  0  0
  143.0950   76.2250  219.6890 C   0  0  0  0  0  0  0  0  0  0  0  0
  142.1930   77.3880  220.1170 C   0  0  0  0  0  0  0  0  0  0  0  0
  140.8420   76.7400  219.9560 C   0  0  2  0  0  0  0  0  0  0  0  0
  139.7360   77.5760  220.5600 C   0  0  0  0  0  0  0  0  0  0  0  0
  140.4280   78.5040  221.5200 C   0  0  0  0  0  0  0  0  0  0  0  0
  140.8930   77.9630  222.7050 C   0  0  0  0  0  0  0  0  0  0  0  0
  141.5360   78.8220  223.5980 C   0  0  0  0  0  0  0  0  0  0  0  0
  141.7060   80.1570  223.3200 C   0  0  0  0  0  0  0  0  0  0  0  0
  141.2230   80.6730  222.1110 C   0  0  0  0  0  0  0  0  0  0  0  0
  141.4540   82.3840  221.7790 Cl  0  0  0  0  0  0  0  0  0  0  0  0
  140.5770   79.8410  221.2000 C   0  0  0  0  0  0  0  0  0  0  0  0
  139.7260   70.5270  223.7190 C   0  0  0  0  0  0  0  0  0  0  0  0
  139.2080   69.2490  223.7840 C   0  0  0  0  0  0  0  0  0  0  0  0
  139.2670   68.5920  225.0090 C   0  0  0  0  0  0  0  0  0  0  0  0
  139.8230   69.1970  226.1130 C   0  0  0  0  0  0  0  0  0  0  0  0
  139.9010   68.5780  227.3480 C   0  0  0  0  0  0  0  0  0  0  0  0
  140.4640   69.2060  228.4460 C   0  0  0  0  0  0  0  0  0  0  0  0
  140.9680   70.4760  228.3380 C   0  0  0  0  0  0  0  0  0  0  0  0
  140.8990   71.1170  227.1050 C   0  0  0  0  0  0  0  0  0  0  0  0
  140.3290   70.4770  226.0020 C   0  0  0  0  0  0  0  0  0  0  0  0
  140.2650   71.0960  224.8160 N   0  0  0  0  0  0  0  0  0  0  0  0
  139.7020   73.1490  223.4160 H   0  0  0  0  0  0  0  0  0  0  0  0
  140.2597   73.0295  220.4841 H   0  0  0  0  0  0  0  0  0  0  0  0
  138.6181   73.6022  220.9161 H   0  0  0  0  0  0  0  0  0  0  0  0
  142.8865   74.4683  220.9284 H   0  0  0  0  0  0  0  0  0  0  0  0
  142.2041   74.2769  219.3076 H   0  0  0  0  0  0  0  0  0  0  0  0
  144.0729   76.2837  220.1892 H   0  0  0  0  0  0  0  0  0  0  0  0
  143.3059   76.2271  218.6094 H   0  0  0  0  0  0  0  0  0  0  0  0
  142.3805   77.6889  221.1583 H   0  0  0  0  0  0  0  0  0  0  0  0
  142.3328   78.3184  219.5471 H   0  0  0  0  0  0  0  0  0  0  0  0
  140.5155   76.6199  218.9125 H   0  0  0  0  0  0  0  0  0  0  0  0
  139.2132   78.1476  219.7790 H   0  0  0  0  0  0  0  0  0  0  0  0
  138.9764   76.9568  221.0596 H   0  0  0  0  0  0  0  0  0  0  0  0
  140.7611   76.8955  222.9352 H   0  0  0  0  0  0  0  0  0  0  0  0
  141.9163   78.4199  224.5486 H   0  0  0  0  0  0  0  0  0  0  0  0
  142.2163   80.8137  224.0399 H   0  0  0  0  0  0  0  0  0  0  0  0
  140.1943   80.2381  220.2482 H   0  0  0  0  0  0  0  0  0  0  0  0
  138.7648   68.7678  222.8997 H   0  0  0  0  0  0  0  0  0  0  0  0
  138.8628   67.5727  225.0965 H   0  0  0  0  0  0  0  0  0  0  0  0
  139.5045   67.5581  227.4607 H   0  0  0  0  0  0  0  0  0  0  0  0
  140.5071   68.6818  229.4121 H   0  0  0  0  0  0  0  0  0  0  0  0
  141.4175   70.9778  229.2076 H   0  0  0  0  0  0  0  0  0  0  0  0
  141.2969   72.1369  226.9979 H   0  0  0  0  0  0  0  0  0  0  0  0
  1  2  2  0
  2  3  1  0
  3  4  1  0
  4  5  1  0
  5  6  2  0
  5  7  1  0
  7  8  1  0
  8  9  1  0
  9 10  1  0
 10 11  1  0
 11 12  1  0
 12 13  1  0
 13 14  2  0
 14 15  1  0
 15 16  2  0
 16 17  1  0
 17 18  1  0
 17 19  2  0
  2 20  1  0
 20 21  2  0
 21 22  1  0
 22 23  2  0
 23 24  1  0
 24 25  2  0
 25 26  1  0
 26 27  2  0
 27 28  1  0
 28 29  2  0
 11  7  1  0
 19 13  1  0
 29 20  1  0
 28 23  1  0
  3 30  1  0
  4 31  1  0
  4 32  1  0
  8 33  1  0
  8 34  1  0
  9 35  1  0
  9 36  1  0
 10 37  1  0
 10 38  1  0
 11 39  1  6
 12 40  1  0
 12 41  1  0
 14 42  1  0
 15 43  1  0
 16 44  1  0
 19 45  1  0
 21 46  1  0
 22 47  1  0
 24 48  1  0
 25 49  1  0
 26 50  1  0
 27 51  1  0
M  END
>  <smiles>  (31) 
O=C(NCC(=O)N1CCCC1Cc1cccc(Cl)c1)c1ccc2ccccc2n1

>  <score_type>  (31) 
oracle

>  <origin>  (31) 
autodockgpu

>  <m_score__min__energy>  (31) 
-9.2899999999999991

>  <m_primary>  (31) 
energy

>  <rmsd>  (31) 
1.9390067383513452

>  <m_score__min__rmsd>  (31) 
1.9390067383513452

>  <meeko>  (31) 
{"free_energy": -8.87, "intermolecular_energy": -10.66, "internal_energy": -1.84, "cluster_size": 39, "cluster_id": 1, "rank_in_cluster": 17}

>  <energy>  (31) 
-8.6

>  <cluster_rmsd>  (31) 
1.62

>  <cluster>  (31) 
1

$$$$

     RDKit          3D

 51 54  0  0  0  0  0  0  0  0999 V2000
  139.6790   70.8400  221.2560 O   0  0  0  0  0  0  0  0  0  0  0  0
  139.6700   71.4750  222.3450 C   0  0  0  0  0  0  0  0  0  0  0  0
  139.6250   72.8790  222.3480 N   0  0  0  0  0  0  0  0  0  0  0  0
  139.5850   73.6850  221.1460 C   0  0  0  0  0  0  0  0  0  0  0  0
  140.4140   74.8930  221.3540 C   0  0  0  0  0  0  0  0  0  0  0  0
  140.1540   75.6200  222.3480 O   0  0  0  0  0  0  0  0  0  0  0  0
  141.4610   75.1790  220.4300 N   0  0  0  0  0  0  0  0  0  0  0  0
  142.7690   74.5130  220.3540 C   0  0  0  0  0  0  0  0  0  0  0  0
  143.7020   75.5190  219.7130 C   0  0  0  0  0  0  0  0  0  0  0  0
  142.8490   76.7860  219.5860 C   0  0  0  0  0  0  0  0  0  0  0  0
  141.4930   76.1640  219.3710 C   0  0  2  0  0  0  0  0  0  0  0  0
  140.3800   77.1840  219.4680 C   0  0  0  0  0  0  0  0  0  0  0  0
  140.9640   78.3250  220.2550 C   0  0  0  0  0  0  0  0  0  0  0  0
  141.3660   79.4450  219.5500 C   0  0  0  0  0  0  0  0  0  0  0  0
  141.9090   80.5050  220.2780 C   0  0  0  0  0  0  0  0  0  0  0  0
  142.0430   80.4490  221.6450 C   0  0  0  0  0  0  0  0  0  0  0  0
  141.6270   79.3000  222.3280 C   0  0  0  0  0  0  0  0  0  0  0  0
  141.8090   79.2520  224.0760 Cl  0  0  0  0  0  0  0  0  0  0  0  0
  141.0820   78.2250  221.6300 C   0  0  0  0  0  0  0  0  0  0  0  0
  139.7060   70.7370  223.6220 C   0  0  0  0  0  0  0  0  0  0  0  0
  139.2050   69.4530  223.6970 C   0  0  0  0  0  0  0  0  0  0  0  0
  139.2680   68.8090  224.9290 C   0  0  0  0  0  0  0  0  0  0  0  0
  139.8110   69.4330  226.0300 C   0  0  0  0  0  0  0  0  0  0  0  0
  139.8930   68.8270  227.2710 C   0  0  0  0  0  0  0  0  0  0  0  0
  140.4430   69.4730  228.3650 C   0  0  0  0  0  0  0  0  0  0  0  0
  140.9300   70.7480  228.2470 C   0  0  0  0  0  0  0  0  0  0  0  0
  140.8580   71.3760  227.0070 C   0  0  0  0  0  0  0  0  0  0  0  0
  140.3010   70.7180  225.9080 C   0  0  0  0  0  0  0  0  0  0  0  0
  140.2330   71.3250  224.7160 N   0  0  0  0  0  0  0  0  0  0  0  0
  139.6190   73.3540  223.2930 H   0  0  0  0  0  0  0  0  0  0  0  0
  139.9816   73.1058  220.2991 H   0  0  0  0  0  0  0  0  0  0  0  0
  138.5475   73.9770  220.9262 H   0  0  0  0  0  0  0  0  0  0  0  0
  143.1237   74.2476  221.3608 H   0  0  0  0  0  0  0  0  0  0  0  0
  142.7172   73.5794  219.7746 H   0  0  0  0  0  0  0  0  0  0  0  0
  144.5795   75.7005  220.3510 H   0  0  0  0  0  0  0  0  0  0  0  0
  144.0961   75.1748  218.7454 H   0  0  0  0  0  0  0  0  0  0  0  0
  142.8796   77.3930  220.5029 H   0  0  0  0  0  0  0  0  0  0  0  0
  143.1695   77.4850  218.7994 H   0  0  0  0  0  0  0  0  0  0  0  0
  141.3419   75.7315  218.3709 H   0  0  0  0  0  0  0  0  0  0  0  0
  140.0763   77.5211  218.4659 H   0  0  0  0  0  0  0  0  0  0  0  0
  139.4808   76.7695  219.9472 H   0  0  0  0  0  0  0  0  0  0  0  0
  141.2617   79.4984  218.4563 H   0  0  0  0  0  0  0  0  0  0  0  0
  142.2382   81.4086  219.7440 H   0  0  0  0  0  0  0  0  0  0  0  0
  142.4727   81.2983  222.1965 H   0  0  0  0  0  0  0  0  0  0  0  0
  140.7533   77.3183  222.1591 H   0  0  0  0  0  0  0  0  0  0  0  0
  138.7720   68.9572  222.8157 H   0  0  0  0  0  0  0  0  0  0  0  0
  138.8778   67.7850  225.0249 H   0  0  0  0  0  0  0  0  0  0  0  0
  139.5103   67.8028  227.3919 H   0  0  0  0  0  0  0  0  0  0  0  0
  140.4893   68.9587  229.3363 H   0  0  0  0  0  0  0  0  0  0  0  0
  141.3685   71.2644  229.1136 H   0  0  0  0  0  0  0  0  0  0  0  0
  141.2433   72.3998  226.8914 H   0  0  0  0  0  0  0  0  0  0  0  0
  1  2  2  0
  2  3  1  0
  3  4  1  0
  4  5  1  0
  5  6  2  0
  5  7  1  0
  7  8  1  0
  8  9  1  0
  9 10  1  0
 10 11  1  0
 11 12  1  0
 12 13  1  0
 13 14  2  0
 14 15  1  0
 15 16  2  0
 16 17  1  0
 17 18  1  0
 17 19  2  0
  2 20  1  0
 20 21  2  0
 21 22  1  0
 22 23  2  0
 23 24  1  0
 24 25  2  0
 25 26  1  0
 26 27  2  0
 27 28  1  0
 28 29  2  0
 11  7  1  0
 19 13  1  0
 29 20  1  0
 28 23  1  0
  3 30  1  0
  4 31  1  0
  4 32  1  0
  8 33  1  0
  8 34  1  0
  9 35  1  0
  9 36  1  0
 10 37  1  0
 10 38  1  0
 11 39  1  6
 12 40  1  0
 12 41  1  0
 14 42  1  0
 15 43  1  0
 16 44  1  0
 19 45  1  0
 21 46  1  0
 22 47  1  0
 24 48  1  0
 25 49  1  0
 26 50  1  0
 27 51  1  0
M  END
>  <smiles>  (32) 
O=C(NCC(=O)N1CCCC1Cc1cccc(Cl)c1)c1ccc2ccccc2n1

>  <score_type>  (32) 
oracle

>  <origin>  (32) 
autodockgpu

>  <m_score__min__energy>  (32) 
-9.2899999999999991

>  <m_primary>  (32) 
energy

>  <rmsd>  (32) 
2.102236606385635

>  <m_score__min__rmsd>  (32) 
2.102236606385635

>  <meeko>  (32) 
{"free_energy": -8.82, "intermolecular_energy": -10.61, "internal_energy": -1.81, "cluster_size": 39, "cluster_id": 1, "rank_in_cluster": 19}

>  <energy>  (32) 
-8.57

>  <cluster_rmsd>  (32) 
1.67

>  <cluster>  (32) 
1

$$$$

     RDKit          3D

 51 54  0  0  0  0  0  0  0  0999 V2000
  140.7770   71.5290  221.2850 O   0  0  0  0  0  0  0  0  0  0  0  0
  140.3200   72.0950  222.3150 C   0  0  0  0  0  0  0  0  0  0  0  0
  139.9340   73.4450  222.2710 N   0  0  0  0  0  0  0  0  0  0  0  0
  140.0240   74.2690  221.0840 C   0  0  0  0  0  0  0  0  0  0  0  0
  139.8610   75.6860  221.4730 C   0  0  0  0  0  0  0  0  0  0  0  0
  139.8670   75.9630  222.7010 O   0  0  0  0  0  0  0  0  0  0  0  0
  139.7050   76.6690  220.4520 N   0  0  0  0  0  0  0  0  0  0  0  0
  138.6610   76.7000  219.4190 C   0  0  0  0  0  0  0  0  0  0  0  0
  139.2500   77.4870  218.2670 C   0  0  0  0  0  0  0  0  0  0  0  0
  140.6980   77.7440  218.6970 C   0  0  0  0  0  0  0  0  0  0  0  0
  140.5110   77.8420  220.1890 C   0  0  2  0  0  0  0  0  0  0  0  0
  141.8310   77.8380  220.9280 C   0  0  0  0  0  0  0  0  0  0  0  0
  141.8260   79.1030  221.7420 C   0  0  0  0  0  0  0  0  0  0  0  0
  142.2140   79.0100  223.0660 C   0  0  0  0  0  0  0  0  0  0  0  0
  142.2090   80.1820  223.8240 C   0  0  0  0  0  0  0  0  0  0  0  0
  141.8350   81.3900  223.2840 C   0  0  0  0  0  0  0  0  0  0  0  0
  141.4470   81.4490  221.9400 C   0  0  0  0  0  0  0  0  0  0  0  0
  140.9720   83.0050  221.2720 Cl  0  0  0  0  0  0  0  0  0  0  0  0
  141.4410   80.2960  221.1580 C   0  0  0  0  0  0  0  0  0  0  0  0
  140.1910   71.3330  223.5720 C   0  0  0  0  0  0  0  0  0  0  0  0
  139.5890   70.0910  223.5730 C   0  0  0  0  0  0  0  0  0  0  0  0
  139.4970   69.4210  224.7890 C   0  0  0  0  0  0  0  0  0  0  0  0
  139.9890   69.9810  225.9470 C   0  0  0  0  0  0  0  0  0  0  0  0
  139.9170   69.3480  227.1750 C   0  0  0  0  0  0  0  0  0  0  0  0
  140.4190   69.9300  228.3270 C   0  0  0  0  0  0  0  0  0  0  0  0
  141.0090   71.1650  228.2820 C   0  0  0  0  0  0  0  0  0  0  0  0
  141.0920   71.8190  227.0560 C   0  0  0  0  0  0  0  0  0  0  0  0
  140.5840   71.2260  225.8990 C   0  0  0  0  0  0  0  0  0  0  0  0
  140.6650   71.8580  224.7200 N   0  0  0  0  0  0  0  0  0  0  0  0
  139.5580   73.8630  223.1670 H   0  0  0  0  0  0  0  0  0  0  0  0
  141.0059   74.1268  220.6090 H   0  0  0  0  0  0  0  0  0  0  0  0
  139.2358   73.9845  220.3714 H   0  0  0  0  0  0  0  0  0  0  0  0
  138.4091   75.6788  219.0971 H   0  0  0  0  0  0  0  0  0  0  0  0
  137.7331   77.1581  219.7922 H   0  0  0  0  0  0  0  0  0  0  0  0
  139.2164   76.9021  217.3360 H   0  0  0  0  0  0  0  0  0  0  0  0
  138.6976   78.4159  218.0620 H   0  0  0  0  0  0  0  0  0  0  0  0
  141.3602   76.9099  218.4220 H   0  0  0  0  0  0  0  0  0  0  0  0
  141.1729   78.6194  218.2299 H   0  0  0  0  0  0  0  0  0  0  0  0
  140.0427   78.7772  220.5297 H   0  0  0  0  0  0  0  0  0  0  0  0
  141.9046   76.9573  221.5829 H   0  0  0  0  0  0  0  0  0  0  0  0
  142.6888   77.7925  220.2409 H   0  0  0  0  0  0  0  0  0  0  0  0
  142.5155   78.0478  223.5056 H   0  0  0  0  0  0  0  0  0  0  0  0
  142.5120   80.1381  224.8805 H   0  0  0  0  0  0  0  0  0  0  0  0
  141.8406   82.3004  223.9014 H   0  0  0  0  0  0  0  0  0  0  0  0
  141.1373   80.3337  220.1014 H   0  0  0  0  0  0  0  0  0  0  0  0
  139.1963   69.6471  222.6463 H   0  0  0  0  0  0  0  0  0  0  0  0
  139.0239   68.4286  224.8260 H   0  0  0  0  0  0  0  0  0  0  0  0
  139.4481   68.3550  227.2381 H   0  0  0  0  0  0  0  0  0  0  0  0
  140.3432   69.3961  229.2857 H   0  0  0  0  0  0  0  0  0  0  0  0
  141.4088   71.6302  229.1951 H   0  0  0  0  0  0  0  0  0  0  0  0
  141.5620   72.8118  226.9985 H   0  0  0  0  0  0  0  0  0  0  0  0
  1  2  2  0
  2  3  1  0
  3  4  1  0
  4  5  1  0
  5  6  2  0
  5  7  1  0
  7  8  1  0
  8  9  1  0
  9 10  1  0
 10 11  1  0
 11 12  1  0
 12 13  1  0
 13 14  2  0
 14 15  1  0
 15 16  2  0
 16 17  1  0
 17 18  1  0
 17 19  2  0
  2 20  1  0
 20 21  2  0
 21 22  1  0
 22 23  2  0
 23 24  1  0
 24 25  2  0
 25 26  1  0
 26 27  2  0
 27 28  1  0
 28 29  2  0
 11  7  1  0
 19 13  1  0
 29 20  1  0
 28 23  1  0
  3 30  1  0
  4 31  1  0
  4 32  1  0
  8 33  1  0
  8 34  1  0
  9 35  1  0
  9 36  1  0
 10 37  1  0
 10 38  1  0
 11 39  1  6
 12 40  1  0
 12 41  1  0
 14 42  1  0
 15 43  1  0
 16 44  1  0
 19 45  1  0
 21 46  1  0
 22 47  1  0
 24 48  1  0
 25 49  1  0
 26 50  1  0
 27 51  1  0
M  END
>  <smiles>  (33) 
O=C(NCC(=O)N1CCCC1Cc1cccc(Cl)c1)c1ccc2ccccc2n1

>  <score_type>  (33) 
oracle

>  <origin>  (33) 
autodockgpu

>  <m_score__min__energy>  (33) 
-9.2899999999999991

>  <m_primary>  (33) 
energy

>  <rmsd>  (33) 
1.546013455784395

>  <m_score__min__rmsd>  (33) 
1.546013455784395

>  <meeko>  (33) 
{"free_energy": -8.83, "intermolecular_energy": -10.62, "internal_energy": -2.03, "cluster_size": 39, "cluster_id": 1, "rank_in_cluster": 18}

>  <energy>  (33) 
-8.5

>  <cluster_rmsd>  (33) 
1.55

>  <cluster>  (33) 
1

$$$$

     RDKit          3D

 51 54  0  0  0  0  0  0  0  0999 V2000
  139.1940   71.0490  221.2640 O   0  0  0  0  0  0  0  0  0  0  0  0
  139.4450   71.6610  222.3370 C   0  0  0  0  0  0  0  0  0  0  0  0
  139.6160   73.0560  222.3340 N   0  0  0  0  0  0  0  0  0  0  0  0
  139.5210   73.8760  221.1450 C   0  0  0  0  0  0  0  0  0  0  0  0
  140.4830   74.9940  221.2580 C   0  0  0  0  0  0  0  0  0  0  0  0
  141.1120   75.1210  222.3410 O   0  0  0  0  0  0  0  0  0  0  0  0
  140.6550   75.8710  220.1480 N   0  0  0  0  0  0  0  0  0  0  0  0
  141.5680   75.6780  219.0120 C   0  0  0  0  0  0  0  0  0  0  0  0
  141.8590   77.0660  218.4810 C   0  0  0  0  0  0  0  0  0  0  0  0
  141.1630   77.9970  219.4810 C   0  0  0  0  0  0  0  0  0  0  0  0
  139.9950   77.1290  219.8730 C   0  0  2  0  0  0  0  0  0  0  0  0
  139.2490   77.6860  221.0650 C   0  0  0  0  0  0  0  0  0  0  0  0
  140.2570   78.5320  221.7950 C   0  0  0  0  0  0  0  0  0  0  0  0
  141.0700   77.8990  222.7170 C   0  0  0  0  0  0  0  0  0  0  0  0
  142.0060   78.6820  223.3960 C   0  0  0  0  0  0  0  0  0  0  0  0
  142.1230   80.0320  223.1640 C   0  0  0  0  0  0  0  0  0  0  0  0
  141.2830   80.6410  222.2240 C   0  0  0  0  0  0  0  0  0  0  0  0
  141.4510   82.3690  221.9450 Cl  0  0  0  0  0  0  0  0  0  0  0  0
  140.3390   79.8870  221.5300 C   0  0  0  0  0  0  0  0  0  0  0  0
  139.5590   70.9080  223.5990 C   0  0  0  0  0  0  0  0  0  0  0  0
  139.1040   69.6070  223.6760 C   0  0  0  0  0  0  0  0  0  0  0  0
  139.2390   68.9490  224.8950 C   0  0  0  0  0  0  0  0  0  0  0  0
  139.8070   69.5750  225.9810 C   0  0  0  0  0  0  0  0  0  0  0  0
  139.9590   68.9550  227.2090 C   0  0  0  0  0  0  0  0  0  0  0  0
  140.5330   69.6050  228.2880 C   0  0  0  0  0  0  0  0  0  0  0  0
  140.9720   70.8970  228.1700 C   0  0  0  0  0  0  0  0  0  0  0  0
  140.8280   71.5400  226.9430 C   0  0  0  0  0  0  0  0  0  0  0  0
  140.2480   70.8780  225.8590 C   0  0  0  0  0  0  0  0  0  0  0  0
  140.1110   71.4980  224.6800 N   0  0  0  0  0  0  0  0  0  0  0  0
  139.8230   73.5130  223.2660 H   0  0  0  0  0  0  0  0  0  0  0  0
  139.7605   73.2705  220.2584 H   0  0  0  0  0  0  0  0  0  0  0  0
  138.4993   74.2711  221.0445 H   0  0  0  0  0  0  0  0  0  0  0  0
  142.4970   75.1919  219.3446 H   0  0  0  0  0  0  0  0  0  0  0  0
  141.1249   75.0321  218.2397 H   0  0  0  0  0  0  0  0  0  0  0  0
  142.9421   77.2568  218.4572 H   0  0  0  0  0  0  0  0  0  0  0  0
  141.5032   77.2089  217.4500 H   0  0  0  0  0  0  0  0  0  0  0  0
  141.8079   78.2276  220.3418 H   0  0  0  0  0  0  0  0  0  0  0  0
  140.8934   78.9868  219.0840 H   0  0  0  0  0  0  0  0  0  0  0  0
  139.2087   77.0493  219.1079 H   0  0  0  0  0  0  0  0  0  0  0  0
  138.3964   78.2982  220.7359 H   0  0  0  0  0  0  0  0  0  0  0  0
  138.8376   76.8903  221.7035 H   0  0  0  0  0  0  0  0  0  0  0  0
  140.9828   76.8193  222.9085 H   0  0  0  0  0  0  0  0  0  0  0  0
  142.6668   78.2063  224.1356 H   0  0  0  0  0  0  0  0  0  0  0  0
  142.8687   80.6274  223.7112 H   0  0  0  0  0  0  0  0  0  0  0  0
  139.6754   80.3577  220.7897 H   0  0  0  0  0  0  0  0  0  0  0  0
  138.6514   69.1087  222.8060 H   0  0  0  0  0  0  0  0  0  0  0  0
  138.8859   67.9117  224.9920 H   0  0  0  0  0  0  0  0  0  0  0  0
  139.6143   67.9175  227.3309 H   0  0  0  0  0  0  0  0  0  0  0  0
  140.6375   69.0793  229.2486 H   0  0  0  0  0  0  0  0  0  0  0  0
  141.4285   71.4157  229.0259 H   0  0  0  0  0  0  0  0  0  0  0  0
  141.1740   72.5777  226.8269 H   0  0  0  0  0  0  0  0  0  0  0  0
  1  2  2  0
  2  3  1  0
  3  4  1  0
  4  5  1  0
  5  6  2  0
  5  7  1  0
  7  8  1  0
  8  9  1  0
  9 10  1  0
 10 11  1  0
 11 12  1  0
 12 13  1  0
 13 14  2  0
 14 15  1  0
 15 16  2  0
 16 17  1  0
 17 18  1  0
 17 19  2  0
  2 20  1  0
 20 21  2  0
 21 22  1  0
 22 23  2  0
 23 24  1  0
 24 25  2  0
 25 26  1  0
 26 27  2  0
 27 28  1  0
 28 29  2  0
 11  7  1  0
 19 13  1  0
 29 20  1  0
 28 23  1  0
  3 30  1  0
  4 31  1  0
  4 32  1  0
  8 33  1  0
  8 34  1  0
  9 35  1  0
  9 36  1  0
 10 37  1  0
 10 38  1  0
 11 39  1  6
 12 40  1  0
 12 41  1  0
 14 42  1  0
 15 43  1  0
 16 44  1  0
 19 45  1  0
 21 46  1  0
 22 47  1  0
 24 48  1  0
 25 49  1  0
 26 50  1  0
 27 51  1  0
M  END
>  <smiles>  (34) 
O=C(NCC(=O)N1CCCC1Cc1cccc(Cl)c1)c1ccc2ccccc2n1

>  <score_type>  (34) 
oracle

>  <origin>  (34) 
autodockgpu

>  <m_score__min__energy>  (34) 
-9.2899999999999991

>  <m_primary>  (34) 
energy

>  <rmsd>  (34) 
1.5395886809011006

>  <m_score__min__rmsd>  (34) 
1.5395886809011006

>  <meeko>  (34) 
{"free_energy": -8.33, "intermolecular_energy": -10.12, "internal_energy": -2.01, "cluster_size": 39, "cluster_id": 1, "rank_in_cluster": 38}

>  <energy>  (34) 
-8.44

>  <cluster_rmsd>  (34) 
1.65

>  <cluster>  (34) 
1

$$$$

     RDKit          3D

 51 54  0  0  0  0  0  0  0  0999 V2000
  140.0610   70.9970  221.2610 O   0  0  0  0  0  0  0  0  0  0  0  0
  139.9150   71.6000  222.3580 C   0  0  0  0  0  0  0  0  0  0  0  0
  139.7190   72.9910  222.3830 N   0  0  0  0  0  0  0  0  0  0  0  0
  139.6690   73.8180  221.1960 C   0  0  0  0  0  0  0  0  0  0  0  0
  139.6400   75.2390  221.6050 C   0  0  0  0  0  0  0  0  0  0  0  0
  139.0730   75.5260  222.6910 O   0  0  0  0  0  0  0  0  0  0  0  0
  140.2490   76.2130  220.7600 N   0  0  0  0  0  0  0  0  0  0  0  0
  140.4100   76.1300  219.3020 C   0  0  0  0  0  0  0  0  0  0  0  0
  141.5990   77.0070  218.9720 C   0  0  0  0  0  0  0  0  0  0  0  0
  142.1310   77.4400  220.3430 C   0  0  0  0  0  0  0  0  0  0  0  0
  140.8400   77.4840  221.1190 C   0  0  2  0  0  0  0  0  0  0  0  0
  141.0760   77.6360  222.6050 C   0  0  0  0  0  0  0  0  0  0  0  0
  141.4070   79.0900  222.8010 C   0  0  0  0  0  0  0  0  0  0  0  0
  142.2610   79.4150  223.8390 C   0  0  0  0  0  0  0  0  0  0  0  0
  142.5690   80.7640  224.0230 C   0  0  0  0  0  0  0  0  0  0  0  0
  142.0480   81.7410  223.2080 C   0  0  0  0  0  0  0  0  0  0  0  0
  141.1850   81.3780  222.1670 C   0  0  0  0  0  0  0  0  0  0  0  0
  140.5320   82.6460  221.1390 Cl  0  0  0  0  0  0  0  0  0  0  0  0
  140.8590   80.0400  221.9580 C   0  0  0  0  0  0  0  0  0  0  0  0
  139.9500   70.8390  223.6210 C   0  0  0  0  0  0  0  0  0  0  0  0
  139.5280   69.5250  223.6530 C   0  0  0  0  0  0  0  0  0  0  0  0
  139.5840   68.8600  224.8740 C   0  0  0  0  0  0  0  0  0  0  0  0
  140.0450   69.4920  226.0060 C   0  0  0  0  0  0  0  0  0  0  0  0
  140.1170   68.8660  227.2380 C   0  0  0  0  0  0  0  0  0  0  0  0
  140.5840   69.5220  228.3640 C   0  0  0  0  0  0  0  0  0  0  0  0
  140.9940   70.8270  228.2900 C   0  0  0  0  0  0  0  0  0  0  0  0
  140.9290   71.4760  227.0600 C   0  0  0  0  0  0  0  0  0  0  0  0
  140.4570   70.8080  225.9280 C   0  0  0  0  0  0  0  0  0  0  0  0
  140.3960   71.4340  224.7460 N   0  0  0  0  0  0  0  0  0  0  0  0
  139.6020   73.4390  223.3340 H   0  0  0  0  0  0  0  0  0  0  0  0
  140.5584   73.6298  220.5767 H   0  0  0  0  0  0  0  0  0  0  0  0
  138.7679   73.5790  220.6121 H   0  0  0  0  0  0  0  0  0  0  0  0
  140.6026   75.0912  218.9957 H   0  0  0  0  0  0  0  0  0  0  0  0
  139.5031   76.4589  218.7734 H   0  0  0  0  0  0  0  0  0  0  0  0
  142.3615   76.4400  218.4178 H   0  0  0  0  0  0  0  0  0  0  0  0
  141.3312   77.8609  218.3324 H   0  0  0  0  0  0  0  0  0  0  0  0
  142.8337   76.7036  220.7600 H   0  0  0  0  0  0  0  0  0  0  0  0
  142.7054   78.3781  220.3433 H   0  0  0  0  0  0  0  0  0  0  0  0
  140.1958   78.3444  220.8850 H   0  0  0  0  0  0  0  0  0  0  0  0
  140.1713   77.3661  223.1695 H   0  0  0  0  0  0  0  0  0  0  0  0
  141.8804   76.9775  222.9646 H   0  0  0  0  0  0  0  0  0  0  0  0
  142.6820   78.6392  224.4954 H   0  0  0  0  0  0  0  0  0  0  0  0
  143.2457   81.0527  224.8408 H   0  0  0  0  0  0  0  0  0  0  0  0
  142.3067   82.7975  223.3722 H   0  0  0  0  0  0  0  0  0  0  0  0
  140.1821   79.7459  221.1423 H   0  0  0  0  0  0  0  0  0  0  0  0
  139.1608   69.0220  222.7463 H   0  0  0  0  0  0  0  0  0  0  0  0
  139.2545   67.8123  224.9353 H   0  0  0  0  0  0  0  0  0  0  0  0
  139.7942   67.8180  227.3250 H   0  0  0  0  0  0  0  0  0  0  0  0
  140.6262   68.9909  229.3263 H   0  0  0  0  0  0  0  0  0  0  0  0
  141.3664   71.3506  229.1828 H   0  0  0  0  0  0  0  0  0  0  0  0
  141.2523   72.5243  226.9791 H   0  0  0  0  0  0  0  0  0  0  0  0
  1  2  2  0
  2  3  1  0
  3  4  1  0
  4  5  1  0
  5  6  2  0
  5  7  1  0
  7  8  1  0
  8  9  1  0
  9 10  1  0
 10 11  1  0
 11 12  1  0
 12 13  1  0
 13 14  2  0
 14 15  1  0
 15 16  2  0
 16 17  1  0
 17 18  1  0
 17 19  2  0
  2 20  1  0
 20 21  2  0
 21 22  1  0
 22 23  2  0
 23 24  1  0
 24 25  2  0
 25 26  1  0
 26 27  2  0
 27 28  1  0
 28 29  2  0
 11  7  1  0
 19 13  1  0
 29 20  1  0
 28 23  1  0
  3 30  1  0
  4 31  1  0
  4 32  1  0
  8 33  1  0
  8 34  1  0
  9 35  1  0
  9 36  1  0
 10 37  1  0
 10 38  1  0
 11 39  1  6
 12 40  1  0
 12 41  1  0
 14 42  1  0
 15 43  1  0
 16 44  1  0
 19 45  1  0
 21 46  1  0
 22 47  1  0
 24 48  1  0
 25 49  1  0
 26 50  1  0
 27 51  1  0
M  END
>  <smiles>  (35) 
O=C(NCC(=O)N1CCCC1Cc1cccc(Cl)c1)c1ccc2ccccc2n1

>  <score_type>  (35) 
oracle

>  <origin>  (35) 
autodockgpu

>  <m_score__min__energy>  (35) 
-9.2899999999999991

>  <m_primary>  (35) 
energy

>  <rmsd>  (35) 
1.600687605601008

>  <m_score__min__rmsd>  (35) 
1.600687605601008

>  <meeko>  (35) 
{"free_energy": -9.15, "intermolecular_energy": -10.94, "internal_energy": -1.99, "cluster_size": 39, "cluster_id": 1, "rank_in_cluster": 4}

>  <energy>  (35) 
-8.44

>  <cluster_rmsd>  (35) 
1.71

>  <cluster>  (35) 
1

$$$$

     RDKit          3D

 51 54  0  0  0  0  0  0  0  0999 V2000
  137.5860   75.7720  222.0620 O   0  0  0  0  0  0  0  0  0  0  0  0
  138.8250   76.0060  222.0960 C   0  0  0  0  0  0  0  0  0  0  0  0
  139.7430   75.0240  221.6900 N   0  0  0  0  0  0  0  0  0  0  0  0
  139.3600   73.7100  221.2160 C   0  0  0  0  0  0  0  0  0  0  0  0
  139.4590   72.7510  222.3380 C   0  0  0  0  0  0  0  0  0  0  0  0
  140.5630   72.6560  222.9340 O   0  0  0  0  0  0  0  0  0  0  0  0
  138.3110   71.9830  222.6930 N   0  0  0  0  0  0  0  0  0  0  0  0
  136.9450   72.4880  222.8850 C   0  0  0  0  0  0  0  0  0  0  0  0
  136.2740   71.5040  223.8200 C   0  0  0  0  0  0  0  0  0  0  0  0
  137.4000   70.5410  224.2130 C   0  0  0  0  0  0  0  0  0  0  0  0
  138.2120   70.5610  222.9430 C   0  0  2  0  0  0  0  0  0  0  0  0
  139.5560   69.8890  223.1180 C   0  0  0  0  0  0  0  0  0  0  0  0
  139.7640   69.8170  224.6060 C   0  0  0  0  0  0  0  0  0  0  0  0
  139.4450   68.6290  225.2370 C   0  0  0  0  0  0  0  0  0  0  0  0
  139.6380   68.5590  226.6180 C   0  0  0  0  0  0  0  0  0  0  0  0
  140.1270   69.6260  227.3330 C   0  0  0  0  0  0  0  0  0  0  0  0
  140.4390   70.8150  226.6640 C   0  0  0  0  0  0  0  0  0  0  0  0
  141.0630   72.1660  227.6010 Cl  0  0  0  0  0  0  0  0  0  0  0  0
  140.2580   70.9160  225.2870 C   0  0  0  0  0  0  0  0  0  0  0  0
  139.3090   77.3180  222.5630 C   0  0  0  0  0  0  0  0  0  0  0  0
  138.4210   78.2490  223.0640 C   0  0  0  0  0  0  0  0  0  0  0  0
  138.9380   79.4690  223.4890 C   0  0  0  0  0  0  0  0  0  0  0  0
  140.2870   79.7340  223.4110 C   0  0  0  0  0  0  0  0  0  0  0  0
  140.8410   80.9330  223.8230 C   0  0  0  0  0  0  0  0  0  0  0  0
  142.2000   81.1780  223.7350 C   0  0  0  0  0  0  0  0  0  0  0  0
  143.0480   80.2270  223.2310 C   0  0  0  0  0  0  0  0  0  0  0  0
  142.5120   79.0130  222.8110 C   0  0  0  0  0  0  0  0  0  0  0  0
  141.1390   78.7730  222.9030 C   0  0  0  0  0  0  0  0  0  0  0  0
  140.6260   77.6040  222.4980 N   0  0  0  0  0  0  0  0  0  0  0  0
  140.7690   75.2790  221.7390 H   0  0  0  0  0  0  0  0  0  0  0  0
  138.3252   73.7383  220.8440 H   0  0  0  0  0  0  0  0  0  0  0  0
  140.0266   73.3987  220.3983 H   0  0  0  0  0  0  0  0  0  0  0  0
  136.9665   73.4916  223.3349 H   0  0  0  0  0  0  0  0  0  0  0  0
  136.4055   72.5747  221.9303 H   0  0  0  0  0  0  0  0  0  0  0  0
  135.8717   72.0178  224.7056 H   0  0  0  0  0  0  0  0  0  0  0  0
  135.4205   70.9904  223.3534 H   0  0  0  0  0  0  0  0  0  0  0  0
  137.9760   70.9146  225.0724 H   0  0  0  0  0  0  0  0  0  0  0  0
  137.0668   69.5436  224.5358 H   0  0  0  0  0  0  0  0  0  0  0  0
  137.7668   70.0019  222.1068 H   0  0  0  0  0  0  0  0  0  0  0  0
  139.5438   68.8800  222.6800 H   0  0  0  0  0  0  0  0  0  0  0  0
  140.3629   70.4412  222.6141 H   0  0  0  0  0  0  0  0  0  0  0  0
  139.0535   67.7704  224.6718 H   0  0  0  0  0  0  0  0  0  0  0  0
  139.3925   67.6264  227.1471 H   0  0  0  0  0  0  0  0  0  0  0  0
  140.2717   69.5462  228.4205 H   0  0  0  0  0  0  0  0  0  0  0  0
  140.5017   71.8466  224.7535 H   0  0  0  0  0  0  0  0  0  0  0  0
  137.3439   78.0341  223.1250 H   0  0  0  0  0  0  0  0  0  0  0  0
  138.2585   80.2336  223.8936 H   0  0  0  0  0  0  0  0  0  0  0  0
  140.1826   81.7135  224.2320 H   0  0  0  0  0  0  0  0  0  0  0  0
  142.6030   82.1443  224.0725 H   0  0  0  0  0  0  0  0  0  0  0  0
  144.1288   80.4188  223.1599 H   0  0  0  0  0  0  0  0  0  0  0  0
  143.1753   78.2360  222.4032 H   0  0  0  0  0  0  0  0  0  0  0  0
  1  2  2  0
  2  3  1  0
  3  4  1  0
  4  5  1  0
  5  6  2  0
  5  7  1  0
  7  8  1  0
  8  9  1  0
  9 10  1  0
 10 11  1  0
 11 12  1  0
 12 13  1  0
 13 14  2  0
 14 15  1  0
 15 16  2  0
 16 17  1  0
 17 18  1  0
 17 19  2  0
  2 20  1  0
 20 21  2  0
 21 22  1  0
 22 23  2  0
 23 24  1  0
 24 25  2  0
 25 26  1  0
 26 27  2  0
 27 28  1  0
 28 29  2  0
 11  7  1  0
 19 13  1  0
 29 20  1  0
 28 23  1  0
  3 30  1  0
  4 31  1  0
  4 32  1  0
  8 33  1  0
  8 34  1  0
  9 35  1  0
  9 36  1  0
 10 37  1  0
 10 38  1  0
 11 39  1  6
 12 40  1  0
 12 41  1  0
 14 42  1  0
 15 43  1  0
 16 44  1  0
 19 45  1  0
 21 46  1  0
 22 47  1  0
 24 48  1  0
 25 49  1  0
 26 50  1  0
 27 51  1  0
M  END
>  <smiles>  (36) 
O=C(NCC(=O)N1CCCC1Cc1cccc(Cl)c1)c1ccc2ccccc2n1

>  <score_type>  (36) 
oracle

>  <origin>  (36) 
autodockgpu

>  <m_score__min__energy>  (36) 
-9.2899999999999991

>  <m_primary>  (36) 
energy

>  <rmsd>  (36) 
8.338349852498022

>  <m_score__min__rmsd>  (36) 
8.338349852498022

>  <meeko>  (36) 
{"free_energy": -8.74, "intermolecular_energy": -10.53, "internal_energy": -1.77, "cluster_size": 4, "cluster_id": 3, "rank_in_cluster": 4}

>  <energy>  (36) 
-8.34

>  <cluster_rmsd>  (36) 
1.44

>  <cluster>  (36) 
1

$$$$

     RDKit          3D

 51 54  0  0  0  0  0  0  0  0999 V2000
  140.8520   71.8010  221.9980 O   0  0  0  0  0  0  0  0  0  0  0  0
  139.8310   71.7890  222.7370 C   0  0  0  0  0  0  0  0  0  0  0  0
  138.7680   72.6750  222.4920 N   0  0  0  0  0  0  0  0  0  0  0  0
  138.7560   73.6390  221.4130 C   0  0  0  0  0  0  0  0  0  0  0  0
  139.2120   74.9460  221.9350 C   0  0  0  0  0  0  0  0  0  0  0  0
  140.4510   75.1400  222.0330 O   0  0  0  0  0  0  0  0  0  0  0  0
  138.2380   75.9200  222.3010 N   0  0  0  0  0  0  0  0  0  0  0  0
  136.9790   75.6740  223.0170 C   0  0  0  0  0  0  0  0  0  0  0  0
  136.0550   76.8070  222.6200 C   0  0  0  0  0  0  0  0  0  0  0  0
  136.8490   77.5750  221.5570 C   0  0  0  0  0  0  0  0  0  0  0  0
  138.2490   77.3480  222.0660 C   0  0  2  0  0  0  0  0  0  0  0  0
  139.2950   77.7810  221.0630 C   0  0  0  0  0  0  0  0  0  0  0  0
  140.2330   78.6680  221.8350 C   0  0  0  0  0  0  0  0  0  0  0  0
  140.9750   78.0840  222.8440 C   0  0  0  0  0  0  0  0  0  0  0  0
  141.8460   78.9050  223.5620 C   0  0  0  0  0  0  0  0  0  0  0  0
  141.9690   80.2460  223.2840 C   0  0  0  0  0  0  0  0  0  0  0  0
  141.2020   80.8060  222.2560 C   0  0  0  0  0  0  0  0  0  0  0  0
  141.3770   82.5230  221.9190 Cl  0  0  0  0  0  0  0  0  0  0  0  0
  140.3240   80.0130  221.5210 C   0  0  0  0  0  0  0  0  0  0  0  0
  139.7530   70.8390  223.8620 C   0  0  0  0  0  0  0  0  0  0  0  0
  139.0120   69.6800  223.7430 C   0  0  0  0  0  0  0  0  0  0  0  0
  138.9770   68.8230  224.8390 C   0  0  0  0  0  0  0  0  0  0  0  0
  139.6580   69.1240  225.9970 C   0  0  0  0  0  0  0  0  0  0  0  0
  139.6490   68.2980  227.1080 C   0  0  0  0  0  0  0  0  0  0  0  0
  140.3410   68.6200  228.2630 C   0  0  0  0  0  0  0  0  0  0  0  0
  141.0650   69.7810  228.3390 C   0  0  0  0  0  0  0  0  0  0  0  0
  141.0880   70.6260  227.2330 C   0  0  0  0  0  0  0  0  0  0  0  0
  140.3870   70.2940  226.0710 C   0  0  0  0  0  0  0  0  0  0  0  0
  140.4100   71.1080  225.0080 N   0  0  0  0  0  0  0  0  0  0  0  0
  137.9380   72.6160  223.1460 H   0  0  0  0  0  0  0  0  0  0  0  0
  139.4315   73.3051  220.6116 H   0  0  0  0  0  0  0  0  0  0  0  0
  137.7376   73.7335  221.0081 H   0  0  0  0  0  0  0  0  0  0  0  0
  136.5501   74.7063  222.7178 H   0  0  0  0  0  0  0  0  0  0  0  0
  137.1312   75.6361  224.1058 H   0  0  0  0  0  0  0  0  0  0  0  0
  135.1155   76.4173  222.2011 H   0  0  0  0  0  0  0  0  0  0  0  0
  135.7673   77.4387  223.4734 H   0  0  0  0  0  0  0  0  0  0  0  0
  136.7052   77.1497  220.5528 H   0  0  0  0  0  0  0  0  0  0  0  0
  136.5639   78.6306  221.4368 H   0  0  0  0  0  0  0  0  0  0  0  0
  138.5102   77.9339  222.9596 H   0  0  0  0  0  0  0  0  0  0  0  0
  139.8308   76.9079  220.6623 H   0  0  0  0  0  0  0  0  0  0  0  0
  138.8504   78.3011  220.2017 H   0  0  0  0  0  0  0  0  0  0  0  0
  140.8827   77.0120  223.0728 H   0  0  0  0  0  0  0  0  0  0  0  0
  142.4496   78.4680  224.3711 H   0  0  0  0  0  0  0  0  0  0  0  0
  142.6631   80.8722  223.8637 H   0  0  0  0  0  0  0  0  0  0  0  0
  139.7179   80.4449  220.7110 H   0  0  0  0  0  0  0  0  0  0  0  0
  138.4693   69.4428  222.8161 H   0  0  0  0  0  0  0  0  0  0  0  0
  138.3962   67.8907  224.7791 H   0  0  0  0  0  0  0  0  0  0  0  0
  139.0760   67.3597  227.0720 H   0  0  0  0  0  0  0  0  0  0  0  0
  140.3094   67.9388  229.1261 H   0  0  0  0  0  0  0  0  0  0  0  0
  141.6165   70.0398  229.2549 H   0  0  0  0  0  0  0  0  0  0  0  0
  141.6629   71.5629  227.2743 H   0  0  0  0  0  0  0  0  0  0  0  0
  1  2  2  0
  2  3  1  0
  3  4  1  0
  4  5  1  0
  5  6  2  0
  5  7  1  0
  7  8  1  0
  8  9  1  0
  9 10  1  0
 10 11  1  0
 11 12  1  0
 12 13  1  0
 13 14  2  0
 14 15  1  0
 15 16  2  0
 16 17  1  0
 17 18  1  0
 17 19  2  0
  2 20  1  0
 20 21  2  0
 21 22  1  0
 22 23  2  0
 23 24  1  0
 24 25  2  0
 25 26  1  0
 26 27  2  0
 27 28  1  0
 28 29  2  0
 11  7  1  0
 19 13  1  0
 29 20  1  0
 28 23  1  0
  3 30  1  0
  4 31  1  0
  4 32  1  0
  8 33  1  0
  8 34  1  0
  9 35  1  0
  9 36  1  0
 10 37  1  0
 10 38  1  0
 11 39  1  1
 12 40  1  0
 12 41  1  0
 14 42  1  0
 15 43  1  0
 16 44  1  0
 19 45  1  0
 21 46  1  0
 22 47  1  0
 24 48  1  0
 25 49  1  0
 26 50  1  0
 27 51  1  0
M  END
>  <smiles>  (37) 
O=C(NCC(=O)N1CCCC1Cc1cccc(Cl)c1)c1ccc2ccccc2n1

>  <score_type>  (37) 
oracle

>  <origin>  (37) 
autodockgpu

>  <m_score__min__energy>  (37) 
-9.2899999999999991

>  <m_primary>  (37) 
energy

>  <rmsd>  (37) 
3.030362971838838

>  <m_score__min__rmsd>  (37) 
3.030362971838838

>  <meeko>  (37) 
{"free_energy": -8.69, "intermolecular_energy": -10.48, "internal_energy": -1.34, "cluster_size": 39, "cluster_id": 1, "rank_in_cluster": 27}

>  <energy>  (37) 
-8.34

>  <cluster_rmsd>  (37) 
1.84

>  <cluster>  (37) 
1

$$$$

     RDKit          3D

 51 54  0  0  0  0  0  0  0  0999 V2000
  141.2020   71.9540  221.4800 O   0  0  0  0  0  0  0  0  0  0  0  0
  140.4160   72.3380  222.3870 C   0  0  0  0  0  0  0  0  0  0  0  0
  139.7370   73.5620  222.2660 N   0  0  0  0  0  0  0  0  0  0  0  0
  139.8770   74.4510  221.1320 C   0  0  0  0  0  0  0  0  0  0  0  0
  140.6630   75.6340  221.5470 C   0  0  0  0  0  0  0  0  0  0  0  0
  140.5080   76.0600  222.7210 O   0  0  0  0  0  0  0  0  0  0  0  0
  141.5530   76.2350  220.6100 N   0  0  0  0  0  0  0  0  0  0  0  0
  141.6640   77.6670  220.3020 C   0  0  0  0  0  0  0  0  0  0  0  0
  142.2190   77.7410  218.8950 C   0  0  0  0  0  0  0  0  0  0  0  0
  142.2610   76.2790  218.4370 C   0  0  0  0  0  0  0  0  0  0  0  0
  142.5350   75.6030  219.7560 C   0  0  2  0  0  0  0  0  0  0  0  0
  142.3750   74.1010  219.6690 C   0  0  0  0  0  0  0  0  0  0  0  0
  143.7530   73.5470  219.9070 C   0  0  0  0  0  0  0  0  0  0  0  0
  144.6190   74.3020  220.6760 C   0  0  0  0  0  0  0  0  0  0  0  0
  145.8980   73.7900  220.8970 C   0  0  0  0  0  0  0  0  0  0  0  0
  146.2930   72.5810  220.3760 C   0  0  0  0  0  0  0  0  0  0  0  0
  145.3910   71.8420  219.6010 C   0  0  0  0  0  0  0  0  0  0  0  0
  145.9190   70.2980  218.9440 Cl  0  0  0  0  0  0  0  0  0  0  0  0
  144.1070   72.3260  219.3610 C   0  0  0  0  0  0  0  0  0  0  0  0
  140.2090   71.4970  223.5810 C   0  0  0  0  0  0  0  0  0  0  0  0
  139.5160   70.3070  223.4800 C   0  0  0  0  0  0  0  0  0  0  0  0
  139.3530   69.5570  224.6410 C   0  0  0  0  0  0  0  0  0  0  0  0
  139.8650   69.9890  225.8440 C   0  0  0  0  0  0  0  0  0  0  0  0
  139.7250   69.2730  227.0190 C   0  0  0  0  0  0  0  0  0  0  0  0
  140.2490   69.7270  228.2180 C   0  0  0  0  0  0  0  0  0  0  0  0
  140.9300   70.9140  228.2740 C   0  0  0  0  0  0  0  0  0  0  0  0
  141.0830   71.6510  227.1030 C   0  0  0  0  0  0  0  0  0  0  0  0
  140.5520   71.1860  225.8970 C   0  0  0  0  0  0  0  0  0  0  0  0
  140.7000   71.8960  224.7720 N   0  0  0  0  0  0  0  0  0  0  0  0
  139.0900   73.8300  223.0600 H   0  0  0  0  0  0  0  0  0  0  0  0
  140.3976   73.9293  220.3154 H   0  0  0  0  0  0  0  0  0  0  0  0
  138.8838   74.7671  220.7803 H   0  0  0  0  0  0  0  0  0  0  0  0
  140.6757   78.1476  220.3504 H   0  0  0  0  0  0  0  0  0  0  0  0
  142.3117   78.1884  221.0222 H   0  0  0  0  0  0  0  0  0  0  0  0
  141.5600   78.3357  218.2453 H   0  0  0  0  0  0  0  0  0  0  0  0
  143.2051   78.2267  218.8533 H   0  0  0  0  0  0  0  0  0  0  0  0
  141.3017   75.9583  218.0048 H   0  0  0  0  0  0  0  0  0  0  0  0
  142.9906   76.0616  217.6430 H   0  0  0  0  0  0  0  0  0  0  0  0
  143.5662   75.7176  220.1213 H   0  0  0  0  0  0  0  0  0  0  0  0
  141.6759   73.7417  220.4385 H   0  0  0  0  0  0  0  0  0  0  0  0
  141.9652   73.7852  218.6983 H   0  0  0  0  0  0  0  0  0  0  0  0
  144.3112   75.2702  221.0978 H   0  0  0  0  0  0  0  0  0  0  0  0
  146.6090   74.3693  221.5043 H   0  0  0  0  0  0  0  0  0  0  0  0
  147.3066   72.1982  220.5658 H   0  0  0  0  0  0  0  0  0  0  0  0
  143.3925   71.7519  218.7527 H   0  0  0  0  0  0  0  0  0  0  0  0
  139.1079   69.9645  222.5176 H   0  0  0  0  0  0  0  0  0  0  0  0
  138.8062   68.6035  224.5969 H   0  0  0  0  0  0  0  0  0  0  0  0
  139.1824   68.3163  227.0007 H   0  0  0  0  0  0  0  0  0  0  0  0
  140.1172   69.1297  229.1323 H   0  0  0  0  0  0  0  0  0  0  0  0
  141.3474   71.2774  229.2246 H   0  0  0  0  0  0  0  0  0  0  0  0
  141.6263   72.6072  227.1272 H   0  0  0  0  0  0  0  0  0  0  0  0
  1  2  2  0
  2  3  1  0
  3  4  1  0
  4  5  1  0
  5  6  2  0
  5  7  1  0
  7  8  1  0
  8  9  1  0
  9 10  1  0
 10 11  1  0
 11 12  1  0
 12 13  1  0
 13 14  2  0
 14 15  1  0
 15 16  2  0
 16 17  1  0
 17 18  1  0
 17 19  2  0
  2 20  1  0
 20 21  2  0
 21 22  1  0
 22 23  2  0
 23 24  1  0
 24 25  2  0
 25 26  1  0
 26 27  2  0
 27 28  1  0
 28 29  2  0
 11  7  1  0
 19 13  1  0
 29 20  1  0
 28 23  1  0
  3 30  1  0
  4 31  1  0
  4 32  1  0
  8 33  1  0
  8 34  1  0
  9 35  1  0
  9 36  1  0
 10 37  1  0
 10 38  1  0
 11 39  1  1
 12 40  1  0
 12 41  1  0
 14 42  1  0
 15 43  1  0
 16 44  1  0
 19 45  1  0
 21 46  1  0
 22 47  1  0
 24 48  1  0
 25 49  1  0
 26 50  1  0
 27 51  1  0
M  END
>  <smiles>  (38) 
O=C(NCC(=O)N1CCCC1Cc1cccc(Cl)c1)c1ccc2ccccc2n1

>  <score_type>  (38) 
oracle

>  <origin>  (38) 
autodockgpu

>  <m_score__min__energy>  (38) 
-9.2899999999999991

>  <m_primary>  (38) 
energy

>  <rmsd>  (38) 
2.1803458264865574

>  <m_score__min__rmsd>  (38) 
2.1803458264865574

>  <meeko>  (38) 
{"free_energy": -9.12, "intermolecular_energy": -10.91, "internal_energy": -1.63, "cluster_size": 4, "cluster_id": 2, "rank_in_cluster": 2}

>  <energy>  (38) 
-8.33

>  <cluster_rmsd>  (38) 
1.43

>  <cluster>  (38) 
1

$$$$

     RDKit          3D

 51 54  0  0  0  0  0  0  0  0999 V2000
  141.1550   71.7680  221.4820 O   0  0  0  0  0  0  0  0  0  0  0  0
  140.4100   72.2030  222.4020 C   0  0  0  0  0  0  0  0  0  0  0  0
  139.7580   73.4390  222.2620 N   0  0  0  0  0  0  0  0  0  0  0  0
  139.8820   74.2870  221.0950 C   0  0  0  0  0  0  0  0  0  0  0  0
  139.4320   75.6510  221.4450 C   0  0  0  0  0  0  0  0  0  0  0  0
  139.0700   75.8640  222.6320 O   0  0  0  0  0  0  0  0  0  0  0  0
  139.4270   76.6580  220.4350 N   0  0  0  0  0  0  0  0  0  0  0  0
  138.4930   76.7600  219.3060 C   0  0  0  0  0  0  0  0  0  0  0  0
  139.2310   77.5340  218.2340 C   0  0  0  0  0  0  0  0  0  0  0  0
  140.6410   77.7080  218.8100 C   0  0  0  0  0  0  0  0  0  0  0  0
  140.3130   77.7910  220.2780 C   0  0  2  0  0  0  0  0  0  0  0  0
  141.5510   77.7070  221.1420 C   0  0  0  0  0  0  0  0  0  0  0  0
  141.4410   78.8650  222.0960 C   0  0  0  0  0  0  0  0  0  0  0  0
  142.6110   79.5080  222.4540 C   0  0  0  0  0  0  0  0  0  0  0  0
  142.5110   80.5830  223.3390 C   0  0  0  0  0  0  0  0  0  0  0  0
  141.3000   80.9950  223.8410 C   0  0  0  0  0  0  0  0  0  0  0  0
  140.1340   80.3210  223.4580 C   0  0  0  0  0  0  0  0  0  0  0  0
  138.5970   80.8670  224.1140 Cl  0  0  0  0  0  0  0  0  0  0  0  0
  140.2010   79.2450  222.5770 C   0  0  0  0  0  0  0  0  0  0  0  0
  140.2220   71.4070  223.6290 C   0  0  0  0  0  0  0  0  0  0  0  0
  139.5730   70.1890  223.5750 C   0  0  0  0  0  0  0  0  0  0  0  0
  139.4270   69.4850  224.7660 C   0  0  0  0  0  0  0  0  0  0  0  0
  139.9140   69.9870  225.9530 C   0  0  0  0  0  0  0  0  0  0  0  0
  139.7890   69.3180  227.1570 C   0  0  0  0  0  0  0  0  0  0  0  0
  140.2860   69.8420  228.3390 C   0  0  0  0  0  0  0  0  0  0  0  0
  140.9240   71.0540  228.3480 C   0  0  0  0  0  0  0  0  0  0  0  0
  141.0610   71.7440  227.1470 C   0  0  0  0  0  0  0  0  0  0  0  0
  140.5570   71.2090  225.9590 C   0  0  0  0  0  0  0  0  0  0  0  0
  140.6890   71.8750  224.8050 N   0  0  0  0  0  0  0  0  0  0  0  0
  139.1450   73.7500  223.0670 H   0  0  0  0  0  0  0  0  0  0  0  0
  140.9324   74.3166  220.7699 H   0  0  0  0  0  0  0  0  0  0  0  0
  139.2637   73.8887  220.2771 H   0  0  0  0  0  0  0  0  0  0  0  0
  138.2233   75.7586  218.9394 H   0  0  0  0  0  0  0  0  0  0  0  0
  137.5570   77.2596  219.5966 H   0  0  0  0  0  0  0  0  0  0  0  0
  139.2603   76.9670  217.2919 H   0  0  0  0  0  0  0  0  0  0  0  0
  138.7488   78.4934  217.9953 H   0  0  0  0  0  0  0  0  0  0  0  0
  141.2844   76.8451  218.5832 H   0  0  0  0  0  0  0  0  0  0  0  0
  141.2030   78.5652  218.4108 H   0  0  0  0  0  0  0  0  0  0  0  0
  139.8610   78.7435  220.5919 H   0  0  0  0  0  0  0  0  0  0  0  0
  141.5747   76.7545  221.6917 H   0  0  0  0  0  0  0  0  0  0  0  0
  142.4742   77.7501  220.5455 H   0  0  0  0  0  0  0  0  0  0  0  0
  143.5844   79.1848  222.0565 H   0  0  0  0  0  0  0  0  0  0  0  0
  143.4253   81.1140  223.6424 H   0  0  0  0  0  0  0  0  0  0  0  0
  141.2472   81.8455  224.5366 H   0  0  0  0  0  0  0  0  0  0  0  0
  139.2899   78.7100  222.2709 H   0  0  0  0  0  0  0  0  0  0  0  0
  139.1860   69.7904  222.6256 H   0  0  0  0  0  0  0  0  0  0  0  0
  138.9144   68.5118  224.7599 H   0  0  0  0  0  0  0  0  0  0  0  0
  139.2808   68.3426  227.1765 H   0  0  0  0  0  0  0  0  0  0  0  0
  140.1674   69.2806  229.2775 H   0  0  0  0  0  0  0  0  0  0  0  0
  141.3198   71.4733  229.2848 H   0  0  0  0  0  0  0  0  0  0  0  0
  141.5704   72.7188  227.1332 H   0  0  0  0  0  0  0  0  0  0  0  0
  1  2  2  0
  2  3  1  0
  3  4  1  0
  4  5  1  0
  5  6  2  0
  5  7  1  0
  7  8  1  0
  8  9  1  0
  9 10  1  0
 10 11  1  0
 11 12  1  0
 12 13  1  0
 13 14  2  0
 14 15  1  0
 15 16  2  0
 16 17  1  0
 17 18  1  0
 17 19  2  0
  2 20  1  0
 20 21  2  0
 21 22  1  0
 22 23  2  0
 23 24  1  0
 24 25  2  0
 25 26  1  0
 26 27  2  0
 27 28  1  0
 28 29  2  0
 11  7  1  0
 19 13  1  0
 29 20  1  0
 28 23  1  0
  3 30  1  0
  4 31  1  0
  4 32  1  0
  8 33  1  0
  8 34  1  0
  9 35  1  0
  9 36  1  0
 10 37  1  0
 10 38  1  0
 11 39  1  6
 12 40  1  0
 12 41  1  0
 14 42  1  0
 15 43  1  0
 16 44  1  0
 19 45  1  0
 21 46  1  0
 22 47  1  0
 24 48  1  0
 25 49  1  0
 26 50  1  0
 27 51  1  0
M  END
>  <smiles>  (39) 
O=C(NCC(=O)N1CCCC1Cc1cccc(Cl)c1)c1ccc2ccccc2n1

>  <score_type>  (39) 
oracle

>  <origin>  (39) 
autodockgpu

>  <m_score__min__energy>  (39) 
-9.2899999999999991

>  <m_primary>  (39) 
energy

>  <rmsd>  (39) 
1.5837360088372083

>  <m_score__min__rmsd>  (39) 
1.5837360088372083

>  <meeko>  (39) 
{"free_energy": -8.81, "intermolecular_energy": -10.6, "internal_energy": -2.0, "cluster_size": 39, "cluster_id": 1, "rank_in_cluster": 21}

>  <energy>  (39) 
-8.31

>  <cluster_rmsd>  (39) 
1.71

>  <cluster>  (39) 
1

$$$$

     RDKit          3D

 51 54  0  0  0  0  0  0  0  0999 V2000
  140.1520   71.3460  221.2200 O   0  0  0  0  0  0  0  0  0  0  0  0
  139.9730   71.9650  222.3030 C   0  0  0  0  0  0  0  0  0  0  0  0
  139.7650   73.3550  222.3000 N   0  0  0  0  0  0  0  0  0  0  0  0
  139.7380   74.1610  221.0980 C   0  0  0  0  0  0  0  0  0  0  0  0
  139.5130   75.5730  221.4760 C   0  0  0  0  0  0  0  0  0  0  0  0
  139.4830   75.8560  222.7020 O   0  0  0  0  0  0  0  0  0  0  0  0
  139.3390   76.5440  220.4470 N   0  0  0  0  0  0  0  0  0  0  0  0
  138.2650   76.5760  219.4450 C   0  0  0  0  0  0  0  0  0  0  0  0
  138.8290   77.3390  218.2650 C   0  0  0  0  0  0  0  0  0  0  0  0
  140.2940   77.5810  218.6480 C   0  0  0  0  0  0  0  0  0  0  0  0
  140.1530   77.7020  220.1440 C   0  0  2  0  0  0  0  0  0  0  0  0
  141.4950   77.6900  220.8420 C   0  0  0  0  0  0  0  0  0  0  0  0
  141.3920   78.7510  221.9030 C   0  0  0  0  0  0  0  0  0  0  0  0
  142.5660   79.3480  222.3220 C   0  0  0  0  0  0  0  0  0  0  0  0
  142.4730   80.3340  223.3070 C   0  0  0  0  0  0  0  0  0  0  0  0
  141.2640   80.7050  223.8450 C   0  0  0  0  0  0  0  0  0  0  0  0
  140.0930   80.0790  223.3980 C   0  0  0  0  0  0  0  0  0  0  0  0
  138.5590   80.5710  224.1030 Cl  0  0  0  0  0  0  0  0  0  0  0  0
  140.1530   79.0920  222.4180 C   0  0  0  0  0  0  0  0  0  0  0  0
  139.9830   71.2250  223.5790 C   0  0  0  0  0  0  0  0  0  0  0  0
  139.5180   69.9270  223.6330 C   0  0  0  0  0  0  0  0  0  0  0  0
  139.5530   69.2810  224.8660 C   0  0  0  0  0  0  0  0  0  0  0  0
  140.0350   69.9180  225.9870 C   0  0  0  0  0  0  0  0  0  0  0  0
  140.0860   69.3110  227.2300 C   0  0  0  0  0  0  0  0  0  0  0  0
  140.5750   69.9710  228.3450 C   0  0  0  0  0  0  0  0  0  0  0  0
  141.0270   71.2610  228.2480 C   0  0  0  0  0  0  0  0  0  0  0  0
  140.9840   71.8900  227.0070 C   0  0  0  0  0  0  0  0  0  0  0  0
  140.4900   71.2180  225.8870 C   0  0  0  0  0  0  0  0  0  0  0  0
  140.4500   71.8250  224.6940 N   0  0  0  0  0  0  0  0  0  0  0  0
  139.6210   73.8180  223.2400 H   0  0  0  0  0  0  0  0  0  0  0  0
  140.6980   74.0683  220.5691 H   0  0  0  0  0  0  0  0  0  0  0  0
  138.9293   73.8179  220.4360 H   0  0  0  0  0  0  0  0  0  0  0  0
  137.9897   75.5541  219.1450 H   0  0  0  0  0  0  0  0  0  0  0  0
  137.3554   77.0524  219.8395 H   0  0  0  0  0  0  0  0  0  0  0  0
  138.7589   76.7423  217.3436 H   0  0  0  0  0  0  0  0  0  0  0  0
  138.2834   78.2728  218.0639 H   0  0  0  0  0  0  0  0  0  0  0  0
  140.9359   76.7337  218.3650 H   0  0  0  0  0  0  0  0  0  0  0  0
  140.7671   78.4428  218.1546 H   0  0  0  0  0  0  0  0  0  0  0  0
  139.7076   78.6477  220.4864 H   0  0  0  0  0  0  0  0  0  0  0  0
  141.6857   76.7064  221.2961 H   0  0  0  0  0  0  0  0  0  0  0  0
  142.3245   77.8817  220.1454 H   0  0  0  0  0  0  0  0  0  0  0  0
  143.5375   79.0575  221.8956 H   0  0  0  0  0  0  0  0  0  0  0  0
  143.3909   80.8261  223.6611 H   0  0  0  0  0  0  0  0  0  0  0  0
  141.2162   81.4855  224.6187 H   0  0  0  0  0  0  0  0  0  0  0  0
  139.2385   78.5953  222.0617 H   0  0  0  0  0  0  0  0  0  0  0  0
  139.1338   69.4211  222.7350 H   0  0  0  0  0  0  0  0  0  0  0  0
  139.1899   68.2457  224.9455 H   0  0  0  0  0  0  0  0  0  0  0  0
  139.7283   68.2761  227.3350 H   0  0  0  0  0  0  0  0  0  0  0  0
  140.6008   69.4555  229.3164 H   0  0  0  0  0  0  0  0  0  0  0  0
  141.4155   71.7881  229.1319 H   0  0  0  0  0  0  0  0  0  0  0  0
  141.3422   72.9253  226.9077 H   0  0  0  0  0  0  0  0  0  0  0  0
  1  2  2  0
  2  3  1  0
  3  4  1  0
  4  5  1  0
  5  6  2  0
  5  7  1  0
  7  8  1  0
  8  9  1  0
  9 10  1  0
 10 11  1  0
 11 12  1  0
 12 13  1  0
 13 14  2  0
 14 15  1  0
 15 16  2  0
 16 17  1  0
 17 18  1  0
 17 19  2  0
  2 20  1  0
 20 21  2  0
 21 22  1  0
 22 23  2  0
 23 24  1  0
 24 25  2  0
 25 26  1  0
 26 27  2  0
 27 28  1  0
 28 29  2  0
 11  7  1  0
 19 13  1  0
 29 20  1  0
 28 23  1  0
  3 30  1  0
  4 31  1  0
  4 32  1  0
  8 33  1  0
  8 34  1  0
  9 35  1  0
  9 36  1  0
 10 37  1  0
 10 38  1  0
 11 39  1  6
 12 40  1  0
 12 41  1  0
 14 42  1  0
 15 43  1  0
 16 44  1  0
 19 45  1  0
 21 46  1  0
 22 47  1  0
 24 48  1  0
 25 49  1  0
 26 50  1  0
 27 51  1  0
M  END
>  <smiles>  (40) 
O=C(NCC(=O)N1CCCC1Cc1cccc(Cl)c1)c1ccc2ccccc2n1

>  <score_type>  (40) 
oracle

>  <origin>  (40) 
autodockgpu

>  <m_score__min__energy>  (40) 
-9.2899999999999991

>  <m_primary>  (40) 
energy

>  <rmsd>  (40) 
1.4794693355201758

>  <m_score__min__rmsd>  (40) 
1.4794693355201758

>  <meeko>  (40) 
{"free_energy": -8.66, "intermolecular_energy": -10.45, "internal_energy": -2.2, "cluster_size": 39, "cluster_id": 1, "rank_in_cluster": 29}

>  <energy>  (40) 
-9.13

>  <cluster_rmsd>  (40) 
0.0

>  <cluster>  (40) 
2

$$$$

     RDKit          3D

 51 54  0  0  0  0  0  0  0  0999 V2000
  141.1460   74.1890  220.6150 O   0  0  0  0  0  0  0  0  0  0  0  0
  140.4020   74.3550  221.6190 C   0  0  0  0  0  0  0  0  0  0  0  0
  139.8930   73.2460  222.3160 N   0  0  0  0  0  0  0  0  0  0  0  0
  140.1700   71.8720  221.9530 C   0  0  0  0  0  0  0  0  0  0  0  0
  139.3320   70.9810  222.7850 C   0  0  0  0  0  0  0  0  0  0  0  0
  138.6820   71.4980  223.7310 O   0  0  0  0  0  0  0  0  0  0  0  0
  139.2970   69.5870  222.4850 N   0  0  0  0  0  0  0  0  0  0  0  0
  139.6890   68.9540  221.2180 C   0  0  0  0  0  0  0  0  0  0  0  0
  138.9150   67.6540  221.1550 C   0  0  0  0  0  0  0  0  0  0  0  0
  138.0000   67.7090  222.3840 C   0  0  0  0  0  0  0  0  0  0  0  0
  138.8810   68.4870  223.3280 C   0  0  2  0  0  0  0  0  0  0  0  0
  138.1330   68.9310  224.5650 C   0  0  0  0  0  0  0  0  0  0  0  0
  139.1690   68.9680  225.6550 C   0  0  0  0  0  0  0  0  0  0  0  0
  139.6810   67.7590  226.0880 C   0  0  0  0  0  0  0  0  0  0  0  0
  140.6430   67.7900  227.0990 C   0  0  0  0  0  0  0  0  0  0  0  0
  141.0720   68.9740  227.6510 C   0  0  0  0  0  0  0  0  0  0  0  0
  140.5320   70.1810  227.1900 C   0  0  0  0  0  0  0  0  0  0  0  0
  141.0980   71.6810  227.9110 Cl  0  0  0  0  0  0  0  0  0  0  0  0
  139.5710   70.1820  226.1820 C   0  0  0  0  0  0  0  0  0  0  0  0
  140.0660   75.7200  222.0640 C   0  0  0  0  0  0  0  0  0  0  0  0
  138.7460   76.1130  222.1640 C   0  0  0  0  0  0  0  0  0  0  0  0
  138.4930   77.4140  222.5890 C   0  0  0  0  0  0  0  0  0  0  0  0
  139.5230   78.2740  222.8970 C   0  0  0  0  0  0  0  0  0  0  0  0
  139.3130   79.5740  223.3220 C   0  0  0  0  0  0  0  0  0  0  0  0
  140.3640   80.4220  223.6270 C   0  0  0  0  0  0  0  0  0  0  0  0
  141.6600   79.9910  223.5130 C   0  0  0  0  0  0  0  0  0  0  0  0
  141.8940   78.6870  223.0870 C   0  0  0  0  0  0  0  0  0  0  0  0
  140.8280   77.8380  222.7820 C   0  0  0  0  0  0  0  0  0  0  0  0
  141.0560   76.5830  222.3710 N   0  0  0  0  0  0  0  0  0  0  0  0
  139.2750   73.4490  223.1500 H   0  0  0  0  0  0  0  0  0  0  0  0
  139.9337   71.7156  220.8901 H   0  0  0  0  0  0  0  0  0  0  0  0
  141.2339   71.6484  222.1205 H   0  0  0  0  0  0  0  0  0  0  0  0
  139.4241   69.6001  220.3680 H   0  0  0  0  0  0  0  0  0  0  0  0
  140.7746   68.7840  221.1670 H   0  0  0  0  0  0  0  0  0  0  0  0
  138.3237   67.5952  220.2293 H   0  0  0  0  0  0  0  0  0  0  0  0
  139.5700   66.7703  221.1533 H   0  0  0  0  0  0  0  0  0  0  0  0
  137.0605   68.2398  222.1706 H   0  0  0  0  0  0  0  0  0  0  0  0
  137.6674   66.7300  222.7596 H   0  0  0  0  0  0  0  0  0  0  0  0
  139.7234   67.9147  223.7439 H   0  0  0  0  0  0  0  0  0  0  0  0
  137.6947   69.9286  224.4144 H   0  0  0  0  0  0  0  0  0  0  0  0
  137.3007   68.2546  224.8093 H   0  0  0  0  0  0  0  0  0  0  0  0
  139.3427   66.8075  225.6518 H   0  0  0  0  0  0  0  0  0  0  0  0
  141.0686   66.8433  227.4633 H   0  0  0  0  0  0  0  0  0  0  0  0
  141.8316   68.9731  228.4466 H   0  0  0  0  0  0  0  0  0  0  0  0
  139.1420   71.1256  225.8138 H   0  0  0  0  0  0  0  0  0  0  0  0
  137.9252   75.4236  221.9170 H   0  0  0  0  0  0  0  0  0  0  0  0
  137.4531   77.7607  222.6803 H   0  0  0  0  0  0  0  0  0  0  0  0
  138.2818   79.9441  223.4203 H   0  0  0  0  0  0  0  0  0  0  0  0
  140.1574   81.4488  223.9632 H   0  0  0  0  0  0  0  0  0  0  0  0
  142.4979   80.6619  223.7533 H   0  0  0  0  0  0  0  0  0  0  0  0
  142.9271   78.3220  222.9897 H   0  0  0  0  0  0  0  0  0  0  0  0
  1  2  2  0
  2  3  1  0
  3  4  1  0
  4  5  1  0
  5  6  2  0
  5  7  1  0
  7  8  1  0
  8  9  1  0
  9 10  1  0
 10 11  1  0
 11 12  1  0
 12 13  1  0
 13 14  2  0
 14 15  1  0
 15 16  2  0
 16 17  1  0
 17 18  1  0
 17 19  2  0
  2 20  1  0
 20 21  2  0
 21 22  1  0
 22 23  2  0
 23 24  1  0
 24 25  2  0
 25 26  1  0
 26 27  2  0
 27 28  1  0
 28 29  2  0
 11  7  1  0
 19 13  1  0
 29 20  1  0
 28 23  1  0
  3 30  1  0
  4 31  1  0
  4 32  1  0
  8 33  1  0
  8 34  1  0
  9 35  1  0
  9 36  1  0
 10 37  1  0
 10 38  1  0
 11 39  1  1
 12 40  1  0
 12 41  1  0
 14 42  1  0
 15 43  1  0
 16 44  1  0
 19 45  1  0
 21 46  1  0
 22 47  1  0
 24 48  1  0
 25 49  1  0
 26 50  1  0
 27 51  1  0
M  END
>  <smiles>  (41) 
O=C(NCC(=O)N1CCCC1Cc1cccc(Cl)c1)c1ccc2ccccc2n1

>  <score_type>  (41) 
oracle

>  <origin>  (41) 
autodockgpu

>  <m_score__min__energy>  (41) 
-9.2899999999999991

>  <m_primary>  (41) 
energy

>  <rmsd>  (41) 
8.095431207402868

>  <m_score__min__rmsd>  (41) 
8.095431207402868

>  <meeko>  (41) 
{"free_energy": -8.85, "intermolecular_energy": -10.64, "internal_energy": -1.88, "cluster_size": 4, "cluster_id": 3, "rank_in_cluster": 1}

>  <energy>  (41) 
-9.12

>  <cluster_rmsd>  (41) 
0.19

>  <cluster>  (41) 
2

$$$$

     RDKit          3D

 51 54  0  0  0  0  0  0  0  0999 V2000
  141.2970   74.4470  220.7560 O   0  0  0  0  0  0  0  0  0  0  0  0
  140.3530   74.6300  221.5710 C   0  0  0  0  0  0  0  0  0  0  0  0
  139.5740   73.5450  222.0090 N   0  0  0  0  0  0  0  0  0  0  0  0
  139.7840   72.1790  221.5790 C   0  0  0  0  0  0  0  0  0  0  0  0
  138.9140   71.2890  222.3790 C   0  0  0  0  0  0  0  0  0  0  0  0
  137.9910   71.8170  223.0520 O   0  0  0  0  0  0  0  0  0  0  0  0
  139.1560   69.8840  222.3540 N   0  0  0  0  0  0  0  0  0  0  0  0
  139.6260   69.0960  221.2070 C   0  0  0  0  0  0  0  0  0  0  0  0
  139.1340   67.6850  221.4510 C   0  0  0  0  0  0  0  0  0  0  0  0
  138.2690   67.8080  222.7100 C   0  0  0  0  0  0  0  0  0  0  0  0
  139.0020   68.9170  223.4200 C   0  0  2  0  0  0  0  0  0  0  0  0
  138.2200   69.4480  224.6010 C   0  0  0  0  0  0  0  0  0  0  0  0
  139.2160   69.5190  225.7270 C   0  0  0  0  0  0  0  0  0  0  0  0
  139.5160   68.3420  226.3860 C   0  0  0  0  0  0  0  0  0  0  0  0
  140.4400   68.4060  227.4320 C   0  0  0  0  0  0  0  0  0  0  0  0
  141.0340   69.5900  227.7990 C   0  0  0  0  0  0  0  0  0  0  0  0
  140.7060   70.7640  227.1100 C   0  0  0  0  0  0  0  0  0  0  0  0
  141.4800   72.2660  227.5990 Cl  0  0  0  0  0  0  0  0  0  0  0  0
  139.7890   70.7330  226.0630 C   0  0  0  0  0  0  0  0  0  0  0  0
  140.0660   75.9890  222.0650 C   0  0  0  0  0  0  0  0  0  0  0  0
  138.7630   76.3840  222.2970 C   0  0  0  0  0  0  0  0  0  0  0  0
  138.5560   77.6790  222.7630 C   0  0  0  0  0  0  0  0  0  0  0  0
  139.6140   78.5310  222.9840 C   0  0  0  0  0  0  0  0  0  0  0  0
  139.4510   79.8250  223.4470 C   0  0  0  0  0  0  0  0  0  0  0  0
  140.5300   80.6650  223.6630 C   0  0  0  0  0  0  0  0  0  0  0  0
  141.8070   80.2340  223.4200 C   0  0  0  0  0  0  0  0  0  0  0  0
  141.9940   78.9360  222.9540 C   0  0  0  0  0  0  0  0  0  0  0  0
  140.9010   78.0940  222.7390 C   0  0  0  0  0  0  0  0  0  0  0  0
  141.0840   76.8450  222.2900 N   0  0  0  0  0  0  0  0  0  0  0  0
  138.7970   73.7620  222.6940 H   0  0  0  0  0  0  0  0  0  0  0  0
  139.5302   72.0837  220.5129 H   0  0  0  0  0  0  0  0  0  0  0  0
  140.8382   71.8995  221.7226 H   0  0  0  0  0  0  0  0  0  0  0  0
  139.2055   69.4925  220.2710 H   0  0  0  0  0  0  0  0  0  0  0  0
  140.7211   69.1333  221.1098 H   0  0  0  0  0  0  0  0  0  0  0  0
  138.5370   67.3261  220.5997 H   0  0  0  0  0  0  0  0  0  0  0  0
  139.9562   66.9641  221.5703 H   0  0  0  0  0  0  0  0  0  0  0  0
  137.2339   68.0912  222.4687 H   0  0  0  0  0  0  0  0  0  0  0  0
  138.1574   66.8796  223.2894 H   0  0  0  0  0  0  0  0  0  0  0  0
  139.9572   68.6154  223.8746 H   0  0  0  0  0  0  0  0  0  0  0  0
  137.8152   70.4465  224.3793 H   0  0  0  0  0  0  0  0  0  0  0  0
  137.3606   68.8079  224.8491 H   0  0  0  0  0  0  0  0  0  0  0  0
  139.0451   67.3906  226.0979 H   0  0  0  0  0  0  0  0  0  0  0  0
  140.6987   67.4854  227.9757 H   0  0  0  0  0  0  0  0  0  0  0  0
  141.7595   69.6150  228.6254 H   0  0  0  0  0  0  0  0  0  0  0  0
  139.5264   71.6507  225.5164 H   0  0  0  0  0  0  0  0  0  0  0  0
  137.9198   75.7002  222.1199 H   0  0  0  0  0  0  0  0  0  0  0  0
  137.5308   78.0270  222.9577 H   0  0  0  0  0  0  0  0  0  0  0  0
  138.4355   80.1965  223.6491 H   0  0  0  0  0  0  0  0  0  0  0  0
  140.3603   81.6870  224.0328 H   0  0  0  0  0  0  0  0  0  0  0  0
  142.6664   80.8994  223.5895 H   0  0  0  0  0  0  0  0  0  0  0  0
  143.0118   78.5702  222.7533 H   0  0  0  0  0  0  0  0  0  0  0  0
  1  2  2  0
  2  3  1  0
  3  4  1  0
  4  5  1  0
  5  6  2  0
  5  7  1  0
  7  8  1  0
  8  9  1  0
  9 10  1  0
 10 11  1  0
 11 12  1  0
 12 13  1  0
 13 14  2  0
 14 15  1  0
 15 16  2  0
 16 17  1  0
 17 18  1  0
 17 19  2  0
  2 20  1  0
 20 21  2  0
 21 22  1  0
 22 23  2  0
 23 24  1  0
 24 25  2  0
 25 26  1  0
 26 27  2  0
 27 28  1  0
 28 29  2  0
 11  7  1  0
 19 13  1  0
 29 20  1  0
 28 23  1  0
  3 30  1  0
  4 31  1  0
  4 32  1  0
  8 33  1  0
  8 34  1  0
  9 35  1  0
  9 36  1  0
 10 37  1  0
 10 38  1  0
 11 39  1  1
 12 40  1  0
 12 41  1  0
 14 42  1  0
 15 43  1  0
 16 44  1  0
 19 45  1  0
 21 46  1  0
 22 47  1  0
 24 48  1  0
 25 49  1  0
 26 50  1  0
 27 51  1  0
M  END
>  <smiles>  (42) 
O=C(NCC(=O)N1CCCC1Cc1cccc(Cl)c1)c1ccc2ccccc2n1

>  <score_type>  (42) 
oracle

>  <origin>  (42) 
autodockgpu

>  <m_score__min__energy>  (42) 
-9.2899999999999991

>  <m_primary>  (42) 
energy

>  <rmsd>  (42) 
8.147509596839777

>  <m_score__min__rmsd>  (42) 
8.147509596839777

>  <meeko>  (42) 
{"free_energy": -8.82, "intermolecular_energy": -10.61, "internal_energy": -1.9, "cluster_size": 4, "cluster_id": 3, "rank_in_cluster": 3}

>  <energy>  (42) 
-8.82

>  <cluster_rmsd>  (42) 
0.77

>  <cluster>  (42) 
2

$$$$

     RDKit          3D

 51 54  0  0  0  0  0  0  0  0999 V2000
  139.6730   71.2350  221.1060 O   0  0  0  0  0  0  0  0  0  0  0  0
  140.2240   71.8170  222.0790 C   0  0  0  0  0  0  0  0  0  0  0  0
  140.9630   72.9940  221.8750 N   0  0  0  0  0  0  0  0  0  0  0  0
  141.1450   73.6160  220.5800 C   0  0  0  0  0  0  0  0  0  0  0  0
  140.0270   74.5530  220.3390 C   0  0  0  0  0  0  0  0  0  0  0  0
  139.6100   74.6790  219.1580 O   0  0  0  0  0  0  0  0  0  0  0  0
  139.4750   75.2680  221.4420 N   0  0  0  0  0  0  0  0  0  0  0  0
  138.1850   75.0080  222.0970 C   0  0  0  0  0  0  0  0  0  0  0  0
  137.7720   76.3240  222.7210 C   0  0  0  0  0  0  0  0  0  0  0  0
  138.8410   77.3120  222.2420 C   0  0  0  0  0  0  0  0  0  0  0  0
  140.0310   76.3900  222.1670 C   0  0  2  0  0  0  0  0  0  0  0  0
  141.2050   77.0340  221.4640 C   0  0  0  0  0  0  0  0  0  0  0  0
  141.4240   78.3360  222.1840 C   0  0  0  0  0  0  0  0  0  0  0  0
  141.7630   78.2750  223.5230 C   0  0  0  0  0  0  0  0  0  0  0  0
  141.9660   79.4830  224.1930 C   0  0  0  0  0  0  0  0  0  0  0  0
  141.8370   80.6930  223.5550 C   0  0  0  0  0  0  0  0  0  0  0  0
  141.4920   80.7200  222.1980 C   0  0  0  0  0  0  0  0  0  0  0  0
  141.3330   82.2810  221.4050 Cl  0  0  0  0  0  0  0  0  0  0  0  0
  141.2820   79.5320  221.5020 C   0  0  0  0  0  0  0  0  0  0  0  0
  140.0920   71.2570  223.4370 C   0  0  0  0  0  0  0  0  0  0  0  0
  139.3860   70.0880  223.6410 C   0  0  0  0  0  0  0  0  0  0  0  0
  139.2970   69.6100  224.9450 C   0  0  0  0  0  0  0  0  0  0  0  0
  139.8920   70.2800  225.9900 C   0  0  0  0  0  0  0  0  0  0  0  0
  139.8260   69.8370  227.2990 C   0  0  0  0  0  0  0  0  0  0  0  0
  140.4330   70.5280  228.3340 C   0  0  0  0  0  0  0  0  0  0  0  0
  141.1250   71.6850  228.0880 C   0  0  0  0  0  0  0  0  0  0  0  0
  141.2030   72.1470  226.7780 C   0  0  0  0  0  0  0  0  0  0  0  0
  140.5890   71.4460  225.7390 C   0  0  0  0  0  0  0  0  0  0  0  0
  140.6660   71.8930  224.4790 N   0  0  0  0  0  0  0  0  0  0  0  0
  141.4010   73.4370  222.7300 H   0  0  0  0  0  0  0  0  0  0  0  0
  142.0977   74.1657  220.5647 H   0  0  0  0  0  0  0  0  0  0  0  0
  141.1623   72.8456  219.7950 H   0  0  0  0  0  0  0  0  0  0  0  0
  137.4380   74.6824  221.3581 H   0  0  0  0  0  0  0  0  0  0  0  0
  138.2642   74.2086  222.8485 H   0  0  0  0  0  0  0  0  0  0  0  0
  136.7743   76.6270  222.3706 H   0  0  0  0  0  0  0  0  0  0  0  0
  137.7054   76.2705  223.8177 H   0  0  0  0  0  0  0  0  0  0  0  0
  138.5921   77.7387  221.2592 H   0  0  0  0  0  0  0  0  0  0  0  0
  138.9776   78.1952  222.8833 H   0  0  0  0  0  0  0  0  0  0  0  0
  140.4545   76.1108  223.1431 H   0  0  0  0  0  0  0  0  0  0  0  0
  142.0979   76.3959  221.5390 H   0  0  0  0  0  0  0  0  0  0  0  0
  141.0130   77.1826  220.3911 H   0  0  0  0  0  0  0  0  0  0  0  0
  141.8689   77.3105  224.0412 H   0  0  0  0  0  0  0  0  0  0  0  0
  142.2362   79.4656  225.2592 H   0  0  0  0  0  0  0  0  0  0  0  0
  142.0031   81.6312  224.1047 H   0  0  0  0  0  0  0  0  0  0  0  0
  141.0099   79.5440  220.4362 H   0  0  0  0  0  0  0  0  0  0  0  0
  138.9117   69.5545  222.8041 H   0  0  0  0  0  0  0  0  0  0  0  0
  138.7420   68.6814  225.1440 H   0  0  0  0  0  0  0  0  0  0  0  0
  139.2765   68.9109  227.5235 H   0  0  0  0  0  0  0  0  0  0  0  0
  140.3591   70.1450  229.3625 H   0  0  0  0  0  0  0  0  0  0  0  0
  141.6081   72.2363  228.9082 H   0  0  0  0  0  0  0  0  0  0  0  0
  141.7539   73.0736  226.5591 H   0  0  0  0  0  0  0  0  0  0  0  0
  1  2  2  0
  2  3  1  0
  3  4  1  0
  4  5  1  0
  5  6  2  0
  5  7  1  0
  7  8  1  0
  8  9  1  0
  9 10  1  0
 10 11  1  0
 11 12  1  0
 12 13  1  0
 13 14  2  0
 14 15  1  0
 15 16  2  0
 16 17  1  0
 17 18  1  0
 17 19  2  0
  2 20  1  0
 20 21  2  0
 21 22  1  0
 22 23  2  0
 23 24  1  0
 24 25  2  0
 25 26  1  0
 26 27  2  0
 27 28  1  0
 28 29  2  0
 11  7  1  0
 19 13  1  0
 29 20  1  0
 28 23  1  0
  3 30  1  0
  4 31  1  0
  4 32  1  0
  8 33  1  0
  8 34  1  0
  9 35  1  0
  9 36  1  0
 10 37  1  0
 10 38  1  0
 11 39  1  1
 12 40  1  0
 12 41  1  0
 14 42  1  0
 15 43  1  0
 16 44  1  0
 19 45  1  0
 21 46  1  0
 22 47  1  0
 24 48  1  0
 25 49  1  0
 26 50  1  0
 27 51  1  0
M  END
>  <smiles>  (43) 
O=C(NCC(=O)N1CCCC1Cc1cccc(Cl)c1)c1ccc2ccccc2n1

>  <score_type>  (43) 
oracle

>  <origin>  (43) 
autodockgpu

>  <m_score__min__energy>  (43) 
-9.2899999999999991

>  <m_primary>  (43) 
energy

>  <rmsd>  (43) 
2.8520898691144008

>  <m_score__min__rmsd>  (43) 
2.8520898691144008

>  <meeko>  (43) 
{"free_energy": -8.34, "intermolecular_energy": -10.13, "internal_energy": -1.94, "cluster_size": 39, "cluster_id": 1, "rank_in_cluster": 36}

>  <energy>  (43) 
-8.69

>  <cluster_rmsd>  (43) 
1.21

>  <cluster>  (43) 
2

$$$$

     RDKit          3D

 51 54  0  0  0  0  0  0  0  0999 V2000
  141.8430   76.1650  218.5990 O   0  0  0  0  0  0  0  0  0  0  0  0
  141.8440   76.4500  219.8270 C   0  0  0  0  0  0  0  0  0  0  0  0
  141.8630   75.4290  220.7920 N   0  0  0  0  0  0  0  0  0  0  0  0
  141.8820   74.0170  220.4690 C   0  0  0  0  0  0  0  0  0  0  0  0
  141.0330   73.2940  221.4410 C   0  0  0  0  0  0  0  0  0  0  0  0
  140.4570   73.9680  222.3340 O   0  0  0  0  0  0  0  0  0  0  0  0
  140.9050   71.8790  221.3260 N   0  0  0  0  0  0  0  0  0  0  0  0
  141.3470   71.0480  220.1980 C   0  0  0  0  0  0  0  0  0  0  0  0
  140.4730   69.8120  220.2340 C   0  0  0  0  0  0  0  0  0  0  0  0
  139.4650   70.1050  221.3500 C   0  0  0  0  0  0  0  0  0  0  0  0
  140.3250   70.9410  222.2630 C   0  0  2  0  0  0  0  0  0  0  0  0
  139.5160   71.6070  223.3530 C   0  0  0  0  0  0  0  0  0  0  0  0
  140.0210   71.0060  224.6360 C   0  0  0  0  0  0  0  0  0  0  0  0
  140.6870   71.8430  225.5120 C   0  0  0  0  0  0  0  0  0  0  0  0
  141.1580   71.2870  226.7030 C   0  0  0  0  0  0  0  0  0  0  0  0
  140.9700   69.9590  227.0050 C   0  0  0  0  0  0  0  0  0  0  0  0
  140.2910   69.1400  226.0950 C   0  0  0  0  0  0  0  0  0  0  0  0
  140.0640   67.4440  226.5030 Cl  0  0  0  0  0  0  0  0  0  0  0  0
  139.8110   69.6640  224.8980 C   0  0  0  0  0  0  0  0  0  0  0  0
  141.8260   77.8620  220.2500 C   0  0  0  0  0  0  0  0  0  0  0  0
  141.8110   78.8700  219.3080 C   0  0  0  0  0  0  0  0  0  0  0  0
  141.7950   80.1830  219.7690 C   0  0  0  0  0  0  0  0  0  0  0  0
  141.7940   80.4620  221.1170 C   0  0  0  0  0  0  0  0  0  0  0  0
  141.7770   81.7520  221.6160 C   0  0  0  0  0  0  0  0  0  0  0  0
  141.7760   82.0090  222.9770 C   0  0  0  0  0  0  0  0  0  0  0  0
  141.7920   80.9790  223.8800 C   0  0  0  0  0  0  0  0  0  0  0  0
  141.8080   79.6730  223.3990 C   0  0  0  0  0  0  0  0  0  0  0  0
  141.8090   79.4210  222.0250 C   0  0  0  0  0  0  0  0  0  0  0  0
  141.8250   78.1640  221.5650 N   0  0  0  0  0  0  0  0  0  0  0  0
  141.8640   75.7300  221.8060 H   0  0  0  0  0  0  0  0  0  0  0  0
  141.4912   73.8651  219.4520 H   0  0  0  0  0  0  0  0  0  0  0  0
  142.9129   73.6364  220.5176 H   0  0  0  0  0  0  0  0  0  0  0  0
  141.2113   71.5864  219.2484 H   0  0  0  0  0  0  0  0  0  0  0  0
  142.4144   70.7934  220.2744 H   0  0  0  0  0  0  0  0  0  0  0  0
  139.9602   69.6673  219.2717 H   0  0  0  0  0  0  0  0  0  0  0  0
  141.0478   68.8914  220.4129 H   0  0  0  0  0  0  0  0  0  0  0  0
  138.5961   70.6679  220.9784 H   0  0  0  0  0  0  0  0  0  0  0  0
  139.0191   69.2151  221.8183 H   0  0  0  0  0  0  0  0  0  0  0  0
  141.0762   70.3718  222.8303 H   0  0  0  0  0  0  0  0  0  0  0  0
  139.6789   72.6948  223.3454 H   0  0  0  0  0  0  0  0  0  0  0  0
  138.4355   71.4491  223.2203 H   0  0  0  0  0  0  0  0  0  0  0  0
  140.8401   72.9072  225.2793 H   0  0  0  0  0  0  0  0  0  0  0  0
  141.6936   71.9283  227.4185 H   0  0  0  0  0  0  0  0  0  0  0  0
  141.3488   69.5447  227.9510 H   0  0  0  0  0  0  0  0  0  0  0  0
  139.2776   69.0263  224.1778 H   0  0  0  0  0  0  0  0  0  0  0  0
  141.8117   78.6440  218.2315 H   0  0  0  0  0  0  0  0  0  0  0  0
  141.7829   81.0109  219.0448 H   0  0  0  0  0  0  0  0  0  0  0  0
  141.7639   82.5973  220.9123 H   0  0  0  0  0  0  0  0  0  0  0  0
  141.7622   83.0488  223.3358 H   0  0  0  0  0  0  0  0  0  0  0  0
  141.7922   81.1797  224.9615 H   0  0  0  0  0  0  0  0  0  0  0  0
  141.8200   78.8315  224.1074 H   0  0  0  0  0  0  0  0  0  0  0  0
  1  2  2  0
  2  3  1  0
  3  4  1  0
  4  5  1  0
  5  6  2  0
  5  7  1  0
  7  8  1  0
  8  9  1  0
  9 10  1  0
 10 11  1  0
 11 12  1  0
 12 13  1  0
 13 14  2  0
 14 15  1  0
 15 16  2  0
 16 17  1  0
 17 18  1  0
 17 19  2  0
  2 20  1  0
 20 21  2  0
 21 22  1  0
 22 23  2  0
 23 24  1  0
 24 25  2  0
 25 26  1  0
 26 27  2  0
 27 28  1  0
 28 29  2  0
 11  7  1  0
 19 13  1  0
 29 20  1  0
 28 23  1  0
  3 30  1  0
  4 31  1  0
  4 32  1  0
  8 33  1  0
  8 34  1  0
  9 35  1  0
  9 36  1  0
 10 37  1  0
 10 38  1  0
 11 39  1  1
 12 40  1  0
 12 41  1  0
 14 42  1  0
 15 43  1  0
 16 44  1  0
 19 45  1  0
 21 46  1  0
 22 47  1  0
 24 48  1  0
 25 49  1  0
 26 50  1  0
 27 51  1  0
M  END
>  <smiles>  (44) 
O=C(NCC(=O)N1CCCC1Cc1cccc(Cl)c1)c1ccc2ccccc2n1

>  <score_type>  (44) 
oracle

>  <origin>  (44) 
autodockgpu

>  <m_score__min__energy>  (44) 
-9.2899999999999991

>  <m_primary>  (44) 
energy

>  <rmsd>  (44) 
8.690181121787777

>  <m_score__min__rmsd>  (44) 
8.690181121787777

>  <meeko>  (44) 
{"free_energy": -8.59, "intermolecular_energy": -10.38, "internal_energy": -1.98, "cluster_size": 3, "cluster_id": 4, "rank_in_cluster": 3}

>  <energy>  (44) 
-8.85

>  <cluster_rmsd>  (44) 
0.0

>  <cluster>  (44) 
3

$$$$

     RDKit          3D

 51 54  0  0  0  0  0  0  0  0999 V2000
  140.3170   71.1690  221.1390 O   0  0  0  0  0  0  0  0  0  0  0  0
  140.1510   71.8490  222.1880 C   0  0  0  0  0  0  0  0  0  0  0  0
  140.0950   73.2510  222.1220 N   0  0  0  0  0  0  0  0  0  0  0  0
  140.2180   74.0050  220.8920 C   0  0  0  0  0  0  0  0  0  0  0  0
  140.8210   75.3210  221.1970 C   0  0  0  0  0  0  0  0  0  0  0  0
  141.0140   75.6130  222.4060 O   0  0  0  0  0  0  0  0  0  0  0  0
  141.1540   76.1940  220.1210 N   0  0  0  0  0  0  0  0  0  0  0  0
  142.2000   75.9810  219.1120 C   0  0  0  0  0  0  0  0  0  0  0  0
  142.5870   77.3620  218.6260 C   0  0  0  0  0  0  0  0  0  0  0  0
  141.7890   78.3080  219.5300 C   0  0  0  0  0  0  0  0  0  0  0  0
  140.5610   77.4660  219.7670 C   0  0  2  0  0  0  0  0  0  0  0  0
  139.6810   78.0390  220.8550 C   0  0  0  0  0  0  0  0  0  0  0  0
  140.5400   79.0540  221.5580 C   0  0  0  0  0  0  0  0  0  0  0  0
  141.4290   78.5860  222.5090 C   0  0  0  0  0  0  0  0  0  0  0  0
  142.2270   79.5260  223.1630 C   0  0  0  0  0  0  0  0  0  0  0  0
  142.1420   80.8680  222.8800 C   0  0  0  0  0  0  0  0  0  0  0  0
  141.2320   81.3080  221.9110 C   0  0  0  0  0  0  0  0  0  0  0  0
  141.1410   83.0300  221.5670 Cl  0  0  0  0  0  0  0  0  0  0  0  0
  140.4210   80.3950  221.2420 C   0  0  0  0  0  0  0  0  0  0  0  0
  140.0140   71.1670  223.4880 C   0  0  0  0  0  0  0  0  0  0  0  0
  139.4250   69.9200  223.5600 C   0  0  0  0  0  0  0  0  0  0  0  0
  139.3240   69.3280  224.8160 C   0  0  0  0  0  0  0  0  0  0  0  0
  139.7970   69.9640  225.9410 C   0  0  0  0  0  0  0  0  0  0  0  0
  139.7160   69.4090  227.2060 C   0  0  0  0  0  0  0  0  0  0  0  0
  140.1990   70.0670  228.3250 C   0  0  0  0  0  0  0  0  0  0  0  0
  140.7770   71.3040  228.2090 C   0  0  0  0  0  0  0  0  0  0  0  0
  140.8680   71.8810  226.9450 C   0  0  0  0  0  0  0  0  0  0  0  0
  140.3790   71.2110  225.8220 C   0  0  0  0  0  0  0  0  0  0  0  0
  140.4680   71.7680  224.6070 N   0  0  0  0  0  0  0  0  0  0  0  0
  139.9530   73.7660  223.0360 H   0  0  0  0  0  0  0  0  0  0  0  0
  140.8609   73.4585  220.1862 H   0  0  0  0  0  0  0  0  0  0  0  0
  139.2255   74.1450  220.4389 H   0  0  0  0  0  0  0  0  0  0  0  0
  143.0678   75.4748  219.5600 H   0  0  0  0  0  0  0  0  0  0  0  0
  141.8457   75.3447  218.2876 H   0  0  0  0  0  0  0  0  0  0  0  0
  143.6680   77.5290  218.7420 H   0  0  0  0  0  0  0  0  0  0  0  0
  142.3700   77.5122  217.5581 H   0  0  0  0  0  0  0  0  0  0  0  0
  142.3228   78.5249  220.4670 H   0  0  0  0  0  0  0  0  0  0  0  0
  141.5943   79.3032  219.1037 H   0  0  0  0  0  0  0  0  0  0  0  0
  139.8771   77.4036  218.9077 H   0  0  0  0  0  0  0  0  0  0  0  0
  138.7923   78.5197  220.4201 H   0  0  0  0  0  0  0  0  0  0  0  0
  139.3149   77.2617  221.5418 H   0  0  0  0  0  0  0  0  0  0  0  0
  141.5042   77.5134  222.7411 H   0  0  0  0  0  0  0  0  0  0  0  0
  142.9427   79.1836  223.9249 H   0  0  0  0  0  0  0  0  0  0  0  0
  142.7822   81.5891  223.4092 H   0  0  0  0  0  0  0  0  0  0  0  0
  139.7028   80.7324  220.4803 H   0  0  0  0  0  0  0  0  0  0  0  0
  139.0497   69.4134  222.6586 H   0  0  0  0  0  0  0  0  0  0  0  0
  138.8586   68.3358  224.9107 H   0  0  0  0  0  0  0  0  0  0  0  0
  139.2551   68.4175  227.3263 H   0  0  0  0  0  0  0  0  0  0  0  0
  140.1180   69.5930  229.3143 H   0  0  0  0  0  0  0  0  0  0  0  0
  141.1609   71.8300  229.0955 H   0  0  0  0  0  0  0  0  0  0  0  0
  141.3291   72.8731  226.8303 H   0  0  0  0  0  0  0  0  0  0  0  0
  1  2  2  0
  2  3  1  0
  3  4  1  0
  4  5  1  0
  5  6  2  0
  5  7  1  0
  7  8  1  0
  8  9  1  0
  9 10  1  0
 10 11  1  0
 11 12  1  0
 12 13  1  0
 13 14  2  0
 14 15  1  0
 15 16  2  0
 16 17  1  0
 17 18  1  0
 17 19  2  0
  2 20  1  0
 20 21  2  0
 21 22  1  0
 22 23  2  0
 23 24  1  0
 24 25  2  0
 25 26  1  0
 26 27  2  0
 27 28  1  0
 28 29  2  0
 11  7  1  0
 19 13  1  0
 29 20  1  0
 28 23  1  0
  3 30  1  0
  4 31  1  0
  4 32  1  0
  8 33  1  0
  8 34  1  0
  9 35  1  0
  9 36  1  0
 10 37  1  0
 10 38  1  0
 11 39  1  6
 12 40  1  0
 12 41  1  0
 14 42  1  0
 15 43  1  0
 16 44  1  0
 19 45  1  0
 21 46  1  0
 22 47  1  0
 24 48  1  0
 25 49  1  0
 26 50  1  0
 27 51  1  0
M  END
>  <smiles>  (45) 
O=C(NCC(=O)N1CCCC1Cc1cccc(Cl)c1)c1ccc2ccccc2n1

>  <score_type>  (45) 
oracle

>  <origin>  (45) 
autodockgpu

>  <m_score__min__energy>  (45) 
-9.2899999999999991

>  <m_primary>  (45) 
energy

>  <rmsd>  (45) 
1.9448705093362033

>  <m_score__min__rmsd>  (45) 
1.9448705093362033

>  <meeko>  (45) 
{"free_energy": -8.5, "intermolecular_energy": -10.29, "internal_energy": -1.98, "cluster_size": 39, "cluster_id": 1, "rank_in_cluster": 33}

>  <energy>  (45) 
-8.83

>  <cluster_rmsd>  (45) 
1.55

>  <cluster>  (45) 
3

$$$$

     RDKit          3D

 51 54  0  0  0  0  0  0  0  0999 V2000
  140.1940   70.7950  221.2660 O   0  0  0  0  0  0  0  0  0  0  0  0
  139.9860   71.4030  222.3510 C   0  0  0  0  0  0  0  0  0  0  0  0
  139.8680   72.8030  222.3680 N   0  0  0  0  0  0  0  0  0  0  0  0
  139.9710   73.6340  221.1860 C   0  0  0  0  0  0  0  0  0  0  0  0
  140.0080   75.0530  221.6020 C   0  0  0  0  0  0  0  0  0  0  0  0
  139.5060   75.3520  222.7160 O   0  0  0  0  0  0  0  0  0  0  0  0
  140.6060   76.0110  220.7320 N   0  0  0  0  0  0  0  0  0  0  0  0
  141.5700   75.7380  219.6570 C   0  0  0  0  0  0  0  0  0  0  0  0
  142.3520   77.0210  219.4730 C   0  0  0  0  0  0  0  0  0  0  0  0
  141.8420   77.9290  220.5980 C   0  0  0  0  0  0  0  0  0  0  0  0
  140.4170   77.4450  220.6940 C   0  0  2  0  0  0  0  0  0  0  0  0
  139.7150   77.9890  221.9190 C   0  0  0  0  0  0  0  0  0  0  0  0
  140.5470   79.1640  222.3560 C   0  0  0  0  0  0  0  0  0  0  0  0
  141.4390   78.9630  223.3920 C   0  0  0  0  0  0  0  0  0  0  0  0
  142.2110   80.0520  223.8000 C   0  0  0  0  0  0  0  0  0  0  0  0
  142.0970   81.2830  223.1990 C   0  0  0  0  0  0  0  0  0  0  0  0
  141.1830   81.4530  222.1520 C   0  0  0  0  0  0  0  0  0  0  0  0
  141.0550   83.0370  221.4000 Cl  0  0  0  0  0  0  0  0  0  0  0  0
  140.3980   80.3860  221.7230 C   0  0  0  0  0  0  0  0  0  0  0  0
  139.8670   70.6400  223.6060 C   0  0  0  0  0  0  0  0  0  0  0  0
  139.2960   69.3820  223.6040 C   0  0  0  0  0  0  0  0  0  0  0  0
  139.2110   68.7110  224.8200 C   0  0  0  0  0  0  0  0  0  0  0  0
  139.6810   69.2840  225.9810 C   0  0  0  0  0  0  0  0  0  0  0  0
  139.6150   68.6490  227.2090 C   0  0  0  0  0  0  0  0  0  0  0  0
  140.0930   69.2440  228.3640 C   0  0  0  0  0  0  0  0  0  0  0  0
  140.6530   70.4940  228.3230 C   0  0  0  0  0  0  0  0  0  0  0  0
  140.7290   71.1500  227.0980 C   0  0  0  0  0  0  0  0  0  0  0  0
  140.2440   70.5440  225.9370 C   0  0  0  0  0  0  0  0  0  0  0  0
  140.3180   71.1770  224.7590 N   0  0  0  0  0  0  0  0  0  0  0  0
  139.6940   73.2560  223.3080 H   0  0  0  0  0  0  0  0  0  0  0  0
  140.8920   73.3852  220.6384 H   0  0  0  0  0  0  0  0  0  0  0  0
  139.1053   73.4595  220.5302 H   0  0  0  0  0  0  0  0  0  0  0  0
  142.2428   74.9166  219.9445 H   0  0  0  0  0  0  0  0  0  0  0  0
  141.0666   75.4324  218.7279 H   0  0  0  0  0  0  0  0  0  0  0  0
  143.4320   76.8392  219.5762 H   0  0  0  0  0  0  0  0  0  0  0  0
  142.2127   77.4630  218.4754 H   0  0  0  0  0  0  0  0  0  0  0  0
  142.3930   77.7666  221.5361 H   0  0  0  0  0  0  0  0  0  0  0  0
  141.9551   79.0073  220.4124 H   0  0  0  0  0  0  0  0  0  0  0  0
  139.7657   77.7758  219.8716 H   0  0  0  0  0  0  0  0  0  0  0  0
  138.6935   78.3108  221.6681 H   0  0  0  0  0  0  0  0  0  0  0  0
  139.6214   77.2319  222.7115 H   0  0  0  0  0  0  0  0  0  0  0  0
  141.5371   77.9808  223.8774 H   0  0  0  0  0  0  0  0  0  0  0  0
  142.9288   79.9218  224.6233 H   0  0  0  0  0  0  0  0  0  0  0  0
  142.7175   82.1260  223.5372 H   0  0  0  0  0  0  0  0  0  0  0  0
  139.6773   80.5110  220.9015 H   0  0  0  0  0  0  0  0  0  0  0  0
  138.9221   68.9273  222.6748 H   0  0  0  0  0  0  0  0  0  0  0  0
  138.7616   67.7076  224.8546 H   0  0  0  0  0  0  0  0  0  0  0  0
  139.1708   67.6445  227.2689 H   0  0  0  0  0  0  0  0  0  0  0  0
  140.0227   68.7090  229.3225 H   0  0  0  0  0  0  0  0  0  0  0  0
  141.0344   70.9689  229.2390 H   0  0  0  0  0  0  0  0  0  0  0  0
  141.1748   72.1542  227.0438 H   0  0  0  0  0  0  0  0  0  0  0  0
  1  2  2  0
  2  3  1  0
  3  4  1  0
  4  5  1  0
  5  6  2  0
  5  7  1  0
  7  8  1  0
  8  9  1  0
  9 10  1  0
 10 11  1  0
 11 12  1  0
 12 13  1  0
 13 14  2  0
 14 15  1  0
 15 16  2  0
 16 17  1  0
 17 18  1  0
 17 19  2  0
  2 20  1  0
 20 21  2  0
 21 22  1  0
 22 23  2  0
 23 24  1  0
 24 25  2  0
 25 26  1  0
 26 27  2  0
 27 28  1  0
 28 29  2  0
 11  7  1  0
 19 13  1  0
 29 20  1  0
 28 23  1  0
  3 30  1  0
  4 31  1  0
  4 32  1  0
  8 33  1  0
  8 34  1  0
  9 35  1  0
  9 36  1  0
 10 37  1  0
 10 38  1  0
 11 39  1  6
 12 40  1  0
 12 41  1  0
 14 42  1  0
 15 43  1  0
 16 44  1  0
 19 45  1  0
 21 46  1  0
 22 47  1  0
 24 48  1  0
 25 49  1  0
 26 50  1  0
 27 51  1  0
M  END
>  <smiles>  (46) 
O=C(NCC(=O)N1CCCC1Cc1cccc(Cl)c1)c1ccc2ccccc2n1

>  <score_type>  (46) 
oracle

>  <origin>  (46) 
autodockgpu

>  <m_score__min__energy>  (46) 
-9.2899999999999991

>  <m_primary>  (46) 
energy

>  <rmsd>  (46) 
1.8631181986307725

>  <m_score__min__rmsd>  (46) 
1.8631181986307725

>  <meeko>  (46) 
{"free_energy": -9.09, "intermolecular_energy": -10.88, "internal_energy": -1.82, "cluster_size": 39, "cluster_id": 1, "rank_in_cluster": 6}

>  <energy>  (46) 
-8.82

>  <cluster_rmsd>  (46) 
0.51

>  <cluster>  (46) 
3

$$$$

     RDKit          3D

 51 54  0  0  0  0  0  0  0  0999 V2000
  140.6380   71.4650  221.2820 O   0  0  0  0  0  0  0  0  0  0  0  0
  140.2200   72.0460  222.3190 C   0  0  0  0  0  0  0  0  0  0  0  0
  139.8640   73.4050  222.2770 N   0  0  0  0  0  0  0  0  0  0  0  0
  139.9440   74.2200  221.0830 C   0  0  0  0  0  0  0  0  0  0  0  0
  139.7560   75.6380  221.4610 C   0  0  0  0  0  0  0  0  0  0  0  0
  139.8610   75.9410  222.6770 O   0  0  0  0  0  0  0  0  0  0  0  0
  139.4660   76.5910  220.4410 N   0  0  0  0  0  0  0  0  0  0  0  0
  138.3440   76.5470  219.4930 C   0  0  0  0  0  0  0  0  0  0  0  0
  138.7960   77.3410  218.2870 C   0  0  0  0  0  0  0  0  0  0  0  0
  140.2580   77.6830  218.5960 C   0  0  0  0  0  0  0  0  0  0  0  0
  140.1840   77.7990  220.0970 C   0  0  2  0  0  0  0  0  0  0  0  0
  141.5570   77.8800  220.7280 C   0  0  0  0  0  0  0  0  0  0  0  0
  141.4210   78.8990  221.8260 C   0  0  0  0  0  0  0  0  0  0  0  0
  142.5860   79.4200  222.3590 C   0  0  0  0  0  0  0  0  0  0  0  0
  142.4630   80.3650  223.3780 C   0  0  0  0  0  0  0  0  0  0  0  0
  141.2350   80.7710  223.8430 C   0  0  0  0  0  0  0  0  0  0  0  0
  140.0750   80.2230  223.2820 C   0  0  0  0  0  0  0  0  0  0  0  0
  138.5150   80.7580  223.8930 Cl  0  0  0  0  0  0  0  0  0  0  0  0
  140.1640   79.2780  222.2630 C   0  0  0  0  0  0  0  0  0  0  0  0
  140.1030   71.2940  223.5830 C   0  0  0  0  0  0  0  0  0  0  0  0
  139.5260   70.0400  223.5950 C   0  0  0  0  0  0  0  0  0  0  0  0
  139.4450   69.3810  224.8170 C   0  0  0  0  0  0  0  0  0  0  0  0
  139.9240   69.9610  225.9700 C   0  0  0  0  0  0  0  0  0  0  0  0
  139.8620   69.3380  227.2040 C   0  0  0  0  0  0  0  0  0  0  0  0
  140.3510   69.9400  228.3510 C   0  0  0  0  0  0  0  0  0  0  0  0
  140.9170   71.1860  228.2960 C   0  0  0  0  0  0  0  0  0  0  0  0
  140.9900   71.8310  227.0640 C   0  0  0  0  0  0  0  0  0  0  0  0
  140.4940   71.2170  225.9110 C   0  0  0  0  0  0  0  0  0  0  0  0
  140.5650   71.8390  224.7270 N   0  0  0  0  0  0  0  0  0  0  0  0
  139.5190   73.8360  223.1790 H   0  0  0  0  0  0  0  0  0  0  0  0
  140.9296   74.0903  220.6121 H   0  0  0  0  0  0  0  0  0  0  0  0
  139.1635   73.9163  220.3699 H   0  0  0  0  0  0  0  0  0  0  0  0
  138.1236   75.5078  219.2075 H   0  0  0  0  0  0  0  0  0  0  0  0
  137.4250   76.9628  219.9318 H   0  0  0  0  0  0  0  0  0  0  0  0
  138.7208   76.7372  217.3706 H   0  0  0  0  0  0  0  0  0  0  0  0
  138.1794   78.2351  218.1130 H   0  0  0  0  0  0  0  0  0  0  0  0
  140.9410   76.8803  218.2811 H   0  0  0  0  0  0  0  0  0  0  0  0
  140.6462   78.5733  218.0796 H   0  0  0  0  0  0  0  0  0  0  0  0
  139.6935   78.7140  220.4606 H   0  0  0  0  0  0  0  0  0  0  0  0
  141.8511   76.9037  221.1408 H   0  0  0  0  0  0  0  0  0  0  0  0
  142.3313   78.1594  219.9984 H   0  0  0  0  0  0  0  0  0  0  0  0
  143.5731   79.1011  221.9930 H   0  0  0  0  0  0  0  0  0  0  0  0
  143.3728   80.7965  223.8209 H   0  0  0  0  0  0  0  0  0  0  0  0
  141.1642   81.5183  224.6471 H   0  0  0  0  0  0  0  0  0  0  0  0
  139.2574   78.8436  221.8165 H   0  0  0  0  0  0  0  0  0  0  0  0
  139.1444   69.5790  222.6721 H   0  0  0  0  0  0  0  0  0  0  0  0
  138.9909   68.3802  224.8630 H   0  0  0  0  0  0  0  0  0  0  0  0
  139.4118   68.3369  227.2757 H   0  0  0  0  0  0  0  0  0  0  0  0
  140.2843   69.4132  229.3144 H   0  0  0  0  0  0  0  0  0  0  0  0
  141.3057   71.6670  229.2057 H   0  0  0  0  0  0  0  0  0  0  0  0
  141.4417   72.8318  226.9980 H   0  0  0  0  0  0  0  0  0  0  0  0
  1  2  2  0
  2  3  1  0
  3  4  1  0
  4  5  1  0
  5  6  2  0
  5  7  1  0
  7  8  1  0
  8  9  1  0
  9 10  1  0
 10 11  1  0
 11 12  1  0
 12 13  1  0
 13 14  2  0
 14 15  1  0
 15 16  2  0
 16 17  1  0
 17 18  1  0
 17 19  2  0
  2 20  1  0
 20 21  2  0
 21 22  1  0
 22 23  2  0
 23 24  1  0
 24 25  2  0
 25 26  1  0
 26 27  2  0
 27 28  1  0
 28 29  2  0
 11  7  1  0
 19 13  1  0
 29 20  1  0
 28 23  1  0
  3 30  1  0
  4 31  1  0
  4 32  1  0
  8 33  1  0
  8 34  1  0
  9 35  1  0
  9 36  1  0
 10 37  1  0
 10 38  1  0
 11 39  1  6
 12 40  1  0
 12 41  1  0
 14 42  1  0
 15 43  1  0
 16 44  1  0
 19 45  1  0
 21 46  1  0
 22 47  1  0
 24 48  1  0
 25 49  1  0
 26 50  1  0
 27 51  1  0
M  END
>  <smiles>  (47) 
O=C(NCC(=O)N1CCCC1Cc1cccc(Cl)c1)c1ccc2ccccc2n1

>  <score_type>  (47) 
oracle

>  <origin>  (47) 
autodockgpu

>  <m_score__min__energy>  (47) 
-9.2899999999999991

>  <m_primary>  (47) 
energy

>  <rmsd>  (47) 
1.5362734042439057

>  <m_score__min__rmsd>  (47) 
1.5362734042439057

>  <meeko>  (47) 
{"free_energy": -8.71, "intermolecular_energy": -10.5, "internal_energy": -2.11, "cluster_size": 39, "cluster_id": 1, "rank_in_cluster": 26}

>  <energy>  (47) 
-8.74

>  <cluster_rmsd>  (47) 
1.71

>  <cluster>  (47) 
3

$$$$

     RDKit          3D

 51 54  0  0  0  0  0  0  0  0999 V2000
  140.2400   70.9880  221.1850 O   0  0  0  0  0  0  0  0  0  0  0  0
  139.9970   71.6390  222.2370 C   0  0  0  0  0  0  0  0  0  0  0  0
  139.8140   73.0310  222.1820 N   0  0  0  0  0  0  0  0  0  0  0  0
  139.8850   73.8050  220.9610 C   0  0  0  0  0  0  0  0  0  0  0  0
  140.3390   75.1740  221.2890 C   0  0  0  0  0  0  0  0  0  0  0  0
  140.0810   75.6200  222.4370 O   0  0  0  0  0  0  0  0  0  0  0  0
  141.0430   75.9230  220.3010 N   0  0  0  0  0  0  0  0  0  0  0  0
  142.2210   75.4820  219.5410 C   0  0  0  0  0  0  0  0  0  0  0  0
  142.9450   76.7480  219.1380 C   0  0  0  0  0  0  0  0  0  0  0  0
  142.1620   77.8620  219.8420 C   0  0  0  0  0  0  0  0  0  0  0  0
  140.7800   77.2610  219.8180 C   0  0  2  0  0  0  0  0  0  0  0  0
  139.8110   78.0320  220.6870 C   0  0  0  0  0  0  0  0  0  0  0  0
  140.5350   79.2990  221.0500 C   0  0  0  0  0  0  0  0  0  0  0  0
  140.4270   80.3670  220.1790 C   0  0  0  0  0  0  0  0  0  0  0  0
  141.0990   81.5440  220.5140 C   0  0  0  0  0  0  0  0  0  0  0  0
  141.8430   81.6480  221.6650 C   0  0  0  0  0  0  0  0  0  0  0  0
  141.9330   80.5470  222.5250 C   0  0  0  0  0  0  0  0  0  0  0  0
  142.8910   80.7040  223.9910 Cl  0  0  0  0  0  0  0  0  0  0  0  0
  141.2740   79.3590  222.2190 C   0  0  0  0  0  0  0  0  0  0  0  0
  139.9050   70.9350  223.5290 C   0  0  0  0  0  0  0  0  0  0  0  0
  139.3300   69.6820  223.5980 C   0  0  0  0  0  0  0  0  0  0  0  0
  139.2720   69.0680  224.8460 C   0  0  0  0  0  0  0  0  0  0  0  0
  139.7720   69.6910  225.9670 C   0  0  0  0  0  0  0  0  0  0  0  0
  139.7340   69.1140  227.2240 C   0  0  0  0  0  0  0  0  0  0  0  0
  140.2430   69.7590  228.3390 C   0  0  0  0  0  0  0  0  0  0  0  0
  140.8070   71.0030  228.2270 C   0  0  0  0  0  0  0  0  0  0  0  0
  140.8550   71.6010  226.9710 C   0  0  0  0  0  0  0  0  0  0  0  0
  140.3390   70.9440  225.8510 C   0  0  0  0  0  0  0  0  0  0  0  0
  140.3870   71.5220  224.6440 N   0  0  0  0  0  0  0  0  0  0  0  0
  139.6120   73.5220  223.0980 H   0  0  0  0  0  0  0  0  0  0  0  0
  140.5977   73.3357  220.2669 H   0  0  0  0  0  0  0  0  0  0  0  0
  138.8938   73.8443  220.4857 H   0  0  0  0  0  0  0  0  0  0  0  0
  142.8690   74.8527  220.1688 H   0  0  0  0  0  0  0  0  0  0  0  0
  141.9373   74.8799  218.6652 H   0  0  0  0  0  0  0  0  0  0  0  0
  143.9899   76.7272  219.4813 H   0  0  0  0  0  0  0  0  0  0  0  0
  142.9865   76.8835  218.0472 H   0  0  0  0  0  0  0  0  0  0  0  0
  142.5187   78.0259  220.8696 H   0  0  0  0  0  0  0  0  0  0  0  0
  142.2452   78.8547  219.3754 H   0  0  0  0  0  0  0  0  0  0  0  0
  140.2915   77.2786  218.8326 H   0  0  0  0  0  0  0  0  0  0  0  0
  138.8897   78.2593  220.1307 H   0  0  0  0  0  0  0  0  0  0  0  0
  139.5093   77.4597  221.5767 H   0  0  0  0  0  0  0  0  0  0  0  0
  139.8334   80.2922  219.2559 H   0  0  0  0  0  0  0  0  0  0  0  0
  141.0313   82.4103  219.8395 H   0  0  0  0  0  0  0  0  0  0  0  0
  142.3624   82.5867  221.9079 H   0  0  0  0  0  0  0  0  0  0  0  0
  141.3391   78.4896  222.8897 H   0  0  0  0  0  0  0  0  0  0  0  0
  138.9322   69.1869  222.6999 H   0  0  0  0  0  0  0  0  0  0  0  0
  138.8196   68.0695  224.9377 H   0  0  0  0  0  0  0  0  0  0  0  0
  139.2873   68.1156  227.3410 H   0  0  0  0  0  0  0  0  0  0  0  0
  140.1941   69.2688  229.3225 H   0  0  0  0  0  0  0  0  0  0  0  0
  141.2129   71.5177  229.1104 H   0  0  0  0  0  0  0  0  0  0  0  0
  141.3030   72.5994  226.8592 H   0  0  0  0  0  0  0  0  0  0  0  0
  1  2  2  0
  2  3  1  0
  3  4  1  0
  4  5  1  0
  5  6  2  0
  5  7  1  0
  7  8  1  0
  8  9  1  0
  9 10  1  0
 10 11  1  0
 11 12  1  0
 12 13  1  0
 13 14  2  0
 14 15  1  0
 15 16  2  0
 16 17  1  0
 17 18  1  0
 17 19  2  0
  2 20  1  0
 20 21  2  0
 21 22  1  0
 22 23  2  0
 23 24  1  0
 24 25  2  0
 25 26  1  0
 26 27  2  0
 27 28  1  0
 28 29  2  0
 11  7  1  0
 19 13  1  0
 29 20  1  0
 28 23  1  0
  3 30  1  0
  4 31  1  0
  4 32  1  0
  8 33  1  0
  8 34  1  0
  9 35  1  0
  9 36  1  0
 10 37  1  0
 10 38  1  0
 11 39  1  6
 12 40  1  0
 12 41  1  0
 14 42  1  0
 15 43  1  0
 16 44  1  0
 19 45  1  0
 21 46  1  0
 22 47  1  0
 24 48  1  0
 25 49  1  0
 26 50  1  0
 27 51  1  0
M  END
>  <smiles>  (48) 
O=C(NCC(=O)N1CCCC1Cc1cccc(Cl)c1)c1ccc2ccccc2n1

>  <score_type>  (48) 
oracle

>  <origin>  (48) 
autodockgpu

>  <m_score__min__energy>  (48) 
-9.2899999999999991

>  <m_primary>  (48) 
energy

>  <rmsd>  (48) 
1.8897062753133091

>  <m_score__min__rmsd>  (48) 
1.8897062753133091

>  <meeko>  (48) 
{"free_energy": -8.77, "intermolecular_energy": -10.56, "internal_energy": -1.82, "cluster_size": 39, "cluster_id": 1, "rank_in_cluster": 23}

>  <energy>  (48) 
-8.72

>  <cluster_rmsd>  (48) 
0.0

>  <cluster>  (48) 
4

$$$$

     RDKit          3D

 51 54  0  0  0  0  0  0  0  0999 V2000
  140.6670   71.5020  221.2790 O   0  0  0  0  0  0  0  0  0  0  0  0
  140.2590   72.0850  222.3200 C   0  0  0  0  0  0  0  0  0  0  0  0
  139.8960   73.4420  222.2760 N   0  0  0  0  0  0  0  0  0  0  0  0
  139.9560   74.2530  221.0790 C   0  0  0  0  0  0  0  0  0  0  0  0
  139.8800   75.6790  221.4640 C   0  0  0  0  0  0  0  0  0  0  0  0
  139.8930   75.9580  222.6910 O   0  0  0  0  0  0  0  0  0  0  0  0
  139.7960   76.6670  220.4400 N   0  0  0  0  0  0  0  0  0  0  0  0
  138.8680   76.6720  219.3010 C   0  0  0  0  0  0  0  0  0  0  0  0
  139.5460   77.4940  218.2250 C   0  0  0  0  0  0  0  0  0  0  0  0
  140.9290   77.7990  218.8100 C   0  0  0  0  0  0  0  0  0  0  0  0
  140.5800   77.8720  220.2740 C   0  0  2  0  0  0  0  0  0  0  0  0
  141.8130   77.9090  221.1500 C   0  0  0  0  0  0  0  0  0  0  0  0
  141.5840   79.0540  222.0980 C   0  0  0  0  0  0  0  0  0  0  0  0
  142.6890   79.7830  222.4950 C   0  0  0  0  0  0  0  0  0  0  0  0
  142.4790   80.8460  223.3760 C   0  0  0  0  0  0  0  0  0  0  0  0
  141.2240   81.1640  223.8370 C   0  0  0  0  0  0  0  0  0  0  0  0
  140.1250   80.4050  223.4150 C   0  0  0  0  0  0  0  0  0  0  0  0
  138.5300   80.8320  224.0190 Cl  0  0  0  0  0  0  0  0  0  0  0  0
  140.3030   79.3380  222.5380 C   0  0  0  0  0  0  0  0  0  0  0  0
  140.1630   71.3380  223.5870 C   0  0  0  0  0  0  0  0  0  0  0  0
  139.5900   70.0820  223.6120 C   0  0  0  0  0  0  0  0  0  0  0  0
  139.5280   69.4270  224.8380 C   0  0  0  0  0  0  0  0  0  0  0  0
  140.0210   70.0130  225.9820 C   0  0  0  0  0  0  0  0  0  0  0  0
  139.9790   69.3940  227.2190 C   0  0  0  0  0  0  0  0  0  0  0  0
  140.4810   70.0030  228.3570 C   0  0  0  0  0  0  0  0  0  0  0  0
  141.0420   71.2510  228.2890 C   0  0  0  0  0  0  0  0  0  0  0  0
  141.0950   71.8910  227.0540 C   0  0  0  0  0  0  0  0  0  0  0  0
  140.5860   71.2710  225.9110 C   0  0  0  0  0  0  0  0  0  0  0  0
  140.6380   71.8890  224.7230 N   0  0  0  0  0  0  0  0  0  0  0  0
  139.5600   73.8750  223.1810 H   0  0  0  0  0  0  0  0  0  0  0  0
  140.9019   74.0628  220.5508 H   0  0  0  0  0  0  0  0  0  0  0  0
  139.1166   74.0005  220.4145 H   0  0  0  0  0  0  0  0  0  0  0  0
  138.6910   75.6461  218.9458 H   0  0  0  0  0  0  0  0  0  0  0  0
  137.8889   77.0911  219.5763 H   0  0  0  0  0  0  0  0  0  0  0  0
  139.6342   76.9195  217.2911 H   0  0  0  0  0  0  0  0  0  0  0  0
  138.9837   78.4042  217.9693 H   0  0  0  0  0  0  0  0  0  0  0  0
  141.6480   76.9932  218.6009 H   0  0  0  0  0  0  0  0  0  0  0  0
  141.4175   78.6969  218.4036 H   0  0  0  0  0  0  0  0  0  0  0  0
  140.0421   78.7847  220.5701 H   0  0  0  0  0  0  0  0  0  0  0  0
  141.9222   76.9648  221.7037 H   0  0  0  0  0  0  0  0  0  0  0  0
  142.7335   78.0379  220.5618 H   0  0  0  0  0  0  0  0  0  0  0  0
  143.6968   79.5351  222.1304 H   0  0  0  0  0  0  0  0  0  0  0  0
  143.3400   81.4440  223.7094 H   0  0  0  0  0  0  0  0  0  0  0  0
  141.0839   82.0063  224.5305 H   0  0  0  0  0  0  0  0  0  0  0  0
  139.4459   78.7353  222.2030 H   0  0  0  0  0  0  0  0  0  0  0  0
  139.1969   69.6163  222.6962 H   0  0  0  0  0  0  0  0  0  0  0  0
  139.0779   68.4249  224.8940 H   0  0  0  0  0  0  0  0  0  0  0  0
  139.5348   68.3910  227.3006 H   0  0  0  0  0  0  0  0  0  0  0  0
  140.4289   69.4803  229.3235 H   0  0  0  0  0  0  0  0  0  0  0  0
  141.4421   71.7369  229.1911 H   0  0  0  0  0  0  0  0  0  0  0  0
  141.5415   72.8934  226.9778 H   0  0  0  0  0  0  0  0  0  0  0  0
  1  2  2  0
  2  3  1  0
  3  4  1  0
  4  5  1  0
  5  6  2  0
  5  7  1  0
  7  8  1  0
  8  9  1  0
  9 10  1  0
 10 11  1  0
 11 12  1  0
 12 13  1  0
 13 14  2  0
 14 15  1  0
 15 16  2  0
 16 17  1  0
 17 18  1  0
 17 19  2  0
  2 20  1  0
 20 21  2  0
 21 22  1  0
 22 23  2  0
 23 24  1  0
 24 25  2  0
 25 26  1  0
 26 27  2  0
 27 28  1  0
 28 29  2  0
 11  7  1  0
 19 13  1  0
 29 20  1  0
 28 23  1  0
  3 30  1  0
  4 31  1  0
  4 32  1  0
  8 33  1  0
  8 34  1  0
  9 35  1  0
  9 36  1  0
 10 37  1  0
 10 38  1  0
 11 39  1  6
 12 40  1  0
 12 41  1  0
 14 42  1  0
 15 43  1  0
 16 44  1  0
 19 45  1  0
 21 46  1  0
 22 47  1  0
 24 48  1  0
 25 49  1  0
 26 50  1  0
 27 51  1  0
M  END
>  <smiles>  (49) 
O=C(NCC(=O)N1CCCC1Cc1cccc(Cl)c1)c1ccc2ccccc2n1

>  <score_type>  (49) 
oracle

>  <origin>  (49) 
autodockgpu

>  <m_score__min__energy>  (49) 
-9.2899999999999991

>  <m_primary>  (49) 
energy

>  <rmsd>  (49) 
1.5188667167750556

>  <m_score__min__rmsd>  (49) 
1.5188667167750556

>  <meeko>  (49) 
{"free_energy": -8.9, "intermolecular_energy": -10.69, "internal_energy": -2.08, "cluster_size": 39, "cluster_id": 1, "rank_in_cluster": 16}

>  <energy>  (49) 
-8.71

>  <cluster_rmsd>  (49) 
0.4

>  <cluster>  (49) 
4

$$$$

     RDKit          3D

 51 54  0  0  0  0  0  0  0  0999 V2000
  139.9480   70.5170  221.2260 O   0  0  0  0  0  0  0  0  0  0  0  0
  140.0040   71.2120  222.2760 C   0  0  0  0  0  0  0  0  0  0  0  0
  140.1960   72.6020  222.1970 N   0  0  0  0  0  0  0  0  0  0  0  0
  140.3390   73.3250  220.9510 C   0  0  0  0  0  0  0  0  0  0  0  0
  140.5150   74.7620  221.2510 C   0  0  0  0  0  0  0  0  0  0  0  0
  140.0720   75.1920  222.3480 O   0  0  0  0  0  0  0  0  0  0  0  0
  141.1720   75.5910  220.2950 N   0  0  0  0  0  0  0  0  0  0  0  0
  142.4060   75.2760  219.5630 C   0  0  0  0  0  0  0  0  0  0  0  0
  143.0190   76.6120  219.2010 C   0  0  0  0  0  0  0  0  0  0  0  0
  142.1160   77.6340  219.8990 C   0  0  0  0  0  0  0  0  0  0  0  0
  140.7980   76.9080  219.8250 C   0  0  2  0  0  0  0  0  0  0  0  0
  139.7370   77.5680  220.6780 C   0  0  0  0  0  0  0  0  0  0  0  0
  140.4940   78.4750  221.6090 C   0  0  0  0  0  0  0  0  0  0  0  0
  141.0850   77.8980  222.7180 C   0  0  0  0  0  0  0  0  0  0  0  0
  141.7880   78.7370  223.5850 C   0  0  0  0  0  0  0  0  0  0  0  0
  141.8950   80.0880  223.3530 C   0  0  0  0  0  0  0  0  0  0  0  0
  141.2850   80.6400  222.2200 C   0  0  0  0  0  0  0  0  0  0  0  0
  141.4370   82.3700  221.9450 Cl  0  0  0  0  0  0  0  0  0  0  0  0
  140.5760   79.8290  221.3370 C   0  0  0  0  0  0  0  0  0  0  0  0
  139.8670   70.5610  223.5920 C   0  0  0  0  0  0  0  0  0  0  0  0
  139.2960   69.3090  223.6930 C   0  0  0  0  0  0  0  0  0  0  0  0
  139.1950   68.7470  224.9620 C   0  0  0  0  0  0  0  0  0  0  0  0
  139.6490   69.4190  226.0740 C   0  0  0  0  0  0  0  0  0  0  0  0
  139.5670   68.8960  227.3520 C   0  0  0  0  0  0  0  0  0  0  0  0
  140.0310   69.5900  228.4570 C   0  0  0  0  0  0  0  0  0  0  0  0
  140.5920   70.8310  228.3140 C   0  0  0  0  0  0  0  0  0  0  0  0
  140.6840   71.3770  227.0360 C   0  0  0  0  0  0  0  0  0  0  0  0
  140.2140   70.6710  225.9270 C   0  0  0  0  0  0  0  0  0  0  0  0
  140.3040   71.1980  224.6990 N   0  0  0  0  0  0  0  0  0  0  0  0
  140.2340   73.1310  223.1130 H   0  0  0  0  0  0  0  0  0  0  0  0
  141.2179   72.9510  220.4054 H   0  0  0  0  0  0  0  0  0  0  0  0
  139.4427   73.1801  220.3300 H   0  0  0  0  0  0  0  0  0  0  0  0
  143.0928   74.6986  220.1993 H   0  0  0  0  0  0  0  0  0  0  0  0
  142.2043   74.6662  218.6700 H   0  0  0  0  0  0  0  0  0  0  0  0
  144.0513   76.6828  219.5742 H   0  0  0  0  0  0  0  0  0  0  0  0
  143.0777   76.7708  218.1141 H   0  0  0  0  0  0  0  0  0  0  0  0
  142.4271   77.8112  220.9391 H   0  0  0  0  0  0  0  0  0  0  0  0
  142.1186   78.6385  219.4508 H   0  0  0  0  0  0  0  0  0  0  0  0
  140.3378   76.8992  218.8259 H   0  0  0  0  0  0  0  0  0  0  0  0
  139.0435   78.1485  220.0518 H   0  0  0  0  0  0  0  0  0  0  0  0
  139.1282   76.8316  221.2231 H   0  0  0  0  0  0  0  0  0  0  0  0
  141.0043   76.8179  222.9101 H   0  0  0  0  0  0  0  0  0  0  0  0
  142.2682   78.3063  224.4760 H   0  0  0  0  0  0  0  0  0  0  0  0
  142.4543   80.7288  224.0505 H   0  0  0  0  0  0  0  0  0  0  0  0
  140.0930   80.2547  220.4451 H   0  0  0  0  0  0  0  0  0  0  0  0
  138.9337   68.7744  222.8025 H   0  0  0  0  0  0  0  0  0  0  0  0
  138.7452   67.7499  225.0782 H   0  0  0  0  0  0  0  0  0  0  0  0
  139.1206   67.9008  227.4946 H   0  0  0  0  0  0  0  0  0  0  0  0
  139.9483   69.1407  229.4577 H   0  0  0  0  0  0  0  0  0  0  0  0
  140.9620   71.3847  229.1895 H   0  0  0  0  0  0  0  0  0  0  0  0
  141.1307   72.3729  226.8993 H   0  0  0  0  0  0  0  0  0  0  0  0
  1  2  2  0
  2  3  1  0
  3  4  1  0
  4  5  1  0
  5  6  2  0
  5  7  1  0
  7  8  1  0
  8  9  1  0
  9 10  1  0
 10 11  1  0
 11 12  1  0
 12 13  1  0
 13 14  2  0
 14 15  1  0
 15 16  2  0
 16 17  1  0
 17 18  1  0
 17 19  2  0
  2 20  1  0
 20 21  2  0
 21 22  1  0
 22 23  2  0
 23 24  1  0
 24 25  2  0
 25 26  1  0
 26 27  2  0
 27 28  1  0
 28 29  2  0
 11  7  1  0
 19 13  1  0
 29 20  1  0
 28 23  1  0
  3 30  1  0
  4 31  1  0
  4 32  1  0
  8 33  1  0
  8 34  1  0
  9 35  1  0
  9 36  1  0
 10 37  1  0
 10 38  1  0
 11 39  1  6
 12 40  1  0
 12 41  1  0
 14 42  1  0
 15 43  1  0
 16 44  1  0
 19 45  1  0
 21 46  1  0
 22 47  1  0
 24 48  1  0
 25 49  1  0
 26 50  1  0
 27 51  1  0
M  END
>  <smiles>  (50) 
O=C(NCC(=O)N1CCCC1Cc1cccc(Cl)c1)c1ccc2ccccc2n1

>  <score_type>  (50) 
oracle

>  <origin>  (50) 
autodockgpu

>  <m_score__min__energy>  (50) 
-9.2899999999999991

>  <m_primary>  (50) 
energy

>  <rmsd>  (50) 
1.9775342943904408

>  <m_score__min__rmsd>  (50) 
1.9775342943904408

>  <meeko>  (50) 
{"free_energy": -8.65, "intermolecular_energy": -10.44, "internal_energy": -2.02, "cluster_size": 39, "cluster_id": 1, "rank_in_cluster": 30}

>  <energy>  (50) 
-8.59

>  <cluster_rmsd>  (50) 
0.35

>  <cluster>  (50) 
4

$$$$

     RDKit          3D

 51 54  0  0  0  0  0  0  0  0999 V2000
  140.7930   71.0940  221.1830 O   0  0  0  0  0  0  0  0  0  0  0  0
  140.5040   71.8160  222.1710 C   0  0  0  0  0  0  0  0  0  0  0  0
  140.3890   73.2310  222.0770 N   0  0  0  0  0  0  0  0  0  0  0  0
  140.6020   73.9210  220.8210 C   0  0  0  0  0  0  0  0  0  0  0  0
  141.0620   75.2900  221.1760 C   0  0  0  0  0  0  0  0  0  0  0  0
  141.0780   75.7270  222.3410 O   0  0  0  0  0  0  0  0  0  0  0  0
  141.5100   76.1510  220.1220 N   0  0  0  0  0  0  0  0  0  0  0  0
  141.7200   77.5840  220.2470 C   0  0  0  0  0  0  0  0  0  0  0  0
  141.6570   78.1150  218.8180 C   0  0  0  0  0  0  0  0  0  0  0  0
  141.2670   76.9060  217.9740 C   0  0  0  0  0  0  0  0  0  0  0  0
  141.8340   75.7660  218.7500 C   0  0  1  0  0  0  0  0  0  0  0  0
  143.3310   75.6700  218.5950 C   0  0  0  0  0  0  0  0  0  0  0  0
  143.8170   74.5270  219.4030 C   0  0  0  0  0  0  0  0  0  0  0  0
  144.6910   74.6280  220.4470 C   0  0  0  0  0  0  0  0  0  0  0  0
  145.1050   73.5170  221.1520 C   0  0  0  0  0  0  0  0  0  0  0  0
  144.6530   72.2530  220.8320 C   0  0  0  0  0  0  0  0  0  0  0  0
  143.7670   72.1310  219.7790 C   0  0  0  0  0  0  0  0  0  0  0  0
  143.1550   70.5380  219.3260 Cl  0  0  0  0  0  0  0  0  0  0  0  0
  143.3590   73.2480  219.0790 C   0  0  0  0  0  0  0  0  0  0  0  0
  140.2730   71.1970  223.4800 C   0  0  0  0  0  0  0  0  0  0  0  0
  139.6230   69.9820  223.5690 C   0  0  0  0  0  0  0  0  0  0  0  0
  139.3970   69.3850  224.7980 C   0  0  0  0  0  0  0  0  0  0  0  0
  139.8350   70.0200  225.9640 C   0  0  0  0  0  0  0  0  0  0  0  0
  139.6200   69.4370  227.2160 C   0  0  0  0  0  0  0  0  0  0  0  0
  140.0680   70.1000  228.3410 C   0  0  0  0  0  0  0  0  0  0  0  0
  140.7270   71.3290  228.2420 C   0  0  0  0  0  0  0  0  0  0  0  0
  140.9250   71.8790  226.9970 C   0  0  0  0  0  0  0  0  0  0  0  0
  140.4840   71.2360  225.8500 C   0  0  0  0  0  0  0  0  0  0  0  0
  140.6890   71.7920  224.6320 N   0  0  0  0  0  0  0  0  0  0  0  0
  140.1420   73.7770  222.9520 H   0  0  0  0  0  0  0  0  0  0  0  0
  141.3685   73.4029  220.2259 H   0  0  0  0  0  0  0  0  0  0  0  0
  139.6831   73.9496  220.2170 H   0  0  0  0  0  0  0  0  0  0  0  0
  140.9310   78.0386  220.8641 H   0  0  0  0  0  0  0  0  0  0  0  0
  142.6763   77.8217  220.7358 H   0  0  0  0  0  0  0  0  0  0  0  0
  140.9004   78.9088  218.7319 H   0  0  0  0  0  0  0  0  0  0  0  0
  142.6108   78.5580  218.4956 H   0  0  0  0  0  0  0  0  0  0  0  0
  140.1739   76.8204  217.8853 H   0  0  0  0  0  0  0  0  0  0  0  0
  141.6393   76.9577  216.9402 H   0  0  0  0  0  0  0  0  0  0  0  0
  141.4388   74.7904  218.4307 H   0  0  0  0  0  0  0  0  0  0  0  0
  143.5846   75.5102  217.5366 H   0  0  0  0  0  0  0  0  0  0  0  0
  143.8051   76.6015  218.9380 H   0  0  0  0  0  0  0  0  0  0  0  0
  145.0741   75.6188  220.7327 H   0  0  0  0  0  0  0  0  0  0  0  0
  145.8103   73.6412  221.9869 H   0  0  0  0  0  0  0  0  0  0  0  0
  144.9875   71.3707  221.3973 H   0  0  0  0  0  0  0  0  0  0  0  0
  142.6540   73.1278  218.2432 H   0  0  0  0  0  0  0  0  0  0  0  0
  139.2801   69.4816  222.6514 H   0  0  0  0  0  0  0  0  0  0  0  0
  138.8764   68.4178  224.8564 H   0  0  0  0  0  0  0  0  0  0  0  0
  139.1042   68.4693  227.3032 H   0  0  0  0  0  0  0  0  0  0  0  0
  139.9035   69.6534  229.3327 H   0  0  0  0  0  0  0  0  0  0  0  0
  141.0814   71.8476  229.1450 H   0  0  0  0  0  0  0  0  0  0  0  0
  141.4422   72.8459  226.9095 H   0  0  0  0  0  0  0  0  0  0  0  0
  1  2  2  0
  2  3  1  0
  3  4  1  0
  4  5  1  0
  5  6  2  0
  5  7  1  0
  7  8  1  0
  8  9  1  0
  9 10  1  0
 10 11  1  0
 11 12  1  0
 12 13  1  0
 13 14  2  0
 14 15  1  0
 15 16  2  0
 16 17  1  0
 17 18  1  0
 17 19  2  0
  2 20  1  0
 20 21  2  0
 21 22  1  0
 22 23  2  0
 23 24  1  0
 24 25  2  0
 25 26  1  0
 26 27  2  0
 27 28  1  0
 28 29  2  0
 11  7  1  0
 19 13  1  0
 29 20  1  0
 28 23  1  0
  3 30  1  0
  4 31  1  0
  4 32  1  0
  8 33  1  0
  8 34  1  0
  9 35  1  0
  9 36  1  0
 10 37  1  0
 10 38  1  0
 11 39  1  6
 12 40  1  0
 12 41  1  0
 14 42  1  0
 15 43  1  0
 16 44  1  0
 19 45  1  0
 21 46  1  0
 22 47  1  0
 24 48  1  0
 25 49  1  0
 26 50  1  0
 27 51  1  0
M  END
>  <smiles>  (51) 
O=C(NCC(=O)N1CCCC1Cc1cccc(Cl)c1)c1ccc2ccccc2n1

>  <score_type>  (51) 
oracle

>  <origin>  (51) 
autodockgpu

>  <m_score__min__energy>  (51) 
-9.2400000000000002

>  <m_primary>  (51) 
energy

>  <rmsd>  (51) 
2.2126081216597893

>  <m_score__min__rmsd>  (51) 
2.2126081216597893

>  <meeko>  (51) 
{"free_energy": -7.82, "intermolecular_energy": -9.61, "internal_energy": -2.7, "cluster_size": 18, "cluster_id": 3, "rank_in_cluster": 18}

>  <energy>  (51) 
-9.24

>  <cluster_rmsd>  (51) 
0.0

>  <cluster>  (51) 
1

$$$$

     RDKit          3D

 51 54  0  0  0  0  0  0  0  0999 V2000
  140.8130   71.3630  221.2540 O   0  0  0  0  0  0  0  0  0  0  0  0
  140.4100   72.0050  222.2560 C   0  0  0  0  0  0  0  0  0  0  0  0
  140.1010   73.3920  222.2030 N   0  0  0  0  0  0  0  0  0  0  0  0
  140.2380   74.1470  220.9730 C   0  0  0  0  0  0  0  0  0  0  0  0
  140.5410   75.5450  221.3790 C   0  0  0  0  0  0  0  0  0  0  0  0
  140.1110   76.0630  222.4260 O   0  0  0  0  0  0  0  0  0  0  0  0
  141.3690   76.3380  220.5210 N   0  0  0  0  0  0  0  0  0  0  0  0
  141.4150   77.7920  220.5120 C   0  0  0  0  0  0  0  0  0  0  0  0
  141.9810   78.1580  219.1440 C   0  0  0  0  0  0  0  0  0  0  0  0
  142.0920   76.8290  218.4040 C   0  0  0  0  0  0  0  0  0  0  0  0
  142.3070   75.8520  219.5110 C   0  0  1  0  0  0  0  0  0  0  0  0
  143.7130   75.9210  220.0540 C   0  0  0  0  0  0  0  0  0  0  0  0
  144.2680   74.5480  220.0960 C   0  0  0  0  0  0  0  0  0  0  0  0
  145.5060   74.2240  220.5700 C   0  0  0  0  0  0  0  0  0  0  0  0
  145.9610   72.9210  220.5730 C   0  0  0  0  0  0  0  0  0  0  0  0
  145.1820   71.8880  220.0950 C   0  0  0  0  0  0  0  0  0  0  0  0
  143.9250   72.1960  219.6110 C   0  0  0  0  0  0  0  0  0  0  0  0
  142.8850   70.9120  218.9890 Cl  0  0  0  0  0  0  0  0  0  0  0  0
  143.4790   73.5020  219.6130 C   0  0  0  0  0  0  0  0  0  0  0  0
  140.2440   71.3170  223.5400 C   0  0  0  0  0  0  0  0  0  0  0  0
  139.6150   70.0890  223.5950 C   0  0  0  0  0  0  0  0  0  0  0  0
  139.4510   69.4270  224.8000 C   0  0  0  0  0  0  0  0  0  0  0  0
  139.9300   70.0090  225.9770 C   0  0  0  0  0  0  0  0  0  0  0  0
  139.7770   69.3610  227.2060 C   0  0  0  0  0  0  0  0  0  0  0  0
  140.2640   69.9720  228.3430 C   0  0  0  0  0  0  0  0  0  0  0  0
  140.9000   71.2150  228.2800 C   0  0  0  0  0  0  0  0  0  0  0  0
  141.0370   71.8310  227.0570 C   0  0  0  0  0  0  0  0  0  0  0  0
  140.5560   71.2390  225.8980 C   0  0  0  0  0  0  0  0  0  0  0  0
  140.7010   71.8600  224.7030 N   0  0  0  0  0  0  0  0  0  0  0  0
  139.7660   73.8700  223.0880 H   0  0  0  0  0  0  0  0  0  0  0  0
  141.0589   73.7397  220.3645 H   0  0  0  0  0  0  0  0  0  0  0  0
  139.3228   74.0944  220.3651 H   0  0  0  0  0  0  0  0  0  0  0  0
  140.4062   78.2119  220.6384 H   0  0  0  0  0  0  0  0  0  0  0  0
  142.0268   78.1921  221.3339 H   0  0  0  0  0  0  0  0  0  0  0  0
  141.3023   78.8421  218.6135 H   0  0  0  0  0  0  0  0  0  0  0  0
  142.9488   78.6755  219.2184 H   0  0  0  0  0  0  0  0  0  0  0  0
  141.1677   76.6047  217.8514 H   0  0  0  0  0  0  0  0  0  0  0  0
  142.8924   76.8158  217.6496 H   0  0  0  0  0  0  0  0  0  0  0  0
  142.1594   74.8077  219.1986 H   0  0  0  0  0  0  0  0  0  0  0  0
  144.3328   76.5521  219.4001 H   0  0  0  0  0  0  0  0  0  0  0  0
  143.7062   76.3561  221.0643 H   0  0  0  0  0  0  0  0  0  0  0  0
  146.1571   75.0207  220.9592 H   0  0  0  0  0  0  0  0  0  0  0  0
  146.9653   72.7019  220.9646 H   0  0  0  0  0  0  0  0  0  0  0  0
  145.5499   70.8514  220.0990 H   0  0  0  0  0  0  0  0  0  0  0  0
  142.4747   73.7250  219.2236 H   0  0  0  0  0  0  0  0  0  0  0  0
  139.2390   69.6303  222.6686 H   0  0  0  0  0  0  0  0  0  0  0  0
  138.9472   68.4497  224.8308 H   0  0  0  0  0  0  0  0  0  0  0  0
  139.2778   68.3826  227.2655 H   0  0  0  0  0  0  0  0  0  0  0  0
  140.1498   69.4722  229.3162 H   0  0  0  0  0  0  0  0  0  0  0  0
  141.2847   71.6930  229.1930 H   0  0  0  0  0  0  0  0  0  0  0  0
  141.5363   72.8093  226.9973 H   0  0  0  0  0  0  0  0  0  0  0  0
  1  2  2  0
  2  3  1  0
  3  4  1  0
  4  5  1  0
  5  6  2  0
  5  7  1  0
  7  8  1  0
  8  9  1  0
  9 10  1  0
 10 11  1  0
 11 12  1  0
 12 13  1  0
 13 14  2  0
 14 15  1  0
 15 16  2  0
 16 17  1  0
 17 18  1  0
 17 19  2  0
  2 20  1  0
 20 21  2  0
 21 22  1  0
 22 23  2  0
 23 24  1  0
 24 25  2  0
 25 26  1  0
 26 27  2  0
 27 28  1  0
 28 29  2  0
 11  7  1  0
 19 13  1  0
 29 20  1  0
 28 23  1  0
  3 30  1  0
  4 31  1  0
  4 32  1  0
  8 33  1  0
  8 34  1  0
  9 35  1  0
  9 36  1  0
 10 37  1  0
 10 38  1  0
 11 39  1  6
 12 40  1  0
 12 41  1  0
 14 42  1  0
 15 43  1  0
 16 44  1  0
 19 45  1  0
 21 46  1  0
 22 47  1  0
 24 48  1  0
 25 49  1  0
 26 50  1  0
 27 51  1  0
M  END
>  <smiles>  (52) 
O=C(NCC(=O)N1CCCC1Cc1cccc(Cl)c1)c1ccc2ccccc2n1

>  <score_type>  (52) 
oracle

>  <origin>  (52) 
autodockgpu

>  <m_score__min__energy>  (52) 
-9.2400000000000002

>  <m_primary>  (52) 
energy

>  <rmsd>  (52) 
2.1761957424046847

>  <m_score__min__rmsd>  (52) 
2.1761957424046847

>  <meeko>  (52) 
{"free_energy": -8.6, "intermolecular_energy": -10.39, "internal_energy": -2.32, "cluster_size": 18, "cluster_id": 3, "rank_in_cluster": 10}

>  <energy>  (52) 
-9.16

>  <cluster_rmsd>  (52) 
0.24

>  <cluster>  (52) 
1

$$$$

     RDKit          3D

 51 54  0  0  0  0  0  0  0  0999 V2000
  141.1110   77.4110  217.6550 O   0  0  0  0  0  0  0  0  0  0  0  0
  142.0170   77.3020  218.5210 C   0  0  0  0  0  0  0  0  0  0  0  0
  142.4370   78.3930  219.3310 N   0  0  0  0  0  0  0  0  0  0  0  0
  141.8340   79.7040  219.1990 C   0  0  0  0  0  0  0  0  0  0  0  0
  140.8540   79.8220  220.3110 C   0  0  0  0  0  0  0  0  0  0  0  0
  139.6230   79.7270  220.1520 O   0  0  0  0  0  0  0  0  0  0  0  0
  141.3510   80.0570  221.6330 N   0  0  0  0  0  0  0  0  0  0  0  0
  141.0670   81.2350  222.4360 C   0  0  0  0  0  0  0  0  0  0  0  0
  142.1900   81.2870  223.4670 C   0  0  0  0  0  0  0  0  0  0  0  0
  143.1360   80.1600  223.0650 C   0  0  0  0  0  0  0  0  0  0  0  0
  142.2200   79.1790  222.4140 C   0  0  1  0  0  0  0  0  0  0  0  0
  141.3950   78.4240  223.4270 C   0  0  0  0  0  0  0  0  0  0  0  0
  140.5230   77.4680  222.7050 C   0  0  0  0  0  0  0  0  0  0  0  0
  139.2100   77.6870  222.4050 C   0  0  0  0  0  0  0  0  0  0  0  0
  138.4550   76.7460  221.7340 C   0  0  0  0  0  0  0  0  0  0  0  0
  138.9970   75.5410  221.3380 C   0  0  0  0  0  0  0  0  0  0  0  0
  140.3250   75.3010  221.6330 C   0  0  0  0  0  0  0  0  0  0  0  0
  141.0710   73.7760  221.1480 Cl  0  0  0  0  0  0  0  0  0  0  0  0
  141.0720   76.2480  222.3040 C   0  0  0  0  0  0  0  0  0  0  0  0
  142.6790   76.0090  218.7190 C   0  0  0  0  0  0  0  0  0  0  0  0
  142.3160   74.9180  217.9550 C   0  0  0  0  0  0  0  0  0  0  0  0
  142.9310   73.6900  218.1300 C   0  0  0  0  0  0  0  0  0  0  0  0
  143.9350   73.5540  219.0940 C   0  0  0  0  0  0  0  0  0  0  0  0
  144.5720   72.3250  219.2890 C   0  0  0  0  0  0  0  0  0  0  0  0
  145.5570   72.2350  220.2520 C   0  0  0  0  0  0  0  0  0  0  0  0
  145.9190   73.3440  221.0220 C   0  0  0  0  0  0  0  0  0  0  0  0
  145.2760   74.5410  220.8070 C   0  0  0  0  0  0  0  0  0  0  0  0
  144.2820   74.6600  219.8470 C   0  0  0  0  0  0  0  0  0  0  0  0
  143.6600   75.8470  219.6500 N   0  0  0  0  0  0  0  0  0  0  0  0
  143.2070   78.2280  220.0410 H   0  0  0  0  0  0  0  0  0  0  0  0
  142.6018   80.4873  219.2823 H   0  0  0  0  0  0  0  0  0  0  0  0
  141.3470   79.8252  218.2201 H   0  0  0  0  0  0  0  0  0  0  0  0
  141.0732   82.1402  221.8110 H   0  0  0  0  0  0  0  0  0  0  0  0
  140.0742   81.1856  222.9071 H   0  0  0  0  0  0  0  0  0  0  0  0
  142.7056   82.2580  223.4306 H   0  0  0  0  0  0  0  0  0  0  0  0
  141.8171   81.1709  224.4953 H   0  0  0  0  0  0  0  0  0  0  0  0
  143.9009   80.5169  222.3597 H   0  0  0  0  0  0  0  0  0  0  0  0
  143.6967   79.7379  223.9120 H   0  0  0  0  0  0  0  0  0  0  0  0
  142.7536   78.4119  221.8337 H   0  0  0  0  0  0  0  0  0  0  0  0
  142.0589   77.8762  224.1120 H   0  0  0  0  0  0  0  0  0  0  0  0
  140.7819   79.1255  224.0118 H   0  0  0  0  0  0  0  0  0  0  0  0
  138.7419   78.6361  222.7050 H   0  0  0  0  0  0  0  0  0  0  0  0
  137.3997   76.9615  221.5106 H   0  0  0  0  0  0  0  0  0  0  0  0
  138.3907   74.7945  220.8040 H   0  0  0  0  0  0  0  0  0  0  0  0
  142.1277   76.0362  222.5289 H   0  0  0  0  0  0  0  0  0  0  0  0
  141.5268   75.0259  217.1963 H   0  0  0  0  0  0  0  0  0  0  0  0
  142.6322   72.8279  217.5155 H   0  0  0  0  0  0  0  0  0  0  0  0
  144.2939   71.4472  218.6872 H   0  0  0  0  0  0  0  0  0  0  0  0
  146.0659   71.2737  220.4163 H   0  0  0  0  0  0  0  0  0  0  0  0
  146.7049   73.2610  221.7871 H   0  0  0  0  0  0  0  0  0  0  0  0
  145.5552   75.4195  221.4072 H   0  0  0  0  0  0  0  0  0  0  0  0
  1  2  2  0
  2  3  1  0
  3  4  1  0
  4  5  1  0
  5  6  2  0
  5  7  1  0
  7  8  1  0
  8  9  1  0
  9 10  1  0
 10 11  1  0
 11 12  1  0
 12 13  1  0
 13 14  2  0
 14 15  1  0
 15 16  2  0
 16 17  1  0
 17 18  1  0
 17 19  2  0
  2 20  1  0
 20 21  2  0
 21 22  1  0
 22 23  2  0
 23 24  1  0
 24 25  2  0
 25 26  1  0
 26 27  2  0
 27 28  1  0
 28 29  2  0
 11  7  1  0
 19 13  1  0
 29 20  1  0
 28 23  1  0
  3 30  1  0
  4 31  1  0
  4 32  1  0
  8 33  1  0
  8 34  1  0
  9 35  1  0
  9 36  1  0
 10 37  1  0
 10 38  1  0
 11 39  1  6
 12 40  1  0
 12 41  1  0
 14 42  1  0
 15 43  1  0
 16 44  1  0
 19 45  1  0
 21 46  1  0
 22 47  1  0
 24 48  1  0
 25 49  1  0
 26 50  1  0
 27 51  1  0
M  END
>  <smiles>  (53) 
O=C(NCC(=O)N1CCCC1Cc1cccc(Cl)c1)c1ccc2ccccc2n1

>  <score_type>  (53) 
oracle

>  <origin>  (53) 
autodockgpu

>  <m_score__min__energy>  (53) 
-9.2400000000000002

>  <m_primary>  (53) 
energy

>  <rmsd>  (53) 
7.71113602768085

>  <m_score__min__rmsd>  (53) 
7.71113602768085

>  <meeko>  (53) 
{"free_energy": -7.11, "intermolecular_energy": -8.9, "internal_energy": -3.21, "cluster_size": 1, "cluster_id": 6, "rank_in_cluster": 1}

>  <energy>  (53) 
-9.15

>  <cluster_rmsd>  (53) 
0.22

>  <cluster>  (53) 
1

$$$$

     RDKit          3D

 51 54  0  0  0  0  0  0  0  0999 V2000
  141.2430   71.6030  221.4030 O   0  0  0  0  0  0  0  0  0  0  0  0
  140.6270   72.1710  222.3410 C   0  0  0  0  0  0  0  0  0  0  0  0
  140.2020   73.5260  222.2660 N   0  0  0  0  0  0  0  0  0  0  0  0
  140.4610   74.3330  221.0900 C   0  0  0  0  0  0  0  0  0  0  0  0
  140.6130   75.7300  221.5740 C   0  0  0  0  0  0  0  0  0  0  0  0
  140.2920   76.0980  222.7200 O   0  0  0  0  0  0  0  0  0  0  0  0
  141.1560   76.7060  220.6760 N   0  0  0  0  0  0  0  0  0  0  0  0
  141.3400   78.1150  220.9850 C   0  0  0  0  0  0  0  0  0  0  0  0
  141.4150   78.8060  219.6270 C   0  0  0  0  0  0  0  0  0  0  0  0
  141.1220   77.7030  218.6150 C   0  0  0  0  0  0  0  0  0  0  0  0
  141.6190   76.4800  219.3090 C   0  0  1  0  0  0  0  0  0  0  0  0
  143.1250   76.3990  219.2940 C   0  0  0  0  0  0  0  0  0  0  0  0
  143.5250   75.0100  219.6210 C   0  0  0  0  0  0  0  0  0  0  0  0
  142.9080   73.8900  219.1450 C   0  0  0  0  0  0  0  0  0  0  0  0
  143.3320   72.6250  219.4990 C   0  0  0  0  0  0  0  0  0  0  0  0
  144.4000   72.4390  220.3520 C   0  0  0  0  0  0  0  0  0  0  0  0
  145.0380   73.5610  220.8440 C   0  0  0  0  0  0  0  0  0  0  0  0
  146.4120   73.3810  221.9390 Cl  0  0  0  0  0  0  0  0  0  0  0  0
  144.6060   74.8210  220.4850 C   0  0  0  0  0  0  0  0  0  0  0  0
  140.3250   71.4260  223.5670 C   0  0  0  0  0  0  0  0  0  0  0  0
  139.6070   70.2480  223.5060 C   0  0  0  0  0  0  0  0  0  0  0  0
  139.3140   69.5330  224.6550 C   0  0  0  0  0  0  0  0  0  0  0  0
  139.7510   70.0110  225.8940 C   0  0  0  0  0  0  0  0  0  0  0  0
  139.4680   69.3080  227.0690 C   0  0  0  0  0  0  0  0  0  0  0  0
  139.9180   69.8160  228.2700 C   0  0  0  0  0  0  0  0  0  0  0  0
  140.6450   71.0090  228.3240 C   0  0  0  0  0  0  0  0  0  0  0  0
  140.9090   71.6800  227.1520 C   0  0  0  0  0  0  0  0  0  0  0  0
  140.4680   71.1930  225.9310 C   0  0  0  0  0  0  0  0  0  0  0  0
  140.7380   71.8670  224.7870 N   0  0  0  0  0  0  0  0  0  0  0  0
  139.6870   73.9400  223.0950 H   0  0  0  0  0  0  0  0  0  0  0  0
  141.3837   73.9986  220.5932 H   0  0  0  0  0  0  0  0  0  0  0  0
  139.6453   74.2482  220.3569 H   0  0  0  0  0  0  0  0  0  0  0  0
  140.4895   78.4980  221.5681 H   0  0  0  0  0  0  0  0  0  0  0  0
  142.2405   78.2927  221.5912 H   0  0  0  0  0  0  0  0  0  0  0  0
  140.6637   79.6064  219.5569 H   0  0  0  0  0  0  0  0  0  0  0  0
  142.3924   79.2803  219.4546 H   0  0  0  0  0  0  0  0  0  0  0  0
  140.0441   77.6310  218.4079 H   0  0  0  0  0  0  0  0  0  0  0  0
  141.5950   77.8719  217.6364 H   0  0  0  0  0  0  0  0  0  0  0  0
  141.2665   75.5480  218.8430 H   0  0  0  0  0  0  0  0  0  0  0  0
  143.5010   76.6681  218.2959 H   0  0  0  0  0  0  0  0  0  0  0  0
  143.5471   77.0963  220.0326 H   0  0  0  0  0  0  0  0  0  0  0  0
  142.0520   73.9978  218.4626 H   0  0  0  0  0  0  0  0  0  0  0  0
  142.8077   71.7475  219.0927 H   0  0  0  0  0  0  0  0  0  0  0  0
  144.7332   71.4287  220.6317 H   0  0  0  0  0  0  0  0  0  0  0  0
  145.1271   75.7009  220.8903 H   0  0  0  0  0  0  0  0  0  0  0  0
  139.2630   69.8724  222.5310 H   0  0  0  0  0  0  0  0  0  0  0  0
  138.7416   68.5957  224.5934 H   0  0  0  0  0  0  0  0  0  0  0  0
  138.8976   68.3680  227.0364 H   0  0  0  0  0  0  0  0  0  0  0  0
  139.7010   69.2729  229.2016 H   0  0  0  0  0  0  0  0  0  0  0  0
  141.0000   71.4046  229.2871 H   0  0  0  0  0  0  0  0  0  0  0  0
  141.4801   72.6196  227.1844 H   0  0  0  0  0  0  0  0  0  0  0  0
  1  2  2  0
  2  3  1  0
  3  4  1  0
  4  5  1  0
  5  6  2  0
  5  7  1  0
  7  8  1  0
  8  9  1  0
  9 10  1  0
 10 11  1  0
 11 12  1  0
 12 13  1  0
 13 14  2  0
 14 15  1  0
 15 16  2  0
 16 17  1  0
 17 18  1  0
 17 19  2  0
  2 20  1  0
 20 21  2  0
 21 22  1  0
 22 23  2  0
 23 24  1  0
 24 25  2  0
 25 26  1  0
 26 27  2  0
 27 28  1  0
 28 29  2  0
 11  7  1  0
 19 13  1  0
 29 20  1  0
 28 23  1  0
  3 30  1  0
  4 31  1  0
  4 32  1  0
  8 33  1  0
  8 34  1  0
  9 35  1  0
  9 36  1  0
 10 37  1  0
 10 38  1  0
 11 39  1  6
 12 40  1  0
 12 41  1  0
 14 42  1  0
 15 43  1  0
 16 44  1  0
 19 45  1  0
 21 46  1  0
 22 47  1  0
 24 48  1  0
 25 49  1  0
 26 50  1  0
 27 51  1  0
M  END
>  <smiles>  (54) 
O=C(NCC(=O)N1CCCC1Cc1cccc(Cl)c1)c1ccc2ccccc2n1

>  <score_type>  (54) 
oracle

>  <origin>  (54) 
autodockgpu

>  <m_score__min__energy>  (54) 
-9.2400000000000002

>  <m_primary>  (54) 
energy

>  <rmsd>  (54) 
2.3359246329693413

>  <m_score__min__rmsd>  (54) 
2.3359246329693413

>  <meeko>  (54) 
{"free_energy": -8.91, "intermolecular_energy": -10.7, "internal_energy": -2.36, "cluster_size": 18, "cluster_id": 3, "rank_in_cluster": 5}

>  <energy>  (54) 
-9.1

>  <cluster_rmsd>  (54) 
0.97

>  <cluster>  (54) 
1

$$$$

     RDKit          3D

 51 54  0  0  0  0  0  0  0  0999 V2000
  141.1280   71.4120  221.3450 O   0  0  0  0  0  0  0  0  0  0  0  0
  140.6110   72.0290  222.3100 C   0  0  0  0  0  0  0  0  0  0  0  0
  140.2810   73.4110  222.2460 N   0  0  0  0  0  0  0  0  0  0  0  0
  140.5260   74.1880  221.0480 C   0  0  0  0  0  0  0  0  0  0  0  0
  140.7450   75.5870  221.5020 C   0  0  0  0  0  0  0  0  0  0  0  0
  140.3620   76.0180  222.6050 O   0  0  0  0  0  0  0  0  0  0  0  0
  141.4310   76.4880  220.6240 N   0  0  0  0  0  0  0  0  0  0  0  0
  141.5090   77.9290  220.7990 C   0  0  0  0  0  0  0  0  0  0  0  0
  141.8380   78.4750  219.4140 C   0  0  0  0  0  0  0  0  0  0  0  0
  141.7880   77.2570  218.4970 C   0  0  0  0  0  0  0  0  0  0  0  0
  142.1680   76.1410  219.4110 C   0  0  1  0  0  0  0  0  0  0  0  0
  143.6470   76.1350  219.7040 C   0  0  0  0  0  0  0  0  0  0  0  0
  144.0620   74.7450  220.0030 C   0  0  0  0  0  0  0  0  0  0  0  0
  145.0810   74.4000  220.8440 C   0  0  0  0  0  0  0  0  0  0  0  0
  145.4160   73.0810  221.0700 C   0  0  0  0  0  0  0  0  0  0  0  0
  144.7360   72.0510  220.4540 C   0  0  0  0  0  0  0  0  0  0  0  0
  143.7020   72.3800  219.5990 C   0  0  0  0  0  0  0  0  0  0  0  0
  142.7960   71.1020  218.7840 Cl  0  0  0  0  0  0  0  0  0  0  0  0
  143.3740   73.7020  219.3790 C   0  0  0  0  0  0  0  0  0  0  0  0
  140.3310   71.3160  223.5610 C   0  0  0  0  0  0  0  0  0  0  0  0
  139.6690   70.1050  223.5370 C   0  0  0  0  0  0  0  0  0  0  0  0
  139.3970   69.4200  224.7090 C   0  0  0  0  0  0  0  0  0  0  0  0
  139.7990   69.9630  225.9340 C   0  0  0  0  0  0  0  0  0  0  0  0
  139.5350   69.2900  227.1310 C   0  0  0  0  0  0  0  0  0  0  0  0
  139.9490   69.8630  228.3160 C   0  0  0  0  0  0  0  0  0  0  0  0
  140.6190   71.0900  228.3320 C   0  0  0  0  0  0  0  0  0  0  0  0
  140.8650   71.7290  227.1390 C   0  0  0  0  0  0  0  0  0  0  0  0
  140.4590   71.1770  225.9330 C   0  0  0  0  0  0  0  0  0  0  0  0
  140.7100   71.8210  224.7670 N   0  0  0  0  0  0  0  0  0  0  0  0
  139.8470   73.8670  223.1000 H   0  0  0  0  0  0  0  0  0  0  0  0
  141.4178   73.8123  220.5249 H   0  0  0  0  0  0  0  0  0  0  0  0
  139.6822   74.1207  220.3456 H   0  0  0  0  0  0  0  0  0  0  0  0
  140.5475   78.3284  221.1541 H   0  0  0  0  0  0  0  0  0  0  0  0
  142.2632   78.2151  221.5469 H   0  0  0  0  0  0  0  0  0  0  0  0
  141.0939   79.2240  219.1053 H   0  0  0  0  0  0  0  0  0  0  0  0
  142.8159   78.9779  219.3859 H   0  0  0  0  0  0  0  0  0  0  0  0
  140.7771   77.1089  218.0894 H   0  0  0  0  0  0  0  0  0  0  0  0
  142.4452   77.3448  217.6193 H   0  0  0  0  0  0  0  0  0  0  0  0
  141.9436   75.1480  218.9944 H   0  0  0  0  0  0  0  0  0  0  0  0
  144.2000   76.5071  218.8289 H   0  0  0  0  0  0  0  0  0  0  0  0
  143.8631   76.7858  220.5641 H   0  0  0  0  0  0  0  0  0  0  0  0
  145.6483   75.1928  221.3535 H   0  0  0  0  0  0  0  0  0  0  0  0
  146.2430   72.8456  221.7561 H   0  0  0  0  0  0  0  0  0  0  0  0
  145.0084   71.0012  220.6377 H   0  0  0  0  0  0  0  0  0  0  0  0
  142.5478   73.9411  218.6932 H   0  0  0  0  0  0  0  0  0  0  0  0
  139.3533   69.6784  222.5735 H   0  0  0  0  0  0  0  0  0  0  0  0
  138.8686   68.4557  224.6772 H   0  0  0  0  0  0  0  0  0  0  0  0
  139.0084   68.3242  227.1280 H   0  0  0  0  0  0  0  0  0  0  0  0
  139.7482   69.3450  229.2654 H   0  0  0  0  0  0  0  0  0  0  0  0
  140.9441   71.5370  229.2830 H   0  0  0  0  0  0  0  0  0  0  0  0
  141.3927   72.6942  227.1414 H   0  0  0  0  0  0  0  0  0  0  0  0
  1  2  2  0
  2  3  1  0
  3  4  1  0
  4  5  1  0
  5  6  2  0
  5  7  1  0
  7  8  1  0
  8  9  1  0
  9 10  1  0
 10 11  1  0
 11 12  1  0
 12 13  1  0
 13 14  2  0
 14 15  1  0
 15 16  2  0
 16 17  1  0
 17 18  1  0
 17 19  2  0
  2 20  1  0
 20 21  2  0
 21 22  1  0
 22 23  2  0
 23 24  1  0
 24 25  2  0
 25 26  1  0
 26 27  2  0
 27 28  1  0
 28 29  2  0
 11  7  1  0
 19 13  1  0
 29 20  1  0
 28 23  1  0
  3 30  1  0
  4 31  1  0
  4 32  1  0
  8 33  1  0
  8 34  1  0
  9 35  1  0
  9 36  1  0
 10 37  1  0
 10 38  1  0
 11 39  1  6
 12 40  1  0
 12 41  1  0
 14 42  1  0
 15 43  1  0
 16 44  1  0
 19 45  1  0
 21 46  1  0
 22 47  1  0
 24 48  1  0
 25 49  1  0
 26 50  1  0
 27 51  1  0
M  END
>  <smiles>  (55) 
O=C(NCC(=O)N1CCCC1Cc1cccc(Cl)c1)c1ccc2ccccc2n1

>  <score_type>  (55) 
oracle

>  <origin>  (55) 
autodockgpu

>  <m_score__min__energy>  (55) 
-9.2400000000000002

>  <m_primary>  (55) 
energy

>  <rmsd>  (55) 
2.2921894470836857

>  <m_score__min__rmsd>  (55) 
2.2921894470836857

>  <meeko>  (55) 
{"free_energy": -8.51, "intermolecular_energy": -10.3, "internal_energy": -2.49, "cluster_size": 18, "cluster_id": 3, "rank_in_cluster": 14}

>  <energy>  (55) 
-9.05

>  <cluster_rmsd>  (55) 
0.96

>  <cluster>  (55) 
1

$$$$

     RDKit          3D

 51 54  0  0  0  0  0  0  0  0999 V2000
  141.1700   71.5340  221.3620 O   0  0  0  0  0  0  0  0  0  0  0  0
  140.5990   72.1220  222.3160 C   0  0  0  0  0  0  0  0  0  0  0  0
  140.1900   73.4820  222.2420 N   0  0  0  0  0  0  0  0  0  0  0  0
  140.4140   74.2710  221.0470 C   0  0  0  0  0  0  0  0  0  0  0  0
  140.5310   75.6820  221.5010 C   0  0  0  0  0  0  0  0  0  0  0  0
  140.1470   76.0770  222.6180 O   0  0  0  0  0  0  0  0  0  0  0  0
  141.1130   76.6380  220.6070 N   0  0  0  0  0  0  0  0  0  0  0  0
  141.2100   78.0670  220.8580 C   0  0  0  0  0  0  0  0  0  0  0  0
  141.3820   78.6960  219.4790 C   0  0  0  0  0  0  0  0  0  0  0  0
  141.2290   77.5340  218.5030 C   0  0  0  0  0  0  0  0  0  0  0  0
  141.7100   76.3690  219.3000 C   0  0  1  0  0  0  0  0  0  0  0  0
  143.2130   76.3560  219.4260 C   0  0  0  0  0  0  0  0  0  0  0  0
  143.6500   74.9700  219.7130 C   0  0  0  0  0  0  0  0  0  0  0  0
  143.0190   73.8460  219.2630 C   0  0  0  0  0  0  0  0  0  0  0  0
  143.4800   72.5840  219.5770 C   0  0  0  0  0  0  0  0  0  0  0  0
  144.6010   72.4030  220.3610 C   0  0  0  0  0  0  0  0  0  0  0  0
  145.2530   73.5290  220.8250 C   0  0  0  0  0  0  0  0  0  0  0  0
  146.6940   73.3560  221.8320 Cl  0  0  0  0  0  0  0  0  0  0  0  0
  144.7840   74.7870  220.5060 C   0  0  0  0  0  0  0  0  0  0  0  0
  140.3360   71.3960  223.5620 C   0  0  0  0  0  0  0  0  0  0  0  0
  139.6640   70.1900  223.5360 C   0  0  0  0  0  0  0  0  0  0  0  0
  139.4070   69.4930  224.7040 C   0  0  0  0  0  0  0  0  0  0  0  0
  139.8360   70.0160  225.9280 C   0  0  0  0  0  0  0  0  0  0  0  0
  139.5900   69.3310  227.1210 C   0  0  0  0  0  0  0  0  0  0  0  0
  140.0300   69.8840  228.3060 C   0  0  0  0  0  0  0  0  0  0  0  0
  140.7110   71.1050  228.3250 C   0  0  0  0  0  0  0  0  0  0  0  0
  140.9400   71.7570  227.1350 C   0  0  0  0  0  0  0  0  0  0  0  0
  140.5080   71.2250  225.9300 C   0  0  0  0  0  0  0  0  0  0  0  0
  140.7430   71.8810  224.7680 N   0  0  0  0  0  0  0  0  0  0  0  0
  139.7140   73.9130  223.0860 H   0  0  0  0  0  0  0  0  0  0  0  0
  141.3408   73.9526  220.5473 H   0  0  0  0  0  0  0  0  0  0  0  0
  139.5939   74.1479  220.3243 H   0  0  0  0  0  0  0  0  0  0  0  0
  140.2943   78.4382  221.3414 H   0  0  0  0  0  0  0  0  0  0  0  0
  142.0429   78.3137  221.5329 H   0  0  0  0  0  0  0  0  0  0  0  0
  140.6083   79.4573  219.3004 H   0  0  0  0  0  0  0  0  0  0  0  0
  142.3508   79.2057  219.3714 H   0  0  0  0  0  0  0  0  0  0  0  0
  140.1785   77.4031  218.2040 H   0  0  0  0  0  0  0  0  0  0  0  0
  141.7828   77.6780  217.5636 H   0  0  0  0  0  0  0  0  0  0  0  0
  141.4414   75.4011  218.8516 H   0  0  0  0  0  0  0  0  0  0  0  0
  143.6670   76.7006  218.4852 H   0  0  0  0  0  0  0  0  0  0  0  0
  143.5283   77.0260  220.2394 H   0  0  0  0  0  0  0  0  0  0  0  0
  142.1217   73.9490  218.6351 H   0  0  0  0  0  0  0  0  0  0  0  0
  142.9426   71.7038  219.1943 H   0  0  0  0  0  0  0  0  0  0  0  0
  144.9638   71.3945  220.6085 H   0  0  0  0  0  0  0  0  0  0  0  0
  145.3184   75.6697  220.8871 H   0  0  0  0  0  0  0  0  0  0  0  0
  139.3281   69.7772  222.5733 H   0  0  0  0  0  0  0  0  0  0  0  0
  138.8689   68.5342  224.6696 H   0  0  0  0  0  0  0  0  0  0  0  0
  139.0558   68.3694  227.1154 H   0  0  0  0  0  0  0  0  0  0  0  0
  139.8418   69.3552  229.2520 H   0  0  0  0  0  0  0  0  0  0  0  0
  141.0579   71.5372  229.2752 H   0  0  0  0  0  0  0  0  0  0  0  0
  141.4756   72.7178  227.1400 H   0  0  0  0  0  0  0  0  0  0  0  0
  1  2  2  0
  2  3  1  0
  3  4  1  0
  4  5  1  0
  5  6  2  0
  5  7  1  0
  7  8  1  0
  8  9  1  0
  9 10  1  0
 10 11  1  0
 11 12  1  0
 12 13  1  0
 13 14  2  0
 14 15  1  0
 15 16  2  0
 16 17  1  0
 17 18  1  0
 17 19  2  0
  2 20  1  0
 20 21  2  0
 21 22  1  0
 22 23  2  0
 23 24  1  0
 24 25  2  0
 25 26  1  0
 26 27  2  0
 27 28  1  0
 28 29  2  0
 11  7  1  0
 19 13  1  0
 29 20  1  0
 28 23  1  0
  3 30  1  0
  4 31  1  0
  4 32  1  0
  8 33  1  0
  8 34  1  0
  9 35  1  0
  9 36  1  0
 10 37  1  0
 10 38  1  0
 11 39  1  6
 12 40  1  0
 12 41  1  0
 14 42  1  0
 15 43  1  0
 16 44  1  0
 19 45  1  0
 21 46  1  0
 22 47  1  0
 24 48  1  0
 25 49  1  0
 26 50  1  0
 27 51  1  0
M  END
>  <smiles>  (56) 
O=C(NCC(=O)N1CCCC1Cc1cccc(Cl)c1)c1ccc2ccccc2n1

>  <score_type>  (56) 
oracle

>  <origin>  (56) 
autodockgpu

>  <m_score__min__energy>  (56) 
-9.2400000000000002

>  <m_primary>  (56) 
energy

>  <rmsd>  (56) 
2.2678600590456717

>  <m_score__min__rmsd>  (56) 
2.2678600590456717

>  <meeko>  (56) 
{"free_energy": -8.96, "intermolecular_energy": -10.75, "internal_energy": -2.34, "cluster_size": 18, "cluster_id": 3, "rank_in_cluster": 3}

>  <energy>  (56) 
-9.04

>  <cluster_rmsd>  (56) 
0.38

>  <cluster>  (56) 
1

$$$$

     RDKit          3D

 51 54  0  0  0  0  0  0  0  0999 V2000
  140.9030   74.4530  221.4700 O   0  0  0  0  0  0  0  0  0  0  0  0
  139.8790   74.9790  221.9760 C   0  0  0  0  0  0  0  0  0  0  0  0
  138.6880   74.2440  222.2310 N   0  0  0  0  0  0  0  0  0  0  0  0
  138.5930   72.8330  221.9160 C   0  0  0  0  0  0  0  0  0  0  0  0
  137.3260   72.3580  222.5330 C   0  0  0  0  0  0  0  0  0  0  0  0
  136.3620   73.1050  222.7810 O   0  0  0  0  0  0  0  0  0  0  0  0
  137.2090   70.9680  222.8620 N   0  0  0  0  0  0  0  0  0  0  0  0
  136.6400   69.9490  221.9950 C   0  0  0  0  0  0  0  0  0  0  0  0
  136.2470   68.8120  222.9320 C   0  0  0  0  0  0  0  0  0  0  0  0
  136.5150   69.3550  224.3320 C   0  0  0  0  0  0  0  0  0  0  0  0
  137.6290   70.3210  224.1030 C   0  0  1  0  0  0  0  0  0  0  0  0
  138.9450   69.6170  223.8830 C   0  0  0  0  0  0  0  0  0  0  0  0
  139.5960   69.4160  225.1990 C   0  0  0  0  0  0  0  0  0  0  0  0
  139.8340   68.2010  225.7720 C   0  0  0  0  0  0  0  0  0  0  0  0
  140.4410   68.0900  227.0060 C   0  0  0  0  0  0  0  0  0  0  0  0
  140.8340   69.2050  227.7160 C   0  0  0  0  0  0  0  0  0  0  0  0
  140.6020   70.4450  227.1520 C   0  0  0  0  0  0  0  0  0  0  0  0
  141.0860   71.9070  228.0160 Cl  0  0  0  0  0  0  0  0  0  0  0  0
  139.9940   70.5460  225.9170 C   0  0  0  0  0  0  0  0  0  0  0  0
  139.8920   76.4030  222.3240 C   0  0  0  0  0  0  0  0  0  0  0  0
  138.7060   77.0980  222.4520 C   0  0  0  0  0  0  0  0  0  0  0  0
  138.7020   78.4440  222.7790 C   0  0  0  0  0  0  0  0  0  0  0  0
  139.9150   79.1070  222.9840 C   0  0  0  0  0  0  0  0  0  0  0  0
  139.9370   80.4650  223.3150 C   0  0  0  0  0  0  0  0  0  0  0  0
  141.1580   81.0800  223.5080 C   0  0  0  0  0  0  0  0  0  0  0  0
  142.3540   80.3690  223.3770 C   0  0  0  0  0  0  0  0  0  0  0  0
  142.3030   79.0340  223.0500 C   0  0  0  0  0  0  0  0  0  0  0  0
  141.0900   78.3910  222.8500 C   0  0  0  0  0  0  0  0  0  0  0  0
  141.0590   77.0750  222.5290 N   0  0  0  0  0  0  0  0  0  0  0  0
  137.8630   74.7530  222.6590 H   0  0  0  0  0  0  0  0  0  0  0  0
  138.5657   72.6860  220.8262 H   0  0  0  0  0  0  0  0  0  0  0  0
  139.4606   72.2760  222.2993 H   0  0  0  0  0  0  0  0  0  0  0  0
  135.7569   70.3387  221.4675 H   0  0  0  0  0  0  0  0  0  0  0  0
  137.3489   69.6212  221.2204 H   0  0  0  0  0  0  0  0  0  0  0  0
  135.1833   68.5594  222.8108 H   0  0  0  0  0  0  0  0  0  0  0  0
  136.8112   67.8900  222.7278 H   0  0  0  0  0  0  0  0  0  0  0  0
  135.6271   69.8626  224.7370 H   0  0  0  0  0  0  0  0  0  0  0  0
  136.7610   68.5714  225.0638 H   0  0  0  0  0  0  0  0  0  0  0  0
  137.7924   70.9993  224.9535 H   0  0  0  0  0  0  0  0  0  0  0  0
  138.7691   68.6429  223.4033 H   0  0  0  0  0  0  0  0  0  0  0  0
  139.5919   70.2221  223.2308 H   0  0  0  0  0  0  0  0  0  0  0  0
  139.5347   67.2876  225.2371 H   0  0  0  0  0  0  0  0  0  0  0  0
  140.6151   67.0911  227.4325 H   0  0  0  0  0  0  0  0  0  0  0  0
  141.3167   69.1103  228.6999 H   0  0  0  0  0  0  0  0  0  0  0  0
  139.8182   71.5430  225.4868 H   0  0  0  0  0  0  0  0  0  0  0  0
  137.7512   76.5757  222.2921 H   0  0  0  0  0  0  0  0  0  0  0  0
  137.7505   78.9873  222.8767 H   0  0  0  0  0  0  0  0  0  0  0  0
  139.0003   81.0322  223.4196 H   0  0  0  0  0  0  0  0  0  0  0  0
  141.1900   82.1480  223.7694 H   0  0  0  0  0  0  0  0  0  0  0  0
  143.3212   80.8693  223.5330 H   0  0  0  0  0  0  0  0  0  0  0  0
  143.2396   78.4667  222.9453 H   0  0  0  0  0  0  0  0  0  0  0  0
  1  2  2  0
  2  3  1  0
  3  4  1  0
  4  5  1  0
  5  6  2  0
  5  7  1  0
  7  8  1  0
  8  9  1  0
  9 10  1  0
 10 11  1  0
 11 12  1  0
 12 13  1  0
 13 14  2  0
 14 15  1  0
 15 16  2  0
 16 17  1  0
 17 18  1  0
 17 19  2  0
  2 20  1  0
 20 21  2  0
 21 22  1  0
 22 23  2  0
 23 24  1  0
 24 25  2  0
 25 26  1  0
 26 27  2  0
 27 28  1  0
 28 29  2  0
 11  7  1  0
 19 13  1  0
 29 20  1  0
 28 23  1  0
  3 30  1  0
  4 31  1  0
  4 32  1  0
  8 33  1  0
  8 34  1  0
  9 35  1  0
  9 36  1  0
 10 37  1  0
 10 38  1  0
 11 39  1  1
 12 40  1  0
 12 41  1  0
 14 42  1  0
 15 43  1  0
 16 44  1  0
 19 45  1  0
 21 46  1  0
 22 47  1  0
 24 48  1  0
 25 49  1  0
 26 50  1  0
 27 51  1  0
M  END
>  <smiles>  (57) 
O=C(NCC(=O)N1CCCC1Cc1cccc(Cl)c1)c1ccc2ccccc2n1

>  <score_type>  (57) 
oracle

>  <origin>  (57) 
autodockgpu

>  <m_score__min__energy>  (57) 
-9.2400000000000002

>  <m_primary>  (57) 
energy

>  <rmsd>  (57) 
8.398284468096747

>  <m_score__min__rmsd>  (57) 
8.398284468096747

>  <meeko>  (57) 
{"free_energy": -8.86, "intermolecular_energy": -10.65, "internal_energy": -1.81, "cluster_size": 10, "cluster_id": 2, "rank_in_cluster": 7}

>  <energy>  (57) 
-9.02

>  <cluster_rmsd>  (57) 
0.98

>  <cluster>  (57) 
1

$$$$

     RDKit          3D

 51 54  0  0  0  0  0  0  0  0999 V2000
  140.0140   71.1620  221.1950 O   0  0  0  0  0  0  0  0  0  0  0  0
  139.9690   71.8730  222.2310 C   0  0  0  0  0  0  0  0  0  0  0  0
  139.9020   73.2930  222.1810 N   0  0  0  0  0  0  0  0  0  0  0  0
  139.8820   74.0020  220.9170 C   0  0  0  0  0  0  0  0  0  0  0  0
  140.4420   75.3520  221.1930 C   0  0  0  0  0  0  0  0  0  0  0  0
  140.3980   75.8970  222.3110 O   0  0  0  0  0  0  0  0  0  0  0  0
  141.0640   76.0630  220.1160 N   0  0  0  0  0  0  0  0  0  0  0  0
  140.7370   75.9010  218.7080 C   0  0  0  0  0  0  0  0  0  0  0  0
  141.9620   76.4160  217.9600 C   0  0  0  0  0  0  0  0  0  0  0  0
  142.9830   76.7200  219.0530 C   0  0  0  0  0  0  0  0  0  0  0  0
  142.1210   77.0660  220.2200 C   0  0  1  0  0  0  0  0  0  0  0  0
  141.5240   78.4440  220.0870 C   0  0  0  0  0  0  0  0  0  0  0  0
  141.4580   79.0610  221.4330 C   0  0  0  0  0  0  0  0  0  0  0  0
  142.5440   79.3820  222.1960 C   0  0  0  0  0  0  0  0  0  0  0  0
  142.4060   79.9500  223.4460 C   0  0  0  0  0  0  0  0  0  0  0  0
  141.1630   80.2160  223.9800 C   0  0  0  0  0  0  0  0  0  0  0  0
  140.0520   79.8980  223.2240 C   0  0  0  0  0  0  0  0  0  0  0  0
  138.4360   80.2190  223.8590 Cl  0  0  0  0  0  0  0  0  0  0  0  0
  140.2000   79.3310  221.9740 C   0  0  0  0  0  0  0  0  0  0  0  0
  139.9860   71.2350  223.5500 C   0  0  0  0  0  0  0  0  0  0  0  0
  139.4870   69.9570  223.7110 C   0  0  0  0  0  0  0  0  0  0  0  0
  139.4960   69.3410  224.9520 C   0  0  0  0  0  0  0  0  0  0  0  0
  140.0180   70.0230  226.0560 C   0  0  0  0  0  0  0  0  0  0  0  0
  140.0370   69.4220  227.3180 C   0  0  0  0  0  0  0  0  0  0  0  0
  140.5610   70.1310  228.3800 C   0  0  0  0  0  0  0  0  0  0  0  0
  141.0650   71.4230  228.2090 C   0  0  0  0  0  0  0  0  0  0  0  0
  141.0320   71.9890  226.9560 C   0  0  0  0  0  0  0  0  0  0  0  0
  140.5110   71.3010  225.8710 C   0  0  0  0  0  0  0  0  0  0  0  0
  140.4880   71.8740  224.6430 N   0  0  0  0  0  0  0  0  0  0  0  0
  139.8670   73.8290  223.0950 H   0  0  0  0  0  0  0  0  0  0  0  0
  140.5006   73.4765  220.1746 H   0  0  0  0  0  0  0  0  0  0  0  0
  138.8630   74.0654  220.5076 H   0  0  0  0  0  0  0  0  0  0  0  0
  140.5561   74.8420  218.4719 H   0  0  0  0  0  0  0  0  0  0  0  0
  139.8223   76.4450  218.4296 H   0  0  0  0  0  0  0  0  0  0  0  0
  142.3471   75.6492  217.2717 H   0  0  0  0  0  0  0  0  0  0  0  0
  141.7339   77.2996  217.3458 H   0  0  0  0  0  0  0  0  0  0  0  0
  143.6075   75.8404  219.2681 H   0  0  0  0  0  0  0  0  0  0  0  0
  143.6896   77.5178  218.7805 H   0  0  0  0  0  0  0  0  0  0  0  0
  142.6694   77.0706  221.1736 H   0  0  0  0  0  0  0  0  0  0  0  0
  142.1540   79.0590  219.4276 H   0  0  0  0  0  0  0  0  0  0  0  0
  140.5151   78.3770  219.6537 H   0  0  0  0  0  0  0  0  0  0  0  0
  143.5527   79.1831  221.8049 H   0  0  0  0  0  0  0  0  0  0  0  0
  143.3063   80.1956  224.0284 H   0  0  0  0  0  0  0  0  0  0  0  0
  141.0595   80.6677  224.9776 H   0  0  0  0  0  0  0  0  0  0  0  0
  139.3019   79.0853  221.3883 H   0  0  0  0  0  0  0  0  0  0  0  0
  139.0770   69.4212  222.8422 H   0  0  0  0  0  0  0  0  0  0  0  0
  139.0956   68.3231  225.0682 H   0  0  0  0  0  0  0  0  0  0  0  0
  139.6426   68.4052  227.4617 H   0  0  0  0  0  0  0  0  0  0  0  0
  140.5822   69.6707  229.3789 H   0  0  0  0  0  0  0  0  0  0  0  0
  141.4813   71.9782  229.0625 H   0  0  0  0  0  0  0  0  0  0  0  0
  141.4261   73.0059  226.8121 H   0  0  0  0  0  0  0  0  0  0  0  0
  1  2  2  0
  2  3  1  0
  3  4  1  0
  4  5  1  0
  5  6  2  0
  5  7  1  0
  7  8  1  0
  8  9  1  0
  9 10  1  0
 10 11  1  0
 11 12  1  0
 12 13  1  0
 13 14  2  0
 14 15  1  0
 15 16  2  0
 16 17  1  0
 17 18  1  0
 17 19  2  0
  2 20  1  0
 20 21  2  0
 21 22  1  0
 22 23  2  0
 23 24  1  0
 24 25  2  0
 25 26  1  0
 26 27  2  0
 27 28  1  0
 28 29  2  0
 11  7  1  0
 19 13  1  0
 29 20  1  0
 28 23  1  0
  3 30  1  0
  4 31  1  0
  4 32  1  0
  8 33  1  0
  8 34  1  0
  9 35  1  0
  9 36  1  0
 10 37  1  0
 10 38  1  0
 11 39  1  1
 12 40  1  0
 12 41  1  0
 14 42  1  0
 15 43  1  0
 16 44  1  0
 19 45  1  0
 21 46  1  0
 22 47  1  0
 24 48  1  0
 25 49  1  0
 26 50  1  0
 27 51  1  0
M  END
>  <smiles>  (58) 
O=C(NCC(=O)N1CCCC1Cc1cccc(Cl)c1)c1ccc2ccccc2n1

>  <score_type>  (58) 
oracle

>  <origin>  (58) 
autodockgpu

>  <m_score__min__energy>  (58) 
-9.2400000000000002

>  <m_primary>  (58) 
energy

>  <rmsd>  (58) 
1.5881614679123173

>  <m_score__min__rmsd>  (58) 
1.5881614679123173

>  <meeko>  (58) 
{"free_energy": -8.85, "intermolecular_energy": -10.64, "internal_energy": -2.12, "cluster_size": 18, "cluster_id": 1, "rank_in_cluster": 15}

>  <energy>  (58) 
-9.01

>  <cluster_rmsd>  (58) 
1.08

>  <cluster>  (58) 
1

$$$$

     RDKit          3D

 51 54  0  0  0  0  0  0  0  0999 V2000
  139.4190   70.7470  221.1410 O   0  0  0  0  0  0  0  0  0  0  0  0
  139.9130   71.4220  222.0800 C   0  0  0  0  0  0  0  0  0  0  0  0
  140.5090   72.6960  221.8760 N   0  0  0  0  0  0  0  0  0  0  0  0
  140.5790   73.2920  220.5560 C   0  0  0  0  0  0  0  0  0  0  0  0
  141.1180   74.6640  220.7510 C   0  0  0  0  0  0  0  0  0  0  0  0
  141.1590   75.2330  221.8570 O   0  0  0  0  0  0  0  0  0  0  0  0
  141.6150   75.3680  219.6070 N   0  0  0  0  0  0  0  0  0  0  0  0
  141.4840   74.9220  218.2290 C   0  0  0  0  0  0  0  0  0  0  0  0
  142.5810   75.6630  217.4710 C   0  0  0  0  0  0  0  0  0  0  0  0
  143.3660   76.4010  218.5520 C   0  0  0  0  0  0  0  0  0  0  0  0
  142.3340   76.6400  219.6020 C   0  0  1  0  0  0  0  0  0  0  0  0
  141.3890   77.7510  219.2180 C   0  0  0  0  0  0  0  0  0  0  0  0
  141.5480   78.8610  220.1860 C   0  0  0  0  0  0  0  0  0  0  0  0
  141.6580   80.1790  219.8490 C   0  0  0  0  0  0  0  0  0  0  0  0
  141.8100   81.1600  220.8070 C   0  0  0  0  0  0  0  0  0  0  0  0
  141.8600   80.8500  222.1510 C   0  0  0  0  0  0  0  0  0  0  0  0
  141.7510   79.5220  222.5120 C   0  0  0  0  0  0  0  0  0  0  0  0
  141.8060   79.0680  224.2180 Cl  0  0  0  0  0  0  0  0  0  0  0  0
  141.5980   78.5470  221.5470 C   0  0  0  0  0  0  0  0  0  0  0  0
  139.8840   70.8910  223.4470 C   0  0  0  0  0  0  0  0  0  0  0  0
  139.2860   69.6750  223.7080 C   0  0  0  0  0  0  0  0  0  0  0  0
  139.2510   69.1610  224.9940 C   0  0  0  0  0  0  0  0  0  0  0  0
  139.8300   69.8840  226.0410 C   0  0  0  0  0  0  0  0  0  0  0  0
  139.8070   69.3860  227.3470 C   0  0  0  0  0  0  0  0  0  0  0  0
  140.3900   70.1330  228.3500 C   0  0  0  0  0  0  0  0  0  0  0  0
  140.9940   71.3640  228.0780 C   0  0  0  0  0  0  0  0  0  0  0  0
  141.0020   71.8290  226.7830 C   0  0  0  0  0  0  0  0  0  0  0  0
  140.4230   71.1000  225.7560 C   0  0  0  0  0  0  0  0  0  0  0  0
  140.4400   71.5730  224.4860 N   0  0  0  0  0  0  0  0  0  0  0  0
  140.9060   73.2090  222.7150 H   0  0  0  0  0  0  0  0  0  0  0  0
  141.2486   72.7073  219.9082 H   0  0  0  0  0  0  0  0  0  0  0  0
  139.5915   73.3133  220.0718 H   0  0  0  0  0  0  0  0  0  0  0  0
  141.6318   73.8343  218.1585 H   0  0  0  0  0  0  0  0  0  0  0  0
  140.4845   75.1301  217.8195 H   0  0  0  0  0  0  0  0  0  0  0  0
  143.2298   74.9541  216.9357 H   0  0  0  0  0  0  0  0  0  0  0  0
  142.1740   76.3466  216.7114 H   0  0  0  0  0  0  0  0  0  0  0  0
  144.1884   75.7808  218.9381 H   0  0  0  0  0  0  0  0  0  0  0  0
  143.8432   77.3241  218.1912 H   0  0  0  0  0  0  0  0  0  0  0  0
  142.7659   76.9378  220.5688 H   0  0  0  0  0  0  0  0  0  0  0  0
  141.6266   78.1061  218.2044 H   0  0  0  0  0  0  0  0  0  0  0  0
  140.3519   77.3847  219.2326 H   0  0  0  0  0  0  0  0  0  0  0  0
  141.6247   80.4661  218.7876 H   0  0  0  0  0  0  0  0  0  0  0  0
  141.8931   82.2110  220.4932 H   0  0  0  0  0  0  0  0  0  0  0  0
  141.9828   81.6362  222.9105 H   0  0  0  0  0  0  0  0  0  0  0  0
  141.5132   77.4951  221.8573 H   0  0  0  0  0  0  0  0  0  0  0  0
  138.8309   69.1062  222.8838 H   0  0  0  0  0  0  0  0  0  0  0  0
  138.7710   68.1908  225.1899 H   0  0  0  0  0  0  0  0  0  0  0  0
  139.3338   68.4184  227.5705 H   0  0  0  0  0  0  0  0  0  0  0  0
  140.3793   69.7530  229.3822 H   0  0  0  0  0  0  0  0  0  0  0  0
  141.4552   71.9512  228.8858 H   0  0  0  0  0  0  0  0  0  0  0  0
  141.4761   72.7960  226.5589 H   0  0  0  0  0  0  0  0  0  0  0  0
  1  2  2  0
  2  3  1  0
  3  4  1  0
  4  5  1  0
  5  6  2  0
  5  7  1  0
  7  8  1  0
  8  9  1  0
  9 10  1  0
 10 11  1  0
 11 12  1  0
 12 13  1  0
 13 14  2  0
 14 15  1  0
 15 16  2  0
 16 17  1  0
 17 18  1  0
 17 19  2  0
  2 20  1  0
 20 21  2  0
 21 22  1  0
 22 23  2  0
 23 24  1  0
 24 25  2  0
 25 26  1  0
 26 27  2  0
 27 28  1  0
 28 29  2  0
 11  7  1  0
 19 13  1  0
 29 20  1  0
 28 23  1  0
  3 30  1  0
  4 31  1  0
  4 32  1  0
  8 33  1  0
  8 34  1  0
  9 35  1  0
  9 36  1  0
 10 37  1  0
 10 38  1  0
 11 39  1  1
 12 40  1  0
 12 41  1  0
 14 42  1  0
 15 43  1  0
 16 44  1  0
 19 45  1  0
 21 46  1  0
 22 47  1  0
 24 48  1  0
 25 49  1  0
 26 50  1  0
 27 51  1  0
M  END
>  <smiles>  (59) 
O=C(NCC(=O)N1CCCC1Cc1cccc(Cl)c1)c1ccc2ccccc2n1

>  <score_type>  (59) 
oracle

>  <origin>  (59) 
autodockgpu

>  <m_score__min__energy>  (59) 
-9.2400000000000002

>  <m_primary>  (59) 
energy

>  <rmsd>  (59) 
1.855661636657823

>  <m_score__min__rmsd>  (59) 
1.855661636657823

>  <meeko>  (59) 
{"free_energy": -8.1, "intermolecular_energy": -9.89, "internal_energy": -2.21, "cluster_size": 18, "cluster_id": 1, "rank_in_cluster": 18}

>  <energy>  (59) 
-9.0

>  <cluster_rmsd>  (59) 
0.99

>  <cluster>  (59) 
1

$$$$

     RDKit          3D

 51 54  0  0  0  0  0  0  0  0999 V2000
  140.1520   71.1790  221.2050 O   0  0  0  0  0  0  0  0  0  0  0  0
  139.9820   71.8560  222.2510 C   0  0  0  0  0  0  0  0  0  0  0  0
  139.7780   73.2630  222.2270 N   0  0  0  0  0  0  0  0  0  0  0  0
  139.7540   73.9990  220.9790 C   0  0  0  0  0  0  0  0  0  0  0  0
  140.2880   75.3520  221.2880 C   0  0  0  0  0  0  0  0  0  0  0  0
  140.1480   75.9080  222.3930 O   0  0  0  0  0  0  0  0  0  0  0  0
  141.0010   76.0520  220.2620 N   0  0  0  0  0  0  0  0  0  0  0  0
  140.8450   75.8280  218.8340 C   0  0  0  0  0  0  0  0  0  0  0  0
  142.1270   76.3700  218.2100 C   0  0  0  0  0  0  0  0  0  0  0  0
  143.0020   76.7550  219.3980 C   0  0  0  0  0  0  0  0  0  0  0  0
  142.0000   77.1030  220.4460 C   0  0  1  0  0  0  0  0  0  0  0  0
  141.3670   78.4490  220.1930 C   0  0  0  0  0  0  0  0  0  0  0  0
  141.4300   79.2410  221.4430 C   0  0  0  0  0  0  0  0  0  0  0  0
  142.5760   79.7370  221.9940 C   0  0  0  0  0  0  0  0  0  0  0  0
  142.5580   80.4630  223.1670 C   0  0  0  0  0  0  0  0  0  0  0  0
  141.3790   80.7190  223.8360 C   0  0  0  0  0  0  0  0  0  0  0  0
  140.2090   80.2250  223.2940 C   0  0  0  0  0  0  0  0  0  0  0  0
  138.6700   80.5240  224.1080 Cl  0  0  0  0  0  0  0  0  0  0  0  0
  140.2360   79.5000  222.1200 C   0  0  0  0  0  0  0  0  0  0  0  0
  139.9920   71.1880  223.5570 C   0  0  0  0  0  0  0  0  0  0  0  0
  139.4940   69.9070  223.6860 C   0  0  0  0  0  0  0  0  0  0  0  0
  139.4960   69.2640  224.9130 C   0  0  0  0  0  0  0  0  0  0  0  0
  140.0110   69.9210  226.0350 C   0  0  0  0  0  0  0  0  0  0  0  0
  140.0240   69.2920  227.2830 C   0  0  0  0  0  0  0  0  0  0  0  0
  140.5420   69.9770  228.3640 C   0  0  0  0  0  0  0  0  0  0  0  0
  141.0450   71.2740  228.2240 C   0  0  0  0  0  0  0  0  0  0  0  0
  141.0190   71.8680  226.9840 C   0  0  0  0  0  0  0  0  0  0  0  0
  140.5040   71.2030  225.8810 C   0  0  0  0  0  0  0  0  0  0  0  0
  140.4870   71.8030  224.6660 N   0  0  0  0  0  0  0  0  0  0  0  0
  139.6410   73.7690  223.1490 H   0  0  0  0  0  0  0  0  0  0  0  0
  140.3867   73.5008  220.2297 H   0  0  0  0  0  0  0  0  0  0  0  0
  138.7367   74.0535  220.5641 H   0  0  0  0  0  0  0  0  0  0  0  0
  140.7342   74.7547  218.6203 H   0  0  0  0  0  0  0  0  0  0  0  0
  139.9478   76.3220  218.4327 H   0  0  0  0  0  0  0  0  0  0  0  0
  142.6185   75.5976  217.6002 H   0  0  0  0  0  0  0  0  0  0  0  0
  141.9365   77.2212  217.5398 H   0  0  0  0  0  0  0  0  0  0  0  0
  143.6318   75.9112  219.7164 H   0  0  0  0  0  0  0  0  0  0  0  0
  143.7028   77.5733  219.1761 H   0  0  0  0  0  0  0  0  0  0  0  0
  142.4361   77.1640  221.4540 H   0  0  0  0  0  0  0  0  0  0  0  0
  141.9139   78.9719  219.3946 H   0  0  0  0  0  0  0  0  0  0  0  0
  140.3201   78.3202  219.8811 H   0  0  0  0  0  0  0  0  0  0  0  0
  143.5368   79.5535  221.4908 H   0  0  0  0  0  0  0  0  0  0  0  0
  143.5039   80.8459  223.5776 H   0  0  0  0  0  0  0  0  0  0  0  0
  141.3712   81.2981  224.7712 H   0  0  0  0  0  0  0  0  0  0  0  0
  139.2919   79.1158  221.7063 H   0  0  0  0  0  0  0  0  0  0  0  0
  139.0903   69.3901  222.8029 H   0  0  0  0  0  0  0  0  0  0  0  0
  139.0953   68.2437  225.0042 H   0  0  0  0  0  0  0  0  0  0  0  0
  139.6296   68.2720  227.4016 H   0  0  0  0  0  0  0  0  0  0  0  0
  140.5593   69.4941  229.3522 H   0  0  0  0  0  0  0  0  0  0  0  0
  141.4551   71.8109  229.0921 H   0  0  0  0  0  0  0  0  0  0  0  0
  141.4134   72.8879  226.8648 H   0  0  0  0  0  0  0  0  0  0  0  0
  1  2  2  0
  2  3  1  0
  3  4  1  0
  4  5  1  0
  5  6  2  0
  5  7  1  0
  7  8  1  0
  8  9  1  0
  9 10  1  0
 10 11  1  0
 11 12  1  0
 12 13  1  0
 13 14  2  0
 14 15  1  0
 15 16  2  0
 16 17  1  0
 17 18  1  0
 17 19  2  0
  2 20  1  0
 20 21  2  0
 21 22  1  0
 22 23  2  0
 23 24  1  0
 24 25  2  0
 25 26  1  0
 26 27  2  0
 27 28  1  0
 28 29  2  0
 11  7  1  0
 19 13  1  0
 29 20  1  0
 28 23  1  0
  3 30  1  0
  4 31  1  0
  4 32  1  0
  8 33  1  0
  8 34  1  0
  9 35  1  0
  9 36  1  0
 10 37  1  0
 10 38  1  0
 11 39  1  1
 12 40  1  0
 12 41  1  0
 14 42  1  0
 15 43  1  0
 16 44  1  0
 19 45  1  0
 21 46  1  0
 22 47  1  0
 24 48  1  0
 25 49  1  0
 26 50  1  0
 27 51  1  0
M  END
>  <smiles>  (60) 
O=C(NCC(=O)N1CCCC1Cc1cccc(Cl)c1)c1ccc2ccccc2n1

>  <score_type>  (60) 
oracle

>  <origin>  (60) 
autodockgpu

>  <m_score__min__energy>  (60) 
-9.2400000000000002

>  <m_primary>  (60) 
energy

>  <rmsd>  (60) 
1.5968383604661665

>  <m_score__min__rmsd>  (60) 
1.5968383604661665

>  <meeko>  (60) 
{"free_energy": -9.16, "intermolecular_energy": -10.95, "internal_energy": -1.97, "cluster_size": 18, "cluster_id": 1, "rank_in_cluster": 2}

>  <energy>  (60) 
-8.99

>  <cluster_rmsd>  (60) 
0.98

>  <cluster>  (60) 
1

$$$$

     RDKit          3D

 51 54  0  0  0  0  0  0  0  0999 V2000
  140.4400   71.1190  221.2240 O   0  0  0  0  0  0  0  0  0  0  0  0
  140.2210   71.8360  222.2340 C   0  0  0  0  0  0  0  0  0  0  0  0
  140.0650   73.2470  222.1500 N   0  0  0  0  0  0  0  0  0  0  0  0
  140.1530   73.9400  220.8800 C   0  0  0  0  0  0  0  0  0  0  0  0
  140.6300   75.3130  221.1920 C   0  0  0  0  0  0  0  0  0  0  0  0
  140.6060   75.8040  222.3360 O   0  0  0  0  0  0  0  0  0  0  0  0
  141.1450   76.1140  220.1220 N   0  0  0  0  0  0  0  0  0  0  0  0
  140.8480   75.9160  218.7120 C   0  0  0  0  0  0  0  0  0  0  0  0
  141.9870   76.6080  217.9700 C   0  0  0  0  0  0  0  0  0  0  0  0
  142.9510   77.0480  219.0680 C   0  0  0  0  0  0  0  0  0  0  0  0
  142.0470   77.2580  220.2350 C   0  0  1  0  0  0  0  0  0  0  0  0
  141.2570   78.5370  220.1090 C   0  0  0  0  0  0  0  0  0  0  0  0
  141.3450   79.2730  221.3920 C   0  0  0  0  0  0  0  0  0  0  0  0
  142.5080   79.6920  221.9710 C   0  0  0  0  0  0  0  0  0  0  0  0
  142.5150   80.3690  223.1730 C   0  0  0  0  0  0  0  0  0  0  0  0
  141.3440   80.6510  223.8440 C   0  0  0  0  0  0  0  0  0  0  0  0
  140.1560   80.2350  223.2750 C   0  0  0  0  0  0  0  0  0  0  0  0
  138.6260   80.5710  224.0910 Cl  0  0  0  0  0  0  0  0  0  0  0  0
  140.1590   79.5590  222.0720 C   0  0  0  0  0  0  0  0  0  0  0  0
  140.1180   71.2140  223.5570 C   0  0  0  0  0  0  0  0  0  0  0  0
  139.5420   69.9670  223.6970 C   0  0  0  0  0  0  0  0  0  0  0  0
  139.4380   69.3670  224.9400 C   0  0  0  0  0  0  0  0  0  0  0  0
  139.9240   70.0320  226.0700 C   0  0  0  0  0  0  0  0  0  0  0  0
  139.8300   69.4470  227.3360 C   0  0  0  0  0  0  0  0  0  0  0  0
  140.3220   70.1400  228.4230 C   0  0  0  0  0  0  0  0  0  0  0  0
  140.9040   71.4020  228.2740 C   0  0  0  0  0  0  0  0  0  0  0  0
  140.9830   71.9530  227.0170 C   0  0  0  0  0  0  0  0  0  0  0  0
  140.4960   71.2800  225.9060 C   0  0  0  0  0  0  0  0  0  0  0  0
  140.5830   71.8390  224.6750 N   0  0  0  0  0  0  0  0  0  0  0  0
  139.8820   73.7890  223.0430 H   0  0  0  0  0  0  0  0  0  0  0  0
  140.8658   73.4300  220.2154 H   0  0  0  0  0  0  0  0  0  0  0  0
  139.1814   73.9595  220.3645 H   0  0  0  0  0  0  0  0  0  0  0  0
  140.8228   74.8435  218.4687 H   0  0  0  0  0  0  0  0  0  0  0  0
  139.8649   76.3241  218.4347 H   0  0  0  0  0  0  0  0  0  0  0  0
  142.4799   75.9099  217.2774 H   0  0  0  0  0  0  0  0  0  0  0  0
  141.6349   77.4535  217.3608 H   0  0  0  0  0  0  0  0  0  0  0  0
  143.6953   76.2660  219.2788 H   0  0  0  0  0  0  0  0  0  0  0  0
  143.5353   77.9415  218.8028 H   0  0  0  0  0  0  0  0  0  0  0  0
  142.5880   77.3348  221.1897 H   0  0  0  0  0  0  0  0  0  0  0  0
  141.6747   79.1527  219.2988 H   0  0  0  0  0  0  0  0  0  0  0  0
  140.2062   78.3093  219.8767 H   0  0  0  0  0  0  0  0  0  0  0  0
  143.4633   79.4847  221.4666 H   0  0  0  0  0  0  0  0  0  0  0  0
  143.4743   80.6903  223.6049 H   0  0  0  0  0  0  0  0  0  0  0  0
  141.3554   81.1904  224.8026 H   0  0  0  0  0  0  0  0  0  0  0  0
  139.2015   79.2367  221.6369 H   0  0  0  0  0  0  0  0  0  0  0  0
  139.1604   69.4430  222.8083 H   0  0  0  0  0  0  0  0  0  0  0  0
  138.9761   68.3735  225.0383 H   0  0  0  0  0  0  0  0  0  0  0  0
  139.3731   68.4545  227.4631 H   0  0  0  0  0  0  0  0  0  0  0  0
  140.2550   69.6911  229.4250 H   0  0  0  0  0  0  0  0  0  0  0  0
  141.2924   71.9453  229.1480 H   0  0  0  0  0  0  0  0  0  0  0  0
  141.4405   72.9452  226.8899 H   0  0  0  0  0  0  0  0  0  0  0  0
  1  2  2  0
  2  3  1  0
  3  4  1  0
  4  5  1  0
  5  6  2  0
  5  7  1  0
  7  8  1  0
  8  9  1  0
  9 10  1  0
 10 11  1  0
 11 12  1  0
 12 13  1  0
 13 14  2  0
 14 15  1  0
 15 16  2  0
 16 17  1  0
 17 18  1  0
 17 19  2  0
  2 20  1  0
 20 21  2  0
 21 22  1  0
 22 23  2  0
 23 24  1  0
 24 25  2  0
 25 26  1  0
 26 27  2  0
 27 28  1  0
 28 29  2  0
 11  7  1  0
 19 13  1  0
 29 20  1  0
 28 23  1  0
  3 30  1  0
  4 31  1  0
  4 32  1  0
  8 33  1  0
  8 34  1  0
  9 35  1  0
  9 36  1  0
 10 37  1  0
 10 38  1  0
 11 39  1  1
 12 40  1  0
 12 41  1  0
 14 42  1  0
 15 43  1  0
 16 44  1  0
 19 45  1  0
 21 46  1  0
 22 47  1  0
 24 48  1  0
 25 49  1  0
 26 50  1  0
 27 51  1  0
M  END
>  <smiles>  (61) 
O=C(NCC(=O)N1CCCC1Cc1cccc(Cl)c1)c1ccc2ccccc2n1

>  <score_type>  (61) 
oracle

>  <origin>  (61) 
autodockgpu

>  <m_score__min__energy>  (61) 
-9.2400000000000002

>  <m_primary>  (61) 
energy

>  <rmsd>  (61) 
1.651621365417315

>  <m_score__min__rmsd>  (61) 
1.651621365417315

>  <meeko>  (61) 
{"free_energy": -8.9, "intermolecular_energy": -10.69, "internal_energy": -2.01, "cluster_size": 18, "cluster_id": 1, "rank_in_cluster": 13}

>  <energy>  (61) 
-8.97

>  <cluster_rmsd>  (61) 
1.14

>  <cluster>  (61) 
1

$$$$

     RDKit          3D

 51 54  0  0  0  0  0  0  0  0999 V2000
  138.1400   72.3070  222.6660 O   0  0  0  0  0  0  0  0  0  0  0  0
  139.2890   71.8580  222.9110 C   0  0  0  0  0  0  0  0  0  0  0  0
  140.4410   72.2670  222.1860 N   0  0  0  0  0  0  0  0  0  0  0  0
  140.3500   73.2380  221.1130 C   0  0  0  0  0  0  0  0  0  0  0  0
  141.7300   73.4000  220.5850 C   0  0  0  0  0  0  0  0  0  0  0  0
  142.6230   72.5440  220.7260 O   0  0  0  0  0  0  0  0  0  0  0  0
  142.0510   74.6050  219.8800 N   0  0  0  0  0  0  0  0  0  0  0  0
  142.2860   74.6980  218.4480 C   0  0  0  0  0  0  0  0  0  0  0  0
  143.0880   75.9830  218.2650 C   0  0  0  0  0  0  0  0  0  0  0  0
  143.3690   76.4680  219.6840 C   0  0  0  0  0  0  0  0  0  0  0  0
  142.2010   75.9430  220.4490 C   0  0  1  0  0  0  0  0  0  0  0  0
  140.9520   76.7450  220.1850 C   0  0  0  0  0  0  0  0  0  0  0  0
  140.7210   77.6490  221.3360 C   0  0  0  0  0  0  0  0  0  0  0  0
  139.5680   77.7050  222.0640 C   0  0  0  0  0  0  0  0  0  0  0  0
  139.4210   78.5780  223.1220 C   0  0  0  0  0  0  0  0  0  0  0  0
  140.4370   79.4350  223.4900 C   0  0  0  0  0  0  0  0  0  0  0  0
  141.6120   79.3940  222.7670 C   0  0  0  0  0  0  0  0  0  0  0  0
  142.9470   80.4690  223.1960 Cl  0  0  0  0  0  0  0  0  0  0  0  0
  141.7490   78.5170  221.7100 C   0  0  0  0  0  0  0  0  0  0  0  0
  139.4690   70.8720  223.9810 C   0  0  0  0  0  0  0  0  0  0  0  0
  139.0050   69.5810  223.8220 C   0  0  0  0  0  0  0  0  0  0  0  0
  139.1670   68.6390  224.8240 C   0  0  0  0  0  0  0  0  0  0  0  0
  139.8110   68.9990  226.0120 C   0  0  0  0  0  0  0  0  0  0  0  0
  139.9860   68.0660  227.0370 C   0  0  0  0  0  0  0  0  0  0  0  0
  140.6270   68.4650  228.1930 C   0  0  0  0  0  0  0  0  0  0  0  0
  141.0950   69.7740  228.3460 C   0  0  0  0  0  0  0  0  0  0  0  0
  140.9080   70.6710  227.3200 C   0  0  0  0  0  0  0  0  0  0  0  0
  140.2670   70.2970  226.1480 C   0  0  0  0  0  0  0  0  0  0  0  0
  140.0920   71.1940  225.1480 N   0  0  0  0  0  0  0  0  0  0  0  0
  141.3780   71.8460  222.4470 H   0  0  0  0  0  0  0  0  0  0  0  0
  139.6793   72.8711  220.3221 H   0  0  0  0  0  0  0  0  0  0  0  0
  139.9418   74.1948  221.4707 H   0  0  0  0  0  0  0  0  0  0  0  0
  142.8600   73.8295  218.0927 H   0  0  0  0  0  0  0  0  0  0  0  0
  141.3477   74.7099  217.8741 H   0  0  0  0  0  0  0  0  0  0  0  0
  144.0280   75.7811  217.7306 H   0  0  0  0  0  0  0  0  0  0  0  0
  142.5456   76.7314  217.6686 H   0  0  0  0  0  0  0  0  0  0  0  0
  144.3127   76.0512  220.0658 H   0  0  0  0  0  0  0  0  0  0  0  0
  143.4828   77.5597  219.7570 H   0  0  0  0  0  0  0  0  0  0  0  0
  142.3507   75.9748  221.5383 H   0  0  0  0  0  0  0  0  0  0  0  0
  141.0790   77.3380  219.2672 H   0  0  0  0  0  0  0  0  0  0  0  0
  140.0919   76.0713  220.0566 H   0  0  0  0  0  0  0  0  0  0  0  0
  138.7347   77.0371  221.8005 H   0  0  0  0  0  0  0  0  0  0  0  0
  138.4749   78.5908  223.6831 H   0  0  0  0  0  0  0  0  0  0  0  0
  140.3146   80.1299  224.3339 H   0  0  0  0  0  0  0  0  0  0  0  0
  142.6938   78.5014  221.1468 H   0  0  0  0  0  0  0  0  0  0  0  0
  138.5000   69.2972  222.8869 H   0  0  0  0  0  0  0  0  0  0  0  0
  138.7916   67.6142  224.6864 H   0  0  0  0  0  0  0  0  0  0  0  0
  139.6205   67.0345  226.9254 H   0  0  0  0  0  0  0  0  0  0  0  0
  140.7721   67.7406  229.0079 H   0  0  0  0  0  0  0  0  0  0  0  0
  141.6042   70.0812  229.2714 H   0  0  0  0  0  0  0  0  0  0  0  0
  141.2731   71.7027  227.4308 H   0  0  0  0  0  0  0  0  0  0  0  0
  1  2  2  0
  2  3  1  0
  3  4  1  0
  4  5  1  0
  5  6  2  0
  5  7  1  0
  7  8  1  0
  8  9  1  0
  9 10  1  0
 10 11  1  0
 11 12  1  0
 12 13  1  0
 13 14  2  0
 14 15  1  0
 15 16  2  0
 16 17  1  0
 17 18  1  0
 17 19  2  0
  2 20  1  0
 20 21  2  0
 21 22  1  0
 22 23  2  0
 23 24  1  0
 24 25  2  0
 25 26  1  0
 26 27  2  0
 27 28  1  0
 28 29  2  0
 11  7  1  0
 19 13  1  0
 29 20  1  0
 28 23  1  0
  3 30  1  0
  4 31  1  0
  4 32  1  0
  8 33  1  0
  8 34  1  0
  9 35  1  0
  9 36  1  0
 10 37  1  0
 10 38  1  0
 11 39  1  1
 12 40  1  0
 12 41  1  0
 14 42  1  0
 15 43  1  0
 16 44  1  0
 19 45  1  0
 21 46  1  0
 22 47  1  0
 24 48  1  0
 25 49  1  0
 26 50  1  0
 27 51  1  0
M  END
>  <smiles>  (62) 
O=C(NCC(=O)N1CCCC1Cc1cccc(Cl)c1)c1ccc2ccccc2n1

>  <score_type>  (62) 
oracle

>  <origin>  (62) 
autodockgpu

>  <m_score__min__energy>  (62) 
-9.2400000000000002

>  <m_primary>  (62) 
energy

>  <rmsd>  (62) 
2.168776839873811

>  <m_score__min__rmsd>  (62) 
2.168776839873811

>  <meeko>  (62) 
{"free_energy": -8.16, "intermolecular_energy": -9.95, "internal_energy": -1.83, "cluster_size": 18, "cluster_id": 1, "rank_in_cluster": 17}

>  <energy>  (62) 
-8.95

>  <cluster_rmsd>  (62) 
0.31

>  <cluster>  (62) 
1

$$$$

     RDKit          3D

 51 54  0  0  0  0  0  0  0  0999 V2000
  140.7930   71.5250  221.1830 O   0  0  0  0  0  0  0  0  0  0  0  0
  140.3970   72.1420  222.2040 C   0  0  0  0  0  0  0  0  0  0  0  0
  140.1350   73.5390  222.2010 N   0  0  0  0  0  0  0  0  0  0  0  0
  140.3130   74.3350  221.0030 C   0  0  0  0  0  0  0  0  0  0  0  0
  140.7530   75.6790  221.4630 C   0  0  0  0  0  0  0  0  0  0  0  0
  140.6490   76.0680  222.6410 O   0  0  0  0  0  0  0  0  0  0  0  0
  141.3260   76.5730  220.5010 N   0  0  0  0  0  0  0  0  0  0  0  0
  141.5560   77.9930  220.7130 C   0  0  0  0  0  0  0  0  0  0  0  0
  141.6520   78.5880  219.3120 C   0  0  0  0  0  0  0  0  0  0  0  0
  141.3220   77.4280  218.3770 C   0  0  0  0  0  0  0  0  0  0  0  0
  141.7800   76.2400  219.1530 C   0  0  1  0  0  0  0  0  0  0  0  0
  143.2830   76.1100  219.1450 C   0  0  0  0  0  0  0  0  0  0  0  0
  143.6420   74.7730  219.6740 C   0  0  0  0  0  0  0  0  0  0  0  0
  142.9280   73.6310  219.4540 C   0  0  0  0  0  0  0  0  0  0  0  0
  143.3200   72.4200  219.9840 C   0  0  0  0  0  0  0  0  0  0  0  0
  144.4540   72.3100  220.7630 C   0  0  0  0  0  0  0  0  0  0  0  0
  145.1900   73.4550  220.9970 C   0  0  0  0  0  0  0  0  0  0  0  0
  146.6510   73.3720  221.9860 Cl  0  0  0  0  0  0  0  0  0  0  0  0
  144.7900   74.6620  220.4620 C   0  0  0  0  0  0  0  0  0  0  0  0
  140.1910   71.4110  223.4580 C   0  0  0  0  0  0  0  0  0  0  0  0
  139.5350   70.1960  223.4550 C   0  0  0  0  0  0  0  0  0  0  0  0
  139.3320   69.4940  224.6320 C   0  0  0  0  0  0  0  0  0  0  0  0
  139.8000   70.0220  225.8390 C   0  0  0  0  0  0  0  0  0  0  0  0
  139.6070   69.3320  227.0390 C   0  0  0  0  0  0  0  0  0  0  0  0
  140.0840   69.8910  228.2080 C   0  0  0  0  0  0  0  0  0  0  0  0
  140.7480   71.1210  228.2030 C   0  0  0  0  0  0  0  0  0  0  0  0
  140.9230   71.7780  227.0070 C   0  0  0  0  0  0  0  0  0  0  0  0
  140.4530   71.2400  225.8180 C   0  0  0  0  0  0  0  0  0  0  0  0
  140.6350   71.9010  224.6490 N   0  0  0  0  0  0  0  0  0  0  0  0
  139.8020   73.9930  223.0990 H   0  0  0  0  0  0  0  0  0  0  0  0
  141.0787   73.8836  220.3549 H   0  0  0  0  0  0  0  0  0  0  0  0
  139.3833   74.3947  220.4181 H   0  0  0  0  0  0  0  0  0  0  0  0
  140.7190   78.4421  221.2678 H   0  0  0  0  0  0  0  0  0  0  0  0
  142.4629   78.1817  221.3063 H   0  0  0  0  0  0  0  0  0  0  0  0
  140.9269   79.4057  219.1870 H   0  0  0  0  0  0  0  0  0  0  0  0
  142.6438   79.0181  219.1088 H   0  0  0  0  0  0  0  0  0  0  0  0
  140.2420   77.3769  218.1743 H   0  0  0  0  0  0  0  0  0  0  0  0
  141.7990   77.5144  217.3896 H   0  0  0  0  0  0  0  0  0  0  0  0
  141.3971   75.2903  218.7512 H   0  0  0  0  0  0  0  0  0  0  0  0
  143.6591   76.2155  218.1167 H   0  0  0  0  0  0  0  0  0  0  0  0
  143.7327   76.8958  219.7698 H   0  0  0  0  0  0  0  0  0  0  0  0
  142.0174   73.6778  218.8387 H   0  0  0  0  0  0  0  0  0  0  0  0
  142.7164   71.5229  219.7818 H   0  0  0  0  0  0  0  0  0  0  0  0
  144.7617   71.3415  221.1840 H   0  0  0  0  0  0  0  0  0  0  0  0
  145.3913   75.5613  220.6613 H   0  0  0  0  0  0  0  0  0  0  0  0
  139.1686   69.7797  222.5050 H   0  0  0  0  0  0  0  0  0  0  0  0
  138.8062   68.5279  224.6170 H   0  0  0  0  0  0  0  0  0  0  0  0
  139.0857   68.3634  227.0519 H   0  0  0  0  0  0  0  0  0  0  0  0
  139.9389   69.3591  229.1598 H   0  0  0  0  0  0  0  0  0  0  0  0
  141.1245   71.5566  229.1403 H   0  0  0  0  0  0  0  0  0  0  0  0
  141.4445   72.7464  226.9934 H   0  0  0  0  0  0  0  0  0  0  0  0
  1  2  2  0
  2  3  1  0
  3  4  1  0
  4  5  1  0
  5  6  2  0
  5  7  1  0
  7  8  1  0
  8  9  1  0
  9 10  1  0
 10 11  1  0
 11 12  1  0
 12 13  1  0
 13 14  2  0
 14 15  1  0
 15 16  2  0
 16 17  1  0
 17 18  1  0
 17 19  2  0
  2 20  1  0
 20 21  2  0
 21 22  1  0
 22 23  2  0
 23 24  1  0
 24 25  2  0
 25 26  1  0
 26 27  2  0
 27 28  1  0
 28 29  2  0
 11  7  1  0
 19 13  1  0
 29 20  1  0
 28 23  1  0
  3 30  1  0
  4 31  1  0
  4 32  1  0
  8 33  1  0
  8 34  1  0
  9 35  1  0
  9 36  1  0
 10 37  1  0
 10 38  1  0
 11 39  1  6
 12 40  1  0
 12 41  1  0
 14 42  1  0
 15 43  1  0
 16 44  1  0
 19 45  1  0
 21 46  1  0
 22 47  1  0
 24 48  1  0
 25 49  1  0
 26 50  1  0
 27 51  1  0
M  END
>  <smiles>  (63) 
O=C(NCC(=O)N1CCCC1Cc1cccc(Cl)c1)c1ccc2ccccc2n1

>  <score_type>  (63) 
oracle

>  <origin>  (63) 
autodockgpu

>  <m_score__min__energy>  (63) 
-9.2400000000000002

>  <m_primary>  (63) 
energy

>  <rmsd>  (63) 
2.252999840814859

>  <m_score__min__rmsd>  (63) 
2.252999840814859

>  <meeko>  (63) 
{"free_energy": -8.89, "intermolecular_energy": -10.68, "internal_energy": -2.38, "cluster_size": 18, "cluster_id": 3, "rank_in_cluster": 6}

>  <energy>  (63) 
-8.9

>  <cluster_rmsd>  (63) 
0.26

>  <cluster>  (63) 
1

$$$$

     RDKit          3D

 51 54  0  0  0  0  0  0  0  0999 V2000
  137.2110   76.6160  222.1250 O   0  0  0  0  0  0  0  0  0  0  0  0
  138.4450   76.5740  222.3660 C   0  0  0  0  0  0  0  0  0  0  0  0
  139.1960   75.3690  222.3010 N   0  0  0  0  0  0  0  0  0  0  0  0
  138.5710   74.1100  221.9460 C   0  0  0  0  0  0  0  0  0  0  0  0
  139.6160   73.0670  222.1220 C   0  0  0  0  0  0  0  0  0  0  0  0
  140.8340   73.2890  221.9940 O   0  0  0  0  0  0  0  0  0  0  0  0
  139.2000   71.7370  222.4550 N   0  0  0  0  0  0  0  0  0  0  0  0
  138.8880   70.6930  221.4920 C   0  0  0  0  0  0  0  0  0  0  0  0
  138.0150   69.7030  222.2570 C   0  0  0  0  0  0  0  0  0  0  0  0
  137.7830   70.3610  223.6130 C   0  0  0  0  0  0  0  0  0  0  0  0
  139.0130   71.1840  223.7950 C   0  0  1  0  0  0  0  0  0  0  0  0
  140.2060   70.3380  224.1610 C   0  0  0  0  0  0  0  0  0  0  0  0
  140.5240   70.5650  225.5900 C   0  0  0  0  0  0  0  0  0  0  0  0
  140.7300   71.7900  226.1560 C   0  0  0  0  0  0  0  0  0  0  0  0
  141.0290   71.9260  227.4960 C   0  0  0  0  0  0  0  0  0  0  0  0
  141.1330   70.8280  228.3240 C   0  0  0  0  0  0  0  0  0  0  0  0
  140.9280   69.5790  227.7700 C   0  0  0  0  0  0  0  0  0  0  0  0
  141.0470   68.1380  228.7830 Cl  0  0  0  0  0  0  0  0  0  0  0  0
  140.6290   69.4530  226.4280 C   0  0  0  0  0  0  0  0  0  0  0  0
  139.1540   77.8040  222.7330 C   0  0  0  0  0  0  0  0  0  0  0  0
  138.4480   78.9300  223.1050 C   0  0  0  0  0  0  0  0  0  0  0  0
  139.1040   80.0980  223.4530 C   0  0  0  0  0  0  0  0  0  0  0  0
  140.5020   80.1380  223.4290 C   0  0  0  0  0  0  0  0  0  0  0  0
  141.1870   81.3060  223.7760 C   0  0  0  0  0  0  0  0  0  0  0  0
  142.5660   81.3000  223.7370 C   0  0  0  0  0  0  0  0  0  0  0  0
  143.2750   80.1560  223.3590 C   0  0  0  0  0  0  0  0  0  0  0  0
  142.5750   79.0210  223.0230 C   0  0  0  0  0  0  0  0  0  0  0  0
  141.1880   78.9980  223.0520 C   0  0  0  0  0  0  0  0  0  0  0  0
  140.5150   77.8710  222.7180 N   0  0  0  0  0  0  0  0  0  0  0  0
  140.2340   75.4080  222.5170 H   0  0  0  0  0  0  0  0  0  0  0  0
  137.7154   73.9086  222.6074 H   0  0  0  0  0  0  0  0  0  0  0  0
  138.1900   74.1272  220.9142 H   0  0  0  0  0  0  0  0  0  0  0  0
  138.3404   71.1092  220.6335 H   0  0  0  0  0  0  0  0  0  0  0  0
  139.7940   70.2192  221.0861 H   0  0  0  0  0  0  0  0  0  0  0  0
  137.0602   69.5432  221.7347 H   0  0  0  0  0  0  0  0  0  0  0  0
  138.4885   68.7144  222.3491 H   0  0  0  0  0  0  0  0  0  0  0  0
  136.8823   70.9923  223.5983 H   0  0  0  0  0  0  0  0  0  0  0  0
  137.6183   69.6381  224.4256 H   0  0  0  0  0  0  0  0  0  0  0  0
  138.9176   71.9272  224.6003 H   0  0  0  0  0  0  0  0  0  0  0  0
  139.9716   69.2758  223.9974 H   0  0  0  0  0  0  0  0  0  0  0  0
  141.0681   70.6123  223.5353 H   0  0  0  0  0  0  0  0  0  0  0  0
  140.6558   72.6905  225.5286 H   0  0  0  0  0  0  0  0  0  0  0  0
  141.1878   72.9315  227.9128 H   0  0  0  0  0  0  0  0  0  0  0  0
  141.3716   70.9430  229.3916 H   0  0  0  0  0  0  0  0  0  0  0  0
  140.4691   68.4492  226.0075 H   0  0  0  0  0  0  0  0  0  0  0  0
  137.3486   78.8988  223.1252 H   0  0  0  0  0  0  0  0  0  0  0  0
  138.5297   80.9891  223.7466 H   0  0  0  0  0  0  0  0  0  0  0  0
  140.6378   82.2113  224.0740 H   0  0  0  0  0  0  0  0  0  0  0  0
  143.1178   82.2121  224.0083 H   0  0  0  0  0  0  0  0  0  0  0  0
  144.3746   80.1636  223.3308 H   0  0  0  0  0  0  0  0  0  0  0  0
  143.1243   78.1154  222.7260 H   0  0  0  0  0  0  0  0  0  0  0  0
  1  2  2  0
  2  3  1  0
  3  4  1  0
  4  5  1  0
  5  6  2  0
  5  7  1  0
  7  8  1  0
  8  9  1  0
  9 10  1  0
 10 11  1  0
 11 12  1  0
 12 13  1  0
 13 14  2  0
 14 15  1  0
 15 16  2  0
 16 17  1  0
 17 18  1  0
 17 19  2  0
  2 20  1  0
 20 21  2  0
 21 22  1  0
 22 23  2  0
 23 24  1  0
 24 25  2  0
 25 26  1  0
 26 27  2  0
 27 28  1  0
 28 29  2  0
 11  7  1  0
 19 13  1  0
 29 20  1  0
 28 23  1  0
  3 30  1  0
  4 31  1  0
  4 32  1  0
  8 33  1  0
  8 34  1  0
  9 35  1  0
  9 36  1  0
 10 37  1  0
 10 38  1  0
 11 39  1  1
 12 40  1  0
 12 41  1  0
 14 42  1  0
 15 43  1  0
 16 44  1  0
 19 45  1  0
 21 46  1  0
 22 47  1  0
 24 48  1  0
 25 49  1  0
 26 50  1  0
 27 51  1  0
M  END
>  <smiles>  (64) 
O=C(NCC(=O)N1CCCC1Cc1cccc(Cl)c1)c1ccc2ccccc2n1

>  <score_type>  (64) 
oracle

>  <origin>  (64) 
autodockgpu

>  <m_score__min__energy>  (64) 
-9.2400000000000002

>  <m_primary>  (64) 
energy

>  <rmsd>  (64) 
8.382409571532348

>  <m_score__min__rmsd>  (64) 
8.382409571532348

>  <meeko>  (64) 
{"free_energy": -9.2, "intermolecular_energy": -10.99, "internal_energy": -2.06, "cluster_size": 10, "cluster_id": 2, "rank_in_cluster": 1}

>  <energy>  (64) 
-8.87

>  <cluster_rmsd>  (64) 
1.23

>  <cluster>  (64) 
1

$$$$

     RDKit          3D

 51 54  0  0  0  0  0  0  0  0999 V2000
  139.9190   71.0860  221.2030 O   0  0  0  0  0  0  0  0  0  0  0  0
  139.9200   71.7780  222.2530 C   0  0  0  0  0  0  0  0  0  0  0  0
  139.8980   73.2000  222.2330 N   0  0  0  0  0  0  0  0  0  0  0  0
  139.8740   73.9350  220.9840 C   0  0  0  0  0  0  0  0  0  0  0  0
  140.6710   75.1680  221.2170 C   0  0  0  0  0  0  0  0  0  0  0  0
  140.8880   75.6410  222.3480 O   0  0  0  0  0  0  0  0  0  0  0  0
  141.2180   75.8490  220.0810 N   0  0  0  0  0  0  0  0  0  0  0  0
  140.8070   75.6380  218.7020 C   0  0  0  0  0  0  0  0  0  0  0  0
  141.9780   76.1380  217.8630 C   0  0  0  0  0  0  0  0  0  0  0  0
  143.0600   76.4860  218.8800 C   0  0  0  0  0  0  0  0  0  0  0  0
  142.2690   76.8630  220.0870 C   0  0  1  0  0  0  0  0  0  0  0  0
  141.6510   78.2320  219.9470 C   0  0  0  0  0  0  0  0  0  0  0  0
  141.2210   78.6930  221.2870 C   0  0  0  0  0  0  0  0  0  0  0  0
  140.0030   78.4360  221.8470 C   0  0  0  0  0  0  0  0  0  0  0  0
  139.6690   78.9040  223.1010 C   0  0  0  0  0  0  0  0  0  0  0  0
  140.5540   79.6560  223.8450 C   0  0  0  0  0  0  0  0  0  0  0  0
  141.7920   79.9280  223.2960 C   0  0  0  0  0  0  0  0  0  0  0  0
  142.9650   80.8850  224.2060 Cl  0  0  0  0  0  0  0  0  0  0  0  0
  142.1170   79.4550  222.0410 C   0  0  0  0  0  0  0  0  0  0  0  0
  139.9440   71.1120  223.5590 C   0  0  0  0  0  0  0  0  0  0  0  0
  139.4420   69.8340  223.6980 C   0  0  0  0  0  0  0  0  0  0  0  0
  139.4570   69.1920  224.9250 C   0  0  0  0  0  0  0  0  0  0  0  0
  139.9890   69.8490  226.0390 C   0  0  0  0  0  0  0  0  0  0  0  0
  140.0160   69.2220  227.2880 C   0  0  0  0  0  0  0  0  0  0  0  0
  140.5500   69.9070  228.3610 C   0  0  0  0  0  0  0  0  0  0  0  0
  141.0560   71.2020  228.2130 C   0  0  0  0  0  0  0  0  0  0  0  0
  141.0170   71.7940  226.9720 C   0  0  0  0  0  0  0  0  0  0  0  0
  140.4860   71.1290  225.8770 C   0  0  0  0  0  0  0  0  0  0  0  0
  140.4560   71.7270  224.6620 N   0  0  0  0  0  0  0  0  0  0  0  0
  139.9000   73.7180  223.1580 H   0  0  0  0  0  0  0  0  0  0  0  0
  140.3245   73.3354  220.1793 H   0  0  0  0  0  0  0  0  0  0  0  0
  138.8449   74.1732  220.6771 H   0  0  0  0  0  0  0  0  0  0  0  0
  140.6228   74.5703  218.5121 H   0  0  0  0  0  0  0  0  0  0  0  0
  139.8715   76.1652  218.4633 H   0  0  0  0  0  0  0  0  0  0  0  0
  142.3279   75.3521  217.1775 H   0  0  0  0  0  0  0  0  0  0  0  0
  141.7036   76.9986  217.2353 H   0  0  0  0  0  0  0  0  0  0  0  0
  143.7056   75.6191  219.0841 H   0  0  0  0  0  0  0  0  0  0  0  0
  143.7396   77.2808  218.5386 H   0  0  0  0  0  0  0  0  0  0  0  0
  142.8752   76.9031  221.0040 H   0  0  0  0  0  0  0  0  0  0  0  0
  142.3913   78.9327  219.5335 H   0  0  0  0  0  0  0  0  0  0  0  0
  140.7864   78.1875  219.2685 H   0  0  0  0  0  0  0  0  0  0  0  0
  139.2691   77.8406  221.2841 H   0  0  0  0  0  0  0  0  0  0  0  0
  138.6768   78.6728  223.5159 H   0  0  0  0  0  0  0  0  0  0  0  0
  140.2825   80.0275  224.8441 H   0  0  0  0  0  0  0  0  0  0  0  0
  143.1083   79.6841  221.6230 H   0  0  0  0  0  0  0  0  0  0  0  0
  139.0238   69.3177  222.8213 H   0  0  0  0  0  0  0  0  0  0  0  0
  139.0536   68.1733  225.0226 H   0  0  0  0  0  0  0  0  0  0  0  0
  139.6198   68.2035  227.4133 H   0  0  0  0  0  0  0  0  0  0  0  0
  140.5779   69.4256  229.3497 H   0  0  0  0  0  0  0  0  0  0  0  0
  141.4785   71.7388  229.0752 H   0  0  0  0  0  0  0  0  0  0  0  0
  141.4137   72.8122  226.8460 H   0  0  0  0  0  0  0  0  0  0  0  0
  1  2  2  0
  2  3  1  0
  3  4  1  0
  4  5  1  0
  5  6  2  0
  5  7  1  0
  7  8  1  0
  8  9  1  0
  9 10  1  0
 10 11  1  0
 11 12  1  0
 12 13  1  0
 13 14  2  0
 14 15  1  0
 15 16  2  0
 16 17  1  0
 17 18  1  0
 17 19  2  0
  2 20  1  0
 20 21  2  0
 21 22  1  0
 22 23  2  0
 23 24  1  0
 24 25  2  0
 25 26  1  0
 26 27  2  0
 27 28  1  0
 28 29  2  0
 11  7  1  0
 19 13  1  0
 29 20  1  0
 28 23  1  0
  3 30  1  0
  4 31  1  0
  4 32  1  0
  8 33  1  0
  8 34  1  0
  9 35  1  0
  9 36  1  0
 10 37  1  0
 10 38  1  0
 11 39  1  1
 12 40  1  0
 12 41  1  0
 14 42  1  0
 15 43  1  0
 16 44  1  0
 19 45  1  0
 21 46  1  0
 22 47  1  0
 24 48  1  0
 25 49  1  0
 26 50  1  0
 27 51  1  0
M  END
>  <smiles>  (65) 
O=C(NCC(=O)N1CCCC1Cc1cccc(Cl)c1)c1ccc2ccccc2n1

>  <score_type>  (65) 
oracle

>  <origin>  (65) 
autodockgpu

>  <m_score__min__energy>  (65) 
-9.2400000000000002

>  <m_primary>  (65) 
energy

>  <rmsd>  (65) 
1.542778093515301

>  <m_score__min__rmsd>  (65) 
1.542778093515301

>  <meeko>  (65) 
{"free_energy": -8.99, "intermolecular_energy": -10.78, "internal_energy": -2.12, "cluster_size": 18, "cluster_id": 1, "rank_in_cluster": 10}

>  <energy>  (65) 
-8.85

>  <cluster_rmsd>  (65) 
0.33

>  <cluster>  (65) 
1

$$$$

     RDKit          3D

 51 54  0  0  0  0  0  0  0  0999 V2000
  139.8710   71.1470  221.1910 O   0  0  0  0  0  0  0  0  0  0  0  0
  139.8550   71.8230  222.2510 C   0  0  0  0  0  0  0  0  0  0  0  0
  139.8060   73.2440  222.2510 N   0  0  0  0  0  0  0  0  0  0  0  0
  139.7720   73.9960  221.0120 C   0  0  0  0  0  0  0  0  0  0  0  0
  140.6310   75.1900  221.2310 C   0  0  0  0  0  0  0  0  0  0  0  0
  140.8560   75.6750  222.3550 O   0  0  0  0  0  0  0  0  0  0  0  0
  141.2290   75.8160  220.0900 N   0  0  0  0  0  0  0  0  0  0  0  0
  140.8340   75.5890  218.7090 C   0  0  0  0  0  0  0  0  0  0  0  0
  142.0420   76.0140  217.8810 C   0  0  0  0  0  0  0  0  0  0  0  0
  143.1210   76.3360  218.9090 C   0  0  0  0  0  0  0  0  0  0  0  0
  142.3270   76.7800  220.0910 C   0  0  1  0  0  0  0  0  0  0  0  0
  141.7760   78.1720  219.9060 C   0  0  0  0  0  0  0  0  0  0  0  0
  141.2960   78.6660  221.2180 C   0  0  0  0  0  0  0  0  0  0  0  0
  140.0480   78.4470  221.7240 C   0  0  0  0  0  0  0  0  0  0  0  0
  139.6680   78.9450  222.9530 C   0  0  0  0  0  0  0  0  0  0  0  0
  140.5360   79.6890  223.7260 C   0  0  0  0  0  0  0  0  0  0  0  0
  141.8040   79.9210  223.2310 C   0  0  0  0  0  0  0  0  0  0  0  0
  142.9560   80.8660  224.1790 Cl  0  0  0  0  0  0  0  0  0  0  0  0
  142.1750   79.4190  222.0000 C   0  0  0  0  0  0  0  0  0  0  0  0
  139.8880   71.1390  223.5480 C   0  0  0  0  0  0  0  0  0  0  0  0
  139.4020   69.8530  223.6680 C   0  0  0  0  0  0  0  0  0  0  0  0
  139.4260   69.1950  224.8860 C   0  0  0  0  0  0  0  0  0  0  0  0
  139.9510   69.8420  226.0090 C   0  0  0  0  0  0  0  0  0  0  0  0
  139.9860   69.1980  227.2500 C   0  0  0  0  0  0  0  0  0  0  0  0
  140.5120   69.8750  228.3320 C   0  0  0  0  0  0  0  0  0  0  0  0
  141.0030   71.1770  228.2020 C   0  0  0  0  0  0  0  0  0  0  0  0
  140.9560   71.7860  226.9690 C   0  0  0  0  0  0  0  0  0  0  0  0
  140.4320   71.1300  225.8650 C   0  0  0  0  0  0  0  0  0  0  0  0
  140.3940   71.7450  224.6580 N   0  0  0  0  0  0  0  0  0  0  0  0
  139.7960   73.7490  223.1830 H   0  0  0  0  0  0  0  0  0  0  0  0
  140.1673   73.3877  220.1852 H   0  0  0  0  0  0  0  0  0  0  0  0
  138.7446   74.2836  220.7443 H   0  0  0  0  0  0  0  0  0  0  0  0
  140.6045   74.5263  218.5417 H   0  0  0  0  0  0  0  0  0  0  0  0
  139.9282   76.1518  218.4393 H   0  0  0  0  0  0  0  0  0  0  0  0
  142.3668   75.1965  217.2206 H   0  0  0  0  0  0  0  0  0  0  0  0
  141.8191   76.8713  217.2288 H   0  0  0  0  0  0  0  0  0  0  0  0
  143.7210   75.4451  219.1464 H   0  0  0  0  0  0  0  0  0  0  0  0
  143.8438   77.0888  218.5614 H   0  0  0  0  0  0  0  0  0  0  0  0
  142.9184   76.8151  221.0178 H   0  0  0  0  0  0  0  0  0  0  0  0
  142.5661   78.8363  219.5259 H   0  0  0  0  0  0  0  0  0  0  0  0
  140.9471   78.1562  219.1831 H   0  0  0  0  0  0  0  0  0  0  0  0
  139.3270   77.8587  221.1374 H   0  0  0  0  0  0  0  0  0  0  0  0
  138.6522   78.7450  223.3246 H   0  0  0  0  0  0  0  0  0  0  0  0
  140.2276   80.0845  224.7050 H   0  0  0  0  0  0  0  0  0  0  0  0
  143.1899   79.6172  221.6248 H   0  0  0  0  0  0  0  0  0  0  0  0
  138.9900   69.3439  222.7842 H   0  0  0  0  0  0  0  0  0  0  0  0
  139.0348   68.1703  224.9697 H   0  0  0  0  0  0  0  0  0  0  0  0
  139.6023   68.1731  227.3616 H   0  0  0  0  0  0  0  0  0  0  0  0
  140.5453   69.3808  229.3142 H   0  0  0  0  0  0  0  0  0  0  0  0
  141.4203   71.7064  229.0713 H   0  0  0  0  0  0  0  0  0  0  0  0
  141.3405   72.8105  226.8570 H   0  0  0  0  0  0  0  0  0  0  0  0
  1  2  2  0
  2  3  1  0
  3  4  1  0
  4  5  1  0
  5  6  2  0
  5  7  1  0
  7  8  1  0
  8  9  1  0
  9 10  1  0
 10 11  1  0
 11 12  1  0
 12 13  1  0
 13 14  2  0
 14 15  1  0
 15 16  2  0
 16 17  1  0
 17 18  1  0
 17 19  2  0
  2 20  1  0
 20 21  2  0
 21 22  1  0
 22 23  2  0
 23 24  1  0
 24 25  2  0
 25 26  1  0
 26 27  2  0
 27 28  1  0
 28 29  2  0
 11  7  1  0
 19 13  1  0
 29 20  1  0
 28 23  1  0
  3 30  1  0
  4 31  1  0
  4 32  1  0
  8 33  1  0
  8 34  1  0
  9 35  1  0
  9 36  1  0
 10 37  1  0
 10 38  1  0
 11 39  1  1
 12 40  1  0
 12 41  1  0
 14 42  1  0
 15 43  1  0
 16 44  1  0
 19 45  1  0
 21 46  1  0
 22 47  1  0
 24 48  1  0
 25 49  1  0
 26 50  1  0
 27 51  1  0
M  END
>  <smiles>  (66) 
O=C(NCC(=O)N1CCCC1Cc1cccc(Cl)c1)c1ccc2ccccc2n1

>  <score_type>  (66) 
oracle

>  <origin>  (66) 
autodockgpu

>  <m_score__min__energy>  (66) 
-9.2400000000000002

>  <m_primary>  (66) 
energy

>  <rmsd>  (66) 
1.5479591182392036

>  <m_score__min__rmsd>  (66) 
1.5479591182392036

>  <meeko>  (66) 
{"free_energy": -9.02, "intermolecular_energy": -10.81, "internal_energy": -2.08, "cluster_size": 18, "cluster_id": 1, "rank_in_cluster": 7}

>  <energy>  (66) 
-8.73

>  <cluster_rmsd>  (66) 
0.52

>  <cluster>  (66) 
1

$$$$

     RDKit          3D

 51 54  0  0  0  0  0  0  0  0999 V2000
  139.6120   70.7670  221.2410 O   0  0  0  0  0  0  0  0  0  0  0  0
  139.6280   71.4620  222.2890 C   0  0  0  0  0  0  0  0  0  0  0  0
  139.5640   72.8820  222.2670 N   0  0  0  0  0  0  0  0  0  0  0  0
  139.4760   73.6120  221.0180 C   0  0  0  0  0  0  0  0  0  0  0  0
  140.0900   74.9420  221.2730 C   0  0  0  0  0  0  0  0  0  0  0  0
  139.9940   75.5430  222.3590 O   0  0  0  0  0  0  0  0  0  0  0  0
  140.8280   75.5640  220.2150 N   0  0  0  0  0  0  0  0  0  0  0  0
  140.6350   75.3080  218.7970 C   0  0  0  0  0  0  0  0  0  0  0  0
  141.9380   75.7490  218.1380 C   0  0  0  0  0  0  0  0  0  0  0  0
  142.8550   76.1120  219.3010 C   0  0  0  0  0  0  0  0  0  0  0  0
  141.8940   76.5550  220.3530 C   0  0  1  0  0  0  0  0  0  0  0  0
  141.3440   77.9300  220.0670 C   0  0  0  0  0  0  0  0  0  0  0  0
  140.9700   78.5640  221.3530 C   0  0  0  0  0  0  0  0  0  0  0  0
  139.7390   78.4750  221.9360 C   0  0  0  0  0  0  0  0  0  0  0  0
  139.4600   79.0980  223.1350 C   0  0  0  0  0  0  0  0  0  0  0  0
  140.4160   79.8410  223.7970 C   0  0  0  0  0  0  0  0  0  0  0  0
  141.6670   79.9430  223.2230 C   0  0  0  0  0  0  0  0  0  0  0  0
  142.9290   80.8800  224.0280 Cl  0  0  0  0  0  0  0  0  0  0  0  0
  141.9370   79.3150  222.0240 C   0  0  0  0  0  0  0  0  0  0  0  0
  139.7160   70.8010  223.5950 C   0  0  0  0  0  0  0  0  0  0  0  0
  139.2640   69.5060  223.7520 C   0  0  0  0  0  0  0  0  0  0  0  0
  139.3400   68.8700  224.9800 C   0  0  0  0  0  0  0  0  0  0  0  0
  139.8840   69.5480  226.0750 C   0  0  0  0  0  0  0  0  0  0  0  0
  139.9720   68.9270  227.3240 C   0  0  0  0  0  0  0  0  0  0  0  0
  140.5150   69.6330  228.3780 C   0  0  0  0  0  0  0  0  0  0  0  0
  140.9710   70.9440  228.2120 C   0  0  0  0  0  0  0  0  0  0  0  0
  140.8730   71.5300  226.9710 C   0  0  0  0  0  0  0  0  0  0  0  0
  140.3300   70.8440  225.8940 C   0  0  0  0  0  0  0  0  0  0  0  0
  140.2410   71.4370  224.6800 N   0  0  0  0  0  0  0  0  0  0  0  0
  139.5820   73.4030  223.1900 H   0  0  0  0  0  0  0  0  0  0  0  0
  140.0271   73.0826  220.2268 H   0  0  0  0  0  0  0  0  0  0  0  0
  138.4331   73.7089  220.6820 H   0  0  0  0  0  0  0  0  0  0  0  0
  140.4535   74.2379  218.6180 H   0  0  0  0  0  0  0  0  0  0  0  0
  139.7642   75.8457  218.3938 H   0  0  0  0  0  0  0  0  0  0  0  0
  142.3696   74.9295  217.5446 H   0  0  0  0  0  0  0  0  0  0  0  0
  141.7906   76.5906  217.4452 H   0  0  0  0  0  0  0  0  0  0  0  0
  143.4347   75.2392  219.6360 H   0  0  0  0  0  0  0  0  0  0  0  0
  143.6028   76.8767  219.0440 H   0  0  0  0  0  0  0  0  0  0  0  0
  142.3486   76.6188  221.3526 H   0  0  0  0  0  0  0  0  0  0  0  0
  142.1092   78.5381  219.5623 H   0  0  0  0  0  0  0  0  0  0  0  0
  140.4623   77.8547  219.4136 H   0  0  0  0  0  0  0  0  0  0  0  0
  138.9502   77.8924  221.4377 H   0  0  0  0  0  0  0  0  0  0  0  0
  138.4553   79.0005  223.5720 H   0  0  0  0  0  0  0  0  0  0  0  0
  140.1881   80.3365  224.7523 H   0  0  0  0  0  0  0  0  0  0  0  0
  142.9413   79.4087  221.5851 H   0  0  0  0  0  0  0  0  0  0  0  0
  138.8377   68.9720  222.8900 H   0  0  0  0  0  0  0  0  0  0  0  0
  138.9748   67.8385  225.0930 H   0  0  0  0  0  0  0  0  0  0  0  0
  139.6155   67.8959  227.4641 H   0  0  0  0  0  0  0  0  0  0  0  0
  140.5904   69.1558  229.3662 H   0  0  0  0  0  0  0  0  0  0  0  0
  141.4010   71.4979  229.0595 H   0  0  0  0  0  0  0  0  0  0  0  0
  141.2314   72.5604  226.8302 H   0  0  0  0  0  0  0  0  0  0  0  0
  1  2  2  0
  2  3  1  0
  3  4  1  0
  4  5  1  0
  5  6  2  0
  5  7  1  0
  7  8  1  0
  8  9  1  0
  9 10  1  0
 10 11  1  0
 11 12  1  0
 12 13  1  0
 13 14  2  0
 14 15  1  0
 15 16  2  0
 16 17  1  0
 17 18  1  0
 17 19  2  0
  2 20  1  0
 20 21  2  0
 21 22  1  0
 22 23  2  0
 23 24  1  0
 24 25  2  0
 25 26  1  0
 26 27  2  0
 27 28  1  0
 28 29  2  0
 11  7  1  0
 19 13  1  0
 29 20  1  0
 28 23  1  0
  3 30  1  0
  4 31  1  0
  4 32  1  0
  8 33  1  0
  8 34  1  0
  9 35  1  0
  9 36  1  0
 10 37  1  0
 10 38  1  0
 11 39  1  1
 12 40  1  0
 12 41  1  0
 14 42  1  0
 15 43  1  0
 16 44  1  0
 19 45  1  0
 21 46  1  0
 22 47  1  0
 24 48  1  0
 25 49  1  0
 26 50  1  0
 27 51  1  0
M  END
>  <smiles>  (67) 
O=C(NCC(=O)N1CCCC1Cc1cccc(Cl)c1)c1ccc2ccccc2n1

>  <score_type>  (67) 
oracle

>  <origin>  (67) 
autodockgpu

>  <m_score__min__energy>  (67) 
-9.2400000000000002

>  <m_primary>  (67) 
energy

>  <rmsd>  (67) 
1.4012970110998901

>  <m_score__min__rmsd>  (67) 
1.4012970110998901

>  <meeko>  (67) 
{"free_energy": -9.01, "intermolecular_energy": -10.8, "internal_energy": -2.05, "cluster_size": 18, "cluster_id": 1, "rank_in_cluster": 8}

>  <energy>  (67) 
-8.16

>  <cluster_rmsd>  (67) 
1.69

>  <cluster>  (67) 
1

$$$$

     RDKit          3D

 51 54  0  0  0  0  0  0  0  0999 V2000
  137.4550   76.0430  222.4400 O   0  0  0  0  0  0  0  0  0  0  0  0
  138.6840   76.2330  222.2560 C   0  0  0  0  0  0  0  0  0  0  0  0
  139.5290   75.2530  221.6650 N   0  0  0  0  0  0  0  0  0  0  0  0
  139.0090   73.9690  221.2390 C   0  0  0  0  0  0  0  0  0  0  0  0
  139.5700   72.9640  222.1810 C   0  0  0  0  0  0  0  0  0  0  0  0
  140.6920   73.0720  222.7100 O   0  0  0  0  0  0  0  0  0  0  0  0
  138.7810   71.8110  222.4950 N   0  0  0  0  0  0  0  0  0  0  0  0
  137.9290   71.1000  221.5560 C   0  0  0  0  0  0  0  0  0  0  0  0
  136.9310   70.3430  222.4270 C   0  0  0  0  0  0  0  0  0  0  0  0
  137.2260   70.8120  223.8480 C   0  0  0  0  0  0  0  0  0  0  0  0
  138.6800   71.1420  223.7900 C   0  0  1  0  0  0  0  0  0  0  0  0
  139.5370   69.9010  223.7850 C   0  0  0  0  0  0  0  0  0  0  0  0
  139.9230   69.5890  225.1800 C   0  0  0  0  0  0  0  0  0  0  0  0
  139.9400   68.3360  225.7220 C   0  0  0  0  0  0  0  0  0  0  0  0
  140.3060   68.1210  227.0350 C   0  0  0  0  0  0  0  0  0  0  0  0
  140.6700   69.1660  227.8590 C   0  0  0  0  0  0  0  0  0  0  0  0
  140.6590   70.4410  227.3290 C   0  0  0  0  0  0  0  0  0  0  0  0
  141.1180   71.8150  228.3390 Cl  0  0  0  0  0  0  0  0  0  0  0  0
  140.2920   70.6460  226.0150 C   0  0  0  0  0  0  0  0  0  0  0  0
  139.2900   77.5050  222.6590 C   0  0  0  0  0  0  0  0  0  0  0  0
  138.4970   78.5440  223.1020 C   0  0  0  0  0  0  0  0  0  0  0  0
  139.0550   79.7520  223.4850 C   0  0  0  0  0  0  0  0  0  0  0  0
  140.4410   79.9210  223.4240 C   0  0  0  0  0  0  0  0  0  0  0  0
  141.0280   81.1310  223.8060 C   0  0  0  0  0  0  0  0  0  0  0  0
  142.4000   81.2550  223.7290 C   0  0  0  0  0  0  0  0  0  0  0  0
  143.1980   80.1980  223.2800 C   0  0  0  0  0  0  0  0  0  0  0  0
  142.5930   79.0190  222.9100 C   0  0  0  0  0  0  0  0  0  0  0  0
  141.2160   78.8670  222.9770 C   0  0  0  0  0  0  0  0  0  0  0  0
  140.6380   77.6980  222.6100 N   0  0  0  0  0  0  0  0  0  0  0  0
  140.5570   75.4810  221.5400 H   0  0  0  0  0  0  0  0  0  0  0  0
  137.9101   73.9668  221.2882 H   0  0  0  0  0  0  0  0  0  0  0  0
  139.2904   73.7463  220.1992 H   0  0  0  0  0  0  0  0  0  0  0  0
  137.4070   71.8074  220.8948 H   0  0  0  0  0  0  0  0  0  0  0  0
  138.5038   70.4262  220.9036 H   0  0  0  0  0  0  0  0  0  0  0  0
  135.8986   70.5937  222.1419 H   0  0  0  0  0  0  0  0  0  0  0  0
  137.0272   69.2525  222.3196 H   0  0  0  0  0  0  0  0  0  0  0  0
  136.6281   71.6988  224.1051 H   0  0  0  0  0  0  0  0  0  0  0  0
  136.9789   70.0630  224.6148 H   0  0  0  0  0  0  0  0  0  0  0  0
  139.0212   71.7353  224.6511 H   0  0  0  0  0  0  0  0  0  0  0  0
  138.9691   69.0600  223.3605 H   0  0  0  0  0  0  0  0  0  0  0  0
  140.4365   70.0674  223.1741 H   0  0  0  0  0  0  0  0  0  0  0  0
  139.6550   67.4770  225.0968 H   0  0  0  0  0  0  0  0  0  0  0  0
  140.3076   67.0955  227.4328 H   0  0  0  0  0  0  0  0  0  0  0  0
  140.9599   68.9890  228.9053 H   0  0  0  0  0  0  0  0  0  0  0  0
  140.2900   71.6703  225.6139 H   0  0  0  0  0  0  0  0  0  0  0  0
  137.4062   78.4106  223.1515 H   0  0  0  0  0  0  0  0  0  0  0  0
  138.4119   80.5730  223.8349 H   0  0  0  0  0  0  0  0  0  0  0  0
  140.4083   81.9676  224.1609 H   0  0  0  0  0  0  0  0  0  0  0  0
  142.8745   82.2019  224.0260 H   0  0  0  0  0  0  0  0  0  0  0  0
  144.2911   80.3074  223.2236 H   0  0  0  0  0  0  0  0  0  0  0  0
  143.2123   78.1822  222.5548 H   0  0  0  0  0  0  0  0  0  0  0  0
  1  2  2  0
  2  3  1  0
  3  4  1  0
  4  5  1  0
  5  6  2  0
  5  7  1  0
  7  8  1  0
  8  9  1  0
  9 10  1  0
 10 11  1  0
 11 12  1  0
 12 13  1  0
 13 14  2  0
 14 15  1  0
 15 16  2  0
 16 17  1  0
 17 18  1  0
 17 19  2  0
  2 20  1  0
 20 21  2  0
 21 22  1  0
 22 23  2  0
 23 24  1  0
 24 25  2  0
 25 26  1  0
 26 27  2  0
 27 28  1  0
 28 29  2  0
 11  7  1  0
 19 13  1  0
 29 20  1  0
 28 23  1  0
  3 30  1  0
  4 31  1  0
  4 32  1  0
  8 33  1  0
  8 34  1  0
  9 35  1  0
  9 36  1  0
 10 37  1  0
 10 38  1  0
 11 39  1  1
 12 40  1  0
 12 41  1  0
 14 42  1  0
 15 43  1  0
 16 44  1  0
 19 45  1  0
 21 46  1  0
 22 47  1  0
 24 48  1  0
 25 49  1  0
 26 50  1  0
 27 51  1  0
M  END
>  <smiles>  (68) 
O=C(NCC(=O)N1CCCC1Cc1cccc(Cl)c1)c1ccc2ccccc2n1

>  <score_type>  (68) 
oracle

>  <origin>  (68) 
autodockgpu

>  <m_score__min__energy>  (68) 
-9.2400000000000002

>  <m_primary>  (68) 
energy

>  <rmsd>  (68) 
8.28399340824376

>  <m_score__min__rmsd>  (68) 
8.28399340824376

>  <meeko>  (68) 
{"free_energy": -9.09, "intermolecular_energy": -10.88, "internal_energy": -1.8, "cluster_size": 10, "cluster_id": 2, "rank_in_cluster": 4}

>  <energy>  (68) 
-8.1

>  <cluster_rmsd>  (68) 
1.23

>  <cluster>  (68) 
1

$$$$

     RDKit          3D

 51 54  0  0  0  0  0  0  0  0999 V2000
  133.5660   70.1160  226.7170 O   0  0  0  0  0  0  0  0  0  0  0  0
  133.8840   71.2200  226.2040 C   0  0  0  0  0  0  0  0  0  0  0  0
  134.8760   71.3350  225.1920 N   0  0  0  0  0  0  0  0  0  0  0  0
  135.5800   70.1710  224.6920 C   0  0  0  0  0  0  0  0  0  0  0  0
  136.3270   70.6270  223.4890 C   0  0  0  0  0  0  0  0  0  0  0  0
  136.1400   71.7300  222.9440 O   0  0  0  0  0  0  0  0  0  0  0  0
  137.3120   69.7510  222.9280 N   0  0  0  0  0  0  0  0  0  0  0  0
  137.6740   69.6920  221.5210 C   0  0  0  0  0  0  0  0  0  0  0  0
  138.3120   68.3190  221.3380 C   0  0  0  0  0  0  0  0  0  0  0  0
  138.1320   67.6260  222.6860 C   0  0  0  0  0  0  0  0  0  0  0  0
  138.1240   68.7700  223.6440 C   0  0  1  0  0  0  0  0  0  0  0  0
  139.5090   69.3260  223.8650 C   0  0  0  0  0  0  0  0  0  0  0  0
  139.8300   69.2290  225.3070 C   0  0  0  0  0  0  0  0  0  0  0  0
  139.7790   68.0800  226.0410 C   0  0  0  0  0  0  0  0  0  0  0  0
  140.0870   68.0660  227.3860 C   0  0  0  0  0  0  0  0  0  0  0  0
  140.4600   69.2170  228.0490 C   0  0  0  0  0  0  0  0  0  0  0  0
  140.5190   70.3900  227.3230 C   0  0  0  0  0  0  0  0  0  0  0  0
  140.9930   71.8930  228.1210 Cl  0  0  0  0  0  0  0  0  0  0  0  0
  140.2090   70.3940  225.9780 C   0  0  0  0  0  0  0  0  0  0  0  0
  133.2190   72.4470  226.6540 C   0  0  0  0  0  0  0  0  0  0  0  0
  131.9930   72.3830  227.2840 C   0  0  0  0  0  0  0  0  0  0  0  0
  131.3520   73.5330  227.7140 C   0  0  0  0  0  0  0  0  0  0  0  0
  131.9580   74.7760  227.5080 C   0  0  0  0  0  0  0  0  0  0  0  0
  131.3320   75.9520  227.9330 C   0  0  0  0  0  0  0  0  0  0  0  0
  131.9650   77.1570  227.7090 C   0  0  0  0  0  0  0  0  0  0  0  0
  133.2070   77.2140  227.0720 C   0  0  0  0  0  0  0  0  0  0  0  0
  133.8000   76.0420  226.6640 C   0  0  0  0  0  0  0  0  0  0  0  0
  133.1860   74.8160  226.8750 C   0  0  0  0  0  0  0  0  0  0  0  0
  133.7860   73.6720  226.4670 N   0  0  0  0  0  0  0  0  0  0  0  0
  135.0930   72.2980  224.8050 H   0  0  0  0  0  0  0  0  0  0  0  0
  136.2772   69.7903  225.4529 H   0  0  0  0  0  0  0  0  0  0  0  0
  134.8846   69.3544  224.4481 H   0  0  0  0  0  0  0  0  0  0  0  0
  136.7807   69.7914  220.8869 H   0  0  0  0  0  0  0  0  0  0  0  0
  138.3548   70.5069  221.2337 H   0  0  0  0  0  0  0  0  0  0  0  0
  137.8019   67.7571  220.5417 H   0  0  0  0  0  0  0  0  0  0  0  0
  139.3694   68.3872  221.0427 H   0  0  0  0  0  0  0  0  0  0  0  0
  137.1831   67.0708  222.7231 H   0  0  0  0  0  0  0  0  0  0  0  0
  138.9122   66.8812  222.9018 H   0  0  0  0  0  0  0  0  0  0  0  0
  137.7520   68.4934  224.6415 H   0  0  0  0  0  0  0  0  0  0  0  0
  140.2393   68.7451  223.2825 H   0  0  0  0  0  0  0  0  0  0  0  0
  139.5497   70.3760  223.5398 H   0  0  0  0  0  0  0  0  0  0  0  0
  139.4851   67.1415  225.5483 H   0  0  0  0  0  0  0  0  0  0  0  0
  140.0341   67.1177  227.9410 H   0  0  0  0  0  0  0  0  0  0  0  0
  140.7027   69.2007  229.1218 H   0  0  0  0  0  0  0  0  0  0  0  0
  140.2618   71.3402  225.4194 H   0  0  0  0  0  0  0  0  0  0  0  0
  131.5178   71.4044  227.4471 H   0  0  0  0  0  0  0  0  0  0  0  0
  130.3741   73.4689  228.2136 H   0  0  0  0  0  0  0  0  0  0  0  0
  130.3543   75.9169  228.4359 H   0  0  0  0  0  0  0  0  0  0  0  0
  131.4832   78.0896  228.0378 H   0  0  0  0  0  0  0  0  0  0  0  0
  133.7027   78.1807  226.8995 H   0  0  0  0  0  0  0  0  0  0  0  0
  134.7780   76.0774  226.1617 H   0  0  0  0  0  0  0  0  0  0  0  0
  1  2  2  0
  2  3  1  0
  3  4  1  0
  4  5  1  0
  5  6  2  0
  5  7  1  0
  7  8  1  0
  8  9  1  0
  9 10  1  0
 10 11  1  0
 11 12  1  0
 12 13  1  0
 13 14  2  0
 14 15  1  0
 15 16  2  0
 16 17  1  0
 17 18  1  0
 17 19  2  0
  2 20  1  0
 20 21  2  0
 21 22  1  0
 22 23  2  0
 23 24  1  0
 24 25  2  0
 25 26  1  0
 26 27  2  0
 27 28  1  0
 28 29  2  0
 11  7  1  0
 19 13  1  0
 29 20  1  0
 28 23  1  0
  3 30  1  0
  4 31  1  0
  4 32  1  0
  8 33  1  0
  8 34  1  0
  9 35  1  0
  9 36  1  0
 10 37  1  0
 10 38  1  0
 11 39  1  1
 12 40  1  0
 12 41  1  0
 14 42  1  0
 15 43  1  0
 16 44  1  0
 19 45  1  0
 21 46  1  0
 22 47  1  0
 24 48  1  0
 25 49  1  0
 26 50  1  0
 27 51  1  0
M  END
>  <smiles>  (69) 
O=C(NCC(=O)N1CCCC1Cc1cccc(Cl)c1)c1ccc2ccccc2n1

>  <score_type>  (69) 
oracle

>  <origin>  (69) 
autodockgpu

>  <m_score__min__energy>  (69) 
-9.2400000000000002

>  <m_primary>  (69) 
energy

>  <rmsd>  (69) 
8.66432811631205

>  <m_score__min__rmsd>  (69) 
8.66432811631205

>  <meeko>  (69) 
{"free_energy": -8.43, "intermolecular_energy": -10.22, "internal_energy": -2.13, "cluster_size": 1, "cluster_id": 5, "rank_in_cluster": 1}

>  <energy>  (69) 
-9.2

>  <cluster_rmsd>  (69) 
0.0

>  <cluster>  (69) 
2

$$$$

     RDKit          3D

 51 54  0  0  0  0  0  0  0  0999 V2000
  141.3000   71.7530  221.4440 O   0  0  0  0  0  0  0  0  0  0  0  0
  140.6250   72.2660  222.3730 C   0  0  0  0  0  0  0  0  0  0  0  0
  140.1410   73.6020  222.3190 N   0  0  0  0  0  0  0  0  0  0  0  0
  140.4050   74.4520  221.1760 C   0  0  0  0  0  0  0  0  0  0  0  0
  140.2650   75.8510  221.6610 C   0  0  0  0  0  0  0  0  0  0  0  0
  139.6360   76.1600  222.6900 O   0  0  0  0  0  0  0  0  0  0  0  0
  140.8870   76.8980  220.9060 N   0  0  0  0  0  0  0  0  0  0  0  0
  141.0490   78.2700  221.3570 C   0  0  0  0  0  0  0  0  0  0  0  0
  141.2430   79.0820  220.0800 C   0  0  0  0  0  0  0  0  0  0  0  0
  141.0330   78.0790  218.9500 C   0  0  0  0  0  0  0  0  0  0  0  0
  141.4640   76.7920  219.5680 C   0  0  1  0  0  0  0  0  0  0  0  0
  142.9660   76.6950  219.6730 C   0  0  0  0  0  0  0  0  0  0  0  0
  143.3450   75.2630  219.6910 C   0  0  0  0  0  0  0  0  0  0  0  0
  142.6940   74.2770  219.0080 C   0  0  0  0  0  0  0  0  0  0  0  0
  143.1010   72.9600  219.0770 C   0  0  0  0  0  0  0  0  0  0  0  0
  144.1850   72.5830  219.8430 C   0  0  0  0  0  0  0  0  0  0  0  0
  144.8560   73.5670  220.5420 C   0  0  0  0  0  0  0  0  0  0  0  0
  146.2520   73.1410  221.5370 Cl  0  0  0  0  0  0  0  0  0  0  0  0
  144.4420   74.8810  220.4660 C   0  0  0  0  0  0  0  0  0  0  0  0
  140.3140   71.4730  223.5670 C   0  0  0  0  0  0  0  0  0  0  0  0
  139.6150   70.2880  223.4520 C   0  0  0  0  0  0  0  0  0  0  0  0
  139.3140   69.5290  224.5710 C   0  0  0  0  0  0  0  0  0  0  0  0
  139.7240   69.9690  225.8330 C   0  0  0  0  0  0  0  0  0  0  0  0
  139.4320   69.2200  226.9770 C   0  0  0  0  0  0  0  0  0  0  0  0
  139.8550   69.6920  228.2030 C   0  0  0  0  0  0  0  0  0  0  0  0
  140.5630   70.8920  228.3110 C   0  0  0  0  0  0  0  0  0  0  0  0
  140.8370   71.6080  227.1680 C   0  0  0  0  0  0  0  0  0  0  0  0
  140.4220   71.1580  225.9230 C   0  0  0  0  0  0  0  0  0  0  0  0
  140.7010   71.8770  224.8090 N   0  0  0  0  0  0  0  0  0  0  0  0
  139.5780   73.9690  223.1390 H   0  0  0  0  0  0  0  0  0  0  0  0
  141.4237   74.2789  220.7988 H   0  0  0  0  0  0  0  0  0  0  0  0
  139.7098   74.2417  220.3498 H   0  0  0  0  0  0  0  0  0  0  0  0
  140.1530   78.6079  221.8983 H   0  0  0  0  0  0  0  0  0  0  0  0
  141.8952   78.3808  222.0511 H   0  0  0  0  0  0  0  0  0  0  0  0
  140.5037   79.8944  220.0204 H   0  0  0  0  0  0  0  0  0  0  0  0
  142.2332   79.5589  220.0355 H   0  0  0  0  0  0  0  0  0  0  0  0
  139.9764   78.0389  218.6467 H   0  0  0  0  0  0  0  0  0  0  0  0
  141.5887   78.3308  218.0347 H   0  0  0  0  0  0  0  0  0  0  0  0
  141.1488   75.9106  218.9903 H   0  0  0  0  0  0  0  0  0  0  0  0
  143.4311   77.1910  218.8083 H   0  0  0  0  0  0  0  0  0  0  0  0
  143.3118   77.1877  220.5937 H   0  0  0  0  0  0  0  0  0  0  0  0
  141.8240   74.5382  218.3876 H   0  0  0  0  0  0  0  0  0  0  0  0
  142.5500   72.1953  218.5098 H   0  0  0  0  0  0  0  0  0  0  0  0
  144.5046   71.5318  219.8952 H   0  0  0  0  0  0  0  0  0  0  0  0
  144.9910   75.6485  221.0313 H   0  0  0  0  0  0  0  0  0  0  0  0
  139.2929   69.9420  222.4587 H   0  0  0  0  0  0  0  0  0  0  0  0
  138.7562   68.5866  224.4673 H   0  0  0  0  0  0  0  0  0  0  0  0
  138.8764   68.2737  226.9014 H   0  0  0  0  0  0  0  0  0  0  0  0
  139.6309   69.1134  229.1113 H   0  0  0  0  0  0  0  0  0  0  0  0
  140.8958   71.2583  229.2934 H   0  0  0  0  0  0  0  0  0  0  0  0
  141.3946   72.5532  227.2429 H   0  0  0  0  0  0  0  0  0  0  0  0
  1  2  2  0
  2  3  1  0
  3  4  1  0
  4  5  1  0
  5  6  2  0
  5  7  1  0
  7  8  1  0
  8  9  1  0
  9 10  1  0
 10 11  1  0
 11 12  1  0
 12 13  1  0
 13 14  2  0
 14 15  1  0
 15 16  2  0
 16 17  1  0
 17 18  1  0
 17 19  2  0
  2 20  1  0
 20 21  2  0
 21 22  1  0
 22 23  2  0
 23 24  1  0
 24 25  2  0
 25 26  1  0
 26 27  2  0
 27 28  1  0
 28 29  2  0
 11  7  1  0
 19 13  1  0
 29 20  1  0
 28 23  1  0
  3 30  1  0
  4 31  1  0
  4 32  1  0
  8 33  1  0
  8 34  1  0
  9 35  1  0
  9 36  1  0
 10 37  1  0
 10 38  1  0
 11 39  1  6
 12 40  1  0
 12 41  1  0
 14 42  1  0
 15 43  1  0
 16 44  1  0
 19 45  1  0
 21 46  1  0
 22 47  1  0
 24 48  1  0
 25 49  1  0
 26 50  1  0
 27 51  1  0
M  END
>  <smiles>  (70) 
O=C(NCC(=O)N1CCCC1Cc1cccc(Cl)c1)c1ccc2ccccc2n1

>  <score_type>  (70) 
oracle

>  <origin>  (70) 
autodockgpu

>  <m_score__min__energy>  (70) 
-9.2400000000000002

>  <m_primary>  (70) 
energy

>  <rmsd>  (70) 
2.4144494940073824

>  <m_score__min__rmsd>  (70) 
2.4144494940073824

>  <meeko>  (70) 
{"free_energy": -8.79, "intermolecular_energy": -10.58, "internal_energy": -2.35, "cluster_size": 18, "cluster_id": 3, "rank_in_cluster": 7}

>  <energy>  (70) 
-9.19

>  <cluster_rmsd>  (70) 
0.2

>  <cluster>  (70) 
2

$$$$

     RDKit          3D

 51 54  0  0  0  0  0  0  0  0999 V2000
  140.1810   71.1660  221.1900 O   0  0  0  0  0  0  0  0  0  0  0  0
  139.9980   71.8380  222.2370 C   0  0  0  0  0  0  0  0  0  0  0  0
  139.8040   73.2460  222.2190 N   0  0  0  0  0  0  0  0  0  0  0  0
  139.8060   73.9900  220.9750 C   0  0  0  0  0  0  0  0  0  0  0  0
  140.6980   75.1590  221.1960 C   0  0  0  0  0  0  0  0  0  0  0  0
  141.0160   75.5760  222.3250 O   0  0  0  0  0  0  0  0  0  0  0  0
  141.2180   75.8440  220.0500 N   0  0  0  0  0  0  0  0  0  0  0  0
  140.7840   75.6280  218.6790 C   0  0  0  0  0  0  0  0  0  0  0  0
  141.9350   76.1380  217.8180 C   0  0  0  0  0  0  0  0  0  0  0  0
  143.0330   76.4970  218.8150 C   0  0  0  0  0  0  0  0  0  0  0  0
  142.2600   76.8680  220.0360 C   0  0  1  0  0  0  0  0  0  0  0  0
  141.6270   78.2300  219.9060 C   0  0  0  0  0  0  0  0  0  0  0  0
  141.2110   78.6860  221.2530 C   0  0  0  0  0  0  0  0  0  0  0  0
  140.0020   78.4190  221.8270 C   0  0  0  0  0  0  0  0  0  0  0  0
  139.6810   78.8830  223.0860 C   0  0  0  0  0  0  0  0  0  0  0  0
  140.5700   79.6400  223.8200 C   0  0  0  0  0  0  0  0  0  0  0  0
  141.7990   79.9210  223.2570 C   0  0  0  0  0  0  0  0  0  0  0  0
  142.9770   80.8840  224.1540 Cl  0  0  0  0  0  0  0  0  0  0  0  0
  142.1110   79.4520  221.9970 C   0  0  0  0  0  0  0  0  0  0  0  0
  139.9820   71.1620  223.5390 C   0  0  0  0  0  0  0  0  0  0  0  0
  139.4450   69.8960  223.6580 C   0  0  0  0  0  0  0  0  0  0  0  0
  139.4220   69.2450  224.8800 C   0  0  0  0  0  0  0  0  0  0  0  0
  139.9520   69.8790  226.0090 C   0  0  0  0  0  0  0  0  0  0  0  0
  139.9400   69.2430  227.2530 C   0  0  0  0  0  0  0  0  0  0  0  0
  140.4730   69.9060  228.3410 C   0  0  0  0  0  0  0  0  0  0  0  0
  141.0160   71.1880  228.2120 C   0  0  0  0  0  0  0  0  0  0  0  0
  141.0140   71.7890  226.9750 C   0  0  0  0  0  0  0  0  0  0  0  0
  140.4840   71.1470  225.8650 C   0  0  0  0  0  0  0  0  0  0  0  0
  140.4910   71.7550  224.6540 N   0  0  0  0  0  0  0  0  0  0  0  0
  139.6560   73.7480  223.1410 H   0  0  0  0  0  0  0  0  0  0  0  0
  140.1919   73.3645  220.1566 H   0  0  0  0  0  0  0  0  0  0  0  0
  138.7906   74.3063  220.6939 H   0  0  0  0  0  0  0  0  0  0  0  0
  140.6062   74.5585  218.4933 H   0  0  0  0  0  0  0  0  0  0  0  0
  139.8396   76.1465  218.4571 H   0  0  0  0  0  0  0  0  0  0  0  0
  142.2793   75.3547  217.1267 H   0  0  0  0  0  0  0  0  0  0  0  0
  141.6412   76.9956  217.1949 H   0  0  0  0  0  0  0  0  0  0  0  0
  143.6902   75.6363  219.0081 H   0  0  0  0  0  0  0  0  0  0  0  0
  143.6993   77.2973  218.4606 H   0  0  0  0  0  0  0  0  0  0  0  0
  142.8824   76.9146  220.9418 H   0  0  0  0  0  0  0  0  0  0  0  0
  142.3545   78.9383  219.4828 H   0  0  0  0  0  0  0  0  0  0  0  0
  140.7534   78.1774  219.2396 H   0  0  0  0  0  0  0  0  0  0  0  0
  139.2654   77.8192  221.2723 H   0  0  0  0  0  0  0  0  0  0  0  0
  138.6958   78.6443  223.5131 H   0  0  0  0  0  0  0  0  0  0  0  0
  140.3081   80.0084  224.8228 H   0  0  0  0  0  0  0  0  0  0  0  0
  143.0956   79.6881  221.5670 H   0  0  0  0  0  0  0  0  0  0  0  0
  139.0296   69.3973  222.7699 H   0  0  0  0  0  0  0  0  0  0  0  0
  138.9901   68.2367  224.9625 H   0  0  0  0  0  0  0  0  0  0  0  0
  139.5146   68.2346  227.3636 H   0  0  0  0  0  0  0  0  0  0  0  0
  140.4703   69.4169  229.3263 H   0  0  0  0  0  0  0  0  0  0  0  0
  141.4377   71.7072  229.0853 H   0  0  0  0  0  0  0  0  0  0  0  0
  141.4403   72.7969  226.8636 H   0  0  0  0  0  0  0  0  0  0  0  0
  1  2  2  0
  2  3  1  0
  3  4  1  0
  4  5  1  0
  5  6  2  0
  5  7  1  0
  7  8  1  0
  8  9  1  0
  9 10  1  0
 10 11  1  0
 11 12  1  0
 12 13  1  0
 13 14  2  0
 14 15  1  0
 15 16  2  0
 16 17  1  0
 17 18  1  0
 17 19  2  0
  2 20  1  0
 20 21  2  0
 21 22  1  0
 22 23  2  0
 23 24  1  0
 24 25  2  0
 25 26  1  0
 26 27  2  0
 27 28  1  0
 28 29  2  0
 11  7  1  0
 19 13  1  0
 29 20  1  0
 28 23  1  0
  3 30  1  0
  4 31  1  0
  4 32  1  0
  8 33  1  0
  8 34  1  0
  9 35  1  0
  9 36  1  0
 10 37  1  0
 10 38  1  0
 11 39  1  1
 12 40  1  0
 12 41  1  0
 14 42  1  0
 15 43  1  0
 16 44  1  0
 19 45  1  0
 21 46  1  0
 22 47  1  0
 24 48  1  0
 25 49  1  0
 26 50  1  0
 27 51  1  0
M  END
>  <smiles>  (71) 
O=C(NCC(=O)N1CCCC1Cc1cccc(Cl)c1)c1ccc2ccccc2n1

>  <score_type>  (71) 
oracle

>  <origin>  (71) 
autodockgpu

>  <m_score__min__energy>  (71) 
-9.2400000000000002

>  <m_primary>  (71) 
energy

>  <rmsd>  (71) 
1.5240694972462412

>  <m_score__min__rmsd>  (71) 
1.5240694972462412

>  <meeko>  (71) 
{"free_energy": -9.1, "intermolecular_energy": -10.89, "internal_energy": -1.97, "cluster_size": 18, "cluster_id": 1, "rank_in_cluster": 4}

>  <energy>  (71) 
-9.1

>  <cluster_rmsd>  (71) 
0.12

>  <cluster>  (71) 
2

$$$$

     RDKit          3D

 51 54  0  0  0  0  0  0  0  0999 V2000
  139.8740   71.1000  221.1910 O   0  0  0  0  0  0  0  0  0  0  0  0
  139.8880   71.7900  222.2430 C   0  0  0  0  0  0  0  0  0  0  0  0
  139.8840   73.2120  222.2240 N   0  0  0  0  0  0  0  0  0  0  0  0
  139.8630   73.9480  220.9760 C   0  0  0  0  0  0  0  0  0  0  0  0
  140.6660   75.1780  221.2100 C   0  0  0  0  0  0  0  0  0  0  0  0
  140.8770   75.6540  222.3410 O   0  0  0  0  0  0  0  0  0  0  0  0
  141.2260   75.8510  220.0760 N   0  0  0  0  0  0  0  0  0  0  0  0
  140.8150   75.6460  218.6960 C   0  0  0  0  0  0  0  0  0  0  0  0
  141.9950   76.1290  217.8600 C   0  0  0  0  0  0  0  0  0  0  0  0
  143.0810   76.4610  218.8790 C   0  0  0  0  0  0  0  0  0  0  0  0
  142.2920   76.8490  220.0840 C   0  0  1  0  0  0  0  0  0  0  0  0
  141.6940   78.2270  219.9430 C   0  0  0  0  0  0  0  0  0  0  0  0
  141.2560   78.6890  221.2810 C   0  0  0  0  0  0  0  0  0  0  0  0
  140.0390   78.4190  221.8380 C   0  0  0  0  0  0  0  0  0  0  0  0
  139.6970   78.8890  223.0890 C   0  0  0  0  0  0  0  0  0  0  0  0
  140.5710   79.6540  223.8320 C   0  0  0  0  0  0  0  0  0  0  0  0
  141.8070   79.9380  223.2860 C   0  0  0  0  0  0  0  0  0  0  0  0
  142.9660   80.9120  224.1950 Cl  0  0  0  0  0  0  0  0  0  0  0  0
  142.1410   79.4630  222.0340 C   0  0  0  0  0  0  0  0  0  0  0  0
  139.9090   71.1230  223.5480 C   0  0  0  0  0  0  0  0  0  0  0  0
  139.4070   69.8440  223.6840 C   0  0  0  0  0  0  0  0  0  0  0  0
  139.4200   69.2010  224.9100 C   0  0  0  0  0  0  0  0  0  0  0  0
  139.9500   69.8560  226.0260 C   0  0  0  0  0  0  0  0  0  0  0  0
  139.9750   69.2280  227.2750 C   0  0  0  0  0  0  0  0  0  0  0  0
  140.5070   69.9120  228.3490 C   0  0  0  0  0  0  0  0  0  0  0  0
  141.0150   71.2060  228.2040 C   0  0  0  0  0  0  0  0  0  0  0  0
  140.9780   71.7990  226.9630 C   0  0  0  0  0  0  0  0  0  0  0  0
  140.4480   71.1360  225.8660 C   0  0  0  0  0  0  0  0  0  0  0  0
  140.4200   71.7360  224.6520 N   0  0  0  0  0  0  0  0  0  0  0  0
  139.8960   73.7290  223.1500 H   0  0  0  0  0  0  0  0  0  0  0  0
  140.3106   73.3471  220.1707 H   0  0  0  0  0  0  0  0  0  0  0  0
  138.8349   74.1911  220.6696 H   0  0  0  0  0  0  0  0  0  0  0  0
  140.6158   74.5811  218.5055 H   0  0  0  0  0  0  0  0  0  0  0  0
  139.8878   76.1866  218.4552 H   0  0  0  0  0  0  0  0  0  0  0  0
  142.3345   75.3383  217.1748 H   0  0  0  0  0  0  0  0  0  0  0  0
  141.7343   76.9941  217.2326 H   0  0  0  0  0  0  0  0  0  0  0  0
  143.7136   75.5848  219.0842 H   0  0  0  0  0  0  0  0  0  0  0  0
  143.7734   77.2453  218.5393 H   0  0  0  0  0  0  0  0  0  0  0  0
  142.8970   76.8796  221.0022 H   0  0  0  0  0  0  0  0  0  0  0  0
  142.4480   78.9192  219.5400 H   0  0  0  0  0  0  0  0  0  0  0  0
  140.8360   78.1968  219.2553 H   0  0  0  0  0  0  0  0  0  0  0  0
  139.3140   77.8122  221.2757 H   0  0  0  0  0  0  0  0  0  0  0  0
  138.7064   78.6485  223.5024 H   0  0  0  0  0  0  0  0  0  0  0  0
  140.2922   80.0265  224.8288 H   0  0  0  0  0  0  0  0  0  0  0  0
  143.1312   79.7006  221.6181 H   0  0  0  0  0  0  0  0  0  0  0  0
  138.9908   69.3286  222.8058 H   0  0  0  0  0  0  0  0  0  0  0  0
  139.0163   68.1822  225.0055 H   0  0  0  0  0  0  0  0  0  0  0  0
  139.5787   68.2094  227.3990 H   0  0  0  0  0  0  0  0  0  0  0  0
  140.5317   69.4299  229.3374 H   0  0  0  0  0  0  0  0  0  0  0  0
  141.4372   71.7412  229.0673 H   0  0  0  0  0  0  0  0  0  0  0  0
  141.3758   72.8170  226.8386 H   0  0  0  0  0  0  0  0  0  0  0  0
  1  2  2  0
  2  3  1  0
  3  4  1  0
  4  5  1  0
  5  6  2  0
  5  7  1  0
  7  8  1  0
  8  9  1  0
  9 10  1  0
 10 11  1  0
 11 12  1  0
 12 13  1  0
 13 14  2  0
 14 15  1  0
 15 16  2  0
 16 17  1  0
 17 18  1  0
 17 19  2  0
  2 20  1  0
 20 21  2  0
 21 22  1  0
 22 23  2  0
 23 24  1  0
 24 25  2  0
 25 26  1  0
 26 27  2  0
 27 28  1  0
 28 29  2  0
 11  7  1  0
 19 13  1  0
 29 20  1  0
 28 23  1  0
  3 30  1  0
  4 31  1  0
  4 32  1  0
  8 33  1  0
  8 34  1  0
  9 35  1  0
  9 36  1  0
 10 37  1  0
 10 38  1  0
 11 39  1  1
 12 40  1  0
 12 41  1  0
 14 42  1  0
 15 43  1  0
 16 44  1  0
 19 45  1  0
 21 46  1  0
 22 47  1  0
 24 48  1  0
 25 49  1  0
 26 50  1  0
 27 51  1  0
M  END
>  <smiles>  (72) 
O=C(NCC(=O)N1CCCC1Cc1cccc(Cl)c1)c1ccc2ccccc2n1

>  <score_type>  (72) 
oracle

>  <origin>  (72) 
autodockgpu

>  <m_score__min__energy>  (72) 
-9.2400000000000002

>  <m_primary>  (72) 
energy

>  <rmsd>  (72) 
1.545254702727215

>  <m_score__min__rmsd>  (72) 
1.545254702727215

>  <meeko>  (72) 
{"free_energy": -9.0, "intermolecular_energy": -10.79, "internal_energy": -2.11, "cluster_size": 18, "cluster_id": 1, "rank_in_cluster": 9}

>  <energy>  (72) 
-9.09

>  <cluster_rmsd>  (72) 
1.0

>  <cluster>  (72) 
2

$$$$

     RDKit          3D

 51 54  0  0  0  0  0  0  0  0999 V2000
  141.4860   71.9060  221.4870 O   0  0  0  0  0  0  0  0  0  0  0  0
  140.7200   72.3620  222.3740 C   0  0  0  0  0  0  0  0  0  0  0  0
  140.1910   73.6810  222.3240 N   0  0  0  0  0  0  0  0  0  0  0  0
  140.5110   74.5800  221.2330 C   0  0  0  0  0  0  0  0  0  0  0  0
  140.1940   75.9480  221.7200 C   0  0  0  0  0  0  0  0  0  0  0  0
  139.3970   76.1780  222.6480 O   0  0  0  0  0  0  0  0  0  0  0  0
  140.8370   77.0610  221.0870 N   0  0  0  0  0  0  0  0  0  0  0  0
  141.1180   78.3370  221.7250 C   0  0  0  0  0  0  0  0  0  0  0  0
  141.2880   79.3220  220.5720 C   0  0  0  0  0  0  0  0  0  0  0  0
  140.9430   78.5170  219.3230 C   0  0  0  0  0  0  0  0  0  0  0  0
  141.3230   77.1280  219.7110 C   0  0  1  0  0  0  0  0  0  0  0  0
  142.8180   76.9310  219.6940 C   0  0  0  0  0  0  0  0  0  0  0  0
  143.1000   75.4820  219.5710 C   0  0  0  0  0  0  0  0  0  0  0  0
  142.3760   74.6090  218.8110 C   0  0  0  0  0  0  0  0  0  0  0  0
  142.6930   73.2680  218.7490 C   0  0  0  0  0  0  0  0  0  0  0  0
  143.7590   72.7490  219.4540 C   0  0  0  0  0  0  0  0  0  0  0  0
  144.5050   73.6160  220.2290 C   0  0  0  0  0  0  0  0  0  0  0  0
  145.8810   73.0060  221.1520 Cl  0  0  0  0  0  0  0  0  0  0  0  0
  144.1790   74.9560  220.2850 C   0  0  0  0  0  0  0  0  0  0  0  0
  140.3470   71.5180  223.5130 C   0  0  0  0  0  0  0  0  0  0  0  0
  139.6240   70.3590  223.3120 C   0  0  0  0  0  0  0  0  0  0  0  0
  139.2630   69.5520  224.3780 C   0  0  0  0  0  0  0  0  0  0  0  0
  139.6380   69.9150  225.6750 C   0  0  0  0  0  0  0  0  0  0  0  0
  139.2870   69.1160  226.7670 C   0  0  0  0  0  0  0  0  0  0  0  0
  139.6770   69.5130  228.0300 C   0  0  0  0  0  0  0  0  0  0  0  0
  140.4100   70.6870  228.2260 C   0  0  0  0  0  0  0  0  0  0  0  0
  140.7430   71.4530  227.1330 C   0  0  0  0  0  0  0  0  0  0  0  0
  140.3620   71.0790  225.8520 C   0  0  0  0  0  0  0  0  0  0  0  0
  140.6990   71.8460  224.7870 N   0  0  0  0  0  0  0  0  0  0  0  0
  139.5510   73.9980  223.1080 H   0  0  0  0  0  0  0  0  0  0  0  0
  141.5778   74.5039  220.9760 H   0  0  0  0  0  0  0  0  0  0  0  0
  139.9378   74.3329  220.3272 H   0  0  0  0  0  0  0  0  0  0  0  0
  140.2813   78.6390  222.3721 H   0  0  0  0  0  0  0  0  0  0  0  0
  142.0102   78.2920  222.3669 H   0  0  0  0  0  0  0  0  0  0  0  0
  140.6026   80.1748  220.6858 H   0  0  0  0  0  0  0  0  0  0  0  0
  142.3035   79.7426  220.5295 H   0  0  0  0  0  0  0  0  0  0  0  0
  139.8697   78.5844  219.0919 H   0  0  0  0  0  0  0  0  0  0  0  0
  141.4580   78.8733  218.4187 H   0  0  0  0  0  0  0  0  0  0  0  0
  140.9144   76.3644  219.0327 H   0  0  0  0  0  0  0  0  0  0  0  0
  143.2532   77.4676  218.8381 H   0  0  0  0  0  0  0  0  0  0  0  0
  143.2603   77.3236  220.6215 H   0  0  0  0  0  0  0  0  0  0  0  0
  141.5183   74.9845  218.2336 H   0  0  0  0  0  0  0  0  0  0  0  0
  142.0831   72.5987  218.1245 H   0  0  0  0  0  0  0  0  0  0  0  0
  144.0073   71.6787  219.4008 H   0  0  0  0  0  0  0  0  0  0  0  0
  144.7858   75.6283  220.9093 H   0  0  0  0  0  0  0  0  0  0  0  0
  139.3307   70.0727  222.2912 H   0  0  0  0  0  0  0  0  0  0  0  0
  138.6853   68.6319  224.2055 H   0  0  0  0  0  0  0  0  0  0  0  0
  138.7116   68.1896  226.6226 H   0  0  0  0  0  0  0  0  0  0  0  0
  139.4061   68.8943  228.8982 H   0  0  0  0  0  0  0  0  0  0  0  0
  140.7155   70.9932  229.2374 H   0  0  0  0  0  0  0  0  0  0  0  0
  141.3211   72.3777  227.2768 H   0  0  0  0  0  0  0  0  0  0  0  0
  1  2  2  0
  2  3  1  0
  3  4  1  0
  4  5  1  0
  5  6  2  0
  5  7  1  0
  7  8  1  0
  8  9  1  0
  9 10  1  0
 10 11  1  0
 11 12  1  0
 12 13  1  0
 13 14  2  0
 14 15  1  0
 15 16  2  0
 16 17  1  0
 17 18  1  0
 17 19  2  0
  2 20  1  0
 20 21  2  0
 21 22  1  0
 22 23  2  0
 23 24  1  0
 24 25  2  0
 25 26  1  0
 26 27  2  0
 27 28  1  0
 28 29  2  0
 11  7  1  0
 19 13  1  0
 29 20  1  0
 28 23  1  0
  3 30  1  0
  4 31  1  0
  4 32  1  0
  8 33  1  0
  8 34  1  0
  9 35  1  0
  9 36  1  0
 10 37  1  0
 10 38  1  0
 11 39  1  6
 12 40  1  0
 12 41  1  0
 14 42  1  0
 15 43  1  0
 16 44  1  0
 19 45  1  0
 21 46  1  0
 22 47  1  0
 24 48  1  0
 25 49  1  0
 26 50  1  0
 27 51  1  0
M  END
>  <smiles>  (73) 
O=C(NCC(=O)N1CCCC1Cc1cccc(Cl)c1)c1ccc2ccccc2n1

>  <score_type>  (73) 
oracle

>  <origin>  (73) 
autodockgpu

>  <m_score__min__energy>  (73) 
-9.2400000000000002

>  <m_primary>  (73) 
energy

>  <rmsd>  (73) 
2.5890899161286813

>  <m_score__min__rmsd>  (73) 
2.5890899161286813

>  <meeko>  (73) 
{"free_energy": -8.44, "intermolecular_energy": -10.23, "internal_energy": -2.31, "cluster_size": 18, "cluster_id": 3, "rank_in_cluster": 15}

>  <energy>  (73) 
-9.02

>  <cluster_rmsd>  (73) 
0.94

>  <cluster>  (73) 
2

$$$$

     RDKit          3D

 51 54  0  0  0  0  0  0  0  0999 V2000
  139.9310   71.1040  221.1910 O   0  0  0  0  0  0  0  0  0  0  0  0
  139.8800   71.7900  222.2430 C   0  0  0  0  0  0  0  0  0  0  0  0
  139.7860   73.2090  222.2280 N   0  0  0  0  0  0  0  0  0  0  0  0
  139.7440   73.9470  220.9810 C   0  0  0  0  0  0  0  0  0  0  0  0
  140.5290   75.1880  221.2100 C   0  0  0  0  0  0  0  0  0  0  0  0
  140.6790   75.7070  222.3320 O   0  0  0  0  0  0  0  0  0  0  0  0
  141.1440   75.8220  220.0820 N   0  0  0  0  0  0  0  0  0  0  0  0
  140.7850   75.5870  218.6930 C   0  0  0  0  0  0  0  0  0  0  0  0
  142.0060   76.0300  217.8920 C   0  0  0  0  0  0  0  0  0  0  0  0
  143.0550   76.3720  218.9460 C   0  0  0  0  0  0  0  0  0  0  0  0
  142.2250   76.8050  220.1080 C   0  0  1  0  0  0  0  0  0  0  0  0
  141.6550   78.1870  219.9070 C   0  0  0  0  0  0  0  0  0  0  0  0
  141.2040   78.7050  221.2190 C   0  0  0  0  0  0  0  0  0  0  0  0
  139.9610   78.5100  221.7480 C   0  0  0  0  0  0  0  0  0  0  0  0
  139.6080   79.0290  222.9760 C   0  0  0  0  0  0  0  0  0  0  0  0
  140.4980   79.7710  223.7250 C   0  0  0  0  0  0  0  0  0  0  0  0
  141.7610   79.9790  223.2070 C   0  0  0  0  0  0  0  0  0  0  0  0
  142.9420   80.9200  224.1230 Cl  0  0  0  0  0  0  0  0  0  0  0  0
  142.1050   79.4560  221.9770 C   0  0  0  0  0  0  0  0  0  0  0  0
  139.9180   71.1210  223.5470 C   0  0  0  0  0  0  0  0  0  0  0  0
  139.4480   69.8300  223.6810 C   0  0  0  0  0  0  0  0  0  0  0  0
  139.4760   69.1850  224.9060 C   0  0  0  0  0  0  0  0  0  0  0  0
  139.9900   69.8520  226.0230 C   0  0  0  0  0  0  0  0  0  0  0  0
  140.0290   69.2220  227.2710 C   0  0  0  0  0  0  0  0  0  0  0  0
  140.5430   69.9170  228.3470 C   0  0  0  0  0  0  0  0  0  0  0  0
  141.0180   71.2240  228.2040 C   0  0  0  0  0  0  0  0  0  0  0  0
  140.9670   71.8180  226.9650 C   0  0  0  0  0  0  0  0  0  0  0  0
  140.4540   71.1440  225.8660 C   0  0  0  0  0  0  0  0  0  0  0  0
  140.4120   71.7450  224.6530 N   0  0  0  0  0  0  0  0  0  0  0  0
  139.7470   73.7230  223.1540 H   0  0  0  0  0  0  0  0  0  0  0  0
  140.1945   73.3543  220.1712 H   0  0  0  0  0  0  0  0  0  0  0  0
  138.7098   74.1748  220.6834 H   0  0  0  0  0  0  0  0  0  0  0  0
  140.5761   74.5206  218.5223 H   0  0  0  0  0  0  0  0  0  0  0  0
  139.8770   76.1352  218.4013 H   0  0  0  0  0  0  0  0  0  0  0  0
  142.3599   75.2164  217.2418 H   0  0  0  0  0  0  0  0  0  0  0  0
  141.7851   76.8817  217.2319 H   0  0  0  0  0  0  0  0  0  0  0  0
  143.6638   75.4917  219.1997 H   0  0  0  0  0  0  0  0  0  0  0  0
  143.7734   77.1362  218.6144 H   0  0  0  0  0  0  0  0  0  0  0  0
  142.7931   76.8522  221.0488 H   0  0  0  0  0  0  0  0  0  0  0  0
  142.4281   78.8504  219.4921 H   0  0  0  0  0  0  0  0  0  0  0  0
  140.8079   78.1469  219.2064 H   0  0  0  0  0  0  0  0  0  0  0  0
  139.2225   77.9244  221.1808 H   0  0  0  0  0  0  0  0  0  0  0  0
  138.5958   78.8476  223.3665 H   0  0  0  0  0  0  0  0  0  0  0  0
  140.2107   80.1836  224.7034 H   0  0  0  0  0  0  0  0  0  0  0  0
  143.1162   79.6355  221.5830 H   0  0  0  0  0  0  0  0  0  0  0  0
  139.0453   69.3059  222.8017 H   0  0  0  0  0  0  0  0  0  0  0  0
  139.0972   68.1566  225.0000 H   0  0  0  0  0  0  0  0  0  0  0  0
  139.6577   68.1937  227.3925 H   0  0  0  0  0  0  0  0  0  0  0  0
  140.5795   69.4339  229.3346 H   0  0  0  0  0  0  0  0  0  0  0  0
  141.4259   71.7683  229.0685 H   0  0  0  0  0  0  0  0  0  0  0  0
  141.3395   72.8458  226.8429 H   0  0  0  0  0  0  0  0  0  0  0  0
  1  2  2  0
  2  3  1  0
  3  4  1  0
  4  5  1  0
  5  6  2  0
  5  7  1  0
  7  8  1  0
  8  9  1  0
  9 10  1  0
 10 11  1  0
 11 12  1  0
 12 13  1  0
 13 14  2  0
 14 15  1  0
 15 16  2  0
 16 17  1  0
 17 18  1  0
 17 19  2  0
  2 20  1  0
 20 21  2  0
 21 22  1  0
 22 23  2  0
 23 24  1  0
 24 25  2  0
 25 26  1  0
 26 27  2  0
 27 28  1  0
 28 29  2  0
 11  7  1  0
 19 13  1  0
 29 20  1  0
 28 23  1  0
  3 30  1  0
  4 31  1  0
  4 32  1  0
  8 33  1  0
  8 34  1  0
  9 35  1  0
  9 36  1  0
 10 37  1  0
 10 38  1  0
 11 39  1  1
 12 40  1  0
 12 41  1  0
 14 42  1  0
 15 43  1  0
 16 44  1  0
 19 45  1  0
 21 46  1  0
 22 47  1  0
 24 48  1  0
 25 49  1  0
 26 50  1  0
 27 51  1  0
M  END
>  <smiles>  (74) 
O=C(NCC(=O)N1CCCC1Cc1cccc(Cl)c1)c1ccc2ccccc2n1

>  <score_type>  (74) 
oracle

>  <origin>  (74) 
autodockgpu

>  <m_score__min__energy>  (74) 
-9.2400000000000002

>  <m_primary>  (74) 
energy

>  <rmsd>  (74) 
1.5253508686735588

>  <m_score__min__rmsd>  (74) 
1.5253508686735588

>  <meeko>  (74) 
{"free_energy": -9.05, "intermolecular_energy": -10.84, "internal_energy": -2.07, "cluster_size": 18, "cluster_id": 1, "rank_in_cluster": 5}

>  <energy>  (74) 
-8.87

>  <cluster_rmsd>  (74) 
1.61

>  <cluster>  (74) 
2

$$$$

     RDKit          3D

 51 54  0  0  0  0  0  0  0  0999 V2000
  137.1090   76.4600  222.3160 O   0  0  0  0  0  0  0  0  0  0  0  0
  138.3630   76.4690  222.4140 C   0  0  0  0  0  0  0  0  0  0  0  0
  139.1530   75.3010  222.2350 N   0  0  0  0  0  0  0  0  0  0  0  0
  138.5460   74.0220  221.9240 C   0  0  0  0  0  0  0  0  0  0  0  0
  139.5550   72.9900  222.2810 C   0  0  0  0  0  0  0  0  0  0  0  0
  140.7240   73.2590  222.6120 O   0  0  0  0  0  0  0  0  0  0  0  0
  139.1610   71.6130  222.2410 N   0  0  0  0  0  0  0  0  0  0  0  0
  139.1280   70.7870  221.0450 C   0  0  0  0  0  0  0  0  0  0  0  0
  138.1760   69.6440  221.3840 C   0  0  0  0  0  0  0  0  0  0  0  0
  137.6190   70.0010  222.7590 C   0  0  0  0  0  0  0  0  0  0  0  0
  138.7280   70.7900  223.3690 C   0  0  1  0  0  0  0  0  0  0  0  0
  139.8660   69.9060  223.8150 C   0  0  0  0  0  0  0  0  0  0  0  0
  140.2930   70.3360  225.1660 C   0  0  0  0  0  0  0  0  0  0  0  0
  140.6700   71.6060  225.4970 C   0  0  0  0  0  0  0  0  0  0  0  0
  141.0630   71.9330  226.7780 C   0  0  0  0  0  0  0  0  0  0  0  0
  141.0950   70.9880  227.7830 C   0  0  0  0  0  0  0  0  0  0  0  0
  140.7170   69.6980  227.4680 C   0  0  0  0  0  0  0  0  0  0  0  0
  140.7370   68.4480  228.7160 Cl  0  0  0  0  0  0  0  0  0  0  0  0
  140.3250   69.3800  226.1840 C   0  0  0  0  0  0  0  0  0  0  0  0
  139.0560   77.7230  222.7270 C   0  0  0  0  0  0  0  0  0  0  0  0
  138.3360   78.8510  223.0640 C   0  0  0  0  0  0  0  0  0  0  0  0
  138.9760   80.0420  223.3610 C   0  0  0  0  0  0  0  0  0  0  0  0
  140.3730   80.1020  223.3210 C   0  0  0  0  0  0  0  0  0  0  0  0
  141.0430   81.2930  223.6180 C   0  0  0  0  0  0  0  0  0  0  0  0
  142.4220   81.3070  223.5660 C   0  0  0  0  0  0  0  0  0  0  0  0
  143.1450   80.1600  223.2250 C   0  0  0  0  0  0  0  0  0  0  0  0
  142.4590   79.0030  222.9380 C   0  0  0  0  0  0  0  0  0  0  0  0
  141.0740   78.9600  222.9820 C   0  0  0  0  0  0  0  0  0  0  0  0
  140.4150   77.8100  222.6970 N   0  0  0  0  0  0  0  0  0  0  0  0
  140.2060   75.3830  222.3330 H   0  0  0  0  0  0  0  0  0  0  0  0
  137.6293   73.8805  222.5153 H   0  0  0  0  0  0  0  0  0  0  0  0
  138.2636   73.9582  220.8628 H   0  0  0  0  0  0  0  0  0  0  0  0
  138.7512   71.3631  220.1870 H   0  0  0  0  0  0  0  0  0  0  0  0
  140.1278   70.4241  220.7645 H   0  0  0  0  0  0  0  0  0  0  0  0
  137.3665   69.5799  220.6419 H   0  0  0  0  0  0  0  0  0  0  0  0
  138.6801   68.6663  221.3794 H   0  0  0  0  0  0  0  0  0  0  0  0
  136.7041   70.6054  222.6713 H   0  0  0  0  0  0  0  0  0  0  0  0
  137.3308   69.1220  223.3542 H   0  0  0  0  0  0  0  0  0  0  0  0
  138.4174   71.3486  224.2643 H   0  0  0  0  0  0  0  0  0  0  0  0
  139.5316   68.8586  223.8474 H   0  0  0  0  0  0  0  0  0  0  0  0
  140.7063   69.9887  223.1099 H   0  0  0  0  0  0  0  0  0  0  0  0
  140.6600   72.3875  224.7229 H   0  0  0  0  0  0  0  0  0  0  0  0
  141.3571   72.9688  227.0032 H   0  0  0  0  0  0  0  0  0  0  0  0
  141.4115   71.2539  228.8024 H   0  0  0  0  0  0  0  0  0  0  0  0
  140.0296   68.3453  225.9557 H   0  0  0  0  0  0  0  0  0  0  0  0
  137.2375   78.8030  223.0971 H   0  0  0  0  0  0  0  0  0  0  0  0
  138.3904   80.9345  223.6265 H   0  0  0  0  0  0  0  0  0  0  0  0
  140.4823   82.2002  223.8876 H   0  0  0  0  0  0  0  0  0  0  0  0
  142.9619   82.2371  223.7969 H   0  0  0  0  0  0  0  0  0  0  0  0
  144.2441   80.1825  223.1869 H   0  0  0  0  0  0  0  0  0  0  0  0
  143.0193   78.0955  222.6687 H   0  0  0  0  0  0  0  0  0  0  0  0
  1  2  2  0
  2  3  1  0
  3  4  1  0
  4  5  1  0
  5  6  2  0
  5  7  1  0
  7  8  1  0
  8  9  1  0
  9 10  1  0
 10 11  1  0
 11 12  1  0
 12 13  1  0
 13 14  2  0
 14 15  1  0
 15 16  2  0
 16 17  1  0
 17 18  1  0
 17 19  2  0
  2 20  1  0
 20 21  2  0
 21 22  1  0
 22 23  2  0
 23 24  1  0
 24 25  2  0
 25 26  1  0
 26 27  2  0
 27 28  1  0
 28 29  2  0
 11  7  1  0
 19 13  1  0
 29 20  1  0
 28 23  1  0
  3 30  1  0
  4 31  1  0
  4 32  1  0
  8 33  1  0
  8 34  1  0
  9 35  1  0
  9 36  1  0
 10 37  1  0
 10 38  1  0
 11 39  1  1
 12 40  1  0
 12 41  1  0
 14 42  1  0
 15 43  1  0
 16 44  1  0
 19 45  1  0
 21 46  1  0
 22 47  1  0
 24 48  1  0
 25 49  1  0
 26 50  1  0
 27 51  1  0
M  END
>  <smiles>  (75) 
O=C(NCC(=O)N1CCCC1Cc1cccc(Cl)c1)c1ccc2ccccc2n1

>  <score_type>  (75) 
oracle

>  <origin>  (75) 
autodockgpu

>  <m_score__min__energy>  (75) 
-9.2400000000000002

>  <m_primary>  (75) 
energy

>  <rmsd>  (75) 
8.33259211848393

>  <m_score__min__rmsd>  (75) 
8.33259211848393

>  <meeko>  (75) 
{"free_energy": -8.85, "intermolecular_energy": -10.64, "internal_energy": -2.22, "cluster_size": 10, "cluster_id": 2, "rank_in_cluster": 8}

>  <energy>  (75) 
-8.86

>  <cluster_rmsd>  (75) 
1.63

>  <cluster>  (75) 
2

$$$$

     RDKit          3D

 51 54  0  0  0  0  0  0  0  0999 V2000
  141.1920   71.3730  221.3800 O   0  0  0  0  0  0  0  0  0  0  0  0
  140.6550   71.9930  222.3330 C   0  0  0  0  0  0  0  0  0  0  0  0
  140.3050   73.3680  222.2510 N   0  0  0  0  0  0  0  0  0  0  0  0
  140.5530   74.1380  221.0480 C   0  0  0  0  0  0  0  0  0  0  0  0
  140.6500   75.5570  221.4790 C   0  0  0  0  0  0  0  0  0  0  0  0
  140.1270   75.9950  222.5200 O   0  0  0  0  0  0  0  0  0  0  0  0
  141.3840   76.4700  220.6530 N   0  0  0  0  0  0  0  0  0  0  0  0
  141.5330   77.8930  220.9080 C   0  0  0  0  0  0  0  0  0  0  0  0
  141.8950   78.4980  219.5560 C   0  0  0  0  0  0  0  0  0  0  0  0
  141.7880   77.3370  218.5720 C   0  0  0  0  0  0  0  0  0  0  0  0
  142.1080   76.1540  219.4240 C   0  0  1  0  0  0  0  0  0  0  0  0
  143.5840   76.0580  219.7180 C   0  0  0  0  0  0  0  0  0  0  0  0
  143.9260   74.6360  219.9500 C   0  0  0  0  0  0  0  0  0  0  0  0
  144.9100   74.1980  220.7890 C   0  0  0  0  0  0  0  0  0  0  0  0
  145.1770   72.8540  220.9500 C   0  0  0  0  0  0  0  0  0  0  0  0
  144.4620   71.8930  220.2680 C   0  0  0  0  0  0  0  0  0  0  0  0
  143.4620   72.3160  219.4140 C   0  0  0  0  0  0  0  0  0  0  0  0
  142.5130   71.1270  218.5160 Cl  0  0  0  0  0  0  0  0  0  0  0  0
  143.2010   73.6620  219.2590 C   0  0  0  0  0  0  0  0  0  0  0  0
  140.3710   71.2880  223.5870 C   0  0  0  0  0  0  0  0  0  0  0  0
  139.6930   70.0860  223.5710 C   0  0  0  0  0  0  0  0  0  0  0  0
  139.4170   69.4090  224.7470 C   0  0  0  0  0  0  0  0  0  0  0  0
  139.8310   69.9510  225.9680 C   0  0  0  0  0  0  0  0  0  0  0  0
  139.5650   69.2860  227.1680 C   0  0  0  0  0  0  0  0  0  0  0  0
  139.9910   69.8570  228.3500 C   0  0  0  0  0  0  0  0  0  0  0  0
  140.6780   71.0750  228.3580 C   0  0  0  0  0  0  0  0  0  0  0  0
  140.9270   71.7060  227.1620 C   0  0  0  0  0  0  0  0  0  0  0  0
  140.5080   71.1560  225.9590 C   0  0  0  0  0  0  0  0  0  0  0  0
  140.7630   71.7920  224.7900 N   0  0  0  0  0  0  0  0  0  0  0  0
  139.8550   73.8260  223.0950 H   0  0  0  0  0  0  0  0  0  0  0  0
  141.4936   73.8171  220.5766 H   0  0  0  0  0  0  0  0  0  0  0  0
  139.7512   73.9968  220.3083 H   0  0  0  0  0  0  0  0  0  0  0  0
  140.5911   78.3197  221.2832 H   0  0  0  0  0  0  0  0  0  0  0  0
  142.2972   78.0990  221.6719 H   0  0  0  0  0  0  0  0  0  0  0  0
  141.1908   79.2996  219.2885 H   0  0  0  0  0  0  0  0  0  0  0  0
  142.8971   78.9517  219.5576 H   0  0  0  0  0  0  0  0  0  0  0  0
  140.7727   77.2626  218.1552 H   0  0  0  0  0  0  0  0  0  0  0  0
  142.4522   77.4402  217.7013 H   0  0  0  0  0  0  0  0  0  0  0  0
  141.8361   75.1977  218.9532 H   0  0  0  0  0  0  0  0  0  0  0  0
  144.1584   76.4429  218.8625 H   0  0  0  0  0  0  0  0  0  0  0  0
  143.8302   76.6547  220.6087 H   0  0  0  0  0  0  0  0  0  0  0  0
  145.5042   74.9343  221.3501 H   0  0  0  0  0  0  0  0  0  0  0  0
  145.9775   72.5428  221.6372 H   0  0  0  0  0  0  0  0  0  0  0  0
  144.6808   70.8230  220.3996 H   0  0  0  0  0  0  0  0  0  0  0  0
  142.4007   73.9766  218.5730 H   0  0  0  0  0  0  0  0  0  0  0  0
  139.3673   69.6598  222.6106 H   0  0  0  0  0  0  0  0  0  0  0  0
  138.8760   68.4516  224.7210 H   0  0  0  0  0  0  0  0  0  0  0  0
  139.0269   68.3266  227.1704 H   0  0  0  0  0  0  0  0  0  0  0  0
  139.7867   69.3453  229.3021 H   0  0  0  0  0  0  0  0  0  0  0  0
  141.0138   71.5211  229.3058 H   0  0  0  0  0  0  0  0  0  0  0  0
  141.4680   72.6638  227.1588 H   0  0  0  0  0  0  0  0  0  0  0  0
  1  2  2  0
  2  3  1  0
  3  4  1  0
  4  5  1  0
  5  6  2  0
  5  7  1  0
  7  8  1  0
  8  9  1  0
  9 10  1  0
 10 11  1  0
 11 12  1  0
 12 13  1  0
 13 14  2  0
 14 15  1  0
 15 16  2  0
 16 17  1  0
 17 18  1  0
 17 19  2  0
  2 20  1  0
 20 21  2  0
 21 22  1  0
 22 23  2  0
 23 24  1  0
 24 25  2  0
 25 26  1  0
 26 27  2  0
 27 28  1  0
 28 29  2  0
 11  7  1  0
 19 13  1  0
 29 20  1  0
 28 23  1  0
  3 30  1  0
  4 31  1  0
  4 32  1  0
  8 33  1  0
  8 34  1  0
  9 35  1  0
  9 36  1  0
 10 37  1  0
 10 38  1  0
 11 39  1  6
 12 40  1  0
 12 41  1  0
 14 42  1  0
 15 43  1  0
 16 44  1  0
 19 45  1  0
 21 46  1  0
 22 47  1  0
 24 48  1  0
 25 49  1  0
 26 50  1  0
 27 51  1  0
M  END
>  <smiles>  (76) 
O=C(NCC(=O)N1CCCC1Cc1cccc(Cl)c1)c1ccc2ccccc2n1

>  <score_type>  (76) 
oracle

>  <origin>  (76) 
autodockgpu

>  <m_score__min__energy>  (76) 
-9.2400000000000002

>  <m_primary>  (76) 
energy

>  <rmsd>  (76) 
2.319372522852985

>  <m_score__min__rmsd>  (76) 
2.319372522852985

>  <meeko>  (76) 
{"free_energy": -8.37, "intermolecular_energy": -10.16, "internal_energy": -2.52, "cluster_size": 18, "cluster_id": 3, "rank_in_cluster": 16}

>  <energy>  (76) 
-8.85

>  <cluster_rmsd>  (76) 
0.42

>  <cluster>  (76) 
2

$$$$

     RDKit          3D

 51 54  0  0  0  0  0  0  0  0999 V2000
  137.2100   76.5910  222.0070 O   0  0  0  0  0  0  0  0  0  0  0  0
  138.4540   76.5530  222.1890 C   0  0  0  0  0  0  0  0  0  0  0  0
  139.2180   75.3690  222.0000 N   0  0  0  0  0  0  0  0  0  0  0  0
  138.5950   74.1290  221.5810 C   0  0  0  0  0  0  0  0  0  0  0  0
  139.3380   73.0410  222.2700 C   0  0  0  0  0  0  0  0  0  0  0  0
  140.5240   73.1440  222.6330 O   0  0  0  0  0  0  0  0  0  0  0  0
  138.6540   71.8100  222.5300 N   0  0  0  0  0  0  0  0  0  0  0  0
  137.8910   71.0540  221.5490 C   0  0  0  0  0  0  0  0  0  0  0  0
  136.9520   70.1790  222.3730 C   0  0  0  0  0  0  0  0  0  0  0  0
  137.1740   70.6250  223.8150 C   0  0  0  0  0  0  0  0  0  0  0  0
  138.5910   71.0910  223.8010 C   0  0  1  0  0  0  0  0  0  0  0  0
  139.5610   69.9360  223.7750 C   0  0  0  0  0  0  0  0  0  0  0  0
  139.9560   69.6220  225.1670 C   0  0  0  0  0  0  0  0  0  0  0  0
  139.9780   68.3680  225.7070 C   0  0  0  0  0  0  0  0  0  0  0  0
  140.3520   68.1510  227.0170 C   0  0  0  0  0  0  0  0  0  0  0  0
  140.7210   69.1950  227.8400 C   0  0  0  0  0  0  0  0  0  0  0  0
  140.7060   70.4710  227.3130 C   0  0  0  0  0  0  0  0  0  0  0  0
  141.1700   71.8440  228.3220 Cl  0  0  0  0  0  0  0  0  0  0  0  0
  140.3300   70.6780  226.0010 C   0  0  0  0  0  0  0  0  0  0  0  0
  139.1620   77.7640  222.6140 C   0  0  0  0  0  0  0  0  0  0  0  0
  138.4580   78.8460  223.1030 C   0  0  0  0  0  0  0  0  0  0  0  0
  139.1130   79.9970  223.5080 C   0  0  0  0  0  0  0  0  0  0  0  0
  140.5070   80.0630  223.4210 C   0  0  0  0  0  0  0  0  0  0  0  0
  141.1910   81.2140  223.8240 C   0  0  0  0  0  0  0  0  0  0  0  0
  142.5680   81.2370  223.7200 C   0  0  0  0  0  0  0  0  0  0  0  0
  143.2740   80.1370  223.2250 C   0  0  0  0  0  0  0  0  0  0  0  0
  142.5740   79.0170  222.8360 C   0  0  0  0  0  0  0  0  0  0  0  0
  141.1910   78.9680  222.9280 C   0  0  0  0  0  0  0  0  0  0  0  0
  140.5190   77.8570  222.5410 N   0  0  0  0  0  0  0  0  0  0  0  0
  140.2640   75.4100  222.1720 H   0  0  0  0  0  0  0  0  0  0  0  0
  137.5357   74.1148  221.8771 H   0  0  0  0  0  0  0  0  0  0  0  0
  138.6308   74.0105  220.4880 H   0  0  0  0  0  0  0  0  0  0  0  0
  137.3180   71.7313  220.8986 H   0  0  0  0  0  0  0  0  0  0  0  0
  138.5392   70.4591  220.8888 H   0  0  0  0  0  0  0  0  0  0  0  0
  135.9064   70.3422  222.0730 H   0  0  0  0  0  0  0  0  0  0  0  0
  137.1523   69.1065  222.2332 H   0  0  0  0  0  0  0  0  0  0  0  0
  136.4904   71.4428  224.0867 H   0  0  0  0  0  0  0  0  0  0  0  0
  136.9836   69.8303  224.5514 H   0  0  0  0  0  0  0  0  0  0  0  0
  138.8578   71.6838  224.6884 H   0  0  0  0  0  0  0  0  0  0  0  0
  139.0803   69.0581  223.3188 H   0  0  0  0  0  0  0  0  0  0  0  0
  140.4487   70.2029  223.1827 H   0  0  0  0  0  0  0  0  0  0  0  0
  139.6904   67.5097  225.0820 H   0  0  0  0  0  0  0  0  0  0  0  0
  140.3561   67.1249  227.4134 H   0  0  0  0  0  0  0  0  0  0  0  0
  141.0180   69.0162  228.8839 H   0  0  0  0  0  0  0  0  0  0  0  0
  140.3248   71.7028  225.6014 H   0  0  0  0  0  0  0  0  0  0  0  0
  137.3614   78.7932  223.1719 H   0  0  0  0  0  0  0  0  0  0  0  0
  138.5409   80.8530  223.8953 H   0  0  0  0  0  0  0  0  0  0  0  0
  140.6434   82.0837  224.2160 H   0  0  0  0  0  0  0  0  0  0  0  0
  143.1186   82.1367  224.0322 H   0  0  0  0  0  0  0  0  0  0  0  0
  144.3709   80.1656  223.1475 H   0  0  0  0  0  0  0  0  0  0  0  0
  143.1210   78.1462  222.4456 H   0  0  0  0  0  0  0  0  0  0  0  0
  1  2  2  0
  2  3  1  0
  3  4  1  0
  4  5  1  0
  5  6  2  0
  5  7  1  0
  7  8  1  0
  8  9  1  0
  9 10  1  0
 10 11  1  0
 11 12  1  0
 12 13  1  0
 13 14  2  0
 14 15  1  0
 15 16  2  0
 16 17  1  0
 17 18  1  0
 17 19  2  0
  2 20  1  0
 20 21  2  0
 21 22  1  0
 22 23  2  0
 23 24  1  0
 24 25  2  0
 25 26  1  0
 26 27  2  0
 27 28  1  0
 28 29  2  0
 11  7  1  0
 19 13  1  0
 29 20  1  0
 28 23  1  0
  3 30  1  0
  4 31  1  0
  4 32  1  0
  8 33  1  0
  8 34  1  0
  9 35  1  0
  9 36  1  0
 10 37  1  0
 10 38  1  0
 11 39  1  1
 12 40  1  0
 12 41  1  0
 14 42  1  0
 15 43  1  0
 16 44  1  0
 19 45  1  0
 21 46  1  0
 22 47  1  0
 24 48  1  0
 25 49  1  0
 26 50  1  0
 27 51  1  0
M  END
>  <smiles>  (77) 
O=C(NCC(=O)N1CCCC1Cc1cccc(Cl)c1)c1ccc2ccccc2n1

>  <score_type>  (77) 
oracle

>  <origin>  (77) 
autodockgpu

>  <m_score__min__energy>  (77) 
-9.2400000000000002

>  <m_primary>  (77) 
energy

>  <rmsd>  (77) 
8.389013057337518

>  <m_score__min__rmsd>  (77) 
8.389013057337518

>  <meeko>  (77) 
{"free_energy": -9.02, "intermolecular_energy": -10.81, "internal_energy": -2.01, "cluster_size": 10, "cluster_id": 2, "rank_in_cluster": 5}

>  <energy>  (77) 
-8.71

>  <cluster_rmsd>  (77) 
1.03

>  <cluster>  (77) 
2

$$$$

     RDKit          3D

 51 54  0  0  0  0  0  0  0  0999 V2000
  139.9450   71.1680  221.1570 O   0  0  0  0  0  0  0  0  0  0  0  0
  139.9140   71.8610  222.2060 C   0  0  0  0  0  0  0  0  0  0  0  0
  139.8550   73.2810  222.1840 N   0  0  0  0  0  0  0  0  0  0  0  0
  139.8260   74.0140  220.9340 C   0  0  0  0  0  0  0  0  0  0  0  0
  140.4780   75.3220  221.2080 C   0  0  0  0  0  0  0  0  0  0  0  0
  140.5230   75.8420  222.3380 O   0  0  0  0  0  0  0  0  0  0  0  0
  141.0860   76.0210  220.1150 N   0  0  0  0  0  0  0  0  0  0  0  0
  140.7690   75.8140  218.7110 C   0  0  0  0  0  0  0  0  0  0  0  0
  141.9840   76.3410  217.9540 C   0  0  0  0  0  0  0  0  0  0  0  0
  142.9920   76.6980  219.0420 C   0  0  0  0  0  0  0  0  0  0  0  0
  142.1180   77.0520  220.1970 C   0  0  1  0  0  0  0  0  0  0  0  0
  141.4870   78.4110  220.0270 C   0  0  0  0  0  0  0  0  0  0  0  0
  141.4660   79.0890  221.3440 C   0  0  0  0  0  0  0  0  0  0  0  0
  142.5760   79.4590  222.0470 C   0  0  0  0  0  0  0  0  0  0  0  0
  142.4800   80.0830  223.2740 C   0  0  0  0  0  0  0  0  0  0  0  0
  141.2560   80.3580  223.8450 C   0  0  0  0  0  0  0  0  0  0  0  0
  140.1200   79.9900  223.1500 C   0  0  0  0  0  0  0  0  0  0  0  0
  138.5260   80.3200  223.8340 Cl  0  0  0  0  0  0  0  0  0  0  0  0
  140.2260   79.3680  221.9230 C   0  0  0  0  0  0  0  0  0  0  0  0
  139.9400   71.1970  223.5140 C   0  0  0  0  0  0  0  0  0  0  0  0
  139.4810   69.9020  223.6460 C   0  0  0  0  0  0  0  0  0  0  0  0
  139.4990   69.2630  224.8740 C   0  0  0  0  0  0  0  0  0  0  0  0
  139.9900   69.9380  225.9950 C   0  0  0  0  0  0  0  0  0  0  0  0
  140.0190   69.3140  227.2460 C   0  0  0  0  0  0  0  0  0  0  0  0
  140.5110   70.0170  228.3260 C   0  0  0  0  0  0  0  0  0  0  0  0
  140.9750   71.3290  228.1840 C   0  0  0  0  0  0  0  0  0  0  0  0
  140.9350   71.9180  226.9420 C   0  0  0  0  0  0  0  0  0  0  0  0
  140.4450   71.2340  225.8390 C   0  0  0  0  0  0  0  0  0  0  0  0
  140.4130   71.8300  224.6230 N   0  0  0  0  0  0  0  0  0  0  0  0
  139.8310   73.8000  223.1090 H   0  0  0  0  0  0  0  0  0  0  0  0
  140.3801   73.4664  220.1574 H   0  0  0  0  0  0  0  0  0  0  0  0
  138.7966   74.1465  220.5695 H   0  0  0  0  0  0  0  0  0  0  0  0
  140.6163   74.7449  218.5020 H   0  0  0  0  0  0  0  0  0  0  0  0
  139.8418   76.3266  218.4153 H   0  0  0  0  0  0  0  0  0  0  0  0
  142.3911   75.5671  217.2866 H   0  0  0  0  0  0  0  0  0  0  0  0
  141.7362   77.2027  217.3167 H   0  0  0  0  0  0  0  0  0  0  0  0
  143.6373   75.8400  219.2815 H   0  0  0  0  0  0  0  0  0  0  0  0
  143.6792   77.5063  218.7514 H   0  0  0  0  0  0  0  0  0  0  0  0
  142.6629   77.0943  221.1516 H   0  0  0  0  0  0  0  0  0  0  0  0
  142.0751   79.0062  219.3129 H   0  0  0  0  0  0  0  0  0  0  0  0
  140.4620   78.3046  219.6421 H   0  0  0  0  0  0  0  0  0  0  0  0
  143.5712   79.2548  221.6252 H   0  0  0  0  0  0  0  0  0  0  0  0
  143.3992   80.3668  223.8074 H   0  0  0  0  0  0  0  0  0  0  0  0
  141.1858   80.8551  224.8238 H   0  0  0  0  0  0  0  0  0  0  0  0
  139.3089   79.0841  221.3861 H   0  0  0  0  0  0  0  0  0  0  0  0
  139.0957   69.3704  222.7634 H   0  0  0  0  0  0  0  0  0  0  0  0
  139.1294   68.2311  224.9668 H   0  0  0  0  0  0  0  0  0  0  0  0
  139.6565   68.2825  227.3665 H   0  0  0  0  0  0  0  0  0  0  0  0
  140.5390   69.5378  229.3157 H   0  0  0  0  0  0  0  0  0  0  0  0
  141.3656   71.8807  229.0518 H   0  0  0  0  0  0  0  0  0  0  0  0
  141.2978   72.9494  226.8210 H   0  0  0  0  0  0  0  0  0  0  0  0
  1  2  2  0
  2  3  1  0
  3  4  1  0
  4  5  1  0
  5  6  2  0
  5  7  1  0
  7  8  1  0
  8  9  1  0
  9 10  1  0
 10 11  1  0
 11 12  1  0
 12 13  1  0
 13 14  2  0
 14 15  1  0
 15 16  2  0
 16 17  1  0
 17 18  1  0
 17 19  2  0
  2 20  1  0
 20 21  2  0
 21 22  1  0
 22 23  2  0
 23 24  1  0
 24 25  2  0
 25 26  1  0
 26 27  2  0
 27 28  1  0
 28 29  2  0
 11  7  1  0
 19 13  1  0
 29 20  1  0
 28 23  1  0
  3 30  1  0
  4 31  1  0
  4 32  1  0
  8 33  1  0
  8 34  1  0
  9 35  1  0
  9 36  1  0
 10 37  1  0
 10 38  1  0
 11 39  1  1
 12 40  1  0
 12 41  1  0
 14 42  1  0
 15 43  1  0
 16 44  1  0
 19 45  1  0
 21 46  1  0
 22 47  1  0
 24 48  1  0
 25 49  1  0
 26 50  1  0
 27 51  1  0
M  END
>  <smiles>  (78) 
O=C(NCC(=O)N1CCCC1Cc1cccc(Cl)c1)c1ccc2ccccc2n1

>  <score_type>  (78) 
oracle

>  <origin>  (78) 
autodockgpu

>  <m_score__min__energy>  (78) 
-9.2400000000000002

>  <m_primary>  (78) 
energy

>  <rmsd>  (78) 
1.5479730707397987

>  <m_score__min__rmsd>  (78) 
1.5479730707397987

>  <meeko>  (78) 
{"free_energy": -8.95, "intermolecular_energy": -10.74, "internal_energy": -2.1, "cluster_size": 18, "cluster_id": 1, "rank_in_cluster": 12}

>  <energy>  (78) 
-8.06

>  <cluster_rmsd>  (78) 
1.69

>  <cluster>  (78) 
2

$$$$

     RDKit          3D

 51 54  0  0  0  0  0  0  0  0999 V2000
  137.1050   76.7270  222.1340 O   0  0  0  0  0  0  0  0  0  0  0  0
  138.3470   76.6450  222.3150 C   0  0  0  0  0  0  0  0  0  0  0  0
  139.0660   75.4290  222.1450 N   0  0  0  0  0  0  0  0  0  0  0  0
  138.3950   74.2070  221.7480 C   0  0  0  0  0  0  0  0  0  0  0  0
  139.3180   73.0970  222.1040 C   0  0  0  0  0  0  0  0  0  0  0  0
  140.4980   73.2730  222.4600 O   0  0  0  0  0  0  0  0  0  0  0  0
  138.8240   71.7540  222.0340 N   0  0  0  0  0  0  0  0  0  0  0  0
  138.5730   71.0190  220.8050 C   0  0  0  0  0  0  0  0  0  0  0  0
  137.5940   69.9180  221.2000 C   0  0  0  0  0  0  0  0  0  0  0  0
  137.2510   70.2100  222.6580 C   0  0  0  0  0  0  0  0  0  0  0  0
  138.4860   70.8820  223.1570 C   0  0  1  0  0  0  0  0  0  0  0  0
  139.6060   69.8990  223.3870 C   0  0  0  0  0  0  0  0  0  0  0  0
  139.8480   69.7930  224.8450 C   0  0  0  0  0  0  0  0  0  0  0  0
  139.5250   68.7110  225.6110 C   0  0  0  0  0  0  0  0  0  0  0  0
  139.7750   68.6860  226.9680 C   0  0  0  0  0  0  0  0  0  0  0  0
  140.3630   69.7560  227.6100 C   0  0  0  0  0  0  0  0  0  0  0  0
  140.6980   70.8610  226.8510 C   0  0  0  0  0  0  0  0  0  0  0  0
  141.4540   72.2580  227.6200 Cl  0  0  0  0  0  0  0  0  0  0  0  0
  140.4440   70.8770  225.4950 C   0  0  0  0  0  0  0  0  0  0  0  0
  139.1020   77.8350  222.7180 C   0  0  0  0  0  0  0  0  0  0  0  0
  138.4440   78.9310  223.2400 C   0  0  0  0  0  0  0  0  0  0  0  0
  139.1430   80.0630  223.6250 C   0  0  0  0  0  0  0  0  0  0  0  0
  140.5340   80.0950  223.4850 C   0  0  0  0  0  0  0  0  0  0  0  0
  141.2620   81.2260  223.8660 C   0  0  0  0  0  0  0  0  0  0  0  0
  142.6330   81.2150  223.7100 C   0  0  0  0  0  0  0  0  0  0  0  0
  143.2920   80.1000  223.1820 C   0  0  0  0  0  0  0  0  0  0  0  0
  142.5500   79.0010  222.8150 C   0  0  0  0  0  0  0  0  0  0  0  0
  141.1710   78.9860  222.9600 C   0  0  0  0  0  0  0  0  0  0  0  0
  140.4570   77.8940  222.5940 N   0  0  0  0  0  0  0  0  0  0  0  0
  140.1120   75.4340  222.3150 H   0  0  0  0  0  0  0  0  0  0  0  0
  137.4432   74.1007  222.2890 H   0  0  0  0  0  0  0  0  0  0  0  0
  138.1615   74.2071  220.6731 H   0  0  0  0  0  0  0  0  0  0  0  0
  138.1287   71.6774  220.0440 H   0  0  0  0  0  0  0  0  0  0  0  0
  139.4977   70.6141  220.3681 H   0  0  0  0  0  0  0  0  0  0  0  0
  136.6909   69.9587  220.5733 H   0  0  0  0  0  0  0  0  0  0  0  0
  138.0212   68.9132  221.0659 H   0  0  0  0  0  0  0  0  0  0  0  0
  136.3786   70.8756  222.7347 H   0  0  0  0  0  0  0  0  0  0  0  0
  136.9811   69.3110  223.2315 H   0  0  0  0  0  0  0  0  0  0  0  0
  138.3379   71.3940  224.1192 H   0  0  0  0  0  0  0  0  0  0  0  0
  139.3238   68.9146  222.9854 H   0  0  0  0  0  0  0  0  0  0  0  0
  140.5187   70.2424  222.8779 H   0  0  0  0  0  0  0  0  0  0  0  0
  139.0541   67.8379  225.1356 H   0  0  0  0  0  0  0  0  0  0  0  0
  139.4996   67.7941  227.5499 H   0  0  0  0  0  0  0  0  0  0  0  0
  140.5591   69.7304  228.6921 H   0  0  0  0  0  0  0  0  0  0  0  0
  140.7181   71.7671  224.9097 H   0  0  0  0  0  0  0  0  0  0  0  0
  137.3500   78.9047  223.3516 H   0  0  0  0  0  0  0  0  0  0  0  0
  138.6078   80.9307  224.0380 H   0  0  0  0  0  0  0  0  0  0  0  0
  140.7519   82.1074  224.2820 H   0  0  0  0  0  0  0  0  0  0  0  0
  143.2177   82.0984  224.0060 H   0  0  0  0  0  0  0  0  0  0  0  0
  144.3855   80.1017  223.0622 H   0  0  0  0  0  0  0  0  0  0  0  0
  143.0594   78.1191  222.3994 H   0  0  0  0  0  0  0  0  0  0  0  0
  1  2  2  0
  2  3  1  0
  3  4  1  0
  4  5  1  0
  5  6  2  0
  5  7  1  0
  7  8  1  0
  8  9  1  0
  9 10  1  0
 10 11  1  0
 11 12  1  0
 12 13  1  0
 13 14  2  0
 14 15  1  0
 15 16  2  0
 16 17  1  0
 17 18  1  0
 17 19  2  0
  2 20  1  0
 20 21  2  0
 21 22  1  0
 22 23  2  0
 23 24  1  0
 24 25  2  0
 25 26  1  0
 26 27  2  0
 27 28  1  0
 28 29  2  0
 11  7  1  0
 19 13  1  0
 29 20  1  0
 28 23  1  0
  3 30  1  0
  4 31  1  0
  4 32  1  0
  8 33  1  0
  8 34  1  0
  9 35  1  0
  9 36  1  0
 10 37  1  0
 10 38  1  0
 11 39  1  1
 12 40  1  0
 12 41  1  0
 14 42  1  0
 15 43  1  0
 16 44  1  0
 19 45  1  0
 21 46  1  0
 22 47  1  0
 24 48  1  0
 25 49  1  0
 26 50  1  0
 27 51  1  0
M  END
>  <smiles>  (79) 
O=C(NCC(=O)N1CCCC1Cc1cccc(Cl)c1)c1ccc2ccccc2n1

>  <score_type>  (79) 
oracle

>  <origin>  (79) 
autodockgpu

>  <m_score__min__energy>  (79) 
-9.2400000000000002

>  <m_primary>  (79) 
energy

>  <rmsd>  (79) 
8.304391664066841

>  <m_score__min__rmsd>  (79) 
8.304391664066841

>  <meeko>  (79) 
{"free_energy": -8.71, "intermolecular_energy": -10.5, "internal_energy": -2.15, "cluster_size": 10, "cluster_id": 2, "rank_in_cluster": 9}

>  <energy>  (79) 
-8.98

>  <cluster_rmsd>  (79) 
0.0

>  <cluster>  (79) 
3

$$$$

     RDKit          3D

 51 54  0  0  0  0  0  0  0  0999 V2000
  140.9990   74.4900  221.4140 O   0  0  0  0  0  0  0  0  0  0  0  0
  139.9670   74.9560  221.9630 C   0  0  0  0  0  0  0  0  0  0  0  0
  138.8200   74.1610  222.2340 N   0  0  0  0  0  0  0  0  0  0  0  0
  138.7800   72.7540  221.8900 C   0  0  0  0  0  0  0  0  0  0  0  0
  137.4230   72.2760  222.2650 C   0  0  0  0  0  0  0  0  0  0  0  0
  136.3900   72.9520  222.1070 O   0  0  0  0  0  0  0  0  0  0  0  0
  137.2970   70.9700  222.8410 N   0  0  0  0  0  0  0  0  0  0  0  0
  136.6410   69.8370  222.2090 C   0  0  0  0  0  0  0  0  0  0  0  0
  136.2910   68.8960  223.3570 C   0  0  0  0  0  0  0  0  0  0  0  0
  136.6750   69.6650  224.6170 C   0  0  0  0  0  0  0  0  0  0  0  0
  137.7920   70.5340  224.1450 C   0  0  1  0  0  0  0  0  0  0  0  0
  139.0710   69.7550  223.9640 C   0  0  0  0  0  0  0  0  0  0  0  0
  139.6340   69.4580  225.3010 C   0  0  0  0  0  0  0  0  0  0  0  0
  139.7870   68.2050  225.8210 C   0  0  0  0  0  0  0  0  0  0  0  0
  140.3150   68.0040  227.0790 C   0  0  0  0  0  0  0  0  0  0  0  0
  140.7120   69.0630  227.8690 C   0  0  0  0  0  0  0  0  0  0  0  0
  140.5650   70.3380  227.3610 C   0  0  0  0  0  0  0  0  0  0  0  0
  141.0570   71.7310  228.3290 Cl  0  0  0  0  0  0  0  0  0  0  0  0
  140.0360   70.5300  226.1010 C   0  0  0  0  0  0  0  0  0  0  0  0
  139.9250   76.3710  222.3430 C   0  0  0  0  0  0  0  0  0  0  0  0
  138.7140   77.0240  222.4590 C   0  0  0  0  0  0  0  0  0  0  0  0
  138.6580   78.3610  222.8170 C   0  0  0  0  0  0  0  0  0  0  0  0
  139.8450   79.0580  223.0660 C   0  0  0  0  0  0  0  0  0  0  0  0
  139.8140   80.4070  223.4300 C   0  0  0  0  0  0  0  0  0  0  0  0
  141.0090   81.0570  223.6650 C   0  0  0  0  0  0  0  0  0  0  0  0
  142.2310   80.3880  223.5470 C   0  0  0  0  0  0  0  0  0  0  0  0
  142.2310   79.0600  223.1880 C   0  0  0  0  0  0  0  0  0  0  0  0
  141.0450   78.3830  222.9440 C   0  0  0  0  0  0  0  0  0  0  0  0
  141.0640   77.0750  222.5920 N   0  0  0  0  0  0  0  0  0  0  0  0
  137.9850   74.6210  222.6990 H   0  0  0  0  0  0  0  0  0  0  0  0
  138.9473   72.6199  220.8111 H   0  0  0  0  0  0  0  0  0  0  0  0
  139.5643   72.1895  222.4156 H   0  0  0  0  0  0  0  0  0  0  0  0
  135.7309   70.1608  221.6828 H   0  0  0  0  0  0  0  0  0  0  0  0
  137.2826   69.3532  221.4578 H   0  0  0  0  0  0  0  0  0  0  0  0
  135.2154   68.6654  223.3557 H   0  0  0  0  0  0  0  0  0  0  0  0
  136.8159   67.9323  223.2807 H   0  0  0  0  0  0  0  0  0  0  0  0
  135.8322   70.2681  224.9857 H   0  0  0  0  0  0  0  0  0  0  0  0
  136.9552   69.0128  225.4573 H   0  0  0  0  0  0  0  0  0  0  0  0
  138.0343   71.3438  224.8489 H   0  0  0  0  0  0  0  0  0  0  0  0
  138.8608   68.8150  223.4328 H   0  0  0  0  0  0  0  0  0  0  0  0
  139.7900   70.3430  223.3746 H   0  0  0  0  0  0  0  0  0  0  0  0
  139.4817   67.3345  225.2219 H   0  0  0  0  0  0  0  0  0  0  0  0
  140.4218   66.9778  227.4605 H   0  0  0  0  0  0  0  0  0  0  0  0
  141.1323   68.8966  228.8718 H   0  0  0  0  0  0  0  0  0  0  0  0
  139.9280   71.5549  225.7163 H   0  0  0  0  0  0  0  0  0  0  0  0
  137.7809   76.4750  222.2645 H   0  0  0  0  0  0  0  0  0  0  0  0
  137.6873   78.8709  222.9048 H   0  0  0  0  0  0  0  0  0  0  0  0
  138.8567   80.9401  223.5273 H   0  0  0  0  0  0  0  0  0  0  0  0
  140.9996   82.1194  223.9499 H   0  0  0  0  0  0  0  0  0  0  0  0
  143.1774   80.9151  223.7382 H   0  0  0  0  0  0  0  0  0  0  0  0
  143.1878   78.5258  223.0928 H   0  0  0  0  0  0  0  0  0  0  0  0
  1  2  2  0
  2  3  1  0
  3  4  1  0
  4  5  1  0
  5  6  2  0
  5  7  1  0
  7  8  1  0
  8  9  1  0
  9 10  1  0
 10 11  1  0
 11 12  1  0
 12 13  1  0
 13 14  2  0
 14 15  1  0
 15 16  2  0
 16 17  1  0
 17 18  1  0
 17 19  2  0
  2 20  1  0
 20 21  2  0
 21 22  1  0
 22 23  2  0
 23 24  1  0
 24 25  2  0
 25 26  1  0
 26 27  2  0
 27 28  1  0
 28 29  2  0
 11  7  1  0
 19 13  1  0
 29 20  1  0
 28 23  1  0
  3 30  1  0
  4 31  1  0
  4 32  1  0
  8 33  1  0
  8 34  1  0
  9 35  1  0
  9 36  1  0
 10 37  1  0
 10 38  1  0
 11 39  1  1
 12 40  1  0
 12 41  1  0
 14 42  1  0
 15 43  1  0
 16 44  1  0
 19 45  1  0
 21 46  1  0
 22 47  1  0
 24 48  1  0
 25 49  1  0
 26 50  1  0
 27 51  1  0
M  END
>  <smiles>  (80) 
O=C(NCC(=O)N1CCCC1Cc1cccc(Cl)c1)c1ccc2ccccc2n1

>  <score_type>  (80) 
oracle

>  <origin>  (80) 
autodockgpu

>  <m_score__min__energy>  (80) 
-9.2400000000000002

>  <m_primary>  (80) 
energy

>  <rmsd>  (80) 
8.355252339293546

>  <m_score__min__rmsd>  (80) 
8.355252339293546

>  <meeko>  (80) 
{"free_energy": -8.87, "intermolecular_energy": -10.66, "internal_energy": -1.64, "cluster_size": 10, "cluster_id": 2, "rank_in_cluster": 6}

>  <energy>  (80) 
-8.98

>  <cluster_rmsd>  (80) 
0.03

>  <cluster>  (80) 
3

$$$$

     RDKit          3D

 51 54  0  0  0  0  0  0  0  0999 V2000
  140.8220   71.5510  221.2050 O   0  0  0  0  0  0  0  0  0  0  0  0
  140.3810   72.1490  222.2200 C   0  0  0  0  0  0  0  0  0  0  0  0
  140.0400   73.5290  222.2070 N   0  0  0  0  0  0  0  0  0  0  0  0
  140.1840   74.3280  221.0060 C   0  0  0  0  0  0  0  0  0  0  0  0
  140.6330   75.6720  221.4570 C   0  0  0  0  0  0  0  0  0  0  0  0
  140.5370   76.0680  222.6340 O   0  0  0  0  0  0  0  0  0  0  0  0
  141.2050   76.5590  220.4880 N   0  0  0  0  0  0  0  0  0  0  0  0
  141.3700   77.9930  220.6610 C   0  0  0  0  0  0  0  0  0  0  0  0
  141.4950   78.5470  219.2460 C   0  0  0  0  0  0  0  0  0  0  0  0
  141.2480   77.3460  218.3380 C   0  0  0  0  0  0  0  0  0  0  0  0
  141.7230   76.2020  219.1690 C   0  0  1  0  0  0  0  0  0  0  0  0
  143.2290   76.1340  219.2200 C   0  0  0  0  0  0  0  0  0  0  0  0
  143.6230   74.7940  219.7140 C   0  0  0  0  0  0  0  0  0  0  0  0
  142.9240   73.6440  219.4860 C   0  0  0  0  0  0  0  0  0  0  0  0
  143.3490   72.4290  219.9840 C   0  0  0  0  0  0  0  0  0  0  0  0
  144.5000   72.3240  220.7360 C   0  0  0  0  0  0  0  0  0  0  0  0
  145.2210   73.4770  220.9780 C   0  0  0  0  0  0  0  0  0  0  0  0
  146.7040   73.4020  221.9340 Cl  0  0  0  0  0  0  0  0  0  0  0  0
  144.7890   74.6880  220.4760 C   0  0  0  0  0  0  0  0  0  0  0  0
  140.2050   71.4130  223.4760 C   0  0  0  0  0  0  0  0  0  0  0  0
  139.5310   70.2080  223.4880 C   0  0  0  0  0  0  0  0  0  0  0  0
  139.3570   69.5020  224.6660 C   0  0  0  0  0  0  0  0  0  0  0  0
  139.8720   70.0160  225.8600 C   0  0  0  0  0  0  0  0  0  0  0  0
  139.7090   69.3220  227.0630 C   0  0  0  0  0  0  0  0  0  0  0  0
  140.2330   69.8660  228.2180 C   0  0  0  0  0  0  0  0  0  0  0  0
  140.9150   71.0870  228.1980 C   0  0  0  0  0  0  0  0  0  0  0  0
  141.0600   71.7480  227.0000 C   0  0  0  0  0  0  0  0  0  0  0  0
  140.5430   71.2240  225.8240 C   0  0  0  0  0  0  0  0  0  0  0  0
  140.6960   71.8890  224.6540 N   0  0  0  0  0  0  0  0  0  0  0  0
  139.6740   73.9680  223.1000 H   0  0  0  0  0  0  0  0  0  0  0  0
  140.9331   73.8798  220.3367 H   0  0  0  0  0  0  0  0  0  0  0  0
  139.2389   74.3866  220.4463 H   0  0  0  0  0  0  0  0  0  0  0  0
  140.4954   78.4246  221.1698 H   0  0  0  0  0  0  0  0  0  0  0  0
  142.2457   78.2374  221.2802 H   0  0  0  0  0  0  0  0  0  0  0  0
  140.7428   79.3296  219.0677 H   0  0  0  0  0  0  0  0  0  0  0  0
  142.4758   79.0112  219.0654 H   0  0  0  0  0  0  0  0  0  0  0  0
  140.1796   77.2443  218.0970 H   0  0  0  0  0  0  0  0  0  0  0  0
  141.7590   77.4212  217.3668 H   0  0  0  0  0  0  0  0  0  0  0  0
  141.3939   75.2250  218.7855 H   0  0  0  0  0  0  0  0  0  0  0  0
  143.6419   76.2944  218.2131 H   0  0  0  0  0  0  0  0  0  0  0  0
  143.6187   76.9128  219.8920 H   0  0  0  0  0  0  0  0  0  0  0  0
  141.9998   73.6866  218.8910 H   0  0  0  0  0  0  0  0  0  0  0  0
  142.7570   71.5253  219.7766 H   0  0  0  0  0  0  0  0  0  0  0  0
  144.8334   71.3529  221.1306 H   0  0  0  0  0  0  0  0  0  0  0  0
  145.3785   75.5937  220.6814 H   0  0  0  0  0  0  0  0  0  0  0  0
  139.1267   69.8034  222.5484 H   0  0  0  0  0  0  0  0  0  0  0  0
  138.8174   68.5434  224.6627 H   0  0  0  0  0  0  0  0  0  0  0  0
  139.1737   68.3614  227.0882 H   0  0  0  0  0  0  0  0  0  0  0  0
  140.1122   69.3300  229.1710 H   0  0  0  0  0  0  0  0  0  0  0  0
  141.3285   71.5117  229.1246 H   0  0  0  0  0  0  0  0  0  0  0  0
  141.5952   72.7087  226.9742 H   0  0  0  0  0  0  0  0  0  0  0  0
  1  2  2  0
  2  3  1  0
  3  4  1  0
  4  5  1  0
  5  6  2  0
  5  7  1  0
  7  8  1  0
  8  9  1  0
  9 10  1  0
 10 11  1  0
 11 12  1  0
 12 13  1  0
 13 14  2  0
 14 15  1  0
 15 16  2  0
 16 17  1  0
 17 18  1  0
 17 19  2  0
  2 20  1  0
 20 21  2  0
 21 22  1  0
 22 23  2  0
 23 24  1  0
 24 25  2  0
 25 26  1  0
 26 27  2  0
 27 28  1  0
 28 29  2  0
 11  7  1  0
 19 13  1  0
 29 20  1  0
 28 23  1  0
  3 30  1  0
  4 31  1  0
  4 32  1  0
  8 33  1  0
  8 34  1  0
  9 35  1  0
  9 36  1  0
 10 37  1  0
 10 38  1  0
 11 39  1  6
 12 40  1  0
 12 41  1  0
 14 42  1  0
 15 43  1  0
 16 44  1  0
 19 45  1  0
 21 46  1  0
 22 47  1  0
 24 48  1  0
 25 49  1  0
 26 50  1  0
 27 51  1  0
M  END
>  <smiles>  (81) 
O=C(NCC(=O)N1CCCC1Cc1cccc(Cl)c1)c1ccc2ccccc2n1

>  <score_type>  (81) 
oracle

>  <origin>  (81) 
autodockgpu

>  <m_score__min__energy>  (81) 
-9.2400000000000002

>  <m_primary>  (81) 
energy

>  <rmsd>  (81) 
2.1924469246932445

>  <m_score__min__rmsd>  (81) 
2.1924469246932445

>  <meeko>  (81) 
{"free_energy": -8.98, "intermolecular_energy": -10.77, "internal_energy": -2.33, "cluster_size": 18, "cluster_id": 3, "rank_in_cluster": 1}

>  <energy>  (81) 
-8.96

>  <cluster_rmsd>  (81) 
0.23

>  <cluster>  (81) 
3

$$$$

     RDKit          3D

 51 54  0  0  0  0  0  0  0  0999 V2000
  141.0970   71.3680  221.3340 O   0  0  0  0  0  0  0  0  0  0  0  0
  140.6060   71.9980  222.3050 C   0  0  0  0  0  0  0  0  0  0  0  0
  140.3010   73.3860  222.2420 N   0  0  0  0  0  0  0  0  0  0  0  0
  140.5440   74.1550  221.0370 C   0  0  0  0  0  0  0  0  0  0  0  0
  140.7330   75.5620  221.4790 C   0  0  0  0  0  0  0  0  0  0  0  0
  140.3150   76.0020  222.5660 O   0  0  0  0  0  0  0  0  0  0  0  0
  141.4310   76.4600  220.6080 N   0  0  0  0  0  0  0  0  0  0  0  0
  141.5070   77.9020  220.7800 C   0  0  0  0  0  0  0  0  0  0  0  0
  141.8550   78.4440  219.3980 C   0  0  0  0  0  0  0  0  0  0  0  0
  141.8170   77.2230  218.4830 C   0  0  0  0  0  0  0  0  0  0  0  0
  142.1840   76.1100  219.4060 C   0  0  1  0  0  0  0  0  0  0  0  0
  143.6600   76.1050  219.7200 C   0  0  0  0  0  0  0  0  0  0  0  0
  144.0790   74.7100  219.9890 C   0  0  0  0  0  0  0  0  0  0  0  0
  145.1190   74.3510  220.7960 C   0  0  0  0  0  0  0  0  0  0  0  0
  145.4570   73.0290  220.9960 C   0  0  0  0  0  0  0  0  0  0  0  0
  144.7560   72.0090  220.3870 C   0  0  0  0  0  0  0  0  0  0  0  0
  143.7000   72.3510  219.5660 C   0  0  0  0  0  0  0  0  0  0  0  0
  142.7670   71.0860  218.7610 Cl  0  0  0  0  0  0  0  0  0  0  0  0
  143.3690   73.6770  219.3720 C   0  0  0  0  0  0  0  0  0  0  0  0
  140.3300   71.2940  223.5610 C   0  0  0  0  0  0  0  0  0  0  0  0
  139.6720   70.0810  223.5480 C   0  0  0  0  0  0  0  0  0  0  0  0
  139.4040   69.4040  224.7260 C   0  0  0  0  0  0  0  0  0  0  0  0
  139.8070   69.9570  225.9460 C   0  0  0  0  0  0  0  0  0  0  0  0
  139.5490   69.2930  227.1480 C   0  0  0  0  0  0  0  0  0  0  0  0
  139.9640   69.8760  228.3290 C   0  0  0  0  0  0  0  0  0  0  0  0
  140.6310   71.1040  228.3340 C   0  0  0  0  0  0  0  0  0  0  0  0
  140.8720   71.7350  227.1350 C   0  0  0  0  0  0  0  0  0  0  0  0
  140.4650   71.1730  225.9340 C   0  0  0  0  0  0  0  0  0  0  0  0
  140.7120   71.8080  224.7630 N   0  0  0  0  0  0  0  0  0  0  0  0
  139.8890   73.8520  223.1000 H   0  0  0  0  0  0  0  0  0  0  0  0
  141.4476   73.7902  220.5267 H   0  0  0  0  0  0  0  0  0  0  0  0
  139.7090   74.0649  220.3266 H   0  0  0  0  0  0  0  0  0  0  0  0
  140.5409   78.3026  221.1208 H   0  0  0  0  0  0  0  0  0  0  0  0
  142.2510   78.1901  221.5373 H   0  0  0  0  0  0  0  0  0  0  0  0
  141.1155   79.1925  219.0772 H   0  0  0  0  0  0  0  0  0  0  0  0
  142.8335   78.9463  219.3819 H   0  0  0  0  0  0  0  0  0  0  0  0
  140.8118   77.0740  218.0619 H   0  0  0  0  0  0  0  0  0  0  0  0
  142.4859   77.3079  217.6139 H   0  0  0  0  0  0  0  0  0  0  0  0
  141.9648   75.1160  218.9890 H   0  0  0  0  0  0  0  0  0  0  0  0
  144.2230   76.5027  218.8627 H   0  0  0  0  0  0  0  0  0  0  0  0
  143.8602   76.7347  220.5994 H   0  0  0  0  0  0  0  0  0  0  0  0
  145.7025   75.1357  221.2997 H   0  0  0  0  0  0  0  0  0  0  0  0
  146.3029   72.7829  221.6547 H   0  0  0  0  0  0  0  0  0  0  0  0
  145.0297   70.9562  220.5503 H   0  0  0  0  0  0  0  0  0  0  0  0
  142.5237   73.9270  218.7140 H   0  0  0  0  0  0  0  0  0  0  0  0
  139.3559   69.6458  222.5885 H   0  0  0  0  0  0  0  0  0  0  0  0
  138.8780   68.4382  224.7025 H   0  0  0  0  0  0  0  0  0  0  0  0
  139.0258   68.3254  227.1534 H   0  0  0  0  0  0  0  0  0  0  0  0
  139.7661   69.3648  229.2827 H   0  0  0  0  0  0  0  0  0  0  0  0
  140.9580   71.5587  229.2807 H   0  0  0  0  0  0  0  0  0  0  0  0
  141.3965   72.7019  227.1290 H   0  0  0  0  0  0  0  0  0  0  0  0
  1  2  2  0
  2  3  1  0
  3  4  1  0
  4  5  1  0
  5  6  2  0
  5  7  1  0
  7  8  1  0
  8  9  1  0
  9 10  1  0
 10 11  1  0
 11 12  1  0
 12 13  1  0
 13 14  2  0
 14 15  1  0
 15 16  2  0
 16 17  1  0
 17 18  1  0
 17 19  2  0
  2 20  1  0
 20 21  2  0
 21 22  1  0
 22 23  2  0
 23 24  1  0
 24 25  2  0
 25 26  1  0
 26 27  2  0
 27 28  1  0
 28 29  2  0
 11  7  1  0
 19 13  1  0
 29 20  1  0
 28 23  1  0
  3 30  1  0
  4 31  1  0
  4 32  1  0
  8 33  1  0
  8 34  1  0
  9 35  1  0
  9 36  1  0
 10 37  1  0
 10 38  1  0
 11 39  1  6
 12 40  1  0
 12 41  1  0
 14 42  1  0
 15 43  1  0
 16 44  1  0
 19 45  1  0
 21 46  1  0
 22 47  1  0
 24 48  1  0
 25 49  1  0
 26 50  1  0
 27 51  1  0
M  END
>  <smiles>  (82) 
O=C(NCC(=O)N1CCCC1Cc1cccc(Cl)c1)c1ccc2ccccc2n1

>  <score_type>  (82) 
oracle

>  <origin>  (82) 
autodockgpu

>  <m_score__min__energy>  (82) 
-9.2400000000000002

>  <m_primary>  (82) 
energy

>  <rmsd>  (82) 
2.2860263089206776

>  <m_score__min__rmsd>  (82) 
2.2860263089206776

>  <meeko>  (82) 
{"free_energy": -8.52, "intermolecular_energy": -10.31, "internal_energy": -2.49, "cluster_size": 18, "cluster_id": 3, "rank_in_cluster": 13}

>  <energy>  (82) 
-8.95

>  <cluster_rmsd>  (82) 
0.06

>  <cluster>  (82) 
3

$$$$

     RDKit          3D

 51 54  0  0  0  0  0  0  0  0999 V2000
  141.1670   74.7960  221.3360 O   0  0  0  0  0  0  0  0  0  0  0  0
  140.1240   75.1430  221.9460 C   0  0  0  0  0  0  0  0  0  0  0  0
  139.0690   74.2350  222.2360 N   0  0  0  0  0  0  0  0  0  0  0  0
  139.1430   72.8430  221.8390 C   0  0  0  0  0  0  0  0  0  0  0  0
  137.9120   72.1980  222.3670 C   0  0  0  0  0  0  0  0  0  0  0  0
  136.9170   72.8360  222.7580 O   0  0  0  0  0  0  0  0  0  0  0  0
  137.8680   70.7670  222.4300 N   0  0  0  0  0  0  0  0  0  0  0  0
  137.7360   69.8830  221.2830 C   0  0  0  0  0  0  0  0  0  0  0  0
  137.2070   68.5730  221.8570 C   0  0  0  0  0  0  0  0  0  0  0  0
  136.9450   68.8740  223.3290 C   0  0  0  0  0  0  0  0  0  0  0  0
  137.9460   69.9380  223.6310 C   0  0  1  0  0  0  0  0  0  0  0  0
  139.3390   69.3760  223.7660 C   0  0  0  0  0  0  0  0  0  0  0  0
  139.6650   69.2680  225.2070 C   0  0  0  0  0  0  0  0  0  0  0  0
  139.5580   68.1260  225.9470 C   0  0  0  0  0  0  0  0  0  0  0  0
  139.8740   68.1020  227.2890 C   0  0  0  0  0  0  0  0  0  0  0  0
  140.3120   69.2340  227.9440 C   0  0  0  0  0  0  0  0  0  0  0  0
  140.4270   70.4000  227.2130 C   0  0  0  0  0  0  0  0  0  0  0  0
  140.9850   71.8790  228.0010 Cl  0  0  0  0  0  0  0  0  0  0  0  0
  140.1090   70.4140  225.8710 C   0  0  0  0  0  0  0  0  0  0  0  0
  139.9690   76.5340  222.3830 C   0  0  0  0  0  0  0  0  0  0  0  0
  141.0810   77.3060  222.6540 C   0  0  0  0  0  0  0  0  0  0  0  0
  140.9510   78.6210  223.0680 C   0  0  0  0  0  0  0  0  0  0  0  0
  139.6750   79.1740  223.2130 C   0  0  0  0  0  0  0  0  0  0  0  0
  139.5180   80.4990  223.6300 C   0  0  0  0  0  0  0  0  0  0  0  0
  138.2400   81.0050  223.7600 C   0  0  0  0  0  0  0  0  0  0  0  0
  137.1190   80.2170  223.4840 C   0  0  0  0  0  0  0  0  0  0  0  0
  137.3040   78.9170  223.0760 C   0  0  0  0  0  0  0  0  0  0  0  0
  138.5760   78.3830  222.9370 C   0  0  0  0  0  0  0  0  0  0  0  0
  138.7390   77.1000  222.5330 N   0  0  0  0  0  0  0  0  0  0  0  0
  138.2180   74.5980  222.7550 H   0  0  0  0  0  0  0  0  0  0  0  0
  139.1774   72.7599  220.7427 H   0  0  0  0  0  0  0  0  0  0  0  0
  140.0500   72.3605  222.2322 H   0  0  0  0  0  0  0  0  0  0  0  0
  137.0270   70.2999  220.5525 H   0  0  0  0  0  0  0  0  0  0  0  0
  138.6899   69.7476  220.7522 H   0  0  0  0  0  0  0  0  0  0  0  0
  136.2772   68.2748  221.3504 H   0  0  0  0  0  0  0  0  0  0  0  0
  137.9156   67.7426  221.7214 H   0  0  0  0  0  0  0  0  0  0  0  0
  135.9191   69.2400  223.4822 H   0  0  0  0  0  0  0  0  0  0  0  0
  137.0386   67.9907  223.9779 H   0  0  0  0  0  0  0  0  0  0  0  0
  137.7444   70.4627  224.5766 H   0  0  0  0  0  0  0  0  0  0  0  0
  139.3843   68.3807  223.2998 H   0  0  0  0  0  0  0  0  0  0  0  0
  140.0619   70.0363  223.2646 H   0  0  0  0  0  0  0  0  0  0  0  0
  139.2112   67.2022  225.4609 H   0  0  0  0  0  0  0  0  0  0  0  0
  139.7747   67.1604  227.8489 H   0  0  0  0  0  0  0  0  0  0  0  0
  140.5619   69.2089  229.0150 H   0  0  0  0  0  0  0  0  0  0  0  0
  140.2077   71.3538  225.3079 H   0  0  0  0  0  0  0  0  0  0  0  0
  142.0845   76.8703  222.5395 H   0  0  0  0  0  0  0  0  0  0  0  0
  141.8447   79.2259  223.2811 H   0  0  0  0  0  0  0  0  0  0  0  0
  140.3948   81.1257  223.8501 H   0  0  0  0  0  0  0  0  0  0  0  0
  138.1016   82.0463  224.0864 H   0  0  0  0  0  0  0  0  0  0  0  0
  136.1052   80.6302  223.5914 H   0  0  0  0  0  0  0  0  0  0  0  0
  136.4276   78.2897  222.8561 H   0  0  0  0  0  0  0  0  0  0  0  0
  1  2  2  0
  2  3  1  0
  3  4  1  0
  4  5  1  0
  5  6  2  0
  5  7  1  0
  7  8  1  0
  8  9  1  0
  9 10  1  0
 10 11  1  0
 11 12  1  0
 12 13  1  0
 13 14  2  0
 14 15  1  0
 15 16  2  0
 16 17  1  0
 17 18  1  0
 17 19  2  0
  2 20  1  0
 20 21  2  0
 21 22  1  0
 22 23  2  0
 23 24  1  0
 24 25  2  0
 25 26  1  0
 26 27  2  0
 27 28  1  0
 28 29  2  0
 11  7  1  0
 19 13  1  0
 29 20  1  0
 28 23  1  0
  3 30  1  0
  4 31  1  0
  4 32  1  0
  8 33  1  0
  8 34  1  0
  9 35  1  0
  9 36  1  0
 10 37  1  0
 10 38  1  0
 11 39  1  1
 12 40  1  0
 12 41  1  0
 14 42  1  0
 15 43  1  0
 16 44  1  0
 19 45  1  0
 21 46  1  0
 22 47  1  0
 24 48  1  0
 25 49  1  0
 26 50  1  0
 27 51  1  0
M  END
>  <smiles>  (83) 
O=C(NCC(=O)N1CCCC1Cc1cccc(Cl)c1)c1ccc2ccccc2n1

>  <score_type>  (83) 
oracle

>  <origin>  (83) 
autodockgpu

>  <m_score__min__energy>  (83) 
-9.2400000000000002

>  <m_primary>  (83) 
energy

>  <rmsd>  (83) 
8.418735127148464

>  <m_score__min__rmsd>  (83) 
8.418735127148464

>  <meeko>  (83) 
{"free_energy": -8.06, "intermolecular_energy": -9.85, "internal_energy": -2.08, "cluster_size": 10, "cluster_id": 2, "rank_in_cluster": 10}

>  <energy>  (83) 
-8.91

>  <cluster_rmsd>  (83) 
0.29

>  <cluster>  (83) 
3

$$$$

     RDKit          3D

 51 54  0  0  0  0  0  0  0  0999 V2000
  138.5060   70.6860  221.6630 O   0  0  0  0  0  0  0  0  0  0  0  0
  138.9990   71.2540  222.6710 C   0  0  0  0  0  0  0  0  0  0  0  0
  139.2830   72.6470  222.7010 N   0  0  0  0  0  0  0  0  0  0  0  0
  139.0150   73.4950  221.5570 C   0  0  0  0  0  0  0  0  0  0  0  0
  139.4690   74.8590  221.9390 C   0  0  0  0  0  0  0  0  0  0  0  0
  140.6640   75.1590  222.1160 O   0  0  0  0  0  0  0  0  0  0  0  0
  138.4800   75.8800  222.1150 N   0  0  0  0  0  0  0  0  0  0  0  0
  137.1600   75.6760  222.6880 C   0  0  0  0  0  0  0  0  0  0  0  0
  136.3270   76.8500  222.1840 C   0  0  0  0  0  0  0  0  0  0  0  0
  137.2460   77.5870  221.2140 C   0  0  0  0  0  0  0  0  0  0  0  0
  138.6030   77.2920  221.7600 C   0  0  1  0  0  0  0  0  0  0  0  0
  138.8970   78.1000  222.9990 C   0  0  0  0  0  0  0  0  0  0  0  0
  140.1580   78.8470  222.7860 C   0  0  0  0  0  0  0  0  0  0  0  0
  141.0990   79.0770  223.7480 C   0  0  0  0  0  0  0  0  0  0  0  0
  142.2500   79.7880  223.4790 C   0  0  0  0  0  0  0  0  0  0  0  0
  142.5000   80.2990  222.2220 C   0  0  0  0  0  0  0  0  0  0  0  0
  141.5600   80.0780  221.2350 C   0  0  0  0  0  0  0  0  0  0  0  0
  141.8300   80.7090  219.6080 Cl  0  0  0  0  0  0  0  0  0  0  0  0
  140.4120   79.3650  221.5140 C   0  0  0  0  0  0  0  0  0  0  0  0
  139.3010   70.4680  223.8710 C   0  0  0  0  0  0  0  0  0  0  0  0
  138.9960   69.1220  223.9160 C   0  0  0  0  0  0  0  0  0  0  0  0
  139.2750   68.3670  225.0420 C   0  0  0  0  0  0  0  0  0  0  0  0
  139.8740   68.9760  226.1500 C   0  0  0  0  0  0  0  0  0  0  0  0
  140.1650   68.2340  227.2980 C   0  0  0  0  0  0  0  0  0  0  0  0
  140.7550   68.8760  228.3680 C   0  0  0  0  0  0  0  0  0  0  0  0
  141.0610   70.2390  228.3150 C   0  0  0  0  0  0  0  0  0  0  0  0
  140.7640   70.9430  227.1720 C   0  0  0  0  0  0  0  0  0  0  0  0
  140.1690   70.3240  226.0820 C   0  0  0  0  0  0  0  0  0  0  0  0
  139.8840   71.0340  224.9640 N   0  0  0  0  0  0  0  0  0  0  0  0
  139.6990   73.0590  223.5860 H   0  0  0  0  0  0  0  0  0  0  0  0
  139.5733   73.1389  220.6787 H   0  0  0  0  0  0  0  0  0  0  0  0
  137.9475   73.4864  221.2918 H   0  0  0  0  0  0  0  0  0  0  0  0
  136.7323   74.7225  222.3446 H   0  0  0  0  0  0  0  0  0  0  0  0
  137.1884   75.6302  223.7867 H   0  0  0  0  0  0  0  0  0  0  0  0
  135.4243   76.4920  221.6674 H   0  0  0  0  0  0  0  0  0  0  0  0
  135.9805   77.4972  223.0032 H   0  0  0  0  0  0  0  0  0  0  0  0
  137.1368   77.1980  220.1909 H   0  0  0  0  0  0  0  0  0  0  0  0
  137.0297   78.6630  221.1397 H   0  0  0  0  0  0  0  0  0  0  0  0
  139.4117   77.5278  221.0526 H   0  0  0  0  0  0  0  0  0  0  0  0
  138.0745   78.8063  223.1850 H   0  0  0  0  0  0  0  0  0  0  0  0
  138.9967   77.4333  223.8683 H   0  0  0  0  0  0  0  0  0  0  0  0
  140.9352   78.6856  224.7629 H   0  0  0  0  0  0  0  0  0  0  0  0
  142.9832   79.9508  224.2827 H   0  0  0  0  0  0  0  0  0  0  0  0
  143.4197   80.8650  222.0126 H   0  0  0  0  0  0  0  0  0  0  0  0
  139.6767   79.2000  220.7127 H   0  0  0  0  0  0  0  0  0  0  0  0
  138.5248   68.6432  223.0450 H   0  0  0  0  0  0  0  0  0  0  0  0
  139.0274   67.2955  225.0656 H   0  0  0  0  0  0  0  0  0  0  0  0
  139.9288   67.1608  227.3478 H   0  0  0  0  0  0  0  0  0  0  0  0
  140.9886   68.3049  229.2787 H   0  0  0  0  0  0  0  0  0  0  0  0
  141.5317   70.7401  229.1737 H   0  0  0  0  0  0  0  0  0  0  0  0
  141.0022   72.0157  227.1207 H   0  0  0  0  0  0  0  0  0  0  0  0
  1  2  2  0
  2  3  1  0
  3  4  1  0
  4  5  1  0
  5  6  2  0
  5  7  1  0
  7  8  1  0
  8  9  1  0
  9 10  1  0
 10 11  1  0
 11 12  1  0
 12 13  1  0
 13 14  2  0
 14 15  1  0
 15 16  2  0
 16 17  1  0
 17 18  1  0
 17 19  2  0
  2 20  1  0
 20 21  2  0
 21 22  1  0
 22 23  2  0
 23 24  1  0
 24 25  2  0
 25 26  1  0
 26 27  2  0
 27 28  1  0
 28 29  2  0
 11  7  1  0
 19 13  1  0
 29 20  1  0
 28 23  1  0
  3 30  1  0
  4 31  1  0
  4 32  1  0
  8 33  1  0
  8 34  1  0
  9 35  1  0
  9 36  1  0
 10 37  1  0
 10 38  1  0
 11 39  1  6
 12 40  1  0
 12 41  1  0
 14 42  1  0
 15 43  1  0
 16 44  1  0
 19 45  1  0
 21 46  1  0
 22 47  1  0
 24 48  1  0
 25 49  1  0
 26 50  1  0
 27 51  1  0
M  END
>  <smiles>  (84) 
O=C(NCC(=O)N1CCCC1Cc1cccc(Cl)c1)c1ccc2ccccc2n1

>  <score_type>  (84) 
oracle

>  <origin>  (84) 
autodockgpu

>  <m_score__min__energy>  (84) 
-9.2400000000000002

>  <m_primary>  (84) 
energy

>  <rmsd>  (84) 
2.73966838591891

>  <m_score__min__rmsd>  (84) 
2.73966838591891

>  <meeko>  (84) 
{"free_energy": -8.68, "intermolecular_energy": -10.47, "internal_energy": -1.75, "cluster_size": 2, "cluster_id": 4, "rank_in_cluster": 2}

>  <energy>  (84) 
-8.89

>  <cluster_rmsd>  (84) 
0.1

>  <cluster>  (84) 
3

$$$$

     RDKit          3D

 51 54  0  0  0  0  0  0  0  0999 V2000
  140.4190   71.2000  221.1830 O   0  0  0  0  0  0  0  0  0  0  0  0
  140.2000   71.8770  222.2200 C   0  0  0  0  0  0  0  0  0  0  0  0
  140.0690   73.2930  222.1960 N   0  0  0  0  0  0  0  0  0  0  0  0
  140.1820   74.0380  220.9590 C   0  0  0  0  0  0  0  0  0  0  0  0
  140.5280   75.4310  221.3470 C   0  0  0  0  0  0  0  0  0  0  0  0
  140.0870   75.9870  222.3690 O   0  0  0  0  0  0  0  0  0  0  0  0
  141.4140   76.1730  220.5000 N   0  0  0  0  0  0  0  0  0  0  0  0
  141.5480   77.6210  220.4950 C   0  0  0  0  0  0  0  0  0  0  0  0
  142.1530   77.9540  219.1350 C   0  0  0  0  0  0  0  0  0  0  0  0
  142.1910   76.6210  218.3930 C   0  0  0  0  0  0  0  0  0  0  0  0
  142.3320   75.6320  219.5000 C   0  0  1  0  0  0  0  0  0  0  0  0
  143.7320   75.6130  220.0600 C   0  0  0  0  0  0  0  0  0  0  0  0
  144.2510   74.2280  219.9840 C   0  0  0  0  0  0  0  0  0  0  0  0
  145.5350   73.8600  220.2660 C   0  0  0  0  0  0  0  0  0  0  0  0
  145.9500   72.5480  220.1670 C   0  0  0  0  0  0  0  0  0  0  0  0
  145.0820   71.5480  219.7780 C   0  0  0  0  0  0  0  0  0  0  0  0
  143.7790   71.9000  219.4890 C   0  0  0  0  0  0  0  0  0  0  0  0
  142.6250   70.6600  218.9880 Cl  0  0  0  0  0  0  0  0  0  0  0  0
  143.3730   73.2150  219.5910 C   0  0  0  0  0  0  0  0  0  0  0  0
  140.0720   71.2000  223.5150 C   0  0  0  0  0  0  0  0  0  0  0  0
  139.5480   69.9250  223.5840 C   0  0  0  0  0  0  0  0  0  0  0  0
  139.4210   69.2730  224.7990 C   0  0  0  0  0  0  0  0  0  0  0  0
  139.8300   69.9150  225.9720 C   0  0  0  0  0  0  0  0  0  0  0  0
  139.7120   69.2780  227.2100 C   0  0  0  0  0  0  0  0  0  0  0  0
  140.1280   69.9480  228.3420 C   0  0  0  0  0  0  0  0  0  0  0  0
  140.6580   71.2390  228.2640 C   0  0  0  0  0  0  0  0  0  0  0  0
  140.7630   71.8420  227.0320 C   0  0  0  0  0  0  0  0  0  0  0  0
  140.3520   71.1920  225.8780 C   0  0  0  0  0  0  0  0  0  0  0  0
  140.4630   71.8010  224.6730 N   0  0  0  0  0  0  0  0  0  0  0  0
  139.8850   73.7990  223.1100 H   0  0  0  0  0  0  0  0  0  0  0  0
  140.9737   73.6100  220.3265 H   0  0  0  0  0  0  0  0  0  0  0  0
  139.2466   74.0022  220.3813 H   0  0  0  0  0  0  0  0  0  0  0  0
  140.5649   78.1011  220.6094 H   0  0  0  0  0  0  0  0  0  0  0  0
  142.1721   77.9822  221.3257 H   0  0  0  0  0  0  0  0  0  0  0  0
  141.5246   78.6796  218.5977 H   0  0  0  0  0  0  0  0  0  0  0  0
  143.1498   78.4108  219.2227 H   0  0  0  0  0  0  0  0  0  0  0  0
  141.2614   76.4547  217.8288 H   0  0  0  0  0  0  0  0  0  0  0  0
  142.9980   76.5596  217.6481 H   0  0  0  0  0  0  0  0  0  0  0  0
  142.1240   74.5994  219.1831 H   0  0  0  0  0  0  0  0  0  0  0  0
  144.3759   76.2831  219.4715 H   0  0  0  0  0  0  0  0  0  0  0  0
  143.7239   75.9551  221.1054 H   0  0  0  0  0  0  0  0  0  0  0  0
  146.2566   74.6286  220.5800 H   0  0  0  0  0  0  0  0  0  0  0  0
  146.9939   72.2938  220.4029 H   0  0  0  0  0  0  0  0  0  0  0  0
  145.4180   70.5034  219.7007 H   0  0  0  0  0  0  0  0  0  0  0  0
  142.3296   73.4725  219.3565 H   0  0  0  0  0  0  0  0  0  0  0  0
  139.2269   69.4198  222.6611 H   0  0  0  0  0  0  0  0  0  0  0  0
  139.0013   68.2571  224.8411 H   0  0  0  0  0  0  0  0  0  0  0  0
  139.2956   68.2623  227.2807 H   0  0  0  0  0  0  0  0  0  0  0  0
  140.0411   69.4577  229.3229 H   0  0  0  0  0  0  0  0  0  0  0  0
  140.9859   71.7644  229.1731 H   0  0  0  0  0  0  0  0  0  0  0  0
  141.1802   72.8573  226.9610 H   0  0  0  0  0  0  0  0  0  0  0  0
  1  2  2  0
  2  3  1  0
  3  4  1  0
  4  5  1  0
  5  6  2  0
  5  7  1  0
  7  8  1  0
  8  9  1  0
  9 10  1  0
 10 11  1  0
 11 12  1  0
 12 13  1  0
 13 14  2  0
 14 15  1  0
 15 16  2  0
 16 17  1  0
 17 18  1  0
 17 19  2  0
  2 20  1  0
 20 21  2  0
 21 22  1  0
 22 23  2  0
 23 24  1  0
 24 25  2  0
 25 26  1  0
 26 27  2  0
 27 28  1  0
 28 29  2  0
 11  7  1  0
 19 13  1  0
 29 20  1  0
 28 23  1  0
  3 30  1  0
  4 31  1  0
  4 32  1  0
  8 33  1  0
  8 34  1  0
  9 35  1  0
  9 36  1  0
 10 37  1  0
 10 38  1  0
 11 39  1  6
 12 40  1  0
 12 41  1  0
 14 42  1  0
 15 43  1  0
 16 44  1  0
 19 45  1  0
 21 46  1  0
 22 47  1  0
 24 48  1  0
 25 49  1  0
 26 50  1  0
 27 51  1  0
M  END
>  <smiles>  (85) 
O=C(NCC(=O)N1CCCC1Cc1cccc(Cl)c1)c1ccc2ccccc2n1

>  <score_type>  (85) 
oracle

>  <origin>  (85) 
autodockgpu

>  <m_score__min__energy>  (85) 
-9.2400000000000002

>  <m_primary>  (85) 
energy

>  <rmsd>  (85) 
2.143936773766103

>  <m_score__min__rmsd>  (85) 
2.143936773766103

>  <meeko>  (85) 
{"free_energy": -8.35, "intermolecular_energy": -10.14, "internal_energy": -2.37, "cluster_size": 18, "cluster_id": 3, "rank_in_cluster": 17}

>  <energy>  (85) 
-8.79

>  <cluster_rmsd>  (85) 
0.56

>  <cluster>  (85) 
3

$$$$

     RDKit          3D

 51 54  0  0  0  0  0  0  0  0999 V2000
  140.8510   71.5020  221.2420 O   0  0  0  0  0  0  0  0  0  0  0  0
  140.3990   72.1120  222.2450 C   0  0  0  0  0  0  0  0  0  0  0  0
  140.0760   73.4960  222.2160 N   0  0  0  0  0  0  0  0  0  0  0  0
  140.2520   74.2860  221.0140 C   0  0  0  0  0  0  0  0  0  0  0  0
  140.6590   75.6420  221.4670 C   0  0  0  0  0  0  0  0  0  0  0  0
  140.5260   76.0420  222.6380 O   0  0  0  0  0  0  0  0  0  0  0  0
  141.2340   76.5360  220.5060 N   0  0  0  0  0  0  0  0  0  0  0  0
  141.4150   77.9660  220.6990 C   0  0  0  0  0  0  0  0  0  0  0  0
  141.5350   78.5390  219.2900 C   0  0  0  0  0  0  0  0  0  0  0  0
  141.2680   77.3540  218.3680 C   0  0  0  0  0  0  0  0  0  0  0  0
  141.7380   76.1930  219.1780 C   0  0  1  0  0  0  0  0  0  0  0  0
  143.2430   76.1080  219.2170 C   0  0  0  0  0  0  0  0  0  0  0  0
  143.6260   74.7640  219.7090 C   0  0  0  0  0  0  0  0  0  0  0  0
  142.9320   73.6160  219.4560 C   0  0  0  0  0  0  0  0  0  0  0  0
  143.3460   72.3970  219.9540 C   0  0  0  0  0  0  0  0  0  0  0  0
  144.4810   72.2870  220.7300 C   0  0  0  0  0  0  0  0  0  0  0  0
  145.1960   73.4370  220.9970 C   0  0  0  0  0  0  0  0  0  0  0  0
  146.6580   73.3540  221.9850 Cl  0  0  0  0  0  0  0  0  0  0  0  0
  144.7750   74.6520  220.4950 C   0  0  0  0  0  0  0  0  0  0  0  0
  140.1910   71.3870  223.5020 C   0  0  0  0  0  0  0  0  0  0  0  0
  139.5040   70.1890  223.5090 C   0  0  0  0  0  0  0  0  0  0  0  0
  139.2990   69.4930  224.6880 C   0  0  0  0  0  0  0  0  0  0  0  0
  139.7970   70.0100  225.8880 C   0  0  0  0  0  0  0  0  0  0  0  0
  139.6030   69.3260  227.0920 C   0  0  0  0  0  0  0  0  0  0  0  0
  140.1100   69.8720  228.2530 C   0  0  0  0  0  0  0  0  0  0  0  0
  140.8060   71.0850  228.2390 C   0  0  0  0  0  0  0  0  0  0  0  0
  140.9810   71.7360  227.0400 C   0  0  0  0  0  0  0  0  0  0  0  0
  140.4820   71.2100  225.8580 C   0  0  0  0  0  0  0  0  0  0  0  0
  140.6650   71.8660  224.6860 N   0  0  0  0  0  0  0  0  0  0  0  0
  139.6990   73.9450  223.1000 H   0  0  0  0  0  0  0  0  0  0  0  0
  141.0343   73.8451  220.3787 H   0  0  0  0  0  0  0  0  0  0  0  0
  139.3280   74.3221  220.4183 H   0  0  0  0  0  0  0  0  0  0  0  0
  140.5487   78.3990  221.2206 H   0  0  0  0  0  0  0  0  0  0  0  0
  142.2975   78.1927  221.3153 H   0  0  0  0  0  0  0  0  0  0  0  0
  140.7899   79.3320  219.1286 H   0  0  0  0  0  0  0  0  0  0  0  0
  142.5192   78.9953  219.1080 H   0  0  0  0  0  0  0  0  0  0  0  0
  140.1965   77.2668  218.1350 H   0  0  0  0  0  0  0  0  0  0  0  0
  141.7718   77.4379  217.3938 H   0  0  0  0  0  0  0  0  0  0  0  0
  141.3961   75.2254  218.7819 H   0  0  0  0  0  0  0  0  0  0  0  0
  143.6496   76.2629  218.2067 H   0  0  0  0  0  0  0  0  0  0  0  0
  143.6468   76.8829  219.8852 H   0  0  0  0  0  0  0  0  0  0  0  0
  142.0214   73.6635  218.8407 H   0  0  0  0  0  0  0  0  0  0  0  0
  142.7588   71.4949  219.7274 H   0  0  0  0  0  0  0  0  0  0  0  0
  144.8063   71.3128  221.1239 H   0  0  0  0  0  0  0  0  0  0  0  0
  145.3600   75.5560  220.7200 H   0  0  0  0  0  0  0  0  0  0  0  0
  139.1141   69.7820  222.5643 H   0  0  0  0  0  0  0  0  0  0  0  0
  138.7486   68.5406  224.6809 H   0  0  0  0  0  0  0  0  0  0  0  0
  139.0569   68.3714  227.1130 H   0  0  0  0  0  0  0  0  0  0  0  0
  139.9642   69.3439  229.2069 H   0  0  0  0  0  0  0  0  0  0  0  0
  141.2065   71.5111  229.1707 H   0  0  0  0  0  0  0  0  0  0  0  0
  141.5266   72.6909  227.0184 H   0  0  0  0  0  0  0  0  0  0  0  0
  1  2  2  0
  2  3  1  0
  3  4  1  0
  4  5  1  0
  5  6  2  0
  5  7  1  0
  7  8  1  0
  8  9  1  0
  9 10  1  0
 10 11  1  0
 11 12  1  0
 12 13  1  0
 13 14  2  0
 14 15  1  0
 15 16  2  0
 16 17  1  0
 17 18  1  0
 17 19  2  0
  2 20  1  0
 20 21  2  0
 21 22  1  0
 22 23  2  0
 23 24  1  0
 24 25  2  0
 25 26  1  0
 26 27  2  0
 27 28  1  0
 28 29  2  0
 11  7  1  0
 19 13  1  0
 29 20  1  0
 28 23  1  0
  3 30  1  0
  4 31  1  0
  4 32  1  0
  8 33  1  0
  8 34  1  0
  9 35  1  0
  9 36  1  0
 10 37  1  0
 10 38  1  0
 11 39  1  6
 12 40  1  0
 12 41  1  0
 14 42  1  0
 15 43  1  0
 16 44  1  0
 19 45  1  0
 21 46  1  0
 22 47  1  0
 24 48  1  0
 25 49  1  0
 26 50  1  0
 27 51  1  0
M  END
>  <smiles>  (86) 
O=C(NCC(=O)N1CCCC1Cc1cccc(Cl)c1)c1ccc2ccccc2n1

>  <score_type>  (86) 
oracle

>  <origin>  (86) 
autodockgpu

>  <m_score__min__energy>  (86) 
-9.2400000000000002

>  <m_primary>  (86) 
energy

>  <rmsd>  (86) 
2.2094700277995916

>  <m_score__min__rmsd>  (86) 
2.2094700277995916

>  <meeko>  (86) 
{"free_energy": -8.95, "intermolecular_energy": -10.74, "internal_energy": -2.35, "cluster_size": 18, "cluster_id": 3, "rank_in_cluster": 4}

>  <energy>  (86) 
-8.7

>  <cluster_rmsd>  (86) 
0.69

>  <cluster>  (86) 
3

$$$$

     RDKit          3D

 51 54  0  0  0  0  0  0  0  0999 V2000
  140.8510   71.5270  221.2330 O   0  0  0  0  0  0  0  0  0  0  0  0
  140.4010   72.1300  222.2400 C   0  0  0  0  0  0  0  0  0  0  0  0
  140.0560   73.5090  222.2160 N   0  0  0  0  0  0  0  0  0  0  0  0
  140.2080   74.3020  221.0120 C   0  0  0  0  0  0  0  0  0  0  0  0
  140.6390   75.6530  221.4590 C   0  0  0  0  0  0  0  0  0  0  0  0
  140.5310   76.0530  222.6330 O   0  0  0  0  0  0  0  0  0  0  0  0
  141.2070   76.5410  220.4890 N   0  0  0  0  0  0  0  0  0  0  0  0
  141.3800   77.9730  220.6680 C   0  0  0  0  0  0  0  0  0  0  0  0
  141.4950   78.5340  219.2540 C   0  0  0  0  0  0  0  0  0  0  0  0
  141.2330   77.3390  218.3430 C   0  0  0  0  0  0  0  0  0  0  0  0
  141.7100   76.1890  219.1630 C   0  0  1  0  0  0  0  0  0  0  0  0
  143.2160   76.1120  219.2000 C   0  0  0  0  0  0  0  0  0  0  0  0
  143.6070   74.7700  219.6910 C   0  0  0  0  0  0  0  0  0  0  0  0
  142.9070   73.6220  219.4600 C   0  0  0  0  0  0  0  0  0  0  0  0
  143.3290   72.4050  219.9560 C   0  0  0  0  0  0  0  0  0  0  0  0
  144.4790   72.2980  220.7100 C   0  0  0  0  0  0  0  0  0  0  0  0
  145.2020   73.4490  220.9550 C   0  0  0  0  0  0  0  0  0  0  0  0
  146.6830   73.3690  221.9130 Cl  0  0  0  0  0  0  0  0  0  0  0  0
  144.7720   74.6610  220.4540 C   0  0  0  0  0  0  0  0  0  0  0  0
  140.2170   71.4010  223.4990 C   0  0  0  0  0  0  0  0  0  0  0  0
  139.5330   70.2020  223.5150 C   0  0  0  0  0  0  0  0  0  0  0  0
  139.3510   69.5030  224.6970 C   0  0  0  0  0  0  0  0  0  0  0  0
  139.8680   70.0180  225.8890 C   0  0  0  0  0  0  0  0  0  0  0  0
  139.6970   69.3310  227.0940 C   0  0  0  0  0  0  0  0  0  0  0  0
  140.2230   69.8760  228.2480 C   0  0  0  0  0  0  0  0  0  0  0  0
  140.9150   71.0910  228.2240 C   0  0  0  0  0  0  0  0  0  0  0  0
  141.0670   71.7450  227.0240 C   0  0  0  0  0  0  0  0  0  0  0  0
  140.5480   71.2210  225.8490 C   0  0  0  0  0  0  0  0  0  0  0  0
  140.7090   71.8790  224.6760 N   0  0  0  0  0  0  0  0  0  0  0  0
  139.6820   73.9520  223.1030 H   0  0  0  0  0  0  0  0  0  0  0  0
  140.9695   73.8564  220.3551 H   0  0  0  0  0  0  0  0  0  0  0  0
  139.2692   74.3486  220.4406 H   0  0  0  0  0  0  0  0  0  0  0  0
  140.5120   78.4059  221.1868 H   0  0  0  0  0  0  0  0  0  0  0  0
  142.2622   78.2102  221.2807 H   0  0  0  0  0  0  0  0  0  0  0  0
  140.7455   79.3215  219.0866 H   0  0  0  0  0  0  0  0  0  0  0  0
  142.4764   78.9940  219.0665 H   0  0  0  0  0  0  0  0  0  0  0  0
  140.1617   77.2439  218.1122 H   0  0  0  0  0  0  0  0  0  0  0  0
  141.7349   77.4165  217.3672 H   0  0  0  0  0  0  0  0  0  0  0  0
  141.3718   75.2163  218.7765 H   0  0  0  0  0  0  0  0  0  0  0  0
  143.6204   76.2695  218.1892 H   0  0  0  0  0  0  0  0  0  0  0  0
  143.6165   76.8888  219.8680 H   0  0  0  0  0  0  0  0  0  0  0  0
  141.9837   73.6674  218.8639 H   0  0  0  0  0  0  0  0  0  0  0  0
  142.7364   71.5025  219.7457 H   0  0  0  0  0  0  0  0  0  0  0  0
  144.8101   71.3259  221.1041 H   0  0  0  0  0  0  0  0  0  0  0  0
  145.3626   75.5656  220.6611 H   0  0  0  0  0  0  0  0  0  0  0  0
  139.1271   69.7963  222.5766 H   0  0  0  0  0  0  0  0  0  0  0  0
  138.8033   68.5491  224.6975 H   0  0  0  0  0  0  0  0  0  0  0  0
  139.1540   68.3748  227.1222 H   0  0  0  0  0  0  0  0  0  0  0  0
  140.0956   69.3454  229.2031 H   0  0  0  0  0  0  0  0  0  0  0  0
  141.3307   71.5163  229.1494 H   0  0  0  0  0  0  0  0  0  0  0  0
  141.6101   72.7012  226.9952 H   0  0  0  0  0  0  0  0  0  0  0  0
  1  2  2  0
  2  3  1  0
  3  4  1  0
  4  5  1  0
  5  6  2  0
  5  7  1  0
  7  8  1  0
  8  9  1  0
  9 10  1  0
 10 11  1  0
 11 12  1  0
 12 13  1  0
 13 14  2  0
 14 15  1  0
 15 16  2  0
 16 17  1  0
 17 18  1  0
 17 19  2  0
  2 20  1  0
 20 21  2  0
 21 22  1  0
 22 23  2  0
 23 24  1  0
 24 25  2  0
 25 26  1  0
 26 27  2  0
 27 28  1  0
 28 29  2  0
 11  7  1  0
 19 13  1  0
 29 20  1  0
 28 23  1  0
  3 30  1  0
  4 31  1  0
  4 32  1  0
  8 33  1  0
  8 34  1  0
  9 35  1  0
  9 36  1  0
 10 37  1  0
 10 38  1  0
 11 39  1  6
 12 40  1  0
 12 41  1  0
 14 42  1  0
 15 43  1  0
 16 44  1  0
 19 45  1  0
 21 46  1  0
 22 47  1  0
 24 48  1  0
 25 49  1  0
 26 50  1  0
 27 51  1  0
M  END
>  <smiles>  (87) 
O=C(NCC(=O)N1CCCC1Cc1cccc(Cl)c1)c1ccc2ccccc2n1

>  <score_type>  (87) 
oracle

>  <origin>  (87) 
autodockgpu

>  <m_score__min__energy>  (87) 
-9.2400000000000002

>  <m_primary>  (87) 
energy

>  <rmsd>  (87) 
2.197096018479823

>  <m_score__min__rmsd>  (87) 
2.197096018479823

>  <meeko>  (87) 
{"free_energy": -8.98, "intermolecular_energy": -10.77, "internal_energy": -2.33, "cluster_size": 18, "cluster_id": 3, "rank_in_cluster": 2}

>  <energy>  (87) 
-8.64

>  <cluster_rmsd>  (87) 
0.21

>  <cluster>  (87) 
3

$$$$

     RDKit          3D

 51 54  0  0  0  0  0  0  0  0999 V2000
  141.1100   71.4910  221.3580 O   0  0  0  0  0  0  0  0  0  0  0  0
  140.5540   72.0950  222.3110 C   0  0  0  0  0  0  0  0  0  0  0  0
  140.1680   73.4610  222.2290 N   0  0  0  0  0  0  0  0  0  0  0  0
  140.3980   74.2380  221.0270 C   0  0  0  0  0  0  0  0  0  0  0  0
  140.6460   75.6320  221.4790 C   0  0  0  0  0  0  0  0  0  0  0  0
  140.2680   76.0740  222.5790 O   0  0  0  0  0  0  0  0  0  0  0  0
  141.3570   76.5150  220.6020 N   0  0  0  0  0  0  0  0  0  0  0  0
  141.4470   77.9570  220.7610 C   0  0  0  0  0  0  0  0  0  0  0  0
  141.8080   78.4820  219.3750 C   0  0  0  0  0  0  0  0  0  0  0  0
  141.7610   77.2530  218.4720 C   0  0  0  0  0  0  0  0  0  0  0  0
  142.1130   76.1450  219.4070 C   0  0  1  0  0  0  0  0  0  0  0  0
  143.5860   76.1270  219.7280 C   0  0  0  0  0  0  0  0  0  0  0  0
  143.9930   74.7290  219.9980 C   0  0  0  0  0  0  0  0  0  0  0  0
  145.0250   74.3620  220.8120 C   0  0  0  0  0  0  0  0  0  0  0  0
  145.3510   73.0360  221.0130 C   0  0  0  0  0  0  0  0  0  0  0  0
  144.6470   72.0220  220.3970 C   0  0  0  0  0  0  0  0  0  0  0  0
  143.5990   72.3740  219.5690 C   0  0  0  0  0  0  0  0  0  0  0  0
  142.6620   71.1160  218.7570 Cl  0  0  0  0  0  0  0  0  0  0  0  0
  143.2800   73.7020  219.3750 C   0  0  0  0  0  0  0  0  0  0  0  0
  140.2860   71.3820  223.5630 C   0  0  0  0  0  0  0  0  0  0  0  0
  139.6050   70.1820  223.5480 C   0  0  0  0  0  0  0  0  0  0  0  0
  139.3430   69.4970  224.7230 C   0  0  0  0  0  0  0  0  0  0  0  0
  139.7780   70.0280  225.9420 C   0  0  0  0  0  0  0  0  0  0  0  0
  139.5260   69.3560  227.1410 C   0  0  0  0  0  0  0  0  0  0  0  0
  139.9720   69.9170  228.3210 C   0  0  0  0  0  0  0  0  0  0  0  0
  140.6630   71.1320  228.3280 C   0  0  0  0  0  0  0  0  0  0  0  0
  140.8960   71.7720  227.1330 C   0  0  0  0  0  0  0  0  0  0  0  0
  140.4580   71.2310  225.9330 C   0  0  0  0  0  0  0  0  0  0  0  0
  140.6980   71.8750  224.7650 N   0  0  0  0  0  0  0  0  0  0  0  0
  139.7050   73.9060  223.0730 H   0  0  0  0  0  0  0  0  0  0  0  0
  141.2730   73.8513  220.4839 H   0  0  0  0  0  0  0  0  0  0  0  0
  139.5384   74.1841  220.3428 H   0  0  0  0  0  0  0  0  0  0  0  0
  140.4834   78.3708  221.0929 H   0  0  0  0  0  0  0  0  0  0  0  0
  142.1898   78.2448  221.5196 H   0  0  0  0  0  0  0  0  0  0  0  0
  141.0784   79.2354  219.0433 H   0  0  0  0  0  0  0  0  0  0  0  0
  142.7920   78.9733  219.3589 H   0  0  0  0  0  0  0  0  0  0  0  0
  140.7559   77.1103  218.0484 H   0  0  0  0  0  0  0  0  0  0  0  0
  142.4342   77.3227  217.6048 H   0  0  0  0  0  0  0  0  0  0  0  0
  141.8865   75.1492  218.9983 H   0  0  0  0  0  0  0  0  0  0  0  0
  144.1564   76.5207  218.8738 H   0  0  0  0  0  0  0  0  0  0  0  0
  143.7865   76.7539  220.6093 H   0  0  0  0  0  0  0  0  0  0  0  0
  145.6112   75.1418  221.3202 H   0  0  0  0  0  0  0  0  0  0  0  0
  146.1896   72.7824  221.6782 H   0  0  0  0  0  0  0  0  0  0  0  0
  144.9118   70.9669  220.5600 H   0  0  0  0  0  0  0  0  0  0  0  0
  142.4412   73.9593  218.7115 H   0  0  0  0  0  0  0  0  0  0  0  0
  139.2653   69.7634  222.5892 H   0  0  0  0  0  0  0  0  0  0  0  0
  138.7969   68.5425  224.6979 H   0  0  0  0  0  0  0  0  0  0  0  0
  138.9832   68.3993  227.1446 H   0  0  0  0  0  0  0  0  0  0  0  0
  139.7802   69.3988  229.2722 H   0  0  0  0  0  0  0  0  0  0  0  0
  141.0148   71.5693  229.2740 H   0  0  0  0  0  0  0  0  0  0  0  0
  141.4387   72.7288  227.1288 H   0  0  0  0  0  0  0  0  0  0  0  0
  1  2  2  0
  2  3  1  0
  3  4  1  0
  4  5  1  0
  5  6  2  0
  5  7  1  0
  7  8  1  0
  8  9  1  0
  9 10  1  0
 10 11  1  0
 11 12  1  0
 12 13  1  0
 13 14  2  0
 14 15  1  0
 15 16  2  0
 16 17  1  0
 17 18  1  0
 17 19  2  0
  2 20  1  0
 20 21  2  0
 21 22  1  0
 22 23  2  0
 23 24  1  0
 24 25  2  0
 25 26  1  0
 26 27  2  0
 27 28  1  0
 28 29  2  0
 11  7  1  0
 19 13  1  0
 29 20  1  0
 28 23  1  0
  3 30  1  0
  4 31  1  0
  4 32  1  0
  8 33  1  0
  8 34  1  0
  9 35  1  0
  9 36  1  0
 10 37  1  0
 10 38  1  0
 11 39  1  6
 12 40  1  0
 12 41  1  0
 14 42  1  0
 15 43  1  0
 16 44  1  0
 19 45  1  0
 21 46  1  0
 22 47  1  0
 24 48  1  0
 25 49  1  0
 26 50  1  0
 27 51  1  0
M  END
>  <smiles>  (88) 
O=C(NCC(=O)N1CCCC1Cc1cccc(Cl)c1)c1ccc2ccccc2n1

>  <score_type>  (88) 
oracle

>  <origin>  (88) 
autodockgpu

>  <m_score__min__energy>  (88) 
-9.2400000000000002

>  <m_primary>  (88) 
energy

>  <rmsd>  (88) 
2.269830411285823

>  <m_score__min__rmsd>  (88) 
2.269830411285823

>  <meeko>  (88) 
{"free_energy": -8.57, "intermolecular_energy": -10.36, "internal_energy": -2.45, "cluster_size": 18, "cluster_id": 3, "rank_in_cluster": 11}

>  <energy>  (88) 
-8.6

>  <cluster_rmsd>  (88) 
1.11

>  <cluster>  (88) 
3

$$$$

     RDKit          3D

 51 54  0  0  0  0  0  0  0  0999 V2000
  137.2280   76.5690  222.1680 O   0  0  0  0  0  0  0  0  0  0  0  0
  138.4740   76.5450  222.3400 C   0  0  0  0  0  0  0  0  0  0  0  0
  139.2440   75.3590  222.1890 N   0  0  0  0  0  0  0  0  0  0  0  0
  138.6240   74.1010  221.8230 C   0  0  0  0  0  0  0  0  0  0  0  0
  139.5970   73.0390  222.1940 C   0  0  0  0  0  0  0  0  0  0  0  0
  140.8140   73.2500  222.3530 O   0  0  0  0  0  0  0  0  0  0  0  0
  139.1100   71.7050  222.3780 N   0  0  0  0  0  0  0  0  0  0  0  0
  138.8340   70.7610  221.3070 C   0  0  0  0  0  0  0  0  0  0  0  0
  137.8710   69.7470  221.9170 C   0  0  0  0  0  0  0  0  0  0  0  0
  137.5610   70.2960  223.3060 C   0  0  0  0  0  0  0  0  0  0  0  0
  138.8030   71.0490  223.6470 C   0  0  1  0  0  0  0  0  0  0  0  0
  139.9340   70.1240  224.0230 C   0  0  0  0  0  0  0  0  0  0  0  0
  140.3510   70.4320  225.4110 C   0  0  0  0  0  0  0  0  0  0  0  0
  140.6310   71.6830  225.8800 C   0  0  0  0  0  0  0  0  0  0  0  0
  141.0210   71.8940  227.1870 C   0  0  0  0  0  0  0  0  0  0  0  0
  141.1480   70.8470  228.0760 C   0  0  0  0  0  0  0  0  0  0  0  0
  140.8690   69.5740  227.6200 C   0  0  0  0  0  0  0  0  0  0  0  0
  141.0130   68.1970  228.7170 Cl  0  0  0  0  0  0  0  0  0  0  0  0
  140.4790   69.3730  226.3120 C   0  0  0  0  0  0  0  0  0  0  0  0
  139.1780   77.7750  222.7130 C   0  0  0  0  0  0  0  0  0  0  0  0
  138.4690   78.8880  223.1180 C   0  0  0  0  0  0  0  0  0  0  0  0
  139.1200   80.0580  223.4720 C   0  0  0  0  0  0  0  0  0  0  0  0
  140.5170   80.1110  223.4200 C   0  0  0  0  0  0  0  0  0  0  0  0
  141.1970   81.2800  223.7730 C   0  0  0  0  0  0  0  0  0  0  0  0
  142.5760   81.2890  223.7070 C   0  0  0  0  0  0  0  0  0  0  0  0
  143.2880   80.1590  223.2970 C   0  0  0  0  0  0  0  0  0  0  0  0
  142.5920   79.0220  222.9550 C   0  0  0  0  0  0  0  0  0  0  0  0
  141.2060   78.9850  223.0120 C   0  0  0  0  0  0  0  0  0  0  0  0
  140.5380   77.8570  222.6720 N   0  0  0  0  0  0  0  0  0  0  0  0
  140.2900   75.4130  222.3500 H   0  0  0  0  0  0  0  0  0  0  0  0
  137.6818   73.9651  222.3741 H   0  0  0  0  0  0  0  0  0  0  0  0
  138.3829   74.0686  220.7502 H   0  0  0  0  0  0  0  0  0  0  0  0
  138.3678   71.2716  220.4515 H   0  0  0  0  0  0  0  0  0  0  0  0
  139.7504   70.2857  220.9272 H   0  0  0  0  0  0  0  0  0  0  0  0
  136.9532   69.6728  221.3153 H   0  0  0  0  0  0  0  0  0  0  0  0
  138.3007   68.7351  221.9553 H   0  0  0  0  0  0  0  0  0  0  0  0
  136.6867   70.9631  223.2826 H   0  0  0  0  0  0  0  0  0  0  0  0
  137.3103   69.5141  224.0380 H   0  0  0  0  0  0  0  0  0  0  0  0
  138.6742   71.7256  224.5047 H   0  0  0  0  0  0  0  0  0  0  0  0
  139.5955   69.0793  223.9604 H   0  0  0  0  0  0  0  0  0  0  0  0
  140.7807   70.2645  223.3349 H   0  0  0  0  0  0  0  0  0  0  0  0
  140.5437   72.5433  225.2001 H   0  0  0  0  0  0  0  0  0  0  0  0
  141.2349   72.9181  227.5267 H   0  0  0  0  0  0  0  0  0  0  0  0
  141.4618   71.0208  229.1159 H   0  0  0  0  0  0  0  0  0  0  0  0
  140.2629   68.3503  225.9695 H   0  0  0  0  0  0  0  0  0  0  0  0
  137.3706   78.8450  223.1602 H   0  0  0  0  0  0  0  0  0  0  0  0
  138.5433   80.9385  223.7915 H   0  0  0  0  0  0  0  0  0  0  0  0
  140.6448   82.1745  224.0968 H   0  0  0  0  0  0  0  0  0  0  0  0
  143.1240   82.2022  223.9822 H   0  0  0  0  0  0  0  0  0  0  0  0
  144.3868   80.1777  223.2483 H   0  0  0  0  0  0  0  0  0  0  0  0
  143.1438   78.1273  222.6309 H   0  0  0  0  0  0  0  0  0  0  0  0
  1  2  2  0
  2  3  1  0
  3  4  1  0
  4  5  1  0
  5  6  2  0
  5  7  1  0
  7  8  1  0
  8  9  1  0
  9 10  1  0
 10 11  1  0
 11 12  1  0
 12 13  1  0
 13 14  2  0
 14 15  1  0
 15 16  2  0
 16 17  1  0
 17 18  1  0
 17 19  2  0
  2 20  1  0
 20 21  2  0
 21 22  1  0
 22 23  2  0
 23 24  1  0
 24 25  2  0
 25 26  1  0
 26 27  2  0
 27 28  1  0
 28 29  2  0
 11  7  1  0
 19 13  1  0
 29 20  1  0
 28 23  1  0
  3 30  1  0
  4 31  1  0
  4 32  1  0
  8 33  1  0
  8 34  1  0
  9 35  1  0
  9 36  1  0
 10 37  1  0
 10 38  1  0
 11 39  1  1
 12 40  1  0
 12 41  1  0
 14 42  1  0
 15 43  1  0
 16 44  1  0
 19 45  1  0
 21 46  1  0
 22 47  1  0
 24 48  1  0
 25 49  1  0
 26 50  1  0
 27 51  1  0
M  END
>  <smiles>  (89) 
O=C(NCC(=O)N1CCCC1Cc1cccc(Cl)c1)c1ccc2ccccc2n1

>  <score_type>  (89) 
oracle

>  <origin>  (89) 
autodockgpu

>  <m_score__min__energy>  (89) 
-9.2400000000000002

>  <m_primary>  (89) 
energy

>  <rmsd>  (89) 
8.359019909299862

>  <m_score__min__rmsd>  (89) 
8.359019909299862

>  <meeko>  (89) 
{"free_energy": -9.19, "intermolecular_energy": -10.98, "internal_energy": -2.13, "cluster_size": 10, "cluster_id": 2, "rank_in_cluster": 2}

>  <energy>  (89) 
-8.57

>  <cluster_rmsd>  (89) 
1.08

>  <cluster>  (89) 
3

$$$$

     RDKit          3D

 51 54  0  0  0  0  0  0  0  0999 V2000
  140.5220   70.8970  221.5270 O   0  0  0  0  0  0  0  0  0  0  0  0
  140.2730   71.6460  222.5060 C   0  0  0  0  0  0  0  0  0  0  0  0
  139.9670   73.0270  222.3550 N   0  0  0  0  0  0  0  0  0  0  0  0
  139.9250   73.6500  221.0470 C   0  0  0  0  0  0  0  0  0  0  0  0
  140.5060   75.0070  221.2190 C   0  0  0  0  0  0  0  0  0  0  0  0
  140.5170   75.6160  222.3050 O   0  0  0  0  0  0  0  0  0  0  0  0
  141.0820   75.6500  220.0750 N   0  0  0  0  0  0  0  0  0  0  0  0
  140.7660   75.3340  218.6910 C   0  0  0  0  0  0  0  0  0  0  0  0
  141.9570   75.8510  217.8900 C   0  0  0  0  0  0  0  0  0  0  0  0
  142.9560   76.3210  218.9430 C   0  0  0  0  0  0  0  0  0  0  0  0
  142.0750   76.7220  220.0770 C   0  0  1  0  0  0  0  0  0  0  0  0
  141.3920   78.0420  219.8170 C   0  0  0  0  0  0  0  0  0  0  0  0
  141.0050   78.6360  221.1180 C   0  0  0  0  0  0  0  0  0  0  0  0
  139.7710   78.5210  221.6900 C   0  0  0  0  0  0  0  0  0  0  0  0
  139.4800   79.1080  222.9040 C   0  0  0  0  0  0  0  0  0  0  0  0
  140.4250   79.8390  223.5930 C   0  0  0  0  0  0  0  0  0  0  0  0
  141.6800   79.9670  223.0310 C   0  0  0  0  0  0  0  0  0  0  0  0
  142.9290   80.8910  223.8700 Cl  0  0  0  0  0  0  0  0  0  0  0  0
  141.9620   79.3760  221.8160 C   0  0  0  0  0  0  0  0  0  0  0  0
  140.2950   71.0950  223.8640 C   0  0  0  0  0  0  0  0  0  0  0  0
  140.6990   71.8790  224.9260 C   0  0  0  0  0  0  0  0  0  0  0  0
  140.7260   71.3720  226.2150 C   0  0  0  0  0  0  0  0  0  0  0  0
  140.3360   70.0490  226.4430 C   0  0  0  0  0  0  0  0  0  0  0  0
  140.3540   69.5150  227.7350 C   0  0  0  0  0  0  0  0  0  0  0  0
  139.9620   68.2040  227.9150 C   0  0  0  0  0  0  0  0  0  0  0  0
  139.5520   67.4160  226.8340 C   0  0  0  0  0  0  0  0  0  0  0  0
  139.5450   67.9680  225.5740 C   0  0  0  0  0  0  0  0  0  0  0  0
  139.9350   69.2830  225.3650 C   0  0  0  0  0  0  0  0  0  0  0  0
  139.9200   69.8100  224.1170 N   0  0  0  0  0  0  0  0  0  0  0  0
  139.7670   73.5980  223.2260 H   0  0  0  0  0  0  0  0  0  0  0  0
  140.5199   73.0682  220.3276 H   0  0  0  0  0  0  0  0  0  0  0  0
  138.8974   73.6988  220.6575 H   0  0  0  0  0  0  0  0  0  0  0  0
  140.6520   74.2480  218.5580 H   0  0  0  0  0  0  0  0  0  0  0  0
  139.8190   75.7905  218.3673 H   0  0  0  0  0  0  0  0  0  0  0  0
  142.3897   75.0476  217.2758 H   0  0  0  0  0  0  0  0  0  0  0  0
  141.6742   76.6558  217.1955 H   0  0  0  0  0  0  0  0  0  0  0  0
  143.6346   75.5067  219.2370 H   0  0  0  0  0  0  0  0  0  0  0  0
  143.6105   77.1322  218.5915 H   0  0  0  0  0  0  0  0  0  0  0  0
  142.6227   76.8512  221.0222 H   0  0  0  0  0  0  0  0  0  0  0  0
  142.0810   78.7188  219.2905 H   0  0  0  0  0  0  0  0  0  0  0  0
  140.4994   77.8878  219.1930 H   0  0  0  0  0  0  0  0  0  0  0  0
  138.9899   77.9465  221.1705 H   0  0  0  0  0  0  0  0  0  0  0  0
  138.4732   78.9906  223.3314 H   0  0  0  0  0  0  0  0  0  0  0  0
  140.1865   80.3056  224.5602 H   0  0  0  0  0  0  0  0  0  0  0  0
  142.9678   79.4909  221.3857 H   0  0  0  0  0  0  0  0  0  0  0  0
  141.0037   72.9206  224.7463 H   0  0  0  0  0  0  0  0  0  0  0  0
  141.0519   72.0058  227.0529 H   0  0  0  0  0  0  0  0  0  0  0  0
  140.6742   70.1274  228.5908 H   0  0  0  0  0  0  0  0  0  0  0  0
  139.9721   67.7710  228.9261 H   0  0  0  0  0  0  0  0  0  0  0  0
  139.2405   66.3725  226.9891 H   0  0  0  0  0  0  0  0  0  0  0  0
  139.2247   67.3564  224.7176 H   0  0  0  0  0  0  0  0  0  0  0  0
  1  2  2  0
  2  3  1  0
  3  4  1  0
  4  5  1  0
  5  6  2  0
  5  7  1  0
  7  8  1  0
  8  9  1  0
  9 10  1  0
 10 11  1  0
 11 12  1  0
 12 13  1  0
 13 14  2  0
 14 15  1  0
 15 16  2  0
 16 17  1  0
 17 18  1  0
 17 19  2  0
  2 20  1  0
 20 21  2  0
 21 22  1  0
 22 23  2  0
 23 24  1  0
 24 25  2  0
 25 26  1  0
 26 27  2  0
 27 28  1  0
 28 29  2  0
 11  7  1  0
 19 13  1  0
 29 20  1  0
 28 23  1  0
  3 30  1  0
  4 31  1  0
  4 32  1  0
  8 33  1  0
  8 34  1  0
  9 35  1  0
  9 36  1  0
 10 37  1  0
 10 38  1  0
 11 39  1  1
 12 40  1  0
 12 41  1  0
 14 42  1  0
 15 43  1  0
 16 44  1  0
 19 45  1  0
 21 46  1  0
 22 47  1  0
 24 48  1  0
 25 49  1  0
 26 50  1  0
 27 51  1  0
M  END
>  <smiles>  (90) 
O=C(NCC(=O)N1CCCC1Cc1cccc(Cl)c1)c1ccc2ccccc2n1

>  <score_type>  (90) 
oracle

>  <origin>  (90) 
autodockgpu

>  <m_score__min__energy>  (90) 
-9.2400000000000002

>  <m_primary>  (90) 
energy

>  <rmsd>  (90) 
2.7162405908873035

>  <m_score__min__rmsd>  (90) 
2.7162405908873035

>  <meeko>  (90) 
{"free_energy": -8.87, "intermolecular_energy": -10.66, "internal_energy": -1.83, "cluster_size": 18, "cluster_id": 1, "rank_in_cluster": 14}

>  <energy>  (90) 
-8.54

>  <cluster_rmsd>  (90) 
1.08

>  <cluster>  (90) 
3

$$$$

     RDKit          3D

 51 54  0  0  0  0  0  0  0  0999 V2000
  140.4140   71.2430  221.1640 O   0  0  0  0  0  0  0  0  0  0  0  0
  140.1080   71.9280  222.1730 C   0  0  0  0  0  0  0  0  0  0  0  0
  139.8430   73.3230  222.1000 N   0  0  0  0  0  0  0  0  0  0  0  0
  139.9130   74.0370  220.8410 C   0  0  0  0  0  0  0  0  0  0  0  0
  140.4700   75.3790  221.1580 C   0  0  0  0  0  0  0  0  0  0  0  0
  140.4180   75.8920  222.2910 O   0  0  0  0  0  0  0  0  0  0  0  0
  141.0990   76.1210  220.1060 N   0  0  0  0  0  0  0  0  0  0  0  0
  140.7200   76.0670  218.7030 C   0  0  0  0  0  0  0  0  0  0  0  0
  141.9490   76.5590  217.9460 C   0  0  0  0  0  0  0  0  0  0  0  0
  143.0190   76.7340  219.0190 C   0  0  0  0  0  0  0  0  0  0  0  0
  142.2160   77.0540  220.2350 C   0  0  1  0  0  0  0  0  0  0  0  0
  141.6970   78.4690  220.2080 C   0  0  0  0  0  0  0  0  0  0  0  0
  141.3430   78.8670  221.5910 C   0  0  0  0  0  0  0  0  0  0  0  0
  142.2380   79.0170  222.6110 C   0  0  0  0  0  0  0  0  0  0  0  0
  141.8350   79.3850  223.8780 C   0  0  0  0  0  0  0  0  0  0  0  0
  140.5070   79.6170  224.1700 C   0  0  0  0  0  0  0  0  0  0  0  0
  139.5860   79.4710  223.1510 C   0  0  0  0  0  0  0  0  0  0  0  0
  137.8730   79.7570  223.4680 Cl  0  0  0  0  0  0  0  0  0  0  0  0
  139.9990   79.1030  221.8860 C   0  0  0  0  0  0  0  0  0  0  0  0
  140.0150   71.2830  223.4860 C   0  0  0  0  0  0  0  0  0  0  0  0
  139.3220   70.0970  223.6320 C   0  0  0  0  0  0  0  0  0  0  0  0
  139.2260   69.4760  224.8650 C   0  0  0  0  0  0  0  0  0  0  0  0
  139.8400   70.0570  225.9790 C   0  0  0  0  0  0  0  0  0  0  0  0
  139.7570   69.4490  227.2350 C   0  0  0  0  0  0  0  0  0  0  0  0
  140.3770   70.0570  228.3080 C   0  0  0  0  0  0  0  0  0  0  0  0
  141.0780   71.2570  228.1530 C   0  0  0  0  0  0  0  0  0  0  0  0
  141.1430   71.8330  226.9050 C   0  0  0  0  0  0  0  0  0  0  0  0
  140.5280   71.2440  225.8100 C   0  0  0  0  0  0  0  0  0  0  0  0
  140.6040   71.8250  224.5890 N   0  0  0  0  0  0  0  0  0  0  0  0
  139.5910   73.8370  222.9920 H   0  0  0  0  0  0  0  0  0  0  0  0
  140.5718   73.5067  220.1376 H   0  0  0  0  0  0  0  0  0  0  0  0
  138.9231   74.1145  220.3675 H   0  0  0  0  0  0  0  0  0  0  0  0
  140.4708   75.0368  218.4087 H   0  0  0  0  0  0  0  0  0  0  0  0
  139.8303   76.6779  218.4903 H   0  0  0  0  0  0  0  0  0  0  0  0
  142.2668   75.8175  217.1983 H   0  0  0  0  0  0  0  0  0  0  0  0
  141.7540   77.4915  217.3961 H   0  0  0  0  0  0  0  0  0  0  0  0
  143.5967   75.8082  219.1576 H   0  0  0  0  0  0  0  0  0  0  0  0
  143.7625   77.5060  218.7717 H   0  0  0  0  0  0  0  0  0  0  0  0
  142.7934   76.9673  221.1673 H   0  0  0  0  0  0  0  0  0  0  0  0
  142.4740   79.1417  219.8158 H   0  0  0  0  0  0  0  0  0  0  0  0
  140.8111   78.5330  219.5591 H   0  0  0  0  0  0  0  0  0  0  0  0
  143.3064   78.8401  222.4179 H   0  0  0  0  0  0  0  0  0  0  0  0
  142.5883   79.4957  224.6719 H   0  0  0  0  0  0  0  0  0  0  0  0
  140.1914   79.9091  225.1825 H   0  0  0  0  0  0  0  0  0  0  0  0
  139.2488   78.9928  221.0891 H   0  0  0  0  0  0  0  0  0  0  0  0
  138.8395   69.6396  222.7556 H   0  0  0  0  0  0  0  0  0  0  0  0
  138.6707   68.5321  224.9681 H   0  0  0  0  0  0  0  0  0  0  0  0
  139.2084   68.5046  227.3657 H   0  0  0  0  0  0  0  0  0  0  0  0
  140.3186   69.5895  229.3020 H   0  0  0  0  0  0  0  0  0  0  0  0
  141.5694   71.7327  229.0145 H   0  0  0  0  0  0  0  0  0  0  0  0
  141.6922   72.7769  226.7734 H   0  0  0  0  0  0  0  0  0  0  0  0
  1  2  2  0
  2  3  1  0
  3  4  1  0
  4  5  1  0
  5  6  2  0
  5  7  1  0
  7  8  1  0
  8  9  1  0
  9 10  1  0
 10 11  1  0
 11 12  1  0
 12 13  1  0
 13 14  2  0
 14 15  1  0
 15 16  2  0
 16 17  1  0
 17 18  1  0
 17 19  2  0
  2 20  1  0
 20 21  2  0
 21 22  1  0
 22 23  2  0
 23 24  1  0
 24 25  2  0
 25 26  1  0
 26 27  2  0
 27 28  1  0
 28 29  2  0
 11  7  1  0
 19 13  1  0
 29 20  1  0
 28 23  1  0
  3 30  1  0
  4 31  1  0
  4 32  1  0
  8 33  1  0
  8 34  1  0
  9 35  1  0
  9 36  1  0
 10 37  1  0
 10 38  1  0
 11 39  1  1
 12 40  1  0
 12 41  1  0
 14 42  1  0
 15 43  1  0
 16 44  1  0
 19 45  1  0
 21 46  1  0
 22 47  1  0
 24 48  1  0
 25 49  1  0
 26 50  1  0
 27 51  1  0
M  END
>  <smiles>  (91) 
O=C(NCC(=O)N1CCCC1Cc1cccc(Cl)c1)c1ccc2ccccc2n1

>  <score_type>  (91) 
oracle

>  <origin>  (91) 
autodockgpu

>  <m_score__min__energy>  (91) 
-9.2400000000000002

>  <m_primary>  (91) 
energy

>  <rmsd>  (91) 
1.610736317388003

>  <m_score__min__rmsd>  (91) 
1.610736317388003

>  <meeko>  (91) 
{"free_energy": -8.73, "intermolecular_energy": -10.52, "internal_energy": -2.05, "cluster_size": 18, "cluster_id": 1, "rank_in_cluster": 16}

>  <energy>  (91) 
-8.52

>  <cluster_rmsd>  (91) 
1.08

>  <cluster>  (91) 
3

$$$$

     RDKit          3D

 51 54  0  0  0  0  0  0  0  0999 V2000
  140.8440   71.4400  221.2210 O   0  0  0  0  0  0  0  0  0  0  0  0
  140.4480   72.0790  222.2300 C   0  0  0  0  0  0  0  0  0  0  0  0
  140.1980   73.4780  222.2000 N   0  0  0  0  0  0  0  0  0  0  0  0
  140.3900   74.2510  220.9890 C   0  0  0  0  0  0  0  0  0  0  0  0
  140.8010   75.6110  221.4290 C   0  0  0  0  0  0  0  0  0  0  0  0
  140.7200   76.0040  222.6080 O   0  0  0  0  0  0  0  0  0  0  0  0
  141.3150   76.5170  220.4460 N   0  0  0  0  0  0  0  0  0  0  0  0
  141.6260   77.9180  220.6820 C   0  0  0  0  0  0  0  0  0  0  0  0
  141.6100   78.5610  219.2990 C   0  0  0  0  0  0  0  0  0  0  0  0
  141.1400   77.4520  218.3630 C   0  0  0  0  0  0  0  0  0  0  0  0
  141.6200   76.2170  219.0490 C   0  0  1  0  0  0  0  0  0  0  0  0
  143.1070   76.0270  218.8870 C   0  0  0  0  0  0  0  0  0  0  0  0
  143.4740   74.6990  219.4310 C   0  0  0  0  0  0  0  0  0  0  0  0
  142.8240   73.5340  219.1450 C   0  0  0  0  0  0  0  0  0  0  0  0
  143.2180   72.3320  219.6950 C   0  0  0  0  0  0  0  0  0  0  0  0
  144.2890   72.2560  220.5610 C   0  0  0  0  0  0  0  0  0  0  0  0
  144.9600   73.4240  220.8640 C   0  0  0  0  0  0  0  0  0  0  0  0
  146.3390   73.3860  221.9660 Cl  0  0  0  0  0  0  0  0  0  0  0  0
  144.5580   74.6220  220.3080 C   0  0  0  0  0  0  0  0  0  0  0  0
  140.2300   71.3720  223.4950 C   0  0  0  0  0  0  0  0  0  0  0  0
  139.5710   70.1580  223.5100 C   0  0  0  0  0  0  0  0  0  0  0  0
  139.3560   69.4790  224.6970 C   0  0  0  0  0  0  0  0  0  0  0  0
  139.8150   70.0290  225.8980 C   0  0  0  0  0  0  0  0  0  0  0  0
  139.6110   69.3620  227.1100 C   0  0  0  0  0  0  0  0  0  0  0  0
  140.0800   69.9420  228.2710 C   0  0  0  0  0  0  0  0  0  0  0  0
  140.7470   71.1700  228.2490 C   0  0  0  0  0  0  0  0  0  0  0  0
  140.9340   71.8040  227.0420 C   0  0  0  0  0  0  0  0  0  0  0  0
  140.4720   71.2450  225.8600 C   0  0  0  0  0  0  0  0  0  0  0  0
  140.6660   71.8830  224.6800 N   0  0  0  0  0  0  0  0  0  0  0  0
  139.8660   73.9510  223.0890 H   0  0  0  0  0  0  0  0  0  0  0  0
  141.1756   73.7973  220.3669 H   0  0  0  0  0  0  0  0  0  0  0  0
  139.4721   74.2846  220.3837 H   0  0  0  0  0  0  0  0  0  0  0  0
  140.8676   78.3788  221.3320 H   0  0  0  0  0  0  0  0  0  0  0  0
  142.5938   78.0481  221.1884 H   0  0  0  0  0  0  0  0  0  0  0  0
  140.9125   79.4112  219.2743 H   0  0  0  0  0  0  0  0  0  0  0  0
  142.5951   78.9582  219.0128 H   0  0  0  0  0  0  0  0  0  0  0  0
  140.0442   77.4519  218.2672 H   0  0  0  0  0  0  0  0  0  0  0  0
  141.5213   77.5569  217.3366 H   0  0  0  0  0  0  0  0  0  0  0  0
  141.1588   75.2992  218.6554 H   0  0  0  0  0  0  0  0  0  0  0  0
  143.3734   76.0776  217.8209 H   0  0  0  0  0  0  0  0  0  0  0  0
  143.6486   76.8178  219.4267 H   0  0  0  0  0  0  0  0  0  0  0  0
  141.9645   73.5538  218.4588 H   0  0  0  0  0  0  0  0  0  0  0  0
  142.6669   71.4154  219.4378 H   0  0  0  0  0  0  0  0  0  0  0  0
  144.5989   71.2947  220.9967 H   0  0  0  0  0  0  0  0  0  0  0  0
  145.1065   75.5409  220.5627 H   0  0  0  0  0  0  0  0  0  0  0  0
  139.2119   69.7245  222.5649 H   0  0  0  0  0  0  0  0  0  0  0  0
  138.8280   68.5140  224.6955 H   0  0  0  0  0  0  0  0  0  0  0  0
  139.0875   68.3950  227.1374 H   0  0  0  0  0  0  0  0  0  0  0  0
  139.9261   69.4284  229.2315 H   0  0  0  0  0  0  0  0  0  0  0  0
  141.1164   71.6223  229.1812 H   0  0  0  0  0  0  0  0  0  0  0  0
  141.4588   72.7704  227.0143 H   0  0  0  0  0  0  0  0  0  0  0  0
  1  2  2  0
  2  3  1  0
  3  4  1  0
  4  5  1  0
  5  6  2  0
  5  7  1  0
  7  8  1  0
  8  9  1  0
  9 10  1  0
 10 11  1  0
 11 12  1  0
 12 13  1  0
 13 14  2  0
 14 15  1  0
 15 16  2  0
 16 17  1  0
 17 18  1  0
 17 19  2  0
  2 20  1  0
 20 21  2  0
 21 22  1  0
 22 23  2  0
 23 24  1  0
 24 25  2  0
 25 26  1  0
 26 27  2  0
 27 28  1  0
 28 29  2  0
 11  7  1  0
 19 13  1  0
 29 20  1  0
 28 23  1  0
  3 30  1  0
  4 31  1  0
  4 32  1  0
  8 33  1  0
  8 34  1  0
  9 35  1  0
  9 36  1  0
 10 37  1  0
 10 38  1  0
 11 39  1  6
 12 40  1  0
 12 41  1  0
 14 42  1  0
 15 43  1  0
 16 44  1  0
 19 45  1  0
 21 46  1  0
 22 47  1  0
 24 48  1  0
 25 49  1  0
 26 50  1  0
 27 51  1  0
M  END
>  <smiles>  (92) 
O=C(NCC(=O)N1CCCC1Cc1cccc(Cl)c1)c1ccc2ccccc2n1

>  <score_type>  (92) 
oracle

>  <origin>  (92) 
autodockgpu

>  <m_score__min__energy>  (92) 
-9.2400000000000002

>  <m_primary>  (92) 
energy

>  <rmsd>  (92) 
2.265477533882005

>  <m_score__min__rmsd>  (92) 
2.265477533882005

>  <meeko>  (92) 
{"free_energy": -8.64, "intermolecular_energy": -10.43, "internal_energy": -2.46, "cluster_size": 18, "cluster_id": 3, "rank_in_cluster": 9}

>  <energy>  (92) 
-8.51

>  <cluster_rmsd>  (92) 
1.07

>  <cluster>  (92) 
3

$$$$

     RDKit          3D

 51 54  0  0  0  0  0  0  0  0999 V2000
  138.3620   70.7090  221.7250 O   0  0  0  0  0  0  0  0  0  0  0  0
  138.9310   71.2530  222.7060 C   0  0  0  0  0  0  0  0  0  0  0  0
  139.2860   72.6300  222.7180 N   0  0  0  0  0  0  0  0  0  0  0  0
  139.0060   73.4890  221.5850 C   0  0  0  0  0  0  0  0  0  0  0  0
  139.5410   74.8290  221.9430 C   0  0  0  0  0  0  0  0  0  0  0  0
  140.7320   75.0340  222.2430 O   0  0  0  0  0  0  0  0  0  0  0  0
  138.6400   75.9430  221.9430 N   0  0  0  0  0  0  0  0  0  0  0  0
  137.2120   75.8640  222.2040 C   0  0  0  0  0  0  0  0  0  0  0  0
  136.6290   77.1280  221.5820 C   0  0  0  0  0  0  0  0  0  0  0  0
  137.8070   77.7880  220.8710 C   0  0  0  0  0  0  0  0  0  0  0  0
  138.9740   77.3430  221.6870 C   0  0  1  0  0  0  0  0  0  0  0  0
  139.0610   78.0880  222.9950 C   0  0  0  0  0  0  0  0  0  0  0  0
  140.2630   78.9530  222.9650 C   0  0  0  0  0  0  0  0  0  0  0  0
  141.4690   78.6290  223.5150 C   0  0  0  0  0  0  0  0  0  0  0  0
  142.5460   79.4890  223.4540 C   0  0  0  0  0  0  0  0  0  0  0  0
  142.4500   80.7180  222.8340 C   0  0  0  0  0  0  0  0  0  0  0  0
  141.2370   81.0640  222.2710 C   0  0  0  0  0  0  0  0  0  0  0  0
  141.0570   82.6240  221.4630 Cl  0  0  0  0  0  0  0  0  0  0  0  0
  140.1650   80.1970  222.3370 C   0  0  0  0  0  0  0  0  0  0  0  0
  139.2500   70.4540  223.8930 C   0  0  0  0  0  0  0  0  0  0  0  0
  138.9460   69.1070  223.9280 C   0  0  0  0  0  0  0  0  0  0  0  0
  139.2410   68.3400  225.0420 C   0  0  0  0  0  0  0  0  0  0  0  0
  139.8570   68.9370  226.1470 C   0  0  0  0  0  0  0  0  0  0  0  0
  140.1650   68.1830  227.2830 C   0  0  0  0  0  0  0  0  0  0  0  0
  140.7720   68.8120  228.3500 C   0  0  0  0  0  0  0  0  0  0  0  0
  141.0780   70.1760  228.3080 C   0  0  0  0  0  0  0  0  0  0  0  0
  140.7630   70.8930  227.1770 C   0  0  0  0  0  0  0  0  0  0  0  0
  140.1520   70.2860  226.0890 C   0  0  0  0  0  0  0  0  0  0  0  0
  139.8500   71.0080  224.9830 N   0  0  0  0  0  0  0  0  0  0  0  0
  139.7630   73.0210  223.5800 H   0  0  0  0  0  0  0  0  0  0  0  0
  139.5060   73.1066  220.6829 H   0  0  0  0  0  0  0  0  0  0  0  0
  137.9284   73.5307  221.3683 H   0  0  0  0  0  0  0  0  0  0  0  0
  136.7817   74.9674  221.7339 H   0  0  0  0  0  0  0  0  0  0  0  0
  136.9909   75.7916  223.2791 H   0  0  0  0  0  0  0  0  0  0  0  0
  135.8342   76.8763  220.8644 H   0  0  0  0  0  0  0  0  0  0  0  0
  136.1724   77.7893  222.3331 H   0  0  0  0  0  0  0  0  0  0  0  0
  137.8916   77.4353  219.8325 H   0  0  0  0  0  0  0  0  0  0  0  0
  137.7163   78.8819  220.7994 H   0  0  0  0  0  0  0  0  0  0  0  0
  139.9385   77.5103  221.1853 H   0  0  0  0  0  0  0  0  0  0  0  0
  138.1618   78.7071  223.1298 H   0  0  0  0  0  0  0  0  0  0  0  0
  139.1305   77.3756  223.8302 H   0  0  0  0  0  0  0  0  0  0  0  0
  141.5853   77.6584  224.0193 H   0  0  0  0  0  0  0  0  0  0  0  0
  143.5013   79.1887  223.9091 H   0  0  0  0  0  0  0  0  0  0  0  0
  143.3117   81.4003  222.7895 H   0  0  0  0  0  0  0  0  0  0  0  0
  139.2079   80.4935  221.8830 H   0  0  0  0  0  0  0  0  0  0  0  0
  138.4628   68.6373  223.0586 H   0  0  0  0  0  0  0  0  0  0  0  0
  138.9927   67.2685  225.0582 H   0  0  0  0  0  0  0  0  0  0  0  0
  139.9281   67.1096  227.3252 H   0  0  0  0  0  0  0  0  0  0  0  0
  141.0199   68.2303  229.2501 H   0  0  0  0  0  0  0  0  0  0  0  0
  141.5624   70.6672  229.1648 H   0  0  0  0  0  0  0  0  0  0  0  0
  140.9996   71.9664  227.1344 H   0  0  0  0  0  0  0  0  0  0  0  0
  1  2  2  0
  2  3  1  0
  3  4  1  0
  4  5  1  0
  5  6  2  0
  5  7  1  0
  7  8  1  0
  8  9  1  0
  9 10  1  0
 10 11  1  0
 11 12  1  0
 12 13  1  0
 13 14  2  0
 14 15  1  0
 15 16  2  0
 16 17  1  0
 17 18  1  0
 17 19  2  0
  2 20  1  0
 20 21  2  0
 21 22  1  0
 22 23  2  0
 23 24  1  0
 24 25  2  0
 25 26  1  0
 26 27  2  0
 27 28  1  0
 28 29  2  0
 11  7  1  0
 19 13  1  0
 29 20  1  0
 28 23  1  0
  3 30  1  0
  4 31  1  0
  4 32  1  0
  8 33  1  0
  8 34  1  0
  9 35  1  0
  9 36  1  0
 10 37  1  0
 10 38  1  0
 11 39  1  6
 12 40  1  0
 12 41  1  0
 14 42  1  0
 15 43  1  0
 16 44  1  0
 19 45  1  0
 21 46  1  0
 22 47  1  0
 24 48  1  0
 25 49  1  0
 26 50  1  0
 27 51  1  0
M  END
>  <smiles>  (93) 
O=C(NCC(=O)N1CCCC1Cc1cccc(Cl)c1)c1ccc2ccccc2n1

>  <score_type>  (93) 
oracle

>  <origin>  (93) 
autodockgpu

>  <m_score__min__energy>  (93) 
-9.2400000000000002

>  <m_primary>  (93) 
energy

>  <rmsd>  (93) 
2.46303200338905

>  <m_score__min__rmsd>  (93) 
2.46303200338905

>  <meeko>  (93) 
{"free_energy": -8.83, "intermolecular_energy": -10.62, "internal_energy": -1.78, "cluster_size": 2, "cluster_id": 4, "rank_in_cluster": 1}

>  <energy>  (93) 
-8.44

>  <cluster_rmsd>  (93) 
0.77

>  <cluster>  (93) 
3

$$$$

     RDKit          3D

 51 54  0  0  0  0  0  0  0  0999 V2000
  140.3250   71.3720  221.2490 O   0  0  0  0  0  0  0  0  0  0  0  0
  140.0060   71.9760  222.3050 C   0  0  0  0  0  0  0  0  0  0  0  0
  139.6180   73.3440  222.3160 N   0  0  0  0  0  0  0  0  0  0  0  0
  139.5690   74.1220  221.0950 C   0  0  0  0  0  0  0  0  0  0  0  0
  140.5760   75.2040  221.2550 C   0  0  0  0  0  0  0  0  0  0  0  0
  140.6460   75.9330  222.2620 O   0  0  0  0  0  0  0  0  0  0  0  0
  141.5150   75.4220  220.1950 N   0  0  0  0  0  0  0  0  0  0  0  0
  141.6450   74.5890  219.0100 C   0  0  0  0  0  0  0  0  0  0  0  0
  143.0510   74.8690  218.4880 C   0  0  0  0  0  0  0  0  0  0  0  0
  143.6800   75.7780  219.5390 C   0  0  0  0  0  0  0  0  0  0  0  0
  142.5000   76.4970  220.1010 C   0  0  1  0  0  0  0  0  0  0  0  0
  141.9950   77.5640  219.1620 C   0  0  0  0  0  0  0  0  0  0  0  0
  141.8150   78.8180  219.9290 C   0  0  0  0  0  0  0  0  0  0  0  0
  141.6190   80.0490  219.3730 C   0  0  0  0  0  0  0  0  0  0  0  0
  141.4650   81.1780  220.1510 C   0  0  0  0  0  0  0  0  0  0  0  0
  141.5030   81.1110  221.5280 C   0  0  0  0  0  0  0  0  0  0  0  0
  141.7010   79.8750  222.1100 C   0  0  0  0  0  0  0  0  0  0  0  0
  141.7580   79.7310  223.8690 Cl  0  0  0  0  0  0  0  0  0  0  0  0
  141.8540   78.7510  221.3230 C   0  0  0  0  0  0  0  0  0  0  0  0
  140.0300   71.2610  223.5850 C   0  0  0  0  0  0  0  0  0  0  0  0
  139.5630   69.9640  223.6660 C   0  0  0  0  0  0  0  0  0  0  0  0
  139.5780   69.2760  224.8680 C   0  0  0  0  0  0  0  0  0  0  0  0
  140.0740   69.9040  226.0150 C   0  0  0  0  0  0  0  0  0  0  0  0
  140.1000   69.2300  227.2390 C   0  0  0  0  0  0  0  0  0  0  0  0
  140.5970   69.8880  228.3460 C   0  0  0  0  0  0  0  0  0  0  0  0
  141.0690   71.2010  228.2560 C   0  0  0  0  0  0  0  0  0  0  0  0
  141.0310   71.8390  227.0380 C   0  0  0  0  0  0  0  0  0  0  0  0
  140.5360   71.2030  225.9100 C   0  0  0  0  0  0  0  0  0  0  0  0
  140.5070   71.8470  224.7180 N   0  0  0  0  0  0  0  0  0  0  0  0
  139.3620   73.7890  223.2440 H   0  0  0  0  0  0  0  0  0  0  0  0
  139.8208   73.4910  220.2299 H   0  0  0  0  0  0  0  0  0  0  0  0
  138.5633   74.5317  220.9195 H   0  0  0  0  0  0  0  0  0  0  0  0
  141.5328   73.5260  219.2696 H   0  0  0  0  0  0  0  0  0  0  0  0
  140.8720   74.8114  218.2597 H   0  0  0  0  0  0  0  0  0  0  0  0
  143.6224   73.9340  218.3916 H   0  0  0  0  0  0  0  0  0  0  0  0
  143.0401   75.3317  217.4901 H   0  0  0  0  0  0  0  0  0  0  0  0
  144.1931   75.1910  220.3150 H   0  0  0  0  0  0  0  0  0  0  0  0
  144.4470   76.4520  219.1298 H   0  0  0  0  0  0  0  0  0  0  0  0
  142.7205   77.0134  221.0469 H   0  0  0  0  0  0  0  0  0  0  0  0
  142.7253   77.7241  218.3551 H   0  0  0  0  0  0  0  0  0  0  0  0
  141.0378   77.2531  218.7180 H   0  0  0  0  0  0  0  0  0  0  0  0
  141.5829   80.1433  218.2776 H   0  0  0  0  0  0  0  0  0  0  0  0
  141.3087   82.1514  219.6630 H   0  0  0  0  0  0  0  0  0  0  0  0
  141.3794   82.0144  222.1434 H   0  0  0  0  0  0  0  0  0  0  0  0
  142.0109   77.7760  221.8075 H   0  0  0  0  0  0  0  0  0  0  0  0
  139.1737   69.4704  222.7634 H   0  0  0  0  0  0  0  0  0  0  0  0
  139.2026   68.2434  224.9201 H   0  0  0  0  0  0  0  0  0  0  0  0
  139.7320   68.1964  227.3186 H   0  0  0  0  0  0  0  0  0  0  0  0
  140.6222   69.3702  229.3162 H   0  0  0  0  0  0  0  0  0  0  0  0
  141.4642   71.7152  229.1445 H   0  0  0  0  0  0  0  0  0  0  0  0
  141.3999   72.8722  226.9575 H   0  0  0  0  0  0  0  0  0  0  0  0
  1  2  2  0
  2  3  1  0
  3  4  1  0
  4  5  1  0
  5  6  2  0
  5  7  1  0
  7  8  1  0
  8  9  1  0
  9 10  1  0
 10 11  1  0
 11 12  1  0
 12 13  1  0
 13 14  2  0
 14 15  1  0
 15 16  2  0
 16 17  1  0
 17 18  1  0
 17 19  2  0
  2 20  1  0
 20 21  2  0
 21 22  1  0
 22 23  2  0
 23 24  1  0
 24 25  2  0
 25 26  1  0
 26 27  2  0
 27 28  1  0
 28 29  2  0
 11  7  1  0
 19 13  1  0
 29 20  1  0
 28 23  1  0
  3 30  1  0
  4 31  1  0
  4 32  1  0
  8 33  1  0
  8 34  1  0
  9 35  1  0
  9 36  1  0
 10 37  1  0
 10 38  1  0
 11 39  1  1
 12 40  1  0
 12 41  1  0
 14 42  1  0
 15 43  1  0
 16 44  1  0
 19 45  1  0
 21 46  1  0
 22 47  1  0
 24 48  1  0
 25 49  1  0
 26 50  1  0
 27 51  1  0
M  END
>  <smiles>  (94) 
O=C(NCC(=O)N1CCCC1Cc1cccc(Cl)c1)c1ccc2ccccc2n1

>  <score_type>  (94) 
oracle

>  <origin>  (94) 
autodockgpu

>  <m_score__min__energy>  (94) 
-9.2400000000000002

>  <m_primary>  (94) 
energy

>  <rmsd>  (94) 
1.9676327084958898

>  <m_score__min__rmsd>  (94) 
1.9676327084958898

>  <meeko>  (94) 
{"free_energy": -8.97, "intermolecular_energy": -10.76, "internal_energy": -1.75, "cluster_size": 18, "cluster_id": 1, "rank_in_cluster": 11}

>  <energy>  (94) 
-8.37

>  <cluster_rmsd>  (94) 
1.14

>  <cluster>  (94) 
3

$$$$

     RDKit          3D

 51 54  0  0  0  0  0  0  0  0999 V2000
  140.4400   71.3920  221.2340 O   0  0  0  0  0  0  0  0  0  0  0  0
  140.1280   72.0160  222.2800 C   0  0  0  0  0  0  0  0  0  0  0  0
  139.8120   73.4020  222.2790 N   0  0  0  0  0  0  0  0  0  0  0  0
  139.8330   74.1780  221.0550 C   0  0  0  0  0  0  0  0  0  0  0  0
  140.1280   75.5780  221.4590 C   0  0  0  0  0  0  0  0  0  0  0  0
  139.9800   76.0020  222.6200 O   0  0  0  0  0  0  0  0  0  0  0  0
  140.6070   76.4870  220.4610 N   0  0  0  0  0  0  0  0  0  0  0  0
  140.3790   77.9230  220.4600 C   0  0  0  0  0  0  0  0  0  0  0  0
  140.5840   78.3510  219.0100 C   0  0  0  0  0  0  0  0  0  0  0  0
  140.7910   77.0460  218.2480 C   0  0  0  0  0  0  0  0  0  0  0  0
  141.3990   76.1560  219.2790 C   0  0  1  0  0  0  0  0  0  0  0  0
  142.8470   76.4970  219.5310 C   0  0  0  0  0  0  0  0  0  0  0  0
  143.6510   75.2600  219.4020 C   0  0  0  0  0  0  0  0  0  0  0  0
  143.6220   74.4210  218.3260 C   0  0  0  0  0  0  0  0  0  0  0  0
  144.3960   73.2800  218.2780 C   0  0  0  0  0  0  0  0  0  0  0  0
  145.2340   72.9360  219.3190 C   0  0  0  0  0  0  0  0  0  0  0  0
  145.2770   73.7720  220.4170 C   0  0  0  0  0  0  0  0  0  0  0  0
  146.3330   73.3820  221.7780 Cl  0  0  0  0  0  0  0  0  0  0  0  0
  144.4990   74.9120  220.4560 C   0  0  0  0  0  0  0  0  0  0  0  0
  140.0830   71.3050  223.5620 C   0  0  0  0  0  0  0  0  0  0  0  0
  139.5580   70.0300  223.6330 C   0  0  0  0  0  0  0  0  0  0  0  0
  139.5080   69.3470  224.8360 C   0  0  0  0  0  0  0  0  0  0  0  0
  139.9970   69.9560  225.9950 C   0  0  0  0  0  0  0  0  0  0  0  0
  139.9580   69.2870  227.2220 C   0  0  0  0  0  0  0  0  0  0  0  0
  140.4510   69.9260  228.3410 C   0  0  0  0  0  0  0  0  0  0  0  0
  140.9820   71.2170  228.2620 C   0  0  0  0  0  0  0  0  0  0  0  0
  141.0080   71.8520  227.0420 C   0  0  0  0  0  0  0  0  0  0  0  0
  140.5180   71.2330  225.9010 C   0  0  0  0  0  0  0  0  0  0  0  0
  140.5520   71.8740  224.7070 N   0  0  0  0  0  0  0  0  0  0  0  0
  139.5570   73.8630  223.1990 H   0  0  0  0  0  0  0  0  0  0  0  0
  140.6153   73.8030  220.3787 H   0  0  0  0  0  0  0  0  0  0  0  0
  138.8752   74.1080  220.5185 H   0  0  0  0  0  0  0  0  0  0  0  0
  139.3553   78.1527  220.7905 H   0  0  0  0  0  0  0  0  0  0  0  0
  141.0563   78.4507  221.1476 H   0  0  0  0  0  0  0  0  0  0  0  0
  139.6983   78.8839  218.6337 H   0  0  0  0  0  0  0  0  0  0  0  0
  141.4338   79.0399  218.8951 H   0  0  0  0  0  0  0  0  0  0  0  0
  139.8336   76.6404  217.8889 H   0  0  0  0  0  0  0  0  0  0  0  0
  141.4138   77.1603  217.3485 H   0  0  0  0  0  0  0  0  0  0  0  0
  141.3890   75.0945  218.9908 H   0  0  0  0  0  0  0  0  0  0  0  0
  143.1871   77.2391  218.7936 H   0  0  0  0  0  0  0  0  0  0  0  0
  142.9645   76.9191  220.5400 H   0  0  0  0  0  0  0  0  0  0  0  0
  142.9655   74.6603  217.4764 H   0  0  0  0  0  0  0  0  0  0  0  0
  144.3441   72.6309  217.3914 H   0  0  0  0  0  0  0  0  0  0  0  0
  145.8483   72.0246  219.2754 H   0  0  0  0  0  0  0  0  0  0  0  0
  144.5483   75.5637  221.3408 H   0  0  0  0  0  0  0  0  0  0  0  0
  139.1740   69.5501  222.7207 H   0  0  0  0  0  0  0  0  0  0  0  0
  139.0863   68.3320  224.8794 H   0  0  0  0  0  0  0  0  0  0  0  0
  139.5424   68.2711  227.2938 H   0  0  0  0  0  0  0  0  0  0  0  0
  140.4259   69.4107  229.3125 H   0  0  0  0  0  0  0  0  0  0  0  0
  141.3726   71.7167  229.1607 H   0  0  0  0  0  0  0  0  0  0  0  0
  141.4243   72.8676  226.9698 H   0  0  0  0  0  0  0  0  0  0  0  0
  1  2  2  0
  2  3  1  0
  3  4  1  0
  4  5  1  0
  5  6  2  0
  5  7  1  0
  7  8  1  0
  8  9  1  0
  9 10  1  0
 10 11  1  0
 11 12  1  0
 12 13  1  0
 13 14  2  0
 14 15  1  0
 15 16  2  0
 16 17  1  0
 17 18  1  0
 17 19  2  0
  2 20  1  0
 20 21  2  0
 21 22  1  0
 22 23  2  0
 23 24  1  0
 24 25  2  0
 25 26  1  0
 26 27  2  0
 27 28  1  0
 28 29  2  0
 11  7  1  0
 19 13  1  0
 29 20  1  0
 28 23  1  0
  3 30  1  0
  4 31  1  0
  4 32  1  0
  8 33  1  0
  8 34  1  0
  9 35  1  0
  9 36  1  0
 10 37  1  0
 10 38  1  0
 11 39  1  6
 12 40  1  0
 12 41  1  0
 14 42  1  0
 15 43  1  0
 16 44  1  0
 19 45  1  0
 21 46  1  0
 22 47  1  0
 24 48  1  0
 25 49  1  0
 26 50  1  0
 27 51  1  0
M  END
>  <smiles>  (95) 
O=C(NCC(=O)N1CCCC1Cc1cccc(Cl)c1)c1ccc2ccccc2n1

>  <score_type>  (95) 
oracle

>  <origin>  (95) 
autodockgpu

>  <m_score__min__energy>  (95) 
-9.2400000000000002

>  <m_primary>  (95) 
energy

>  <rmsd>  (95) 
1.9269146142554325

>  <m_score__min__rmsd>  (95) 
1.9269146142554325

>  <meeko>  (95) 
{"free_energy": -8.7, "intermolecular_energy": -10.49, "internal_energy": -2.09, "cluster_size": 18, "cluster_id": 3, "rank_in_cluster": 8}

>  <energy>  (95) 
-8.35

>  <cluster_rmsd>  (95) 
1.23

>  <cluster>  (95) 
3

$$$$

     RDKit          3D

 51 54  0  0  0  0  0  0  0  0999 V2000
  137.1530   76.5340  222.4220 O   0  0  0  0  0  0  0  0  0  0  0  0
  138.4100   76.5460  222.4600 C   0  0  0  0  0  0  0  0  0  0  0  0
  139.1940   75.3840  222.2170 N   0  0  0  0  0  0  0  0  0  0  0  0
  138.5760   74.1100  221.9070 C   0  0  0  0  0  0  0  0  0  0  0  0
  139.6360   73.0830  222.0880 C   0  0  0  0  0  0  0  0  0  0  0  0
  140.8530   73.3310  222.0000 O   0  0  0  0  0  0  0  0  0  0  0  0
  139.2370   71.7390  222.3790 N   0  0  0  0  0  0  0  0  0  0  0  0
  138.9800   70.7100  221.3840 C   0  0  0  0  0  0  0  0  0  0  0  0
  138.1030   69.6860  222.0970 C   0  0  0  0  0  0  0  0  0  0  0  0
  137.8110   70.3090  223.4590 C   0  0  0  0  0  0  0  0  0  0  0  0
  139.0170   71.1530  223.6990 C   0  0  1  0  0  0  0  0  0  0  0  0
  140.2140   70.3230  224.0890 C   0  0  0  0  0  0  0  0  0  0  0  0
  140.5060   70.5620  225.5220 C   0  0  0  0  0  0  0  0  0  0  0  0
  140.6850   71.7930  226.0850 C   0  0  0  0  0  0  0  0  0  0  0  0
  140.9610   71.9390  227.4290 C   0  0  0  0  0  0  0  0  0  0  0  0
  141.0700   70.8460  228.2630 C   0  0  0  0  0  0  0  0  0  0  0  0
  140.8920   69.5930  227.7120 C   0  0  0  0  0  0  0  0  0  0  0  0
  141.0170   68.1580  228.7340 Cl  0  0  0  0  0  0  0  0  0  0  0  0
  140.6150   69.4560  226.3670 C   0  0  0  0  0  0  0  0  0  0  0  0
  139.1150   77.7940  222.7670 C   0  0  0  0  0  0  0  0  0  0  0  0
  138.4030   78.9420  223.0540 C   0  0  0  0  0  0  0  0  0  0  0  0
  139.0540   80.1290  223.3460 C   0  0  0  0  0  0  0  0  0  0  0  0
  140.4520   80.1650  223.3500 C   0  0  0  0  0  0  0  0  0  0  0  0
  141.1320   81.3510  223.6410 C   0  0  0  0  0  0  0  0  0  0  0  0
  142.5120   81.3420  223.6330 C   0  0  0  0  0  0  0  0  0  0  0  0
  143.2260   80.1760  223.3410 C   0  0  0  0  0  0  0  0  0  0  0  0
  142.5310   79.0230  223.0590 C   0  0  0  0  0  0  0  0  0  0  0  0
  141.1440   79.0040  223.0590 C   0  0  0  0  0  0  0  0  0  0  0  0
  140.4750   77.8590  222.7790 N   0  0  0  0  0  0  0  0  0  0  0  0
  140.2500   75.4680  222.2660 H   0  0  0  0  0  0  0  0  0  0  0  0
  137.7362   73.9166  222.5907 H   0  0  0  0  0  0  0  0  0  0  0  0
  138.1740   74.0967  220.8832 H   0  0  0  0  0  0  0  0  0  0  0  0
  138.4532   71.1336  220.5162 H   0  0  0  0  0  0  0  0  0  0  0  0
  139.9091   70.2639  220.9997 H   0  0  0  0  0  0  0  0  0  0  0  0
  137.1700   69.5184  221.5389 H   0  0  0  0  0  0  0  0  0  0  0  0
  138.5941   68.7056  222.1840 H   0  0  0  0  0  0  0  0  0  0  0  0
  136.8980   70.9217  223.4274 H   0  0  0  0  0  0  0  0  0  0  0  0
  137.6342   69.5655  224.2501 H   0  0  0  0  0  0  0  0  0  0  0  0
  138.8795   71.8774  224.5153 H   0  0  0  0  0  0  0  0  0  0  0  0
  139.9947   69.2572  223.9279 H   0  0  0  0  0  0  0  0  0  0  0  0
  141.0829   70.6037  223.4757 H   0  0  0  0  0  0  0  0  0  0  0  0
  140.6073   72.6894  225.4522 H   0  0  0  0  0  0  0  0  0  0  0  0
  141.0970   72.9486  227.8441 H   0  0  0  0  0  0  0  0  0  0  0  0
  141.2918   70.9689  229.3334 H   0  0  0  0  0  0  0  0  0  0  0  0
  140.4763   68.4479  225.9493 H   0  0  0  0  0  0  0  0  0  0  0  0
  137.3034   78.9132  223.0506 H   0  0  0  0  0  0  0  0  0  0  0  0
  138.4757   81.0368  223.5731 H   0  0  0  0  0  0  0  0  0  0  0  0
  140.5783   82.2730  223.8718 H   0  0  0  0  0  0  0  0  0  0  0  0
  143.0598   82.2684  223.8603 H   0  0  0  0  0  0  0  0  0  0  0  0
  144.3260   80.1806  223.3369 H   0  0  0  0  0  0  0  0  0  0  0  0
  143.0844   78.1004  222.8296 H   0  0  0  0  0  0  0  0  0  0  0  0
  1  2  2  0
  2  3  1  0
  3  4  1  0
  4  5  1  0
  5  6  2  0
  5  7  1  0
  7  8  1  0
  8  9  1  0
  9 10  1  0
 10 11  1  0
 11 12  1  0
 12 13  1  0
 13 14  2  0
 14 15  1  0
 15 16  2  0
 16 17  1  0
 17 18  1  0
 17 19  2  0
  2 20  1  0
 20 21  2  0
 21 22  1  0
 22 23  2  0
 23 24  1  0
 24 25  2  0
 25 26  1  0
 26 27  2  0
 27 28  1  0
 28 29  2  0
 11  7  1  0
 19 13  1  0
 29 20  1  0
 28 23  1  0
  3 30  1  0
  4 31  1  0
  4 32  1  0
  8 33  1  0
  8 34  1  0
  9 35  1  0
  9 36  1  0
 10 37  1  0
 10 38  1  0
 11 39  1  1
 12 40  1  0
 12 41  1  0
 14 42  1  0
 15 43  1  0
 16 44  1  0
 19 45  1  0
 21 46  1  0
 22 47  1  0
 24 48  1  0
 25 49  1  0
 26 50  1  0
 27 51  1  0
M  END
>  <smiles>  (96) 
O=C(NCC(=O)N1CCCC1Cc1cccc(Cl)c1)c1ccc2ccccc2n1

>  <score_type>  (96) 
oracle

>  <origin>  (96) 
autodockgpu

>  <m_score__min__energy>  (96) 
-9.2400000000000002

>  <m_primary>  (96) 
energy

>  <rmsd>  (96) 
8.379595804710203

>  <m_score__min__rmsd>  (96) 
8.379595804710203

>  <meeko>  (96) 
{"free_energy": -9.1, "intermolecular_energy": -10.89, "internal_energy": -2.12, "cluster_size": 10, "cluster_id": 2, "rank_in_cluster": 3}

>  <energy>  (96) 
-7.82

>  <cluster_rmsd>  (96) 
1.06

>  <cluster>  (96) 
3

$$$$

     RDKit          3D

 51 54  0  0  0  0  0  0  0  0999 V2000
  140.1790   71.2220  221.1950 O   0  0  0  0  0  0  0  0  0  0  0  0
  139.9900   71.8980  222.2380 C   0  0  0  0  0  0  0  0  0  0  0  0
  139.7750   73.3040  222.2100 N   0  0  0  0  0  0  0  0  0  0  0  0
  139.7620   74.0390  220.9610 C   0  0  0  0  0  0  0  0  0  0  0  0
  140.3220   75.3820  221.2670 C   0  0  0  0  0  0  0  0  0  0  0  0
  140.2320   75.9230  222.3850 O   0  0  0  0  0  0  0  0  0  0  0  0
  140.9980   76.0910  220.2220 N   0  0  0  0  0  0  0  0  0  0  0  0
  140.8040   75.8680  218.7990 C   0  0  0  0  0  0  0  0  0  0  0  0
  142.0620   76.4240  218.1400 C   0  0  0  0  0  0  0  0  0  0  0  0
  142.9660   76.8160  219.3040 C   0  0  0  0  0  0  0  0  0  0  0  0
  141.9900   77.1520  220.3800 C   0  0  1  0  0  0  0  0  0  0  0  0
  141.3370   78.4920  220.1480 C   0  0  0  0  0  0  0  0  0  0  0  0
  141.3990   79.2700  221.4070 C   0  0  0  0  0  0  0  0  0  0  0  0
  142.5460   79.7470  221.9720 C   0  0  0  0  0  0  0  0  0  0  0  0
  142.5280   80.4610  223.1520 C   0  0  0  0  0  0  0  0  0  0  0  0
  141.3470   80.7230  223.8140 C   0  0  0  0  0  0  0  0  0  0  0  0
  140.1750   80.2490  223.2580 C   0  0  0  0  0  0  0  0  0  0  0  0
  138.6330   80.5570  224.0630 Cl  0  0  0  0  0  0  0  0  0  0  0  0
  140.2030   79.5360  222.0770 C   0  0  0  0  0  0  0  0  0  0  0  0
  139.9870   71.2320  223.5440 C   0  0  0  0  0  0  0  0  0  0  0  0
  139.4730   69.9570  223.6740 C   0  0  0  0  0  0  0  0  0  0  0  0
  139.4640   69.3150  224.9000 C   0  0  0  0  0  0  0  0  0  0  0  0
  139.9830   69.9670  226.0230 C   0  0  0  0  0  0  0  0  0  0  0  0
  139.9850   69.3400  227.2730 C   0  0  0  0  0  0  0  0  0  0  0  0
  140.5060   70.0200  228.3540 C   0  0  0  0  0  0  0  0  0  0  0  0
  141.0260   71.3100  228.2150 C   0  0  0  0  0  0  0  0  0  0  0  0
  141.0110   71.9030  226.9740 C   0  0  0  0  0  0  0  0  0  0  0  0
  140.4920   71.2430  225.8700 C   0  0  0  0  0  0  0  0  0  0  0  0
  140.4860   71.8420  224.6550 N   0  0  0  0  0  0  0  0  0  0  0  0
  139.6220   73.8100  223.1290 H   0  0  0  0  0  0  0  0  0  0  0  0
  140.3835   73.5281  220.2109 H   0  0  0  0  0  0  0  0  0  0  0  0
  138.7450   74.1122  220.5484 H   0  0  0  0  0  0  0  0  0  0  0  0
  140.6981   74.7939  218.5864 H   0  0  0  0  0  0  0  0  0  0  0  0
  139.8909   76.3536  218.4243 H   0  0  0  0  0  0  0  0  0  0  0  0
  142.5440   75.6577  217.5152 H   0  0  0  0  0  0  0  0  0  0  0  0
  141.8441   77.2741  217.4768 H   0  0  0  0  0  0  0  0  0  0  0  0
  143.6130   75.9782  219.6031 H   0  0  0  0  0  0  0  0  0  0  0  0
  143.6521   77.6417  219.0643 H   0  0  0  0  0  0  0  0  0  0  0  0
  142.4529   77.2161  221.3758 H   0  0  0  0  0  0  0  0  0  0  0  0
  141.8705   79.0317  219.3517 H   0  0  0  0  0  0  0  0  0  0  0  0
  140.2895   78.3527  219.8425 H   0  0  0  0  0  0  0  0  0  0  0  0
  143.5084   79.5574  221.4742 H   0  0  0  0  0  0  0  0  0  0  0  0
  143.4750   80.8289  223.5736 H   0  0  0  0  0  0  0  0  0  0  0  0
  141.3387   81.2918  224.7555 H   0  0  0  0  0  0  0  0  0  0  0  0
  139.2579   79.1672  221.6519 H   0  0  0  0  0  0  0  0  0  0  0  0
  139.0649   69.4443  222.7905 H   0  0  0  0  0  0  0  0  0  0  0  0
  139.0516   68.2993  224.9904 H   0  0  0  0  0  0  0  0  0  0  0  0
  139.5791   68.3246  227.3918 H   0  0  0  0  0  0  0  0  0  0  0  0
  140.5124   69.5386  229.3431 H   0  0  0  0  0  0  0  0  0  0  0  0
  141.4405   71.8422  229.0839 H   0  0  0  0  0  0  0  0  0  0  0  0
  141.4176   72.9181  226.8551 H   0  0  0  0  0  0  0  0  0  0  0  0
  1  2  2  0
  2  3  1  0
  3  4  1  0
  4  5  1  0
  5  6  2  0
  5  7  1  0
  7  8  1  0
  8  9  1  0
  9 10  1  0
 10 11  1  0
 11 12  1  0
 12 13  1  0
 13 14  2  0
 14 15  1  0
 15 16  2  0
 16 17  1  0
 17 18  1  0
 17 19  2  0
  2 20  1  0
 20 21  2  0
 21 22  1  0
 22 23  2  0
 23 24  1  0
 24 25  2  0
 25 26  1  0
 26 27  2  0
 27 28  1  0
 28 29  2  0
 11  7  1  0
 19 13  1  0
 29 20  1  0
 28 23  1  0
  3 30  1  0
  4 31  1  0
  4 32  1  0
  8 33  1  0
  8 34  1  0
  9 35  1  0
  9 36  1  0
 10 37  1  0
 10 38  1  0
 11 39  1  1
 12 40  1  0
 12 41  1  0
 14 42  1  0
 15 43  1  0
 16 44  1  0
 19 45  1  0
 21 46  1  0
 22 47  1  0
 24 48  1  0
 25 49  1  0
 26 50  1  0
 27 51  1  0
M  END
>  <smiles>  (97) 
O=C(NCC(=O)N1CCCC1Cc1cccc(Cl)c1)c1ccc2ccccc2n1

>  <score_type>  (97) 
oracle

>  <origin>  (97) 
autodockgpu

>  <m_score__min__energy>  (97) 
-9.2400000000000002

>  <m_primary>  (97) 
energy

>  <rmsd>  (97) 
1.5836330129935685

>  <m_score__min__rmsd>  (97) 
1.5836330129935685

>  <meeko>  (97) 
{"free_energy": -9.15, "intermolecular_energy": -10.94, "internal_energy": -1.96, "cluster_size": 18, "cluster_id": 1, "rank_in_cluster": 3}

>  <energy>  (97) 
-8.83

>  <cluster_rmsd>  (97) 
0.0

>  <cluster>  (97) 
4

$$$$

     RDKit          3D

 51 54  0  0  0  0  0  0  0  0999 V2000
  140.8570   71.5420  221.3240 O   0  0  0  0  0  0  0  0  0  0  0  0
  140.2590   72.0840  222.2880 C   0  0  0  0  0  0  0  0  0  0  0  0
  139.6690   73.3750  222.1940 N   0  0  0  0  0  0  0  0  0  0  0  0
  139.7300   74.1420  220.9660 C   0  0  0  0  0  0  0  0  0  0  0  0
  140.4640   75.3920  221.2970 C   0  0  0  0  0  0  0  0  0  0  0  0
  140.5430   75.8560  222.4500 O   0  0  0  0  0  0  0  0  0  0  0  0
  141.1130   76.1010  220.2350 N   0  0  0  0  0  0  0  0  0  0  0  0
  140.9000   75.8610  218.8170 C   0  0  0  0  0  0  0  0  0  0  0  0
  142.1380   76.4300  218.1330 C   0  0  0  0  0  0  0  0  0  0  0  0
  143.0550   76.8470  219.2780 C   0  0  0  0  0  0  0  0  0  0  0  0
  142.0910   77.1790  220.3670 C   0  0  1  0  0  0  0  0  0  0  0  0
  141.4140   78.5060  220.1320 C   0  0  0  0  0  0  0  0  0  0  0  0
  141.4160   79.2680  221.4020 C   0  0  0  0  0  0  0  0  0  0  0  0
  142.5360   79.7380  222.0250 C   0  0  0  0  0  0  0  0  0  0  0  0
  142.4630   80.4360  223.2130 C   0  0  0  0  0  0  0  0  0  0  0  0
  141.2520   80.6890  223.8240 C   0  0  0  0  0  0  0  0  0  0  0  0
  140.1080   80.2210  223.2090 C   0  0  0  0  0  0  0  0  0  0  0  0
  138.5300   80.5170  223.9460 Cl  0  0  0  0  0  0  0  0  0  0  0  0
  140.1910   79.5240  222.0200 C   0  0  0  0  0  0  0  0  0  0  0  0
  140.1530   71.3750  223.5670 C   0  0  0  0  0  0  0  0  0  0  0  0
  139.5420   70.1380  223.6280 C   0  0  0  0  0  0  0  0  0  0  0  0
  139.4340   69.4560  224.8280 C   0  0  0  0  0  0  0  0  0  0  0  0
  139.9520   70.0280  225.9950 C   0  0  0  0  0  0  0  0  0  0  0  0
  139.8560   69.3600  227.2180 C   0  0  0  0  0  0  0  0  0  0  0  0
  140.3800   69.9610  228.3450 C   0  0  0  0  0  0  0  0  0  0  0  0
  140.9970   71.2140  228.2750 C   0  0  0  0  0  0  0  0  0  0  0  0
  141.0780   71.8480  227.0570 C   0  0  0  0  0  0  0  0  0  0  0  0
  140.5590   71.2680  225.9090 C   0  0  0  0  0  0  0  0  0  0  0  0
  140.6480   71.9070  224.7180 N   0  0  0  0  0  0  0  0  0  0  0  0
  139.1800   73.7700  223.0480 H   0  0  0  0  0  0  0  0  0  0  0  0
  140.2675   73.5777  220.1897 H   0  0  0  0  0  0  0  0  0  0  0  0
  138.7242   74.3576  220.5763 H   0  0  0  0  0  0  0  0  0  0  0  0
  140.8077   74.7834  218.6164 H   0  0  0  0  0  0  0  0  0  0  0  0
  139.9735   76.3285  218.4523 H   0  0  0  0  0  0  0  0  0  0  0  0
  142.6216   75.6653  217.5074 H   0  0  0  0  0  0  0  0  0  0  0  0
  141.8960   77.2706  217.4661 H   0  0  0  0  0  0  0  0  0  0  0  0
  143.7194   76.0220  219.5745 H   0  0  0  0  0  0  0  0  0  0  0  0
  143.7246   77.6804  219.0192 H   0  0  0  0  0  0  0  0  0  0  0  0
  142.5684   77.2602  221.3547 H   0  0  0  0  0  0  0  0  0  0  0  0
  141.9599   79.0693  219.3608 H   0  0  0  0  0  0  0  0  0  0  0  0
  140.3805   78.3458  219.7911 H   0  0  0  0  0  0  0  0  0  0  0  0
  143.5203   79.5559  221.5690 H   0  0  0  0  0  0  0  0  0  0  0  0
  143.3894   80.7982  223.6827 H   0  0  0  0  0  0  0  0  0  0  0  0
  141.1997   81.2460  224.7711 H   0  0  0  0  0  0  0  0  0  0  0  0
  139.2667   79.1607  221.5470 H   0  0  0  0  0  0  0  0  0  0  0  0
  139.1354   69.6882  222.7102 H   0  0  0  0  0  0  0  0  0  0  0  0
  138.9445   68.4716  224.8636 H   0  0  0  0  0  0  0  0  0  0  0  0
  139.3722   68.3742  227.2819 H   0  0  0  0  0  0  0  0  0  0  0  0
  140.3110   69.4456  229.3143 H   0  0  0  0  0  0  0  0  0  0  0  0
  141.4107   71.6848  229.1790 H   0  0  0  0  0  0  0  0  0  0  0  0
  141.5633   72.8330  226.9923 H   0  0  0  0  0  0  0  0  0  0  0  0
  1  2  2  0
  2  3  1  0
  3  4  1  0
  4  5  1  0
  5  6  2  0
  5  7  1  0
  7  8  1  0
  8  9  1  0
  9 10  1  0
 10 11  1  0
 11 12  1  0
 12 13  1  0
 13 14  2  0
 14 15  1  0
 15 16  2  0
 16 17  1  0
 17 18  1  0
 17 19  2  0
  2 20  1  0
 20 21  2  0
 21 22  1  0
 22 23  2  0
 23 24  1  0
 24 25  2  0
 25 26  1  0
 26 27  2  0
 27 28  1  0
 28 29  2  0
 11  7  1  0
 19 13  1  0
 29 20  1  0
 28 23  1  0
  3 30  1  0
  4 31  1  0
  4 32  1  0
  8 33  1  0
  8 34  1  0
  9 35  1  0
  9 36  1  0
 10 37  1  0
 10 38  1  0
 11 39  1  1
 12 40  1  0
 12 41  1  0
 14 42  1  0
 15 43  1  0
 16 44  1  0
 19 45  1  0
 21 46  1  0
 22 47  1  0
 24 48  1  0
 25 49  1  0
 26 50  1  0
 27 51  1  0
M  END
>  <smiles>  (98) 
O=C(NCC(=O)N1CCCC1Cc1cccc(Cl)c1)c1ccc2ccccc2n1

>  <score_type>  (98) 
oracle

>  <origin>  (98) 
autodockgpu

>  <m_score__min__energy>  (98) 
-9.2400000000000002

>  <m_primary>  (98) 
energy

>  <rmsd>  (98) 
1.6492431914156158

>  <m_score__min__rmsd>  (98) 
1.6492431914156158

>  <meeko>  (98) 
{"free_energy": -9.24, "intermolecular_energy": -11.03, "internal_energy": -1.64, "cluster_size": 18, "cluster_id": 1, "rank_in_cluster": 1}

>  <energy>  (98) 
-8.68

>  <cluster_rmsd>  (98) 
0.68

>  <cluster>  (98) 
4

$$$$

     RDKit          3D

 51 54  0  0  0  0  0  0  0  0999 V2000
  141.0630   71.3550  221.3380 O   0  0  0  0  0  0  0  0  0  0  0  0
  140.5900   72.0000  222.3080 C   0  0  0  0  0  0  0  0  0  0  0  0
  140.2980   73.3900  222.2340 N   0  0  0  0  0  0  0  0  0  0  0  0
  140.5330   74.1440  221.0190 C   0  0  0  0  0  0  0  0  0  0  0  0
  140.7150   75.5590  221.4400 C   0  0  0  0  0  0  0  0  0  0  0  0
  140.2810   76.0150  222.5140 O   0  0  0  0  0  0  0  0  0  0  0  0
  141.4250   76.4430  220.5650 N   0  0  0  0  0  0  0  0  0  0  0  0
  141.4840   77.8890  220.7060 C   0  0  0  0  0  0  0  0  0  0  0  0
  141.8590   78.4030  219.3200 C   0  0  0  0  0  0  0  0  0  0  0  0
  141.8530   77.1620  218.4330 C   0  0  0  0  0  0  0  0  0  0  0  0
  142.2080   76.0730  219.3890 C   0  0  1  0  0  0  0  0  0  0  0  0
  143.6760   76.0890  219.7360 C   0  0  0  0  0  0  0  0  0  0  0  0
  144.1110   74.6980  220.0060 C   0  0  0  0  0  0  0  0  0  0  0  0
  145.1670   74.3530  220.7980 C   0  0  0  0  0  0  0  0  0  0  0  0
  145.5190   73.0340  221.0000 C   0  0  0  0  0  0  0  0  0  0  0  0
  144.8160   72.0050  220.4080 C   0  0  0  0  0  0  0  0  0  0  0  0
  143.7440   72.3350  219.6030 C   0  0  0  0  0  0  0  0  0  0  0  0
  142.8080   71.0570  218.8210 Cl  0  0  0  0  0  0  0  0  0  0  0  0
  143.3990   73.6570  219.4070 C   0  0  0  0  0  0  0  0  0  0  0  0
  140.3230   71.3120  223.5750 C   0  0  0  0  0  0  0  0  0  0  0  0
  139.6800   70.0910  223.5810 C   0  0  0  0  0  0  0  0  0  0  0  0
  139.4210   69.4290  224.7700 C   0  0  0  0  0  0  0  0  0  0  0  0
  139.8160   70.0060  225.9800 C   0  0  0  0  0  0  0  0  0  0  0  0
  139.5660   69.3580  227.1930 C   0  0  0  0  0  0  0  0  0  0  0  0
  139.9730   69.9640  228.3640 C   0  0  0  0  0  0  0  0  0  0  0  0
  140.6250   71.2000  228.3500 C   0  0  0  0  0  0  0  0  0  0  0  0
  140.8580   71.8160  227.1420 C   0  0  0  0  0  0  0  0  0  0  0  0
  140.4590   71.2300  225.9500 C   0  0  0  0  0  0  0  0  0  0  0  0
  140.6970   71.8500  224.7690 N   0  0  0  0  0  0  0  0  0  0  0  0
  139.9010   73.8700  223.0920 H   0  0  0  0  0  0  0  0  0  0  0  0
  141.4373   73.7775  220.5112 H   0  0  0  0  0  0  0  0  0  0  0  0
  139.6960   74.0394  220.3130 H   0  0  0  0  0  0  0  0  0  0  0  0
  140.5067   78.2879  221.0154 H   0  0  0  0  0  0  0  0  0  0  0  0
  142.2076   78.2012  221.4734 H   0  0  0  0  0  0  0  0  0  0  0  0
  141.1204   79.1370  218.9654 H   0  0  0  0  0  0  0  0  0  0  0  0
  142.8331   78.9140  219.3148 H   0  0  0  0  0  0  0  0  0  0  0  0
  140.8592   76.9944  217.9923 H   0  0  0  0  0  0  0  0  0  0  0  0
  142.5414   77.2335  217.5781 H   0  0  0  0  0  0  0  0  0  0  0  0
  142.0067   75.0678  218.9901 H   0  0  0  0  0  0  0  0  0  0  0  0
  144.2517   76.5009  218.8941 H   0  0  0  0  0  0  0  0  0  0  0  0
  143.8465   76.7161  220.6235 H   0  0  0  0  0  0  0  0  0  0  0  0
  145.7521   75.1455  221.2875 H   0  0  0  0  0  0  0  0  0  0  0  0
  146.3775   72.7983  221.6461 H   0  0  0  0  0  0  0  0  0  0  0  0
  145.1005   70.9552  220.5722 H   0  0  0  0  0  0  0  0  0  0  0  0
  142.5407   73.8967  218.7621 H   0  0  0  0  0  0  0  0  0  0  0  0
  139.3688   69.6371  222.6285 H   0  0  0  0  0  0  0  0  0  0  0  0
  138.9080   68.4560  224.7618 H   0  0  0  0  0  0  0  0  0  0  0  0
  139.0549   68.3842  227.2137 H   0  0  0  0  0  0  0  0  0  0  0  0
  139.7809   69.4654  229.3255 H   0  0  0  0  0  0  0  0  0  0  0  0
  140.9467   71.6728  229.2897 H   0  0  0  0  0  0  0  0  0  0  0  0
  141.3694   72.7897  227.1213 H   0  0  0  0  0  0  0  0  0  0  0  0
  1  2  2  0
  2  3  1  0
  3  4  1  0
  4  5  1  0
  5  6  2  0
  5  7  1  0
  7  8  1  0
  8  9  1  0
  9 10  1  0
 10 11  1  0
 11 12  1  0
 12 13  1  0
 13 14  2  0
 14 15  1  0
 15 16  2  0
 16 17  1  0
 17 18  1  0
 17 19  2  0
  2 20  1  0
 20 21  2  0
 21 22  1  0
 22 23  2  0
 23 24  1  0
 24 25  2  0
 25 26  1  0
 26 27  2  0
 27 28  1  0
 28 29  2  0
 11  7  1  0
 19 13  1  0
 29 20  1  0
 28 23  1  0
  3 30  1  0
  4 31  1  0
  4 32  1  0
  8 33  1  0
  8 34  1  0
  9 35  1  0
  9 36  1  0
 10 37  1  0
 10 38  1  0
 11 39  1  6
 12 40  1  0
 12 41  1  0
 14 42  1  0
 15 43  1  0
 16 44  1  0
 19 45  1  0
 21 46  1  0
 22 47  1  0
 24 48  1  0
 25 49  1  0
 26 50  1  0
 27 51  1  0
M  END
>  <smiles>  (99) 
O=C(NCC(=O)N1CCCC1Cc1cccc(Cl)c1)c1ccc2ccccc2n1

>  <score_type>  (99) 
oracle

>  <origin>  (99) 
autodockgpu

>  <m_score__min__energy>  (99) 
-9.2400000000000002

>  <m_primary>  (99) 
energy

>  <rmsd>  (99) 
2.2763769052560106

>  <m_score__min__rmsd>  (99) 
2.2763769052560106

>  <meeko>  (99) 
{"free_energy": -8.54, "intermolecular_energy": -10.33, "internal_energy": -2.5, "cluster_size": 18, "cluster_id": 3, "rank_in_cluster": 12}

>  <energy>  (99) 
-8.43

>  <cluster_rmsd>  (99) 
0.0

>  <cluster>  (99) 
5

$$$$

     RDKit          3D

 51 54  0  0  0  0  0  0  0  0999 V2000
  139.7730   71.1910  221.2230 O   0  0  0  0  0  0  0  0  0  0  0  0
  139.7430   71.8650  222.2840 C   0  0  0  0  0  0  0  0  0  0  0  0
  139.6050   73.2810  222.2880 N   0  0  0  0  0  0  0  0  0  0  0  0
  139.4900   74.0290  221.0520 C   0  0  0  0  0  0  0  0  0  0  0  0
  140.1230   75.3500  221.3090 C   0  0  0  0  0  0  0  0  0  0  0  0
  139.9890   75.9770  222.3760 O   0  0  0  0  0  0  0  0  0  0  0  0
  140.9260   75.9320  220.2760 N   0  0  0  0  0  0  0  0  0  0  0  0
  140.7600   75.6900  218.8520 C   0  0  0  0  0  0  0  0  0  0  0  0
  142.1050   76.0580  218.2330 C   0  0  0  0  0  0  0  0  0  0  0  0
  143.0070   76.3660  219.4240 C   0  0  0  0  0  0  0  0  0  0  0  0
  142.0420   76.8600  220.4480 C   0  0  1  0  0  0  0  0  0  0  0  0
  141.5790   78.2650  220.1520 C   0  0  0  0  0  0  0  0  0  0  0  0
  141.5040   79.0140  221.4280 C   0  0  0  0  0  0  0  0  0  0  0  0
  142.5830   79.4880  222.1170 C   0  0  0  0  0  0  0  0  0  0  0  0
  142.4380   80.1740  223.3050 C   0  0  0  0  0  0  0  0  0  0  0  0
  141.1930   80.4100  223.8490 C   0  0  0  0  0  0  0  0  0  0  0  0
  140.0880   79.9390  223.1670 C   0  0  0  0  0  0  0  0  0  0  0  0
  138.4700   80.2150  223.8170 Cl  0  0  0  0  0  0  0  0  0  0  0  0
  140.2440   79.2540  221.9790 C   0  0  0  0  0  0  0  0  0  0  0  0
  139.8540   71.1860  223.5790 C   0  0  0  0  0  0  0  0  0  0  0  0
  139.4680   69.8660  223.7070 C   0  0  0  0  0  0  0  0  0  0  0  0
  139.5660   69.2110  224.9230 C   0  0  0  0  0  0  0  0  0  0  0  0
  140.0640   69.8950  226.0360 C   0  0  0  0  0  0  0  0  0  0  0  0
  140.1730   69.2560  227.2740 C   0  0  0  0  0  0  0  0  0  0  0  0
  140.6700   69.9690  228.3460 C   0  0  0  0  0  0  0  0  0  0  0  0
  141.0590   71.3040  228.2090 C   0  0  0  0  0  0  0  0  0  0  0  0
  140.9410   71.9080  226.9790 C   0  0  0  0  0  0  0  0  0  0  0  0
  140.4440   71.2160  225.8840 C   0  0  0  0  0  0  0  0  0  0  0  0
  140.3360   71.8270  224.6800 N   0  0  0  0  0  0  0  0  0  0  0  0
  139.5880   73.7840  223.2210 H   0  0  0  0  0  0  0  0  0  0  0  0
  140.0148   73.5059  220.2390 H   0  0  0  0  0  0  0  0  0  0  0  0
  138.4394   74.1396  220.7455 H   0  0  0  0  0  0  0  0  0  0  0  0
  140.5236   74.6323  218.6640 H   0  0  0  0  0  0  0  0  0  0  0  0
  139.9330   76.2766  218.4255 H   0  0  0  0  0  0  0  0  0  0  0  0
  142.5067   75.2167  217.6493 H   0  0  0  0  0  0  0  0  0  0  0  0
  142.0258   76.9082  217.5396 H   0  0  0  0  0  0  0  0  0  0  0  0
  143.5264   75.4611  219.7725 H   0  0  0  0  0  0  0  0  0  0  0  0
  143.8044   77.0874  219.1922 H   0  0  0  0  0  0  0  0  0  0  0  0
  142.4704   76.8953  221.4605 H   0  0  0  0  0  0  0  0  0  0  0  0
  142.2933   78.7562  219.4749 H   0  0  0  0  0  0  0  0  0  0  0  0
  140.5906   78.2423  219.6697 H   0  0  0  0  0  0  0  0  0  0  0  0
  143.5928   79.3188  221.7150 H   0  0  0  0  0  0  0  0  0  0  0  0
  143.3333   80.5401  223.8288 H   0  0  0  0  0  0  0  0  0  0  0  0
  141.0832   80.9567  224.7972 H   0  0  0  0  0  0  0  0  0  0  0  0
  139.3510   78.8871  221.4519 H   0  0  0  0  0  0  0  0  0  0  0  0
  139.0774   69.3277  222.8309 H   0  0  0  0  0  0  0  0  0  0  0  0
  139.2542   68.1599  225.0127 H   0  0  0  0  0  0  0  0  0  0  0  0
  139.8687   68.2055  227.3917 H   0  0  0  0  0  0  0  0  0  0  0  0
  140.7615   69.4775  229.3258 H   0  0  0  0  0  0  0  0  0  0  0  0
  141.4531   71.8627  229.0707 H   0  0  0  0  0  0  0  0  0  0  0  0
  141.2460   72.9583  226.8614 H   0  0  0  0  0  0  0  0  0  0  0  0
  1  2  2  0
  2  3  1  0
  3  4  1  0
  4  5  1  0
  5  6  2  0
  5  7  1  0
  7  8  1  0
  8  9  1  0
  9 10  1  0
 10 11  1  0
 11 12  1  0
 12 13  1  0
 13 14  2  0
 14 15  1  0
 15 16  2  0
 16 17  1  0
 17 18  1  0
 17 19  2  0
  2 20  1  0
 20 21  2  0
 21 22  1  0
 22 23  2  0
 23 24  1  0
 24 25  2  0
 25 26  1  0
 26 27  2  0
 27 28  1  0
 28 29  2  0
 11  7  1  0
 19 13  1  0
 29 20  1  0
 28 23  1  0
  3 30  1  0
  4 31  1  0
  4 32  1  0
  8 33  1  0
  8 34  1  0
  9 35  1  0
  9 36  1  0
 10 37  1  0
 10 38  1  0
 11 39  1  1
 12 40  1  0
 12 41  1  0
 14 42  1  0
 15 43  1  0
 16 44  1  0
 19 45  1  0
 21 46  1  0
 22 47  1  0
 24 48  1  0
 25 49  1  0
 26 50  1  0
 27 51  1  0
M  END
>  <smiles>  (100) 
O=C(NCC(=O)N1CCCC1Cc1cccc(Cl)c1)c1ccc2ccccc2n1

>  <score_type>  (100) 
oracle

>  <origin>  (100) 
autodockgpu

>  <m_score__min__energy>  (100) 
-9.2400000000000002

>  <m_primary>  (100) 
energy

>  <rmsd>  (100) 
1.5554533420821821

>  <m_score__min__rmsd>  (100) 
1.5554533420821821

>  <meeko>  (100) 
{"free_energy": -9.04, "intermolecular_energy": -10.83, "internal_energy": -2.01, "cluster_size": 18, "cluster_id": 1, "rank_in_cluster": 6}

>  <energy>  (100) 
-7.11

>  <cluster_rmsd>  (100) 
0.0

>  <cluster>  (100) 
6

$$$$
