
     RDKit          3D

 54 57  0  0  0  0  0  0  0  0999 V2000
  139.4460   70.6130  221.4640 O   0  0  0  0  0  0  0  0  0  0  0  0
  139.4130   71.4030  222.4330 C   0  0  0  0  0  0  0  0  0  0  0  0
  138.9080   72.7090  222.2110 N   0  0  0  0  0  0  0  0  0  0  0  0
  138.4400   73.1510  220.9310 C   0  0  0  0  0  0  0  0  0  0  0  0
  139.1750   74.3440  220.4370 C   0  0  0  0  0  0  0  0  0  0  0  0
  138.5270   75.1490  219.7220 O   0  0  0  0  0  0  0  0  0  0  0  0
  140.5390   74.5020  220.7900 N   0  0  0  0  0  0  0  0  0  0  0  0
  141.5270   73.4880  220.3790 C   0  0  0  0  0  0  0  0  0  0  0  0
  142.8420   74.1780  220.2910 C   0  0  0  0  0  0  0  0  0  0  0  0
  142.7640   75.5910  219.8020 C   0  0  0  0  0  0  0  0  0  0  0  0
  141.8400   76.4790  220.5660 C   0  0  0  0  0  0  0  0  0  0  0  0
  141.0650   75.6130  221.5500 C   0  0  1  0  0  0  0  0  0  0  0  0
  140.0660   76.3920  222.3270 C   0  0  0  0  0  0  0  0  0  0  0  0
  140.4360   77.8540  222.2550 C   0  0  0  0  0  0  0  0  0  0  0  0
  139.7450   78.6640  221.3660 C   0  0  0  0  0  0  0  0  0  0  0  0
  140.0310   80.0220  221.2400 C   0  0  0  0  0  0  0  0  0  0  0  0
  141.0310   80.5590  222.0310 C   0  0  0  0  0  0  0  0  0  0  0  0
  141.4530   82.2750  221.9310 Cl  0  0  0  0  0  0  0  0  0  0  0  0
  141.7230   79.7440  222.9220 C   0  0  0  0  0  0  0  0  0  0  0  0
  141.4330   78.3910  223.0420 C   0  0  0  0  0  0  0  0  0  0  0  0
  139.8760   71.0230  223.7810 C   0  0  0  0  0  0  0  0  0  0  0  0
  140.6540   71.8920  224.5100 C   0  0  0  0  0  0  0  0  0  0  0  0
  141.0530   71.4740  225.7650 C   0  0  0  0  0  0  0  0  0  0  0  0
  140.7020   70.2460  226.2800 C   0  0  0  0  0  0  0  0  0  0  0  0
  141.0850   69.8000  227.5240 C   0  0  0  0  0  0  0  0  0  0  0  0
  140.7000   68.5510  227.9910 C   0  0  0  0  0  0  0  0  0  0  0  0
  141.0690   68.1050  229.2090 F   0  0  0  0  0  0  0  0  0  0  0  0
  139.9170   67.7120  227.2190 C   0  0  0  0  0  0  0  0  0  0  0  0
  139.5220   68.1470  225.9590 C   0  0  0  0  0  0  0  0  0  0  0  0
  139.9160   69.3970  225.5090 C   0  0  0  0  0  0  0  0  0  0  0  0
  139.5370   69.8220  224.2930 N   0  0  0  0  0  0  0  0  0  0  0  0
  138.8910   73.3580  223.0530 H   0  0  0  0  0  0  0  0  0  0  0  0
  138.5681   72.3329  220.2069 H   0  0  0  0  0  0  0  0  0  0  0  0
  137.3822   73.4321  221.0409 H   0  0  0  0  0  0  0  0  0  0  0  0
  141.5726   72.6802  221.1242 H   0  0  0  0  0  0  0  0  0  0  0  0
  141.2522   73.0388  219.4132 H   0  0  0  0  0  0  0  0  0  0  0  0
  143.2955   74.1846  221.2932 H   0  0  0  0  0  0  0  0  0  0  0  0
  143.4412   73.6221  219.5548 H   0  0  0  0  0  0  0  0  0  0  0  0
  143.7734   76.0251  219.8542 H   0  0  0  0  0  0  0  0  0  0  0  0
  142.3600   75.5379  218.7803 H   0  0  0  0  0  0  0  0  0  0  0  0
  142.4183   77.2389  221.1120 H   0  0  0  0  0  0  0  0  0  0  0  0
  141.1492   76.9927  219.8813 H   0  0  0  0  0  0  0  0  0  0  0  0
  141.7116   75.2155  222.3462 H   0  0  0  0  0  0  0  0  0  0  0  0
  139.0640   76.2415  221.8989 H   0  0  0  0  0  0  0  0  0  0  0  0
  140.0591   76.0565  223.3746 H   0  0  0  0  0  0  0  0  0  0  0  0
  138.9513   78.2233  220.7448 H   0  0  0  0  0  0  0  0  0  0  0  0
  139.4755   80.6514  220.5292 H   0  0  0  0  0  0  0  0  0  0  0  0
  142.5173   80.1811  223.5450 H   0  0  0  0  0  0  0  0  0  0  0  0
  141.9881   77.7597  223.7514 H   0  0  0  0  0  0  0  0  0  0  0  0
  140.9453   72.8752  224.1119 H   0  0  0  0  0  0  0  0  0  0  0  0
  141.6737   72.1467  226.3751 H   0  0  0  0  0  0  0  0  0  0  0  0
  141.7081   70.4455  228.1604 H   0  0  0  0  0  0  0  0  0  0  0  0
  139.6137   66.7231  227.5934 H   0  0  0  0  0  0  0  0  0  0  0  0
  138.8993   67.5016  225.3220 H   0  0  0  0  0  0  0  0  0  0  0  0
  1  2  2  0
  2  3  1  0
  3  4  1  0
  4  5  1  0
  5  6  2  0
  5  7  1  0
  7  8  1  0
  8  9  1  0
  9 10  1  0
 10 11  1  0
 11 12  1  0
 12 13  1  0
 13 14  1  0
 14 15  2  0
 15 16  1  0
 16 17  2  0
 17 18  1  0
 17 19  1  0
 19 20  2  0
  2 21  1  0
 21 22  2  0
 22 23  1  0
 23 24  2  0
 24 25  1  0
 25 26  2  0
 26 27  1  0
 26 28  1  0
 28 29  2  0
 29 30  1  0
 30 31  2  0
 12  7  1  0
 20 14  1  0
 31 21  1  0
 30 24  1  0
  3 32  1  0
  4 33  1  0
  4 34  1  0
  8 35  1  0
  8 36  1  0
  9 37  1  0
  9 38  1  0
 10 39  1  0
 10 40  1  0
 11 41  1  0
 11 42  1  0
 12 43  1  1
 13 44  1  0
 13 45  1  0
 15 46  1  0
 16 47  1  0
 19 48  1  0
 20 49  1  0
 22 50  1  0
 23 51  1  0
 25 52  1  0
 28 53  1  0
 29 54  1  0
M  END
>  <smiles>  (1) 
O=C(NCC(=O)N1CCCC[C@H]1Cc1ccc(Cl)cc1)c1ccc2cc(F)ccc2n1

>  <score_type>  (1) 
oracle

>  <origin>  (1) 
autodockgpu

>  <m_score__min__energy>  (1) 
-9.2100000000000009

>  <m_primary>  (1) 
energy

>  <rmsd>  (1) 
3.136401308310704

>  <m_score__min__rmsd>  (1) 
3.136401308310704

>  <meeko>  (1) 
{"free_energy": -8.43, "intermolecular_energy": -10.22, "internal_energy": -1.64, "cluster_size": 39, "cluster_id": 1, "rank_in_cluster": 30}

>  <energy>  (1) 
-9.21

>  <cluster_rmsd>  (1) 
0.0

>  <cluster>  (1) 
1

$$$$

     RDKit          3D

 54 57  0  0  0  0  0  0  0  0999 V2000
  138.6060   71.0460  221.1320 O   0  0  0  0  0  0  0  0  0  0  0  0
  138.9510   71.6060  222.1970 C   0  0  0  0  0  0  0  0  0  0  0  0
  139.0010   73.0220  222.2190 N   0  0  0  0  0  0  0  0  0  0  0  0
  138.6750   73.8270  221.0790 C   0  0  0  0  0  0  0  0  0  0  0  0
  139.7970   73.9220  220.1100 C   0  0  0  0  0  0  0  0  0  0  0  0
  139.5330   73.6470  218.9130 O   0  0  0  0  0  0  0  0  0  0  0  0
  141.0770   74.3090  220.5800 N   0  0  0  0  0  0  0  0  0  0  0  0
  142.2080   73.3680  220.4910 C   0  0  0  0  0  0  0  0  0  0  0  0
  143.4470   74.1880  220.4230 C   0  0  0  0  0  0  0  0  0  0  0  0
  143.2970   75.4690  219.6620 C   0  0  0  0  0  0  0  0  0  0  0  0
  142.1940   76.3590  220.1270 C   0  0  0  0  0  0  0  0  0  0  0  0
  141.3810   75.5950  221.1660 C   0  0  1  0  0  0  0  0  0  0  0  0
  140.2120   76.3720  221.6550 C   0  0  0  0  0  0  0  0  0  0  0  0
  140.7050   77.7010  222.1770 C   0  0  0  0  0  0  0  0  0  0  0  0
  141.3890   77.7210  223.3830 C   0  0  0  0  0  0  0  0  0  0  0  0
  141.8720   78.9080  223.9300 C   0  0  0  0  0  0  0  0  0  0  0  0
  141.6550   80.0860  223.2380 C   0  0  0  0  0  0  0  0  0  0  0  0
  142.2390   81.6350  223.8660 Cl  0  0  0  0  0  0  0  0  0  0  0  0
  140.9690   80.0630  222.0280 C   0  0  0  0  0  0  0  0  0  0  0  0
  140.4890   78.8760  221.4880 C   0  0  0  0  0  0  0  0  0  0  0  0
  139.3020   70.8470  223.4120 C   0  0  0  0  0  0  0  0  0  0  0  0
  139.0940   69.4890  223.4580 C   0  0  0  0  0  0  0  0  0  0  0  0
  139.4450   68.8400  224.6270 C   0  0  0  0  0  0  0  0  0  0  0  0
  139.9800   69.5060  225.7080 C   0  0  0  0  0  0  0  0  0  0  0  0
  140.3390   68.8890  226.8840 C   0  0  0  0  0  0  0  0  0  0  0  0
  140.8730   69.6110  227.9410 C   0  0  0  0  0  0  0  0  0  0  0  0
  141.2290   69.0160  229.0990 F   0  0  0  0  0  0  0  0  0  0  0  0
  141.0640   70.9780  227.8460 C   0  0  0  0  0  0  0  0  0  0  0  0
  140.7070   71.6170  226.6640 C   0  0  0  0  0  0  0  0  0  0  0  0
  140.1730   70.8790  225.6190 C   0  0  0  0  0  0  0  0  0  0  0  0
  139.8270   71.4910  224.4750 N   0  0  0  0  0  0  0  0  0  0  0  0
  139.2980   73.4690  223.1370 H   0  0  0  0  0  0  0  0  0  0  0  0
  137.8064   73.3832  220.5705 H   0  0  0  0  0  0  0  0  0  0  0  0
  138.4572   74.8434  221.4388 H   0  0  0  0  0  0  0  0  0  0  0  0
  142.2316   72.7196  221.3793 H   0  0  0  0  0  0  0  0  0  0  0  0
  142.1141   72.7217  219.6058 H   0  0  0  0  0  0  0  0  0  0  0  0
  143.7557   74.4317  221.4503 H   0  0  0  0  0  0  0  0  0  0  0  0
  144.1936   73.5867  219.8836 H   0  0  0  0  0  0  0  0  0  0  0  0
  144.2417   76.0264  219.7446 H   0  0  0  0  0  0  0  0  0  0  0  0
  143.0440   75.1831  218.6304 H   0  0  0  0  0  0  0  0  0  0  0  0
  142.6140   77.2703  220.5776 H   0  0  0  0  0  0  0  0  0  0  0  0
  141.5553   76.6515  219.2805 H   0  0  0  0  0  0  0  0  0  0  0  0
  141.9484   75.4306  222.0939 H   0  0  0  0  0  0  0  0  0  0  0  0
  139.5043   76.5370  220.8292 H   0  0  0  0  0  0  0  0  0  0  0  0
  139.6998   75.8188  222.4560 H   0  0  0  0  0  0  0  0  0  0  0  0
  141.5545   76.7761  223.9214 H   0  0  0  0  0  0  0  0  0  0  0  0
  142.4123   78.9084  224.8881 H   0  0  0  0  0  0  0  0  0  0  0  0
  140.8027   81.0059  221.4864 H   0  0  0  0  0  0  0  0  0  0  0  0
  139.9477   78.8736  220.5304 H   0  0  0  0  0  0  0  0  0  0  0  0
  138.6675   68.9434  222.6033 H   0  0  0  0  0  0  0  0  0  0  0  0
  139.2917   67.7530  224.6967 H   0  0  0  0  0  0  0  0  0  0  0  0
  140.2000   67.8028  226.9880 H   0  0  0  0  0  0  0  0  0  0  0  0
  141.4887   71.5464  228.6866 H   0  0  0  0  0  0  0  0  0  0  0  0
  140.8476   72.7029  226.5585 H   0  0  0  0  0  0  0  0  0  0  0  0
  1  2  2  0
  2  3  1  0
  3  4  1  0
  4  5  1  0
  5  6  2  0
  5  7  1  0
  7  8  1  0
  8  9  1  0
  9 10  1  0
 10 11  1  0
 11 12  1  0
 12 13  1  0
 13 14  1  0
 14 15  2  0
 15 16  1  0
 16 17  2  0
 17 18  1  0
 17 19  1  0
 19 20  2  0
  2 21  1  0
 21 22  2  0
 22 23  1  0
 23 24  2  0
 24 25  1  0
 25 26  2  0
 26 27  1  0
 26 28  1  0
 28 29  2  0
 29 30  1  0
 30 31  2  0
 12  7  1  0
 20 14  1  0
 31 21  1  0
 30 24  1  0
  3 32  1  0
  4 33  1  0
  4 34  1  0
  8 35  1  0
  8 36  1  0
  9 37  1  0
  9 38  1  0
 10 39  1  0
 10 40  1  0
 11 41  1  0
 11 42  1  0
 12 43  1  1
 13 44  1  0
 13 45  1  0
 15 46  1  0
 16 47  1  0
 19 48  1  0
 20 49  1  0
 22 50  1  0
 23 51  1  0
 25 52  1  0
 28 53  1  0
 29 54  1  0
M  END
>  <smiles>  (2) 
O=C(NCC(=O)N1CCCC[C@H]1Cc1ccc(Cl)cc1)c1ccc2cc(F)ccc2n1

>  <score_type>  (2) 
oracle

>  <origin>  (2) 
autodockgpu

>  <m_score__min__energy>  (2) 
-9.2100000000000009

>  <m_primary>  (2) 
energy

>  <rmsd>  (2) 
2.3367786362901386

>  <m_score__min__rmsd>  (2) 
2.3367786362901386

>  <meeko>  (2) 
{"free_energy": -8.66, "intermolecular_energy": -10.45, "internal_energy": -1.83, "cluster_size": 39, "cluster_id": 1, "rank_in_cluster": 22}

>  <energy>  (2) 
-9.08

>  <cluster_rmsd>  (2) 
0.96

>  <cluster>  (2) 
1

$$$$

     RDKit          3D

 54 57  0  0  0  0  0  0  0  0999 V2000
  138.8590   70.6740  221.4570 O   0  0  0  0  0  0  0  0  0  0  0  0
  139.6300   70.9350  222.4060 C   0  0  0  0  0  0  0  0  0  0  0  0
  140.4990   72.0460  222.2730 N   0  0  0  0  0  0  0  0  0  0  0  0
  140.5250   72.8740  221.1030 C   0  0  0  0  0  0  0  0  0  0  0  0
  140.8700   74.2860  221.4110 C   0  0  0  0  0  0  0  0  0  0  0  0
  140.1340   74.8760  222.2420 O   0  0  0  0  0  0  0  0  0  0  0  0
  141.9830   74.8760  220.7640 N   0  0  0  0  0  0  0  0  0  0  0  0
  143.2980   74.2110  220.8100 C   0  0  0  0  0  0  0  0  0  0  0  0
  144.0430   74.6430  219.5970 C   0  0  0  0  0  0  0  0  0  0  0  0
  143.1870   74.8330  218.3830 C   0  0  0  0  0  0  0  0  0  0  0  0
  142.0340   75.7630  218.5580 C   0  0  0  0  0  0  0  0  0  0  0  0
  141.9420   76.1240  220.0350 C   0  0  1  0  0  0  0  0  0  0  0  0
  140.7820   77.0050  220.3330 C   0  0  0  0  0  0  0  0  0  0  0  0
  141.2200   78.0540  221.3270 C   0  0  0  0  0  0  0  0  0  0  0  0
  141.7490   79.2410  220.8400 C   0  0  0  0  0  0  0  0  0  0  0  0
  142.1760   80.2550  221.6940 C   0  0  0  0  0  0  0  0  0  0  0  0
  142.0630   80.0570  223.0580 C   0  0  0  0  0  0  0  0  0  0  0  0
  142.5830   81.2990  224.2080 Cl  0  0  0  0  0  0  0  0  0  0  0  0
  141.5310   78.8660  223.5440 C   0  0  0  0  0  0  0  0  0  0  0  0
  141.1070   77.8580  222.6870 C   0  0  0  0  0  0  0  0  0  0  0  0
  139.6640   70.1310  223.6430 C   0  0  0  0  0  0  0  0  0  0  0  0
  139.0680   68.8920  223.6730 C   0  0  0  0  0  0  0  0  0  0  0  0
  139.1360   68.1930  224.8630 C   0  0  0  0  0  0  0  0  0  0  0  0
  139.7660   68.6970  225.9790 C   0  0  0  0  0  0  0  0  0  0  0  0
  139.8500   68.0260  227.1780 C   0  0  0  0  0  0  0  0  0  0  0  0
  140.4980   68.5830  228.2710 C   0  0  0  0  0  0  0  0  0  0  0  0
  140.5870   67.9340  229.4500 F   0  0  0  0  0  0  0  0  0  0  0  0
  141.0820   69.8350  228.1910 C   0  0  0  0  0  0  0  0  0  0  0  0
  141.0060   70.5260  226.9870 C   0  0  0  0  0  0  0  0  0  0  0  0
  140.3550   69.9530  225.9060 C   0  0  0  0  0  0  0  0  0  0  0  0
  140.2790   70.6170  224.7410 N   0  0  0  0  0  0  0  0  0  0  0  0
  141.1430   72.2440  223.0960 H   0  0  0  0  0  0  0  0  0  0  0  0
  141.2734   72.4728  220.4038 H   0  0  0  0  0  0  0  0  0  0  0  0
  139.5158   72.8650  220.6655 H   0  0  0  0  0  0  0  0  0  0  0  0
  143.8432   74.5130  221.7164 H   0  0  0  0  0  0  0  0  0  0  0  0
  143.1855   73.1170  220.8343 H   0  0  0  0  0  0  0  0  0  0  0  0
  144.5408   75.5981  219.8204 H   0  0  0  0  0  0  0  0  0  0  0  0
  144.7523   73.8366  219.3592 H   0  0  0  0  0  0  0  0  0  0  0  0
  143.8228   75.2273  217.5766 H   0  0  0  0  0  0  0  0  0  0  0  0
  142.7529   73.8476  218.1584 H   0  0  0  0  0  0  0  0  0  0  0  0
  142.1938   76.6726  217.9604 H   0  0  0  0  0  0  0  0  0  0  0  0
  141.1021   75.2846  218.2223 H   0  0  0  0  0  0  0  0  0  0  0  0
  142.7892   76.7459  220.3597 H   0  0  0  0  0  0  0  0  0  0  0  0
  140.4379   77.4909  219.4081 H   0  0  0  0  0  0  0  0  0  0  0  0
  139.9555   76.4115  220.7509 H   0  0  0  0  0  0  0  0  0  0  0  0
  141.8331   79.3845  219.7527 H   0  0  0  0  0  0  0  0  0  0  0  0
  142.5930   81.1907  221.2932 H   0  0  0  0  0  0  0  0  0  0  0  0
  141.4444   78.7196  224.6308 H   0  0  0  0  0  0  0  0  0  0  0  0
  140.6893   76.9218  223.0858 H   0  0  0  0  0  0  0  0  0  0  0  0
  138.5603   68.4764  222.7901 H   0  0  0  0  0  0  0  0  0  0  0  0
  138.6702   67.1982  224.9210 H   0  0  0  0  0  0  0  0  0  0  0  0
  139.3946   67.0290  227.2713 H   0  0  0  0  0  0  0  0  0  0  0  0
  141.5945   70.2734  229.0600 H   0  0  0  0  0  0  0  0  0  0  0  0
  141.4606   71.5232  226.8928 H   0  0  0  0  0  0  0  0  0  0  0  0
  1  2  2  0
  2  3  1  0
  3  4  1  0
  4  5  1  0
  5  6  2  0
  5  7  1  0
  7  8  1  0
  8  9  1  0
  9 10  1  0
 10 11  1  0
 11 12  1  0
 12 13  1  0
 13 14  1  0
 14 15  2  0
 15 16  1  0
 16 17  2  0
 17 18  1  0
 17 19  1  0
 19 20  2  0
  2 21  1  0
 21 22  2  0
 22 23  1  0
 23 24  2  0
 24 25  1  0
 25 26  2  0
 26 27  1  0
 26 28  1  0
 28 29  2  0
 29 30  1  0
 30 31  2  0
 12  7  1  0
 20 14  1  0
 31 21  1  0
 30 24  1  0
  3 32  1  0
  4 33  1  0
  4 34  1  0
  8 35  1  0
  8 36  1  0
  9 37  1  0
  9 38  1  0
 10 39  1  0
 10 40  1  0
 11 41  1  0
 11 42  1  0
 12 43  1  1
 13 44  1  0
 13 45  1  0
 15 46  1  0
 16 47  1  0
 19 48  1  0
 20 49  1  0
 22 50  1  0
 23 51  1  0
 25 52  1  0
 28 53  1  0
 29 54  1  0
M  END
>  <smiles>  (3) 
O=C(NCC(=O)N1CCCC[C@H]1Cc1ccc(Cl)cc1)c1ccc2cc(F)ccc2n1

>  <score_type>  (3) 
oracle

>  <origin>  (3) 
autodockgpu

>  <m_score__min__energy>  (3) 
-9.2100000000000009

>  <m_primary>  (3) 
energy

>  <rmsd>  (3) 
2.408907110851296

>  <m_score__min__rmsd>  (3) 
2.408907110851296

>  <meeko>  (3) 
{"free_energy": -9.0, "intermolecular_energy": -10.79, "internal_energy": -1.74, "cluster_size": 39, "cluster_id": 1, "rank_in_cluster": 6}

>  <energy>  (3) 
-9.07

>  <cluster_rmsd>  (3) 
1.15

>  <cluster>  (3) 
1

$$$$

     RDKit          3D

 54 57  0  0  0  0  0  0  0  0999 V2000
  137.8410   70.9140  221.5590 O   0  0  0  0  0  0  0  0  0  0  0  0
  138.5630   71.3450  222.4840 C   0  0  0  0  0  0  0  0  0  0  0  0
  139.0350   72.6790  222.3950 N   0  0  0  0  0  0  0  0  0  0  0  0
  138.7170   73.5410  221.2950 C   0  0  0  0  0  0  0  0  0  0  0  0
  139.3910   74.8620  221.3940 C   0  0  0  0  0  0  0  0  0  0  0  0
  140.4110   74.9200  222.1250 O   0  0  0  0  0  0  0  0  0  0  0  0
  138.8540   75.9590  220.6750 N   0  0  0  0  0  0  0  0  0  0  0  0
  139.0860   76.0710  219.2240 C   0  0  0  0  0  0  0  0  0  0  0  0
  137.9520   76.8550  218.6650 C   0  0  0  0  0  0  0  0  0  0  0  0
  136.6380   76.6030  219.3380 C   0  0  0  0  0  0  0  0  0  0  0  0
  136.6340   76.7960  220.8170 C   0  0  0  0  0  0  0  0  0  0  0  0
  138.0710   77.0220  221.2650 C   0  0  1  0  0  0  0  0  0  0  0  0
  138.1900   77.1660  222.7400 C   0  0  0  0  0  0  0  0  0  0  0  0
  139.2640   78.1860  223.0360 C   0  0  0  0  0  0  0  0  0  0  0  0
  140.5860   77.8350  222.8020 C   0  0  0  0  0  0  0  0  0  0  0  0
  141.6320   78.7200  223.0530 C   0  0  0  0  0  0  0  0  0  0  0  0
  141.3270   79.9760  223.5460 C   0  0  0  0  0  0  0  0  0  0  0  0
  142.6000   81.1570  223.8890 Cl  0  0  0  0  0  0  0  0  0  0  0  0
  140.0000   80.3250  223.7800 C   0  0  0  0  0  0  0  0  0  0  0  0
  138.9610   79.4370  223.5280 C   0  0  0  0  0  0  0  0  0  0  0  0
  138.9350   70.5200  223.6490 C   0  0  0  0  0  0  0  0  0  0  0  0
  138.5990   69.1870  223.6820 C   0  0  0  0  0  0  0  0  0  0  0  0
  138.9780   68.4720  224.8020 C   0  0  0  0  0  0  0  0  0  0  0  0
  139.6600   69.0500  225.8500 C   0  0  0  0  0  0  0  0  0  0  0  0
  140.0500   68.3660  226.9790 C   0  0  0  0  0  0  0  0  0  0  0  0
  140.7360   69.0020  228.0030 C   0  0  0  0  0  0  0  0  0  0  0  0
  141.1240   68.3400  229.1140 F   0  0  0  0  0  0  0  0  0  0  0  0
  141.0520   70.3460  227.9240 C   0  0  0  0  0  0  0  0  0  0  0  0
  140.6650   71.0520  226.7900 C   0  0  0  0  0  0  0  0  0  0  0  0
  139.9800   70.4000  225.7760 C   0  0  0  0  0  0  0  0  0  0  0  0
  139.6040   71.0780  224.6800 N   0  0  0  0  0  0  0  0  0  0  0  0
  139.6470   73.0180  223.1960 H   0  0  0  0  0  0  0  0  0  0  0  0
  139.0331   73.0528  220.3613 H   0  0  0  0  0  0  0  0  0  0  0  0
  137.6314   73.7175  221.3116 H   0  0  0  0  0  0  0  0  0  0  0  0
  140.0363   76.5905  219.0317 H   0  0  0  0  0  0  0  0  0  0  0  0
  139.1460   75.0770  218.7567 H   0  0  0  0  0  0  0  0  0  0  0  0
  138.1904   77.9243  218.7640 H   0  0  0  0  0  0  0  0  0  0  0  0
  137.8357   76.5383  217.6180 H   0  0  0  0  0  0  0  0  0  0  0  0
  135.8961   77.2891  218.9034 H   0  0  0  0  0  0  0  0  0  0  0  0
  136.4072   75.5409  219.1684 H   0  0  0  0  0  0  0  0  0  0  0  0
  136.0196   77.6704  221.0778 H   0  0  0  0  0  0  0  0  0  0  0  0
  136.2122   75.9116  221.3169 H   0  0  0  0  0  0  0  0  0  0  0  0
  138.4660   77.9854  220.9102 H   0  0  0  0  0  0  0  0  0  0  0  0
  137.2308   77.5048  223.1585 H   0  0  0  0  0  0  0  0  0  0  0  0
  138.4529   76.1989  223.1935 H   0  0  0  0  0  0  0  0  0  0  0  0
  140.8135   76.8333  222.4086 H   0  0  0  0  0  0  0  0  0  0  0  0
  142.6753   78.4272  222.8637 H   0  0  0  0  0  0  0  0  0  0  0  0
  139.7685   81.3259  224.1731 H   0  0  0  0  0  0  0  0  0  0  0  0
  137.9170   79.7272  223.7176 H   0  0  0  0  0  0  0  0  0  0  0  0
  138.0530   68.7112  222.8540 H   0  0  0  0  0  0  0  0  0  0  0  0
  138.7260   67.4028  224.8588 H   0  0  0  0  0  0  0  0  0  0  0  0
  139.8134   67.2957  227.0708 H   0  0  0  0  0  0  0  0  0  0  0  0
  141.5967   70.8450  228.7390 H   0  0  0  0  0  0  0  0  0  0  0  0
  140.9012   72.1224  226.6980 H   0  0  0  0  0  0  0  0  0  0  0  0
  1  2  2  0
  2  3  1  0
  3  4  1  0
  4  5  1  0
  5  6  2  0
  5  7  1  0
  7  8  1  0
  8  9  1  0
  9 10  1  0
 10 11  1  0
 11 12  1  0
 12 13  1  0
 13 14  1  0
 14 15  2  0
 15 16  1  0
 16 17  2  0
 17 18  1  0
 17 19  1  0
 19 20  2  0
  2 21  1  0
 21 22  2  0
 22 23  1  0
 23 24  2  0
 24 25  1  0
 25 26  2  0
 26 27  1  0
 26 28  1  0
 28 29  2  0
 29 30  1  0
 30 31  2  0
 12  7  1  0
 20 14  1  0
 31 21  1  0
 30 24  1  0
  3 32  1  0
  4 33  1  0
  4 34  1  0
  8 35  1  0
  8 36  1  0
  9 37  1  0
  9 38  1  0
 10 39  1  0
 10 40  1  0
 11 41  1  0
 11 42  1  0
 12 43  1  6
 13 44  1  0
 13 45  1  0
 15 46  1  0
 16 47  1  0
 19 48  1  0
 20 49  1  0
 22 50  1  0
 23 51  1  0
 25 52  1  0
 28 53  1  0
 29 54  1  0
M  END
>  <smiles>  (4) 
O=C(NCC(=O)N1CCCC[C@H]1Cc1ccc(Cl)cc1)c1ccc2cc(F)ccc2n1

>  <score_type>  (4) 
oracle

>  <origin>  (4) 
autodockgpu

>  <m_score__min__energy>  (4) 
-9.2100000000000009

>  <m_primary>  (4) 
energy

>  <rmsd>  (4) 
2.3150205027245

>  <m_score__min__rmsd>  (4) 
2.3150205027245

>  <meeko>  (4) 
{"free_energy": -8.2, "intermolecular_energy": -9.99, "internal_energy": -2.24, "cluster_size": 39, "cluster_id": 1, "rank_in_cluster": 38}

>  <energy>  (4) 
-9.06

>  <cluster_rmsd>  (4) 
1.26

>  <cluster>  (4) 
1

$$$$

     RDKit          3D

 54 57  0  0  0  0  0  0  0  0999 V2000
  139.9490   71.3210  221.0630 O   0  0  0  0  0  0  0  0  0  0  0  0
  139.8270   71.7840  222.2180 C   0  0  0  0  0  0  0  0  0  0  0  0
  139.6920   73.1880  222.3630 N   0  0  0  0  0  0  0  0  0  0  0  0
  139.6900   74.0850  221.2460 C   0  0  0  0  0  0  0  0  0  0  0  0
  139.1360   75.4210  221.5890 C   0  0  0  0  0  0  0  0  0  0  0  0
  139.1280   75.7310  222.8070 O   0  0  0  0  0  0  0  0  0  0  0  0
  138.6560   76.2520  220.5460 N   0  0  0  0  0  0  0  0  0  0  0  0
  137.2840   76.0760  220.0380 C   0  0  0  0  0  0  0  0  0  0  0  0
  136.8550   77.3900  219.4890 C   0  0  0  0  0  0  0  0  0  0  0  0
  137.3780   78.5740  220.2440 C   0  0  0  0  0  0  0  0  0  0  0  0
  138.8590   78.6170  220.4110 C   0  0  0  0  0  0  0  0  0  0  0  0
  139.4270   77.2960  219.9090 C   0  0  1  0  0  0  0  0  0  0  0  0
  140.9010   77.2070  220.0860 C   0  0  0  0  0  0  0  0  0  0  0  0
  141.3270   78.2520  221.0900 C   0  0  0  0  0  0  0  0  0  0  0  0
  141.2170   77.9500  222.4390 C   0  0  0  0  0  0  0  0  0  0  0  0
  141.5880   78.8620  223.4250 C   0  0  0  0  0  0  0  0  0  0  0  0
  142.0760   80.0950  223.0280 C   0  0  0  0  0  0  0  0  0  0  0  0
  142.5700   81.3080  224.2200 Cl  0  0  0  0  0  0  0  0  0  0  0  0
  142.1860   80.3950  221.6740 C   0  0  0  0  0  0  0  0  0  0  0  0
  141.8140   79.4800  220.6970 C   0  0  0  0  0  0  0  0  0  0  0  0
  139.8200   70.9270  223.4180 C   0  0  0  0  0  0  0  0  0  0  0  0
  139.3090   69.6520  223.3490 C   0  0  0  0  0  0  0  0  0  0  0  0
  139.3340   68.9030  224.5100 C   0  0  0  0  0  0  0  0  0  0  0  0
  139.8420   69.3920  225.6930 C   0  0  0  0  0  0  0  0  0  0  0  0
  139.8800   68.6720  226.8650 C   0  0  0  0  0  0  0  0  0  0  0  0
  140.4040   69.2170  228.0280 C   0  0  0  0  0  0  0  0  0  0  0  0
  140.4460   68.5190  229.1820 F   0  0  0  0  0  0  0  0  0  0  0  0
  140.9070   70.5060  228.0470 C   0  0  0  0  0  0  0  0  0  0  0  0
  140.8760   71.2470  226.8720 C   0  0  0  0  0  0  0  0  0  0  0  0
  140.3480   70.6860  225.7190 C   0  0  0  0  0  0  0  0  0  0  0  0
  140.3160   71.3980  224.5820 N   0  0  0  0  0  0  0  0  0  0  0  0
  139.5900   73.5530  223.3570 H   0  0  0  0  0  0  0  0  0  0  0  0
  140.7243   74.2120  220.8939 H   0  0  0  0  0  0  0  0  0  0  0  0
  139.0482   73.6472  220.4673 H   0  0  0  0  0  0  0  0  0  0  0  0
  137.2687   75.3121  219.2466 H   0  0  0  0  0  0  0  0  0  0  0  0
  136.6071   75.7438  220.8389 H   0  0  0  0  0  0  0  0  0  0  0  0
  137.2079   77.4609  218.4496 H   0  0  0  0  0  0  0  0  0  0  0  0
  135.7586   77.4231  219.5713 H   0  0  0  0  0  0  0  0  0  0  0  0
  137.0696   79.4832  219.7072 H   0  0  0  0  0  0  0  0  0  0  0  0
  136.9586   78.4988  221.2581 H   0  0  0  0  0  0  0  0  0  0  0  0
  139.2768   79.4495  219.8259 H   0  0  0  0  0  0  0  0  0  0  0  0
  139.1204   78.7684  221.4687 H   0  0  0  0  0  0  0  0  0  0  0  0
  139.3230   77.1913  218.8189 H   0  0  0  0  0  0  0  0  0  0  0  0
  141.1707   76.2064  220.4548 H   0  0  0  0  0  0  0  0  0  0  0  0
  141.4072   77.3794  219.1247 H   0  0  0  0  0  0  0  0  0  0  0  0
  140.8271   76.9659  222.7381 H   0  0  0  0  0  0  0  0  0  0  0  0
  141.4955   78.6086  224.4914 H   0  0  0  0  0  0  0  0  0  0  0  0
  142.5759   81.3778  221.3704 H   0  0  0  0  0  0  0  0  0  0  0  0
  141.9064   79.7309  219.6300 H   0  0  0  0  0  0  0  0  0  0  0  0
  138.8990   69.2468  222.4121 H   0  0  0  0  0  0  0  0  0  0  0  0
  138.9335   67.8787  224.4885 H   0  0  0  0  0  0  0  0  0  0  0  0
  139.4873   67.6446  226.8799 H   0  0  0  0  0  0  0  0  0  0  0  0
  141.3220   70.9343  228.9713 H   0  0  0  0  0  0  0  0  0  0  0  0
  141.2687   72.2744  226.8565 H   0  0  0  0  0  0  0  0  0  0  0  0
  1  2  2  0
  2  3  1  0
  3  4  1  0
  4  5  1  0
  5  6  2  0
  5  7  1  0
  7  8  1  0
  8  9  1  0
  9 10  1  0
 10 11  1  0
 11 12  1  0
 12 13  1  0
 13 14  1  0
 14 15  2  0
 15 16  1  0
 16 17  2  0
 17 18  1  0
 17 19  1  0
 19 20  2  0
  2 21  1  0
 21 22  2  0
 22 23  1  0
 23 24  2  0
 24 25  1  0
 25 26  2  0
 26 27  1  0
 26 28  1  0
 28 29  2  0
 29 30  1  0
 30 31  2  0
 12  7  1  0
 20 14  1  0
 31 21  1  0
 30 24  1  0
  3 32  1  0
  4 33  1  0
  4 34  1  0
  8 35  1  0
  8 36  1  0
  9 37  1  0
  9 38  1  0
 10 39  1  0
 10 40  1  0
 11 41  1  0
 11 42  1  0
 12 43  1  6
 13 44  1  0
 13 45  1  0
 15 46  1  0
 16 47  1  0
 19 48  1  0
 20 49  1  0
 22 50  1  0
 23 51  1  0
 25 52  1  0
 28 53  1  0
 29 54  1  0
M  END
>  <smiles>  (5) 
O=C(NCC(=O)N1CCCC[C@H]1Cc1ccc(Cl)cc1)c1ccc2cc(F)ccc2n1

>  <score_type>  (5) 
oracle

>  <origin>  (5) 
autodockgpu

>  <m_score__min__energy>  (5) 
-9.2100000000000009

>  <m_primary>  (5) 
energy

>  <rmsd>  (5) 
1.9727339256689231

>  <m_score__min__rmsd>  (5) 
1.9727339256689231

>  <meeko>  (5) 
{"free_energy": -8.2, "intermolecular_energy": -9.99, "internal_energy": -2.11, "cluster_size": 39, "cluster_id": 1, "rank_in_cluster": 39}

>  <energy>  (5) 
-9.01

>  <cluster_rmsd>  (5) 
0.96

>  <cluster>  (5) 
1

$$$$

     RDKit          3D

 54 57  0  0  0  0  0  0  0  0999 V2000
  139.9700   71.2210  220.9010 O   0  0  0  0  0  0  0  0  0  0  0  0
  139.8250   71.7250  222.0360 C   0  0  0  0  0  0  0  0  0  0  0  0
  139.6960   73.1340  222.1290 N   0  0  0  0  0  0  0  0  0  0  0  0
  139.7260   73.9910  220.9810 C   0  0  0  0  0  0  0  0  0  0  0  0
  140.8930   74.9130  220.9890 C   0  0  0  0  0  0  0  0  0  0  0  0
  141.1290   75.5130  222.0680 O   0  0  0  0  0  0  0  0  0  0  0  0
  141.6560   75.0610  219.8040 N   0  0  0  0  0  0  0  0  0  0  0  0
  140.9870   75.4100  218.5380 C   0  0  0  0  0  0  0  0  0  0  0  0
  141.9950   76.1080  217.6960 C   0  0  0  0  0  0  0  0  0  0  0  0
  142.9480   76.9720  218.4640 C   0  0  0  0  0  0  0  0  0  0  0  0
  143.6800   76.2840  219.5670 C   0  0  0  0  0  0  0  0  0  0  0  0
  143.0890   74.8900  219.7250 C   0  0  1  0  0  0  0  0  0  0  0  0
  143.7100   74.1340  220.8450 C   0  0  0  0  0  0  0  0  0  0  0  0
  144.1100   72.7690  220.3380 C   0  0  0  0  0  0  0  0  0  0  0  0
  143.1970   71.7310  220.4550 C   0  0  0  0  0  0  0  0  0  0  0  0
  143.4940   70.4430  220.0120 C   0  0  0  0  0  0  0  0  0  0  0  0
  144.7340   70.2140  219.4440 C   0  0  0  0  0  0  0  0  0  0  0  0
  145.1850   68.6060  218.8560 Cl  0  0  0  0  0  0  0  0  0  0  0  0
  145.6470   71.2570  219.3260 C   0  0  0  0  0  0  0  0  0  0  0  0
  145.3450   72.5380  219.7710 C   0  0  0  0  0  0  0  0  0  0  0  0
  139.7840   70.9100  223.2650 C   0  0  0  0  0  0  0  0  0  0  0  0
  139.2410   69.6470  223.2340 C   0  0  0  0  0  0  0  0  0  0  0  0
  139.2350   68.9380  224.4200 C   0  0  0  0  0  0  0  0  0  0  0  0
  139.7430   69.4550  225.5910 C   0  0  0  0  0  0  0  0  0  0  0  0
  139.7510   68.7750  226.7870 C   0  0  0  0  0  0  0  0  0  0  0  0
  140.2770   69.3460  227.9360 C   0  0  0  0  0  0  0  0  0  0  0  0
  140.2900   68.6880  229.1140 F   0  0  0  0  0  0  0  0  0  0  0  0
  140.8130   70.6220  227.9170 C   0  0  0  0  0  0  0  0  0  0  0  0
  140.8130   71.3230  226.7160 C   0  0  0  0  0  0  0  0  0  0  0  0
  140.2820   70.7350  225.5780 C   0  0  0  0  0  0  0  0  0  0  0  0
  140.2800   71.4080  224.4170 N   0  0  0  0  0  0  0  0  0  0  0  0
  139.5740   73.5330  223.1070 H   0  0  0  0  0  0  0  0  0  0  0  0
  139.7754   73.3672  220.0763 H   0  0  0  0  0  0  0  0  0  0  0  0
  138.8141   74.6059  220.9989 H   0  0  0  0  0  0  0  0  0  0  0  0
  140.6365   74.4987  218.0314 H   0  0  0  0  0  0  0  0  0  0  0  0
  140.1119   76.0516  218.7184 H   0  0  0  0  0  0  0  0  0  0  0  0
  142.5781   75.3479  217.1555 H   0  0  0  0  0  0  0  0  0  0  0  0
  141.4360   76.7758  217.0240 H   0  0  0  0  0  0  0  0  0  0  0  0
  143.6918   77.3696  217.7579 H   0  0  0  0  0  0  0  0  0  0  0  0
  142.3365   77.7513  218.9424 H   0  0  0  0  0  0  0  0  0  0  0  0
  144.7487   76.2104  219.3170 H   0  0  0  0  0  0  0  0  0  0  0  0
  143.5793   76.8506  220.5045 H   0  0  0  0  0  0  0  0  0  0  0  0
  143.3164   74.2461  218.8627 H   0  0  0  0  0  0  0  0  0  0  0  0
  144.5994   74.6707  221.2068 H   0  0  0  0  0  0  0  0  0  0  0  0
  142.9943   74.0332  221.6743 H   0  0  0  0  0  0  0  0  0  0  0  0
  142.2146   71.9292  220.9085 H   0  0  0  0  0  0  0  0  0  0  0  0
  142.7605   69.6293  220.1117 H   0  0  0  0  0  0  0  0  0  0  0  0
  146.6293   71.0633  218.8705 H   0  0  0  0  0  0  0  0  0  0  0  0
  146.0777   73.3526  219.6727 H   0  0  0  0  0  0  0  0  0  0  0  0
  138.8300   69.2205  222.3071 H   0  0  0  0  0  0  0  0  0  0  0  0
  138.8090   67.9239  224.4291 H   0  0  0  0  0  0  0  0  0  0  0  0
  139.3321   67.7589  226.8327 H   0  0  0  0  0  0  0  0  0  0  0  0
  141.2293   71.0712  228.8308 H   0  0  0  0  0  0  0  0  0  0  0  0
  141.2322   72.3389  226.6690 H   0  0  0  0  0  0  0  0  0  0  0  0
  1  2  2  0
  2  3  1  0
  3  4  1  0
  4  5  1  0
  5  6  2  0
  5  7  1  0
  7  8  1  0
  8  9  1  0
  9 10  1  0
 10 11  1  0
 11 12  1  0
 12 13  1  0
 13 14  1  0
 14 15  2  0
 15 16  1  0
 16 17  2  0
 17 18  1  0
 17 19  1  0
 19 20  2  0
  2 21  1  0
 21 22  2  0
 22 23  1  0
 23 24  2  0
 24 25  1  0
 25 26  2  0
 26 27  1  0
 26 28  1  0
 28 29  2  0
 29 30  1  0
 30 31  2  0
 12  7  1  0
 20 14  1  0
 31 21  1  0
 30 24  1  0
  3 32  1  0
  4 33  1  0
  4 34  1  0
  8 35  1  0
  8 36  1  0
  9 37  1  0
  9 38  1  0
 10 39  1  0
 10 40  1  0
 11 41  1  0
 11 42  1  0
 12 43  1  6
 13 44  1  0
 13 45  1  0
 15 46  1  0
 16 47  1  0
 19 48  1  0
 20 49  1  0
 22 50  1  0
 23 51  1  0
 25 52  1  0
 28 53  1  0
 29 54  1  0
M  END
>  <smiles>  (6) 
O=C(NCC(=O)N1CCCC[C@H]1Cc1ccc(Cl)cc1)c1ccc2cc(F)ccc2n1

>  <score_type>  (6) 
oracle

>  <origin>  (6) 
autodockgpu

>  <m_score__min__energy>  (6) 
-9.2100000000000009

>  <m_primary>  (6) 
energy

>  <rmsd>  (6) 
2.083067075352424

>  <m_score__min__rmsd>  (6) 
2.083067075352424

>  <meeko>  (6) 
{"free_energy": -8.12, "intermolecular_energy": -9.91, "internal_energy": -2.18, "cluster_size": 1, "cluster_id": 4, "rank_in_cluster": 1}

>  <energy>  (6) 
-9.0

>  <cluster_rmsd>  (6) 
0.5

>  <cluster>  (6) 
1

$$$$

     RDKit          3D

 54 57  0  0  0  0  0  0  0  0999 V2000
  141.2630   71.9140  221.2710 O   0  0  0  0  0  0  0  0  0  0  0  0
  140.4720   72.2580  222.1760 C   0  0  0  0  0  0  0  0  0  0  0  0
  139.8130   73.5060  222.0470 N   0  0  0  0  0  0  0  0  0  0  0  0
  140.0200   74.3780  220.9280 C   0  0  0  0  0  0  0  0  0  0  0  0
  141.0760   75.3920  221.1830 C   0  0  0  0  0  0  0  0  0  0  0  0
  141.2570   75.7270  222.3810 O   0  0  0  0  0  0  0  0  0  0  0  0
  141.8030   75.9150  220.0850 N   0  0  0  0  0  0  0  0  0  0  0  0
  143.1210   75.3510  219.7410 C   0  0  0  0  0  0  0  0  0  0  0  0
  143.3260   75.5890  218.2870 C   0  0  0  0  0  0  0  0  0  0  0  0
  142.0780   75.4940  217.4650 C   0  0  0  0  0  0  0  0  0  0  0  0
  140.9550   76.3680  217.9110 C   0  0  0  0  0  0  0  0  0  0  0  0
  141.3490   76.9970  219.2410 C   0  0  1  0  0  0  0  0  0  0  0  0
  140.2700   77.8470  219.8100 C   0  0  0  0  0  0  0  0  0  0  0  0
  140.8670   78.7250  220.8830 C   0  0  0  0  0  0  0  0  0  0  0  0
  140.4410   78.5450  222.1910 C   0  0  0  0  0  0  0  0  0  0  0  0
  140.9430   79.3180  223.2360 C   0  0  0  0  0  0  0  0  0  0  0  0
  141.8910   80.2820  222.9430 C   0  0  0  0  0  0  0  0  0  0  0  0
  142.5780   81.3040  224.2160 Cl  0  0  0  0  0  0  0  0  0  0  0  0
  142.3170   80.4600  221.6310 C   0  0  0  0  0  0  0  0  0  0  0  0
  141.8110   79.6860  220.5930 C   0  0  0  0  0  0  0  0  0  0  0  0
  140.2060   71.4170  223.3580 C   0  0  0  0  0  0  0  0  0  0  0  0
  139.5160   70.2350  223.2200 C   0  0  0  0  0  0  0  0  0  0  0  0
  139.3020   69.4960  224.3680 C   0  0  0  0  0  0  0  0  0  0  0  0
  139.7510   69.9070  225.6040 C   0  0  0  0  0  0  0  0  0  0  0  0
  139.5530   69.1950  226.7640 C   0  0  0  0  0  0  0  0  0  0  0  0
  140.0270   69.6580  227.9830 C   0  0  0  0  0  0  0  0  0  0  0  0
  139.8400   68.9670  229.1270 F   0  0  0  0  0  0  0  0  0  0  0  0
  140.7170   70.8540  228.0710 C   0  0  0  0  0  0  0  0  0  0  0  0
  140.9250   71.5860  226.9070 C   0  0  0  0  0  0  0  0  0  0  0  0
  140.4430   71.1080  225.6990 C   0  0  0  0  0  0  0  0  0  0  0  0
  140.6420   71.8110  224.5730 N   0  0  0  0  0  0  0  0  0  0  0  0
  139.1470   73.7730  222.8310 H   0  0  0  0  0  0  0  0  0  0  0  0
  140.3156   73.7721  220.0588 H   0  0  0  0  0  0  0  0  0  0  0  0
  139.0780   74.9158  220.7453 H   0  0  0  0  0  0  0  0  0  0  0  0
  143.9100   75.8517  220.3213 H   0  0  0  0  0  0  0  0  0  0  0  0
  143.1629   74.2768  219.9741 H   0  0  0  0  0  0  0  0  0  0  0  0
  143.7469   76.5972  218.1589 H   0  0  0  0  0  0  0  0  0  0  0  0
  143.9995   74.7960  217.9299 H   0  0  0  0  0  0  0  0  0  0  0  0
  142.3309   75.7668  216.4298 H   0  0  0  0  0  0  0  0  0  0  0  0
  141.7203   74.4593  217.5723 H   0  0  0  0  0  0  0  0  0  0  0  0
  140.7753   77.1554  217.1642 H   0  0  0  0  0  0  0  0  0  0  0  0
  140.0334   75.7784  218.0248 H   0  0  0  0  0  0  0  0  0  0  0  0
  142.1703   77.7197  219.1265 H   0  0  0  0  0  0  0  0  0  0  0  0
  139.8346   78.4736  219.0177 H   0  0  0  0  0  0  0  0  0  0  0  0
  139.4783   77.2145  220.2380 H   0  0  0  0  0  0  0  0  0  0  0  0
  139.6883   77.7729  222.4085 H   0  0  0  0  0  0  0  0  0  0  0  0
  140.5942   79.1656  224.2680 H   0  0  0  0  0  0  0  0  0  0  0  0
  143.0708   81.2300  221.4099 H   0  0  0  0  0  0  0  0  0  0  0  0
  142.1575   79.8378  219.5601 H   0  0  0  0  0  0  0  0  0  0  0  0
  139.1511   69.8935  222.2401 H   0  0  0  0  0  0  0  0  0  0  0  0
  138.7535   68.5455  224.2922 H   0  0  0  0  0  0  0  0  0  0  0  0
  139.0083   68.2401  226.7245 H   0  0  0  0  0  0  0  0  0  0  0  0
  141.0923   71.2174  229.0390 H   0  0  0  0  0  0  0  0  0  0  0  0
  141.4700   72.5407  226.9451 H   0  0  0  0  0  0  0  0  0  0  0  0
  1  2  2  0
  2  3  1  0
  3  4  1  0
  4  5  1  0
  5  6  2  0
  5  7  1  0
  7  8  1  0
  8  9  1  0
  9 10  1  0
 10 11  1  0
 11 12  1  0
 12 13  1  0
 13 14  1  0
 14 15  2  0
 15 16  1  0
 16 17  2  0
 17 18  1  0
 17 19  1  0
 19 20  2  0
  2 21  1  0
 21 22  2  0
 22 23  1  0
 23 24  2  0
 24 25  1  0
 25 26  2  0
 26 27  1  0
 26 28  1  0
 28 29  2  0
 29 30  1  0
 30 31  2  0
 12  7  1  0
 20 14  1  0
 31 21  1  0
 30 24  1  0
  3 32  1  0
  4 33  1  0
  4 34  1  0
  8 35  1  0
  8 36  1  0
  9 37  1  0
  9 38  1  0
 10 39  1  0
 10 40  1  0
 11 41  1  0
 11 42  1  0
 12 43  1  6
 13 44  1  0
 13 45  1  0
 15 46  1  0
 16 47  1  0
 19 48  1  0
 20 49  1  0
 22 50  1  0
 23 51  1  0
 25 52  1  0
 28 53  1  0
 29 54  1  0
M  END
>  <smiles>  (7) 
O=C(NCC(=O)N1CCCC[C@H]1Cc1ccc(Cl)cc1)c1ccc2cc(F)ccc2n1

>  <score_type>  (7) 
oracle

>  <origin>  (7) 
autodockgpu

>  <m_score__min__energy>  (7) 
-9.2100000000000009

>  <m_primary>  (7) 
energy

>  <rmsd>  (7) 
2.1160068433450796

>  <m_score__min__rmsd>  (7) 
2.1160068433450796

>  <meeko>  (7) 
{"free_energy": -8.77, "intermolecular_energy": -10.56, "internal_energy": -1.68, "cluster_size": 39, "cluster_id": 1, "rank_in_cluster": 16}

>  <energy>  (7) 
-8.98

>  <cluster_rmsd>  (7) 
1.26

>  <cluster>  (7) 
1

$$$$

     RDKit          3D

 54 57  0  0  0  0  0  0  0  0999 V2000
  139.7270   73.6850  222.3900 O   0  0  0  0  0  0  0  0  0  0  0  0
  140.3100   72.5790  222.3730 C   0  0  0  0  0  0  0  0  0  0  0  0
  141.1400   72.2810  221.2630 N   0  0  0  0  0  0  0  0  0  0  0  0
  141.3340   73.1920  220.1740 C   0  0  0  0  0  0  0  0  0  0  0  0
  142.5530   74.0250  220.3390 C   0  0  0  0  0  0  0  0  0  0  0  0
  143.5600   73.4590  220.8320 O   0  0  0  0  0  0  0  0  0  0  0  0
  142.5110   75.3850  219.9400 N   0  0  0  0  0  0  0  0  0  0  0  0
  143.3870   75.8600  218.8540 C   0  0  0  0  0  0  0  0  0  0  0  0
  142.7140   77.0350  218.2390 C   0  0  0  0  0  0  0  0  0  0  0  0
  141.2200   76.9360  218.1960 C   0  0  0  0  0  0  0  0  0  0  0  0
  140.5620   76.6750  219.5080 C   0  0  0  0  0  0  0  0  0  0  0  0
  141.6520   76.3860  220.5310 C   0  0  1  0  0  0  0  0  0  0  0  0
  141.1010   76.0520  221.8710 C   0  0  0  0  0  0  0  0  0  0  0  0
  140.4320   77.2830  222.4350 C   0  0  0  0  0  0  0  0  0  0  0  0
  139.0480   77.3600  222.3840 C   0  0  0  0  0  0  0  0  0  0  0  0
  138.3590   78.4640  222.8820 C   0  0  0  0  0  0  0  0  0  0  0  0
  139.0900   79.4990  223.4380 C   0  0  0  0  0  0  0  0  0  0  0  0
  138.2880   80.9350  224.0930 Cl  0  0  0  0  0  0  0  0  0  0  0  0
  140.4780   79.4180  223.4890 C   0  0  0  0  0  0  0  0  0  0  0  0
  141.1590   78.3140  222.9890 C   0  0  0  0  0  0  0  0  0  0  0  0
  140.1610   71.5880  223.4550 C   0  0  0  0  0  0  0  0  0  0  0  0
  139.5730   70.3730  223.1980 C   0  0  0  0  0  0  0  0  0  0  0  0
  139.4650   69.4910  224.2560 C   0  0  0  0  0  0  0  0  0  0  0  0
  139.9190   69.7980  225.5200 C   0  0  0  0  0  0  0  0  0  0  0  0
  139.8260   68.9430  226.5950 C   0  0  0  0  0  0  0  0  0  0  0  0
  140.3010   69.3060  227.8460 C   0  0  0  0  0  0  0  0  0  0  0  0
  140.2150   68.4760  228.9060 F   0  0  0  0  0  0  0  0  0  0  0  0
  140.8860   70.5430  228.0560 C   0  0  0  0  0  0  0  0  0  0  0  0
  140.9880   71.4180  226.9810 C   0  0  0  0  0  0  0  0  0  0  0  0
  140.5070   71.0380  225.7370 C   0  0  0  0  0  0  0  0  0  0  0  0
  140.6040   71.8800  224.6960 N   0  0  0  0  0  0  0  0  0  0  0  0
  141.6230   71.3330  221.2760 H   0  0  0  0  0  0  0  0  0  0  0  0
  141.4252   72.6140  219.2426 H   0  0  0  0  0  0  0  0  0  0  0  0
  140.4677   73.8693  220.1466 H   0  0  0  0  0  0  0  0  0  0  0  0
  144.3664   76.1542  219.2593 H   0  0  0  0  0  0  0  0  0  0  0  0
  143.5555   75.0683  218.1092 H   0  0  0  0  0  0  0  0  0  0  0  0
  142.9836   77.9295  218.8196 H   0  0  0  0  0  0  0  0  0  0  0  0
  143.0570   77.0841  217.1950 H   0  0  0  0  0  0  0  0  0  0  0  0
  140.8275   77.8849  217.8015 H   0  0  0  0  0  0  0  0  0  0  0  0
  140.9903   76.0671  217.5617 H   0  0  0  0  0  0  0  0  0  0  0  0
  139.9837   77.5579  219.8179 H   0  0  0  0  0  0  0  0  0  0  0  0
  139.8758   75.8190  219.4281 H   0  0  0  0  0  0  0  0  0  0  0  0
  142.2560   77.2786  220.7514 H   0  0  0  0  0  0  0  0  0  0  0  0
  140.3651   75.2397  221.7776 H   0  0  0  0  0  0  0  0  0  0  0  0
  141.9101   75.7232  222.5397 H   0  0  0  0  0  0  0  0  0  0  0  0
  138.4805   76.5291  221.9395 H   0  0  0  0  0  0  0  0  0  0  0  0
  137.2611   78.5116  222.8343 H   0  0  0  0  0  0  0  0  0  0  0  0
  141.0491   80.2457  223.9348 H   0  0  0  0  0  0  0  0  0  0  0  0
  142.2569   78.2645  223.0348 H   0  0  0  0  0  0  0  0  0  0  0  0
  139.2046   70.1140  222.1944 H   0  0  0  0  0  0  0  0  0  0  0  0
  139.0002   68.5092  224.0830 H   0  0  0  0  0  0  0  0  0  0  0  0
  139.3661   67.9531  226.4589 H   0  0  0  0  0  0  0  0  0  0  0  0
  141.2613   70.8267  229.0503 H   0  0  0  0  0  0  0  0  0  0  0  0
  141.4484   72.4078  227.1163 H   0  0  0  0  0  0  0  0  0  0  0  0
  1  2  2  0
  2  3  1  0
  3  4  1  0
  4  5  1  0
  5  6  2  0
  5  7  1  0
  7  8  1  0
  8  9  1  0
  9 10  1  0
 10 11  1  0
 11 12  1  0
 12 13  1  0
 13 14  1  0
 14 15  2  0
 15 16  1  0
 16 17  2  0
 17 18  1  0
 17 19  1  0
 19 20  2  0
  2 21  1  0
 21 22  2  0
 22 23  1  0
 23 24  2  0
 24 25  1  0
 25 26  2  0
 26 27  1  0
 26 28  1  0
 28 29  2  0
 29 30  1  0
 30 31  2  0
 12  7  1  0
 20 14  1  0
 31 21  1  0
 30 24  1  0
  3 32  1  0
  4 33  1  0
  4 34  1  0
  8 35  1  0
  8 36  1  0
  9 37  1  0
  9 38  1  0
 10 39  1  0
 10 40  1  0
 11 41  1  0
 11 42  1  0
 12 43  1  1
 13 44  1  0
 13 45  1  0
 15 46  1  0
 16 47  1  0
 19 48  1  0
 20 49  1  0
 22 50  1  0
 23 51  1  0
 25 52  1  0
 28 53  1  0
 29 54  1  0
M  END
>  <smiles>  (8) 
O=C(NCC(=O)N1CCCC[C@H]1Cc1ccc(Cl)cc1)c1ccc2cc(F)ccc2n1

>  <score_type>  (8) 
oracle

>  <origin>  (8) 
autodockgpu

>  <m_score__min__energy>  (8) 
-9.2100000000000009

>  <m_primary>  (8) 
energy

>  <rmsd>  (8) 
2.6857340486889774

>  <m_score__min__rmsd>  (8) 
2.6857340486889774

>  <meeko>  (8) 
{"free_energy": -8.71, "intermolecular_energy": -10.5, "internal_energy": -1.65, "cluster_size": 39, "cluster_id": 1, "rank_in_cluster": 19}

>  <energy>  (8) 
-8.97

>  <cluster_rmsd>  (8) 
1.29

>  <cluster>  (8) 
1

$$$$

     RDKit          3D

 54 57  0  0  0  0  0  0  0  0999 V2000
  137.8240   70.7370  221.8680 O   0  0  0  0  0  0  0  0  0  0  0  0
  138.5760   71.1590  222.7740 C   0  0  0  0  0  0  0  0  0  0  0  0
  139.0310   72.4990  222.6910 N   0  0  0  0  0  0  0  0  0  0  0  0
  138.6650   73.3770  221.6190 C   0  0  0  0  0  0  0  0  0  0  0  0
  139.6810   74.4340  221.3770 C   0  0  0  0  0  0  0  0  0  0  0  0
  140.7680   74.3230  221.9960 O   0  0  0  0  0  0  0  0  0  0  0  0
  139.3710   75.4880  220.4810 N   0  0  0  0  0  0  0  0  0  0  0  0
  139.8550   75.4360  219.0900 C   0  0  0  0  0  0  0  0  0  0  0  0
  138.9060   76.2370  218.2720 C   0  0  0  0  0  0  0  0  0  0  0  0
  137.4790   76.1460  218.7200 C   0  0  0  0  0  0  0  0  0  0  0  0
  137.2400   76.4870  220.1520 C   0  0  0  0  0  0  0  0  0  0  0  0
  138.5940   76.6570  220.8270 C   0  0  1  0  0  0  0  0  0  0  0  0
  138.4720   76.9410  222.2810 C   0  0  0  0  0  0  0  0  0  0  0  0
  139.5310   77.9480  222.6630 C   0  0  0  0  0  0  0  0  0  0  0  0
  139.1200   79.2020  223.0930 C   0  0  0  0  0  0  0  0  0  0  0  0
  140.0370   80.1840  223.4610 C   0  0  0  0  0  0  0  0  0  0  0  0
  141.3860   79.8840  223.3900 C   0  0  0  0  0  0  0  0  0  0  0  0
  142.6120   81.0790  223.8410 Cl  0  0  0  0  0  0  0  0  0  0  0  0
  141.7950   78.6260  222.9590 C   0  0  0  0  0  0  0  0  0  0  0  0
  140.8750   77.6500  222.5930 C   0  0  0  0  0  0  0  0  0  0  0  0
  138.9980   70.3180  223.9100 C   0  0  0  0  0  0  0  0  0  0  0  0
  138.7640   68.9630  223.8850 C   0  0  0  0  0  0  0  0  0  0  0  0
  139.1850   68.2330  224.9800 C   0  0  0  0  0  0  0  0  0  0  0  0
  139.8110   68.8180  226.0590 C   0  0  0  0  0  0  0  0  0  0  0  0
  140.2410   68.1200  227.1640 C   0  0  0  0  0  0  0  0  0  0  0  0
  140.8660   68.7630  228.2230 C   0  0  0  0  0  0  0  0  0  0  0  0
  141.2920   68.0880  229.3110 F   0  0  0  0  0  0  0  0  0  0  0  0
  141.0790   70.1300  228.2010 C   0  0  0  0  0  0  0  0  0  0  0  0
  140.6510   70.8500  227.0920 C   0  0  0  0  0  0  0  0  0  0  0  0
  140.0270   70.1910  226.0440 C   0  0  0  0  0  0  0  0  0  0  0  0
  139.6120   70.8820  224.9700 N   0  0  0  0  0  0  0  0  0  0  0  0
  139.6690   72.8300  223.4750 H   0  0  0  0  0  0  0  0  0  0  0  0
  138.5484   72.7829  220.7006 H   0  0  0  0  0  0  0  0  0  0  0  0
  137.7254   73.8748  221.9007 H   0  0  0  0  0  0  0  0  0  0  0  0
  140.8658   75.8650  219.0249 H   0  0  0  0  0  0  0  0  0  0  0  0
  139.9063   74.3980  218.7296 H   0  0  0  0  0  0  0  0  0  0  0  0
  139.2155   77.2915  218.3188 H   0  0  0  0  0  0  0  0  0  0  0  0
  138.9435   75.8261  217.2523 H   0  0  0  0  0  0  0  0  0  0  0  0
  136.8838   76.8347  218.1023 H   0  0  0  0  0  0  0  0  0  0  0  0
  137.1897   75.0910  218.6051 H   0  0  0  0  0  0  0  0  0  0  0  0
  136.6676   77.4237  220.2222 H   0  0  0  0  0  0  0  0  0  0  0  0
  136.6650   75.6889  220.6442 H   0  0  0  0  0  0  0  0  0  0  0  0
  139.1253   77.5497  220.4653 H   0  0  0  0  0  0  0  0  0  0  0  0
  137.4745   77.3517  222.4965 H   0  0  0  0  0  0  0  0  0  0  0  0
  138.6069   76.0146  222.8586 H   0  0  0  0  0  0  0  0  0  0  0  0
  138.0442   79.4258  223.1445 H   0  0  0  0  0  0  0  0  0  0  0  0
  139.6970   81.1738  223.7998 H   0  0  0  0  0  0  0  0  0  0  0  0
  142.8700   78.3986  222.9067 H   0  0  0  0  0  0  0  0  0  0  0  0
  141.2130   76.6595  222.2543 H   0  0  0  0  0  0  0  0  0  0  0  0
  138.2641   68.4819  223.0314 H   0  0  0  0  0  0  0  0  0  0  0  0
  139.0143   67.1464  224.9907 H   0  0  0  0  0  0  0  0  0  0  0  0
  140.0864   67.0318  227.2088 H   0  0  0  0  0  0  0  0  0  0  0  0
  141.5758   70.6354  229.0422 H   0  0  0  0  0  0  0  0  0  0  0  0
  140.8067   71.9380  227.0460 H   0  0  0  0  0  0  0  0  0  0  0  0
  1  2  2  0
  2  3  1  0
  3  4  1  0
  4  5  1  0
  5  6  2  0
  5  7  1  0
  7  8  1  0
  8  9  1  0
  9 10  1  0
 10 11  1  0
 11 12  1  0
 12 13  1  0
 13 14  1  0
 14 15  2  0
 15 16  1  0
 16 17  2  0
 17 18  1  0
 17 19  1  0
 19 20  2  0
  2 21  1  0
 21 22  2  0
 22 23  1  0
 23 24  2  0
 24 25  1  0
 25 26  2  0
 26 27  1  0
 26 28  1  0
 28 29  2  0
 29 30  1  0
 30 31  2  0
 12  7  1  0
 20 14  1  0
 31 21  1  0
 30 24  1  0
  3 32  1  0
  4 33  1  0
  4 34  1  0
  8 35  1  0
  8 36  1  0
  9 37  1  0
  9 38  1  0
 10 39  1  0
 10 40  1  0
 11 41  1  0
 11 42  1  0
 12 43  1  6
 13 44  1  0
 13 45  1  0
 15 46  1  0
 16 47  1  0
 19 48  1  0
 20 49  1  0
 22 50  1  0
 23 51  1  0
 25 52  1  0
 28 53  1  0
 29 54  1  0
M  END
>  <smiles>  (9) 
O=C(NCC(=O)N1CCCC[C@H]1Cc1ccc(Cl)cc1)c1ccc2cc(F)ccc2n1

>  <score_type>  (9) 
oracle

>  <origin>  (9) 
autodockgpu

>  <m_score__min__energy>  (9) 
-9.2100000000000009

>  <m_primary>  (9) 
energy

>  <rmsd>  (9) 
2.043018804971372

>  <m_score__min__rmsd>  (9) 
2.043018804971372

>  <meeko>  (9) 
{"free_energy": -8.43, "intermolecular_energy": -10.22, "internal_energy": -2.15, "cluster_size": 39, "cluster_id": 1, "rank_in_cluster": 31}

>  <energy>  (9) 
-8.97

>  <cluster_rmsd>  (9) 
1.32

>  <cluster>  (9) 
1

$$$$

     RDKit          3D

 54 57  0  0  0  0  0  0  0  0999 V2000
  140.3750   71.6940  220.9000 O   0  0  0  0  0  0  0  0  0  0  0  0
  139.8660   72.0830  221.9740 C   0  0  0  0  0  0  0  0  0  0  0  0
  139.2140   73.3410  221.9860 N   0  0  0  0  0  0  0  0  0  0  0  0
  139.1180   74.1750  220.8240 C   0  0  0  0  0  0  0  0  0  0  0  0
  139.8400   75.4640  220.9860 C   0  0  0  0  0  0  0  0  0  0  0  0
  139.1600   76.4440  221.3790 O   0  0  0  0  0  0  0  0  0  0  0  0
  141.2260   75.5140  220.6930 N   0  0  0  0  0  0  0  0  0  0  0  0
  142.1230   74.4600  221.2000 C   0  0  0  0  0  0  0  0  0  0  0  0
  143.2780   74.3890  220.2660 C   0  0  0  0  0  0  0  0  0  0  0  0
  142.9250   74.6410  218.8310 C   0  0  0  0  0  0  0  0  0  0  0  0
  142.2110   75.9230  218.5680 C   0  0  0  0  0  0  0  0  0  0  0  0
  141.8620   76.5510  219.9120 C   0  0  1  0  0  0  0  0  0  0  0  0
  141.0890   77.8120  219.7660 C   0  0  0  0  0  0  0  0  0  0  0  0
  141.4540   78.7330  220.9060 C   0  0  0  0  0  0  0  0  0  0  0  0
  141.7860   80.0460  220.6090 C   0  0  0  0  0  0  0  0  0  0  0  0
  142.1350   80.9550  221.6060 C   0  0  0  0  0  0  0  0  0  0  0  0
  142.1450   80.5180  222.9190 C   0  0  0  0  0  0  0  0  0  0  0  0
  142.5770   81.6120  224.2420 Cl  0  0  0  0  0  0  0  0  0  0  0  0
  141.8110   79.2000  223.2140 C   0  0  0  0  0  0  0  0  0  0  0  0
  141.4640   78.2990  222.2140 C   0  0  0  0  0  0  0  0  0  0  0  0
  139.9230   71.2830  223.2130 C   0  0  0  0  0  0  0  0  0  0  0  0
  139.4870   69.9790  223.2090 C   0  0  0  0  0  0  0  0  0  0  0  0
  139.5680   69.2870  224.4020 C   0  0  0  0  0  0  0  0  0  0  0  0
  140.0600   69.8610  225.5550 C   0  0  0  0  0  0  0  0  0  0  0  0
  140.1530   69.1990  226.7580 C   0  0  0  0  0  0  0  0  0  0  0  0
  140.6570   69.8280  227.8870 C   0  0  0  0  0  0  0  0  0  0  0  0
  140.7530   69.1880  229.0720 F   0  0  0  0  0  0  0  0  0  0  0  0
  141.0840   71.1430  227.8410 C   0  0  0  0  0  0  0  0  0  0  0  0
  140.9960   71.8260  226.6320 C   0  0  0  0  0  0  0  0  0  0  0  0
  140.4890   71.1810  225.5150 C   0  0  0  0  0  0  0  0  0  0  0  0
  140.4030   71.8360  224.3460 N   0  0  0  0  0  0  0  0  0  0  0  0
  138.7910   73.6460  222.9130 H   0  0  0  0  0  0  0  0  0  0  0  0
  139.5472   73.6358  219.9666 H   0  0  0  0  0  0  0  0  0  0  0  0
  138.0542   74.4059  220.6659 H   0  0  0  0  0  0  0  0  0  0  0  0
  142.4704   74.7137  222.2124 H   0  0  0  0  0  0  0  0  0  0  0  0
  141.6019   73.4929  221.2556 H   0  0  0  0  0  0  0  0  0  0  0  0
  144.0189   75.1406  220.5760 H   0  0  0  0  0  0  0  0  0  0  0  0
  143.6652   73.3608  220.3201 H   0  0  0  0  0  0  0  0  0  0  0  0
  143.8572   74.6448  218.2470 H   0  0  0  0  0  0  0  0  0  0  0  0
  142.2288   73.8395  218.5429 H   0  0  0  0  0  0  0  0  0  0  0  0
  142.8607   76.6018  217.9961 H   0  0  0  0  0  0  0  0  0  0  0  0
  141.2977   75.7391  217.9831 H   0  0  0  0  0  0  0  0  0  0  0  0
  142.7572   76.8951  220.4507 H   0  0  0  0  0  0  0  0  0  0  0  0
  141.3382   78.2911  218.8077 H   0  0  0  0  0  0  0  0  0  0  0  0
  140.0104   77.5971  219.7858 H   0  0  0  0  0  0  0  0  0  0  0  0
  141.7736   80.3784  219.5605 H   0  0  0  0  0  0  0  0  0  0  0  0
  142.3960   81.9938  221.3556 H   0  0  0  0  0  0  0  0  0  0  0  0
  141.8218   78.8637  224.2613 H   0  0  0  0  0  0  0  0  0  0  0  0
  141.2025   77.2597  222.4619 H   0  0  0  0  0  0  0  0  0  0  0  0
  139.0915   69.5080  222.2970 H   0  0  0  0  0  0  0  0  0  0  0  0
  139.2280   68.2413  224.4331 H   0  0  0  0  0  0  0  0  0  0  0  0
  139.8217   68.1522  226.8255 H   0  0  0  0  0  0  0  0  0  0  0  0
  141.4836   71.6370  228.7389 H   0  0  0  0  0  0  0  0  0  0  0  0
  141.3272   72.8727  226.5631 H   0  0  0  0  0  0  0  0  0  0  0  0
  1  2  2  0
  2  3  1  0
  3  4  1  0
  4  5  1  0
  5  6  2  0
  5  7  1  0
  7  8  1  0
  8  9  1  0
  9 10  1  0
 10 11  1  0
 11 12  1  0
 12 13  1  0
 13 14  1  0
 14 15  2  0
 15 16  1  0
 16 17  2  0
 17 18  1  0
 17 19  1  0
 19 20  2  0
  2 21  1  0
 21 22  2  0
 22 23  1  0
 23 24  2  0
 24 25  1  0
 25 26  2  0
 26 27  1  0
 26 28  1  0
 28 29  2  0
 29 30  1  0
 30 31  2  0
 12  7  1  0
 20 14  1  0
 31 21  1  0
 30 24  1  0
  3 32  1  0
  4 33  1  0
  4 34  1  0
  8 35  1  0
  8 36  1  0
  9 37  1  0
  9 38  1  0
 10 39  1  0
 10 40  1  0
 11 41  1  0
 11 42  1  0
 12 43  1  1
 13 44  1  0
 13 45  1  0
 15 46  1  0
 16 47  1  0
 19 48  1  0
 20 49  1  0
 22 50  1  0
 23 51  1  0
 25 52  1  0
 28 53  1  0
 29 54  1  0
M  END
>  <smiles>  (10) 
O=C(NCC(=O)N1CCCC[C@H]1Cc1ccc(Cl)cc1)c1ccc2cc(F)ccc2n1

>  <score_type>  (10) 
oracle

>  <origin>  (10) 
autodockgpu

>  <m_score__min__energy>  (10) 
-9.2100000000000009

>  <m_primary>  (10) 
energy

>  <rmsd>  (10) 
2.095970602679988

>  <m_score__min__rmsd>  (10) 
2.095970602679988

>  <meeko>  (10) 
{"free_energy": -8.67, "intermolecular_energy": -10.46, "internal_energy": -1.73, "cluster_size": 39, "cluster_id": 1, "rank_in_cluster": 20}

>  <energy>  (10) 
-8.95

>  <cluster_rmsd>  (10) 
1.16

>  <cluster>  (10) 
1

$$$$

     RDKit          3D

 54 57  0  0  0  0  0  0  0  0999 V2000
  140.8120   77.1400  218.0120 O   0  0  0  0  0  0  0  0  0  0  0  0
  141.9040   77.0580  218.6170 C   0  0  0  0  0  0  0  0  0  0  0  0
  142.3910   78.2170  219.2730 N   0  0  0  0  0  0  0  0  0  0  0  0
  141.6850   79.4640  219.2670 C   0  0  0  0  0  0  0  0  0  0  0  0
  140.7160   79.5750  220.3890 C   0  0  0  0  0  0  0  0  0  0  0  0
  139.5030   79.6750  220.0780 O   0  0  0  0  0  0  0  0  0  0  0  0
  141.2050   79.5640  221.7190 N   0  0  0  0  0  0  0  0  0  0  0  0
  142.5770   80.0230  222.0020 C   0  0  0  0  0  0  0  0  0  0  0  0
  142.5890   80.5080  223.4080 C   0  0  0  0  0  0  0  0  0  0  0  0
  141.3210   81.1810  223.8380 C   0  0  0  0  0  0  0  0  0  0  0  0
  140.0800   80.3760  223.6490 C   0  0  0  0  0  0  0  0  0  0  0  0
  140.4470   79.1220  222.8680 C   0  0  1  0  0  0  0  0  0  0  0  0
  139.2650   78.2710  222.5700 C   0  0  0  0  0  0  0  0  0  0  0  0
  139.7480   76.8830  222.2220 C   0  0  0  0  0  0  0  0  0  0  0  0
  138.8150   75.8600  222.1580 C   0  0  0  0  0  0  0  0  0  0  0  0
  139.1830   74.5530  221.8450 C   0  0  0  0  0  0  0  0  0  0  0  0
  140.5180   74.2890  221.5950 C   0  0  0  0  0  0  0  0  0  0  0  0
  141.0660   72.6550  221.1890 Cl  0  0  0  0  0  0  0  0  0  0  0  0
  141.4520   75.3180  221.6590 C   0  0  0  0  0  0  0  0  0  0  0  0
  141.0780   76.6190  221.9720 C   0  0  0  0  0  0  0  0  0  0  0  0
  142.6900   75.8110  218.6690 C   0  0  0  0  0  0  0  0  0  0  0  0
  142.4570   74.8150  217.7490 C   0  0  0  0  0  0  0  0  0  0  0  0
  143.2290   73.6730  217.8540 C   0  0  0  0  0  0  0  0  0  0  0  0
  144.1910   73.5200  218.8280 C   0  0  0  0  0  0  0  0  0  0  0  0
  144.9730   72.3960  218.9590 C   0  0  0  0  0  0  0  0  0  0  0  0
  145.9280   72.2960  219.9610 C   0  0  0  0  0  0  0  0  0  0  0  0
  146.7010   71.1990  220.0980 F   0  0  0  0  0  0  0  0  0  0  0  0
  146.1240   73.3270  220.8630 C   0  0  0  0  0  0  0  0  0  0  0  0
  145.3410   74.4700  220.7450 C   0  0  0  0  0  0  0  0  0  0  0  0
  144.3920   74.5510  219.7380 C   0  0  0  0  0  0  0  0  0  0  0  0
  143.6340   75.6520  219.6190 N   0  0  0  0  0  0  0  0  0  0  0  0
  143.3210   78.1180  219.7790 H   0  0  0  0  0  0  0  0  0  0  0  0
  142.4148   80.2830  219.3488 H   0  0  0  0  0  0  0  0  0  0  0  0
  141.1162   79.5215  218.3272 H   0  0  0  0  0  0  0  0  0  0  0  0
  143.2864   79.1908  221.8829 H   0  0  0  0  0  0  0  0  0  0  0  0
  142.8760   80.8218  221.3074 H   0  0  0  0  0  0  0  0  0  0  0  0
  142.7627   79.6458  224.0686 H   0  0  0  0  0  0  0  0  0  0  0  0
  143.3854   81.2639  223.4742 H   0  0  0  0  0  0  0  0  0  0  0  0
  141.4100   81.4234  224.9073 H   0  0  0  0  0  0  0  0  0  0  0  0
  141.2117   82.0665  223.1946 H   0  0  0  0  0  0  0  0  0  0  0  0
  139.6631   80.0973  224.6281 H   0  0  0  0  0  0  0  0  0  0  0  0
  139.3255   80.9599  223.1016 H   0  0  0  0  0  0  0  0  0  0  0  0
  141.0746   78.4389  223.4592 H   0  0  0  0  0  0  0  0  0  0  0  0
  138.6092   78.2252  223.4519 H   0  0  0  0  0  0  0  0  0  0  0  0
  138.6988   78.6948  221.7275 H   0  0  0  0  0  0  0  0  0  0  0  0
  137.7574   76.0856  222.3594 H   0  0  0  0  0  0  0  0  0  0  0  0
  138.4312   73.7514  221.7979 H   0  0  0  0  0  0  0  0  0  0  0  0
  142.5104   75.0967  221.4573 H   0  0  0  0  0  0  0  0  0  0  0  0
  141.8280   77.4223  222.0194 H   0  0  0  0  0  0  0  0  0  0  0  0
  141.6918   74.9224  216.9661 H   0  0  0  0  0  0  0  0  0  0  0  0
  143.0693   72.8570  217.1338 H   0  0  0  0  0  0  0  0  0  0  0  0
  144.8389   71.5605  218.2562 H   0  0  0  0  0  0  0  0  0  0  0  0
  146.8822   73.2442  221.6556 H   0  0  0  0  0  0  0  0  0  0  0  0
  145.4741   75.3060  221.4475 H   0  0  0  0  0  0  0  0  0  0  0  0
  1  2  2  0
  2  3  1  0
  3  4  1  0
  4  5  1  0
  5  6  2  0
  5  7  1  0
  7  8  1  0
  8  9  1  0
  9 10  1  0
 10 11  1  0
 11 12  1  0
 12 13  1  0
 13 14  1  0
 14 15  2  0
 15 16  1  0
 16 17  2  0
 17 18  1  0
 17 19  1  0
 19 20  2  0
  2 21  1  0
 21 22  2  0
 22 23  1  0
 23 24  2  0
 24 25  1  0
 25 26  2  0
 26 27  1  0
 26 28  1  0
 28 29  2  0
 29 30  1  0
 30 31  2  0
 12  7  1  0
 20 14  1  0
 31 21  1  0
 30 24  1  0
  3 32  1  0
  4 33  1  0
  4 34  1  0
  8 35  1  0
  8 36  1  0
  9 37  1  0
  9 38  1  0
 10 39  1  0
 10 40  1  0
 11 41  1  0
 11 42  1  0
 12 43  1  1
 13 44  1  0
 13 45  1  0
 15 46  1  0
 16 47  1  0
 19 48  1  0
 20 49  1  0
 22 50  1  0
 23 51  1  0
 25 52  1  0
 28 53  1  0
 29 54  1  0
M  END
>  <smiles>  (11) 
O=C(NCC(=O)N1CCCC[C@H]1Cc1ccc(Cl)cc1)c1ccc2cc(F)ccc2n1

>  <score_type>  (11) 
oracle

>  <origin>  (11) 
autodockgpu

>  <m_score__min__energy>  (11) 
-9.2100000000000009

>  <m_primary>  (11) 
energy

>  <rmsd>  (11) 
7.752151105796326

>  <m_score__min__rmsd>  (11) 
7.752151105796326

>  <meeko>  (11) 
{"free_energy": -7.16, "intermolecular_energy": -8.95, "internal_energy": -3.07, "cluster_size": 2, "cluster_id": 7, "rank_in_cluster": 1}

>  <energy>  (11) 
-8.94

>  <cluster_rmsd>  (11) 
1.87

>  <cluster>  (11) 
1

$$$$

     RDKit          3D

 54 57  0  0  0  0  0  0  0  0999 V2000
  139.1330   71.2500  221.0260 O   0  0  0  0  0  0  0  0  0  0  0  0
  139.2760   71.7610  222.1590 C   0  0  0  0  0  0  0  0  0  0  0  0
  139.2390   73.1740  222.2640 N   0  0  0  0  0  0  0  0  0  0  0  0
  139.0450   74.0290  221.1300 C   0  0  0  0  0  0  0  0  0  0  0  0
  140.1400   73.9080  220.1320 C   0  0  0  0  0  0  0  0  0  0  0  0
  139.8350   73.4160  219.0170 O   0  0  0  0  0  0  0  0  0  0  0  0
  141.4410   74.3440  220.4880 N   0  0  0  0  0  0  0  0  0  0  0  0
  142.4790   73.3560  220.8320 C   0  0  0  0  0  0  0  0  0  0  0  0
  143.7920   73.9830  220.5210 C   0  0  0  0  0  0  0  0  0  0  0  0
  143.7790   74.8750  219.3180 C   0  0  0  0  0  0  0  0  0  0  0  0
  142.7560   75.9600  219.3420 C   0  0  0  0  0  0  0  0  0  0  0  0
  141.8540   75.7280  220.5470 C   0  0  1  0  0  0  0  0  0  0  0  0
  140.7540   76.7250  220.6340 C   0  0  0  0  0  0  0  0  0  0  0  0
  141.2200   77.8800  221.4880 C   0  0  0  0  0  0  0  0  0  0  0  0
  141.1170   77.7620  222.8660 C   0  0  0  0  0  0  0  0  0  0  0  0
  141.5240   78.7850  223.7200 C   0  0  0  0  0  0  0  0  0  0  0  0
  142.0430   79.9390  223.1610 C   0  0  0  0  0  0  0  0  0  0  0  0
  142.5830   81.2840  224.1790 Cl  0  0  0  0  0  0  0  0  0  0  0  0
  142.1460   80.0550  221.7790 C   0  0  0  0  0  0  0  0  0  0  0  0
  141.7380   79.0310  220.9330 C   0  0  0  0  0  0  0  0  0  0  0  0
  139.4800   70.9480  223.3740 C   0  0  0  0  0  0  0  0  0  0  0  0
  139.0920   69.6290  223.3900 C   0  0  0  0  0  0  0  0  0  0  0  0
  139.3120   68.9260  224.5600 C   0  0  0  0  0  0  0  0  0  0  0  0
  139.8910   69.5020  225.6690 C   0  0  0  0  0  0  0  0  0  0  0  0
  140.1220   68.8300  226.8470 C   0  0  0  0  0  0  0  0  0  0  0  0
  140.7080   69.4630  227.9340 C   0  0  0  0  0  0  0  0  0  0  0  0
  140.9400   68.8120  229.0930 F   0  0  0  0  0  0  0  0  0  0  0  0
  141.0810   70.7930  227.8680 C   0  0  0  0  0  0  0  0  0  0  0  0
  140.8540   71.4880  226.6850 C   0  0  0  0  0  0  0  0  0  0  0  0
  140.2660   70.8390  225.6100 C   0  0  0  0  0  0  0  0  0  0  0  0
  140.0450   71.5050  224.4650 N   0  0  0  0  0  0  0  0  0  0  0  0
  139.3630   73.5790  223.2390 H   0  0  0  0  0  0  0  0  0  0  0  0
  138.0946   73.7616  220.6451 H   0  0  0  0  0  0  0  0  0  0  0  0
  139.0360   75.0676  221.4921 H   0  0  0  0  0  0  0  0  0  0  0  0
  142.4233   73.1055  221.9017 H   0  0  0  0  0  0  0  0  0  0  0  0
  142.3418   72.4256  220.2614 H   0  0  0  0  0  0  0  0  0  0  0  0
  144.1027   74.5813  221.3902 H   0  0  0  0  0  0  0  0  0  0  0  0
  144.4884   73.1615  220.2968 H   0  0  0  0  0  0  0  0  0  0  0  0
  144.7703   75.3440  219.2316 H   0  0  0  0  0  0  0  0  0  0  0  0
  143.5209   74.2315  218.4640 H   0  0  0  0  0  0  0  0  0  0  0  0
  143.2512   76.9384  219.4289 H   0  0  0  0  0  0  0  0  0  0  0  0
  142.1653   75.9495  218.4141 H   0  0  0  0  0  0  0  0  0  0  0  0
  142.3853   75.8932  221.4959 H   0  0  0  0  0  0  0  0  0  0  0  0
  140.5009   77.0870  219.6266 H   0  0  0  0  0  0  0  0  0  0  0  0
  139.8611   76.2628  221.0802 H   0  0  0  0  0  0  0  0  0  0  0  0
  140.7036   76.8376  223.2956 H   0  0  0  0  0  0  0  0  0  0  0  0
  141.4349   78.6777  224.8111 H   0  0  0  0  0  0  0  0  0  0  0  0
  142.5596   80.9778  221.3460 H   0  0  0  0  0  0  0  0  0  0  0  0
  141.8266   79.1366  219.8417 H   0  0  0  0  0  0  0  0  0  0  0  0
  138.6280   69.1550  222.5125 H   0  0  0  0  0  0  0  0  0  0  0  0
  139.0138   67.8682  224.6068 H   0  0  0  0  0  0  0  0  0  0  0  0
  139.8368   67.7708  226.9288 H   0  0  0  0  0  0  0  0  0  0  0  0
  141.5467   71.2900  228.7317 H   0  0  0  0  0  0  0  0  0  0  0  0
  141.1395   72.5471  226.6025 H   0  0  0  0  0  0  0  0  0  0  0  0
  1  2  2  0
  2  3  1  0
  3  4  1  0
  4  5  1  0
  5  6  2  0
  5  7  1  0
  7  8  1  0
  8  9  1  0
  9 10  1  0
 10 11  1  0
 11 12  1  0
 12 13  1  0
 13 14  1  0
 14 15  2  0
 15 16  1  0
 16 17  2  0
 17 18  1  0
 17 19  1  0
 19 20  2  0
  2 21  1  0
 21 22  2  0
 22 23  1  0
 23 24  2  0
 24 25  1  0
 25 26  2  0
 26 27  1  0
 26 28  1  0
 28 29  2  0
 29 30  1  0
 30 31  2  0
 12  7  1  0
 20 14  1  0
 31 21  1  0
 30 24  1  0
  3 32  1  0
  4 33  1  0
  4 34  1  0
  8 35  1  0
  8 36  1  0
  9 37  1  0
  9 38  1  0
 10 39  1  0
 10 40  1  0
 11 41  1  0
 11 42  1  0
 12 43  1  1
 13 44  1  0
 13 45  1  0
 15 46  1  0
 16 47  1  0
 19 48  1  0
 20 49  1  0
 22 50  1  0
 23 51  1  0
 25 52  1  0
 28 53  1  0
 29 54  1  0
M  END
>  <smiles>  (12) 
O=C(NCC(=O)N1CCCC[C@H]1Cc1ccc(Cl)cc1)c1ccc2cc(F)ccc2n1

>  <score_type>  (12) 
oracle

>  <origin>  (12) 
autodockgpu

>  <m_score__min__energy>  (12) 
-9.2100000000000009

>  <m_primary>  (12) 
energy

>  <rmsd>  (12) 
2.3268729929447907

>  <m_score__min__rmsd>  (12) 
2.3268729929447907

>  <meeko>  (12) 
{"free_energy": -9.07, "intermolecular_energy": -10.86, "internal_energy": -1.82, "cluster_size": 39, "cluster_id": 1, "rank_in_cluster": 3}

>  <energy>  (12) 
-8.92

>  <cluster_rmsd>  (12) 
0.92

>  <cluster>  (12) 
1

$$$$

     RDKit          3D

 54 57  0  0  0  0  0  0  0  0999 V2000
  138.9820   70.9990  221.5860 O   0  0  0  0  0  0  0  0  0  0  0  0
  139.4160   71.3750  222.6970 C   0  0  0  0  0  0  0  0  0  0  0  0
  139.8140   72.7290  222.8340 N   0  0  0  0  0  0  0  0  0  0  0  0
  139.7350   73.6710  221.7570 C   0  0  0  0  0  0  0  0  0  0  0  0
  140.7140   73.3830  220.6760 C   0  0  0  0  0  0  0  0  0  0  0  0
  140.4090   72.4710  219.8680 O   0  0  0  0  0  0  0  0  0  0  0  0
  141.9130   74.1370  220.6200 N   0  0  0  0  0  0  0  0  0  0  0  0
  143.2160   73.4510  220.6890 C   0  0  0  0  0  0  0  0  0  0  0  0
  144.1980   74.3190  219.9850 C   0  0  0  0  0  0  0  0  0  0  0  0
  143.6390   75.0460  218.8000 C   0  0  0  0  0  0  0  0  0  0  0  0
  142.4260   75.8700  219.0750 C   0  0  0  0  0  0  0  0  0  0  0  0
  141.9720   75.5760  220.4990 C   0  0  1  0  0  0  0  0  0  0  0  0
  140.7270   76.3040  220.8590 C   0  0  0  0  0  0  0  0  0  0  0  0
  141.1060   77.5730  221.5840 C   0  0  0  0  0  0  0  0  0  0  0  0
  141.0540   77.5790  222.9700 C   0  0  0  0  0  0  0  0  0  0  0  0
  141.3870   78.7120  223.7090 C   0  0  0  0  0  0  0  0  0  0  0  0
  141.7770   79.8510  223.0260 C   0  0  0  0  0  0  0  0  0  0  0  0
  142.2170   81.3300  223.8930 Cl  0  0  0  0  0  0  0  0  0  0  0  0
  141.8280   79.8420  221.6350 C   0  0  0  0  0  0  0  0  0  0  0  0
  141.4950   78.7080  220.9050 C   0  0  0  0  0  0  0  0  0  0  0  0
  139.5280   70.4660  223.8530 C   0  0  0  0  0  0  0  0  0  0  0  0
  139.0320   69.1850  223.7700 C   0  0  0  0  0  0  0  0  0  0  0  0
  139.1690   68.3860  224.8890 C   0  0  0  0  0  0  0  0  0  0  0  0
  139.7710   68.8330  226.0450 C   0  0  0  0  0  0  0  0  0  0  0  0
  139.9220   68.0630  227.1750 C   0  0  0  0  0  0  0  0  0  0  0  0
  140.5370   68.5660  228.3120 C   0  0  0  0  0  0  0  0  0  0  0  0
  140.6910   67.8190  229.4250 F   0  0  0  0  0  0  0  0  0  0  0  0
  141.0200   69.8620  228.3470 C   0  0  0  0  0  0  0  0  0  0  0  0
  140.8760   70.6540  227.2130 C   0  0  0  0  0  0  0  0  0  0  0  0
  140.2580   70.1340  226.0860 C   0  0  0  0  0  0  0  0  0  0  0  0
  140.1160   70.8950  224.9890 N   0  0  0  0  0  0  0  0  0  0  0  0
  140.1790   73.0200  223.7890 H   0  0  0  0  0  0  0  0  0  0  0  0
  138.7207   73.6373  221.3326 H   0  0  0  0  0  0  0  0  0  0  0  0
  139.9700   74.6653  222.1646 H   0  0  0  0  0  0  0  0  0  0  0  0
  143.5163   73.3136  221.7383 H   0  0  0  0  0  0  0  0  0  0  0  0
  143.1631   72.4565  220.2220 H   0  0  0  0  0  0  0  0  0  0  0  0
  144.5742   75.0647  220.7008 H   0  0  0  0  0  0  0  0  0  0  0  0
  144.9886   73.6559  219.6039 H   0  0  0  0  0  0  0  0  0  0  0  0
  144.4219   75.7126  218.4093 H   0  0  0  0  0  0  0  0  0  0  0  0
  143.3258   74.2704  218.0857 H   0  0  0  0  0  0  0  0  0  0  0  0
  142.6690   76.9380  218.9734 H   0  0  0  0  0  0  0  0  0  0  0  0
  141.6267   75.6249  218.3601 H   0  0  0  0  0  0  0  0  0  0  0  0
  142.6833   75.9595  221.2453 H   0  0  0  0  0  0  0  0  0  0  0  0
  140.1651   76.5519  219.9464 H   0  0  0  0  0  0  0  0  0  0  0  0
  140.0964   75.6753  221.5048 H   0  0  0  0  0  0  0  0  0  0  0  0
  140.7420   76.6663  223.4989 H   0  0  0  0  0  0  0  0  0  0  0  0
  141.3411   78.7017  224.8080 H   0  0  0  0  0  0  0  0  0  0  0  0
  142.1388   80.7528  221.1022 H   0  0  0  0  0  0  0  0  0  0  0  0
  141.5408   78.7155  219.8060 H   0  0  0  0  0  0  0  0  0  0  0  0
  138.5484   68.8139  222.8543 H   0  0  0  0  0  0  0  0  0  0  0  0
  138.7837   67.3562  224.8558 H   0  0  0  0  0  0  0  0  0  0  0  0
  139.5478   67.0286  227.1769 H   0  0  0  0  0  0  0  0  0  0  0  0
  141.5067   70.2569  229.2510 H   0  0  0  0  0  0  0  0  0  0  0  0
  141.2507   71.6882  227.2101 H   0  0  0  0  0  0  0  0  0  0  0  0
  1  2  2  0
  2  3  1  0
  3  4  1  0
  4  5  1  0
  5  6  2  0
  5  7  1  0
  7  8  1  0
  8  9  1  0
  9 10  1  0
 10 11  1  0
 11 12  1  0
 12 13  1  0
 13 14  1  0
 14 15  2  0
 15 16  1  0
 16 17  2  0
 17 18  1  0
 17 19  1  0
 19 20  2  0
  2 21  1  0
 21 22  2  0
 22 23  1  0
 23 24  2  0
 24 25  1  0
 25 26  2  0
 26 27  1  0
 26 28  1  0
 28 29  2  0
 29 30  1  0
 30 31  2  0
 12  7  1  0
 20 14  1  0
 31 21  1  0
 30 24  1  0
  3 32  1  0
  4 33  1  0
  4 34  1  0
  8 35  1  0
  8 36  1  0
  9 37  1  0
  9 38  1  0
 10 39  1  0
 10 40  1  0
 11 41  1  0
 11 42  1  0
 12 43  1  1
 13 44  1  0
 13 45  1  0
 15 46  1  0
 16 47  1  0
 19 48  1  0
 20 49  1  0
 22 50  1  0
 23 51  1  0
 25 52  1  0
 28 53  1  0
 29 54  1  0
M  END
>  <smiles>  (13) 
O=C(NCC(=O)N1CCCC[C@H]1Cc1ccc(Cl)cc1)c1ccc2cc(F)ccc2n1

>  <score_type>  (13) 
oracle

>  <origin>  (13) 
autodockgpu

>  <m_score__min__energy>  (13) 
-9.2100000000000009

>  <m_primary>  (13) 
energy

>  <rmsd>  (13) 
2.529690742095653

>  <m_score__min__rmsd>  (13) 
2.529690742095653

>  <meeko>  (13) 
{"free_energy": -8.92, "intermolecular_energy": -10.71, "internal_energy": -1.55, "cluster_size": 39, "cluster_id": 1, "rank_in_cluster": 12}

>  <energy>  (13) 
-8.88

>  <cluster_rmsd>  (13) 
1.16

>  <cluster>  (13) 
1

$$$$

     RDKit          3D

 54 57  0  0  0  0  0  0  0  0999 V2000
  141.3170   72.7360  221.8900 O   0  0  0  0  0  0  0  0  0  0  0  0
  140.2960   72.6140  222.6020 C   0  0  0  0  0  0  0  0  0  0  0  0
  139.2060   73.4870  222.3590 N   0  0  0  0  0  0  0  0  0  0  0  0
  139.2320   74.4930  221.3380 C   0  0  0  0  0  0  0  0  0  0  0  0
  138.0270   75.3630  221.3660 C   0  0  0  0  0  0  0  0  0  0  0  0
  137.0920   75.0070  222.1260 O   0  0  0  0  0  0  0  0  0  0  0  0
  138.0010   76.5210  220.5490 N   0  0  0  0  0  0  0  0  0  0  0  0
  138.3350   76.4180  219.1170 C   0  0  0  0  0  0  0  0  0  0  0  0
  137.6290   77.5310  218.4280 C   0  0  0  0  0  0  0  0  0  0  0  0
  136.2860   77.8600  219.0050 C   0  0  0  0  0  0  0  0  0  0  0  0
  136.2780   78.1570  220.4660 C   0  0  0  0  0  0  0  0  0  0  0  0
  137.6640   77.8470  221.0160 C   0  0  1  0  0  0  0  0  0  0  0  0
  137.7510   78.0520  222.4860 C   0  0  0  0  0  0  0  0  0  0  0  0
  139.0970   78.6560  222.8070 C   0  0  0  0  0  0  0  0  0  0  0  0
  139.1400   79.9710  223.2450 C   0  0  0  0  0  0  0  0  0  0  0  0
  140.3440   80.5980  223.5590 C   0  0  0  0  0  0  0  0  0  0  0  0
  141.5160   79.8740  223.4250 C   0  0  0  0  0  0  0  0  0  0  0  0
  143.0860   80.6000  223.8050 Cl  0  0  0  0  0  0  0  0  0  0  0  0
  141.4700   78.5550  222.9860 C   0  0  0  0  0  0  0  0  0  0  0  0
  140.2650   77.9360  222.6750 C   0  0  0  0  0  0  0  0  0  0  0  0
  140.1930   71.6050  223.6720 C   0  0  0  0  0  0  0  0  0  0  0  0
  139.6340   70.3770  223.4070 C   0  0  0  0  0  0  0  0  0  0  0  0
  139.5680   69.4780  224.4540 C   0  0  0  0  0  0  0  0  0  0  0  0
  140.0360   69.7800  225.7150 C   0  0  0  0  0  0  0  0  0  0  0  0
  139.9840   68.9080  226.7780 C   0  0  0  0  0  0  0  0  0  0  0  0
  140.4700   69.2660  228.0270 C   0  0  0  0  0  0  0  0  0  0  0  0
  140.4250   68.4190  229.0760 F   0  0  0  0  0  0  0  0  0  0  0  0
  141.0240   70.5150  228.2450 C   0  0  0  0  0  0  0  0  0  0  0  0
  141.0840   71.4090  227.1810 C   0  0  0  0  0  0  0  0  0  0  0  0
  140.5930   71.0320  225.9400 C   0  0  0  0  0  0  0  0  0  0  0  0
  140.6480   71.8920  224.9100 N   0  0  0  0  0  0  0  0  0  0  0  0
  138.3520   73.3600  222.9790 H   0  0  0  0  0  0  0  0  0  0  0  0
  140.1237   75.1205  221.4835 H   0  0  0  0  0  0  0  0  0  0  0  0
  139.2524   73.9811  220.3646 H   0  0  0  0  0  0  0  0  0  0  0  0
  139.4215   76.5132  218.9741 H   0  0  0  0  0  0  0  0  0  0  0  0
  138.0266   75.4439  218.7097 H   0  0  0  0  0  0  0  0  0  0  0  0
  138.2601   78.4299  218.4897 H   0  0  0  0  0  0  0  0  0  0  0  0
  137.4551   77.2011  217.3932 H   0  0  0  0  0  0  0  0  0  0  0  0
  135.8953   78.7420  218.4764 H   0  0  0  0  0  0  0  0  0  0  0  0
  135.6684   76.9593  218.8733 H   0  0  0  0  0  0  0  0  0  0  0  0
  136.0399   79.2183  220.6300 H   0  0  0  0  0  0  0  0  0  0  0  0
  135.5186   77.5463  220.9763 H   0  0  0  0  0  0  0  0  0  0  0  0
  138.4214   78.5522  220.6430 H   0  0  0  0  0  0  0  0  0  0  0  0
  136.9513   78.7326  222.8136 H   0  0  0  0  0  0  0  0  0  0  0  0
  137.6353   77.0907  223.0079 H   0  0  0  0  0  0  0  0  0  0  0  0
  138.2000   80.5332  223.3471 H   0  0  0  0  0  0  0  0  0  0  0  0
  140.3626   81.6421  223.9047 H   0  0  0  0  0  0  0  0  0  0  0  0
  142.4078   77.9894  222.8827 H   0  0  0  0  0  0  0  0  0  0  0  0
  140.2438   76.8917  222.3302 H   0  0  0  0  0  0  0  0  0  0  0  0
  139.2562   70.1217  222.4059 H   0  0  0  0  0  0  0  0  0  0  0  0
  139.1265   68.4865  224.2751 H   0  0  0  0  0  0  0  0  0  0  0  0
  139.5488   67.9080  226.6347 H   0  0  0  0  0  0  0  0  0  0  0  0
  141.4082   70.7946  229.2371 H   0  0  0  0  0  0  0  0  0  0  0  0
  141.5185   72.4095  227.3232 H   0  0  0  0  0  0  0  0  0  0  0  0
  1  2  2  0
  2  3  1  0
  3  4  1  0
  4  5  1  0
  5  6  2  0
  5  7  1  0
  7  8  1  0
  8  9  1  0
  9 10  1  0
 10 11  1  0
 11 12  1  0
 12 13  1  0
 13 14  1  0
 14 15  2  0
 15 16  1  0
 16 17  2  0
 17 18  1  0
 17 19  1  0
 19 20  2  0
  2 21  1  0
 21 22  2  0
 22 23  1  0
 23 24  2  0
 24 25  1  0
 25 26  2  0
 26 27  1  0
 26 28  1  0
 28 29  2  0
 29 30  1  0
 30 31  2  0
 12  7  1  0
 20 14  1  0
 31 21  1  0
 30 24  1  0
  3 32  1  0
  4 33  1  0
  4 34  1  0
  8 35  1  0
  8 36  1  0
  9 37  1  0
  9 38  1  0
 10 39  1  0
 10 40  1  0
 11 41  1  0
 11 42  1  0
 12 43  1  6
 13 44  1  0
 13 45  1  0
 15 46  1  0
 16 47  1  0
 19 48  1  0
 20 49  1  0
 22 50  1  0
 23 51  1  0
 25 52  1  0
 28 53  1  0
 29 54  1  0
M  END
>  <smiles>  (14) 
O=C(NCC(=O)N1CCCC[C@H]1Cc1ccc(Cl)cc1)c1ccc2cc(F)ccc2n1

>  <score_type>  (14) 
oracle

>  <origin>  (14) 
autodockgpu

>  <m_score__min__energy>  (14) 
-9.2100000000000009

>  <m_primary>  (14) 
energy

>  <rmsd>  (14) 
2.708843674229272

>  <m_score__min__rmsd>  (14) 
2.708843674229272

>  <meeko>  (14) 
{"free_energy": -8.1, "intermolecular_energy": -9.89, "internal_energy": -2.0, "cluster_size": 3, "cluster_id": 5, "rank_in_cluster": 3}

>  <energy>  (14) 
-8.82

>  <cluster_rmsd>  (14) 
0.83

>  <cluster>  (14) 
1

$$$$

     RDKit          3D

 54 57  0  0  0  0  0  0  0  0999 V2000
  137.8220   70.6810  221.8700 O   0  0  0  0  0  0  0  0  0  0  0  0
  138.5720   71.0980  222.7800 C   0  0  0  0  0  0  0  0  0  0  0  0
  139.0190   72.4410  222.7140 N   0  0  0  0  0  0  0  0  0  0  0  0
  138.6450   73.3300  221.6530 C   0  0  0  0  0  0  0  0  0  0  0  0
  139.5660   74.4900  221.5310 C   0  0  0  0  0  0  0  0  0  0  0  0
  140.5730   74.4910  222.2830 O   0  0  0  0  0  0  0  0  0  0  0  0
  139.2630   75.5090  220.5950 N   0  0  0  0  0  0  0  0  0  0  0  0
  139.7400   75.3970  219.2050 C   0  0  0  0  0  0  0  0  0  0  0  0
  138.7940   76.1730  218.3590 C   0  0  0  0  0  0  0  0  0  0  0  0
  137.3690   76.1130  218.8150 C   0  0  0  0  0  0  0  0  0  0  0  0
  137.1390   76.5140  220.2330 C   0  0  0  0  0  0  0  0  0  0  0  0
  138.4970   76.6980  220.8960 C   0  0  1  0  0  0  0  0  0  0  0  0
  138.3840   77.0430  222.3380 C   0  0  0  0  0  0  0  0  0  0  0  0
  139.5180   77.9720  222.6990 C   0  0  0  0  0  0  0  0  0  0  0  0
  139.2280   79.1020  223.4490 C   0  0  0  0  0  0  0  0  0  0  0  0
  140.2190   80.0080  223.8210 C   0  0  0  0  0  0  0  0  0  0  0  0
  141.5200   79.7570  223.4220 C   0  0  0  0  0  0  0  0  0  0  0  0
  142.8360   80.8600  223.8540 Cl  0  0  0  0  0  0  0  0  0  0  0  0
  141.8090   78.6230  222.6700 C   0  0  0  0  0  0  0  0  0  0  0  0
  140.8150   77.7240  222.3030 C   0  0  0  0  0  0  0  0  0  0  0  0
  139.0020   70.2450  223.9050 C   0  0  0  0  0  0  0  0  0  0  0  0
  138.7740   68.8890  223.8650 C   0  0  0  0  0  0  0  0  0  0  0  0
  139.2010   68.1490  224.9510 C   0  0  0  0  0  0  0  0  0  0  0  0
  139.8280   68.7250  226.0340 C   0  0  0  0  0  0  0  0  0  0  0  0
  140.2640   68.0160  227.1300 C   0  0  0  0  0  0  0  0  0  0  0  0
  140.8900   68.6500  228.1940 C   0  0  0  0  0  0  0  0  0  0  0  0
  141.3220   67.9640  229.2730 F   0  0  0  0  0  0  0  0  0  0  0  0
  141.0970   70.0170  228.1880 C   0  0  0  0  0  0  0  0  0  0  0  0
  140.6620   70.7490  227.0880 C   0  0  0  0  0  0  0  0  0  0  0  0
  140.0380   70.0980  226.0340 C   0  0  0  0  0  0  0  0  0  0  0  0
  139.6170   70.8000  224.9700 N   0  0  0  0  0  0  0  0  0  0  0  0
  139.6560   72.7670  223.5010 H   0  0  0  0  0  0  0  0  0  0  0  0
  138.6537   72.7715  220.7053 H   0  0  0  0  0  0  0  0  0  0  0  0
  137.6430   73.7215  221.8827 H   0  0  0  0  0  0  0  0  0  0  0  0
  140.7542   75.8141  219.1185 H   0  0  0  0  0  0  0  0  0  0  0  0
  139.7805   74.3449  218.8865 H   0  0  0  0  0  0  0  0  0  0  0  0
  139.1128   77.2258  218.3622 H   0  0  0  0  0  0  0  0  0  0  0  0
  138.8236   75.7207  217.3567 H   0  0  0  0  0  0  0  0  0  0  0  0
  136.7775   76.7813  218.1720 H   0  0  0  0  0  0  0  0  0  0  0  0
  137.0698   75.0569  218.7439 H   0  0  0  0  0  0  0  0  0  0  0  0
  136.5759   77.4583  220.2673 H   0  0  0  0  0  0  0  0  0  0  0  0
  136.5584   75.7419  220.7591 H   0  0  0  0  0  0  0  0  0  0  0  0
  139.0347   77.5703  220.4960 H   0  0  0  0  0  0  0  0  0  0  0  0
  137.4217   77.5417  222.5258 H   0  0  0  0  0  0  0  0  0  0  0  0
  138.4360   76.1298  222.9490 H   0  0  0  0  0  0  0  0  0  0  0  0
  138.1888   79.2877  223.7581 H   0  0  0  0  0  0  0  0  0  0  0  0
  139.9735   80.8997  224.4165 H   0  0  0  0  0  0  0  0  0  0  0  0
  142.8470   78.4338  222.3591 H   0  0  0  0  0  0  0  0  0  0  0  0
  141.0584   76.8315  221.7078 H   0  0  0  0  0  0  0  0  0  0  0  0
  138.2743   68.4152  223.0072 H   0  0  0  0  0  0  0  0  0  0  0  0
  139.0344   67.0617  224.9508 H   0  0  0  0  0  0  0  0  0  0  0  0
  140.1136   66.9268  227.1633 H   0  0  0  0  0  0  0  0  0  0  0  0
  141.5943   70.5144  229.0338 H   0  0  0  0  0  0  0  0  0  0  0  0
  140.8121   71.8382  227.0542 H   0  0  0  0  0  0  0  0  0  0  0  0
  1  2  2  0
  2  3  1  0
  3  4  1  0
  4  5  1  0
  5  6  2  0
  5  7  1  0
  7  8  1  0
  8  9  1  0
  9 10  1  0
 10 11  1  0
 11 12  1  0
 12 13  1  0
 13 14  1  0
 14 15  2  0
 15 16  1  0
 16 17  2  0
 17 18  1  0
 17 19  1  0
 19 20  2  0
  2 21  1  0
 21 22  2  0
 22 23  1  0
 23 24  2  0
 24 25  1  0
 25 26  2  0
 26 27  1  0
 26 28  1  0
 28 29  2  0
 29 30  1  0
 30 31  2  0
 12  7  1  0
 20 14  1  0
 31 21  1  0
 30 24  1  0
  3 32  1  0
  4 33  1  0
  4 34  1  0
  8 35  1  0
  8 36  1  0
  9 37  1  0
  9 38  1  0
 10 39  1  0
 10 40  1  0
 11 41  1  0
 11 42  1  0
 12 43  1  6
 13 44  1  0
 13 45  1  0
 15 46  1  0
 16 47  1  0
 19 48  1  0
 20 49  1  0
 22 50  1  0
 23 51  1  0
 25 52  1  0
 28 53  1  0
 29 54  1  0
M  END
>  <smiles>  (15) 
O=C(NCC(=O)N1CCCC[C@H]1Cc1ccc(Cl)cc1)c1ccc2cc(F)ccc2n1

>  <score_type>  (15) 
oracle

>  <origin>  (15) 
autodockgpu

>  <m_score__min__energy>  (15) 
-9.2100000000000009

>  <m_primary>  (15) 
energy

>  <rmsd>  (15) 
2.088003491712964

>  <m_score__min__rmsd>  (15) 
2.088003491712964

>  <meeko>  (15) 
{"free_energy": -8.45, "intermolecular_energy": -10.24, "internal_energy": -2.23, "cluster_size": 39, "cluster_id": 1, "rank_in_cluster": 29}

>  <energy>  (15) 
-8.81

>  <cluster_rmsd>  (15) 
1.14

>  <cluster>  (15) 
1

$$$$

     RDKit          3D

 54 57  0  0  0  0  0  0  0  0999 V2000
  139.3040   70.5800  221.4130 O   0  0  0  0  0  0  0  0  0  0  0  0
  139.3090   71.3910  222.3640 C   0  0  0  0  0  0  0  0  0  0  0  0
  138.8230   72.7010  222.1260 N   0  0  0  0  0  0  0  0  0  0  0  0
  138.3300   73.1240  220.8480 C   0  0  0  0  0  0  0  0  0  0  0  0
  139.2470   74.0790  220.1720 C   0  0  0  0  0  0  0  0  0  0  0  0
  138.7920   74.6790  219.1660 O   0  0  0  0  0  0  0  0  0  0  0  0
  140.5550   74.2530  220.6880 N   0  0  0  0  0  0  0  0  0  0  0  0
  141.5760   73.2140  220.4690 C   0  0  0  0  0  0  0  0  0  0  0  0
  142.8990   73.8920  220.5100 C   0  0  0  0  0  0  0  0  0  0  0  0
  142.9010   75.2740  219.9320 C   0  0  0  0  0  0  0  0  0  0  0  0
  141.8960   76.2090  220.5160 C   0  0  0  0  0  0  0  0  0  0  0  0
  140.9920   75.4070  221.4430 C   0  0  1  0  0  0  0  0  0  0  0  0
  139.9090   76.2350  222.0370 C   0  0  0  0  0  0  0  0  0  0  0  0
  140.4970   77.5600  222.4590 C   0  0  0  0  0  0  0  0  0  0  0  0
  140.0540   78.7090  221.8200 C   0  0  0  0  0  0  0  0  0  0  0  0
  140.5500   79.9680  222.1530 C   0  0  0  0  0  0  0  0  0  0  0  0
  141.5060   80.0540  223.1490 C   0  0  0  0  0  0  0  0  0  0  0  0
  142.1850   81.6170  223.6300 Cl  0  0  0  0  0  0  0  0  0  0  0  0
  141.9480   78.9010  223.7890 C   0  0  0  0  0  0  0  0  0  0  0  0
  141.4500   77.6480  223.4520 C   0  0  0  0  0  0  0  0  0  0  0  0
  139.8000   71.0330  223.7080 C   0  0  0  0  0  0  0  0  0  0  0  0
  140.6120   71.9030  224.3970 C   0  0  0  0  0  0  0  0  0  0  0  0
  141.0370   71.5050  225.6510 C   0  0  0  0  0  0  0  0  0  0  0  0
  140.6750   70.2950  226.2020 C   0  0  0  0  0  0  0  0  0  0  0  0
  141.0810   69.8700  227.4460 C   0  0  0  0  0  0  0  0  0  0  0  0
  140.6850   68.6400  227.9510 C   0  0  0  0  0  0  0  0  0  0  0  0
  141.0770   68.2140  229.1700 F   0  0  0  0  0  0  0  0  0  0  0  0
  139.8660   67.7990  227.2190 C   0  0  0  0  0  0  0  0  0  0  0  0
  139.4470   68.2130  225.9590 C   0  0  0  0  0  0  0  0  0  0  0  0
  139.8530   69.4460  225.4720 C   0  0  0  0  0  0  0  0  0  0  0  0
  139.4510   69.8500  224.2560 N   0  0  0  0  0  0  0  0  0  0  0  0
  138.8400   73.3690  222.9530 H   0  0  0  0  0  0  0  0  0  0  0  0
  138.2071   72.2388  220.2067 H   0  0  0  0  0  0  0  0  0  0  0  0
  137.3725   73.6398  221.0130 H   0  0  0  0  0  0  0  0  0  0  0  0
  141.5166   72.4526  221.2607 H   0  0  0  0  0  0  0  0  0  0  0  0
  141.4225   72.7088  219.5040 H   0  0  0  0  0  0  0  0  0  0  0  0
  143.2205   73.9571  221.5600 H   0  0  0  0  0  0  0  0  0  0  0  0
  143.5809   73.2904  219.8910 H   0  0  0  0  0  0  0  0  0  0  0  0
  143.8999   75.7069  220.0891 H   0  0  0  0  0  0  0  0  0  0  0  0
  142.6323   75.1613  218.8713 H   0  0  0  0  0  0  0  0  0  0  0  0
  142.4075   76.9994  221.0849 H   0  0  0  0  0  0  0  0  0  0  0  0
  141.3038   76.6813  219.7183 H   0  0  0  0  0  0  0  0  0  0  0  0
  141.5269   75.0572  222.3382 H   0  0  0  0  0  0  0  0  0  0  0  0
  139.1172   76.4008  221.2916 H   0  0  0  0  0  0  0  0  0  0  0  0
  139.4749   75.7206  222.9070 H   0  0  0  0  0  0  0  0  0  0  0  0
  139.2923   78.6241  221.0309 H   0  0  0  0  0  0  0  0  0  0  0  0
  140.1904   80.8704  221.6369 H   0  0  0  0  0  0  0  0  0  0  0  0
  142.7086   78.9826  224.5794 H   0  0  0  0  0  0  0  0  0  0  0  0
  141.8088   76.7446  223.9669 H   0  0  0  0  0  0  0  0  0  0  0  0
  140.9099   72.8719  223.9698 H   0  0  0  0  0  0  0  0  0  0  0  0
  141.6871   72.1780  226.2293 H   0  0  0  0  0  0  0  0  0  0  0  0
  141.7319   70.5177  228.0516 H   0  0  0  0  0  0  0  0  0  0  0  0
  139.5533   66.8253  227.6241 H   0  0  0  0  0  0  0  0  0  0  0  0
  138.7970   67.5656  225.3521 H   0  0  0  0  0  0  0  0  0  0  0  0
  1  2  2  0
  2  3  1  0
  3  4  1  0
  4  5  1  0
  5  6  2  0
  5  7  1  0
  7  8  1  0
  8  9  1  0
  9 10  1  0
 10 11  1  0
 11 12  1  0
 12 13  1  0
 13 14  1  0
 14 15  2  0
 15 16  1  0
 16 17  2  0
 17 18  1  0
 17 19  1  0
 19 20  2  0
  2 21  1  0
 21 22  2  0
 22 23  1  0
 23 24  2  0
 24 25  1  0
 25 26  2  0
 26 27  1  0
 26 28  1  0
 28 29  2  0
 29 30  1  0
 30 31  2  0
 12  7  1  0
 20 14  1  0
 31 21  1  0
 30 24  1  0
  3 32  1  0
  4 33  1  0
  4 34  1  0
  8 35  1  0
  8 36  1  0
  9 37  1  0
  9 38  1  0
 10 39  1  0
 10 40  1  0
 11 41  1  0
 11 42  1  0
 12 43  1  1
 13 44  1  0
 13 45  1  0
 15 46  1  0
 16 47  1  0
 19 48  1  0
 20 49  1  0
 22 50  1  0
 23 51  1  0
 25 52  1  0
 28 53  1  0
 29 54  1  0
M  END
>  <smiles>  (16) 
O=C(NCC(=O)N1CCCC[C@H]1Cc1ccc(Cl)cc1)c1ccc2cc(F)ccc2n1

>  <score_type>  (16) 
oracle

>  <origin>  (16) 
autodockgpu

>  <m_score__min__energy>  (16) 
-9.2100000000000009

>  <m_primary>  (16) 
energy

>  <rmsd>  (16) 
3.15582275682631

>  <m_score__min__rmsd>  (16) 
3.15582275682631

>  <meeko>  (16) 
{"free_energy": -8.58, "intermolecular_energy": -10.37, "internal_energy": -1.75, "cluster_size": 39, "cluster_id": 1, "rank_in_cluster": 24}

>  <energy>  (16) 
-8.77

>  <cluster_rmsd>  (16) 
1.37

>  <cluster>  (16) 
1

$$$$

     RDKit          3D

 54 57  0  0  0  0  0  0  0  0999 V2000
  139.7050   71.0180  221.0610 O   0  0  0  0  0  0  0  0  0  0  0  0
  139.7580   71.4910  222.2180 C   0  0  0  0  0  0  0  0  0  0  0  0
  139.8360   72.8990  222.3590 N   0  0  0  0  0  0  0  0  0  0  0  0
  139.8570   73.7900  221.2370 C   0  0  0  0  0  0  0  0  0  0  0  0
  140.5530   75.0680  221.5370 C   0  0  0  0  0  0  0  0  0  0  0  0
  140.2320   75.6480  222.6040 O   0  0  0  0  0  0  0  0  0  0  0  0
  141.5200   75.5520  220.6200 N   0  0  0  0  0  0  0  0  0  0  0  0
  142.8190   74.8680  220.4920 C   0  0  0  0  0  0  0  0  0  0  0  0
  143.3140   75.1370  219.1150 C   0  0  0  0  0  0  0  0  0  0  0  0
  142.2380   75.2020  218.0750 C   0  0  0  0  0  0  0  0  0  0  0  0
  141.1400   76.1720  218.3560 C   0  0  0  0  0  0  0  0  0  0  0  0
  141.3360   76.7060  219.7690 C   0  0  1  0  0  0  0  0  0  0  0  0
  140.2560   77.6420  220.1770 C   0  0  0  0  0  0  0  0  0  0  0  0
  140.8080   78.5870  221.2170 C   0  0  0  0  0  0  0  0  0  0  0  0
  141.6680   79.5930  220.8020 C   0  0  0  0  0  0  0  0  0  0  0  0
  142.2190   80.5020  221.7020 C   0  0  0  0  0  0  0  0  0  0  0  0
  141.8890   80.3840  223.0400 C   0  0  0  0  0  0  0  0  0  0  0  0
  142.5470   81.5000  224.2460 Cl  0  0  0  0  0  0  0  0  0  0  0  0
  141.0250   79.3740  223.4550 C   0  0  0  0  0  0  0  0  0  0  0  0
  140.4790   78.4710  222.5510 C   0  0  0  0  0  0  0  0  0  0  0  0
  139.7420   70.6400  223.4230 C   0  0  0  0  0  0  0  0  0  0  0  0
  139.1900   69.3820  223.3680 C   0  0  0  0  0  0  0  0  0  0  0  0
  139.2090   68.6380  224.5320 C   0  0  0  0  0  0  0  0  0  0  0  0
  139.7490   69.1170  225.7050 C   0  0  0  0  0  0  0  0  0  0  0  0
  139.7820   68.4020  226.8800 C   0  0  0  0  0  0  0  0  0  0  0  0
  140.3390   68.9370  228.0320 C   0  0  0  0  0  0  0  0  0  0  0  0
  140.3770   68.2440  229.1900 F   0  0  0  0  0  0  0  0  0  0  0  0
  140.8830   70.2090  228.0380 C   0  0  0  0  0  0  0  0  0  0  0  0
  140.8580   70.9460  226.8580 C   0  0  0  0  0  0  0  0  0  0  0  0
  140.2960   70.3950  225.7170 C   0  0  0  0  0  0  0  0  0  0  0  0
  140.2690   71.1020  224.5760 N   0  0  0  0  0  0  0  0  0  0  0  0
  139.8800   73.2720  223.3540 H   0  0  0  0  0  0  0  0  0  0  0  0
  140.3746   73.2941  220.4026 H   0  0  0  0  0  0  0  0  0  0  0  0
  138.8143   74.0298  220.9816 H   0  0  0  0  0  0  0  0  0  0  0  0
  143.5293   75.2628  221.2334 H   0  0  0  0  0  0  0  0  0  0  0  0
  142.7147   73.7874  220.6693 H   0  0  0  0  0  0  0  0  0  0  0  0
  143.8451   76.1003  219.1219 H   0  0  0  0  0  0  0  0  0  0  0  0
  143.9641   74.2923  218.8433 H   0  0  0  0  0  0  0  0  0  0  0  0
  142.7048   75.4840  217.1197 H   0  0  0  0  0  0  0  0  0  0  0  0
  141.7692   74.2070  218.0586 H   0  0  0  0  0  0  0  0  0  0  0  0
  141.1803   77.0012  217.6343 H   0  0  0  0  0  0  0  0  0  0  0  0
  140.1610   75.6787  218.2656 H   0  0  0  0  0  0  0  0  0  0  0  0
  142.2293   77.3429  219.8481 H   0  0  0  0  0  0  0  0  0  0  0  0
  139.9104   78.2133  219.3028 H   0  0  0  0  0  0  0  0  0  0  0  0
  139.4068   77.0794  220.5921 H   0  0  0  0  0  0  0  0  0  0  0  0
  141.9214   79.6750  219.7347 H   0  0  0  0  0  0  0  0  0  0  0  0
  142.8998   81.2942  221.3572 H   0  0  0  0  0  0  0  0  0  0  0  0
  140.7692   79.2891  224.5215 H   0  0  0  0  0  0  0  0  0  0  0  0
  139.7971   77.6785  222.8931 H   0  0  0  0  0  0  0  0  0  0  0  0
  138.7531   68.9859  222.4394 H   0  0  0  0  0  0  0  0  0  0  0  0
  138.7772   67.6264  224.5215 H   0  0  0  0  0  0  0  0  0  0  0  0
  139.3587   67.3871  226.9063 H   0  0  0  0  0  0  0  0  0  0  0  0
  141.3249   70.6279  228.9541 H   0  0  0  0  0  0  0  0  0  0  0  0
  141.2820   71.9606  226.8308 H   0  0  0  0  0  0  0  0  0  0  0  0
  1  2  2  0
  2  3  1  0
  3  4  1  0
  4  5  1  0
  5  6  2  0
  5  7  1  0
  7  8  1  0
  8  9  1  0
  9 10  1  0
 10 11  1  0
 11 12  1  0
 12 13  1  0
 13 14  1  0
 14 15  2  0
 15 16  1  0
 16 17  2  0
 17 18  1  0
 17 19  1  0
 19 20  2  0
  2 21  1  0
 21 22  2  0
 22 23  1  0
 23 24  2  0
 24 25  1  0
 25 26  2  0
 26 27  1  0
 26 28  1  0
 28 29  2  0
 29 30  1  0
 30 31  2  0
 12  7  1  0
 20 14  1  0
 31 21  1  0
 30 24  1  0
  3 32  1  0
  4 33  1  0
  4 34  1  0
  8 35  1  0
  8 36  1  0
  9 37  1  0
  9 38  1  0
 10 39  1  0
 10 40  1  0
 11 41  1  0
 11 42  1  0
 12 43  1  6
 13 44  1  0
 13 45  1  0
 15 46  1  0
 16 47  1  0
 19 48  1  0
 20 49  1  0
 22 50  1  0
 23 51  1  0
 25 52  1  0
 28 53  1  0
 29 54  1  0
M  END
>  <smiles>  (17) 
O=C(NCC(=O)N1CCCC[C@H]1Cc1ccc(Cl)cc1)c1ccc2cc(F)ccc2n1

>  <score_type>  (17) 
oracle

>  <origin>  (17) 
autodockgpu

>  <m_score__min__energy>  (17) 
-9.2100000000000009

>  <m_primary>  (17) 
energy

>  <rmsd>  (17) 
1.9933233616683985

>  <m_score__min__rmsd>  (17) 
1.9933233616683985

>  <meeko>  (17) 
{"free_energy": -8.67, "intermolecular_energy": -10.46, "internal_energy": -1.93, "cluster_size": 39, "cluster_id": 1, "rank_in_cluster": 21}

>  <energy>  (17) 
-8.75

>  <cluster_rmsd>  (17) 
1.2

>  <cluster>  (17) 
1

$$$$

     RDKit          3D

 54 57  0  0  0  0  0  0  0  0999 V2000
  138.9380   70.6260  221.5250 O   0  0  0  0  0  0  0  0  0  0  0  0
  139.1180   71.4460  222.4510 C   0  0  0  0  0  0  0  0  0  0  0  0
  138.7800   72.8020  222.2160 N   0  0  0  0  0  0  0  0  0  0  0  0
  138.2450   73.2620  220.9690 C   0  0  0  0  0  0  0  0  0  0  0  0
  139.0630   74.3450  220.3630 C   0  0  0  0  0  0  0  0  0  0  0  0
  138.4690   75.1260  219.5780 O   0  0  0  0  0  0  0  0  0  0  0  0
  140.4370   74.4320  220.6950 N   0  0  0  0  0  0  0  0  0  0  0  0
  141.3790   73.4100  220.2040 C   0  0  0  0  0  0  0  0  0  0  0  0
  142.7170   74.0550  220.1290 C   0  0  0  0  0  0  0  0  0  0  0  0
  142.6830   75.4980  219.7260 C   0  0  0  0  0  0  0  0  0  0  0  0
  141.8080   76.3700  220.5610 C   0  0  0  0  0  0  0  0  0  0  0  0
  141.0200   75.4750  221.5090 C   0  0  1  0  0  0  0  0  0  0  0  0
  140.0650   76.2420  222.3520 C   0  0  0  0  0  0  0  0  0  0  0  0
  140.4010   77.7100  222.2420 C   0  0  0  0  0  0  0  0  0  0  0  0
  141.3960   78.2200  223.0620 C   0  0  0  0  0  0  0  0  0  0  0  0
  141.7610   79.5640  223.0200 C   0  0  0  0  0  0  0  0  0  0  0  0
  141.1030   80.3960  222.1310 C   0  0  0  0  0  0  0  0  0  0  0  0
  141.5100   82.1150  222.0170 Cl  0  0  0  0  0  0  0  0  0  0  0  0
  140.1060   79.8820  221.3090 C   0  0  0  0  0  0  0  0  0  0  0  0
  139.7470   78.5400  221.3560 C   0  0  0  0  0  0  0  0  0  0  0  0
  139.6650   71.0510  223.7630 C   0  0  0  0  0  0  0  0  0  0  0  0
  140.5280   71.8900  224.4280 C   0  0  0  0  0  0  0  0  0  0  0  0
  141.0030   71.4590  225.6520 C   0  0  0  0  0  0  0  0  0  0  0  0
  140.6420   70.2470  226.1980 C   0  0  0  0  0  0  0  0  0  0  0  0
  141.0980   69.7890  227.4130 C   0  0  0  0  0  0  0  0  0  0  0  0
  140.6990   68.5580  227.9140 C   0  0  0  0  0  0  0  0  0  0  0  0
  141.1400   68.1000  229.1040 F   0  0  0  0  0  0  0  0  0  0  0  0
  139.8280   67.7490  227.2060 C   0  0  0  0  0  0  0  0  0  0  0  0
  139.3580   68.1970  225.9770 C   0  0  0  0  0  0  0  0  0  0  0  0
  139.7680   69.4290  225.4920 C   0  0  0  0  0  0  0  0  0  0  0  0
  139.3160   69.8660  224.3050 N   0  0  0  0  0  0  0  0  0  0  0  0
  138.9450   73.4770  223.0220 H   0  0  0  0  0  0  0  0  0  0  0  0
  138.2061   72.4151  220.2681 H   0  0  0  0  0  0  0  0  0  0  0  0
  137.2429   73.6707  221.1659 H   0  0  0  0  0  0  0  0  0  0  0  0
  141.4084   72.5579  220.8990 H   0  0  0  0  0  0  0  0  0  0  0  0
  141.0695   73.0305  219.2190 H   0  0  0  0  0  0  0  0  0  0  0  0
  143.1895   73.9849  221.1199 H   0  0  0  0  0  0  0  0  0  0  0  0
  143.2806   73.5227  219.3486 H   0  0  0  0  0  0  0  0  0  0  0  0
  143.7087   75.8913  219.7825 H   0  0  0  0  0  0  0  0  0  0  0  0
  142.2585   75.5216  218.7115 H   0  0  0  0  0  0  0  0  0  0  0  0
  142.4247   77.0744  221.1385 H   0  0  0  0  0  0  0  0  0  0  0  0
  141.1233   76.9480  219.9229 H   0  0  0  0  0  0  0  0  0  0  0  0
  141.6667   75.0074  222.2661 H   0  0  0  0  0  0  0  0  0  0  0  0
  139.0374   76.0691  221.9997 H   0  0  0  0  0  0  0  0  0  0  0  0
  140.1407   75.9155  223.3997 H   0  0  0  0  0  0  0  0  0  0  0  0
  141.9102   77.5465  223.7634 H   0  0  0  0  0  0  0  0  0  0  0  0
  142.5523   79.9541  223.6770 H   0  0  0  0  0  0  0  0  0  0  0  0
  139.5900   80.5524  220.6059 H   0  0  0  0  0  0  0  0  0  0  0  0
  138.9566   78.1477  220.6992 H   0  0  0  0  0  0  0  0  0  0  0  0
  140.8267   72.8604  224.0047 H   0  0  0  0  0  0  0  0  0  0  0  0
  141.6944   72.1072  226.2105 H   0  0  0  0  0  0  0  0  0  0  0  0
  141.7919   70.4105  227.9980 H   0  0  0  0  0  0  0  0  0  0  0  0
  139.5147   66.7736  227.6066 H   0  0  0  0  0  0  0  0  0  0  0  0
  138.6635   67.5764  225.3917 H   0  0  0  0  0  0  0  0  0  0  0  0
  1  2  2  0
  2  3  1  0
  3  4  1  0
  4  5  1  0
  5  6  2  0
  5  7  1  0
  7  8  1  0
  8  9  1  0
  9 10  1  0
 10 11  1  0
 11 12  1  0
 12 13  1  0
 13 14  1  0
 14 15  2  0
 15 16  1  0
 16 17  2  0
 17 18  1  0
 17 19  1  0
 19 20  2  0
  2 21  1  0
 21 22  2  0
 22 23  1  0
 23 24  2  0
 24 25  1  0
 25 26  2  0
 26 27  1  0
 26 28  1  0
 28 29  2  0
 29 30  1  0
 30 31  2  0
 12  7  1  0
 20 14  1  0
 31 21  1  0
 30 24  1  0
  3 32  1  0
  4 33  1  0
  4 34  1  0
  8 35  1  0
  8 36  1  0
  9 37  1  0
  9 38  1  0
 10 39  1  0
 10 40  1  0
 11 41  1  0
 11 42  1  0
 12 43  1  1
 13 44  1  0
 13 45  1  0
 15 46  1  0
 16 47  1  0
 19 48  1  0
 20 49  1  0
 22 50  1  0
 23 51  1  0
 25 52  1  0
 28 53  1  0
 29 54  1  0
M  END
>  <smiles>  (18) 
O=C(NCC(=O)N1CCCC[C@H]1Cc1ccc(Cl)cc1)c1ccc2cc(F)ccc2n1

>  <score_type>  (18) 
oracle

>  <origin>  (18) 
autodockgpu

>  <m_score__min__energy>  (18) 
-9.2100000000000009

>  <m_primary>  (18) 
energy

>  <rmsd>  (18) 
3.102543353729794

>  <m_score__min__rmsd>  (18) 
3.102543353729794

>  <meeko>  (18) 
{"free_energy": -8.33, "intermolecular_energy": -10.12, "internal_energy": -1.64, "cluster_size": 39, "cluster_id": 1, "rank_in_cluster": 34}

>  <energy>  (18) 
-8.75

>  <cluster_rmsd>  (18) 
1.63

>  <cluster>  (18) 
1

$$$$

     RDKit          3D

 54 57  0  0  0  0  0  0  0  0999 V2000
  139.4480   70.7450  221.5620 O   0  0  0  0  0  0  0  0  0  0  0  0
  139.6110   71.5250  222.5260 C   0  0  0  0  0  0  0  0  0  0  0  0
  139.4090   72.9110  222.3040 N   0  0  0  0  0  0  0  0  0  0  0  0
  139.0290   73.4430  221.0290 C   0  0  0  0  0  0  0  0  0  0  0  0
  140.1550   73.4570  220.0590 C   0  0  0  0  0  0  0  0  0  0  0  0
  139.8940   73.0830  218.8880 O   0  0  0  0  0  0  0  0  0  0  0  0
  141.4340   73.8790  220.5010 N   0  0  0  0  0  0  0  0  0  0  0  0
  142.4080   72.8870  220.9900 C   0  0  0  0  0  0  0  0  0  0  0  0
  143.7610   73.4600  220.7600 C   0  0  0  0  0  0  0  0  0  0  0  0
  143.8780   74.2790  219.5110 C   0  0  0  0  0  0  0  0  0  0  0  0
  142.8910   75.3890  219.3830 C   0  0  0  0  0  0  0  0  0  0  0  0
  141.8830   75.2540  220.5160 C   0  0  1  0  0  0  0  0  0  0  0  0
  140.8110   76.2820  220.4490 C   0  0  0  0  0  0  0  0  0  0  0  0
  141.2040   77.4420  221.3330 C   0  0  0  0  0  0  0  0  0  0  0  0
  141.6850   78.5940  220.7300 C   0  0  0  0  0  0  0  0  0  0  0  0
  142.0690   79.7050  221.4780 C   0  0  0  0  0  0  0  0  0  0  0  0
  141.9590   79.6390  222.8560 C   0  0  0  0  0  0  0  0  0  0  0  0
  142.4260   81.0090  223.8760 Cl  0  0  0  0  0  0  0  0  0  0  0  0
  141.4750   78.4820  223.4580 C   0  0  0  0  0  0  0  0  0  0  0  0
  141.0950   77.3770  222.7060 C   0  0  0  0  0  0  0  0  0  0  0  0
  140.0020   71.0550  223.8680 C   0  0  0  0  0  0  0  0  0  0  0  0
  140.7180   71.8790  224.7040 C   0  0  0  0  0  0  0  0  0  0  0  0
  141.0510   71.3760  225.9470 C   0  0  0  0  0  0  0  0  0  0  0  0
  140.6930   70.1080  226.3490 C   0  0  0  0  0  0  0  0  0  0  0  0
  141.0100   69.5780  227.5790 C   0  0  0  0  0  0  0  0  0  0  0  0
  140.6220   68.2930  227.9300 C   0  0  0  0  0  0  0  0  0  0  0  0
  140.9280   67.7640  229.1330 F   0  0  0  0  0  0  0  0  0  0  0  0
  139.9020   67.5010  227.0540 C   0  0  0  0  0  0  0  0  0  0  0  0
  139.5730   68.0220  225.8070 C   0  0  0  0  0  0  0  0  0  0  0  0
  139.9700   69.3070  225.4740 C   0  0  0  0  0  0  0  0  0  0  0  0
  139.6550   69.8140  224.2710 N   0  0  0  0  0  0  0  0  0  0  0  0
  139.5540   73.5490  223.1420 H   0  0  0  0  0  0  0  0  0  0  0  0
  138.2166   72.8261  220.6174 H   0  0  0  0  0  0  0  0  0  0  0  0
  138.7084   74.4838  221.1835 H   0  0  0  0  0  0  0  0  0  0  0  0
  142.2531   72.7020  222.0632 H   0  0  0  0  0  0  0  0  0  0  0  0
  142.2917   71.9284  220.4632 H   0  0  0  0  0  0  0  0  0  0  0  0
  144.0144   74.1008  221.6174 H   0  0  0  0  0  0  0  0  0  0  0  0
  144.4487   72.6092  220.6451 H   0  0  0  0  0  0  0  0  0  0  0  0
  144.8869   74.7165  219.4846 H   0  0  0  0  0  0  0  0  0  0  0  0
  143.6738   73.5922  218.6763 H   0  0  0  0  0  0  0  0  0  0  0  0
  143.4070   76.3578  219.4556 H   0  0  0  0  0  0  0  0  0  0  0  0
  142.3815   75.3374  218.4095 H   0  0  0  0  0  0  0  0  0  0  0  0
  142.3359   75.4630  221.4964 H   0  0  0  0  0  0  0  0  0  0  0  0
  140.6938   76.6289  219.4117 H   0  0  0  0  0  0  0  0  0  0  0  0
  139.8567   75.8544  220.7901 H   0  0  0  0  0  0  0  0  0  0  0  0
  141.7655   78.6319  219.6336 H   0  0  0  0  0  0  0  0  0  0  0  0
  142.4500   80.6118  220.9856 H   0  0  0  0  0  0  0  0  0  0  0  0
  141.3912   78.4409  224.5540 H   0  0  0  0  0  0  0  0  0  0  0  0
  140.7149   76.4686  223.1962 H   0  0  0  0  0  0  0  0  0  0  0  0
  141.0126   72.8934  224.3969 H   0  0  0  0  0  0  0  0  0  0  0  0
  141.6223   72.0107  226.6403 H   0  0  0  0  0  0  0  0  0  0  0  0
  141.5815   70.1844  228.2970 H   0  0  0  0  0  0  0  0  0  0  0  0
  139.5967   66.4828  227.3369 H   0  0  0  0  0  0  0  0  0  0  0  0
  139.0004   67.4168  225.0887 H   0  0  0  0  0  0  0  0  0  0  0  0
  1  2  2  0
  2  3  1  0
  3  4  1  0
  4  5  1  0
  5  6  2  0
  5  7  1  0
  7  8  1  0
  8  9  1  0
  9 10  1  0
 10 11  1  0
 11 12  1  0
 12 13  1  0
 13 14  1  0
 14 15  2  0
 15 16  1  0
 16 17  2  0
 17 18  1  0
 17 19  1  0
 19 20  2  0
  2 21  1  0
 21 22  2  0
 22 23  1  0
 23 24  2  0
 24 25  1  0
 25 26  2  0
 26 27  1  0
 26 28  1  0
 28 29  2  0
 29 30  1  0
 30 31  2  0
 12  7  1  0
 20 14  1  0
 31 21  1  0
 30 24  1  0
  3 32  1  0
  4 33  1  0
  4 34  1  0
  8 35  1  0
  8 36  1  0
  9 37  1  0
  9 38  1  0
 10 39  1  0
 10 40  1  0
 11 41  1  0
 11 42  1  0
 12 43  1  1
 13 44  1  0
 13 45  1  0
 15 46  1  0
 16 47  1  0
 19 48  1  0
 20 49  1  0
 22 50  1  0
 23 51  1  0
 25 52  1  0
 28 53  1  0
 29 54  1  0
M  END
>  <smiles>  (19) 
O=C(NCC(=O)N1CCCC[C@H]1Cc1ccc(Cl)cc1)c1ccc2cc(F)ccc2n1

>  <score_type>  (19) 
oracle

>  <origin>  (19) 
autodockgpu

>  <m_score__min__energy>  (19) 
-9.2100000000000009

>  <m_primary>  (19) 
energy

>  <rmsd>  (19) 
3.2946496015399513

>  <m_score__min__rmsd>  (19) 
3.2946496015399513

>  <meeko>  (19) 
{"free_energy": -8.98, "intermolecular_energy": -10.77, "internal_energy": -1.66, "cluster_size": 39, "cluster_id": 1, "rank_in_cluster": 7}

>  <energy>  (19) 
-8.71

>  <cluster_rmsd>  (19) 
1.64

>  <cluster>  (19) 
1

$$$$

     RDKit          3D

 54 57  0  0  0  0  0  0  0  0999 V2000
  137.8190   70.4150  221.9620 O   0  0  0  0  0  0  0  0  0  0  0  0
  138.5660   70.8580  222.8630 C   0  0  0  0  0  0  0  0  0  0  0  0
  138.9890   72.2080  222.7740 N   0  0  0  0  0  0  0  0  0  0  0  0
  138.5950   73.0740  221.7020 C   0  0  0  0  0  0  0  0  0  0  0  0
  139.1680   74.4400  221.8330 C   0  0  0  0  0  0  0  0  0  0  0  0
  140.3450   74.5170  222.2640 O   0  0  0  0  0  0  0  0  0  0  0  0
  138.3690   75.5540  221.4750 N   0  0  0  0  0  0  0  0  0  0  0  0
  136.9150   75.3900  221.2980 C   0  0  0  0  0  0  0  0  0  0  0  0
  136.2940   76.7120  221.5760 C   0  0  0  0  0  0  0  0  0  0  0  0
  136.9740   77.4970  222.6560 C   0  0  0  0  0  0  0  0  0  0  0  0
  138.4350   77.7190  222.4560 C   0  0  0  0  0  0  0  0  0  0  0  0
  138.8760   76.8900  221.2570 C   0  0  1  0  0  0  0  0  0  0  0  0
  140.3370   76.9900  221.0030 C   0  0  0  0  0  0  0  0  0  0  0  0
  140.8920   78.1200  221.8370 C   0  0  0  0  0  0  0  0  0  0  0  0
  140.8860   79.3990  221.2990 C   0  0  0  0  0  0  0  0  0  0  0  0
  141.3820   80.4920  222.0060 C   0  0  0  0  0  0  0  0  0  0  0  0
  141.8890   80.2780  223.2760 C   0  0  0  0  0  0  0  0  0  0  0  0
  142.5360   81.6150  224.2380 Cl  0  0  0  0  0  0  0  0  0  0  0  0
  141.8930   78.9950  223.8140 C   0  0  0  0  0  0  0  0  0  0  0  0
  141.3970   77.9090  223.1030 C   0  0  0  0  0  0  0  0  0  0  0  0
  139.0150   70.0300  223.9980 C   0  0  0  0  0  0  0  0  0  0  0  0
  138.8370   68.6670  223.9660 C   0  0  0  0  0  0  0  0  0  0  0  0
  139.2800   67.9510  225.0620 C   0  0  0  0  0  0  0  0  0  0  0  0
  139.8750   68.5570  226.1470 C   0  0  0  0  0  0  0  0  0  0  0  0
  140.3250   67.8730  227.2530 C   0  0  0  0  0  0  0  0  0  0  0  0
  140.9170   68.5360  228.3170 C   0  0  0  0  0  0  0  0  0  0  0  0
  141.3630   67.8750  229.4060 F   0  0  0  0  0  0  0  0  0  0  0  0
  141.0740   69.9110  228.3030 C   0  0  0  0  0  0  0  0  0  0  0  0
  140.6230   70.6180  227.1930 C   0  0  0  0  0  0  0  0  0  0  0  0
  140.0340   69.9370  226.1380 C   0  0  0  0  0  0  0  0  0  0  0  0
  139.5980   70.6150  225.0650 N   0  0  0  0  0  0  0  0  0  0  0  0
  139.6220   72.5570  223.5530 H   0  0  0  0  0  0  0  0  0  0  0  0
  138.9373   72.6376  220.7521 H   0  0  0  0  0  0  0  0  0  0  0  0
  137.4994   73.1669  221.7331 H   0  0  0  0  0  0  0  0  0  0  0  0
  136.6924   75.0768  220.2673 H   0  0  0  0  0  0  0  0  0  0  0  0
  136.5203   74.6193  221.9764 H   0  0  0  0  0  0  0  0  0  0  0  0
  136.3190   77.3059  220.6505 H   0  0  0  0  0  0  0  0  0  0  0  0
  135.2711   76.5121  221.9278 H   0  0  0  0  0  0  0  0  0  0  0  0
  136.4860   78.4807  222.7203 H   0  0  0  0  0  0  0  0  0  0  0  0
  136.8792   76.8985  223.5741 H   0  0  0  0  0  0  0  0  0  0  0  0
  138.6280   78.7849  222.2645 H   0  0  0  0  0  0  0  0  0  0  0  0
  138.9941   77.4195  223.3547 H   0  0  0  0  0  0  0  0  0  0  0  0
  138.4556   77.2736  220.3157 H   0  0  0  0  0  0  0  0  0  0  0  0
  140.8278   76.0463  221.2832 H   0  0  0  0  0  0  0  0  0  0  0  0
  140.5217   77.1831  219.9360 H   0  0  0  0  0  0  0  0  0  0  0  0
  140.4793   79.5538  220.2887 H   0  0  0  0  0  0  0  0  0  0  0  0
  141.3710   81.5001  221.5659 H   0  0  0  0  0  0  0  0  0  0  0  0
  142.2977   78.8368  224.8245 H   0  0  0  0  0  0  0  0  0  0  0  0
  141.4069   76.9002  223.5415 H   0  0  0  0  0  0  0  0  0  0  0  0
  138.3635   68.1690  223.1070 H   0  0  0  0  0  0  0  0  0  0  0  0
  139.1530   66.8584  225.0683 H   0  0  0  0  0  0  0  0  0  0  0  0
  140.2129   66.7795  227.2937 H   0  0  0  0  0  0  0  0  0  0  0  0
  141.5443   70.4326  229.1496 H   0  0  0  0  0  0  0  0  0  0  0  0
  140.7330   71.7117  227.1522 H   0  0  0  0  0  0  0  0  0  0  0  0
  1  2  2  0
  2  3  1  0
  3  4  1  0
  4  5  1  0
  5  6  2  0
  5  7  1  0
  7  8  1  0
  8  9  1  0
  9 10  1  0
 10 11  1  0
 11 12  1  0
 12 13  1  0
 13 14  1  0
 14 15  2  0
 15 16  1  0
 16 17  2  0
 17 18  1  0
 17 19  1  0
 19 20  2  0
  2 21  1  0
 21 22  2  0
 22 23  1  0
 23 24  2  0
 24 25  1  0
 25 26  2  0
 26 27  1  0
 26 28  1  0
 28 29  2  0
 29 30  1  0
 30 31  2  0
 12  7  1  0
 20 14  1  0
 31 21  1  0
 30 24  1  0
  3 32  1  0
  4 33  1  0
  4 34  1  0
  8 35  1  0
  8 36  1  0
  9 37  1  0
  9 38  1  0
 10 39  1  0
 10 40  1  0
 11 41  1  0
 11 42  1  0
 12 43  1  6
 13 44  1  0
 13 45  1  0
 15 46  1  0
 16 47  1  0
 19 48  1  0
 20 49  1  0
 22 50  1  0
 23 51  1  0
 25 52  1  0
 28 53  1  0
 29 54  1  0
M  END
>  <smiles>  (20) 
O=C(NCC(=O)N1CCCC[C@H]1Cc1ccc(Cl)cc1)c1ccc2cc(F)ccc2n1

>  <score_type>  (20) 
oracle

>  <origin>  (20) 
autodockgpu

>  <m_score__min__energy>  (20) 
-9.2100000000000009

>  <m_primary>  (20) 
energy

>  <rmsd>  (20) 
2.5166634995219526

>  <m_score__min__rmsd>  (20) 
2.5166634995219526

>  <meeko>  (20) 
{"free_energy": -8.94, "intermolecular_energy": -10.73, "internal_energy": -1.82, "cluster_size": 39, "cluster_id": 1, "rank_in_cluster": 11}

>  <energy>  (20) 
-8.67

>  <cluster_rmsd>  (20) 
1.29

>  <cluster>  (20) 
1

$$$$

     RDKit          3D

 54 57  0  0  0  0  0  0  0  0999 V2000
  139.1590   70.2360  221.8140 O   0  0  0  0  0  0  0  0  0  0  0  0
  139.4280   71.1420  222.6340 C   0  0  0  0  0  0  0  0  0  0  0  0
  139.2910   72.4870  222.2100 N   0  0  0  0  0  0  0  0  0  0  0  0
  138.8580   72.8430  220.8900 C   0  0  0  0  0  0  0  0  0  0  0  0
  139.4920   74.0970  220.4030 C   0  0  0  0  0  0  0  0  0  0  0  0
  138.7830   74.8410  219.6800 O   0  0  0  0  0  0  0  0  0  0  0  0
  140.8310   74.3750  220.7710 N   0  0  0  0  0  0  0  0  0  0  0  0
  141.7420   73.2700  221.1220 C   0  0  0  0  0  0  0  0  0  0  0  0
  143.1220   73.7360  220.8260 C   0  0  0  0  0  0  0  0  0  0  0  0
  143.2270   74.6250  219.6240 C   0  0  0  0  0  0  0  0  0  0  0  0
  142.3400   75.8240  219.6420 C   0  0  0  0  0  0  0  0  0  0  0  0
  141.4060   75.7000  220.8380 C   0  0  1  0  0  0  0  0  0  0  0  0
  140.4310   76.8200  220.9170 C   0  0  0  0  0  0  0  0  0  0  0  0
  141.0570   77.9450  221.7060 C   0  0  0  0  0  0  0  0  0  0  0  0
  141.0850   77.8420  223.0890 C   0  0  0  0  0  0  0  0  0  0  0  0
  141.6440   78.8400  223.8850 C   0  0  0  0  0  0  0  0  0  0  0  0
  142.1800   79.9530  223.2630 C   0  0  0  0  0  0  0  0  0  0  0  0
  142.9090   81.2630  224.2050 Cl  0  0  0  0  0  0  0  0  0  0  0  0
  142.1520   80.0540  221.8750 C   0  0  0  0  0  0  0  0  0  0  0  0
  141.5930   79.0550  221.0870 C   0  0  0  0  0  0  0  0  0  0  0  0
  139.8790   70.8560  224.0090 C   0  0  0  0  0  0  0  0  0  0  0  0
  140.2860   71.8850  224.8250 C   0  0  0  0  0  0  0  0  0  0  0  0
  140.6960   71.5480  226.1010 C   0  0  0  0  0  0  0  0  0  0  0  0
  140.7050   70.2460  226.5530 C   0  0  0  0  0  0  0  0  0  0  0  0
  141.1090   69.8780  227.8160 C   0  0  0  0  0  0  0  0  0  0  0  0
  141.0970   68.5500  228.2170 C   0  0  0  0  0  0  0  0  0  0  0  0
  141.4890   68.1790  229.4530 F   0  0  0  0  0  0  0  0  0  0  0  0
  140.6780   67.5500  227.3580 C   0  0  0  0  0  0  0  0  0  0  0  0
  140.2680   67.9050  226.0770 C   0  0  0  0  0  0  0  0  0  0  0  0
  140.2870   69.2370  225.6950 C   0  0  0  0  0  0  0  0  0  0  0  0
  139.8910   69.5850  224.4600 N   0  0  0  0  0  0  0  0  0  0  0  0
  139.5270   73.2350  222.9280 H   0  0  0  0  0  0  0  0  0  0  0  0
  139.1173   72.0257  220.2010 H   0  0  0  0  0  0  0  0  0  0  0  0
  137.7714   73.0099  220.9277 H   0  0  0  0  0  0  0  0  0  0  0  0
  141.6464   73.0260  222.1903 H   0  0  0  0  0  0  0  0  0  0  0  0
  141.5011   72.3639  220.5467 H   0  0  0  0  0  0  0  0  0  0  0  0
  143.4928   74.2922  221.6996 H   0  0  0  0  0  0  0  0  0  0  0  0
  143.7182   72.8378  220.6072 H   0  0  0  0  0  0  0  0  0  0  0  0
  144.2678   74.9727  219.5477 H   0  0  0  0  0  0  0  0  0  0  0  0
  142.9027   74.0180  218.7659 H   0  0  0  0  0  0  0  0  0  0  0  0
  142.9473   76.7363  219.7356 H   0  0  0  0  0  0  0  0  0  0  0  0
  141.7604   75.8847  218.7091 H   0  0  0  0  0  0  0  0  0  0  0  0
  141.9448   75.8001  221.7918 H   0  0  0  0  0  0  0  0  0  0  0  0
  140.1846   77.1697  219.9036 H   0  0  0  0  0  0  0  0  0  0  0  0
  139.5076   76.4820  221.4101 H   0  0  0  0  0  0  0  0  0  0  0  0
  140.6554   76.9505  223.5693 H   0  0  0  0  0  0  0  0  0  0  0  0
  141.6586   78.7449  224.9808 H   0  0  0  0  0  0  0  0  0  0  0  0
  142.5816   80.9437  221.3914 H   0  0  0  0  0  0  0  0  0  0  0  0
  141.5783   79.1477  219.9910 H   0  0  0  0  0  0  0  0  0  0  0  0
  140.2853   72.9288  224.4780 H   0  0  0  0  0  0  0  0  0  0  0  0
  141.0270   72.3475  226.7802 H   0  0  0  0  0  0  0  0  0  0  0  0
  141.4478   70.6515  228.5209 H   0  0  0  0  0  0  0  0  0  0  0  0
  140.6692   66.4984  227.6804 H   0  0  0  0  0  0  0  0  0  0  0  0
  139.9304   67.1322  225.3707 H   0  0  0  0  0  0  0  0  0  0  0  0
  1  2  2  0
  2  3  1  0
  3  4  1  0
  4  5  1  0
  5  6  2  0
  5  7  1  0
  7  8  1  0
  8  9  1  0
  9 10  1  0
 10 11  1  0
 11 12  1  0
 12 13  1  0
 13 14  1  0
 14 15  2  0
 15 16  1  0
 16 17  2  0
 17 18  1  0
 17 19  1  0
 19 20  2  0
  2 21  1  0
 21 22  2  0
 22 23  1  0
 23 24  2  0
 24 25  1  0
 25 26  2  0
 26 27  1  0
 26 28  1  0
 28 29  2  0
 29 30  1  0
 30 31  2  0
 12  7  1  0
 20 14  1  0
 31 21  1  0
 30 24  1  0
  3 32  1  0
  4 33  1  0
  4 34  1  0
  8 35  1  0
  8 36  1  0
  9 37  1  0
  9 38  1  0
 10 39  1  0
 10 40  1  0
 11 41  1  0
 11 42  1  0
 12 43  1  1
 13 44  1  0
 13 45  1  0
 15 46  1  0
 16 47  1  0
 19 48  1  0
 20 49  1  0
 22 50  1  0
 23 51  1  0
 25 52  1  0
 28 53  1  0
 29 54  1  0
M  END
>  <smiles>  (21) 
O=C(NCC(=O)N1CCCC[C@H]1Cc1ccc(Cl)cc1)c1ccc2cc(F)ccc2n1

>  <score_type>  (21) 
oracle

>  <origin>  (21) 
autodockgpu

>  <m_score__min__energy>  (21) 
-9.2100000000000009

>  <m_primary>  (21) 
energy

>  <rmsd>  (21) 
3.146642392852768

>  <m_score__min__rmsd>  (21) 
3.146642392852768

>  <meeko>  (21) 
{"free_energy": -8.64, "intermolecular_energy": -10.43, "internal_energy": -1.35, "cluster_size": 39, "cluster_id": 1, "rank_in_cluster": 23}

>  <energy>  (21) 
-8.67

>  <cluster_rmsd>  (21) 
0.97

>  <cluster>  (21) 
1

$$$$

     RDKit          3D

 54 57  0  0  0  0  0  0  0  0999 V2000
  137.8000   70.5260  221.9000 O   0  0  0  0  0  0  0  0  0  0  0  0
  138.5250   70.9920  222.8060 C   0  0  0  0  0  0  0  0  0  0  0  0
  138.9250   72.3480  222.7090 N   0  0  0  0  0  0  0  0  0  0  0  0
  138.5320   73.1960  221.6220 C   0  0  0  0  0  0  0  0  0  0  0  0
  139.2510   74.4960  221.6260 C   0  0  0  0  0  0  0  0  0  0  0  0
  140.2840   74.5670  222.3380 O   0  0  0  0  0  0  0  0  0  0  0  0
  138.7410   75.5630  220.8450 N   0  0  0  0  0  0  0  0  0  0  0  0
  137.3940   75.4620  220.2540 C   0  0  0  0  0  0  0  0  0  0  0  0
  136.8920   76.8520  220.0850 C   0  0  0  0  0  0  0  0  0  0  0  0
  137.3190   77.7970  221.1660 C   0  0  0  0  0  0  0  0  0  0  0  0
  138.7910   77.8750  221.3970 C   0  0  0  0  0  0  0  0  0  0  0  0
  139.4550   76.7880  220.5630 C   0  0  1  0  0  0  0  0  0  0  0  0
  140.9270   76.7360  220.7660 C   0  0  0  0  0  0  0  0  0  0  0  0
  141.3390   77.9290  221.5950 C   0  0  0  0  0  0  0  0  0  0  0  0
  141.3740   77.7890  222.9750 C   0  0  0  0  0  0  0  0  0  0  0  0
  141.7420   78.8440  223.8070 C   0  0  0  0  0  0  0  0  0  0  0  0
  142.0780   80.0530  223.2250 C   0  0  0  0  0  0  0  0  0  0  0  0
  142.5570   81.4410  224.2150 Cl  0  0  0  0  0  0  0  0  0  0  0  0
  142.0430   80.1910  221.8410 C   0  0  0  0  0  0  0  0  0  0  0  0
  141.6740   79.1340  221.0170 C   0  0  0  0  0  0  0  0  0  0  0  0
  138.9710   70.1840  223.9570 C   0  0  0  0  0  0  0  0  0  0  0  0
  138.7600   68.8250  223.9640 C   0  0  0  0  0  0  0  0  0  0  0  0
  139.2040   68.1280  225.0720 C   0  0  0  0  0  0  0  0  0  0  0  0
  139.8290   68.7480  226.1320 C   0  0  0  0  0  0  0  0  0  0  0  0
  140.2810   68.0830  227.2490 C   0  0  0  0  0  0  0  0  0  0  0  0
  140.9040   68.7600  228.2860 C   0  0  0  0  0  0  0  0  0  0  0  0
  141.3510   68.1170  229.3860 F   0  0  0  0  0  0  0  0  0  0  0  0
  141.0940   70.1290  228.2320 C   0  0  0  0  0  0  0  0  0  0  0  0
  140.6430   70.8170  227.1100 C   0  0  0  0  0  0  0  0  0  0  0  0
  140.0220   70.1230  226.0840 C   0  0  0  0  0  0  0  0  0  0  0  0
  139.5850   70.7820  224.9980 N   0  0  0  0  0  0  0  0  0  0  0  0
  139.5410   72.7160  223.4940 H   0  0  0  0  0  0  0  0  0  0  0  0
  138.7453   72.6778  220.6754 H   0  0  0  0  0  0  0  0  0  0  0  0
  137.4584   73.4075  221.7343 H   0  0  0  0  0  0  0  0  0  0  0  0
  137.4458   74.9571  219.2781 H   0  0  0  0  0  0  0  0  0  0  0  0
  136.7231   74.8765  220.8998 H   0  0  0  0  0  0  0  0  0  0  0  0
  137.2627   77.2378  219.1239 H   0  0  0  0  0  0  0  0  0  0  0  0
  135.7942   76.7981  220.1291 H   0  0  0  0  0  0  0  0  0  0  0  0
  136.9627   78.8028  220.8989 H   0  0  0  0  0  0  0  0  0  0  0  0
  136.8838   77.4099  222.0991 H   0  0  0  0  0  0  0  0  0  0  0  0
  139.1655   78.8626  221.0898 H   0  0  0  0  0  0  0  0  0  0  0  0
  139.0191   77.7320  222.4636 H   0  0  0  0  0  0  0  0  0  0  0  0
  139.3815   76.9944  219.4850 H   0  0  0  0  0  0  0  0  0  0  0  0
  141.1965   75.8081  221.2917 H   0  0  0  0  0  0  0  0  0  0  0  0
  141.4423   76.7563  219.7944 H   0  0  0  0  0  0  0  0  0  0  0  0
  141.1045   76.8212  223.4231 H   0  0  0  0  0  0  0  0  0  0  0  0
  141.7648   78.7187  224.8996 H   0  0  0  0  0  0  0  0  0  0  0  0
  142.3130   81.1569  221.3893 H   0  0  0  0  0  0  0  0  0  0  0  0
  141.6499   79.2573  219.9242 H   0  0  0  0  0  0  0  0  0  0  0  0
  138.2608   68.3161  223.1263 H   0  0  0  0  0  0  0  0  0  0  0  0
  139.0529   67.0390  225.1089 H   0  0  0  0  0  0  0  0  0  0  0  0
  140.1454   66.9937  227.3202 H   0  0  0  0  0  0  0  0  0  0  0  0
  141.5901   70.6613  229.0569 H   0  0  0  0  0  0  0  0  0  0  0  0
  140.7787   71.9062  227.0378 H   0  0  0  0  0  0  0  0  0  0  0  0
  1  2  2  0
  2  3  1  0
  3  4  1  0
  4  5  1  0
  5  6  2  0
  5  7  1  0
  7  8  1  0
  8  9  1  0
  9 10  1  0
 10 11  1  0
 11 12  1  0
 12 13  1  0
 13 14  1  0
 14 15  2  0
 15 16  1  0
 16 17  2  0
 17 18  1  0
 17 19  1  0
 19 20  2  0
  2 21  1  0
 21 22  2  0
 22 23  1  0
 23 24  2  0
 24 25  1  0
 25 26  2  0
 26 27  1  0
 26 28  1  0
 28 29  2  0
 29 30  1  0
 30 31  2  0
 12  7  1  0
 20 14  1  0
 31 21  1  0
 30 24  1  0
  3 32  1  0
  4 33  1  0
  4 34  1  0
  8 35  1  0
  8 36  1  0
  9 37  1  0
  9 38  1  0
 10 39  1  0
 10 40  1  0
 11 41  1  0
 11 42  1  0
 12 43  1  6
 13 44  1  0
 13 45  1  0
 15 46  1  0
 16 47  1  0
 19 48  1  0
 20 49  1  0
 22 50  1  0
 23 51  1  0
 25 52  1  0
 28 53  1  0
 29 54  1  0
M  END
>  <smiles>  (22) 
O=C(NCC(=O)N1CCCC[C@H]1Cc1ccc(Cl)cc1)c1ccc2cc(F)ccc2n1

>  <score_type>  (22) 
oracle

>  <origin>  (22) 
autodockgpu

>  <m_score__min__energy>  (22) 
-9.2100000000000009

>  <m_primary>  (22) 
energy

>  <rmsd>  (22) 
2.003825681238105

>  <m_score__min__rmsd>  (22) 
2.003825681238105

>  <meeko>  (22) 
{"free_energy": -8.75, "intermolecular_energy": -10.54, "internal_energy": -1.98, "cluster_size": 39, "cluster_id": 1, "rank_in_cluster": 18}

>  <energy>  (22) 
-8.66

>  <cluster_rmsd>  (22) 
1.29

>  <cluster>  (22) 
1

$$$$

     RDKit          3D

 54 57  0  0  0  0  0  0  0  0999 V2000
  138.2340   71.0110  221.3270 O   0  0  0  0  0  0  0  0  0  0  0  0
  138.7050   71.5530  222.3500 C   0  0  0  0  0  0  0  0  0  0  0  0
  138.8330   72.9650  222.3570 N   0  0  0  0  0  0  0  0  0  0  0  0
  138.4470   73.7830  221.2460 C   0  0  0  0  0  0  0  0  0  0  0  0
  139.2720   75.0140  221.1310 C   0  0  0  0  0  0  0  0  0  0  0  0
  138.6590   76.1100  221.1880 O   0  0  0  0  0  0  0  0  0  0  0  0
  140.6730   74.8860  220.9660 N   0  0  0  0  0  0  0  0  0  0  0  0
  141.3900   73.7690  221.6070 C   0  0  0  0  0  0  0  0  0  0  0  0
  142.6040   73.5070  220.7890 C   0  0  0  0  0  0  0  0  0  0  0  0
  142.4090   73.7090  219.3170 C   0  0  0  0  0  0  0  0  0  0  0  0
  141.8800   75.0460  218.9230 C   0  0  0  0  0  0  0  0  0  0  0  0
  141.4950   75.7910  220.1940 C   0  0  1  0  0  0  0  0  0  0  0  0
  140.8950   77.1220  219.9130 C   0  0  0  0  0  0  0  0  0  0  0  0
  141.3020   78.0740  221.0130 C   0  0  0  0  0  0  0  0  0  0  0  0
  141.8100   79.3140  220.6550 C   0  0  0  0  0  0  0  0  0  0  0  0
  142.2080   80.2450  221.6120 C   0  0  0  0  0  0  0  0  0  0  0  0
  142.0850   79.9060  222.9480 C   0  0  0  0  0  0  0  0  0  0  0  0
  142.5690   81.0350  224.2240 Cl  0  0  0  0  0  0  0  0  0  0  0  0
  141.5750   78.6620  223.3040 C   0  0  0  0  0  0  0  0  0  0  0  0
  141.1800   77.7380  222.3450 C   0  0  0  0  0  0  0  0  0  0  0  0
  139.1250   70.7800  223.5340 C   0  0  0  0  0  0  0  0  0  0  0  0
  138.9290   69.4200  223.5710 C   0  0  0  0  0  0  0  0  0  0  0  0
  139.3460   68.7570  224.7100 C   0  0  0  0  0  0  0  0  0  0  0  0
  139.9340   69.4110  225.7700 C   0  0  0  0  0  0  0  0  0  0  0  0
  140.3590   68.7800  226.9170 C   0  0  0  0  0  0  0  0  0  0  0  0
  140.9450   69.4910  227.9540 C   0  0  0  0  0  0  0  0  0  0  0  0
  141.3660   68.8830  229.0830 F   0  0  0  0  0  0  0  0  0  0  0  0
  141.1210   70.8610  227.8700 C   0  0  0  0  0  0  0  0  0  0  0  0
  140.6960   71.5140  226.7180 C   0  0  0  0  0  0  0  0  0  0  0  0
  140.1130   70.7870  225.6920 C   0  0  0  0  0  0  0  0  0  0  0  0
  139.7020   71.4130  224.5770 N   0  0  0  0  0  0  0  0  0  0  0  0
  139.2370   73.3980  223.2400 H   0  0  0  0  0  0  0  0  0  0  0  0
  138.5571   73.1970  220.3216 H   0  0  0  0  0  0  0  0  0  0  0  0
  137.4041   74.0937  221.4065 H   0  0  0  0  0  0  0  0  0  0  0  0
  141.6773   74.0432  222.6328 H   0  0  0  0  0  0  0  0  0  0  0  0
  140.7532   72.8738  221.6634 H   0  0  0  0  0  0  0  0  0  0  0  0
  143.4010   74.1854  221.1276 H   0  0  0  0  0  0  0  0  0  0  0  0
  142.8578   72.4462  220.9313 H   0  0  0  0  0  0  0  0  0  0  0  0
  143.3817   73.5690  218.8228 H   0  0  0  0  0  0  0  0  0  0  0  0
  141.6485   72.9771  219.0072 H   0  0  0  0  0  0  0  0  0  0  0  0
  142.6536   75.6087  218.3800 H   0  0  0  0  0  0  0  0  0  0  0  0
  141.0053   74.9331  218.2656 H   0  0  0  0  0  0  0  0  0  0  0  0
  142.3765   76.0606  220.7943 H   0  0  0  0  0  0  0  0  0  0  0  0
  141.2594   77.4962  218.9449 H   0  0  0  0  0  0  0  0  0  0  0  0
  139.7988   77.0399  219.8725 H   0  0  0  0  0  0  0  0  0  0  0  0
  141.9009   79.5687  219.5888 H   0  0  0  0  0  0  0  0  0  0  0  0
  142.6097   81.2245  221.3133 H   0  0  0  0  0  0  0  0  0  0  0  0
  141.4823   78.4040  224.3693 H   0  0  0  0  0  0  0  0  0  0  0  0
  140.7780   76.7581  222.6420 H   0  0  0  0  0  0  0  0  0  0  0  0
  138.4615   68.8835  222.7322 H   0  0  0  0  0  0  0  0  0  0  0  0
  139.2031   67.6681  224.7721 H   0  0  0  0  0  0  0  0  0  0  0  0
  140.2316   67.6916  227.0132 H   0  0  0  0  0  0  0  0  0  0  0  0
  141.5861   71.4204  228.6950 H   0  0  0  0  0  0  0  0  0  0  0  0
  140.8219   72.6025  226.6215 H   0  0  0  0  0  0  0  0  0  0  0  0
  1  2  2  0
  2  3  1  0
  3  4  1  0
  4  5  1  0
  5  6  2  0
  5  7  1  0
  7  8  1  0
  8  9  1  0
  9 10  1  0
 10 11  1  0
 11 12  1  0
 12 13  1  0
 13 14  1  0
 14 15  2  0
 15 16  1  0
 16 17  2  0
 17 18  1  0
 17 19  1  0
 19 20  2  0
  2 21  1  0
 21 22  2  0
 22 23  1  0
 23 24  2  0
 24 25  1  0
 25 26  2  0
 26 27  1  0
 26 28  1  0
 28 29  2  0
 29 30  1  0
 30 31  2  0
 12  7  1  0
 20 14  1  0
 31 21  1  0
 30 24  1  0
  3 32  1  0
  4 33  1  0
  4 34  1  0
  8 35  1  0
  8 36  1  0
  9 37  1  0
  9 38  1  0
 10 39  1  0
 10 40  1  0
 11 41  1  0
 11 42  1  0
 12 43  1  1
 13 44  1  0
 13 45  1  0
 15 46  1  0
 16 47  1  0
 19 48  1  0
 20 49  1  0
 22 50  1  0
 23 51  1  0
 25 52  1  0
 28 53  1  0
 29 54  1  0
M  END
>  <smiles>  (23) 
O=C(NCC(=O)N1CCCC[C@H]1Cc1ccc(Cl)cc1)c1ccc2cc(F)ccc2n1

>  <score_type>  (23) 
oracle

>  <origin>  (23) 
autodockgpu

>  <m_score__min__energy>  (23) 
-9.2100000000000009

>  <m_primary>  (23) 
energy

>  <rmsd>  (23) 
2.066547720737873

>  <m_score__min__rmsd>  (23) 
2.066547720737873

>  <meeko>  (23) 
{"free_energy": -8.31, "intermolecular_energy": -10.1, "internal_energy": -1.78, "cluster_size": 39, "cluster_id": 1, "rank_in_cluster": 35}

>  <energy>  (23) 
-8.64

>  <cluster_rmsd>  (23) 
1.14

>  <cluster>  (23) 
1

$$$$

     RDKit          3D

 54 57  0  0  0  0  0  0  0  0999 V2000
  139.9420   73.7420  222.6600 O   0  0  0  0  0  0  0  0  0  0  0  0
  139.7180   72.5290  222.4530 C   0  0  0  0  0  0  0  0  0  0  0  0
  139.3600   72.1310  221.1410 N   0  0  0  0  0  0  0  0  0  0  0  0
  139.2480   73.0590  220.0540 C   0  0  0  0  0  0  0  0  0  0  0  0
  140.5450   73.2860  219.3630 C   0  0  0  0  0  0  0  0  0  0  0  0
  140.5550   73.1220  218.1170 O   0  0  0  0  0  0  0  0  0  0  0  0
  141.6730   73.6630  220.1320 N   0  0  0  0  0  0  0  0  0  0  0  0
  142.5700   72.6290  220.6790 C   0  0  0  0  0  0  0  0  0  0  0  0
  143.9080   73.2570  220.8380 C   0  0  0  0  0  0  0  0  0  0  0  0
  144.2500   74.2560  219.7750 C   0  0  0  0  0  0  0  0  0  0  0  0
  143.2560   75.3530  219.5920 C   0  0  0  0  0  0  0  0  0  0  0  0
  142.0350   75.0280  220.4420 C   0  0  1  0  0  0  0  0  0  0  0  0
  140.9500   76.0330  220.2870 C   0  0  0  0  0  0  0  0  0  0  0  0
  141.2460   77.2020  221.1950 C   0  0  0  0  0  0  0  0  0  0  0  0
  141.7010   78.3800  220.6230 C   0  0  0  0  0  0  0  0  0  0  0  0
  141.9970   79.5020  221.3960 C   0  0  0  0  0  0  0  0  0  0  0  0
  141.8250   79.4190  222.7660 C   0  0  0  0  0  0  0  0  0  0  0  0
  142.1780   80.8000  223.8160 Cl  0  0  0  0  0  0  0  0  0  0  0  0
  141.3670   78.2360  223.3370 C   0  0  0  0  0  0  0  0  0  0  0  0
  141.0750   77.1210  222.5610 C   0  0  0  0  0  0  0  0  0  0  0  0
  139.8120   71.5140  223.5190 C   0  0  0  0  0  0  0  0  0  0  0  0
  139.4100   70.2210  223.2740 C   0  0  0  0  0  0  0  0  0  0  0  0
  139.5240   69.3210  224.3160 C   0  0  0  0  0  0  0  0  0  0  0  0
  140.0150   69.6810  225.5520 C   0  0  0  0  0  0  0  0  0  0  0  0
  140.1410   68.8090  226.6080 C   0  0  0  0  0  0  0  0  0  0  0  0
  140.6420   69.2290  227.8320 C   0  0  0  0  0  0  0  0  0  0  0  0
  140.7700   68.3820  228.8740 F   0  0  0  0  0  0  0  0  0  0  0  0
  141.0340   70.5410  228.0300 C   0  0  0  0  0  0  0  0  0  0  0  0
  140.9130   71.4350  226.9720 C   0  0  0  0  0  0  0  0  0  0  0  0
  140.4090   70.9980  225.7570 C   0  0  0  0  0  0  0  0  0  0  0  0
  140.2910   71.8580  224.7320 N   0  0  0  0  0  0  0  0  0  0  0  0
  139.1750   71.0940  220.9950 H   0  0  0  0  0  0  0  0  0  0  0  0
  138.5248   72.6635  219.3256 H   0  0  0  0  0  0  0  0  0  0  0  0
  138.9177   74.0224  220.4697 H   0  0  0  0  0  0  0  0  0  0  0  0
  142.1969   72.2820  221.6539 H   0  0  0  0  0  0  0  0  0  0  0  0
  142.6213   71.7582  220.0089 H   0  0  0  0  0  0  0  0  0  0  0  0
  143.9356   73.7673  221.8121 H   0  0  0  0  0  0  0  0  0  0  0  0
  144.6479   72.4468  220.7589 H   0  0  0  0  0  0  0  0  0  0  0  0
  145.2166   74.7123  220.0349 H   0  0  0  0  0  0  0  0  0  0  0  0
  144.2684   73.6989  218.8267 H   0  0  0  0  0  0  0  0  0  0  0  0
  143.6921   76.3097  219.9153 H   0  0  0  0  0  0  0  0  0  0  0  0
  142.9724   75.4390  218.5327 H   0  0  0  0  0  0  0  0  0  0  0  0
  142.2537   75.0953  221.5179 H   0  0  0  0  0  0  0  0  0  0  0  0
  140.9083   76.3758  219.2426 H   0  0  0  0  0  0  0  0  0  0  0  0
  139.9811   75.5853  220.5530 H   0  0  0  0  0  0  0  0  0  0  0  0
  141.8318   78.4308  219.5320 H   0  0  0  0  0  0  0  0  0  0  0  0
  142.3582   80.4297  220.9282 H   0  0  0  0  0  0  0  0  0  0  0  0
  141.2330   78.1821  224.4275 H   0  0  0  0  0  0  0  0  0  0  0  0
  140.7146   76.1921  223.0270 H   0  0  0  0  0  0  0  0  0  0  0  0
  139.0157   69.9177  222.2929 H   0  0  0  0  0  0  0  0  0  0  0  0
  139.2114   68.2790  224.1529 H   0  0  0  0  0  0  0  0  0  0  0  0
  139.8390   67.7590  226.4800 H   0  0  0  0  0  0  0  0  0  0  0  0
  141.4320   70.8691  229.0016 H   0  0  0  0  0  0  0  0  0  0  0  0
  141.2160   72.4848  227.0987 H   0  0  0  0  0  0  0  0  0  0  0  0
  1  2  2  0
  2  3  1  0
  3  4  1  0
  4  5  1  0
  5  6  2  0
  5  7  1  0
  7  8  1  0
  8  9  1  0
  9 10  1  0
 10 11  1  0
 11 12  1  0
 12 13  1  0
 13 14  1  0
 14 15  2  0
 15 16  1  0
 16 17  2  0
 17 18  1  0
 17 19  1  0
 19 20  2  0
  2 21  1  0
 21 22  2  0
 22 23  1  0
 23 24  2  0
 24 25  1  0
 25 26  2  0
 26 27  1  0
 26 28  1  0
 28 29  2  0
 29 30  1  0
 30 31  2  0
 12  7  1  0
 20 14  1  0
 31 21  1  0
 30 24  1  0
  3 32  1  0
  4 33  1  0
  4 34  1  0
  8 35  1  0
  8 36  1  0
  9 37  1  0
  9 38  1  0
 10 39  1  0
 10 40  1  0
 11 41  1  0
 11 42  1  0
 12 43  1  1
 13 44  1  0
 13 45  1  0
 15 46  1  0
 16 47  1  0
 19 48  1  0
 20 49  1  0
 22 50  1  0
 23 51  1  0
 25 52  1  0
 28 53  1  0
 29 54  1  0
M  END
>  <smiles>  (24) 
O=C(NCC(=O)N1CCCC[C@H]1Cc1ccc(Cl)cc1)c1ccc2cc(F)ccc2n1

>  <score_type>  (24) 
oracle

>  <origin>  (24) 
autodockgpu

>  <m_score__min__energy>  (24) 
-9.2100000000000009

>  <m_primary>  (24) 
energy

>  <rmsd>  (24) 
2.714634135036953

>  <m_score__min__rmsd>  (24) 
2.714634135036953

>  <meeko>  (24) 
{"free_energy": -8.97, "intermolecular_energy": -10.76, "internal_energy": -1.83, "cluster_size": 39, "cluster_id": 1, "rank_in_cluster": 8}

>  <energy>  (24) 
-8.58

>  <cluster_rmsd>  (24) 
1.43

>  <cluster>  (24) 
1

$$$$

     RDKit          3D

 54 57  0  0  0  0  0  0  0  0999 V2000
  138.9440   70.5930  221.3880 O   0  0  0  0  0  0  0  0  0  0  0  0
  139.2880   71.0850  222.4850 C   0  0  0  0  0  0  0  0  0  0  0  0
  139.5340   72.4790  222.5430 N   0  0  0  0  0  0  0  0  0  0  0  0
  139.4020   73.3370  221.4020 C   0  0  0  0  0  0  0  0  0  0  0  0
  140.0820   74.6440  221.5910 C   0  0  0  0  0  0  0  0  0  0  0  0
  139.5730   75.4280  222.4310 O   0  0  0  0  0  0  0  0  0  0  0  0
  141.2420   74.9290  220.8290 N   0  0  0  0  0  0  0  0  0  0  0  0
  142.4090   74.0300  220.9020 C   0  0  0  0  0  0  0  0  0  0  0  0
  143.1410   74.1670  219.6150 C   0  0  0  0  0  0  0  0  0  0  0  0
  142.2580   74.3800  218.4240 C   0  0  0  0  0  0  0  0  0  0  0  0
  141.3140   75.5300  218.5300 C   0  0  0  0  0  0  0  0  0  0  0  0
  141.3890   76.0690  219.9520 C   0  0  1  0  0  0  0  0  0  0  0  0
  140.4370   77.1870  220.1870 C   0  0  0  0  0  0  0  0  0  0  0  0
  141.0620   78.1510  221.1660 C   0  0  0  0  0  0  0  0  0  0  0  0
  141.0570   77.8160  222.5120 C   0  0  0  0  0  0  0  0  0  0  0  0
  141.6130   78.6540  223.4760 C   0  0  0  0  0  0  0  0  0  0  0  0
  142.1800   79.8470  223.0620 C   0  0  0  0  0  0  0  0  0  0  0  0
  142.9070   80.9650  224.2260 Cl  0  0  0  0  0  0  0  0  0  0  0  0
  142.1840   80.1800  221.7110 C   0  0  0  0  0  0  0  0  0  0  0  0
  141.6280   79.3390  220.7550 C   0  0  0  0  0  0  0  0  0  0  0  0
  139.4460   70.2690  223.7040 C   0  0  0  0  0  0  0  0  0  0  0  0
  138.9970   68.9690  223.7230 C   0  0  0  0  0  0  0  0  0  0  0  0
  139.1770   68.2610  224.8960 C   0  0  0  0  0  0  0  0  0  0  0  0
  139.7740   68.8140  226.0080 C   0  0  0  0  0  0  0  0  0  0  0  0
  139.9660   68.1370  227.1900 C   0  0  0  0  0  0  0  0  0  0  0  0
  140.5740   68.7460  228.2780 C   0  0  0  0  0  0  0  0  0  0  0  0
  140.7680   68.0900  229.4410 F   0  0  0  0  0  0  0  0  0  0  0  0
  141.0090   70.0570  228.2090 C   0  0  0  0  0  0  0  0  0  0  0  0
  140.8230   70.7560  227.0220 C   0  0  0  0  0  0  0  0  0  0  0  0
  140.2120   70.1310  225.9460 C   0  0  0  0  0  0  0  0  0  0  0  0
  140.0300   70.8020  224.7970 N   0  0  0  0  0  0  0  0  0  0  0  0
  139.8250   72.8690  223.4890 H   0  0  0  0  0  0  0  0  0  0  0  0
  139.8425   72.8332  220.5290 H   0  0  0  0  0  0  0  0  0  0  0  0
  138.3301   73.5361  221.2560 H   0  0  0  0  0  0  0  0  0  0  0  0
  143.0593   74.3216  221.7399 H   0  0  0  0  0  0  0  0  0  0  0  0
  142.0943   72.9890  221.0671 H   0  0  0  0  0  0  0  0  0  0  0  0
  143.8232   75.0261  219.6963 H   0  0  0  0  0  0  0  0  0  0  0  0
  143.6691   73.2163  219.4499 H   0  0  0  0  0  0  0  0  0  0  0  0
  142.9024   74.5484  217.5486 H   0  0  0  0  0  0  0  0  0  0  0  0
  141.6327   73.4787  218.3429 H   0  0  0  0  0  0  0  0  0  0  0  0
  141.6018   76.3164  217.8168 H   0  0  0  0  0  0  0  0  0  0  0  0
  140.2888   75.2063  218.2970 H   0  0  0  0  0  0  0  0  0  0  0  0
  142.3576   76.5474  220.1593 H   0  0  0  0  0  0  0  0  0  0  0  0
  140.2302   77.7038  219.2382 H   0  0  0  0  0  0  0  0  0  0  0  0
  139.4916   76.7978  220.5929 H   0  0  0  0  0  0  0  0  0  0  0  0
  140.6026   76.8648  222.8261 H   0  0  0  0  0  0  0  0  0  0  0  0
  141.6018   78.3746  224.5399 H   0  0  0  0  0  0  0  0  0  0  0  0
  142.6375   81.1303  221.3928 H   0  0  0  0  0  0  0  0  0  0  0  0
  141.6392   79.6158  219.6905 H   0  0  0  0  0  0  0  0  0  0  0  0
  138.5165   68.5137  222.8445 H   0  0  0  0  0  0  0  0  0  0  0  0
  138.8311   67.2179  224.9438 H   0  0  0  0  0  0  0  0  0  0  0  0
  139.6310   67.0926  227.2740 H   0  0  0  0  0  0  0  0  0  0  0  0
  141.4913   70.5358  229.0740 H   0  0  0  0  0  0  0  0  0  0  0  0
  141.1590   71.8000  226.9369 H   0  0  0  0  0  0  0  0  0  0  0  0
  1  2  2  0
  2  3  1  0
  3  4  1  0
  4  5  1  0
  5  6  2  0
  5  7  1  0
  7  8  1  0
  8  9  1  0
  9 10  1  0
 10 11  1  0
 11 12  1  0
 12 13  1  0
 13 14  1  0
 14 15  2  0
 15 16  1  0
 16 17  2  0
 17 18  1  0
 17 19  1  0
 19 20  2  0
  2 21  1  0
 21 22  2  0
 22 23  1  0
 23 24  2  0
 24 25  1  0
 25 26  2  0
 26 27  1  0
 26 28  1  0
 28 29  2  0
 29 30  1  0
 30 31  2  0
 12  7  1  0
 20 14  1  0
 31 21  1  0
 30 24  1  0
  3 32  1  0
  4 33  1  0
  4 34  1  0
  8 35  1  0
  8 36  1  0
  9 37  1  0
  9 38  1  0
 10 39  1  0
 10 40  1  0
 11 41  1  0
 11 42  1  0
 12 43  1  6
 13 44  1  0
 13 45  1  0
 15 46  1  0
 16 47  1  0
 19 48  1  0
 20 49  1  0
 22 50  1  0
 23 51  1  0
 25 52  1  0
 28 53  1  0
 29 54  1  0
M  END
>  <smiles>  (25) 
O=C(NCC(=O)N1CCCC[C@H]1Cc1ccc(Cl)cc1)c1ccc2cc(F)ccc2n1

>  <score_type>  (25) 
oracle

>  <origin>  (25) 
autodockgpu

>  <m_score__min__energy>  (25) 
-9.2100000000000009

>  <m_primary>  (25) 
energy

>  <rmsd>  (25) 
2.0239177743194543

>  <m_score__min__rmsd>  (25) 
2.0239177743194543

>  <meeko>  (25) 
{"free_energy": -8.82, "intermolecular_energy": -10.61, "internal_energy": -1.82, "cluster_size": 39, "cluster_id": 1, "rank_in_cluster": 14}

>  <energy>  (25) 
-8.54

>  <cluster_rmsd>  (25) 
1.23

>  <cluster>  (25) 
1

$$$$

     RDKit          3D

 54 57  0  0  0  0  0  0  0  0999 V2000
  141.4520   71.6790  221.6830 O   0  0  0  0  0  0  0  0  0  0  0  0
  140.4680   71.8470  222.4360 C   0  0  0  0  0  0  0  0  0  0  0  0
  139.5620   72.8920  222.1270 N   0  0  0  0  0  0  0  0  0  0  0  0
  139.7320   73.7540  220.9950 C   0  0  0  0  0  0  0  0  0  0  0  0
  140.3400   75.0600  221.3590 C   0  0  0  0  0  0  0  0  0  0  0  0
  139.8280   75.6680  222.3330 O   0  0  0  0  0  0  0  0  0  0  0  0
  141.4390   75.5380  220.6030 N   0  0  0  0  0  0  0  0  0  0  0  0
  142.7010   74.7770  220.5800 C   0  0  0  0  0  0  0  0  0  0  0  0
  143.3780   75.1030  219.2960 C   0  0  0  0  0  0  0  0  0  0  0  0
  142.4450   75.3090  218.1430 C   0  0  0  0  0  0  0  0  0  0  0  0
  141.3800   76.3300  218.3620 C   0  0  0  0  0  0  0  0  0  0  0  0
  141.4310   76.7550  219.8230 C   0  0  1  0  0  0  0  0  0  0  0  0
  140.3650   77.7330  220.1680 C   0  0  0  0  0  0  0  0  0  0  0  0
  140.9060   78.6850  221.2080 C   0  0  0  0  0  0  0  0  0  0  0  0
  141.4780   79.8730  220.7760 C   0  0  0  0  0  0  0  0  0  0  0  0
  142.0000   80.8020  221.6750 C   0  0  0  0  0  0  0  0  0  0  0  0
  141.9380   80.5140  223.0260 C   0  0  0  0  0  0  0  0  0  0  0  0
  142.5790   81.6430  224.2310 Cl  0  0  0  0  0  0  0  0  0  0  0  0
  141.3630   79.3220  223.4560 C   0  0  0  0  0  0  0  0  0  0  0  0
  140.8450   78.4010  222.5550 C   0  0  0  0  0  0  0  0  0  0  0  0
  140.2240   71.0020  223.6210 C   0  0  0  0  0  0  0  0  0  0  0  0
  139.4850   69.8490  223.5020 C   0  0  0  0  0  0  0  0  0  0  0  0
  139.2960   69.1040  224.6510 C   0  0  0  0  0  0  0  0  0  0  0  0
  139.8140   69.4840  225.8700 C   0  0  0  0  0  0  0  0  0  0  0  0
  139.6420   68.7660  227.0310 C   0  0  0  0  0  0  0  0  0  0  0  0
  140.1870   69.1970  228.2310 C   0  0  0  0  0  0  0  0  0  0  0  0
  140.0250   68.5000  229.3750 F   0  0  0  0  0  0  0  0  0  0  0  0
  140.9240   70.3660  228.3000 C   0  0  0  0  0  0  0  0  0  0  0  0
  141.1070   71.1040  227.1360 C   0  0  0  0  0  0  0  0  0  0  0  0
  140.5540   70.6570  225.9460 C   0  0  0  0  0  0  0  0  0  0  0  0
  140.7280   71.3660  224.8190 N   0  0  0  0  0  0  0  0  0  0  0  0
  138.7350   73.0110  222.7850 H   0  0  0  0  0  0  0  0  0  0  0  0
  140.3844   73.2526  220.2650 H   0  0  0  0  0  0  0  0  0  0  0  0
  138.7350   73.9552  220.5761 H   0  0  0  0  0  0  0  0  0  0  0  0
  143.3362   75.0719  221.4282 H   0  0  0  0  0  0  0  0  0  0  0  0
  142.5112   73.6966  220.6622 H   0  0  0  0  0  0  0  0  0  0  0  0
  143.9597   76.0258  219.4377 H   0  0  0  0  0  0  0  0  0  0  0  0
  144.0064   74.2366  219.0421 H   0  0  0  0  0  0  0  0  0  0  0  0
  143.0422   75.6214  217.2737 H   0  0  0  0  0  0  0  0  0  0  0  0
  141.9241   74.3512  217.9972 H   0  0  0  0  0  0  0  0  0  0  0  0
  141.5579   77.2004  217.7133 H   0  0  0  0  0  0  0  0  0  0  0  0
  140.3923   75.9108  218.1196 H   0  0  0  0  0  0  0  0  0  0  0  0
  142.3442   77.3233  220.0536 H   0  0  0  0  0  0  0  0  0  0  0  0
  140.0711   78.2940  219.2686 H   0  0  0  0  0  0  0  0  0  0  0  0
  139.4834   77.2061  220.5619 H   0  0  0  0  0  0  0  0  0  0  0  0
  141.5207   80.0871  219.6979 H   0  0  0  0  0  0  0  0  0  0  0  0
  142.4498   81.7404  221.3186 H   0  0  0  0  0  0  0  0  0  0  0  0
  141.3178   79.1045  224.5333 H   0  0  0  0  0  0  0  0  0  0  0  0
  140.3944   77.4624  222.9099 H   0  0  0  0  0  0  0  0  0  0  0  0
  139.0632   69.5335  222.5363 H   0  0  0  0  0  0  0  0  0  0  0  0
  138.7111   68.1744  224.5900 H   0  0  0  0  0  0  0  0  0  0  0  0
  139.0611   67.8322  227.0068 H   0  0  0  0  0  0  0  0  0  0  0  0
  141.3552   70.7037  229.2539 H   0  0  0  0  0  0  0  0  0  0  0  0
  141.6877   72.0379  227.1592 H   0  0  0  0  0  0  0  0  0  0  0  0
  1  2  2  0
  2  3  1  0
  3  4  1  0
  4  5  1  0
  5  6  2  0
  5  7  1  0
  7  8  1  0
  8  9  1  0
  9 10  1  0
 10 11  1  0
 11 12  1  0
 12 13  1  0
 13 14  1  0
 14 15  2  0
 15 16  1  0
 16 17  2  0
 17 18  1  0
 17 19  1  0
 19 20  2  0
  2 21  1  0
 21 22  2  0
 22 23  1  0
 23 24  2  0
 24 25  1  0
 25 26  2  0
 26 27  1  0
 26 28  1  0
 28 29  2  0
 29 30  1  0
 30 31  2  0
 12  7  1  0
 20 14  1  0
 31 21  1  0
 30 24  1  0
  3 32  1  0
  4 33  1  0
  4 34  1  0
  8 35  1  0
  8 36  1  0
  9 37  1  0
  9 38  1  0
 10 39  1  0
 10 40  1  0
 11 41  1  0
 11 42  1  0
 12 43  1  6
 13 44  1  0
 13 45  1  0
 15 46  1  0
 16 47  1  0
 19 48  1  0
 20 49  1  0
 22 50  1  0
 23 51  1  0
 25 52  1  0
 28 53  1  0
 29 54  1  0
M  END
>  <smiles>  (26) 
O=C(NCC(=O)N1CCCC[C@H]1Cc1ccc(Cl)cc1)c1ccc2cc(F)ccc2n1

>  <score_type>  (26) 
oracle

>  <origin>  (26) 
autodockgpu

>  <m_score__min__energy>  (26) 
-9.2100000000000009

>  <m_primary>  (26) 
energy

>  <rmsd>  (26) 
2.0822526807489736

>  <m_score__min__rmsd>  (26) 
2.0822526807489736

>  <meeko>  (26) 
{"free_energy": -8.95, "intermolecular_energy": -10.74, "internal_energy": -1.58, "cluster_size": 39, "cluster_id": 1, "rank_in_cluster": 10}

>  <energy>  (26) 
-8.52

>  <cluster_rmsd>  (26) 
1.47

>  <cluster>  (26) 
1

$$$$

     RDKit          3D

 54 57  0  0  0  0  0  0  0  0999 V2000
  140.1770   71.4420  220.8900 O   0  0  0  0  0  0  0  0  0  0  0  0
  140.0070   71.9450  222.0220 C   0  0  0  0  0  0  0  0  0  0  0  0
  139.9440   73.3570  222.1220 N   0  0  0  0  0  0  0  0  0  0  0  0
  140.0670   74.2200  220.9840 C   0  0  0  0  0  0  0  0  0  0  0  0
  141.0010   75.3510  221.2250 C   0  0  0  0  0  0  0  0  0  0  0  0
  141.0630   75.7900  222.4010 O   0  0  0  0  0  0  0  0  0  0  0  0
  141.7520   75.8610  220.1370 N   0  0  0  0  0  0  0  0  0  0  0  0
  143.0690   75.2820  219.8180 C   0  0  0  0  0  0  0  0  0  0  0  0
  143.3020   75.5120  218.3670 C   0  0  0  0  0  0  0  0  0  0  0  0
  142.0670   75.4270  217.5240 C   0  0  0  0  0  0  0  0  0  0  0  0
  140.9460   76.3160  217.9470 C   0  0  0  0  0  0  0  0  0  0  0  0
  141.3240   76.9450  219.2820 C   0  0  1  0  0  0  0  0  0  0  0  0
  140.2450   77.8090  219.8280 C   0  0  0  0  0  0  0  0  0  0  0  0
  140.8370   78.6970  220.8970 C   0  0  0  0  0  0  0  0  0  0  0  0
  140.3960   78.5370  222.2020 C   0  0  0  0  0  0  0  0  0  0  0  0
  140.8930   79.3200  223.2430 C   0  0  0  0  0  0  0  0  0  0  0  0
  141.8500   80.2740  222.9470 C   0  0  0  0  0  0  0  0  0  0  0  0
  142.5310   81.3070  224.2130 Cl  0  0  0  0  0  0  0  0  0  0  0  0
  142.2910   80.4320  221.6370 C   0  0  0  0  0  0  0  0  0  0  0  0
  141.7900   79.6490  220.6040 C   0  0  0  0  0  0  0  0  0  0  0  0
  139.8730   71.1250  223.2410 C   0  0  0  0  0  0  0  0  0  0  0  0
  139.2970   69.8780  223.1690 C   0  0  0  0  0  0  0  0  0  0  0  0
  139.2030   69.1620  224.3480 C   0  0  0  0  0  0  0  0  0  0  0  0
  139.6570   69.6580  225.5500 C   0  0  0  0  0  0  0  0  0  0  0  0
  139.5760   68.9720  226.7400 C   0  0  0  0  0  0  0  0  0  0  0  0
  140.0510   69.5220  227.9220 C   0  0  0  0  0  0  0  0  0  0  0  0
  139.9770   68.8570  229.0940 F   0  0  0  0  0  0  0  0  0  0  0  0
  140.6220   70.7820  227.9430 C   0  0  0  0  0  0  0  0  0  0  0  0
  140.7110   71.4900  226.7490 C   0  0  0  0  0  0  0  0  0  0  0  0
  140.2310   70.9230  225.5780 C   0  0  0  0  0  0  0  0  0  0  0  0
  140.3150   71.6030  224.4230 N   0  0  0  0  0  0  0  0  0  0  0  0
  139.7990   73.7560  223.0970 H   0  0  0  0  0  0  0  0  0  0  0  0
  140.4390   73.6306  220.1330 H   0  0  0  0  0  0  0  0  0  0  0  0
  139.0736   74.6452  220.7783 H   0  0  0  0  0  0  0  0  0  0  0  0
  143.8531   75.7766  220.4101 H   0  0  0  0  0  0  0  0  0  0  0  0
  143.0951   74.2083  220.0557 H   0  0  0  0  0  0  0  0  0  0  0  0
  143.7359   76.5151  218.2424 H   0  0  0  0  0  0  0  0  0  0  0  0
  143.9732   74.7106  218.0246 H   0  0  0  0  0  0  0  0  0  0  0  0
  142.3406   75.6921  216.4921 H   0  0  0  0  0  0  0  0  0  0  0  0
  141.6959   74.3969  217.6297 H   0  0  0  0  0  0  0  0  0  0  0  0
  140.7889   77.1028  217.1945 H   0  0  0  0  0  0  0  0  0  0  0  0
  140.0155   75.7378  218.0462 H   0  0  0  0  0  0  0  0  0  0  0  0
  142.1554   77.6581  219.1807 H   0  0  0  0  0  0  0  0  0  0  0  0
  139.8225   78.4284  219.0231 H   0  0  0  0  0  0  0  0  0  0  0  0
  139.4442   77.1875  220.2551 H   0  0  0  0  0  0  0  0  0  0  0  0
  139.6352   77.7734  222.4212 H   0  0  0  0  0  0  0  0  0  0  0  0
  140.5333   79.1827  224.2734 H   0  0  0  0  0  0  0  0  0  0  0  0
  143.0529   81.1934  221.4140 H   0  0  0  0  0  0  0  0  0  0  0  0
  142.1469   79.7862  219.5726 H   0  0  0  0  0  0  0  0  0  0  0  0
  138.9280   69.4691  222.2168 H   0  0  0  0  0  0  0  0  0  0  0  0
  138.7493   68.1602  224.3252 H   0  0  0  0  0  0  0  0  0  0  0  0
  139.1261   67.9683  226.7546 H   0  0  0  0  0  0  0  0  0  0  0  0
  140.9970   71.2141  228.8825 H   0  0  0  0  0  0  0  0  0  0  0  0
  141.1597   72.4942  226.7337 H   0  0  0  0  0  0  0  0  0  0  0  0
  1  2  2  0
  2  3  1  0
  3  4  1  0
  4  5  1  0
  5  6  2  0
  5  7  1  0
  7  8  1  0
  8  9  1  0
  9 10  1  0
 10 11  1  0
 11 12  1  0
 12 13  1  0
 13 14  1  0
 14 15  2  0
 15 16  1  0
 16 17  2  0
 17 18  1  0
 17 19  1  0
 19 20  2  0
  2 21  1  0
 21 22  2  0
 22 23  1  0
 23 24  2  0
 24 25  1  0
 25 26  2  0
 26 27  1  0
 26 28  1  0
 28 29  2  0
 29 30  1  0
 30 31  2  0
 12  7  1  0
 20 14  1  0
 31 21  1  0
 30 24  1  0
  3 32  1  0
  4 33  1  0
  4 34  1  0
  8 35  1  0
  8 36  1  0
  9 37  1  0
  9 38  1  0
 10 39  1  0
 10 40  1  0
 11 41  1  0
 11 42  1  0
 12 43  1  6
 13 44  1  0
 13 45  1  0
 15 46  1  0
 16 47  1  0
 19 48  1  0
 20 49  1  0
 22 50  1  0
 23 51  1  0
 25 52  1  0
 28 53  1  0
 29 54  1  0
M  END
>  <smiles>  (27) 
O=C(NCC(=O)N1CCCC[C@H]1Cc1ccc(Cl)cc1)c1ccc2cc(F)ccc2n1

>  <score_type>  (27) 
oracle

>  <origin>  (27) 
autodockgpu

>  <m_score__min__energy>  (27) 
-9.2100000000000009

>  <m_primary>  (27) 
energy

>  <rmsd>  (27) 
2.024524605140185

>  <m_score__min__rmsd>  (27) 
2.024524605140185

>  <meeko>  (27) 
{"free_energy": -8.52, "intermolecular_energy": -10.31, "internal_energy": -1.97, "cluster_size": 39, "cluster_id": 1, "rank_in_cluster": 27}

>  <energy>  (27) 
-8.52

>  <cluster_rmsd>  (27) 
1.25

>  <cluster>  (27) 
1

$$$$

     RDKit          3D

 54 57  0  0  0  0  0  0  0  0999 V2000
  139.9440   73.7430  222.3900 O   0  0  0  0  0  0  0  0  0  0  0  0
  140.3940   72.5770  222.3380 C   0  0  0  0  0  0  0  0  0  0  0  0
  141.1060   72.1880  221.1750 N   0  0  0  0  0  0  0  0  0  0  0  0
  141.3260   73.0740  220.0700 C   0  0  0  0  0  0  0  0  0  0  0  0
  142.4940   73.9690  220.2820 C   0  0  0  0  0  0  0  0  0  0  0  0
  143.3410   73.5970  221.1320 O   0  0  0  0  0  0  0  0  0  0  0  0
  142.5840   75.1660  219.5300 N   0  0  0  0  0  0  0  0  0  0  0  0
  143.6450   75.3220  218.5190 C   0  0  0  0  0  0  0  0  0  0  0  0
  143.1380   76.2850  217.5050 C   0  0  0  0  0  0  0  0  0  0  0  0
  141.6680   76.1830  217.2400 C   0  0  0  0  0  0  0  0  0  0  0  0
  140.7950   76.2950  218.4440 C   0  0  0  0  0  0  0  0  0  0  0  0
  141.6920   76.2950  219.6750 C   0  0  1  0  0  0  0  0  0  0  0  0
  140.9170   76.3430  220.9430 C   0  0  0  0  0  0  0  0  0  0  0  0
  141.3130   77.5880  221.7000 C   0  0  0  0  0  0  0  0  0  0  0  0
  141.1960   77.5820  223.0820 C   0  0  0  0  0  0  0  0  0  0  0  0
  141.5400   78.6930  223.8500 C   0  0  0  0  0  0  0  0  0  0  0  0
  142.0080   79.8210  223.2000 C   0  0  0  0  0  0  0  0  0  0  0  0
  142.4660   81.2720  224.1050 Cl  0  0  0  0  0  0  0  0  0  0  0  0
  142.1250   79.8240  221.8130 C   0  0  0  0  0  0  0  0  0  0  0  0
  141.7800   78.7130  221.0540 C   0  0  0  0  0  0  0  0  0  0  0  0
  140.2080   71.6060  223.4330 C   0  0  0  0  0  0  0  0  0  0  0  0
  139.5520   70.4210  223.1970 C   0  0  0  0  0  0  0  0  0  0  0  0
  139.4130   69.5570  224.2660 C   0  0  0  0  0  0  0  0  0  0  0  0
  139.9010   69.8530  225.5210 C   0  0  0  0  0  0  0  0  0  0  0  0
  139.7770   69.0150  226.6060 C   0  0  0  0  0  0  0  0  0  0  0  0
  140.2890   69.3650  227.8470 C   0  0  0  0  0  0  0  0  0  0  0  0
  140.1740   68.5510  228.9170 F   0  0  0  0  0  0  0  0  0  0  0  0
  140.9410   70.5710  228.0350 C   0  0  0  0  0  0  0  0  0  0  0  0
  141.0740   71.4290  226.9490 C   0  0  0  0  0  0  0  0  0  0  0  0
  140.5560   71.0620  225.7160 C   0  0  0  0  0  0  0  0  0  0  0  0
  140.6830   71.8870  224.6650 N   0  0  0  0  0  0  0  0  0  0  0  0
  141.4760   71.1920  221.1590 H   0  0  0  0  0  0  0  0  0  0  0  0
  141.5016   72.4731  219.1655 H   0  0  0  0  0  0  0  0  0  0  0  0
  140.4332   73.7082  219.9671 H   0  0  0  0  0  0  0  0  0  0  0  0
  144.5598   75.7134  218.9881 H   0  0  0  0  0  0  0  0  0  0  0  0
  143.8918   74.3556  218.0551 H   0  0  0  0  0  0  0  0  0  0  0  0
  143.3545   77.3038  217.8588 H   0  0  0  0  0  0  0  0  0  0  0  0
  143.6462   76.0440  216.5597 H   0  0  0  0  0  0  0  0  0  0  0  0
  141.3914   76.9881  216.5434 H   0  0  0  0  0  0  0  0  0  0  0  0
  141.5008   75.1739  216.8353 H   0  0  0  0  0  0  0  0  0  0  0  0
  140.2185   77.2309  218.4018 H   0  0  0  0  0  0  0  0  0  0  0  0
  140.0889   75.4525  218.4847 H   0  0  0  0  0  0  0  0  0  0  0  0
  142.2962   77.2117  219.7432 H   0  0  0  0  0  0  0  0  0  0  0  0
  139.8404   76.3717  220.7190 H   0  0  0  0  0  0  0  0  0  0  0  0
  141.1300   75.4499  221.5488 H   0  0  0  0  0  0  0  0  0  0  0  0
  140.8223   76.6777  223.5845 H   0  0  0  0  0  0  0  0  0  0  0  0
  141.4418   78.6735  224.9454 H   0  0  0  0  0  0  0  0  0  0  0  0
  142.4990   80.7261  221.3068 H   0  0  0  0  0  0  0  0  0  0  0  0
  141.8775   78.7304  219.9585 H   0  0  0  0  0  0  0  0  0  0  0  0
  139.1556   70.1720  222.2016 H   0  0  0  0  0  0  0  0  0  0  0  0
  138.8948   68.5993  224.1104 H   0  0  0  0  0  0  0  0  0  0  0  0
  139.2625   68.0501  226.4869 H   0  0  0  0  0  0  0  0  0  0  0  0
  141.3448   70.8446  229.0210 H   0  0  0  0  0  0  0  0  0  0  0  0
  141.5877   72.3944  227.0673 H   0  0  0  0  0  0  0  0  0  0  0  0
  1  2  2  0
  2  3  1  0
  3  4  1  0
  4  5  1  0
  5  6  2  0
  5  7  1  0
  7  8  1  0
  8  9  1  0
  9 10  1  0
 10 11  1  0
 11 12  1  0
 12 13  1  0
 13 14  1  0
 14 15  2  0
 15 16  1  0
 16 17  2  0
 17 18  1  0
 17 19  1  0
 19 20  2  0
  2 21  1  0
 21 22  2  0
 22 23  1  0
 23 24  2  0
 24 25  1  0
 25 26  2  0
 26 27  1  0
 26 28  1  0
 28 29  2  0
 29 30  1  0
 30 31  2  0
 12  7  1  0
 20 14  1  0
 31 21  1  0
 30 24  1  0
  3 32  1  0
  4 33  1  0
  4 34  1  0
  8 35  1  0
  8 36  1  0
  9 37  1  0
  9 38  1  0
 10 39  1  0
 10 40  1  0
 11 41  1  0
 11 42  1  0
 12 43  1  6
 13 44  1  0
 13 45  1  0
 15 46  1  0
 16 47  1  0
 19 48  1  0
 20 49  1  0
 22 50  1  0
 23 51  1  0
 25 52  1  0
 28 53  1  0
 29 54  1  0
M  END
>  <smiles>  (28) 
O=C(NCC(=O)N1CCCC[C@H]1Cc1ccc(Cl)cc1)c1ccc2cc(F)ccc2n1

>  <score_type>  (28) 
oracle

>  <origin>  (28) 
autodockgpu

>  <m_score__min__energy>  (28) 
-9.2100000000000009

>  <m_primary>  (28) 
energy

>  <rmsd>  (28) 
2.597716419655437

>  <m_score__min__rmsd>  (28) 
2.597716419655437

>  <meeko>  (28) 
{"free_energy": -8.88, "intermolecular_energy": -10.67, "internal_energy": -1.66, "cluster_size": 39, "cluster_id": 1, "rank_in_cluster": 13}

>  <energy>  (28) 
-8.48

>  <cluster_rmsd>  (28) 
1.58

>  <cluster>  (28) 
1

$$$$

     RDKit          3D

 54 57  0  0  0  0  0  0  0  0999 V2000
  139.8310   70.7540  221.3890 O   0  0  0  0  0  0  0  0  0  0  0  0
  139.4650   71.3910  222.4010 C   0  0  0  0  0  0  0  0  0  0  0  0
  138.6130   72.5080  222.2130 N   0  0  0  0  0  0  0  0  0  0  0  0
  138.1610   72.9290  220.9190 C   0  0  0  0  0  0  0  0  0  0  0  0
  138.8920   74.1240  220.4230 C   0  0  0  0  0  0  0  0  0  0  0  0
  138.2390   74.9260  219.7080 O   0  0  0  0  0  0  0  0  0  0  0  0
  140.2550   74.2880  220.7740 N   0  0  0  0  0  0  0  0  0  0  0  0
  141.2510   73.2920  220.3410 C   0  0  0  0  0  0  0  0  0  0  0  0
  142.5590   73.9950  220.2610 C   0  0  0  0  0  0  0  0  0  0  0  0
  142.4660   75.4170  219.7990 C   0  0  0  0  0  0  0  0  0  0  0  0
  141.5370   76.2810  220.5830 C   0  0  0  0  0  0  0  0  0  0  0  0
  140.7740   75.3900  221.5540 C   0  0  1  0  0  0  0  0  0  0  0  0
  139.7700   76.1450  222.3490 C   0  0  0  0  0  0  0  0  0  0  0  0
  140.3290   77.5150  222.6500 C   0  0  0  0  0  0  0  0  0  0  0  0
  139.6960   78.6190  222.0980 C   0  0  0  0  0  0  0  0  0  0  0  0
  140.1540   79.9150  222.3290 C   0  0  0  0  0  0  0  0  0  0  0  0
  141.2680   80.0850  223.1310 C   0  0  0  0  0  0  0  0  0  0  0  0
  141.9100   81.6990  223.4720 Cl  0  0  0  0  0  0  0  0  0  0  0  0
  141.9010   78.9760  223.6840 C   0  0  0  0  0  0  0  0  0  0  0  0
  141.4390   77.6860  223.4490 C   0  0  0  0  0  0  0  0  0  0  0  0
  139.8860   71.0210  223.7650 C   0  0  0  0  0  0  0  0  0  0  0  0
  140.6460   71.8930  224.5090 C   0  0  0  0  0  0  0  0  0  0  0  0
  141.0060   71.4830  225.7790 C   0  0  0  0  0  0  0  0  0  0  0  0
  140.6320   70.2610  226.2940 C   0  0  0  0  0  0  0  0  0  0  0  0
  140.9760   69.8250  227.5530 C   0  0  0  0  0  0  0  0  0  0  0  0
  140.5710   68.5820  228.0190 C   0  0  0  0  0  0  0  0  0  0  0  0
  140.9020   68.1450  229.2520 F   0  0  0  0  0  0  0  0  0  0  0  0
  139.8070   67.7400  227.2310 C   0  0  0  0  0  0  0  0  0  0  0  0
  139.4520   68.1650  225.9560 C   0  0  0  0  0  0  0  0  0  0  0  0
  139.8660   69.4100  225.5080 C   0  0  0  0  0  0  0  0  0  0  0  0
  139.5250   69.8260  224.2770 N   0  0  0  0  0  0  0  0  0  0  0  0
  138.3180   73.0300  223.0910 H   0  0  0  0  0  0  0  0  0  0  0  0
  138.3099   72.1036  220.2073 H   0  0  0  0  0  0  0  0  0  0  0  0
  137.0984   73.1994  221.0073 H   0  0  0  0  0  0  0  0  0  0  0  0
  141.3069   72.4710  221.0710 H   0  0  0  0  0  0  0  0  0  0  0  0
  140.9769   72.8587  219.3678 H   0  0  0  0  0  0  0  0  0  0  0  0
  143.0166   73.9868  221.2613 H   0  0  0  0  0  0  0  0  0  0  0  0
  143.1602   73.4586  219.5121 H   0  0  0  0  0  0  0  0  0  0  0  0
  143.4715   75.8595  219.8558 H   0  0  0  0  0  0  0  0  0  0  0  0
  142.0588   75.3797  218.7778 H   0  0  0  0  0  0  0  0  0  0  0  0
  142.1104   77.0361  221.1407 H   0  0  0  0  0  0  0  0  0  0  0  0
  140.8383   76.8003  219.9105 H   0  0  0  0  0  0  0  0  0  0  0  0
  141.4271   74.9844  222.3407 H   0  0  0  0  0  0  0  0  0  0  0  0
  138.8381   76.2429  221.7729 H   0  0  0  0  0  0  0  0  0  0  0  0
  139.5536   75.6120  223.2866 H   0  0  0  0  0  0  0  0  0  0  0  0
  138.8110   78.4680  221.4625 H   0  0  0  0  0  0  0  0  0  0  0  0
  139.6421   80.7812  221.8844 H   0  0  0  0  0  0  0  0  0  0  0  0
  142.7858   79.1232  224.3207 H   0  0  0  0  0  0  0  0  0  0  0  0
  141.9496   76.8183  223.8923 H   0  0  0  0  0  0  0  0  0  0  0  0
  140.9532   72.8716  224.1117 H   0  0  0  0  0  0  0  0  0  0  0  0
  141.6132   72.1569  226.4012 H   0  0  0  0  0  0  0  0  0  0  0  0
  141.5830   70.4734  228.2019 H   0  0  0  0  0  0  0  0  0  0  0  0
  139.4875   66.7561  227.6050 H   0  0  0  0  0  0  0  0  0  0  0  0
  138.8458   67.5169  225.3059 H   0  0  0  0  0  0  0  0  0  0  0  0
  1  2  2  0
  2  3  1  0
  3  4  1  0
  4  5  1  0
  5  6  2  0
  5  7  1  0
  7  8  1  0
  8  9  1  0
  9 10  1  0
 10 11  1  0
 11 12  1  0
 12 13  1  0
 13 14  1  0
 14 15  2  0
 15 16  1  0
 16 17  2  0
 17 18  1  0
 17 19  1  0
 19 20  2  0
  2 21  1  0
 21 22  2  0
 22 23  1  0
 23 24  2  0
 24 25  1  0
 25 26  2  0
 26 27  1  0
 26 28  1  0
 28 29  2  0
 29 30  1  0
 30 31  2  0
 12  7  1  0
 20 14  1  0
 31 21  1  0
 30 24  1  0
  3 32  1  0
  4 33  1  0
  4 34  1  0
  8 35  1  0
  8 36  1  0
  9 37  1  0
  9 38  1  0
 10 39  1  0
 10 40  1  0
 11 41  1  0
 11 42  1  0
 12 43  1  1
 13 44  1  0
 13 45  1  0
 15 46  1  0
 16 47  1  0
 19 48  1  0
 20 49  1  0
 22 50  1  0
 23 51  1  0
 25 52  1  0
 28 53  1  0
 29 54  1  0
M  END
>  <smiles>  (29) 
O=C(NCC(=O)N1CCCC[C@H]1Cc1ccc(Cl)cc1)c1ccc2cc(F)ccc2n1

>  <score_type>  (29) 
oracle

>  <origin>  (29) 
autodockgpu

>  <m_score__min__energy>  (29) 
-9.2100000000000009

>  <m_primary>  (29) 
energy

>  <rmsd>  (29) 
3.1416857752532015

>  <m_score__min__rmsd>  (29) 
3.1416857752532015

>  <meeko>  (29) 
{"free_energy": -8.4, "intermolecular_energy": -10.19, "internal_energy": -1.73, "cluster_size": 39, "cluster_id": 1, "rank_in_cluster": 33}

>  <energy>  (29) 
-8.45

>  <cluster_rmsd>  (29) 
1.77

>  <cluster>  (29) 
1

$$$$

     RDKit          3D

 54 57  0  0  0  0  0  0  0  0999 V2000
  138.9200   71.2600  221.2820 O   0  0  0  0  0  0  0  0  0  0  0  0
  139.3110   71.6690  222.3970 C   0  0  0  0  0  0  0  0  0  0  0  0
  139.5980   73.0500  222.5370 N   0  0  0  0  0  0  0  0  0  0  0  0
  139.4580   73.9830  221.4590 C   0  0  0  0  0  0  0  0  0  0  0  0
  140.4630   73.7670  220.3850 C   0  0  0  0  0  0  0  0  0  0  0  0
  140.1160   73.0300  219.4290 O   0  0  0  0  0  0  0  0  0  0  0  0
  141.7310   74.3900  220.4990 N   0  0  0  0  0  0  0  0  0  0  0  0
  142.9490   73.5660  220.6000 C   0  0  0  0  0  0  0  0  0  0  0  0
  144.0700   74.3840  220.0660 C   0  0  0  0  0  0  0  0  0  0  0  0
  143.6920   75.2740  218.9220 C   0  0  0  0  0  0  0  0  0  0  0  0
  142.5480   76.1930  219.1820 C   0  0  0  0  0  0  0  0  0  0  0  0
  141.9430   75.8200  220.5290 C   0  0  1  0  0  0  0  0  0  0  0  0
  140.7490   76.6400  220.8630 C   0  0  0  0  0  0  0  0  0  0  0  0
  141.1890   77.7980  221.7260 C   0  0  0  0  0  0  0  0  0  0  0  0
  141.7480   78.9060  221.1060 C   0  0  0  0  0  0  0  0  0  0  0  0
  142.1790   80.0120  221.8350 C   0  0  0  0  0  0  0  0  0  0  0  0
  142.0380   79.9880  223.2110 C   0  0  0  0  0  0  0  0  0  0  0  0
  142.5610   81.3550  224.2070 Cl  0  0  0  0  0  0  0  0  0  0  0  0
  141.4760   78.8760  223.8310 C   0  0  0  0  0  0  0  0  0  0  0  0
  141.0480   77.7760  223.0980 C   0  0  0  0  0  0  0  0  0  0  0  0
  139.4800   70.7710  223.5550 C   0  0  0  0  0  0  0  0  0  0  0  0
  139.0440   69.4690  223.4840 C   0  0  0  0  0  0  0  0  0  0  0  0
  139.2340   68.6820  224.6040 C   0  0  0  0  0  0  0  0  0  0  0  0
  139.8290   69.1620  225.7500 C   0  0  0  0  0  0  0  0  0  0  0  0
  140.0300   68.4050  226.8810 C   0  0  0  0  0  0  0  0  0  0  0  0
  140.6350   68.9420  228.0080 C   0  0  0  0  0  0  0  0  0  0  0  0
  140.8390   68.2080  229.1220 F   0  0  0  0  0  0  0  0  0  0  0  0
  141.0570   70.2600  228.0310 C   0  0  0  0  0  0  0  0  0  0  0  0
  140.8600   71.0390  226.8960 C   0  0  0  0  0  0  0  0  0  0  0  0
  140.2530   70.4840  225.7800 C   0  0  0  0  0  0  0  0  0  0  0  0
  140.0610   71.2330  224.6820 N   0  0  0  0  0  0  0  0  0  0  0  0
  139.9280   73.3690  223.4960 H   0  0  0  0  0  0  0  0  0  0  0  0
  138.4519   73.8751  221.0275 H   0  0  0  0  0  0  0  0  0  0  0  0
  139.6169   74.9919  221.8674 H   0  0  0  0  0  0  0  0  0  0  0  0
  143.1407   73.3016  221.6504 H   0  0  0  0  0  0  0  0  0  0  0  0
  142.8393   72.6303  220.0322 H   0  0  0  0  0  0  0  0  0  0  0  0
  144.4551   75.0148  220.8808 H   0  0  0  0  0  0  0  0  0  0  0  0
  144.8206   73.6777  219.6815 H   0  0  0  0  0  0  0  0  0  0  0  0
  144.5684   75.8867  218.6639 H   0  0  0  0  0  0  0  0  0  0  0  0
  143.3675   74.6058  218.1107 H   0  0  0  0  0  0  0  0  0  0  0  0
  142.9033   77.2337  219.2075 H   0  0  0  0  0  0  0  0  0  0  0  0
  141.7948   76.1012  218.3856 H   0  0  0  0  0  0  0  0  0  0  0  0
  142.6203   76.0558  221.3631 H   0  0  0  0  0  0  0  0  0  0  0  0
  140.2894   77.0198  219.9386 H   0  0  0  0  0  0  0  0  0  0  0  0
  140.0103   76.0281  221.4015 H   0  0  0  0  0  0  0  0  0  0  0  0
  141.8536   78.9113  220.0111 H   0  0  0  0  0  0  0  0  0  0  0  0
  142.6207   80.8831  221.3290 H   0  0  0  0  0  0  0  0  0  0  0  0
  141.3682   78.8678  224.9257 H   0  0  0  0  0  0  0  0  0  0  0  0
  140.6052   76.9043  223.6021 H   0  0  0  0  0  0  0  0  0  0  0  0
  138.5656   69.0717  222.5767 H   0  0  0  0  0  0  0  0  0  0  0  0
  138.8981   67.6348  224.5795 H   0  0  0  0  0  0  0  0  0  0  0  0
  139.7049   67.3542  226.8919 H   0  0  0  0  0  0  0  0  0  0  0  0
  141.5371   70.6815  228.9264 H   0  0  0  0  0  0  0  0  0  0  0  0
  141.1841   72.0901  226.8838 H   0  0  0  0  0  0  0  0  0  0  0  0
  1  2  2  0
  2  3  1  0
  3  4  1  0
  4  5  1  0
  5  6  2  0
  5  7  1  0
  7  8  1  0
  8  9  1  0
  9 10  1  0
 10 11  1  0
 11 12  1  0
 12 13  1  0
 13 14  1  0
 14 15  2  0
 15 16  1  0
 16 17  2  0
 17 18  1  0
 17 19  1  0
 19 20  2  0
  2 21  1  0
 21 22  2  0
 22 23  1  0
 23 24  2  0
 24 25  1  0
 25 26  2  0
 26 27  1  0
 26 28  1  0
 28 29  2  0
 29 30  1  0
 30 31  2  0
 12  7  1  0
 20 14  1  0
 31 21  1  0
 30 24  1  0
  3 32  1  0
  4 33  1  0
  4 34  1  0
  8 35  1  0
  8 36  1  0
  9 37  1  0
  9 38  1  0
 10 39  1  0
 10 40  1  0
 11 41  1  0
 11 42  1  0
 12 43  1  1
 13 44  1  0
 13 45  1  0
 15 46  1  0
 16 47  1  0
 19 48  1  0
 20 49  1  0
 22 50  1  0
 23 51  1  0
 25 52  1  0
 28 53  1  0
 29 54  1  0
M  END
>  <smiles>  (30) 
O=C(NCC(=O)N1CCCC[C@H]1Cc1ccc(Cl)cc1)c1ccc2cc(F)ccc2n1

>  <score_type>  (30) 
oracle

>  <origin>  (30) 
autodockgpu

>  <m_score__min__energy>  (30) 
-9.2100000000000009

>  <m_primary>  (30) 
energy

>  <rmsd>  (30) 
2.3742696748408005

>  <m_score__min__rmsd>  (30) 
2.3742696748408005

>  <meeko>  (30) 
{"free_energy": -9.08, "intermolecular_energy": -10.87, "internal_energy": -1.65, "cluster_size": 39, "cluster_id": 1, "rank_in_cluster": 2}

>  <energy>  (30) 
-8.43

>  <cluster_rmsd>  (30) 
1.51

>  <cluster>  (30) 
1

$$$$

     RDKit          3D

 54 57  0  0  0  0  0  0  0  0999 V2000
  139.0320   71.7200  221.0390 O   0  0  0  0  0  0  0  0  0  0  0  0
  139.2860   72.1780  222.1740 C   0  0  0  0  0  0  0  0  0  0  0  0
  139.3180   73.5860  222.3330 N   0  0  0  0  0  0  0  0  0  0  0  0
  139.0710   74.4940  221.2520 C   0  0  0  0  0  0  0  0  0  0  0  0
  140.0550   74.3450  220.1480 C   0  0  0  0  0  0  0  0  0  0  0  0
  139.6100   73.9250  219.0500 O   0  0  0  0  0  0  0  0  0  0  0  0
  141.4110   74.6770  220.3910 N   0  0  0  0  0  0  0  0  0  0  0  0
  142.3380   73.6530  220.9020 C   0  0  0  0  0  0  0  0  0  0  0  0
  143.7020   74.0420  220.4550 C   0  0  0  0  0  0  0  0  0  0  0  0
  143.7460   74.6840  219.1020 C   0  0  0  0  0  0  0  0  0  0  0  0
  142.8600   75.8710  218.9320 C   0  0  0  0  0  0  0  0  0  0  0  0
  141.9860   75.9860  220.1740 C   0  0  1  0  0  0  0  0  0  0  0  0
  141.0150   77.1090  220.0840 C   0  0  0  0  0  0  0  0  0  0  0  0
  141.4070   78.1630  221.0910 C   0  0  0  0  0  0  0  0  0  0  0  0
  141.3240   77.8480  222.4390 C   0  0  0  0  0  0  0  0  0  0  0  0
  141.6660   78.7680  223.4280 C   0  0  0  0  0  0  0  0  0  0  0  0
  142.0990   80.0220  223.0360 C   0  0  0  0  0  0  0  0  0  0  0  0
  142.5520   81.2460  224.2320 Cl  0  0  0  0  0  0  0  0  0  0  0  0
  142.1820   80.3360  221.6830 C   0  0  0  0  0  0  0  0  0  0  0  0
  141.8390   79.4140  220.7020 C   0  0  0  0  0  0  0  0  0  0  0  0
  139.5520   71.3100  223.3370 C   0  0  0  0  0  0  0  0  0  0  0  0
  139.3070   69.9600  223.2560 C   0  0  0  0  0  0  0  0  0  0  0  0
  139.5780   69.2050  224.3810 C   0  0  0  0  0  0  0  0  0  0  0  0
  140.0710   69.7610  225.5410 C   0  0  0  0  0  0  0  0  0  0  0  0
  140.3500   69.0370  226.6780 C   0  0  0  0  0  0  0  0  0  0  0  0
  140.8450   69.6510  227.8190 C   0  0  0  0  0  0  0  0  0  0  0  0
  141.1220   68.9510  228.9380 F   0  0  0  0  0  0  0  0  0  0  0  0
  141.0750   71.0150  227.8510 C   0  0  0  0  0  0  0  0  0  0  0  0
  140.7980   71.7610  226.7110 C   0  0  0  0  0  0  0  0  0  0  0  0
  140.3030   71.1300  225.5800 C   0  0  0  0  0  0  0  0  0  0  0  0
  140.0350   71.8470  224.4770 N   0  0  0  0  0  0  0  0  0  0  0  0
  139.5370   73.9470  223.3090 H   0  0  0  0  0  0  0  0  0  0  0  0
  138.0632   74.3036  220.8545 H   0  0  0  0  0  0  0  0  0  0  0  0
  139.1633   75.5167  221.6465 H   0  0  0  0  0  0  0  0  0  0  0  0
  142.2955   73.6190  222.0006 H   0  0  0  0  0  0  0  0  0  0  0  0
  142.0696   72.6556  220.5236 H   0  0  0  0  0  0  0  0  0  0  0  0
  144.1155   74.7515  221.1869 H   0  0  0  0  0  0  0  0  0  0  0  0
  144.2874   73.1135  220.3831 H   0  0  0  0  0  0  0  0  0  0  0  0
  144.7813   75.0022  218.9101 H   0  0  0  0  0  0  0  0  0  0  0  0
  143.3798   73.9266  218.3933 H   0  0  0  0  0  0  0  0  0  0  0  0
  143.4700   76.7794  218.8191 H   0  0  0  0  0  0  0  0  0  0  0  0
  142.2354   75.7568  218.0338 H   0  0  0  0  0  0  0  0  0  0  0  0
  142.5703   76.2626  221.0640 H   0  0  0  0  0  0  0  0  0  0  0  0
  141.0361   77.5375  219.0711 H   0  0  0  0  0  0  0  0  0  0  0  0
  139.9983   76.7459  220.2948 H   0  0  0  0  0  0  0  0  0  0  0  0
  140.9794   76.8462  222.7350 H   0  0  0  0  0  0  0  0  0  0  0  0
  141.5935   78.5039  224.4934 H   0  0  0  0  0  0  0  0  0  0  0  0
  142.5269   81.3366  221.3834 H   0  0  0  0  0  0  0  0  0  0  0  0
  141.9105   79.6764  219.6361 H   0  0  0  0  0  0  0  0  0  0  0  0
  138.9130   69.5014  222.3371 H   0  0  0  0  0  0  0  0  0  0  0  0
  139.3935   68.1211  224.3492 H   0  0  0  0  0  0  0  0  0  0  0  0
  140.1771   67.9507  226.6818 H   0  0  0  0  0  0  0  0  0  0  0  0
  141.4680   71.4981  228.7577 H   0  0  0  0  0  0  0  0  0  0  0  0
  140.9708   72.8473  226.7063 H   0  0  0  0  0  0  0  0  0  0  0  0
  1  2  2  0
  2  3  1  0
  3  4  1  0
  4  5  1  0
  5  6  2  0
  5  7  1  0
  7  8  1  0
  8  9  1  0
  9 10  1  0
 10 11  1  0
 11 12  1  0
 12 13  1  0
 13 14  1  0
 14 15  2  0
 15 16  1  0
 16 17  2  0
 17 18  1  0
 17 19  1  0
 19 20  2  0
  2 21  1  0
 21 22  2  0
 22 23  1  0
 23 24  2  0
 24 25  1  0
 25 26  2  0
 26 27  1  0
 26 28  1  0
 28 29  2  0
 29 30  1  0
 30 31  2  0
 12  7  1  0
 20 14  1  0
 31 21  1  0
 30 24  1  0
  3 32  1  0
  4 33  1  0
  4 34  1  0
  8 35  1  0
  8 36  1  0
  9 37  1  0
  9 38  1  0
 10 39  1  0
 10 40  1  0
 11 41  1  0
 11 42  1  0
 12 43  1  1
 13 44  1  0
 13 45  1  0
 15 46  1  0
 16 47  1  0
 19 48  1  0
 20 49  1  0
 22 50  1  0
 23 51  1  0
 25 52  1  0
 28 53  1  0
 29 54  1  0
M  END
>  <smiles>  (31) 
O=C(NCC(=O)N1CCCC[C@H]1Cc1ccc(Cl)cc1)c1ccc2cc(F)ccc2n1

>  <score_type>  (31) 
oracle

>  <origin>  (31) 
autodockgpu

>  <m_score__min__energy>  (31) 
-9.2100000000000009

>  <m_primary>  (31) 
energy

>  <rmsd>  (31) 
2.282138825050362

>  <m_score__min__rmsd>  (31) 
2.282138825050362

>  <meeko>  (31) 
{"free_energy": -8.75, "intermolecular_energy": -10.54, "internal_energy": -1.94, "cluster_size": 39, "cluster_id": 1, "rank_in_cluster": 17}

>  <energy>  (31) 
-8.43

>  <cluster_rmsd>  (31) 
1.75

>  <cluster>  (31) 
1

$$$$

     RDKit          3D

 54 57  0  0  0  0  0  0  0  0999 V2000
  141.2150   71.5540  221.3720 O   0  0  0  0  0  0  0  0  0  0  0  0
  140.5680   71.9940  222.3470 C   0  0  0  0  0  0  0  0  0  0  0  0
  140.1260   73.3400  222.3010 N   0  0  0  0  0  0  0  0  0  0  0  0
  140.3910   74.2050  221.1890 C   0  0  0  0  0  0  0  0  0  0  0  0
  140.4490   75.6370  221.5830 C   0  0  0  0  0  0  0  0  0  0  0  0
  139.9600   75.9340  222.7020 O   0  0  0  0  0  0  0  0  0  0  0  0
  141.0380   76.5680  220.6920 N   0  0  0  0  0  0  0  0  0  0  0  0
  141.3480   76.1670  219.3080 C   0  0  0  0  0  0  0  0  0  0  0  0
  141.3190   77.4040  218.4830 C   0  0  0  0  0  0  0  0  0  0  0  0
  140.2870   78.4040  218.9080 C   0  0  0  0  0  0  0  0  0  0  0  0
  140.3560   78.8180  220.3390 C   0  0  0  0  0  0  0  0  0  0  0  0
  141.3780   77.9310  221.0360 C   0  0  1  0  0  0  0  0  0  0  0  0
  141.4830   78.2200  222.4910 C   0  0  0  0  0  0  0  0  0  0  0  0
  140.2930   79.0550  222.9000 C   0  0  0  0  0  0  0  0  0  0  0  0
  140.4850   80.4120  223.1160 C   0  0  0  0  0  0  0  0  0  0  0  0
  139.4370   81.2470  223.4970 C   0  0  0  0  0  0  0  0  0  0  0  0
  138.1810   80.6910  223.6590 C   0  0  0  0  0  0  0  0  0  0  0  0
  136.7980   81.6870  224.1420 Cl  0  0  0  0  0  0  0  0  0  0  0  0
  137.9900   79.3310  223.4420 C   0  0  0  0  0  0  0  0  0  0  0  0
  139.0400   78.5030  223.0620 C   0  0  0  0  0  0  0  0  0  0  0  0
  140.2550   71.1670  223.5280 C   0  0  0  0  0  0  0  0  0  0  0  0
  139.5700   69.9850  223.3760 C   0  0  0  0  0  0  0  0  0  0  0  0
  139.3100   69.2590  224.5230 C   0  0  0  0  0  0  0  0  0  0  0  0
  139.7090   69.6850  225.7710 C   0  0  0  0  0  0  0  0  0  0  0  0
  139.4640   68.9860  226.9310 C   0  0  0  0  0  0  0  0  0  0  0  0
  139.8900   69.4640  228.1620 C   0  0  0  0  0  0  0  0  0  0  0  0
  139.6570   68.7870  229.3060 F   0  0  0  0  0  0  0  0  0  0  0  0
  140.5770   70.6610  228.2630 C   0  0  0  0  0  0  0  0  0  0  0  0
  140.8320   71.3800  227.1010 C   0  0  0  0  0  0  0  0  0  0  0  0
  140.3980   70.8860  225.8800 C   0  0  0  0  0  0  0  0  0  0  0  0
  140.6420   71.5760  224.7540 N   0  0  0  0  0  0  0  0  0  0  0  0
  139.5780   73.6870  223.1440 H   0  0  0  0  0  0  0  0  0  0  0  0
  141.3565   73.9221  220.7443 H   0  0  0  0  0  0  0  0  0  0  0  0
  139.5656   74.0890  220.4712 H   0  0  0  0  0  0  0  0  0  0  0  0
  142.3453   75.7052  219.2624 H   0  0  0  0  0  0  0  0  0  0  0  0
  140.6192   75.4304  218.9389 H   0  0  0  0  0  0  0  0  0  0  0  0
  142.3078   77.8821  218.5439 H   0  0  0  0  0  0  0  0  0  0  0  0
  141.0562   77.0949  217.4606 H   0  0  0  0  0  0  0  0  0  0  0  0
  140.4089   79.3038  218.2871 H   0  0  0  0  0  0  0  0  0  0  0  0
  139.3124   77.9105  218.7795 H   0  0  0  0  0  0  0  0  0  0  0  0
  140.6664   79.8710  220.4085 H   0  0  0  0  0  0  0  0  0  0  0  0
  139.3702   78.7127  220.8155 H   0  0  0  0  0  0  0  0  0  0  0  0
  142.4022   78.1336  220.6897 H   0  0  0  0  0  0  0  0  0  0  0  0
  141.4871   77.2770  223.0574 H   0  0  0  0  0  0  0  0  0  0  0  0
  142.4157   78.7640  222.7012 H   0  0  0  0  0  0  0  0  0  0  0  0
  141.4899   80.8392  222.9831 H   0  0  0  0  0  0  0  0  0  0  0  0
  139.6042   82.3212  223.6647 H   0  0  0  0  0  0  0  0  0  0  0  0
  136.9862   78.9009  223.5739 H   0  0  0  0  0  0  0  0  0  0  0  0
  138.8744   77.4286  222.8939 H   0  0  0  0  0  0  0  0  0  0  0  0
  139.2436   69.6329  222.3863 H   0  0  0  0  0  0  0  0  0  0  0  0
  138.7652   68.3073  224.4364 H   0  0  0  0  0  0  0  0  0  0  0  0
  138.9205   68.0309  226.8813 H   0  0  0  0  0  0  0  0  0  0  0  0
  140.9138   71.0352  229.2410 H   0  0  0  0  0  0  0  0  0  0  0  0
  141.3750   72.3354  227.1497 H   0  0  0  0  0  0  0  0  0  0  0  0
  1  2  2  0
  2  3  1  0
  3  4  1  0
  4  5  1  0
  5  6  2  0
  5  7  1  0
  7  8  1  0
  8  9  1  0
  9 10  1  0
 10 11  1  0
 11 12  1  0
 12 13  1  0
 13 14  1  0
 14 15  2  0
 15 16  1  0
 16 17  2  0
 17 18  1  0
 17 19  1  0
 19 20  2  0
  2 21  1  0
 21 22  2  0
 22 23  1  0
 23 24  2  0
 24 25  1  0
 25 26  2  0
 26 27  1  0
 26 28  1  0
 28 29  2  0
 29 30  1  0
 30 31  2  0
 12  7  1  0
 20 14  1  0
 31 21  1  0
 30 24  1  0
  3 32  1  0
  4 33  1  0
  4 34  1  0
  8 35  1  0
  8 36  1  0
  9 37  1  0
  9 38  1  0
 10 39  1  0
 10 40  1  0
 11 41  1  0
 11 42  1  0
 12 43  1  6
 13 44  1  0
 13 45  1  0
 15 46  1  0
 16 47  1  0
 19 48  1  0
 20 49  1  0
 22 50  1  0
 23 51  1  0
 25 52  1  0
 28 53  1  0
 29 54  1  0
M  END
>  <smiles>  (32) 
O=C(NCC(=O)N1CCCC[C@H]1Cc1ccc(Cl)cc1)c1ccc2cc(F)ccc2n1

>  <score_type>  (32) 
oracle

>  <origin>  (32) 
autodockgpu

>  <m_score__min__energy>  (32) 
-9.2100000000000009

>  <m_primary>  (32) 
energy

>  <rmsd>  (32) 
2.20344177111822

>  <m_score__min__rmsd>  (32) 
2.20344177111822

>  <meeko>  (32) 
{"free_energy": -8.23, "intermolecular_energy": -10.01, "internal_energy": -1.67, "cluster_size": 1, "cluster_id": 2, "rank_in_cluster": 1}

>  <energy>  (32) 
-8.41

>  <cluster_rmsd>  (32) 
0.87

>  <cluster>  (32) 
1

$$$$

     RDKit          3D

 54 57  0  0  0  0  0  0  0  0999 V2000
  138.3040   72.0070  222.5170 O   0  0  0  0  0  0  0  0  0  0  0  0
  139.4040   71.4740  222.7850 C   0  0  0  0  0  0  0  0  0  0  0  0
  140.5120   71.7820  221.9570 N   0  0  0  0  0  0  0  0  0  0  0  0
  140.4190   72.6720  220.8370 C   0  0  0  0  0  0  0  0  0  0  0  0
  140.6850   74.0860  221.2100 C   0  0  0  0  0  0  0  0  0  0  0  0
  139.8170   74.6530  221.9200 O   0  0  0  0  0  0  0  0  0  0  0  0
  141.8760   74.7020  220.7520 N   0  0  0  0  0  0  0  0  0  0  0  0
  143.1570   73.9800  220.8380 C   0  0  0  0  0  0  0  0  0  0  0  0
  144.0340   74.5260  219.7670 C   0  0  0  0  0  0  0  0  0  0  0  0
  143.3090   74.9020  218.5110 C   0  0  0  0  0  0  0  0  0  0  0  0
  142.1740   75.8520  218.6930 C   0  0  0  0  0  0  0  0  0  0  0  0
  141.9460   76.0310  220.1880 C   0  0  1  0  0  0  0  0  0  0  0  0
  140.7910   76.9180  220.4840 C   0  0  0  0  0  0  0  0  0  0  0  0
  141.2650   78.0440  221.3720 C   0  0  0  0  0  0  0  0  0  0  0  0
  141.1590   77.8860  222.7460 C   0  0  0  0  0  0  0  0  0  0  0  0
  141.5740   78.8800  223.6300 C   0  0  0  0  0  0  0  0  0  0  0  0
  142.1030   80.0460  223.1060 C   0  0  0  0  0  0  0  0  0  0  0  0
  142.6530   81.3550  224.1630 Cl  0  0  0  0  0  0  0  0  0  0  0  0
  142.2090   80.2010  221.7270 C   0  0  0  0  0  0  0  0  0  0  0  0
  141.7930   79.2060  220.8510 C   0  0  0  0  0  0  0  0  0  0  0  0
  139.5800   70.5480  223.9200 C   0  0  0  0  0  0  0  0  0  0  0  0
  139.1150   69.2570  223.8310 C   0  0  0  0  0  0  0  0  0  0  0  0
  139.3130   68.4420  224.9290 C   0  0  0  0  0  0  0  0  0  0  0  0
  139.9430   68.8850  226.0720 C   0  0  0  0  0  0  0  0  0  0  0  0
  140.1540   68.1000  227.1820 C   0  0  0  0  0  0  0  0  0  0  0  0
  140.7950   68.6000  228.3050 C   0  0  0  0  0  0  0  0  0  0  0  0
  141.0080   67.8380  229.3990 F   0  0  0  0  0  0  0  0  0  0  0  0
  141.2450   69.9080  228.3470 C   0  0  0  0  0  0  0  0  0  0  0  0
  141.0400   70.7150  227.2340 C   0  0  0  0  0  0  0  0  0  0  0  0
  140.3970   70.1980  226.1200 C   0  0  0  0  0  0  0  0  0  0  0  0
  140.1960   70.9730  225.0420 N   0  0  0  0  0  0  0  0  0  0  0  0
  141.4340   71.3150  222.2090 H   0  0  0  0  0  0  0  0  0  0  0  0
  141.1537   72.3630  220.0789 H   0  0  0  0  0  0  0  0  0  0  0  0
  139.3908   72.6161  220.4502 H   0  0  0  0  0  0  0  0  0  0  0  0
  143.6175   74.1428  221.8236 H   0  0  0  0  0  0  0  0  0  0  0  0
  143.0080   72.8976  220.7110 H   0  0  0  0  0  0  0  0  0  0  0  0
  144.5366   75.4234  220.1569 H   0  0  0  0  0  0  0  0  0  0  0  0
  144.7388   73.7257  219.4973 H   0  0  0  0  0  0  0  0  0  0  0  0
  144.0338   75.3652  217.8254 H   0  0  0  0  0  0  0  0  0  0  0  0
  142.8690   73.9717  218.1225 H   0  0  0  0  0  0  0  0  0  0  0  0
  142.4208   76.8209  218.2343 H   0  0  0  0  0  0  0  0  0  0  0  0
  141.2659   75.4595  218.2120 H   0  0  0  0  0  0  0  0  0  0  0  0
  142.7749   76.5708  220.6692 H   0  0  0  0  0  0  0  0  0  0  0  0
  140.3894   77.3293  219.5461 H   0  0  0  0  0  0  0  0  0  0  0  0
  139.9984   76.3475  220.9904 H   0  0  0  0  0  0  0  0  0  0  0  0
  140.7369   76.9530  223.1477 H   0  0  0  0  0  0  0  0  0  0  0  0
  141.4833   78.7410  224.7174 H   0  0  0  0  0  0  0  0  0  0  0  0
  142.6316   81.1321  221.3215 H   0  0  0  0  0  0  0  0  0  0  0  0
  141.8832   79.3427  219.7633 H   0  0  0  0  0  0  0  0  0  0  0  0
  138.6082   68.8897  222.9264 H   0  0  0  0  0  0  0  0  0  0  0  0
  138.9551   67.4026  224.8895 H   0  0  0  0  0  0  0  0  0  0  0  0
  139.8076   67.0560  227.1784 H   0  0  0  0  0  0  0  0  0  0  0  0
  141.7531   70.2999  229.2404 H   0  0  0  0  0  0  0  0  0  0  0  0
  141.3864   71.7590  227.2371 H   0  0  0  0  0  0  0  0  0  0  0  0
  1  2  2  0
  2  3  1  0
  3  4  1  0
  4  5  1  0
  5  6  2  0
  5  7  1  0
  7  8  1  0
  8  9  1  0
  9 10  1  0
 10 11  1  0
 11 12  1  0
 12 13  1  0
 13 14  1  0
 14 15  2  0
 15 16  1  0
 16 17  2  0
 17 18  1  0
 17 19  1  0
 19 20  2  0
  2 21  1  0
 21 22  2  0
 22 23  1  0
 23 24  2  0
 24 25  1  0
 25 26  2  0
 26 27  1  0
 26 28  1  0
 28 29  2  0
 29 30  1  0
 30 31  2  0
 12  7  1  0
 20 14  1  0
 31 21  1  0
 30 24  1  0
  3 32  1  0
  4 33  1  0
  4 34  1  0
  8 35  1  0
  8 36  1  0
  9 37  1  0
  9 38  1  0
 10 39  1  0
 10 40  1  0
 11 41  1  0
 11 42  1  0
 12 43  1  1
 13 44  1  0
 13 45  1  0
 15 46  1  0
 16 47  1  0
 19 48  1  0
 20 49  1  0
 22 50  1  0
 23 51  1  0
 25 52  1  0
 28 53  1  0
 29 54  1  0
M  END
>  <smiles>  (33) 
O=C(NCC(=O)N1CCCC[C@H]1Cc1ccc(Cl)cc1)c1ccc2cc(F)ccc2n1

>  <score_type>  (33) 
oracle

>  <origin>  (33) 
autodockgpu

>  <m_score__min__energy>  (33) 
-9.2100000000000009

>  <m_primary>  (33) 
energy

>  <rmsd>  (33) 
2.4749816436833934

>  <m_score__min__rmsd>  (33) 
2.4749816436833934

>  <meeko>  (33) 
{"free_energy": -9.21, "intermolecular_energy": -11.0, "internal_energy": -1.39, "cluster_size": 39, "cluster_id": 1, "rank_in_cluster": 1}

>  <energy>  (33) 
-8.4

>  <cluster_rmsd>  (33) 
1.52

>  <cluster>  (33) 
1

$$$$

     RDKit          3D

 54 57  0  0  0  0  0  0  0  0999 V2000
  138.6180   70.8030  221.2910 O   0  0  0  0  0  0  0  0  0  0  0  0
  139.0220   71.2760  222.3760 C   0  0  0  0  0  0  0  0  0  0  0  0
  139.2300   72.6750  222.4570 N   0  0  0  0  0  0  0  0  0  0  0  0
  138.9960   73.5580  221.3530 C   0  0  0  0  0  0  0  0  0  0  0  0
  139.0940   74.9900  221.7380 C   0  0  0  0  0  0  0  0  0  0  0  0
  139.8350   75.2610  222.7150 O   0  0  0  0  0  0  0  0  0  0  0  0
  138.3590   75.9500  220.9980 N   0  0  0  0  0  0  0  0  0  0  0  0
  136.9230   75.7370  220.7400 C   0  0  0  0  0  0  0  0  0  0  0  0
  136.3120   77.0810  220.5620 C   0  0  0  0  0  0  0  0  0  0  0  0
  136.9100   78.1490  221.4270 C   0  0  0  0  0  0  0  0  0  0  0  0
  138.3890   78.3060  221.3100 C   0  0  0  0  0  0  0  0  0  0  0  0
  138.9160   77.1660  220.4500 C   0  0  1  0  0  0  0  0  0  0  0  0
  140.3970   77.1920  220.3170 C   0  0  0  0  0  0  0  0  0  0  0  0
  140.9500   78.1790  221.3170 C   0  0  0  0  0  0  0  0  0  0  0  0
  141.3170   79.4380  220.8650 C   0  0  0  0  0  0  0  0  0  0  0  0
  141.8360   80.4020  221.7260 C   0  0  0  0  0  0  0  0  0  0  0  0
  141.9820   80.0770  223.0630 C   0  0  0  0  0  0  0  0  0  0  0  0
  142.6340   81.2480  224.2210 Cl  0  0  0  0  0  0  0  0  0  0  0  0
  141.6130   78.8140  223.5150 C   0  0  0  0  0  0  0  0  0  0  0  0
  141.0960   77.8580  222.6500 C   0  0  0  0  0  0  0  0  0  0  0  0
  139.2860   70.4330  223.5580 C   0  0  0  0  0  0  0  0  0  0  0  0
  138.9230   69.1070  223.5500 C   0  0  0  0  0  0  0  0  0  0  0  0
  139.2000   68.3750  224.6890 C   0  0  0  0  0  0  0  0  0  0  0  0
  139.8090   68.9300  225.7930 C   0  0  0  0  0  0  0  0  0  0  0  0
  140.0970   68.2290  226.9410 C   0  0  0  0  0  0  0  0  0  0  0  0
  140.7120   68.8410  228.0230 C   0  0  0  0  0  0  0  0  0  0  0  0
  140.9990   68.1620  229.1540 F   0  0  0  0  0  0  0  0  0  0  0  0
  141.0580   70.1800  227.9830 C   0  0  0  0  0  0  0  0  0  0  0  0
  140.7750   70.9030  226.8300 C   0  0  0  0  0  0  0  0  0  0  0  0
  140.1590   70.2740  225.7590 C   0  0  0  0  0  0  0  0  0  0  0  0
  139.8830   70.9690  224.6430 N   0  0  0  0  0  0  0  0  0  0  0  0
  139.5730   73.0490  223.3920 H   0  0  0  0  0  0  0  0  0  0  0  0
  139.7421   73.3511  220.5717 H   0  0  0  0  0  0  0  0  0  0  0  0
  137.9723   73.3783  220.9929 H   0  0  0  0  0  0  0  0  0  0  0  0
  136.7875   75.1362  219.8286 H   0  0  0  0  0  0  0  0  0  0  0  0
  136.4494   75.1964  221.5727 H   0  0  0  0  0  0  0  0  0  0  0  0
  136.4360   77.3795  219.5106 H   0  0  0  0  0  0  0  0  0  0  0  0
  135.2566   76.9894  220.8583 H   0  0  0  0  0  0  0  0  0  0  0  0
  136.4434   79.1076  221.1560 H   0  0  0  0  0  0  0  0  0  0  0  0
  136.7162   77.8447  222.4662 H   0  0  0  0  0  0  0  0  0  0  0  0
  138.6259   79.2706  220.8373 H   0  0  0  0  0  0  0  0  0  0  0  0
  138.8560   78.2813  222.3056 H   0  0  0  0  0  0  0  0  0  0  0  0
  138.5922   77.2577  219.4027 H   0  0  0  0  0  0  0  0  0  0  0  0
  140.8054   76.1908  220.5189 H   0  0  0  0  0  0  0  0  0  0  0  0
  140.6788   77.4910  219.2966 H   0  0  0  0  0  0  0  0  0  0  0  0
  141.1950   79.6813  219.7992 H   0  0  0  0  0  0  0  0  0  0  0  0
  142.1225   81.3962  221.3526 H   0  0  0  0  0  0  0  0  0  0  0  0
  141.7333   78.5672  224.5802 H   0  0  0  0  0  0  0  0  0  0  0  0
  140.8084   76.8634  223.0215 H   0  0  0  0  0  0  0  0  0  0  0  0
  138.4345   68.6496  222.6770 H   0  0  0  0  0  0  0  0  0  0  0  0
  138.9241   67.3105  224.7150 H   0  0  0  0  0  0  0  0  0  0  0  0
  139.8345   67.1625  227.0020 H   0  0  0  0  0  0  0  0  0  0  0  0
  141.5457   70.6612  228.8436 H   0  0  0  0  0  0  0  0  0  0  0  0
  141.0385   71.9691  226.7676 H   0  0  0  0  0  0  0  0  0  0  0  0
  1  2  2  0
  2  3  1  0
  3  4  1  0
  4  5  1  0
  5  6  2  0
  5  7  1  0
  7  8  1  0
  8  9  1  0
  9 10  1  0
 10 11  1  0
 11 12  1  0
 12 13  1  0
 13 14  1  0
 14 15  2  0
 15 16  1  0
 16 17  2  0
 17 18  1  0
 17 19  1  0
 19 20  2  0
  2 21  1  0
 21 22  2  0
 22 23  1  0
 23 24  2  0
 24 25  1  0
 25 26  2  0
 26 27  1  0
 26 28  1  0
 28 29  2  0
 29 30  1  0
 30 31  2  0
 12  7  1  0
 20 14  1  0
 31 21  1  0
 30 24  1  0
  3 32  1  0
  4 33  1  0
  4 34  1  0
  8 35  1  0
  8 36  1  0
  9 37  1  0
  9 38  1  0
 10 39  1  0
 10 40  1  0
 11 41  1  0
 11 42  1  0
 12 43  1  6
 13 44  1  0
 13 45  1  0
 15 46  1  0
 16 47  1  0
 19 48  1  0
 20 49  1  0
 22 50  1  0
 23 51  1  0
 25 52  1  0
 28 53  1  0
 29 54  1  0
M  END
>  <smiles>  (34) 
O=C(NCC(=O)N1CCCC[C@H]1Cc1ccc(Cl)cc1)c1ccc2cc(F)ccc2n1

>  <score_type>  (34) 
oracle

>  <origin>  (34) 
autodockgpu

>  <m_score__min__energy>  (34) 
-9.2100000000000009

>  <m_primary>  (34) 
energy

>  <rmsd>  (34) 
2.1868037376152913

>  <m_score__min__rmsd>  (34) 
2.1868037376152913

>  <meeko>  (34) 
{"free_energy": -8.3, "intermolecular_energy": -10.09, "internal_energy": -2.08, "cluster_size": 39, "cluster_id": 1, "rank_in_cluster": 36}

>  <energy>  (34) 
-8.33

>  <cluster_rmsd>  (34) 
1.52

>  <cluster>  (34) 
1

$$$$

     RDKit          3D

 54 57  0  0  0  0  0  0  0  0999 V2000
  140.8340   71.3890  221.7040 O   0  0  0  0  0  0  0  0  0  0  0  0
  139.9710   71.5190  222.6000 C   0  0  0  0  0  0  0  0  0  0  0  0
  139.0220   72.5620  222.4660 N   0  0  0  0  0  0  0  0  0  0  0  0
  139.0140   73.4640  221.3520 C   0  0  0  0  0  0  0  0  0  0  0  0
  139.5850   74.7930  221.6910 C   0  0  0  0  0  0  0  0  0  0  0  0
  138.9590   75.4750  222.5410 O   0  0  0  0  0  0  0  0  0  0  0  0
  140.7770   75.2100  221.0490 N   0  0  0  0  0  0  0  0  0  0  0  0
  141.9570   74.3270  221.0440 C   0  0  0  0  0  0  0  0  0  0  0  0
  142.7540   74.6760  219.8380 C   0  0  0  0  0  0  0  0  0  0  0  0
  141.9310   75.0640  218.6480 C   0  0  0  0  0  0  0  0  0  0  0  0
  140.9580   76.1700  218.8810 C   0  0  0  0  0  0  0  0  0  0  0  0
  140.9450   76.4770  220.3730 C   0  0  1  0  0  0  0  0  0  0  0  0
  139.9580   77.5310  220.7270 C   0  0  0  0  0  0  0  0  0  0  0  0
  140.6390   78.5460  221.6150 C   0  0  0  0  0  0  0  0  0  0  0  0
  139.8690   79.2230  222.5490 C   0  0  0  0  0  0  0  0  0  0  0  0
  140.4240   80.1740  223.4020 C   0  0  0  0  0  0  0  0  0  0  0  0
  141.7780   80.4360  223.3010 C   0  0  0  0  0  0  0  0  0  0  0  0
  142.5580   81.6310  224.3500 Cl  0  0  0  0  0  0  0  0  0  0  0  0
  142.5490   79.7550  222.3640 C   0  0  0  0  0  0  0  0  0  0  0  0
  141.9890   78.8080  221.5160 C   0  0  0  0  0  0  0  0  0  0  0  0
  139.9140   70.6320  223.7780 C   0  0  0  0  0  0  0  0  0  0  0  0
  139.2820   69.4140  223.6890 C   0  0  0  0  0  0  0  0  0  0  0  0
  139.2650   68.6320  224.8290 C   0  0  0  0  0  0  0  0  0  0  0  0
  139.8470   69.0380  226.0100 C   0  0  0  0  0  0  0  0  0  0  0  0
  139.8450   68.2850  227.1620 C   0  0  0  0  0  0  0  0  0  0  0  0
  140.4480   68.7450  228.3230 C   0  0  0  0  0  0  0  0  0  0  0  0
  140.4530   68.0140  229.4580 F   0  0  0  0  0  0  0  0  0  0  0  0
  141.0710   69.9800  228.3630 C   0  0  0  0  0  0  0  0  0  0  0  0
  141.0810   70.7540  227.2080 C   0  0  0  0  0  0  0  0  0  0  0  0
  140.4740   70.2770  226.0560 C   0  0  0  0  0  0  0  0  0  0  0  0
  140.4810   71.0210  224.9380 N   0  0  0  0  0  0  0  0  0  0  0  0
  138.3010   72.6480  223.2430 H   0  0  0  0  0  0  0  0  0  0  0  0
  139.6067   73.0230  220.5370 H   0  0  0  0  0  0  0  0  0  0  0  0
  137.9663   73.6169  221.0537 H   0  0  0  0  0  0  0  0  0  0  0  0
  142.5551   74.4901  221.9527 H   0  0  0  0  0  0  0  0  0  0  0  0
  141.6564   73.2691  221.0241 H   0  0  0  0  0  0  0  0  0  0  0  0
  143.4121   75.5200  220.0920 H   0  0  0  0  0  0  0  0  0  0  0  0
  143.3110   73.7707  219.5549 H   0  0  0  0  0  0  0  0  0  0  0  0
  142.6172   75.3777  217.8476 H   0  0  0  0  0  0  0  0  0  0  0  0
  141.3306   74.1789  218.3910 H   0  0  0  0  0  0  0  0  0  0  0  0
  141.2664   77.0635  218.3184 H   0  0  0  0  0  0  0  0  0  0  0  0
  139.9541   75.8743  218.5423 H   0  0  0  0  0  0  0  0  0  0  0  0
  141.8901   76.9289  220.7084 H   0  0  0  0  0  0  0  0  0  0  0  0
  139.5954   78.0223  219.8120 H   0  0  0  0  0  0  0  0  0  0  0  0
  139.1015   77.0842  221.2530 H   0  0  0  0  0  0  0  0  0  0  0  0
  138.7933   79.0034  222.6178 H   0  0  0  0  0  0  0  0  0  0  0  0
  139.8007   80.7035  224.1377 H   0  0  0  0  0  0  0  0  0  0  0  0
  143.6252   79.9712  222.2933 H   0  0  0  0  0  0  0  0  0  0  0  0
  142.6106   78.2774  220.7797 H   0  0  0  0  0  0  0  0  0  0  0  0
  138.8114   69.0772  222.7535 H   0  0  0  0  0  0  0  0  0  0  0  0
  138.7692   67.6508  224.7918 H   0  0  0  0  0  0  0  0  0  0  0  0
  139.3559   67.2997  227.1618 H   0  0  0  0  0  0  0  0  0  0  0  0
  141.5470   70.3408  229.2867 H   0  0  0  0  0  0  0  0  0  0  0  0
  141.5682   71.7402  227.2080 H   0  0  0  0  0  0  0  0  0  0  0  0
  1  2  2  0
  2  3  1  0
  3  4  1  0
  4  5  1  0
  5  6  2  0
  5  7  1  0
  7  8  1  0
  8  9  1  0
  9 10  1  0
 10 11  1  0
 11 12  1  0
 12 13  1  0
 13 14  1  0
 14 15  2  0
 15 16  1  0
 16 17  2  0
 17 18  1  0
 17 19  1  0
 19 20  2  0
  2 21  1  0
 21 22  2  0
 22 23  1  0
 23 24  2  0
 24 25  1  0
 25 26  2  0
 26 27  1  0
 26 28  1  0
 28 29  2  0
 29 30  1  0
 30 31  2  0
 12  7  1  0
 20 14  1  0
 31 21  1  0
 30 24  1  0
  3 32  1  0
  4 33  1  0
  4 34  1  0
  8 35  1  0
  8 36  1  0
  9 37  1  0
  9 38  1  0
 10 39  1  0
 10 40  1  0
 11 41  1  0
 11 42  1  0
 12 43  1  1
 13 44  1  0
 13 45  1  0
 15 46  1  0
 16 47  1  0
 19 48  1  0
 20 49  1  0
 22 50  1  0
 23 51  1  0
 25 52  1  0
 28 53  1  0
 29 54  1  0
M  END
>  <smiles>  (35) 
O=C(NCC(=O)N1CCCC[C@H]1Cc1ccc(Cl)cc1)c1ccc2cc(F)ccc2n1

>  <score_type>  (35) 
oracle

>  <origin>  (35) 
autodockgpu

>  <m_score__min__energy>  (35) 
-9.2100000000000009

>  <m_primary>  (35) 
energy

>  <rmsd>  (35) 
2.0031861622037384

>  <m_score__min__rmsd>  (35) 
2.0031861622037384

>  <meeko>  (35) 
{"free_energy": -8.54, "intermolecular_energy": -10.33, "internal_energy": -1.59, "cluster_size": 39, "cluster_id": 1, "rank_in_cluster": 25}

>  <energy>  (35) 
-8.31

>  <cluster_rmsd>  (35) 
1.17

>  <cluster>  (35) 
1

$$$$

     RDKit          3D

 54 57  0  0  0  0  0  0  0  0999 V2000
  133.4800   70.1000  226.4840 O   0  0  0  0  0  0  0  0  0  0  0  0
  133.6540   71.2380  225.9940 C   0  0  0  0  0  0  0  0  0  0  0  0
  134.4600   71.3480  224.8330 N   0  0  0  0  0  0  0  0  0  0  0  0
  135.0740   70.2140  224.2070 C   0  0  0  0  0  0  0  0  0  0  0  0
  136.2690   70.5850  223.4050 C   0  0  0  0  0  0  0  0  0  0  0  0
  136.3620   71.7880  223.0560 O   0  0  0  0  0  0  0  0  0  0  0  0
  137.2160   69.5810  223.0830 N   0  0  0  0  0  0  0  0  0  0  0  0
  136.7630   68.2950  222.5240 C   0  0  0  0  0  0  0  0  0  0  0  0
  137.8890   67.7520  221.7190 C   0  0  0  0  0  0  0  0  0  0  0  0
  138.6950   68.7950  221.0070 C   0  0  0  0  0  0  0  0  0  0  0  0
  139.2420   69.8780  221.8750 C   0  0  0  0  0  0  0  0  0  0  0  0
  138.6440   69.7120  223.2660 C   0  0  1  0  0  0  0  0  0  0  0  0
  139.0780   70.7820  224.2020 C   0  0  0  0  0  0  0  0  0  0  0  0
  139.6700   70.1330  225.4300 C   0  0  0  0  0  0  0  0  0  0  0  0
  139.5040   68.7670  225.5970 C   0  0  0  0  0  0  0  0  0  0  0  0
  140.0200   68.0970  226.7040 C   0  0  0  0  0  0  0  0  0  0  0  0
  140.7120   68.8300  227.6510 C   0  0  0  0  0  0  0  0  0  0  0  0
  141.3990   68.0520  229.0860 Cl  0  0  0  0  0  0  0  0  0  0  0  0
  140.8790   70.2010  227.4820 C   0  0  0  0  0  0  0  0  0  0  0  0
  140.3610   70.8630  226.3750 C   0  0  0  0  0  0  0  0  0  0  0  0
  133.0570   72.4530  226.5800 C   0  0  0  0  0  0  0  0  0  0  0  0
  131.8840   72.3650  227.2940 C   0  0  0  0  0  0  0  0  0  0  0  0
  131.3790   73.5410  227.8160 C   0  0  0  0  0  0  0  0  0  0  0  0
  132.0060   74.7550  227.6390 C   0  0  0  0  0  0  0  0  0  0  0  0
  131.5280   75.9430  228.1450 C   0  0  0  0  0  0  0  0  0  0  0  0
  132.2020   77.1370  227.9350 C   0  0  0  0  0  0  0  0  0  0  0  0
  131.7430   78.3070  228.4270 F   0  0  0  0  0  0  0  0  0  0  0  0
  133.3790   77.1730  227.2090 C   0  0  0  0  0  0  0  0  0  0  0  0
  133.8760   75.9820  226.6910 C   0  0  0  0  0  0  0  0  0  0  0  0
  133.1880   74.7990  226.9110 C   0  0  0  0  0  0  0  0  0  0  0  0
  133.6640   73.6460  226.4120 N   0  0  0  0  0  0  0  0  0  0  0  0
  134.5900   72.3270  224.4390 H   0  0  0  0  0  0  0  0  0  0  0  0
  135.3802   69.5026  224.9881 H   0  0  0  0  0  0  0  0  0  0  0  0
  134.3365   69.7698  223.5224 H   0  0  0  0  0  0  0  0  0  0  0  0
  136.5086   67.5983  223.3363 H   0  0  0  0  0  0  0  0  0  0  0  0
  135.8652   68.4306  221.9031 H   0  0  0  0  0  0  0  0  0  0  0  0
  138.5595   67.1988  222.3931 H   0  0  0  0  0  0  0  0  0  0  0  0
  137.4428   67.1133  220.9425 H   0  0  0  0  0  0  0  0  0  0  0  0
  139.5413   68.2936  220.5147 H   0  0  0  0  0  0  0  0  0  0  0  0
  138.0057   69.2861  220.3044 H   0  0  0  0  0  0  0  0  0  0  0  0
  140.3378   69.7970  221.9274 H   0  0  0  0  0  0  0  0  0  0  0  0
  138.9847   70.8650  221.4632 H   0  0  0  0  0  0  0  0  0  0  0  0
  139.0157   68.8070  223.7688 H   0  0  0  0  0  0  0  0  0  0  0  0
  139.8344   71.4158  223.7160 H   0  0  0  0  0  0  0  0  0  0  0  0
  138.2184   71.4079  224.4837 H   0  0  0  0  0  0  0  0  0  0  0  0
  138.9506   68.1974  224.8359 H   0  0  0  0  0  0  0  0  0  0  0  0
  139.8806   67.0123  226.8220 H   0  0  0  0  0  0  0  0  0  0  0  0
  141.4329   70.7733  228.2408 H   0  0  0  0  0  0  0  0  0  0  0  0
  140.4993   71.9476  226.2548 H   0  0  0  0  0  0  0  0  0  0  0  0
  131.3717   71.4030  227.4425 H   0  0  0  0  0  0  0  0  0  0  0  0
  130.4433   73.5064  228.3932 H   0  0  0  0  0  0  0  0  0  0  0  0
  130.5943   75.9453  228.7266 H   0  0  0  0  0  0  0  0  0  0  0  0
  133.9098   78.1224  227.0451 H   0  0  0  0  0  0  0  0  0  0  0  0
  134.8100   75.9788  226.1099 H   0  0  0  0  0  0  0  0  0  0  0  0
  1  2  2  0
  2  3  1  0
  3  4  1  0
  4  5  1  0
  5  6  2  0
  5  7  1  0
  7  8  1  0
  8  9  1  0
  9 10  1  0
 10 11  1  0
 11 12  1  0
 12 13  1  0
 13 14  1  0
 14 15  2  0
 15 16  1  0
 16 17  2  0
 17 18  1  0
 17 19  1  0
 19 20  2  0
  2 21  1  0
 21 22  2  0
 22 23  1  0
 23 24  2  0
 24 25  1  0
 25 26  2  0
 26 27  1  0
 26 28  1  0
 28 29  2  0
 29 30  1  0
 30 31  2  0
 12  7  1  0
 20 14  1  0
 31 21  1  0
 30 24  1  0
  3 32  1  0
  4 33  1  0
  4 34  1  0
  8 35  1  0
  8 36  1  0
  9 37  1  0
  9 38  1  0
 10 39  1  0
 10 40  1  0
 11 41  1  0
 11 42  1  0
 12 43  1  1
 13 44  1  0
 13 45  1  0
 15 46  1  0
 16 47  1  0
 19 48  1  0
 20 49  1  0
 22 50  1  0
 23 51  1  0
 25 52  1  0
 28 53  1  0
 29 54  1  0
M  END
>  <smiles>  (36) 
O=C(NCC(=O)N1CCCC[C@H]1Cc1ccc(Cl)cc1)c1ccc2cc(F)ccc2n1

>  <score_type>  (36) 
oracle

>  <origin>  (36) 
autodockgpu

>  <m_score__min__energy>  (36) 
-9.2100000000000009

>  <m_primary>  (36) 
energy

>  <rmsd>  (36) 
8.668353446070263

>  <m_score__min__rmsd>  (36) 
8.668353446070263

>  <meeko>  (36) 
{"free_energy": -8.06, "intermolecular_energy": -9.85, "internal_energy": -2.12, "cluster_size": 2, "cluster_id": 3, "rank_in_cluster": 2}

>  <energy>  (36) 
-8.3

>  <cluster_rmsd>  (36) 
1.81

>  <cluster>  (36) 
1

$$$$

     RDKit          3D

 54 57  0  0  0  0  0  0  0  0999 V2000
  138.4530   71.2190  221.2800 O   0  0  0  0  0  0  0  0  0  0  0  0
  138.9380   71.7310  222.3130 C   0  0  0  0  0  0  0  0  0  0  0  0
  139.1270   73.1350  222.3360 N   0  0  0  0  0  0  0  0  0  0  0  0
  138.7840   73.9810  221.2310 C   0  0  0  0  0  0  0  0  0  0  0  0
  139.8480   74.0210  220.1940 C   0  0  0  0  0  0  0  0  0  0  0  0
  139.4990   73.7450  219.0180 O   0  0  0  0  0  0  0  0  0  0  0  0
  141.1680   74.3590  220.5810 N   0  0  0  0  0  0  0  0  0  0  0  0
  142.0980   73.3040  221.0210 C   0  0  0  0  0  0  0  0  0  0  0  0
  143.4740   73.7920  220.7340 C   0  0  0  0  0  0  0  0  0  0  0  0
  143.5880   74.6120  219.4860 C   0  0  0  0  0  0  0  0  0  0  0  0
  142.6680   75.7830  219.4080 C   0  0  0  0  0  0  0  0  0  0  0  0
  141.7030   75.7020  220.5840 C   0  0  1  0  0  0  0  0  0  0  0  0
  140.6970   76.7960  220.5700 C   0  0  0  0  0  0  0  0  0  0  0  0
  141.1660   77.8910  221.4990 C   0  0  0  0  0  0  0  0  0  0  0  0
  141.6840   79.0490  220.9390 C   0  0  0  0  0  0  0  0  0  0  0  0
  142.1380   80.1030  221.7300 C   0  0  0  0  0  0  0  0  0  0  0  0
  142.0620   79.9720  223.1050 C   0  0  0  0  0  0  0  0  0  0  0  0
  142.6190   81.2660  224.1780 Cl  0  0  0  0  0  0  0  0  0  0  0  0
  141.5420   78.8090  223.6640 C   0  0  0  0  0  0  0  0  0  0  0  0
  141.0900   77.7620  222.8690 C   0  0  0  0  0  0  0  0  0  0  0  0
  139.3160   70.9280  223.4920 C   0  0  0  0  0  0  0  0  0  0  0  0
  139.1330   69.5650  223.4820 C   0  0  0  0  0  0  0  0  0  0  0  0
  139.5090   68.8740  224.6180 C   0  0  0  0  0  0  0  0  0  0  0  0
  140.0430   69.5030  225.7210 C   0  0  0  0  0  0  0  0  0  0  0  0
  140.4260   68.8440  226.8670 C   0  0  0  0  0  0  0  0  0  0  0  0
  140.9590   69.5300  227.9480 C   0  0  0  0  0  0  0  0  0  0  0  0
  141.3380   68.8940  229.0760 F   0  0  0  0  0  0  0  0  0  0  0  0
  141.1240   70.9030  227.9100 C   0  0  0  0  0  0  0  0  0  0  0  0
  140.7420   71.5850  226.7590 C   0  0  0  0  0  0  0  0  0  0  0  0
  140.2110   70.8820  225.6890 C   0  0  0  0  0  0  0  0  0  0  0  0
  139.8410   71.5360  224.5760 N   0  0  0  0  0  0  0  0  0  0  0  0
  139.5410   73.5420  223.2270 H   0  0  0  0  0  0  0  0  0  0  0  0
  137.8580   73.6042  220.7722 H   0  0  0  0  0  0  0  0  0  0  0  0
  138.6562   75.0024  221.6187 H   0  0  0  0  0  0  0  0  0  0  0  0
  141.9791   73.1207  222.0991 H   0  0  0  0  0  0  0  0  0  0  0  0
  141.8981   72.3590  220.4947 H   0  0  0  0  0  0  0  0  0  0  0  0
  143.8053   74.4082  221.5828 H   0  0  0  0  0  0  0  0  0  0  0  0
  144.1002   72.9002  220.5839 H   0  0  0  0  0  0  0  0  0  0  0  0
  144.6204   74.9855  219.4176 H   0  0  0  0  0  0  0  0  0  0  0  0
  143.3050   73.9464  218.6572 H   0  0  0  0  0  0  0  0  0  0  0  0
  143.2467   76.7168  219.4635 H   0  0  0  0  0  0  0  0  0  0  0  0
  142.1143   75.7716  218.4576 H   0  0  0  0  0  0  0  0  0  0  0  0
  142.2102   75.8734  221.5449 H   0  0  0  0  0  0  0  0  0  0  0  0
  140.5955   77.1936  219.5494 H   0  0  0  0  0  0  0  0  0  0  0  0
  139.7202   76.4137  220.9012 H   0  0  0  0  0  0  0  0  0  0  0  0
  141.7379   79.1379  219.8439 H   0  0  0  0  0  0  0  0  0  0  0  0
  142.5465   81.0161  221.2724 H   0  0  0  0  0  0  0  0  0  0  0  0
  141.4873   78.7159  224.7587 H   0  0  0  0  0  0  0  0  0  0  0  0
  140.6798   76.8486  223.3244 H   0  0  0  0  0  0  0  0  0  0  0  0
  138.7067   69.0484  222.6094 H   0  0  0  0  0  0  0  0  0  0  0  0
  139.3771   67.7822  224.6424 H   0  0  0  0  0  0  0  0  0  0  0  0
  140.3070   67.7521  226.9266 H   0  0  0  0  0  0  0  0  0  0  0  0
  141.5473   71.4430  228.7698 H   0  0  0  0  0  0  0  0  0  0  0  0
  140.8609   72.6769  226.6985 H   0  0  0  0  0  0  0  0  0  0  0  0
  1  2  2  0
  2  3  1  0
  3  4  1  0
  4  5  1  0
  5  6  2  0
  5  7  1  0
  7  8  1  0
  8  9  1  0
  9 10  1  0
 10 11  1  0
 11 12  1  0
 12 13  1  0
 13 14  1  0
 14 15  2  0
 15 16  1  0
 16 17  2  0
 17 18  1  0
 17 19  1  0
 19 20  2  0
  2 21  1  0
 21 22  2  0
 22 23  1  0
 23 24  2  0
 24 25  1  0
 25 26  2  0
 26 27  1  0
 26 28  1  0
 28 29  2  0
 29 30  1  0
 30 31  2  0
 12  7  1  0
 20 14  1  0
 31 21  1  0
 30 24  1  0
  3 32  1  0
  4 33  1  0
  4 34  1  0
  8 35  1  0
  8 36  1  0
  9 37  1  0
  9 38  1  0
 10 39  1  0
 10 40  1  0
 11 41  1  0
 11 42  1  0
 12 43  1  1
 13 44  1  0
 13 45  1  0
 15 46  1  0
 16 47  1  0
 19 48  1  0
 20 49  1  0
 22 50  1  0
 23 51  1  0
 25 52  1  0
 28 53  1  0
 29 54  1  0
M  END
>  <smiles>  (37) 
O=C(NCC(=O)N1CCCC[C@H]1Cc1ccc(Cl)cc1)c1ccc2cc(F)ccc2n1

>  <score_type>  (37) 
oracle

>  <origin>  (37) 
autodockgpu

>  <m_score__min__energy>  (37) 
-9.2100000000000009

>  <m_primary>  (37) 
energy

>  <rmsd>  (37) 
2.292194637731812

>  <m_score__min__rmsd>  (37) 
2.292194637731812

>  <meeko>  (37) 
{"free_energy": -8.81, "intermolecular_energy": -10.6, "internal_energy": -1.94, "cluster_size": 39, "cluster_id": 1, "rank_in_cluster": 15}

>  <energy>  (37) 
-8.29

>  <cluster_rmsd>  (37) 
1.56

>  <cluster>  (37) 
1

$$$$

     RDKit          3D

 54 57  0  0  0  0  0  0  0  0999 V2000
  139.2780   70.6200  221.4460 O   0  0  0  0  0  0  0  0  0  0  0  0
  139.2670   71.4140  222.4120 C   0  0  0  0  0  0  0  0  0  0  0  0
  138.7770   72.7260  222.1900 N   0  0  0  0  0  0  0  0  0  0  0  0
  138.2990   73.1690  220.9140 C   0  0  0  0  0  0  0  0  0  0  0  0
  139.3630   73.8100  220.0990 C   0  0  0  0  0  0  0  0  0  0  0  0
  139.0660   74.0980  218.9120 O   0  0  0  0  0  0  0  0  0  0  0  0
  140.6260   74.0540  220.6920 N   0  0  0  0  0  0  0  0  0  0  0  0
  141.6960   73.0460  220.5850 C   0  0  0  0  0  0  0  0  0  0  0  0
  142.9890   73.7750  220.6850 C   0  0  0  0  0  0  0  0  0  0  0  0
  142.9810   75.1320  220.0500 C   0  0  0  0  0  0  0  0  0  0  0  0
  141.9070   76.0510  220.5270 C   0  0  0  0  0  0  0  0  0  0  0  0
  140.9700   75.2520  221.4250 C   0  0  1  0  0  0  0  0  0  0  0  0
  139.8220   76.0620  221.9100 C   0  0  0  0  0  0  0  0  0  0  0  0
  140.3290   77.4320  222.2920 C   0  0  0  0  0  0  0  0  0  0  0  0
  141.3330   77.5200  223.2450 C   0  0  0  0  0  0  0  0  0  0  0  0
  141.8510   78.7480  223.6500 C   0  0  0  0  0  0  0  0  0  0  0  0
  141.3400   79.8980  223.0760 C   0  0  0  0  0  0  0  0  0  0  0  0
  141.9460   81.4970  223.5370 Cl  0  0  0  0  0  0  0  0  0  0  0  0
  140.3330   79.8080  222.1200 C   0  0  0  0  0  0  0  0  0  0  0  0
  139.8210   78.5790  221.7200 C   0  0  0  0  0  0  0  0  0  0  0  0
  139.7430   71.0340  223.7550 C   0  0  0  0  0  0  0  0  0  0  0  0
  140.5550   71.8880  224.4630 C   0  0  0  0  0  0  0  0  0  0  0  0
  140.9640   71.4710  225.7150 C   0  0  0  0  0  0  0  0  0  0  0  0
  140.5880   70.2560  226.2470 C   0  0  0  0  0  0  0  0  0  0  0  0
  140.9800   69.8110  227.4890 C   0  0  0  0  0  0  0  0  0  0  0  0
  140.5700   68.5780  227.9730 C   0  0  0  0  0  0  0  0  0  0  0  0
  140.9470   68.1320  229.1900 F   0  0  0  0  0  0  0  0  0  0  0  0
  139.7530   67.7530  227.2220 C   0  0  0  0  0  0  0  0  0  0  0  0
  139.3480   68.1870  225.9640 C   0  0  0  0  0  0  0  0  0  0  0  0
  139.7680   69.4230  225.4970 C   0  0  0  0  0  0  0  0  0  0  0  0
  139.3800   69.8470  224.2830 N   0  0  0  0  0  0  0  0  0  0  0  0
  138.7800   73.3790  223.0300 H   0  0  0  0  0  0  0  0  0  0  0  0
  137.9075   72.3010  220.3632 H   0  0  0  0  0  0  0  0  0  0  0  0
  137.5164   73.9210  221.0930 H   0  0  0  0  0  0  0  0  0  0  0  0
  141.6099   72.3149  221.4024 H   0  0  0  0  0  0  0  0  0  0  0  0
  141.6261   72.4975  219.6341 H   0  0  0  0  0  0  0  0  0  0  0  0
  143.2360   73.8943  221.7502 H   0  0  0  0  0  0  0  0  0  0  0  0
  143.7323   73.1755  220.1390 H   0  0  0  0  0  0  0  0  0  0  0  0
  143.9514   75.6084  220.2533 H   0  0  0  0  0  0  0  0  0  0  0  0
  142.7878   74.9667  218.9798 H   0  0  0  0  0  0  0  0  0  0  0  0
  142.3512   76.8815  221.0954 H   0  0  0  0  0  0  0  0  0  0  0  0
  141.3542   76.4695  219.6730 H   0  0  0  0  0  0  0  0  0  0  0  0
  141.4542   74.9573  222.3677 H   0  0  0  0  0  0  0  0  0  0  0  0
  139.0697   76.1539  221.1127 H   0  0  0  0  0  0  0  0  0  0  0  0
  139.3590   75.5753  222.7811 H   0  0  0  0  0  0  0  0  0  0  0  0
  141.7301   76.5968  223.6922 H   0  0  0  0  0  0  0  0  0  0  0  0
  142.6467   78.8018  224.4075 H   0  0  0  0  0  0  0  0  0  0  0  0
  139.9334   80.7293  221.6710 H   0  0  0  0  0  0  0  0  0  0  0  0
  139.0260   78.5228  220.9618 H   0  0  0  0  0  0  0  0  0  0  0  0
  140.8651   72.8597  224.0511 H   0  0  0  0  0  0  0  0  0  0  0  0
  141.6128   72.1320  226.3085 H   0  0  0  0  0  0  0  0  0  0  0  0
  141.6306   70.4452  228.1091 H   0  0  0  0  0  0  0  0  0  0  0  0
  139.4307   66.7757  227.6106 H   0  0  0  0  0  0  0  0  0  0  0  0
  138.6980   67.5530  225.3431 H   0  0  0  0  0  0  0  0  0  0  0  0
  1  2  2  0
  2  3  1  0
  3  4  1  0
  4  5  1  0
  5  6  2  0
  5  7  1  0
  7  8  1  0
  8  9  1  0
  9 10  1  0
 10 11  1  0
 11 12  1  0
 12 13  1  0
 13 14  1  0
 14 15  2  0
 15 16  1  0
 16 17  2  0
 17 18  1  0
 17 19  1  0
 19 20  2  0
  2 21  1  0
 21 22  2  0
 22 23  1  0
 23 24  2  0
 24 25  1  0
 25 26  2  0
 26 27  1  0
 26 28  1  0
 28 29  2  0
 29 30  1  0
 30 31  2  0
 12  7  1  0
 20 14  1  0
 31 21  1  0
 30 24  1  0
  3 32  1  0
  4 33  1  0
  4 34  1  0
  8 35  1  0
  8 36  1  0
  9 37  1  0
  9 38  1  0
 10 39  1  0
 10 40  1  0
 11 41  1  0
 11 42  1  0
 12 43  1  1
 13 44  1  0
 13 45  1  0
 15 46  1  0
 16 47  1  0
 19 48  1  0
 20 49  1  0
 22 50  1  0
 23 51  1  0
 25 52  1  0
 28 53  1  0
 29 54  1  0
M  END
>  <smiles>  (38) 
O=C(NCC(=O)N1CCCC[C@H]1Cc1ccc(Cl)cc1)c1ccc2cc(F)ccc2n1

>  <score_type>  (38) 
oracle

>  <origin>  (38) 
autodockgpu

>  <m_score__min__energy>  (38) 
-9.2100000000000009

>  <m_primary>  (38) 
energy

>  <rmsd>  (38) 
3.2136330074247197

>  <m_score__min__rmsd>  (38) 
3.2136330074247197

>  <meeko>  (38) 
{"free_energy": -8.52, "intermolecular_energy": -10.31, "internal_energy": -1.76, "cluster_size": 39, "cluster_id": 1, "rank_in_cluster": 26}

>  <energy>  (38) 
-8.2

>  <cluster_rmsd>  (38) 
1.97

>  <cluster>  (38) 
1

$$$$

     RDKit          3D

 54 57  0  0  0  0  0  0  0  0999 V2000
  139.2640   70.7430  221.5690 O   0  0  0  0  0  0  0  0  0  0  0  0
  139.4590   71.5350  222.5170 C   0  0  0  0  0  0  0  0  0  0  0  0
  139.2470   72.9170  222.2840 N   0  0  0  0  0  0  0  0  0  0  0  0
  138.8220   73.4330  221.0160 C   0  0  0  0  0  0  0  0  0  0  0  0
  139.9550   73.6330  220.0750 C   0  0  0  0  0  0  0  0  0  0  0  0
  139.7090   73.4650  218.8540 O   0  0  0  0  0  0  0  0  0  0  0  0
  141.2220   73.9930  220.5960 N   0  0  0  0  0  0  0  0  0  0  0  0
  142.1970   72.9440  220.9460 C   0  0  0  0  0  0  0  0  0  0  0  0
  143.5490   73.5540  220.8270 C   0  0  0  0  0  0  0  0  0  0  0  0
  143.6780   74.5520  219.7170 C   0  0  0  0  0  0  0  0  0  0  0  0
  142.6830   75.6630  219.7430 C   0  0  0  0  0  0  0  0  0  0  0  0
  141.6590   75.3510  220.8260 C   0  0  1  0  0  0  0  0  0  0  0  0
  140.5790   76.3710  220.8970 C   0  0  0  0  0  0  0  0  0  0  0  0
  141.0830   77.5470  221.6980 C   0  0  0  0  0  0  0  0  0  0  0  0
  141.4920   78.6820  221.0140 C   0  0  0  0  0  0  0  0  0  0  0  0
  141.9710   79.8070  221.6830 C   0  0  0  0  0  0  0  0  0  0  0  0
  142.0310   79.7730  223.0650 C   0  0  0  0  0  0  0  0  0  0  0  0
  142.6260   81.1620  223.9880 Cl  0  0  0  0  0  0  0  0  0  0  0  0
  141.6190   78.6330  223.7490 C   0  0  0  0  0  0  0  0  0  0  0  0
  141.1440   77.5150  223.0750 C   0  0  0  0  0  0  0  0  0  0  0  0
  139.8960   71.0820  223.8510 C   0  0  0  0  0  0  0  0  0  0  0  0
  140.7130   71.8830  224.6140 C   0  0  0  0  0  0  0  0  0  0  0  0
  141.0860   71.3990  225.8530 C   0  0  0  0  0  0  0  0  0  0  0  0
  140.6690   70.1710  226.3210 C   0  0  0  0  0  0  0  0  0  0  0  0
  141.0240   69.6600  227.5480 C   0  0  0  0  0  0  0  0  0  0  0  0
  140.5740   68.4170  227.9670 C   0  0  0  0  0  0  0  0  0  0  0  0
  140.9140   67.9070  229.1690 F   0  0  0  0  0  0  0  0  0  0  0  0
  139.7530   67.6470  227.1620 C   0  0  0  0  0  0  0  0  0  0  0  0
  139.3860   68.1490  225.9180 C   0  0  0  0  0  0  0  0  0  0  0  0
  139.8450   69.3930  225.5170 C   0  0  0  0  0  0  0  0  0  0  0  0
  139.4930   69.8820  224.3160 N   0  0  0  0  0  0  0  0  0  0  0  0
  139.4200   73.5670  223.1080 H   0  0  0  0  0  0  0  0  0  0  0  0
  138.1111   72.7239  220.5668 H   0  0  0  0  0  0  0  0  0  0  0  0
  138.3569   74.4140  221.1929 H   0  0  0  0  0  0  0  0  0  0  0  0
  142.0273   72.5983  221.9764 H   0  0  0  0  0  0  0  0  0  0  0  0
  142.0969   72.0749  220.2792 H   0  0  0  0  0  0  0  0  0  0  0  0
  143.7834   74.0604  221.7749 H   0  0  0  0  0  0  0  0  0  0  0  0
  144.2459   72.7345  220.5973 H   0  0  0  0  0  0  0  0  0  0  0  0
  144.6836   74.9944  219.7723 H   0  0  0  0  0  0  0  0  0  0  0  0
  143.4924   73.9978  218.7851 H   0  0  0  0  0  0  0  0  0  0  0  0
  143.1894   76.6127  219.9703 H   0  0  0  0  0  0  0  0  0  0  0  0
  142.1887   75.7568  218.7648 H   0  0  0  0  0  0  0  0  0  0  0  0
  142.0954   75.4111  221.8340 H   0  0  0  0  0  0  0  0  0  0  0  0
  140.3123   76.7004  219.8819 H   0  0  0  0  0  0  0  0  0  0  0  0
  139.6868   75.9426  221.3770 H   0  0  0  0  0  0  0  0  0  0  0  0
  141.4370   78.6947  219.9155 H   0  0  0  0  0  0  0  0  0  0  0  0
  142.2932   80.6994  221.1264 H   0  0  0  0  0  0  0  0  0  0  0  0
  141.6707   78.6169  224.8477 H   0  0  0  0  0  0  0  0  0  0  0  0
  140.8226   76.6210  223.6295 H   0  0  0  0  0  0  0  0  0  0  0  0
  141.0541   72.8648  224.2540 H   0  0  0  0  0  0  0  0  0  0  0  0
  141.7388   72.0152  226.4887 H   0  0  0  0  0  0  0  0  0  0  0  0
  141.6771   70.2485  228.2092 H   0  0  0  0  0  0  0  0  0  0  0  0
  139.3990   66.6612  227.4981 H   0  0  0  0  0  0  0  0  0  0  0  0
  138.7341   67.5608  225.2554 H   0  0  0  0  0  0  0  0  0  0  0  0
  1  2  2  0
  2  3  1  0
  3  4  1  0
  4  5  1  0
  5  6  2  0
  5  7  1  0
  7  8  1  0
  8  9  1  0
  9 10  1  0
 10 11  1  0
 11 12  1  0
 12 13  1  0
 13 14  1  0
 14 15  2  0
 15 16  1  0
 16 17  2  0
 17 18  1  0
 17 19  1  0
 19 20  2  0
  2 21  1  0
 21 22  2  0
 22 23  1  0
 23 24  2  0
 24 25  1  0
 25 26  2  0
 26 27  1  0
 26 28  1  0
 28 29  2  0
 29 30  1  0
 30 31  2  0
 12  7  1  0
 20 14  1  0
 31 21  1  0
 30 24  1  0
  3 32  1  0
  4 33  1  0
  4 34  1  0
  8 35  1  0
  8 36  1  0
  9 37  1  0
  9 38  1  0
 10 39  1  0
 10 40  1  0
 11 41  1  0
 11 42  1  0
 12 43  1  1
 13 44  1  0
 13 45  1  0
 15 46  1  0
 16 47  1  0
 19 48  1  0
 20 49  1  0
 22 50  1  0
 23 51  1  0
 25 52  1  0
 28 53  1  0
 29 54  1  0
M  END
>  <smiles>  (39) 
O=C(NCC(=O)N1CCCC[C@H]1Cc1ccc(Cl)cc1)c1ccc2cc(F)ccc2n1

>  <score_type>  (39) 
oracle

>  <origin>  (39) 
autodockgpu

>  <m_score__min__energy>  (39) 
-9.2100000000000009

>  <m_primary>  (39) 
energy

>  <rmsd>  (39) 
3.247424321859591

>  <m_score__min__rmsd>  (39) 
3.247424321859591

>  <meeko>  (39) 
{"free_energy": -9.06, "intermolecular_energy": -10.85, "internal_energy": -1.68, "cluster_size": 39, "cluster_id": 1, "rank_in_cluster": 4}

>  <energy>  (39) 
-8.2

>  <cluster_rmsd>  (39) 
1.75

>  <cluster>  (39) 
1

$$$$

     RDKit          3D

 54 57  0  0  0  0  0  0  0  0999 V2000
  133.7280   70.0970  226.5760 O   0  0  0  0  0  0  0  0  0  0  0  0
  133.9760   71.2500  226.1600 C   0  0  0  0  0  0  0  0  0  0  0  0
  134.9870   71.4010  225.1770 N   0  0  0  0  0  0  0  0  0  0  0  0
  135.7260   70.2910  224.6510 C   0  0  0  0  0  0  0  0  0  0  0  0
  136.5740   70.6720  223.4910 C   0  0  0  0  0  0  0  0  0  0  0  0
  136.3960   71.8210  223.0160 O   0  0  0  0  0  0  0  0  0  0  0  0
  137.5150   69.7360  222.9950 N   0  0  0  0  0  0  0  0  0  0  0  0
  137.0490   68.4810  222.3780 C   0  0  0  0  0  0  0  0  0  0  0  0
  138.1050   68.0500  221.4240 C   0  0  0  0  0  0  0  0  0  0  0  0
  138.8000   69.1780  220.7250 C   0  0  0  0  0  0  0  0  0  0  0  0
  139.3970   70.2100  221.6210 C   0  0  0  0  0  0  0  0  0  0  0  0
  138.9500   69.9100  223.0460 C   0  0  1  0  0  0  0  0  0  0  0  0
  139.4420   70.9190  224.0200 C   0  0  0  0  0  0  0  0  0  0  0  0
  139.8980   70.1990  225.2670 C   0  0  0  0  0  0  0  0  0  0  0  0
  140.5660   70.9280  226.2390 C   0  0  0  0  0  0  0  0  0  0  0  0
  141.0200   70.3340  227.4150 C   0  0  0  0  0  0  0  0  0  0  0  0
  140.7890   68.9820  227.6000 C   0  0  0  0  0  0  0  0  0  0  0  0
  141.3340   68.1550  229.0680 Cl  0  0  0  0  0  0  0  0  0  0  0  0
  140.1180   68.2530  226.6230 C   0  0  0  0  0  0  0  0  0  0  0  0
  139.6690   68.8520  225.4520 C   0  0  0  0  0  0  0  0  0  0  0  0
  133.2600   72.4410  226.6530 C   0  0  0  0  0  0  0  0  0  0  0  0
  132.0500   72.3000  227.2920 C   0  0  0  0  0  0  0  0  0  0  0  0
  131.4330   73.4570  227.7280 C   0  0  0  0  0  0  0  0  0  0  0  0
  131.9870   74.7040  227.5400 C   0  0  0  0  0  0  0  0  0  0  0  0
  131.3970   75.8740  227.9620 C   0  0  0  0  0  0  0  0  0  0  0  0
  132.0010   77.1030  227.7450 C   0  0  0  0  0  0  0  0  0  0  0  0
  131.4320   78.2560  228.1550 F   0  0  0  0  0  0  0  0  0  0  0  0
  133.2200   77.1940  227.0960 C   0  0  0  0  0  0  0  0  0  0  0  0
  133.8290   76.0210  226.6630 C   0  0  0  0  0  0  0  0  0  0  0  0
  133.2100   74.8020  226.8890 C   0  0  0  0  0  0  0  0  0  0  0  0
  133.7940   73.6670  226.4730 N   0  0  0  0  0  0  0  0  0  0  0  0
  135.1760   72.3920  224.8420 H   0  0  0  0  0  0  0  0  0  0  0  0
  136.3732   69.8898  225.4448 H   0  0  0  0  0  0  0  0  0  0  0  0
  135.0008   69.5404  224.3035 H   0  0  0  0  0  0  0  0  0  0  0  0
  136.9006   67.7121  223.1505 H   0  0  0  0  0  0  0  0  0  0  0  0
  136.0890   68.6290  221.8618 H   0  0  0  0  0  0  0  0  0  0  0  0
  138.8581   67.4732  221.9809 H   0  0  0  0  0  0  0  0  0  0  0  0
  137.6036   67.4570  220.6449 H   0  0  0  0  0  0  0  0  0  0  0  0
  139.6076   68.7519  220.1116 H   0  0  0  0  0  0  0  0  0  0  0  0
  138.0270   69.6949  220.1374 H   0  0  0  0  0  0  0  0  0  0  0  0
  140.4944   70.1700  221.5576 H   0  0  0  0  0  0  0  0  0  0  0  0
  139.0668   71.2152  221.3201 H   0  0  0  0  0  0  0  0  0  0  0  0
  139.4006   68.9840  223.4326 H   0  0  0  0  0  0  0  0  0  0  0  0
  140.2846   71.4756  223.5839 H   0  0  0  0  0  0  0  0  0  0  0  0
  138.6379   71.6279  224.2669 H   0  0  0  0  0  0  0  0  0  0  0  0
  140.7419   72.0018  226.0779 H   0  0  0  0  0  0  0  0  0  0  0  0
  141.5488   70.9250  228.1773 H   0  0  0  0  0  0  0  0  0  0  0  0
  139.9390   67.1792  226.7809 H   0  0  0  0  0  0  0  0  0  0  0  0
  139.1412   68.2629  224.6876 H   0  0  0  0  0  0  0  0  0  0  0  0
  131.5943   71.3112  227.4488 H   0  0  0  0  0  0  0  0  0  0  0  0
  130.4645   73.3794  228.2438 H   0  0  0  0  0  0  0  0  0  0  0  0
  130.4281   75.8331  228.4812 H   0  0  0  0  0  0  0  0  0  0  0  0
  133.6960   78.1711  226.9266 H   0  0  0  0  0  0  0  0  0  0  0  0
  134.7977   76.0607  226.1434 H   0  0  0  0  0  0  0  0  0  0  0  0
  1  2  2  0
  2  3  1  0
  3  4  1  0
  4  5  1  0
  5  6  2  0
  5  7  1  0
  7  8  1  0
  8  9  1  0
  9 10  1  0
 10 11  1  0
 11 12  1  0
 12 13  1  0
 13 14  1  0
 14 15  2  0
 15 16  1  0
 16 17  2  0
 17 18  1  0
 17 19  1  0
 19 20  2  0
  2 21  1  0
 21 22  2  0
 22 23  1  0
 23 24  2  0
 24 25  1  0
 25 26  2  0
 26 27  1  0
 26 28  1  0
 28 29  2  0
 29 30  1  0
 30 31  2  0
 12  7  1  0
 20 14  1  0
 31 21  1  0
 30 24  1  0
  3 32  1  0
  4 33  1  0
  4 34  1  0
  8 35  1  0
  8 36  1  0
  9 37  1  0
  9 38  1  0
 10 39  1  0
 10 40  1  0
 11 41  1  0
 11 42  1  0
 12 43  1  1
 13 44  1  0
 13 45  1  0
 15 46  1  0
 16 47  1  0
 19 48  1  0
 20 49  1  0
 22 50  1  0
 23 51  1  0
 25 52  1  0
 28 53  1  0
 29 54  1  0
M  END
>  <smiles>  (40) 
O=C(NCC(=O)N1CCCC[C@H]1Cc1ccc(Cl)cc1)c1ccc2cc(F)ccc2n1

>  <score_type>  (40) 
oracle

>  <origin>  (40) 
autodockgpu

>  <m_score__min__energy>  (40) 
-9.2100000000000009

>  <m_primary>  (40) 
energy

>  <rmsd>  (40) 
8.532755718309676

>  <m_score__min__rmsd>  (40) 
8.532755718309676

>  <meeko>  (40) 
{"free_energy": -8.15, "intermolecular_energy": -9.94, "internal_energy": -2.25, "cluster_size": 2, "cluster_id": 3, "rank_in_cluster": 1}

>  <energy>  (40) 
-8.23

>  <cluster_rmsd>  (40) 
0.0

>  <cluster>  (40) 
2

$$$$

     RDKit          3D

 54 57  0  0  0  0  0  0  0  0999 V2000
  141.1700   72.8890  222.1030 O   0  0  0  0  0  0  0  0  0  0  0  0
  140.1050   72.6200  222.7000 C   0  0  0  0  0  0  0  0  0  0  0  0
  138.9410   73.3490  222.3480 N   0  0  0  0  0  0  0  0  0  0  0  0
  138.9420   74.3700  221.3430 C   0  0  0  0  0  0  0  0  0  0  0  0
  137.8010   75.3120  221.4880 C   0  0  0  0  0  0  0  0  0  0  0  0
  136.8990   74.9840  222.2990 O   0  0  0  0  0  0  0  0  0  0  0  0
  137.7940   76.5020  220.7180 N   0  0  0  0  0  0  0  0  0  0  0  0
  138.0090   76.4370  219.2610 C   0  0  0  0  0  0  0  0  0  0  0  0
  137.3330   77.6230  218.6710 C   0  0  0  0  0  0  0  0  0  0  0  0
  136.0660   78.0180  219.3650 C   0  0  0  0  0  0  0  0  0  0  0  0
  136.1920   78.2550  220.8330 C   0  0  0  0  0  0  0  0  0  0  0  0
  137.5900   77.8270  221.2590 C   0  0  1  0  0  0  0  0  0  0  0  0
  137.8050   77.9650  222.7230 C   0  0  0  0  0  0  0  0  0  0  0  0
  139.1660   78.5780  222.9530 C   0  0  0  0  0  0  0  0  0  0  0  0
  139.2290   79.8830  223.4170 C   0  0  0  0  0  0  0  0  0  0  0  0
  140.4480   80.5170  223.6510 C   0  0  0  0  0  0  0  0  0  0  0  0
  141.6130   79.8110  223.4100 C   0  0  0  0  0  0  0  0  0  0  0  0
  143.2000   80.5470  223.6840 Cl  0  0  0  0  0  0  0  0  0  0  0  0
  141.5460   78.5020  222.9450 C   0  0  0  0  0  0  0  0  0  0  0  0
  140.3280   77.8750  222.7130 C   0  0  0  0  0  0  0  0  0  0  0  0
  140.0230   71.5830  223.7460 C   0  0  0  0  0  0  0  0  0  0  0  0
  139.4360   70.3710  223.4670 C   0  0  0  0  0  0  0  0  0  0  0  0
  139.3930   69.4450  224.4920 C   0  0  0  0  0  0  0  0  0  0  0  0
  139.9080   69.7050  225.7430 C   0  0  0  0  0  0  0  0  0  0  0  0
  139.8790   68.8060  226.7840 C   0  0  0  0  0  0  0  0  0  0  0  0
  140.4130   69.1230  228.0240 C   0  0  0  0  0  0  0  0  0  0  0  0
  140.3920   68.2480  229.0510 F   0  0  0  0  0  0  0  0  0  0  0  0
  140.9940   70.3570  228.2560 C   0  0  0  0  0  0  0  0  0  0  0  0
  141.0310   71.2780  227.2150 C   0  0  0  0  0  0  0  0  0  0  0  0
  140.4910   70.9430  225.9830 C   0  0  0  0  0  0  0  0  0  0  0  0
  140.5250   71.8300  224.9740 N   0  0  0  0  0  0  0  0  0  0  0  0
  138.0510   73.0990  222.8720 H   0  0  0  0  0  0  0  0  0  0  0  0
  139.8807   74.9385  221.4185 H   0  0  0  0  0  0  0  0  0  0  0  0
  138.8460   73.8764  220.3647 H   0  0  0  0  0  0  0  0  0  0  0  0
  139.0854   76.4643  219.0359 H   0  0  0  0  0  0  0  0  0  0  0  0
  137.6018   75.5040  218.8443 H   0  0  0  0  0  0  0  0  0  0  0  0
  138.0292   78.4735  218.7143 H   0  0  0  0  0  0  0  0  0  0  0  0
  137.0567   77.3491  217.6421 H   0  0  0  0  0  0  0  0  0  0  0  0
  135.6989   78.9453  218.9010 H   0  0  0  0  0  0  0  0  0  0  0  0
  135.3781   77.1671  219.2515 H   0  0  0  0  0  0  0  0  0  0  0  0
  136.0449   79.3227  221.0530 H   0  0  0  0  0  0  0  0  0  0  0  0
  135.4318   77.6785  221.3804 H   0  0  0  0  0  0  0  0  0  0  0  0
  138.3657   78.4928  220.8527 H   0  0  0  0  0  0  0  0  0  0  0  0
  137.0282   78.6149  223.1523 H   0  0  0  0  0  0  0  0  0  0  0  0
  137.7501   76.9783  223.2062 H   0  0  0  0  0  0  0  0  0  0  0  0
  138.2942   80.4314  223.6051 H   0  0  0  0  0  0  0  0  0  0  0  0
  140.4828   81.5533  224.0183 H   0  0  0  0  0  0  0  0  0  0  0  0
  142.4788   77.9503  222.7566 H   0  0  0  0  0  0  0  0  0  0  0  0
  140.2913   76.8389  222.3453 H   0  0  0  0  0  0  0  0  0  0  0  0
  139.0197   70.1488  222.4734 H   0  0  0  0  0  0  0  0  0  0  0  0
  138.9309   68.4650  224.3021 H   0  0  0  0  0  0  0  0  0  0  0  0
  139.4235   67.8167  226.6298 H   0  0  0  0  0  0  0  0  0  0  0  0
  141.4168   70.6037  229.2411 H   0  0  0  0  0  0  0  0  0  0  0  0
  141.4865   72.2675  227.3683 H   0  0  0  0  0  0  0  0  0  0  0  0
  1  2  2  0
  2  3  1  0
  3  4  1  0
  4  5  1  0
  5  6  2  0
  5  7  1  0
  7  8  1  0
  8  9  1  0
  9 10  1  0
 10 11  1  0
 11 12  1  0
 12 13  1  0
 13 14  1  0
 14 15  2  0
 15 16  1  0
 16 17  2  0
 17 18  1  0
 17 19  1  0
 19 20  2  0
  2 21  1  0
 21 22  2  0
 22 23  1  0
 23 24  2  0
 24 25  1  0
 25 26  2  0
 26 27  1  0
 26 28  1  0
 28 29  2  0
 29 30  1  0
 30 31  2  0
 12  7  1  0
 20 14  1  0
 31 21  1  0
 30 24  1  0
  3 32  1  0
  4 33  1  0
  4 34  1  0
  8 35  1  0
  8 36  1  0
  9 37  1  0
  9 38  1  0
 10 39  1  0
 10 40  1  0
 11 41  1  0
 11 42  1  0
 12 43  1  6
 13 44  1  0
 13 45  1  0
 15 46  1  0
 16 47  1  0
 19 48  1  0
 20 49  1  0
 22 50  1  0
 23 51  1  0
 25 52  1  0
 28 53  1  0
 29 54  1  0
M  END
>  <smiles>  (41) 
O=C(NCC(=O)N1CCCC[C@H]1Cc1ccc(Cl)cc1)c1ccc2cc(F)ccc2n1

>  <score_type>  (41) 
oracle

>  <origin>  (41) 
autodockgpu

>  <m_score__min__energy>  (41) 
-9.2100000000000009

>  <m_primary>  (41) 
energy

>  <rmsd>  (41) 
2.78582591886273

>  <m_score__min__rmsd>  (41) 
2.78582591886273

>  <meeko>  (41) 
{"free_energy": -8.11, "intermolecular_energy": -9.89, "internal_energy": -1.94, "cluster_size": 3, "cluster_id": 5, "rank_in_cluster": 2}

>  <energy>  (41) 
-8.15

>  <cluster_rmsd>  (41) 
0.0

>  <cluster>  (41) 
3

$$$$

     RDKit          3D

 54 57  0  0  0  0  0  0  0  0999 V2000
  139.2800   73.8190  219.9930 O   0  0  0  0  0  0  0  0  0  0  0  0
  139.1520   74.5280  221.0150 C   0  0  0  0  0  0  0  0  0  0  0  0
  138.1880   74.1410  221.9790 N   0  0  0  0  0  0  0  0  0  0  0  0
  137.3640   72.9780  221.8260 C   0  0  0  0  0  0  0  0  0  0  0  0
  137.7870   71.8600  222.7090 C   0  0  0  0  0  0  0  0  0  0  0  0
  137.1450   71.7150  223.7800 O   0  0  0  0  0  0  0  0  0  0  0  0
  138.8690   71.0400  222.3040 N   0  0  0  0  0  0  0  0  0  0  0  0
  138.6430   69.9510  221.3370 C   0  0  0  0  0  0  0  0  0  0  0  0
  139.9350   69.7200  220.6370 C   0  0  0  0  0  0  0  0  0  0  0  0
  140.7390   70.9620  220.4040 C   0  0  0  0  0  0  0  0  0  0  0  0
  141.0260   71.7720  221.6240 C   0  0  0  0  0  0  0  0  0  0  0  0
  140.2270   71.1800  222.7780 C   0  0  1  0  0  0  0  0  0  0  0  0
  140.3930   71.9520  224.0370 C   0  0  0  0  0  0  0  0  0  0  0  0
  140.5440   70.9780  225.1810 C   0  0  0  0  0  0  0  0  0  0  0  0
  140.9130   71.4730  226.4230 C   0  0  0  0  0  0  0  0  0  0  0  0
  141.0740   70.6370  227.5250 C   0  0  0  0  0  0  0  0  0  0  0  0
  140.8560   69.2810  227.3580 C   0  0  0  0  0  0  0  0  0  0  0  0
  141.0400   68.1530  228.7110 Cl  0  0  0  0  0  0  0  0  0  0  0  0
  140.4860   68.7860  226.1120 C   0  0  0  0  0  0  0  0  0  0  0  0
  140.3270   69.6260  225.0160 C   0  0  0  0  0  0  0  0  0  0  0  0
  139.9620   75.7390  221.2450 C   0  0  0  0  0  0  0  0  0  0  0  0
  141.1100   75.9460  220.5160 C   0  0  0  0  0  0  0  0  0  0  0  0
  141.8210   77.1010  220.7810 C   0  0  0  0  0  0  0  0  0  0  0  0
  141.4170   78.0150  221.7290 C   0  0  0  0  0  0  0  0  0  0  0  0
  142.1030   79.1730  222.0170 C   0  0  0  0  0  0  0  0  0  0  0  0
  141.6480   80.0570  222.9840 C   0  0  0  0  0  0  0  0  0  0  0  0
  142.3120   81.1950  223.2730 F   0  0  0  0  0  0  0  0  0  0  0  0
  140.4860   79.8040  223.6910 C   0  0  0  0  0  0  0  0  0  0  0  0
  139.7810   78.6390  223.4130 C   0  0  0  0  0  0  0  0  0  0  0  0
  140.2520   77.7660  222.4440 C   0  0  0  0  0  0  0  0  0  0  0  0
  139.5740   76.6400  222.1710 N   0  0  0  0  0  0  0  0  0  0  0  0
  138.1020   74.7630  222.8370 H   0  0  0  0  0  0  0  0  0  0  0  0
  136.3257   73.2468  222.0703 H   0  0  0  0  0  0  0  0  0  0  0  0
  137.4593   72.6358  220.7849 H   0  0  0  0  0  0  0  0  0  0  0  0
  138.3290   69.0373  221.8628 H   0  0  0  0  0  0  0  0  0  0  0  0
  137.8500   70.2170  220.6225 H   0  0  0  0  0  0  0  0  0  0  0  0
  140.5373   69.0283  221.2443 H   0  0  0  0  0  0  0  0  0  0  0  0
  139.6882   69.3132  219.6452 H   0  0  0  0  0  0  0  0  0  0  0  0
  141.7001   70.6664  219.9581 H   0  0  0  0  0  0  0  0  0  0  0  0
  140.1289   71.6020  219.7496 H   0  0  0  0  0  0  0  0  0  0  0  0
  142.1008   71.7324  221.8545 H   0  0  0  0  0  0  0  0  0  0  0  0
  140.7433   72.8226  221.4615 H   0  0  0  0  0  0  0  0  0  0  0  0
  140.5986   70.1867  223.0699 H   0  0  0  0  0  0  0  0  0  0  0  0
  141.2898   72.5853  223.9682 H   0  0  0  0  0  0  0  0  0  0  0  0
  139.5159   72.5947  224.2030 H   0  0  0  0  0  0  0  0  0  0  0  0
  141.0828   72.5534  226.5405 H   0  0  0  0  0  0  0  0  0  0  0  0
  141.3672   71.0445  228.5037 H   0  0  0  0  0  0  0  0  0  0  0  0
  140.3154   67.7060  225.9912 H   0  0  0  0  0  0  0  0  0  0  0  0
  140.0339   69.2205  224.0364 H   0  0  0  0  0  0  0  0  0  0  0  0
  141.4468   75.2249  219.7566 H   0  0  0  0  0  0  0  0  0  0  0  0
  142.7431   77.2976  220.2143 H   0  0  0  0  0  0  0  0  0  0  0  0
  143.0295   79.4016  221.4699 H   0  0  0  0  0  0  0  0  0  0  0  0
  140.1282   80.5090  224.4558 H   0  0  0  0  0  0  0  0  0  0  0  0
  138.8538   78.4105  223.9590 H   0  0  0  0  0  0  0  0  0  0  0  0
  1  2  2  0
  2  3  1  0
  3  4  1  0
  4  5  1  0
  5  6  2  0
  5  7  1  0
  7  8  1  0
  8  9  1  0
  9 10  1  0
 10 11  1  0
 11 12  1  0
 12 13  1  0
 13 14  1  0
 14 15  2  0
 15 16  1  0
 16 17  2  0
 17 18  1  0
 17 19  1  0
 19 20  2  0
  2 21  1  0
 21 22  2  0
 22 23  1  0
 23 24  2  0
 24 25  1  0
 25 26  2  0
 26 27  1  0
 26 28  1  0
 28 29  2  0
 29 30  1  0
 30 31  2  0
 12  7  1  0
 20 14  1  0
 31 21  1  0
 30 24  1  0
  3 32  1  0
  4 33  1  0
  4 34  1  0
  8 35  1  0
  8 36  1  0
  9 37  1  0
  9 38  1  0
 10 39  1  0
 10 40  1  0
 11 41  1  0
 11 42  1  0
 12 43  1  1
 13 44  1  0
 13 45  1  0
 15 46  1  0
 16 47  1  0
 19 48  1  0
 20 49  1  0
 22 50  1  0
 23 51  1  0
 25 52  1  0
 28 53  1  0
 29 54  1  0
M  END
>  <smiles>  (42) 
O=C(NCC(=O)N1CCCC[C@H]1Cc1ccc(Cl)cc1)c1ccc2cc(F)ccc2n1

>  <score_type>  (42) 
oracle

>  <origin>  (42) 
autodockgpu

>  <m_score__min__energy>  (42) 
-9.2100000000000009

>  <m_primary>  (42) 
energy

>  <rmsd>  (42) 
7.603584207421379

>  <m_score__min__rmsd>  (42) 
7.603584207421379

>  <meeko>  (42) 
{"free_energy": -7.9, "intermolecular_energy": -9.69, "internal_energy": -2.32, "cluster_size": 2, "cluster_id": 6, "rank_in_cluster": 1}

>  <energy>  (42) 
-8.06

>  <cluster_rmsd>  (42) 
0.35

>  <cluster>  (42) 
3

$$$$

     RDKit          3D

 54 57  0  0  0  0  0  0  0  0999 V2000
  139.4490   70.7360  221.3360 O   0  0  0  0  0  0  0  0  0  0  0  0
  139.3280   71.4680  222.3440 C   0  0  0  0  0  0  0  0  0  0  0  0
  138.6950   72.7250  222.1820 N   0  0  0  0  0  0  0  0  0  0  0  0
  138.1930   73.1830  220.9190 C   0  0  0  0  0  0  0  0  0  0  0  0
  139.0100   74.2860  220.3490 C   0  0  0  0  0  0  0  0  0  0  0  0
  138.4130   75.1010  219.6020 O   0  0  0  0  0  0  0  0  0  0  0  0
  140.3880   74.3540  220.6710 N   0  0  0  0  0  0  0  0  0  0  0  0
  141.3150   73.3310  220.1540 C   0  0  0  0  0  0  0  0  0  0  0  0
  142.6590   73.9650  220.0780 C   0  0  0  0  0  0  0  0  0  0  0  0
  142.6360   75.4140  219.7000 C   0  0  0  0  0  0  0  0  0  0  0  0
  141.7770   76.2810  220.5580 C   0  0  0  0  0  0  0  0  0  0  0  0
  140.9880   75.3780  221.4970 C   0  0  1  0  0  0  0  0  0  0  0  0
  140.0480   76.1390  222.3620 C   0  0  0  0  0  0  0  0  0  0  0  0
  140.4310   77.5990  222.3160 C   0  0  0  0  0  0  0  0  0  0  0  0
  139.7450   78.4320  221.4440 C   0  0  0  0  0  0  0  0  0  0  0  0
  140.0420   79.7890  221.3440 C   0  0  0  0  0  0  0  0  0  0  0  0
  141.0490   80.3020  222.1420 C   0  0  0  0  0  0  0  0  0  0  0  0
  141.4850   82.0170  222.0740 Cl  0  0  0  0  0  0  0  0  0  0  0  0
  141.7350   79.4650  223.0160 C   0  0  0  0  0  0  0  0  0  0  0  0
  141.4340   78.1120  223.1110 C   0  0  0  0  0  0  0  0  0  0  0  0
  139.8180   71.0680  223.6760 C   0  0  0  0  0  0  0  0  0  0  0  0
  140.6560   71.9020  224.3780 C   0  0  0  0  0  0  0  0  0  0  0  0
  141.0780   71.4660  225.6200 C   0  0  0  0  0  0  0  0  0  0  0  0
  140.6880   70.2550  226.1480 C   0  0  0  0  0  0  0  0  0  0  0  0
  141.0910   69.7930  227.3800 C   0  0  0  0  0  0  0  0  0  0  0  0
  140.6660   68.5630  227.8610 C   0  0  0  0  0  0  0  0  0  0  0  0
  141.0550   68.1000  229.0680 F   0  0  0  0  0  0  0  0  0  0  0  0
  139.8220   67.7590  227.1160 C   0  0  0  0  0  0  0  0  0  0  0  0
  139.4060   68.2110  225.8690 C   0  0  0  0  0  0  0  0  0  0  0  0
  139.8410   69.4420  225.4050 C   0  0  0  0  0  0  0  0  0  0  0  0
  139.4410   69.8830  224.2010 N   0  0  0  0  0  0  0  0  0  0  0  0
  138.6060   73.3250  223.0550 H   0  0  0  0  0  0  0  0  0  0  0  0
  138.1951   72.3404  220.2119 H   0  0  0  0  0  0  0  0  0  0  0  0
  137.1765   73.5699  221.0833 H   0  0  0  0  0  0  0  0  0  0  0  0
  141.3422   72.4668  220.8340 H   0  0  0  0  0  0  0  0  0  0  0  0
  140.9929   72.9709  219.1658 H   0  0  0  0  0  0  0  0  0  0  0  0
  143.1394   73.8735  221.0633 H   0  0  0  0  0  0  0  0  0  0  0  0
  143.2103   73.4407  219.2835 H   0  0  0  0  0  0  0  0  0  0  0  0
  143.6661   75.7960  219.7537 H   0  0  0  0  0  0  0  0  0  0  0  0
  142.2026   75.4590  218.6900 H   0  0  0  0  0  0  0  0  0  0  0  0
  142.4060   76.9688  221.1422 H   0  0  0  0  0  0  0  0  0  0  0  0
  141.0930   76.8772  219.9361 H   0  0  0  0  0  0  0  0  0  0  0  0
  141.6369   74.8917  222.2403 H   0  0  0  0  0  0  0  0  0  0  0  0
  139.0194   76.0133  221.9929 H   0  0  0  0  0  0  0  0  0  0  0  0
  140.1018   75.7673  223.3959 H   0  0  0  0  0  0  0  0  0  0  0  0
  138.9465   78.0101  220.8159 H   0  0  0  0  0  0  0  0  0  0  0  0
  139.4895   80.4370  220.6476 H   0  0  0  0  0  0  0  0  0  0  0  0
  142.5336   79.8837  223.6460 H   0  0  0  0  0  0  0  0  0  0  0  0
  141.9852   77.4626  223.8070 H   0  0  0  0  0  0  0  0  0  0  0  0
  140.9760   72.8720  223.9698 H   0  0  0  0  0  0  0  0  0  0  0  0
  141.7494   72.1092  226.2078 H   0  0  0  0  0  0  0  0  0  0  0  0
  141.7625   70.4103  227.9948 H   0  0  0  0  0  0  0  0  0  0  0  0
  139.4878   66.7845  227.5015 H   0  0  0  0  0  0  0  0  0  0  0  0
  138.7346   67.5943  225.2535 H   0  0  0  0  0  0  0  0  0  0  0  0
  1  2  2  0
  2  3  1  0
  3  4  1  0
  4  5  1  0
  5  6  2  0
  5  7  1  0
  7  8  1  0
  8  9  1  0
  9 10  1  0
 10 11  1  0
 11 12  1  0
 12 13  1  0
 13 14  1  0
 14 15  2  0
 15 16  1  0
 16 17  2  0
 17 18  1  0
 17 19  1  0
 19 20  2  0
  2 21  1  0
 21 22  2  0
 22 23  1  0
 23 24  2  0
 24 25  1  0
 25 26  2  0
 26 27  1  0
 26 28  1  0
 28 29  2  0
 29 30  1  0
 30 31  2  0
 12  7  1  0
 20 14  1  0
 31 21  1  0
 30 24  1  0
  3 32  1  0
  4 33  1  0
  4 34  1  0
  8 35  1  0
  8 36  1  0
  9 37  1  0
  9 38  1  0
 10 39  1  0
 10 40  1  0
 11 41  1  0
 11 42  1  0
 12 43  1  1
 13 44  1  0
 13 45  1  0
 15 46  1  0
 16 47  1  0
 19 48  1  0
 20 49  1  0
 22 50  1  0
 23 51  1  0
 25 52  1  0
 28 53  1  0
 29 54  1  0
M  END
>  <smiles>  (43) 
O=C(NCC(=O)N1CCCC[C@H]1Cc1ccc(Cl)cc1)c1ccc2cc(F)ccc2n1

>  <score_type>  (43) 
oracle

>  <origin>  (43) 
autodockgpu

>  <m_score__min__energy>  (43) 
-9.2100000000000009

>  <m_primary>  (43) 
energy

>  <rmsd>  (43) 
3.10857319679574

>  <m_score__min__rmsd>  (43) 
3.10857319679574

>  <meeko>  (43) 
{"free_energy": -8.29, "intermolecular_energy": -10.08, "internal_energy": -1.71, "cluster_size": 39, "cluster_id": 1, "rank_in_cluster": 37}

>  <energy>  (43) 
-8.12

>  <cluster_rmsd>  (43) 
0.0

>  <cluster>  (43) 
4

$$$$

     RDKit          3D

 54 57  0  0  0  0  0  0  0  0999 V2000
  137.9970   70.2050  221.5380 O   0  0  0  0  0  0  0  0  0  0  0  0
  138.3380   70.8270  222.5680 C   0  0  0  0  0  0  0  0  0  0  0  0
  138.1800   72.2360  222.5790 N   0  0  0  0  0  0  0  0  0  0  0  0
  137.6500   72.9640  221.4650 C   0  0  0  0  0  0  0  0  0  0  0  0
  138.1000   74.3810  221.4440 C   0  0  0  0  0  0  0  0  0  0  0  0
  137.2010   75.2580  221.4770 O   0  0  0  0  0  0  0  0  0  0  0  0
  139.4890   74.6560  221.3880 N   0  0  0  0  0  0  0  0  0  0  0  0
  140.4380   73.5840  221.0400 C   0  0  0  0  0  0  0  0  0  0  0  0
  141.6300   74.2400  220.4400 C   0  0  0  0  0  0  0  0  0  0  0  0
  141.3160   75.4510  219.6150 C   0  0  0  0  0  0  0  0  0  0  0  0
  140.5230   76.5060  220.3110 C   0  0  0  0  0  0  0  0  0  0  0  0
  140.0790   75.9480  221.6570 C   0  0  1  0  0  0  0  0  0  0  0  0
  139.2260   76.9020  222.4130 C   0  0  0  0  0  0  0  0  0  0  0  0
  140.0840   78.0580  222.8670 C   0  0  0  0  0  0  0  0  0  0  0  0
  139.4780   79.2900  223.0620 C   0  0  0  0  0  0  0  0  0  0  0  0
  140.2040   80.4050  223.4780 C   0  0  0  0  0  0  0  0  0  0  0  0
  141.5620   80.2590  223.6970 C   0  0  0  0  0  0  0  0  0  0  0  0
  142.5530   81.6270  224.2280 Cl  0  0  0  0  0  0  0  0  0  0  0  0
  142.1680   79.0220  223.5010 C   0  0  0  0  0  0  0  0  0  0  0  0
  141.4380   77.9150  223.0860 C   0  0  0  0  0  0  0  0  0  0  0  0
  138.8920   70.1490  223.7550 C   0  0  0  0  0  0  0  0  0  0  0  0
  138.8140   68.7800  223.8630 C   0  0  0  0  0  0  0  0  0  0  0  0
  139.3530   68.2100  225.0010 C   0  0  0  0  0  0  0  0  0  0  0  0
  139.9440   68.9610  225.9930 C   0  0  0  0  0  0  0  0  0  0  0  0
  140.4880   68.4230  227.1370 C   0  0  0  0  0  0  0  0  0  0  0  0
  141.0700   69.2290  228.1040 C   0  0  0  0  0  0  0  0  0  0  0  0
  141.6070   68.7120  229.2290 F   0  0  0  0  0  0  0  0  0  0  0  0
  141.1240   70.6030  227.9500 C   0  0  0  0  0  0  0  0  0  0  0  0
  140.5780   71.1620  226.8000 C   0  0  0  0  0  0  0  0  0  0  0  0
  140.0000   70.3410  225.8450 C   0  0  0  0  0  0  0  0  0  0  0  0
  139.4720   70.8770  224.7320 N   0  0  0  0  0  0  0  0  0  0  0  0
  138.4780   72.7370  223.4680 H   0  0  0  0  0  0  0  0  0  0  0  0
  137.9791   72.4757  220.5359 H   0  0  0  0  0  0  0  0  0  0  0  0
  136.5538   72.9630  221.5565 H   0  0  0  0  0  0  0  0  0  0  0  0
  140.7274   73.0271  221.9434 H   0  0  0  0  0  0  0  0  0  0  0  0
  139.9851   72.8706  220.3357 H   0  0  0  0  0  0  0  0  0  0  0  0
  142.3034   74.5433  221.2552 H   0  0  0  0  0  0  0  0  0  0  0  0
  142.0863   73.5050  219.7606 H   0  0  0  0  0  0  0  0  0  0  0  0
  142.2674   75.8984  219.2915 H   0  0  0  0  0  0  0  0  0  0  0  0
  140.6901   75.0987  218.7818 H   0  0  0  0  0  0  0  0  0  0  0  0
  141.1446   77.4005  220.4642 H   0  0  0  0  0  0  0  0  0  0  0  0
  139.6485   76.7887  219.7066 H   0  0  0  0  0  0  0  0  0  0  0  0
  140.9257   75.8077  222.3450 H   0  0  0  0  0  0  0  0  0  0  0  0
  138.4186   77.2720  221.7640 H   0  0  0  0  0  0  0  0  0  0  0  0
  138.7803   76.3994  223.2840 H   0  0  0  0  0  0  0  0  0  0  0  0
  138.3971   79.3900  222.8839 H   0  0  0  0  0  0  0  0  0  0  0  0
  139.7096   81.3761  223.6282 H   0  0  0  0  0  0  0  0  0  0  0  0
  143.2486   78.9181  223.6785 H   0  0  0  0  0  0  0  0  0  0  0  0
  141.9307   76.9432  222.9350 H   0  0  0  0  0  0  0  0  0  0  0  0
  138.3442   68.1670  223.0797 H   0  0  0  0  0  0  0  0  0  0  0  0
  139.3084   67.1172  225.1187 H   0  0  0  0  0  0  0  0  0  0  0  0
  140.4607   67.3336  227.2871 H   0  0  0  0  0  0  0  0  0  0  0  0
  141.5879   71.2380  228.7192 H   0  0  0  0  0  0  0  0  0  0  0  0
  140.6048   72.2513  226.6489 H   0  0  0  0  0  0  0  0  0  0  0  0
  1  2  2  0
  2  3  1  0
  3  4  1  0
  4  5  1  0
  5  6  2  0
  5  7  1  0
  7  8  1  0
  8  9  1  0
  9 10  1  0
 10 11  1  0
 11 12  1  0
 12 13  1  0
 13 14  1  0
 14 15  2  0
 15 16  1  0
 16 17  2  0
 17 18  1  0
 17 19  1  0
 19 20  2  0
  2 21  1  0
 21 22  2  0
 22 23  1  0
 23 24  2  0
 24 25  1  0
 25 26  2  0
 26 27  1  0
 26 28  1  0
 28 29  2  0
 29 30  1  0
 30 31  2  0
 12  7  1  0
 20 14  1  0
 31 21  1  0
 30 24  1  0
  3 32  1  0
  4 33  1  0
  4 34  1  0
  8 35  1  0
  8 36  1  0
  9 37  1  0
  9 38  1  0
 10 39  1  0
 10 40  1  0
 11 41  1  0
 11 42  1  0
 12 43  1  1
 13 44  1  0
 13 45  1  0
 15 46  1  0
 16 47  1  0
 19 48  1  0
 20 49  1  0
 22 50  1  0
 23 51  1  0
 25 52  1  0
 28 53  1  0
 29 54  1  0
M  END
>  <smiles>  (44) 
O=C(NCC(=O)N1CCCC[C@H]1Cc1ccc(Cl)cc1)c1ccc2cc(F)ccc2n1

>  <score_type>  (44) 
oracle

>  <origin>  (44) 
autodockgpu

>  <m_score__min__energy>  (44) 
-9.2100000000000009

>  <m_primary>  (44) 
energy

>  <rmsd>  (44) 
2.2772712908889026

>  <m_score__min__rmsd>  (44) 
2.2772712908889026

>  <meeko>  (44) 
{"free_energy": -8.48, "intermolecular_energy": -10.27, "internal_energy": -1.68, "cluster_size": 39, "cluster_id": 1, "rank_in_cluster": 28}

>  <energy>  (44) 
-8.11

>  <cluster_rmsd>  (44) 
0.0

>  <cluster>  (44) 
5

$$$$

     RDKit          3D

 54 57  0  0  0  0  0  0  0  0999 V2000
  135.8050   75.0010  221.6110 O   0  0  0  0  0  0  0  0  0  0  0  0
  136.9640   75.0590  222.0780 C   0  0  0  0  0  0  0  0  0  0  0  0
  137.6460   73.8410  222.3230 N   0  0  0  0  0  0  0  0  0  0  0  0
  137.0620   72.5590  222.0550 C   0  0  0  0  0  0  0  0  0  0  0  0
  137.6650   71.4760  222.8760 C   0  0  0  0  0  0  0  0  0  0  0  0
  137.0990   71.2150  223.9670 O   0  0  0  0  0  0  0  0  0  0  0  0
  138.8220   70.8160  222.3930 N   0  0  0  0  0  0  0  0  0  0  0  0
  138.6880   69.7120  221.4250 C   0  0  0  0  0  0  0  0  0  0  0  0
  139.9530   69.6670  220.6450 C   0  0  0  0  0  0  0  0  0  0  0  0
  140.5630   71.0100  220.3820 C   0  0  0  0  0  0  0  0  0  0  0  0
  140.8110   71.8430  221.5930 C   0  0  0  0  0  0  0  0  0  0  0  0
  140.1750   71.1400  222.7850 C   0  0  1  0  0  0  0  0  0  0  0  0
  140.3110   71.9200  224.0440 C   0  0  0  0  0  0  0  0  0  0  0  0
  140.4500   70.9520  225.1950 C   0  0  0  0  0  0  0  0  0  0  0  0
  140.8360   71.4510  226.4300 C   0  0  0  0  0  0  0  0  0  0  0  0
  140.9870   70.6210  227.5390 C   0  0  0  0  0  0  0  0  0  0  0  0
  140.7420   69.2680  227.3850 C   0  0  0  0  0  0  0  0  0  0  0  0
  140.9110   68.1480  228.7460 Cl  0  0  0  0  0  0  0  0  0  0  0  0
  140.3550   68.7700  226.1450 C   0  0  0  0  0  0  0  0  0  0  0  0
  140.2060   69.6030  225.0430 C   0  0  0  0  0  0  0  0  0  0  0  0
  137.6330   76.3380  222.3800 C   0  0  0  0  0  0  0  0  0  0  0  0
  136.8830   77.4700  222.5990 C   0  0  0  0  0  0  0  0  0  0  0  0
  137.5730   78.6350  222.8770 C   0  0  0  0  0  0  0  0  0  0  0  0
  138.9490   78.6810  222.9360 C   0  0  0  0  0  0  0  0  0  0  0  0
  139.6640   79.8240  223.2090 C   0  0  0  0  0  0  0  0  0  0  0  0
  141.0500   79.8120  223.2540 C   0  0  0  0  0  0  0  0  0  0  0  0
  141.7620   80.9270  223.5220 F   0  0  0  0  0  0  0  0  0  0  0  0
  141.7610   78.6460  223.0270 C   0  0  0  0  0  0  0  0  0  0  0  0
  141.0530   77.4820  222.7490 C   0  0  0  0  0  0  0  0  0  0  0  0
  139.6680   77.5140  222.7070 C   0  0  0  0  0  0  0  0  0  0  0  0
  138.9800   76.3930  222.4400 N   0  0  0  0  0  0  0  0  0  0  0  0
  138.6290   73.9210  222.7200 H   0  0  0  0  0  0  0  0  0  0  0  0
  135.9851   72.6093  222.2734 H   0  0  0  0  0  0  0  0  0  0  0  0
  137.2494   72.3207  220.9976 H   0  0  0  0  0  0  0  0  0  0  0  0
  138.5362   68.7602  221.9551 H   0  0  0  0  0  0  0  0  0  0  0  0
  137.8229   69.8700  220.7642 H   0  0  0  0  0  0  0  0  0  0  0  0
  140.6813   69.0613  221.2043 H   0  0  0  0  0  0  0  0  0  0  0  0
  139.7031   69.2368  219.6639 H   0  0  0  0  0  0  0  0  0  0  0  0
  141.5260   70.8527  219.8742 H   0  0  0  0  0  0  0  0  0  0  0  0
  139.8314   71.5638  219.7754 H   0  0  0  0  0  0  0  0  0  0  0  0
  141.8934   71.9508  221.7569 H   0  0  0  0  0  0  0  0  0  0  0  0
  140.3764   72.8452  221.4635 H   0  0  0  0  0  0  0  0  0  0  0  0
  140.6983   70.2064  223.0391 H   0  0  0  0  0  0  0  0  0  0  0  0
  141.2031   72.5612  223.9887 H   0  0  0  0  0  0  0  0  0  0  0  0
  139.4254   72.5556  224.1910 H   0  0  0  0  0  0  0  0  0  0  0  0
  141.0277   72.5289  226.5368 H   0  0  0  0  0  0  0  0  0  0  0  0
  141.2933   71.0312  228.5126 H   0  0  0  0  0  0  0  0  0  0  0  0
  140.1626   67.6926  226.0345 H   0  0  0  0  0  0  0  0  0  0  0  0
  139.8995   69.1947  224.0686 H   0  0  0  0  0  0  0  0  0  0  0  0
  135.7841   77.4491  222.5549 H   0  0  0  0  0  0  0  0  0  0  0  0
  137.0033   79.5585  223.0576 H   0  0  0  0  0  0  0  0  0  0  0  0
  139.1262   80.7653  223.3951 H   0  0  0  0  0  0  0  0  0  0  0  0
  142.8603   78.6405  223.0656 H   0  0  0  0  0  0  0  0  0  0  0  0
  141.5897   76.5400  222.5632 H   0  0  0  0  0  0  0  0  0  0  0  0
  1  2  2  0
  2  3  1  0
  3  4  1  0
  4  5  1  0
  5  6  2  0
  5  7  1  0
  7  8  1  0
  8  9  1  0
  9 10  1  0
 10 11  1  0
 11 12  1  0
 12 13  1  0
 13 14  1  0
 14 15  2  0
 15 16  1  0
 16 17  2  0
 17 18  1  0
 17 19  1  0
 19 20  2  0
  2 21  1  0
 21 22  2  0
 22 23  1  0
 23 24  2  0
 24 25  1  0
 25 26  2  0
 26 27  1  0
 26 28  1  0
 28 29  2  0
 29 30  1  0
 30 31  2  0
 12  7  1  0
 20 14  1  0
 31 21  1  0
 30 24  1  0
  3 32  1  0
  4 33  1  0
  4 34  1  0
  8 35  1  0
  8 36  1  0
  9 37  1  0
  9 38  1  0
 10 39  1  0
 10 40  1  0
 11 41  1  0
 11 42  1  0
 12 43  1  1
 13 44  1  0
 13 45  1  0
 15 46  1  0
 16 47  1  0
 19 48  1  0
 20 49  1  0
 22 50  1  0
 23 51  1  0
 25 52  1  0
 28 53  1  0
 29 54  1  0
M  END
>  <smiles>  (45) 
O=C(NCC(=O)N1CCCC[C@H]1Cc1ccc(Cl)cc1)c1ccc2cc(F)ccc2n1

>  <score_type>  (45) 
oracle

>  <origin>  (45) 
autodockgpu

>  <m_score__min__energy>  (45) 
-9.2100000000000009

>  <m_primary>  (45) 
energy

>  <rmsd>  (45) 
7.698269918368368

>  <m_score__min__rmsd>  (45) 
7.698269918368368

>  <meeko>  (45) 
{"free_energy": -7.81, "intermolecular_energy": -9.6, "internal_energy": -1.95, "cluster_size": 2, "cluster_id": 6, "rank_in_cluster": 2}

>  <energy>  (45) 
-8.11

>  <cluster_rmsd>  (45) 
1.21

>  <cluster>  (45) 
5

$$$$

     RDKit          3D

 54 57  0  0  0  0  0  0  0  0999 V2000
  140.7390   77.1580  218.3590 O   0  0  0  0  0  0  0  0  0  0  0  0
  141.9430   77.1090  218.6960 C   0  0  0  0  0  0  0  0  0  0  0  0
  142.5850   78.3200  219.0540 N   0  0  0  0  0  0  0  0  0  0  0  0
  141.9120   79.5860  219.0450 C   0  0  0  0  0  0  0  0  0  0  0  0
  140.8740   79.6850  220.1040 C   0  0  0  0  0  0  0  0  0  0  0  0
  139.7190   80.0120  219.7320 O   0  0  0  0  0  0  0  0  0  0  0  0
  141.2370   79.4140  221.4470 N   0  0  0  0  0  0  0  0  0  0  0  0
  142.5620   79.8230  221.9470 C   0  0  0  0  0  0  0  0  0  0  0  0
  142.4280   80.0170  223.4150 C   0  0  0  0  0  0  0  0  0  0  0  0
  141.1060   80.5750  223.8450 C   0  0  0  0  0  0  0  0  0  0  0  0
  139.9130   79.8100  223.3810 C   0  0  0  0  0  0  0  0  0  0  0  0
  140.3900   78.7410  222.4060 C   0  0  1  0  0  0  0  0  0  0  0  0
  139.2670   77.9540  221.8320 C   0  0  0  0  0  0  0  0  0  0  0  0
  139.6810   76.5030  221.7700 C   0  0  0  0  0  0  0  0  0  0  0  0
  141.0320   76.2100  221.6610 C   0  0  0  0  0  0  0  0  0  0  0  0
  141.4920   74.8960  221.5970 C   0  0  0  0  0  0  0  0  0  0  0  0
  140.5630   73.8720  221.6450 C   0  0  0  0  0  0  0  0  0  0  0  0
  141.0680   72.1770  221.5690 Cl  0  0  0  0  0  0  0  0  0  0  0  0
  139.2080   74.1690  221.7550 C   0  0  0  0  0  0  0  0  0  0  0  0
  138.7570   75.4820  221.8180 C   0  0  0  0  0  0  0  0  0  0  0  0
  142.7040   75.8460  218.7300 C   0  0  0  0  0  0  0  0  0  0  0  0
  142.4110   74.8430  217.8350 C   0  0  0  0  0  0  0  0  0  0  0  0
  143.1630   73.6870  217.9220 C   0  0  0  0  0  0  0  0  0  0  0  0
  144.1640   73.5250  218.8550 C   0  0  0  0  0  0  0  0  0  0  0  0
  144.9280   72.3870  218.9670 C   0  0  0  0  0  0  0  0  0  0  0  0
  145.9230   72.2800  219.9270 C   0  0  0  0  0  0  0  0  0  0  0  0
  146.6800   71.1690  220.0450 F   0  0  0  0  0  0  0  0  0  0  0  0
  146.1810   73.3180  220.8060 C   0  0  0  0  0  0  0  0  0  0  0  0
  145.4170   74.4760  220.7060 C   0  0  0  0  0  0  0  0  0  0  0  0
  144.4260   74.5630  219.7400 C   0  0  0  0  0  0  0  0  0  0  0  0
  143.6860   75.6790  219.6400 N   0  0  0  0  0  0  0  0  0  0  0  0
  143.6080   78.2470  219.3350 H   0  0  0  0  0  0  0  0  0  0  0  0
  142.6548   80.3817  219.2033 H   0  0  0  0  0  0  0  0  0  0  0  0
  141.4090   79.6908  218.0724 H   0  0  0  0  0  0  0  0  0  0  0  0
  143.3047   79.0397  221.7351 H   0  0  0  0  0  0  0  0  0  0  0  0
  142.8999   80.7479  221.4566 H   0  0  0  0  0  0  0  0  0  0  0  0
  142.5663   79.0421  223.9054 H   0  0  0  0  0  0  0  0  0  0  0  0
  143.1908   80.7542  223.7062 H   0  0  0  0  0  0  0  0  0  0  0  0
  141.0882   80.5992  224.9446 H   0  0  0  0  0  0  0  0  0  0  0  0
  141.0295   81.5701  223.3824 H   0  0  0  0  0  0  0  0  0  0  0  0
  139.4157   79.3365  224.2403 H   0  0  0  0  0  0  0  0  0  0  0  0
  139.1948   80.4828  222.8895 H   0  0  0  0  0  0  0  0  0  0  0  0
  140.9808   77.9602  222.9073 H   0  0  0  0  0  0  0  0  0  0  0  0
  138.3766   78.0589  222.4693 H   0  0  0  0  0  0  0  0  0  0  0  0
  139.0268   78.3208  220.8231 H   0  0  0  0  0  0  0  0  0  0  0  0
  141.7586   77.0351  221.6241 H   0  0  0  0  0  0  0  0  0  0  0  0
  142.5668   74.6785  221.5105 H   0  0  0  0  0  0  0  0  0  0  0  0
  138.4782   73.3469  221.7929 H   0  0  0  0  0  0  0  0  0  0  0  0
  137.6827   75.7020  221.9045 H   0  0  0  0  0  0  0  0  0  0  0  0
  141.6147   74.9561  217.0846 H   0  0  0  0  0  0  0  0  0  0  0  0
  142.9548   72.8657  217.2205 H   0  0  0  0  0  0  0  0  0  0  0  0
  144.7464   71.5456  218.2821 H   0  0  0  0  0  0  0  0  0  0  0  0
  146.9716   73.2290  221.5656 H   0  0  0  0  0  0  0  0  0  0  0  0
  145.5980   75.3185  221.3897 H   0  0  0  0  0  0  0  0  0  0  0  0
  1  2  2  0
  2  3  1  0
  3  4  1  0
  4  5  1  0
  5  6  2  0
  5  7  1  0
  7  8  1  0
  8  9  1  0
  9 10  1  0
 10 11  1  0
 11 12  1  0
 12 13  1  0
 13 14  1  0
 14 15  2  0
 15 16  1  0
 16 17  2  0
 17 18  1  0
 17 19  1  0
 19 20  2  0
  2 21  1  0
 21 22  2  0
 22 23  1  0
 23 24  2  0
 24 25  1  0
 25 26  2  0
 26 27  1  0
 26 28  1  0
 28 29  2  0
 29 30  1  0
 30 31  2  0
 12  7  1  0
 20 14  1  0
 31 21  1  0
 30 24  1  0
  3 32  1  0
  4 33  1  0
  4 34  1  0
  8 35  1  0
  8 36  1  0
  9 37  1  0
  9 38  1  0
 10 39  1  0
 10 40  1  0
 11 41  1  0
 11 42  1  0
 12 43  1  1
 13 44  1  0
 13 45  1  0
 15 46  1  0
 16 47  1  0
 19 48  1  0
 20 49  1  0
 22 50  1  0
 23 51  1  0
 25 52  1  0
 28 53  1  0
 29 54  1  0
M  END
>  <smiles>  (46) 
O=C(NCC(=O)N1CCCC[C@H]1Cc1ccc(Cl)cc1)c1ccc2cc(F)ccc2n1

>  <score_type>  (46) 
oracle

>  <origin>  (46) 
autodockgpu

>  <m_score__min__energy>  (46) 
-9.2100000000000009

>  <m_primary>  (46) 
energy

>  <rmsd>  (46) 
7.6943835365881315

>  <m_score__min__rmsd>  (46) 
7.6943835365881315

>  <meeko>  (46) 
{"free_energy": -6.84, "intermolecular_energy": -8.63, "internal_energy": -3.12, "cluster_size": 2, "cluster_id": 7, "rank_in_cluster": 2}

>  <energy>  (46) 
-8.1

>  <cluster_rmsd>  (46) 
1.23

>  <cluster>  (46) 
5

$$$$

     RDKit          3D

 54 57  0  0  0  0  0  0  0  0999 V2000
  137.9020   70.5610  221.6280 O   0  0  0  0  0  0  0  0  0  0  0  0
  138.4960   71.0470  222.6150 C   0  0  0  0  0  0  0  0  0  0  0  0
  138.7410   72.4430  222.6250 N   0  0  0  0  0  0  0  0  0  0  0  0
  138.3350   73.3080  221.5560 C   0  0  0  0  0  0  0  0  0  0  0  0
  138.8440   74.6950  221.7220 C   0  0  0  0  0  0  0  0  0  0  0  0
  139.5830   74.9080  222.7150 O   0  0  0  0  0  0  0  0  0  0  0  0
  138.4720   75.6780  220.7710 N   0  0  0  0  0  0  0  0  0  0  0  0
  138.7940   75.4820  219.3460 C   0  0  0  0  0  0  0  0  0  0  0  0
  137.7870   76.2490  218.5660 C   0  0  0  0  0  0  0  0  0  0  0  0
  136.4180   76.2620  219.1730 C   0  0  0  0  0  0  0  0  0  0  0  0
  136.3520   76.7380  220.5840 C   0  0  0  0  0  0  0  0  0  0  0  0
  137.7790   76.9060  221.0900 C   0  0  1  0  0  0  0  0  0  0  0  0
  137.8310   77.3230  222.5160 C   0  0  0  0  0  0  0  0  0  0  0  0
  139.1070   78.0980  222.7430 C   0  0  0  0  0  0  0  0  0  0  0  0
  139.0350   79.2900  223.4480 C   0  0  0  0  0  0  0  0  0  0  0  0
  140.1680   80.0630  223.6960 C   0  0  0  0  0  0  0  0  0  0  0  0
  141.3860   79.6130  223.2190 C   0  0  0  0  0  0  0  0  0  0  0  0
  142.8710   80.5370  223.4940 Cl  0  0  0  0  0  0  0  0  0  0  0  0
  141.4560   78.4170  222.5130 C   0  0  0  0  0  0  0  0  0  0  0  0
  140.3220   77.6510  222.2690 C   0  0  0  0  0  0  0  0  0  0  0  0
  138.9460   70.2240  223.7530 C   0  0  0  0  0  0  0  0  0  0  0  0
  138.7270   68.8660  223.7470 C   0  0  0  0  0  0  0  0  0  0  0  0
  139.1740   68.1540  224.8440 C   0  0  0  0  0  0  0  0  0  0  0  0
  139.8100   68.7590  225.9070 C   0  0  0  0  0  0  0  0  0  0  0  0
  140.2640   68.0780  227.0130 C   0  0  0  0  0  0  0  0  0  0  0  0
  140.8980   68.7400  228.0540 C   0  0  0  0  0  0  0  0  0  0  0  0
  141.3490   68.0830  229.1430 F   0  0  0  0  0  0  0  0  0  0  0  0
  141.0940   70.1090  228.0140 C   0  0  0  0  0  0  0  0  0  0  0  0
  140.6410   70.8120  226.9030 C   0  0  0  0  0  0  0  0  0  0  0  0
  140.0090   70.1330  225.8730 C   0  0  0  0  0  0  0  0  0  0  0  0
  139.5690   70.8070  224.7980 N   0  0  0  0  0  0  0  0  0  0  0  0
  139.2470   72.8280  223.4770 H   0  0  0  0  0  0  0  0  0  0  0  0
  138.7191   72.9022  220.6085 H   0  0  0  0  0  0  0  0  0  0  0  0
  137.2359   73.3523  221.5607 H   0  0  0  0  0  0  0  0  0  0  0  0
  139.8052   75.8582  219.1315 H   0  0  0  0  0  0  0  0  0  0  0  0
  138.7687   74.4150  219.0798 H   0  0  0  0  0  0  0  0  0  0  0  0
  138.1361   77.2886  218.4807 H   0  0  0  0  0  0  0  0  0  0  0  0
  137.6950   75.7480  217.5910 H   0  0  0  0  0  0  0  0  0  0  0  0
  135.7816   76.9193  218.5624 H   0  0  0  0  0  0  0  0  0  0  0  0
  136.0821   75.2147  219.1890 H   0  0  0  0  0  0  0  0  0  0  0  0
  135.8239   77.7019  220.6287 H   0  0  0  0  0  0  0  0  0  0  0  0
  135.8078   76.0132  221.2073 H   0  0  0  0  0  0  0  0  0  0  0  0
  138.2969   77.7388  220.5917 H   0  0  0  0  0  0  0  0  0  0  0  0
  136.9642   77.9592  222.7483 H   0  0  0  0  0  0  0  0  0  0  0  0
  137.8069   76.4377  223.1684 H   0  0  0  0  0  0  0  0  0  0  0  0
  138.0591   79.6342  223.8209 H   0  0  0  0  0  0  0  0  0  0  0  0
  140.0955   81.0066  224.2566 H   0  0  0  0  0  0  0  0  0  0  0  0
  142.4304   78.0694  222.1393 H   0  0  0  0  0  0  0  0  0  0  0  0
  140.3927   76.7069  221.7088 H   0  0  0  0  0  0  0  0  0  0  0  0
  138.2191   68.3692  222.9072 H   0  0  0  0  0  0  0  0  0  0  0  0
  139.0166   67.0656  224.8698 H   0  0  0  0  0  0  0  0  0  0  0  0
  140.1216   66.9889  227.0727 H   0  0  0  0  0  0  0  0  0  0  0  0
  141.5968   70.6296  228.8424 H   0  0  0  0  0  0  0  0  0  0  0  0
  140.7835   71.9010  226.8419 H   0  0  0  0  0  0  0  0  0  0  0  0
  1  2  2  0
  2  3  1  0
  3  4  1  0
  4  5  1  0
  5  6  2  0
  5  7  1  0
  7  8  1  0
  8  9  1  0
  9 10  1  0
 10 11  1  0
 11 12  1  0
 12 13  1  0
 13 14  1  0
 14 15  2  0
 15 16  1  0
 16 17  2  0
 17 18  1  0
 17 19  1  0
 19 20  2  0
  2 21  1  0
 21 22  2  0
 22 23  1  0
 23 24  2  0
 24 25  1  0
 25 26  2  0
 26 27  1  0
 26 28  1  0
 28 29  2  0
 29 30  1  0
 30 31  2  0
 12  7  1  0
 20 14  1  0
 31 21  1  0
 30 24  1  0
  3 32  1  0
  4 33  1  0
  4 34  1  0
  8 35  1  0
  8 36  1  0
  9 37  1  0
  9 38  1  0
 10 39  1  0
 10 40  1  0
 11 41  1  0
 11 42  1  0
 12 43  1  6
 13 44  1  0
 13 45  1  0
 15 46  1  0
 16 47  1  0
 19 48  1  0
 20 49  1  0
 22 50  1  0
 23 51  1  0
 25 52  1  0
 28 53  1  0
 29 54  1  0
M  END
>  <smiles>  (47) 
O=C(NCC(=O)N1CCCC[C@H]1Cc1ccc(Cl)cc1)c1ccc2cc(F)ccc2n1

>  <score_type>  (47) 
oracle

>  <origin>  (47) 
autodockgpu

>  <m_score__min__energy>  (47) 
-9.2100000000000009

>  <m_primary>  (47) 
energy

>  <rmsd>  (47) 
2.3475869561088474

>  <m_score__min__rmsd>  (47) 
2.3475869561088474

>  <meeko>  (47) 
{"free_energy": -8.11, "intermolecular_energy": -9.9, "internal_energy": -2.25, "cluster_size": 3, "cluster_id": 5, "rank_in_cluster": 1}

>  <energy>  (47) 
-7.9

>  <cluster_rmsd>  (47) 
0.0

>  <cluster>  (47) 
6

$$$$

     RDKit          3D

 54 57  0  0  0  0  0  0  0  0999 V2000
  139.7390   70.7050  221.3380 O   0  0  0  0  0  0  0  0  0  0  0  0
  139.6440   71.4730  222.3210 C   0  0  0  0  0  0  0  0  0  0  0  0
  139.1820   72.7930  222.0930 N   0  0  0  0  0  0  0  0  0  0  0  0
  138.8230   73.2740  220.7920 C   0  0  0  0  0  0  0  0  0  0  0  0
  140.0080   73.5260  219.9310 C   0  0  0  0  0  0  0  0  0  0  0  0
  139.8370   73.4130  218.6910 O   0  0  0  0  0  0  0  0  0  0  0  0
  141.2380   73.8690  220.5440 N   0  0  0  0  0  0  0  0  0  0  0  0
  142.2370   72.8230  220.8240 C   0  0  0  0  0  0  0  0  0  0  0  0
  143.5680   73.4870  220.8320 C   0  0  0  0  0  0  0  0  0  0  0  0
  143.7050   74.6030  219.8420 C   0  0  0  0  0  0  0  0  0  0  0  0
  142.6680   75.6700  219.9400 C   0  0  0  0  0  0  0  0  0  0  0  0
  141.6130   75.2090  220.9370 C   0  0  1  0  0  0  0  0  0  0  0  0
  140.4930   76.1780  221.0670 C   0  0  0  0  0  0  0  0  0  0  0  0
  141.0170   77.4300  221.7300 C   0  0  0  0  0  0  0  0  0  0  0  0
  141.1400   77.4390  223.1120 C   0  0  0  0  0  0  0  0  0  0  0  0
  141.6140   78.5570  223.7960 C   0  0  0  0  0  0  0  0  0  0  0  0
  141.9660   79.6750  223.0620 C   0  0  0  0  0  0  0  0  0  0  0  0
  142.5780   81.1340  223.8580 Cl  0  0  0  0  0  0  0  0  0  0  0  0
  141.8430   79.6630  221.6760 C   0  0  0  0  0  0  0  0  0  0  0  0
  141.3690   78.5450  221.0010 C   0  0  0  0  0  0  0  0  0  0  0  0
  139.9950   71.0520  223.6900 C   0  0  0  0  0  0  0  0  0  0  0  0
  140.6910   71.9060  224.5140 C   0  0  0  0  0  0  0  0  0  0  0  0
  140.9870   71.4490  225.7840 C   0  0  0  0  0  0  0  0  0  0  0  0
  140.6110   70.1990  226.2240 C   0  0  0  0  0  0  0  0  0  0  0  0
  140.8910   69.7150  227.4820 C   0  0  0  0  0  0  0  0  0  0  0  0
  140.4870   68.4460  227.8710 C   0  0  0  0  0  0  0  0  0  0  0  0
  140.7550   67.9630  229.1020 F   0  0  0  0  0  0  0  0  0  0  0  0
  139.7880   67.6240  227.0060 C   0  0  0  0  0  0  0  0  0  0  0  0
  139.4970   68.0980  225.7310 C   0  0  0  0  0  0  0  0  0  0  0  0
  139.9090   69.3680  225.3600 C   0  0  0  0  0  0  0  0  0  0  0  0
  139.6300   69.8300  224.1300 N   0  0  0  0  0  0  0  0  0  0  0  0
  139.1110   73.4220  222.9470 H   0  0  0  0  0  0  0  0  0  0  0  0
  138.1844   72.5239  220.3025 H   0  0  0  0  0  0  0  0  0  0  0  0
  138.2959   74.2305  220.9232 H   0  0  0  0  0  0  0  0  0  0  0  0
  142.0382   72.3626  221.8030 H   0  0  0  0  0  0  0  0  0  0  0  0
  142.1982   72.0284  220.0644 H   0  0  0  0  0  0  0  0  0  0  0  0
  143.7434   73.8954  221.8382 H   0  0  0  0  0  0  0  0  0  0  0  0
  144.3044   72.7209  220.5477 H   0  0  0  0  0  0  0  0  0  0  0  0
  144.6895   75.0707  219.9906 H   0  0  0  0  0  0  0  0  0  0  0  0
  143.5804   74.1468  218.8488 H   0  0  0  0  0  0  0  0  0  0  0  0
  143.1275   76.6066  220.2888 H   0  0  0  0  0  0  0  0  0  0  0  0
  142.2112   75.8512  218.9559 H   0  0  0  0  0  0  0  0  0  0  0  0
  142.0048   75.1751  221.9643 H   0  0  0  0  0  0  0  0  0  0  0  0
  140.0973   76.4237  220.0705 H   0  0  0  0  0  0  0  0  0  0  0  0
  139.6849   75.7411  221.6720 H   0  0  0  0  0  0  0  0  0  0  0  0
  140.8565   76.5418  223.6817 H   0  0  0  0  0  0  0  0  0  0  0  0
  141.7058   78.5503  224.8921 H   0  0  0  0  0  0  0  0  0  0  0  0
  142.1271   80.5577  221.1026 H   0  0  0  0  0  0  0  0  0  0  0  0
  141.2764   78.5499  219.9049 H   0  0  0  0  0  0  0  0  0  0  0  0
  140.9979   72.9072  224.1771 H   0  0  0  0  0  0  0  0  0  0  0  0
  141.5428   72.1070  226.4682 H   0  0  0  0  0  0  0  0  0  0  0  0
  141.4454   70.3462  228.1920 H   0  0  0  0  0  0  0  0  0  0  0  0
  139.4695   66.6187  227.3189 H   0  0  0  0  0  0  0  0  0  0  0  0
  138.9423   67.4675  225.0205 H   0  0  0  0  0  0  0  0  0  0  0  0
  1  2  2  0
  2  3  1  0
  3  4  1  0
  4  5  1  0
  5  6  2  0
  5  7  1  0
  7  8  1  0
  8  9  1  0
  9 10  1  0
 10 11  1  0
 11 12  1  0
 12 13  1  0
 13 14  1  0
 14 15  2  0
 15 16  1  0
 16 17  2  0
 17 18  1  0
 17 19  1  0
 19 20  2  0
  2 21  1  0
 21 22  2  0
 22 23  1  0
 23 24  2  0
 24 25  1  0
 25 26  2  0
 26 27  1  0
 26 28  1  0
 28 29  2  0
 29 30  1  0
 30 31  2  0
 12  7  1  0
 20 14  1  0
 31 21  1  0
 30 24  1  0
  3 32  1  0
  4 33  1  0
  4 34  1  0
  8 35  1  0
  8 36  1  0
  9 37  1  0
  9 38  1  0
 10 39  1  0
 10 40  1  0
 11 41  1  0
 11 42  1  0
 12 43  1  1
 13 44  1  0
 13 45  1  0
 15 46  1  0
 16 47  1  0
 19 48  1  0
 20 49  1  0
 22 50  1  0
 23 51  1  0
 25 52  1  0
 28 53  1  0
 29 54  1  0
M  END
>  <smiles>  (48) 
O=C(NCC(=O)N1CCCC[C@H]1Cc1ccc(Cl)cc1)c1ccc2cc(F)ccc2n1

>  <score_type>  (48) 
oracle

>  <origin>  (48) 
autodockgpu

>  <m_score__min__energy>  (48) 
-9.2100000000000009

>  <m_primary>  (48) 
energy

>  <rmsd>  (48) 
3.286096297435008

>  <m_score__min__rmsd>  (48) 
3.286096297435008

>  <meeko>  (48) 
{"free_energy": -8.97, "intermolecular_energy": -10.76, "internal_energy": -1.71, "cluster_size": 39, "cluster_id": 1, "rank_in_cluster": 9}

>  <energy>  (48) 
-7.81

>  <cluster_rmsd>  (48) 
1.27

>  <cluster>  (48) 
6

$$$$

     RDKit          3D

 54 57  0  0  0  0  0  0  0  0999 V2000
  138.8540   71.2310  221.3400 O   0  0  0  0  0  0  0  0  0  0  0  0
  139.2530   71.6350  222.4540 C   0  0  0  0  0  0  0  0  0  0  0  0
  139.5190   73.0190  222.6050 N   0  0  0  0  0  0  0  0  0  0  0  0
  139.3490   73.9610  221.5380 C   0  0  0  0  0  0  0  0  0  0  0  0
  140.3280   73.7600  220.4390 C   0  0  0  0  0  0  0  0  0  0  0  0
  139.9300   73.1030  219.4440 O   0  0  0  0  0  0  0  0  0  0  0  0
  141.6280   74.3070  220.5710 N   0  0  0  0  0  0  0  0  0  0  0  0
  142.7780   73.4190  220.8200 C   0  0  0  0  0  0  0  0  0  0  0  0
  143.9810   74.1090  220.2820 C   0  0  0  0  0  0  0  0  0  0  0  0
  143.7290   74.9080  219.0410 C   0  0  0  0  0  0  0  0  0  0  0  0
  142.6390   75.9200  219.1470 C   0  0  0  0  0  0  0  0  0  0  0  0
  141.9370   75.7170  220.4830 C   0  0  1  0  0  0  0  0  0  0  0  0
  140.7880   76.6410  220.6680 C   0  0  0  0  0  0  0  0  0  0  0  0
  141.2210   77.7720  221.5690 C   0  0  0  0  0  0  0  0  0  0  0  0
  141.7430   78.9160  220.9840 C   0  0  0  0  0  0  0  0  0  0  0  0
  142.1660   80.0010  221.7490 C   0  0  0  0  0  0  0  0  0  0  0  0
  142.0550   79.9170  223.1250 C   0  0  0  0  0  0  0  0  0  0  0  0
  142.5700   81.2530  224.1660 Cl  0  0  0  0  0  0  0  0  0  0  0  0
  141.5310   78.7680  223.7100 C   0  0  0  0  0  0  0  0  0  0  0  0
  141.1110   77.6900  222.9410 C   0  0  0  0  0  0  0  0  0  0  0  0
  139.4540   70.7280  223.6000 C   0  0  0  0  0  0  0  0  0  0  0  0
  139.0580   69.4140  223.5130 C   0  0  0  0  0  0  0  0  0  0  0  0
  139.2750   68.6190  224.6220 C   0  0  0  0  0  0  0  0  0  0  0  0
  139.8590   69.1020  225.7730 C   0  0  0  0  0  0  0  0  0  0  0  0
  140.0880   68.3370  226.8930 C   0  0  0  0  0  0  0  0  0  0  0  0
  140.6810   68.8780  228.0250 C   0  0  0  0  0  0  0  0  0  0  0  0
  140.9100   68.1370  229.1290 F   0  0  0  0  0  0  0  0  0  0  0  0
  141.0620   70.2070  228.0640 C   0  0  0  0  0  0  0  0  0  0  0  0
  140.8370   70.9950  226.9400 C   0  0  0  0  0  0  0  0  0  0  0  0
  140.2440   70.4360  225.8180 C   0  0  0  0  0  0  0  0  0  0  0  0
  140.0250   71.1930  224.7300 N   0  0  0  0  0  0  0  0  0  0  0  0
  139.8570   73.3330  223.5630 H   0  0  0  0  0  0  0  0  0  0  0  0
  138.3334   73.8518  221.1298 H   0  0  0  0  0  0  0  0  0  0  0  0
  139.5133   74.9670  221.9515 H   0  0  0  0  0  0  0  0  0  0  0  0
  142.8937   73.2436  221.8998 H   0  0  0  0  0  0  0  0  0  0  0  0
  142.6339   72.4426  220.3344 H   0  0  0  0  0  0  0  0  0  0  0  0
  144.3641   74.7886  221.0575 H   0  0  0  0  0  0  0  0  0  0  0  0
  144.7002   73.3225  220.0099 H   0  0  0  0  0  0  0  0  0  0  0  0
  144.6588   75.4354  218.7814 H   0  0  0  0  0  0  0  0  0  0  0  0
  143.4033   74.1881  218.2757 H   0  0  0  0  0  0  0  0  0  0  0  0
  143.0644   76.9333  219.0990 H   0  0  0  0  0  0  0  0  0  0  0  0
  141.9254   75.8014  218.3183 H   0  0  0  0  0  0  0  0  0  0  0  0
  142.5822   75.9868  221.3320 H   0  0  0  0  0  0  0  0  0  0  0  0
  140.4746   77.0428  219.6931 H   0  0  0  0  0  0  0  0  0  0  0  0
  139.9416   76.1030  221.1198 H   0  0  0  0  0  0  0  0  0  0  0  0
  141.8252   78.9681  219.8883 H   0  0  0  0  0  0  0  0  0  0  0  0
  142.5779   80.9018  221.2705 H   0  0  0  0  0  0  0  0  0  0  0  0
  141.4476   78.7122  224.8054 H   0  0  0  0  0  0  0  0  0  0  0  0
  140.6986   76.7884  223.4174 H   0  0  0  0  0  0  0  0  0  0  0  0
  138.5896   69.0139  222.6017 H   0  0  0  0  0  0  0  0  0  0  0  0
  138.9707   67.5626  224.5848 H   0  0  0  0  0  0  0  0  0  0  0  0
  139.7956   67.2766  226.8913 H   0  0  0  0  0  0  0  0  0  0  0  0
  141.5322   70.6312  228.9634 H   0  0  0  0  0  0  0  0  0  0  0  0
  141.1279   72.0558  226.9412 H   0  0  0  0  0  0  0  0  0  0  0  0
  1  2  2  0
  2  3  1  0
  3  4  1  0
  4  5  1  0
  5  6  2  0
  5  7  1  0
  7  8  1  0
  8  9  1  0
  9 10  1  0
 10 11  1  0
 11 12  1  0
 12 13  1  0
 13 14  1  0
 14 15  2  0
 15 16  1  0
 16 17  2  0
 17 18  1  0
 17 19  1  0
 19 20  2  0
  2 21  1  0
 21 22  2  0
 22 23  1  0
 23 24  2  0
 24 25  1  0
 25 26  2  0
 26 27  1  0
 26 28  1  0
 28 29  2  0
 29 30  1  0
 30 31  2  0
 12  7  1  0
 20 14  1  0
 31 21  1  0
 30 24  1  0
  3 32  1  0
  4 33  1  0
  4 34  1  0
  8 35  1  0
  8 36  1  0
  9 37  1  0
  9 38  1  0
 10 39  1  0
 10 40  1  0
 11 41  1  0
 11 42  1  0
 12 43  1  1
 13 44  1  0
 13 45  1  0
 15 46  1  0
 16 47  1  0
 19 48  1  0
 20 49  1  0
 22 50  1  0
 23 51  1  0
 25 52  1  0
 28 53  1  0
 29 54  1  0
M  END
>  <smiles>  (49) 
O=C(NCC(=O)N1CCCC[C@H]1Cc1ccc(Cl)cc1)c1ccc2cc(F)ccc2n1

>  <score_type>  (49) 
oracle

>  <origin>  (49) 
autodockgpu

>  <m_score__min__energy>  (49) 
-9.2100000000000009

>  <m_primary>  (49) 
energy

>  <rmsd>  (49) 
2.379098356476532

>  <m_score__min__rmsd>  (49) 
2.379098356476532

>  <meeko>  (49) 
{"free_energy": -9.01, "intermolecular_energy": -10.8, "internal_energy": -1.77, "cluster_size": 39, "cluster_id": 1, "rank_in_cluster": 5}

>  <energy>  (49) 
-7.16

>  <cluster_rmsd>  (49) 
0.0

>  <cluster>  (49) 
7

$$$$

     RDKit          3D

 54 57  0  0  0  0  0  0  0  0999 V2000
  138.2380   71.7800  222.1220 O   0  0  0  0  0  0  0  0  0  0  0  0
  139.2280   71.8060  222.8870 C   0  0  0  0  0  0  0  0  0  0  0  0
  140.1860   72.8340  222.7030 N   0  0  0  0  0  0  0  0  0  0  0  0
  140.0630   73.8350  221.6840 C   0  0  0  0  0  0  0  0  0  0  0  0
  140.8920   73.5340  220.4880 C   0  0  0  0  0  0  0  0  0  0  0  0
  140.4180   72.7090  219.6670 O   0  0  0  0  0  0  0  0  0  0  0  0
  142.1450   74.1800  220.3440 N   0  0  0  0  0  0  0  0  0  0  0  0
  143.3840   73.4700  220.7080 C   0  0  0  0  0  0  0  0  0  0  0  0
  144.4770   74.0630  219.8930 C   0  0  0  0  0  0  0  0  0  0  0  0
  144.0630   74.4740  218.5130 C   0  0  0  0  0  0  0  0  0  0  0  0
  142.8990   75.4050  218.4510 C   0  0  0  0  0  0  0  0  0  0  0  0
  142.3210   75.5290  219.8540 C   0  0  1  0  0  0  0  0  0  0  0  0
  141.1110   76.3920  219.8960 C   0  0  0  0  0  0  0  0  0  0  0  0
  141.3400   77.4900  220.9080 C   0  0  0  0  0  0  0  0  0  0  0  0
  141.8120   78.7130  220.4540 C   0  0  0  0  0  0  0  0  0  0  0  0
  142.0490   79.7730  221.3260 C   0  0  0  0  0  0  0  0  0  0  0  0
  141.8020   79.5830  222.6740 C   0  0  0  0  0  0  0  0  0  0  0  0
  142.0770   80.8820  223.8450 Cl  0  0  0  0  0  0  0  0  0  0  0  0
  141.3270   78.3560  223.1260 C   0  0  0  0  0  0  0  0  0  0  0  0
  141.0930   77.3020  222.2510 C   0  0  0  0  0  0  0  0  0  0  0  0
  139.4260   70.8120  223.9580 C   0  0  0  0  0  0  0  0  0  0  0  0
  138.9850   69.5200  223.7880 C   0  0  0  0  0  0  0  0  0  0  0  0
  139.2030   68.6400  224.8300 C   0  0  0  0  0  0  0  0  0  0  0  0
  139.8310   69.0200  225.9970 C   0  0  0  0  0  0  0  0  0  0  0  0
  140.0610   68.1680  227.0530 C   0  0  0  0  0  0  0  0  0  0  0  0
  140.6990   68.6070  228.2040 C   0  0  0  0  0  0  0  0  0  0  0  0
  140.9310   67.7800  229.2450 F   0  0  0  0  0  0  0  0  0  0  0  0
  141.1250   69.9170  228.3280 C   0  0  0  0  0  0  0  0  0  0  0  0
  140.8990   70.7910  227.2700 C   0  0  0  0  0  0  0  0  0  0  0  0
  140.2600   70.3350  226.1280 C   0  0  0  0  0  0  0  0  0  0  0  0
  140.0400   71.1740  225.1040 N   0  0  0  0  0  0  0  0  0  0  0  0
  141.0160   72.8300  223.3670 H   0  0  0  0  0  0  0  0  0  0  0  0
  139.0088   73.8973  221.3760 H   0  0  0  0  0  0  0  0  0  0  0  0
  140.4179   74.7869  222.1058 H   0  0  0  0  0  0  0  0  0  0  0  0
  143.5957   73.6035  221.7791 H   0  0  0  0  0  0  0  0  0  0  0  0
  143.2905   72.3910  220.5157 H   0  0  0  0  0  0  0  0  0  0  0  0
  144.8551   74.9523  220.4185 H   0  0  0  0  0  0  0  0  0  0  0  0
  145.2409   73.2806  219.7731 H   0  0  0  0  0  0  0  0  0  0  0  0
  144.9205   74.9686  218.0334 H   0  0  0  0  0  0  0  0  0  0  0  0
  143.7455   73.5531  218.0021 H   0  0  0  0  0  0  0  0  0  0  0  0
  143.2289   76.3920  218.0945 H   0  0  0  0  0  0  0  0  0  0  0  0
  142.1378   75.0197  217.7566 H   0  0  0  0  0  0  0  0  0  0  0  0
  143.0026   76.0611  220.5339 H   0  0  0  0  0  0  0  0  0  0  0  0
  140.9351   76.8328  218.9037 H   0  0  0  0  0  0  0  0  0  0  0  0
  140.2320   75.7949  220.1802 H   0  0  0  0  0  0  0  0  0  0  0  0
  142.0037   78.8489  219.3794 H   0  0  0  0  0  0  0  0  0  0  0  0
  142.4233   80.7374  220.9521 H   0  0  0  0  0  0  0  0  0  0  0  0
  141.1323   78.2171  224.1997 H   0  0  0  0  0  0  0  0  0  0  0  0
  140.7182   76.3370  222.6227 H   0  0  0  0  0  0  0  0  0  0  0  0
  138.4812   69.2019  222.8633 H   0  0  0  0  0  0  0  0  0  0  0  0
  138.8635   67.5990  224.7250 H   0  0  0  0  0  0  0  0  0  0  0  0
  139.7332   67.1203  226.9832 H   0  0  0  0  0  0  0  0  0  0  0  0
  141.6310   70.2598  229.2426 H   0  0  0  0  0  0  0  0  0  0  0  0
  141.2259   71.8390  227.3394 H   0  0  0  0  0  0  0  0  0  0  0  0
  1  2  2  0
  2  3  1  0
  3  4  1  0
  4  5  1  0
  5  6  2  0
  5  7  1  0
  7  8  1  0
  8  9  1  0
  9 10  1  0
 10 11  1  0
 11 12  1  0
 12 13  1  0
 13 14  1  0
 14 15  2  0
 15 16  1  0
 16 17  2  0
 17 18  1  0
 17 19  1  0
 19 20  2  0
  2 21  1  0
 21 22  2  0
 22 23  1  0
 23 24  2  0
 24 25  1  0
 25 26  2  0
 26 27  1  0
 26 28  1  0
 28 29  2  0
 29 30  1  0
 30 31  2  0
 12  7  1  0
 20 14  1  0
 31 21  1  0
 30 24  1  0
  3 32  1  0
  4 33  1  0
  4 34  1  0
  8 35  1  0
  8 36  1  0
  9 37  1  0
  9 38  1  0
 10 39  1  0
 10 40  1  0
 11 41  1  0
 11 42  1  0
 12 43  1  1
 13 44  1  0
 13 45  1  0
 15 46  1  0
 16 47  1  0
 19 48  1  0
 20 49  1  0
 22 50  1  0
 23 51  1  0
 25 52  1  0
 28 53  1  0
 29 54  1  0
M  END
>  <smiles>  (50) 
O=C(NCC(=O)N1CCCC[C@H]1Cc1ccc(Cl)cc1)c1ccc2cc(F)ccc2n1

>  <score_type>  (50) 
oracle

>  <origin>  (50) 
autodockgpu

>  <m_score__min__energy>  (50) 
-9.2100000000000009

>  <m_primary>  (50) 
energy

>  <rmsd>  (50) 
2.5975729159009364

>  <m_score__min__rmsd>  (50) 
2.5975729159009364

>  <meeko>  (50) 
{"free_energy": -8.41, "intermolecular_energy": -10.2, "internal_energy": -1.63, "cluster_size": 39, "cluster_id": 1, "rank_in_cluster": 32}

>  <energy>  (50) 
-6.84

>  <cluster_rmsd>  (50) 
0.4

>  <cluster>  (50) 
7

$$$$
