
     RDKit          3D

 56 59  0  0  0  0  0  0  0  0999 V2000
  139.1820   71.3670  221.1050 O   0  0  0  0  0  0  0  0  0  0  0  0
  139.3810   71.9250  222.2280 C   0  0  0  0  0  0  0  0  0  0  0  0
  139.4020   73.3430  222.3200 N   0  0  0  0  0  0  0  0  0  0  0  0
  139.2050   74.2150  221.1840 C   0  0  0  0  0  0  0  0  0  0  0  0
  139.8540   75.5260  221.4420 C   0  0  0  0  0  0  0  0  0  0  0  0
  139.2260   76.3450  222.1490 O   0  0  0  0  0  0  0  0  0  0  0  0
  141.1320   75.7650  220.8750 N   0  0  0  0  0  0  0  0  0  0  0  0
  142.2920   74.8540  220.8920 C   0  0  0  0  0  0  0  0  0  0  0  0
  143.0110   75.1890  219.6030 C   0  0  0  0  0  0  0  0  0  0  0  0
  142.1000   76.2490  218.9150 C   0  0  0  0  0  0  0  0  0  0  0  0
  141.6220   76.9360  220.1490 C   0  0  1  0  0  0  0  0  0  0  0  0
  140.7440   78.0890  220.0660 C   0  0  0  0  0  0  0  0  0  0  0  0
  140.1050   78.6620  221.1580 N   0  0  0  0  0  0  0  0  0  0  0  0
  140.7430   79.4840  222.0870 C   0  0  0  0  0  0  0  0  0  0  0  0
  141.4200   78.6840  223.2200 C   0  0  0  0  0  0  0  0  0  0  0  0
  142.2580   79.7410  223.8950 C   0  0  0  0  0  0  0  0  0  0  0  0
  142.4150   80.8750  222.8790 C   0  0  0  0  0  0  0  0  0  0  0  0
  141.9640   80.2170  221.5670 C   0  0  0  0  0  0  0  0  0  0  0  0
  139.5940   71.1050  223.4390 C   0  0  0  0  0  0  0  0  0  0  0  0
  139.2770   69.7580  223.3920 C   0  0  0  0  0  0  0  0  0  0  0  0
  139.4940   69.0370  224.5500 C   0  0  0  0  0  0  0  0  0  0  0  0
  140.0020   69.6340  225.6960 C   0  0  0  0  0  0  0  0  0  0  0  0
  140.2280   68.9370  226.8620 C   0  0  0  0  0  0  0  0  0  0  0  0
  140.7340   69.5850  227.9690 C   0  0  0  0  0  0  0  0  0  0  0  0
  140.9320   68.8450  229.0810 F   0  0  0  0  0  0  0  0  0  0  0  0
  141.0380   70.9380  227.9750 C   0  0  0  0  0  0  0  0  0  0  0  0
  140.8120   71.6350  226.8100 C   0  0  0  0  0  0  0  0  0  0  0  0
  140.3010   70.9920  225.6820 C   0  0  0  0  0  0  0  0  0  0  0  0
  140.0850   71.6820  224.5500 N   0  0  0  0  0  0  0  0  0  0  0  0
  139.5750   73.7330  223.2860 H   0  0  0  0  0  0  0  0  0  0  0  0
  139.6504   73.7561  220.2890 H   0  0  0  0  0  0  0  0  0  0  0  0
  138.1274   74.3668  221.0233 H   0  0  0  0  0  0  0  0  0  0  0  0
  142.9338   75.0482  221.7640 H   0  0  0  0  0  0  0  0  0  0  0  0
  142.0080   73.7938  220.9655 H   0  0  0  0  0  0  0  0  0  0  0  0
  144.0069   75.6075  219.8103 H   0  0  0  0  0  0  0  0  0  0  0  0
  143.1740   74.3032  218.9715 H   0  0  0  0  0  0  0  0  0  0  0  0
  142.6673   76.9222  218.2555 H   0  0  0  0  0  0  0  0  0  0  0  0
  141.3203   75.8568  218.2455 H   0  0  0  0  0  0  0  0  0  0  0  0
  142.4073   77.5284  220.6414 H   0  0  0  0  0  0  0  0  0  0  0  0
  141.3490   78.8922  219.6201 H   0  0  0  0  0  0  0  0  0  0  0  0
  139.8874   77.6594  219.5259 H   0  0  0  0  0  0  0  0  0  0  0  0
  139.3490   78.0540  221.5680 H   0  0  0  0  0  0  0  0  0  0  0  0
  139.9119   80.1435  222.3774 H   0  0  0  0  0  0  0  0  0  0  0  0
  140.6755   78.2627  223.9115 H   0  0  0  0  0  0  0  0  0  0  0  0
  141.9995   77.8186  222.8660 H   0  0  0  0  0  0  0  0  0  0  0  0
  141.7524   80.1076  224.8005 H   0  0  0  0  0  0  0  0  0  0  0  0
  143.2352   79.3411  224.2035 H   0  0  0  0  0  0  0  0  0  0  0  0
  141.7718   81.7296  223.1358 H   0  0  0  0  0  0  0  0  0  0  0  0
  143.4355   81.2833  222.8345 H   0  0  0  0  0  0  0  0  0  0  0  0
  141.7045   80.9605  220.7990 H   0  0  0  0  0  0  0  0  0  0  0  0
  142.7167   79.5918  221.0644 H   0  0  0  0  0  0  0  0  0  0  0  0
  138.8745   69.2880  222.4826 H   0  0  0  0  0  0  0  0  0  0  0  0
  139.2584   67.9626  224.5647 H   0  0  0  0  0  0  0  0  0  0  0  0
  140.0044   67.8610  226.9104 H   0  0  0  0  0  0  0  0  0  0  0  0
  141.4418   71.4321  228.8710 H   0  0  0  0  0  0  0  0  0  0  0  0
  141.0367   72.7110  226.7676 H   0  0  0  0  0  0  0  0  0  0  0  0
  1  2  2  0
  2  3  1  0
  3  4  1  0
  4  5  1  0
  5  6  2  0
  5  7  1  0
  7  8  1  0
  8  9  1  0
  9 10  1  0
 10 11  1  0
 11 12  1  0
 12 13  1  0
 13 14  1  0
 14 15  1  0
 15 16  1  0
 16 17  1  0
 17 18  1  0
  2 19  1  0
 19 20  2  0
 20 21  1  0
 21 22  2  0
 22 23  1  0
 23 24  2  0
 24 25  1  0
 24 26  1  0
 26 27  2  0
 27 28  1  0
 28 29  2  0
 11  7  1  0
 18 14  1  0
 29 19  1  0
 28 22  1  0
  3 30  1  0
  4 31  1  0
  4 32  1  0
  8 33  1  0
  8 34  1  0
  9 35  1  0
  9 36  1  0
 10 37  1  0
 10 38  1  0
 11 39  1  1
 12 40  1  0
 12 41  1  0
 13 42  1  0
 14 43  1  0
 15 44  1  0
 15 45  1  0
 16 46  1  0
 16 47  1  0
 17 48  1  0
 17 49  1  0
 18 50  1  0
 18 51  1  0
 20 52  1  0
 21 53  1  0
 23 54  1  0
 26 55  1  0
 27 56  1  0
M  END
>  <smiles>  (1) 
O=C(NCC(=O)N1CCC[C@H]1CNC1CCCC1)c1ccc2cc(F)ccc2n1

>  <score_type>  (1) 
oracle

>  <origin>  (1) 
autodockgpu

>  <m_score__min__energy>  (1) 
-9.0800000000000001

>  <m_primary>  (1) 
energy

>  <rmsd>  (1) 
2.233805449582745

>  <m_score__min__rmsd>  (1) 
2.233805449582745

>  <meeko>  (1) 
{"free_energy": -7.79, "intermolecular_energy": -9.88, "internal_energy": -2.55, "cluster_size": 40, "cluster_id": 1, "rank_in_cluster": 33}

>  <energy>  (1) 
-9.08

>  <cluster_rmsd>  (1) 
0.0

>  <cluster>  (1) 
1

$$$$

     RDKit          3D

 56 59  0  0  0  0  0  0  0  0999 V2000
  136.9670   76.4090  221.8230 O   0  0  0  0  0  0  0  0  0  0  0  0
  138.2100   76.4390  222.0760 C   0  0  0  0  0  0  0  0  0  0  0  0
  138.9950   75.2650  221.9160 N   0  0  0  0  0  0  0  0  0  0  0  0
  138.4500   74.0010  221.4720 C   0  0  0  0  0  0  0  0  0  0  0  0
  139.2790   72.8870  221.9990 C   0  0  0  0  0  0  0  0  0  0  0  0
  140.2800   73.1950  222.6840 O   0  0  0  0  0  0  0  0  0  0  0  0
  138.8890   71.5580  221.6940 N   0  0  0  0  0  0  0  0  0  0  0  0
  138.6270   70.9970  220.3550 C   0  0  0  0  0  0  0  0  0  0  0  0
  139.0230   69.5450  220.5060 C   0  0  0  0  0  0  0  0  0  0  0  0
  139.5710   69.4430  221.9620 C   0  0  0  0  0  0  0  0  0  0  0  0
  138.6490   70.4310  222.5940 C   0  0  1  0  0  0  0  0  0  0  0  0
  138.7020   70.6900  224.0210 C   0  0  0  0  0  0  0  0  0  0  0  0
  139.8010   71.2310  224.6740 N   0  0  0  0  0  0  0  0  0  0  0  0
  139.9830   71.1840  226.0570 C   0  0  0  0  0  0  0  0  0  0  0  0
  140.3200   69.7650  226.5630 C   0  0  0  0  0  0  0  0  0  0  0  0
  140.7480   70.0310  227.9840 C   0  0  0  0  0  0  0  0  0  0  0  0
  141.1100   71.5170  228.0520 C   0  0  0  0  0  0  0  0  0  0  0  0
  141.2140   71.9050  226.5690 C   0  0  0  0  0  0  0  0  0  0  0  0
  138.8450   77.6920  222.5370 C   0  0  0  0  0  0  0  0  0  0  0  0
  138.0330   78.7460  222.9170 C   0  0  0  0  0  0  0  0  0  0  0  0
  138.6750   79.8940  223.3400 C   0  0  0  0  0  0  0  0  0  0  0  0
  140.0600   79.9800  223.3800 C   0  0  0  0  0  0  0  0  0  0  0  0
  140.7250   81.1110  223.7980 C   0  0  0  0  0  0  0  0  0  0  0  0
  142.1030   81.1380  223.8160 C   0  0  0  0  0  0  0  0  0  0  0  0
  142.6930   82.2770  224.2370 F   0  0  0  0  0  0  0  0  0  0  0  0
  142.8820   80.0590  223.4270 C   0  0  0  0  0  0  0  0  0  0  0  0
  142.2180   78.9280  223.0080 C   0  0  0  0  0  0  0  0  0  0  0  0
  140.8230   78.8870  222.9860 C   0  0  0  0  0  0  0  0  0  0  0  0
  140.1860   77.7770  222.5750 N   0  0  0  0  0  0  0  0  0  0  0  0
  140.0200   75.3680  222.1470 H   0  0  0  0  0  0  0  0  0  0  0  0
  137.4193   73.8968  221.8419 H   0  0  0  0  0  0  0  0  0  0  0  0
  138.4522   73.9689  220.3725 H   0  0  0  0  0  0  0  0  0  0  0  0
  137.5637   71.0904  220.0892 H   0  0  0  0  0  0  0  0  0  0  0  0
  139.1777   71.5137  219.5551 H   0  0  0  0  0  0  0  0  0  0  0  0
  138.1514   68.8876  220.3710 H   0  0  0  0  0  0  0  0  0  0  0  0
  139.7640   69.2319  219.7558 H   0  0  0  0  0  0  0  0  0  0  0  0
  139.4534   68.4335  222.3828 H   0  0  0  0  0  0  0  0  0  0  0  0
  140.6469   69.6330  222.0897 H   0  0  0  0  0  0  0  0  0  0  0  0
  137.6131   70.0678  222.6647 H   0  0  0  0  0  0  0  0  0  0  0  0
  137.8654   71.3728  224.2307 H   0  0  0  0  0  0  0  0  0  0  0  0
  138.7085   69.6642  224.4182 H   0  0  0  0  0  0  0  0  0  0  0  0
  140.1700   72.1080  224.2210 H   0  0  0  0  0  0  0  0  0  0  0  0
  139.0320   71.6170  226.4007 H   0  0  0  0  0  0  0  0  0  0  0  0
  139.4382   69.1084  226.5277 H   0  0  0  0  0  0  0  0  0  0  0  0
  141.0817   69.2489  225.9601 H   0  0  0  0  0  0  0  0  0  0  0  0
  139.9245   69.8073  228.6781 H   0  0  0  0  0  0  0  0  0  0  0  0
  141.6009   69.3980  228.2701 H   0  0  0  0  0  0  0  0  0  0  0  0
  140.3232   72.0945  228.5593 H   0  0  0  0  0  0  0  0  0  0  0  0
  142.0290   71.7177  228.6222 H   0  0  0  0  0  0  0  0  0  0  0  0
  141.1482   72.9929  226.4203 H   0  0  0  0  0  0  0  0  0  0  0  0
  142.1602   71.6424  226.0733 H   0  0  0  0  0  0  0  0  0  0  0  0
  136.9359   78.6738  222.8841 H   0  0  0  0  0  0  0  0  0  0  0  0
  138.0742   80.7608  223.6526 H   0  0  0  0  0  0  0  0  0  0  0  0
  140.1549   81.9955  224.1185 H   0  0  0  0  0  0  0  0  0  0  0  0
  143.9808   80.1045  223.4520 H   0  0  0  0  0  0  0  0  0  0  0  0
  142.7932   78.0470  222.6870 H   0  0  0  0  0  0  0  0  0  0  0  0
  1  2  2  0
  2  3  1  0
  3  4  1  0
  4  5  1  0
  5  6  2  0
  5  7  1  0
  7  8  1  0
  8  9  1  0
  9 10  1  0
 10 11  1  0
 11 12  1  0
 12 13  1  0
 13 14  1  0
 14 15  1  0
 15 16  1  0
 16 17  1  0
 17 18  1  0
  2 19  1  0
 19 20  2  0
 20 21  1  0
 21 22  2  0
 22 23  1  0
 23 24  2  0
 24 25  1  0
 24 26  1  0
 26 27  2  0
 27 28  1  0
 28 29  2  0
 11  7  1  0
 18 14  1  0
 29 19  1  0
 28 22  1  0
  3 30  1  0
  4 31  1  0
  4 32  1  0
  8 33  1  0
  8 34  1  0
  9 35  1  0
  9 36  1  0
 10 37  1  0
 10 38  1  0
 11 39  1  6
 12 40  1  0
 12 41  1  0
 13 42  1  0
 14 43  1  0
 15 44  1  0
 15 45  1  0
 16 46  1  0
 16 47  1  0
 17 48  1  0
 17 49  1  0
 18 50  1  0
 18 51  1  0
 20 52  1  0
 21 53  1  0
 23 54  1  0
 26 55  1  0
 27 56  1  0
M  END
>  <smiles>  (2) 
O=C(NCC(=O)N1CCC[C@H]1CNC1CCCC1)c1ccc2cc(F)ccc2n1

>  <score_type>  (2) 
oracle

>  <origin>  (2) 
autodockgpu

>  <m_score__min__energy>  (2) 
-9.0800000000000001

>  <m_primary>  (2) 
energy

>  <rmsd>  (2) 
9.04107262939977

>  <m_score__min__rmsd>  (2) 
9.04107262939977

>  <meeko>  (2) 
{"free_energy": -7.43, "intermolecular_energy": -9.51, "internal_energy": -2.8, "cluster_size": 5, "cluster_id": 2, "rank_in_cluster": 5}

>  <energy>  (2) 
-9.01

>  <cluster_rmsd>  (2) 
0.36

>  <cluster>  (2) 
1

$$$$

     RDKit          3D

 56 59  0  0  0  0  0  0  0  0999 V2000
  140.2250   70.9200  221.1040 O   0  0  0  0  0  0  0  0  0  0  0  0
  140.0950   71.5600  222.1920 C   0  0  0  0  0  0  0  0  0  0  0  0
  140.1170   72.9820  222.1850 N   0  0  0  0  0  0  0  0  0  0  0  0
  140.2830   73.7660  220.9820 C   0  0  0  0  0  0  0  0  0  0  0  0
  141.0580   74.9960  221.2900 C   0  0  0  0  0  0  0  0  0  0  0  0
  140.7700   75.6020  222.3460 O   0  0  0  0  0  0  0  0  0  0  0  0
  142.0640   75.4020  220.3770 N   0  0  0  0  0  0  0  0  0  0  0  0
  143.0900   74.5450  219.7530 C   0  0  0  0  0  0  0  0  0  0  0  0
  143.3260   75.2100  218.4140 C   0  0  0  0  0  0  0  0  0  0  0  0
  142.3030   76.3860  218.3810 C   0  0  0  0  0  0  0  0  0  0  0  0
  142.3430   76.7290  219.8310 C   0  0  1  0  0  0  0  0  0  0  0  0
  141.5720   77.8430  220.3530 C   0  0  0  0  0  0  0  0  0  0  0  0
  141.4420   78.1350  221.7040 N   0  0  0  0  0  0  0  0  0  0  0  0
  141.4790   79.4290  222.2250 C   0  0  0  0  0  0  0  0  0  0  0  0
  140.3380   79.6950  223.2310 C   0  0  0  0  0  0  0  0  0  0  0  0
  140.7620   81.0040  223.8490 C   0  0  0  0  0  0  0  0  0  0  0  0
  142.2610   81.1420  223.5710 C   0  0  0  0  0  0  0  0  0  0  0  0
  142.6550   79.7230  223.1350 C   0  0  0  0  0  0  0  0  0  0  0  0
  139.9210   70.8340  223.4670 C   0  0  0  0  0  0  0  0  0  0  0  0
  139.3240   69.5850  223.4430 C   0  0  0  0  0  0  0  0  0  0  0  0
  139.1850   68.9480  224.6610 C   0  0  0  0  0  0  0  0  0  0  0  0
  139.6230   69.5310  225.8420 C   0  0  0  0  0  0  0  0  0  0  0  0
  139.4980   68.9170  227.0680 C   0  0  0  0  0  0  0  0  0  0  0  0
  139.9520   69.5470  228.2080 C   0  0  0  0  0  0  0  0  0  0  0  0
  139.7990   68.8910  229.3780 F   0  0  0  0  0  0  0  0  0  0  0  0
  140.5450   70.7990  228.1890 C   0  0  0  0  0  0  0  0  0  0  0  0
  140.6710   71.4150  226.9640 C   0  0  0  0  0  0  0  0  0  0  0  0
  140.2160   70.7880  225.8030 C   0  0  0  0  0  0  0  0  0  0  0  0
  140.3440   71.3980  224.6120 N   0  0  0  0  0  0  0  0  0  0  0  0
  140.0030   73.4430  223.1280 H   0  0  0  0  0  0  0  0  0  0  0  0
  140.8230   73.1721  220.2299 H   0  0  0  0  0  0  0  0  0  0  0  0
  139.2942   74.0465  220.5901 H   0  0  0  0  0  0  0  0  0  0  0  0
  144.0110   74.5304  220.3543 H   0  0  0  0  0  0  0  0  0  0  0  0
  142.7791   73.4936  219.6644 H   0  0  0  0  0  0  0  0  0  0  0  0
  144.3565   75.5881  218.3432 H   0  0  0  0  0  0  0  0  0  0  0  0
  143.1945   74.5154  217.5713 H   0  0  0  0  0  0  0  0  0  0  0  0
  142.6427   77.2173  217.7457 H   0  0  0  0  0  0  0  0  0  0  0  0
  141.3115   76.1546  217.9647 H   0  0  0  0  0  0  0  0  0  0  0  0
  143.2906   77.1980  220.1344 H   0  0  0  0  0  0  0  0  0  0  0  0
  142.0036   78.7446  219.8939 H   0  0  0  0  0  0  0  0  0  0  0  0
  140.5490   77.5191  220.1111 H   0  0  0  0  0  0  0  0  0  0  0  0
  141.8650   77.4040  222.3340 H   0  0  0  0  0  0  0  0  0  0  0  0
  141.4680   80.0211  221.2980 H   0  0  0  0  0  0  0  0  0  0  0  0
  139.3687   79.7900  222.7197 H   0  0  0  0  0  0  0  0  0  0  0  0
  140.1944   78.8858  223.9622 H   0  0  0  0  0  0  0  0  0  0  0  0
  140.2108   81.8383  223.3906 H   0  0  0  0  0  0  0  0  0  0  0  0
  140.5510   81.0246  224.9284 H   0  0  0  0  0  0  0  0  0  0  0  0
  142.4503   81.8705  222.7688 H   0  0  0  0  0  0  0  0  0  0  0  0
  142.8337   81.5079  224.4359 H   0  0  0  0  0  0  0  0  0  0  0  0
  143.6119   79.7073  222.5928 H   0  0  0  0  0  0  0  0  0  0  0  0
  142.8185   79.0024  223.9499 H   0  0  0  0  0  0  0  0  0  0  0  0
  138.9792   69.1249  222.5052 H   0  0  0  0  0  0  0  0  0  0  0  0
  138.7154   67.9539  224.6957 H   0  0  0  0  0  0  0  0  0  0  0  0
  139.0350   67.9217  227.1385 H   0  0  0  0  0  0  0  0  0  0  0  0
  140.8997   71.2800  229.1124 H   0  0  0  0  0  0  0  0  0  0  0  0
  141.1346   72.4105  226.8998 H   0  0  0  0  0  0  0  0  0  0  0  0
  1  2  2  0
  2  3  1  0
  3  4  1  0
  4  5  1  0
  5  6  2  0
  5  7  1  0
  7  8  1  0
  8  9  1  0
  9 10  1  0
 10 11  1  0
 11 12  1  0
 12 13  1  0
 13 14  1  0
 14 15  1  0
 15 16  1  0
 16 17  1  0
 17 18  1  0
  2 19  1  0
 19 20  2  0
 20 21  1  0
 21 22  2  0
 22 23  1  0
 23 24  2  0
 24 25  1  0
 24 26  1  0
 26 27  2  0
 27 28  1  0
 28 29  2  0
 11  7  1  0
 18 14  1  0
 29 19  1  0
 28 22  1  0
  3 30  1  0
  4 31  1  0
  4 32  1  0
  8 33  1  0
  8 34  1  0
  9 35  1  0
  9 36  1  0
 10 37  1  0
 10 38  1  0
 11 39  1  1
 12 40  1  0
 12 41  1  0
 13 42  1  0
 14 43  1  0
 15 44  1  0
 15 45  1  0
 16 46  1  0
 16 47  1  0
 17 48  1  0
 17 49  1  0
 18 50  1  0
 18 51  1  0
 20 52  1  0
 21 53  1  0
 23 54  1  0
 26 55  1  0
 27 56  1  0
M  END
>  <smiles>  (3) 
O=C(NCC(=O)N1CCC[C@H]1CNC1CCCC1)c1ccc2cc(F)ccc2n1

>  <score_type>  (3) 
oracle

>  <origin>  (3) 
autodockgpu

>  <m_score__min__energy>  (3) 
-9.0800000000000001

>  <m_primary>  (3) 
energy

>  <rmsd>  (3) 
2.164296136918991

>  <m_score__min__rmsd>  (3) 
2.164296136918991

>  <meeko>  (3) 
{"free_energy": -8.46, "intermolecular_energy": -10.55, "internal_energy": -2.43, "cluster_size": 40, "cluster_id": 1, "rank_in_cluster": 13}

>  <energy>  (3) 
-9.01

>  <cluster_rmsd>  (3) 
0.21

>  <cluster>  (3) 
1

$$$$

     RDKit          3D

 56 59  0  0  0  0  0  0  0  0999 V2000
  139.9560   71.4670  220.8770 O   0  0  0  0  0  0  0  0  0  0  0  0
  139.9410   72.0580  222.0000 C   0  0  0  0  0  0  0  0  0  0  0  0
  139.9250   73.4780  222.0530 N   0  0  0  0  0  0  0  0  0  0  0  0
  139.9230   74.3160  220.8740 C   0  0  0  0  0  0  0  0  0  0  0  0
  140.6110   75.5980  221.1720 C   0  0  0  0  0  0  0  0  0  0  0  0
  141.0340   75.7620  222.3390 O   0  0  0  0  0  0  0  0  0  0  0  0
  140.7430   76.5480  220.1270 N   0  0  0  0  0  0  0  0  0  0  0  0
  139.6590   77.3190  219.4900 C   0  0  0  0  0  0  0  0  0  0  0  0
  140.3410   78.6100  219.0940 C   0  0  0  0  0  0  0  0  0  0  0  0
  141.7910   78.4660  219.6450 C   0  0  0  0  0  0  0  0  0  0  0  0
  141.9450   76.9990  219.4280 C   0  0  1  0  0  0  0  0  0  0  0  0
  143.1940   76.3280  219.7410 C   0  0  0  0  0  0  0  0  0  0  0  0
  143.7470   75.3140  218.9710 N   0  0  0  0  0  0  0  0  0  0  0  0
  144.1020   74.0620  219.4740 C   0  0  0  0  0  0  0  0  0  0  0  0
  145.2640   74.1380  220.4870 C   0  0  0  0  0  0  0  0  0  0  0  0
  145.2540   72.7530  221.0830 C   0  0  0  0  0  0  0  0  0  0  0  0
  143.8690   72.1710  220.7890 C   0  0  0  0  0  0  0  0  0  0  0  0
  143.0650   73.4110  220.3680 C   0  0  0  0  0  0  0  0  0  0  0  0
  139.9430   71.2750  223.2530 C   0  0  0  0  0  0  0  0  0  0  0  0
  139.4430   69.9840  223.2290 C   0  0  0  0  0  0  0  0  0  0  0  0
  139.4670   69.2950  224.4270 C   0  0  0  0  0  0  0  0  0  0  0  0
  139.9670   69.8690  225.5870 C   0  0  0  0  0  0  0  0  0  0  0  0
  140.0040   69.2040  226.7920 C   0  0  0  0  0  0  0  0  0  0  0  0
  140.5120   69.8260  227.9130 C   0  0  0  0  0  0  0  0  0  0  0  0
  140.5200   69.1190  229.0630 F   0  0  0  0  0  0  0  0  0  0  0  0
  141.0050   71.1220  227.8950 C   0  0  0  0  0  0  0  0  0  0  0  0
  140.9680   71.7890  226.6900 C   0  0  0  0  0  0  0  0  0  0  0  0
  140.4570   71.1700  225.5490 C   0  0  0  0  0  0  0  0  0  0  0  0
  140.4270   71.8300  224.3780 N   0  0  0  0  0  0  0  0  0  0  0  0
  139.9150   73.8970  223.0220 H   0  0  0  0  0  0  0  0  0  0  0  0
  140.4487   73.7998  220.0572 H   0  0  0  0  0  0  0  0  0  0  0  0
  138.8849   74.5202  220.5731 H   0  0  0  0  0  0  0  0  0  0  0  0
  139.2667   76.7930  218.6071 H   0  0  0  0  0  0  0  0  0  0  0  0
  138.7930   77.4731  220.1505 H   0  0  0  0  0  0  0  0  0  0  0  0
  140.3498   78.7261  218.0002 H   0  0  0  0  0  0  0  0  0  0  0  0
  139.8263   79.4962  219.4936 H   0  0  0  0  0  0  0  0  0  0  0  0
  142.5184   79.0526  219.0646 H   0  0  0  0  0  0  0  0  0  0  0  0
  141.9572   78.8242  220.6717 H   0  0  0  0  0  0  0  0  0  0  0  0
  142.0278   76.7288  218.3649 H   0  0  0  0  0  0  0  0  0  0  0  0
  143.9558   77.1205  219.7810 H   0  0  0  0  0  0  0  0  0  0  0  0
  142.9096   75.7706  220.6457 H   0  0  0  0  0  0  0  0  0  0  0  0
  144.3810   75.6660  218.2060 H   0  0  0  0  0  0  0  0  0  0  0  0
  144.2979   73.5161  218.5393 H   0  0  0  0  0  0  0  0  0  0  0  0
  146.2191   74.3494  219.9840 H   0  0  0  0  0  0  0  0  0  0  0  0
  145.1514   74.9408  221.2305 H   0  0  0  0  0  0  0  0  0  0  0  0
  146.0347   72.1325  220.6187 H   0  0  0  0  0  0  0  0  0  0  0  0
  145.4558   72.7805  222.1640 H   0  0  0  0  0  0  0  0  0  0  0  0
  143.9137   71.4320  219.9754 H   0  0  0  0  0  0  0  0  0  0  0  0
  143.4300   71.6350  221.6434 H   0  0  0  0  0  0  0  0  0  0  0  0
  142.1515   73.1444  219.8163 H   0  0  0  0  0  0  0  0  0  0  0  0
  142.6858   74.0350  221.1907 H   0  0  0  0  0  0  0  0  0  0  0  0
  139.0484   69.5316  222.3072 H   0  0  0  0  0  0  0  0  0  0  0  0
  139.0800   68.2659  224.4616 H   0  0  0  0  0  0  0  0  0  0  0  0
  139.6270   68.1729  226.8608 H   0  0  0  0  0  0  0  0  0  0  0  0
  141.4076   71.5963  228.8022 H   0  0  0  0  0  0  0  0  0  0  0  0
  141.3453   72.8203  226.6270 H   0  0  0  0  0  0  0  0  0  0  0  0
  1  2  2  0
  2  3  1  0
  3  4  1  0
  4  5  1  0
  5  6  2  0
  5  7  1  0
  7  8  1  0
  8  9  1  0
  9 10  1  0
 10 11  1  0
 11 12  1  0
 12 13  1  0
 13 14  1  0
 14 15  1  0
 15 16  1  0
 16 17  1  0
 17 18  1  0
  2 19  1  0
 19 20  2  0
 20 21  1  0
 21 22  2  0
 22 23  1  0
 23 24  2  0
 24 25  1  0
 24 26  1  0
 26 27  2  0
 27 28  1  0
 28 29  2  0
 11  7  1  0
 18 14  1  0
 29 19  1  0
 28 22  1  0
  3 30  1  0
  4 31  1  0
  4 32  1  0
  8 33  1  0
  8 34  1  0
  9 35  1  0
  9 36  1  0
 10 37  1  0
 10 38  1  0
 11 39  1  6
 12 40  1  0
 12 41  1  0
 13 42  1  0
 14 43  1  0
 15 44  1  0
 15 45  1  0
 16 46  1  0
 16 47  1  0
 17 48  1  0
 17 49  1  0
 18 50  1  0
 18 51  1  0
 20 52  1  0
 21 53  1  0
 23 54  1  0
 26 55  1  0
 27 56  1  0
M  END
>  <smiles>  (4) 
O=C(NCC(=O)N1CCC[C@H]1CNC1CCCC1)c1ccc2cc(F)ccc2n1

>  <score_type>  (4) 
oracle

>  <origin>  (4) 
autodockgpu

>  <m_score__min__energy>  (4) 
-9.0800000000000001

>  <m_primary>  (4) 
energy

>  <rmsd>  (4) 
4.345413615243206

>  <m_score__min__rmsd>  (4) 
4.345413615243206

>  <meeko>  (4) 
{"free_energy": -7.55, "intermolecular_energy": -9.63, "internal_energy": -2.55, "cluster_size": 40, "cluster_id": 1, "rank_in_cluster": 36}

>  <energy>  (4) 
-8.9

>  <cluster_rmsd>  (4) 
0.38

>  <cluster>  (4) 
1

$$$$

     RDKit          3D

 56 59  0  0  0  0  0  0  0  0999 V2000
  139.1740   70.8870  221.3880 O   0  0  0  0  0  0  0  0  0  0  0  0
  139.4530   71.4130  222.5090 C   0  0  0  0  0  0  0  0  0  0  0  0
  139.6520   72.8170  222.6040 N   0  0  0  0  0  0  0  0  0  0  0  0
  139.5520   73.7100  221.4710 C   0  0  0  0  0  0  0  0  0  0  0  0
  139.9780   75.0760  221.8730 C   0  0  0  0  0  0  0  0  0  0  0  0
  139.2840   75.6600  222.7350 O   0  0  0  0  0  0  0  0  0  0  0  0
  141.1320   75.6260  221.2590 N   0  0  0  0  0  0  0  0  0  0  0  0
  142.3240   74.8910  220.7980 C   0  0  0  0  0  0  0  0  0  0  0  0
  142.8060   75.7170  219.6250 C   0  0  0  0  0  0  0  0  0  0  0  0
  141.7410   76.8460  219.4840 C   0  0  0  0  0  0  0  0  0  0  0  0
  141.4360   77.0190  220.9340 C   0  0  1  0  0  0  0  0  0  0  0  0
  140.4980   78.0320  221.3810 C   0  0  0  0  0  0  0  0  0  0  0  0
  140.2930   78.3700  222.7120 N   0  0  0  0  0  0  0  0  0  0  0  0
  140.9630   79.4070  223.3610 C   0  0  0  0  0  0  0  0  0  0  0  0
  142.4960   79.2220  223.3480 C   0  0  0  0  0  0  0  0  0  0  0  0
  142.9800   80.5680  223.8270 C   0  0  0  0  0  0  0  0  0  0  0  0
  141.8220   81.5430  223.6020 C   0  0  0  0  0  0  0  0  0  0  0  0
  140.8920   80.7530  222.6680 C   0  0  0  0  0  0  0  0  0  0  0  0
  139.5750   70.5690  223.7170 C   0  0  0  0  0  0  0  0  0  0  0  0
  139.0990   69.2700  223.6690 C   0  0  0  0  0  0  0  0  0  0  0  0
  139.2370   68.5240  224.8240 C   0  0  0  0  0  0  0  0  0  0  0  0
  139.8220   69.0520  225.9670 C   0  0  0  0  0  0  0  0  0  0  0  0
  139.9720   68.3300  227.1290 C   0  0  0  0  0  0  0  0  0  0  0  0
  140.5600   68.9080  228.2340 C   0  0  0  0  0  0  0  0  0  0  0  0
  140.6770   68.1460  229.3420 F   0  0  0  0  0  0  0  0  0  0  0  0
  141.0240   70.2150  228.2410 C   0  0  0  0  0  0  0  0  0  0  0  0
  140.8740   70.9380  227.0790 C   0  0  0  0  0  0  0  0  0  0  0  0
  140.2810   70.3650  225.9540 C   0  0  0  0  0  0  0  0  0  0  0  0
  140.1400   71.0800  224.8250 N   0  0  0  0  0  0  0  0  0  0  0  0
  139.8820   73.1800  223.5680 H   0  0  0  0  0  0  0  0  0  0  0  0
  140.2019   73.3475  220.6609 H   0  0  0  0  0  0  0  0  0  0  0  0
  138.5095   73.7408  221.1213 H   0  0  0  0  0  0  0  0  0  0  0  0
  143.0882   74.8435  221.5877 H   0  0  0  0  0  0  0  0  0  0  0  0
  142.1102   73.8455  220.5311 H   0  0  0  0  0  0  0  0  0  0  0  0
  143.7995   76.1422  219.8302 H   0  0  0  0  0  0  0  0  0  0  0  0
  142.9100   75.1209  218.7064 H   0  0  0  0  0  0  0  0  0  0  0  0
  142.1575   77.7589  219.0332 H   0  0  0  0  0  0  0  0  0  0  0  0
  140.8836   76.6246  218.8315 H   0  0  0  0  0  0  0  0  0  0  0  0
  142.2589   77.4881  221.4933 H   0  0  0  0  0  0  0  0  0  0  0  0
  140.8046   78.9628  220.8813 H   0  0  0  0  0  0  0  0  0  0  0  0
  139.5396   77.5494  221.1390 H   0  0  0  0  0  0  0  0  0  0  0  0
  140.0810   77.5420  223.3280 H   0  0  0  0  0  0  0  0  0  0  0  0
  140.4711   79.3808  224.3445 H   0  0  0  0  0  0  0  0  0  0  0  0
  142.8072   78.4190  224.0323 H   0  0  0  0  0  0  0  0  0  0  0  0
  142.8986   78.9301  222.3668 H   0  0  0  0  0  0  0  0  0  0  0  0
  143.2380   80.5224  224.8953 H   0  0  0  0  0  0  0  0  0  0  0  0
  143.8826   80.8857  223.2845 H   0  0  0  0  0  0  0  0  0  0  0  0
  141.3189   81.7868  224.5494 H   0  0  0  0  0  0  0  0  0  0  0  0
  142.1402   82.5100  223.1854 H   0  0  0  0  0  0  0  0  0  0  0  0
  139.8704   81.1607  222.6593 H   0  0  0  0  0  0  0  0  0  0  0  0
  141.1705   80.7564  221.6038 H   0  0  0  0  0  0  0  0  0  0  0  0
  138.6364   68.8545  222.7616 H   0  0  0  0  0  0  0  0  0  0  0  0
  138.8742   67.4857  224.8381 H   0  0  0  0  0  0  0  0  0  0  0  0
  139.6216   67.2884  227.1763 H   0  0  0  0  0  0  0  0  0  0  0  0
  141.4909   70.6542  229.1349 H   0  0  0  0  0  0  0  0  0  0  0  0
  141.2258   71.9794  227.0373 H   0  0  0  0  0  0  0  0  0  0  0  0
  1  2  2  0
  2  3  1  0
  3  4  1  0
  4  5  1  0
  5  6  2  0
  5  7  1  0
  7  8  1  0
  8  9  1  0
  9 10  1  0
 10 11  1  0
 11 12  1  0
 12 13  1  0
 13 14  1  0
 14 15  1  0
 15 16  1  0
 16 17  1  0
 17 18  1  0
  2 19  1  0
 19 20  2  0
 20 21  1  0
 21 22  2  0
 22 23  1  0
 23 24  2  0
 24 25  1  0
 24 26  1  0
 26 27  2  0
 27 28  1  0
 28 29  2  0
 11  7  1  0
 18 14  1  0
 29 19  1  0
 28 22  1  0
  3 30  1  0
  4 31  1  0
  4 32  1  0
  8 33  1  0
  8 34  1  0
  9 35  1  0
  9 36  1  0
 10 37  1  0
 10 38  1  0
 11 39  1  1
 12 40  1  0
 12 41  1  0
 13 42  1  0
 14 43  1  0
 15 44  1  0
 15 45  1  0
 16 46  1  0
 16 47  1  0
 17 48  1  0
 17 49  1  0
 18 50  1  0
 18 51  1  0
 20 52  1  0
 21 53  1  0
 23 54  1  0
 26 55  1  0
 27 56  1  0
M  END
>  <smiles>  (5) 
O=C(NCC(=O)N1CCC[C@H]1CNC1CCCC1)c1ccc2cc(F)ccc2n1

>  <score_type>  (5) 
oracle

>  <origin>  (5) 
autodockgpu

>  <m_score__min__energy>  (5) 
-9.0800000000000001

>  <m_primary>  (5) 
energy

>  <rmsd>  (5) 
2.3227664088279076

>  <m_score__min__rmsd>  (5) 
2.3227664088279076

>  <meeko>  (5) 
{"free_energy": -8.31, "intermolecular_energy": -10.4, "internal_energy": -2.41, "cluster_size": 40, "cluster_id": 1, "rank_in_cluster": 15}

>  <energy>  (5) 
-8.87

>  <cluster_rmsd>  (5) 
0.41

>  <cluster>  (5) 
1

$$$$

     RDKit          3D

 56 59  0  0  0  0  0  0  0  0999 V2000
  139.9140   71.6160  220.9210 O   0  0  0  0  0  0  0  0  0  0  0  0
  139.8180   72.1570  222.0650 C   0  0  0  0  0  0  0  0  0  0  0  0
  139.6500   73.5650  222.1700 N   0  0  0  0  0  0  0  0  0  0  0  0
  139.5800   74.4440  221.0240 C   0  0  0  0  0  0  0  0  0  0  0  0
  140.4990   75.5940  221.2200 C   0  0  0  0  0  0  0  0  0  0  0  0
  141.0450   75.7040  222.3400 O   0  0  0  0  0  0  0  0  0  0  0  0
  140.6970   76.4870  220.1360 N   0  0  0  0  0  0  0  0  0  0  0  0
  139.7890   77.5660  219.7010 C   0  0  0  0  0  0  0  0  0  0  0  0
  140.7340   78.6010  219.1310 C   0  0  0  0  0  0  0  0  0  0  0  0
  142.1540   78.0120  219.3860 C   0  0  0  0  0  0  0  0  0  0  0  0
  141.8130   76.5730  219.1950 C   0  0  1  0  0  0  0  0  0  0  0  0
  142.8370   75.5490  219.2760 C   0  0  0  0  0  0  0  0  0  0  0  0
  143.4130   75.1140  220.4620 N   0  0  0  0  0  0  0  0  0  0  0  0
  143.9830   73.8520  220.6320 C   0  0  0  0  0  0  0  0  0  0  0  0
  142.9490   72.7130  220.5100 C   0  0  0  0  0  0  0  0  0  0  0  0
  143.8320   71.4930  220.4340 C   0  0  0  0  0  0  0  0  0  0  0  0
  145.2180   71.9930  220.0190 C   0  0  0  0  0  0  0  0  0  0  0  0
  144.9280   73.4190  219.5290 C   0  0  0  0  0  0  0  0  0  0  0  0
  139.8810   71.3300  223.2880 C   0  0  0  0  0  0  0  0  0  0  0  0
  139.4500   70.0160  223.2230 C   0  0  0  0  0  0  0  0  0  0  0  0
  139.5290   69.2860  224.3930 C   0  0  0  0  0  0  0  0  0  0  0  0
  140.0150   69.8440  225.5680 C   0  0  0  0  0  0  0  0  0  0  0  0
  140.1060   69.1380  226.7460 C   0  0  0  0  0  0  0  0  0  0  0  0
  140.5970   69.7460  227.8820 C   0  0  0  0  0  0  0  0  0  0  0  0
  140.6590   68.9980  229.0050 F   0  0  0  0  0  0  0  0  0  0  0  0
  141.0180   71.0660  227.9060 C   0  0  0  0  0  0  0  0  0  0  0  0
  140.9280   71.7730  226.7280 C   0  0  0  0  0  0  0  0  0  0  0  0
  140.4330   71.1700  225.5710 C   0  0  0  0  0  0  0  0  0  0  0  0
  140.3500   71.8690  224.4270 N   0  0  0  0  0  0  0  0  0  0  0  0
  139.5780   73.9420  223.1540 H   0  0  0  0  0  0  0  0  0  0  0  0
  139.8740   73.8906  220.1199 H   0  0  0  0  0  0  0  0  0  0  0  0
  138.5506   74.8148  220.9109 H   0  0  0  0  0  0  0  0  0  0  0  0
  139.0877   77.2065  218.9336 H   0  0  0  0  0  0  0  0  0  0  0  0
  139.1603   77.9563  220.5149 H   0  0  0  0  0  0  0  0  0  0  0  0
  140.5572   78.7382  218.0540 H   0  0  0  0  0  0  0  0  0  0  0  0
  140.6011   79.5900  219.5939 H   0  0  0  0  0  0  0  0  0  0  0  0
  142.8916   78.3674  218.6514 H   0  0  0  0  0  0  0  0  0  0  0  0
  142.6233   78.2759  220.3453 H   0  0  0  0  0  0  0  0  0  0  0  0
  141.5958   76.3194  218.1469 H   0  0  0  0  0  0  0  0  0  0  0  0
  142.3988   74.6530  218.8122 H   0  0  0  0  0  0  0  0  0  0  0  0
  143.6875   76.0693  218.8113 H   0  0  0  0  0  0  0  0  0  0  0  0
  142.9350   75.4900  221.3230 H   0  0  0  0  0  0  0  0  0  0  0  0
  144.4639   73.9780  221.6133 H   0  0  0  0  0  0  0  0  0  0  0  0
  142.2905   72.6753  221.3903 H   0  0  0  0  0  0  0  0  0  0  0  0
  142.2691   72.8219  219.6521 H   0  0  0  0  0  0  0  0  0  0  0  0
  143.8833   70.9979  221.4150 H   0  0  0  0  0  0  0  0  0  0  0  0
  143.4394   70.7586  219.7153 H   0  0  0  0  0  0  0  0  0  0  0  0
  145.9098   72.0002  220.8742 H   0  0  0  0  0  0  0  0  0  0  0  0
  145.7019   71.3601  219.2605 H   0  0  0  0  0  0  0  0  0  0  0  0
  145.8367   74.0380  219.4959 H   0  0  0  0  0  0  0  0  0  0  0  0
  144.5338   73.4998  218.5052 H   0  0  0  0  0  0  0  0  0  0  0  0
  139.0656   69.5772  222.2905 H   0  0  0  0  0  0  0  0  0  0  0  0
  139.1988   68.2367  224.3939 H   0  0  0  0  0  0  0  0  0  0  0  0
  139.7862   68.0861  226.7813 H   0  0  0  0  0  0  0  0  0  0  0  0
  141.4068   71.5284  228.8253 H   0  0  0  0  0  0  0  0  0  0  0  0
  141.2497   72.8245  226.6986 H   0  0  0  0  0  0  0  0  0  0  0  0
  1  2  2  0
  2  3  1  0
  3  4  1  0
  4  5  1  0
  5  6  2  0
  5  7  1  0
  7  8  1  0
  8  9  1  0
  9 10  1  0
 10 11  1  0
 11 12  1  0
 12 13  1  0
 13 14  1  0
 14 15  1  0
 15 16  1  0
 16 17  1  0
 17 18  1  0
  2 19  1  0
 19 20  2  0
 20 21  1  0
 21 22  2  0
 22 23  1  0
 23 24  2  0
 24 25  1  0
 24 26  1  0
 26 27  2  0
 27 28  1  0
 28 29  2  0
 11  7  1  0
 18 14  1  0
 29 19  1  0
 28 22  1  0
  3 30  1  0
  4 31  1  0
  4 32  1  0
  8 33  1  0
  8 34  1  0
  9 35  1  0
  9 36  1  0
 10 37  1  0
 10 38  1  0
 11 39  1  6
 12 40  1  0
 12 41  1  0
 13 42  1  0
 14 43  1  0
 15 44  1  0
 15 45  1  0
 16 46  1  0
 16 47  1  0
 17 48  1  0
 17 49  1  0
 18 50  1  0
 18 51  1  0
 20 52  1  0
 21 53  1  0
 23 54  1  0
 26 55  1  0
 27 56  1  0
M  END
>  <smiles>  (6) 
O=C(NCC(=O)N1CCC[C@H]1CNC1CCCC1)c1ccc2cc(F)ccc2n1

>  <score_type>  (6) 
oracle

>  <origin>  (6) 
autodockgpu

>  <m_score__min__energy>  (6) 
-9.0800000000000001

>  <m_primary>  (6) 
energy

>  <rmsd>  (6) 
4.450265911198222

>  <m_score__min__rmsd>  (6) 
4.450265911198222

>  <meeko>  (6) 
{"free_energy": -7.45, "intermolecular_energy": -9.54, "internal_energy": -3.04, "cluster_size": 40, "cluster_id": 1, "rank_in_cluster": 37}

>  <energy>  (6) 
-8.81

>  <cluster_rmsd>  (6) 
1.63

>  <cluster>  (6) 
1

$$$$

     RDKit          3D

 56 59  0  0  0  0  0  0  0  0999 V2000
  137.8180   70.4420  222.0280 O   0  0  0  0  0  0  0  0  0  0  0  0
  138.5920   70.9220  222.9120 C   0  0  0  0  0  0  0  0  0  0  0  0
  139.0370   72.2680  222.8080 N   0  0  0  0  0  0  0  0  0  0  0  0
  138.6530   73.1500  221.7280 C   0  0  0  0  0  0  0  0  0  0  0  0
  139.2030   74.5080  221.9730 C   0  0  0  0  0  0  0  0  0  0  0  0
  140.4150   74.5880  222.2750 O   0  0  0  0  0  0  0  0  0  0  0  0
  138.3280   75.6180  221.8510 N   0  0  0  0  0  0  0  0  0  0  0  0
  136.8630   75.6130  222.0200 C   0  0  0  0  0  0  0  0  0  0  0  0
  136.5720   77.0000  222.5480 C   0  0  0  0  0  0  0  0  0  0  0  0
  137.9770   77.6550  222.7100 C   0  0  0  0  0  0  0  0  0  0  0  0
  138.6360   77.0120  221.5360 C   0  0  1  0  0  0  0  0  0  0  0  0
  140.0060   77.3340  221.1850 C   0  0  0  0  0  0  0  0  0  0  0  0
  140.9870   77.6780  222.1060 N   0  0  0  0  0  0  0  0  0  0  0  0
  141.2060   78.9800  222.5550 C   0  0  0  0  0  0  0  0  0  0  0  0
  142.1630   79.0370  223.7650 C   0  0  0  0  0  0  0  0  0  0  0  0
  142.4610   80.5120  223.8630 C   0  0  0  0  0  0  0  0  0  0  0  0
  142.1130   81.1100  222.4980 C   0  0  0  0  0  0  0  0  0  0  0  0
  141.9900   79.8650  221.6060 C   0  0  0  0  0  0  0  0  0  0  0  0
  139.0330   70.0860  224.0480 C   0  0  0  0  0  0  0  0  0  0  0  0
  138.8090   68.7220  223.9930 C   0  0  0  0  0  0  0  0  0  0  0  0
  139.2400   67.9850  225.0800 C   0  0  0  0  0  0  0  0  0  0  0  0
  139.8640   68.5850  226.1650 C   0  0  0  0  0  0  0  0  0  0  0  0
  140.3040   67.8750  227.2590 C   0  0  0  0  0  0  0  0  0  0  0  0
  140.9160   68.5270  228.3080 C   0  0  0  0  0  0  0  0  0  0  0  0
  141.3240   67.7720  229.3510 F   0  0  0  0  0  0  0  0  0  0  0  0
  141.1220   69.8980  228.3250 C   0  0  0  0  0  0  0  0  0  0  0  0
  140.6830   70.6100  227.2310 C   0  0  0  0  0  0  0  0  0  0  0  0
  140.0610   69.9620  226.1620 C   0  0  0  0  0  0  0  0  0  0  0  0
  139.6360   70.6670  225.1000 N   0  0  0  0  0  0  0  0  0  0  0  0
  139.6790   72.5950  223.5800 H   0  0  0  0  0  0  0  0  0  0  0  0
  139.0495   72.7604  220.7788 H   0  0  0  0  0  0  0  0  0  0  0  0
  137.5557   73.2049  221.6743 H   0  0  0  0  0  0  0  0  0  0  0  0
  136.3556   75.4421  221.0591 H   0  0  0  0  0  0  0  0  0  0  0  0
  136.5082   74.8138  222.6874 H   0  0  0  0  0  0  0  0  0  0  0  0
  135.9578   77.5677  221.8335 H   0  0  0  0  0  0  0  0  0  0  0  0
  136.0072   76.9797  223.4917 H   0  0  0  0  0  0  0  0  0  0  0  0
  137.9399   78.7507  222.6198 H   0  0  0  0  0  0  0  0  0  0  0  0
  138.4703   77.5102  223.6825 H   0  0  0  0  0  0  0  0  0  0  0  0
  138.2658   77.3928  220.5727 H   0  0  0  0  0  0  0  0  0  0  0  0
  140.3924   76.4511  220.6548 H   0  0  0  0  0  0  0  0  0  0  0  0
  139.8665   78.2922  220.6632 H   0  0  0  0  0  0  0  0  0  0  0  0
  141.8620   77.0970  222.0250 H   0  0  0  0  0  0  0  0  0  0  0  0
  140.1712   79.3105  222.7283 H   0  0  0  0  0  0  0  0  0  0  0  0
  141.6743   78.6669  224.6783 H   0  0  0  0  0  0  0  0  0  0  0  0
  143.0601   78.4110  223.6496 H   0  0  0  0  0  0  0  0  0  0  0  0
  141.8460   80.9738  224.6495 H   0  0  0  0  0  0  0  0  0  0  0  0
  143.5149   80.6915  224.1221 H   0  0  0  0  0  0  0  0  0  0  0  0
  141.1639   81.6647  222.5381 H   0  0  0  0  0  0  0  0  0  0  0  0
  142.8572   81.8348  222.1361 H   0  0  0  0  0  0  0  0  0  0  0  0
  141.4343   80.0729  220.6797 H   0  0  0  0  0  0  0  0  0  0  0  0
  142.9388   79.4466  221.2390 H   0  0  0  0  0  0  0  0  0  0  0  0
  138.3148   68.2497  223.1312 H   0  0  0  0  0  0  0  0  0  0  0  0
  139.0846   66.8960  225.0853 H   0  0  0  0  0  0  0  0  0  0  0  0
  140.1669   66.7842  227.2963 H   0  0  0  0  0  0  0  0  0  0  0  0
  141.6140   70.3947  229.1742 H   0  0  0  0  0  0  0  0  0  0  0  0
  140.8238   71.7005  227.1990 H   0  0  0  0  0  0  0  0  0  0  0  0
  1  2  2  0
  2  3  1  0
  3  4  1  0
  4  5  1  0
  5  6  2  0
  5  7  1  0
  7  8  1  0
  8  9  1  0
  9 10  1  0
 10 11  1  0
 11 12  1  0
 12 13  1  0
 13 14  1  0
 14 15  1  0
 15 16  1  0
 16 17  1  0
 17 18  1  0
  2 19  1  0
 19 20  2  0
 20 21  1  0
 21 22  2  0
 22 23  1  0
 23 24  2  0
 24 25  1  0
 24 26  1  0
 26 27  2  0
 27 28  1  0
 28 29  2  0
 11  7  1  0
 18 14  1  0
 29 19  1  0
 28 22  1  0
  3 30  1  0
  4 31  1  0
  4 32  1  0
  8 33  1  0
  8 34  1  0
  9 35  1  0
  9 36  1  0
 10 37  1  0
 10 38  1  0
 11 39  1  6
 12 40  1  0
 12 41  1  0
 13 42  1  0
 14 43  1  0
 15 44  1  0
 15 45  1  0
 16 46  1  0
 16 47  1  0
 17 48  1  0
 17 49  1  0
 18 50  1  0
 18 51  1  0
 20 52  1  0
 21 53  1  0
 23 54  1  0
 26 55  1  0
 27 56  1  0
M  END
>  <smiles>  (7) 
O=C(NCC(=O)N1CCC[C@H]1CNC1CCCC1)c1ccc2cc(F)ccc2n1

>  <score_type>  (7) 
oracle

>  <origin>  (7) 
autodockgpu

>  <m_score__min__energy>  (7) 
-9.0800000000000001

>  <m_primary>  (7) 
energy

>  <rmsd>  (7) 
2.7795073773376777

>  <m_score__min__rmsd>  (7) 
2.7795073773376777

>  <meeko>  (7) 
{"free_energy": -8.68, "intermolecular_energy": -10.77, "internal_energy": -1.91, "cluster_size": 40, "cluster_id": 1, "rank_in_cluster": 7}

>  <energy>  (7) 
-8.68

>  <cluster_rmsd>  (7) 
1.95

>  <cluster>  (7) 
1

$$$$

     RDKit          3D

 56 59  0  0  0  0  0  0  0  0999 V2000
  141.3000   71.8540  221.3900 O   0  0  0  0  0  0  0  0  0  0  0  0
  140.5970   72.3170  222.3390 C   0  0  0  0  0  0  0  0  0  0  0  0
  140.1190   73.6550  222.2800 N   0  0  0  0  0  0  0  0  0  0  0  0
  140.3910   74.5450  221.1730 C   0  0  0  0  0  0  0  0  0  0  0  0
  139.8800   75.9040  221.4900 C   0  0  0  0  0  0  0  0  0  0  0  0
  139.1530   76.0200  222.5020 O   0  0  0  0  0  0  0  0  0  0  0  0
  140.2440   76.9740  220.6320 N   0  0  0  0  0  0  0  0  0  0  0  0
  141.0660   76.8880  219.4110 C   0  0  0  0  0  0  0  0  0  0  0  0
  140.5140   78.0000  218.5460 C   0  0  0  0  0  0  0  0  0  0  0  0
  139.3250   78.5780  219.3710 C   0  0  0  0  0  0  0  0  0  0  0  0
  139.9140   78.3950  220.7290 C   0  0  1  0  0  0  0  0  0  0  0  0
  139.2030   78.8390  221.9140 C   0  0  0  0  0  0  0  0  0  0  0  0
  139.7100   78.7550  223.2030 N   0  0  0  0  0  0  0  0  0  0  0  0
  140.7900   79.5100  223.6630 C   0  0  0  0  0  0  0  0  0  0  0  0
  142.1360   79.0460  223.0650 C   0  0  0  0  0  0  0  0  0  0  0  0
  143.0620   80.1650  223.4680 C   0  0  0  0  0  0  0  0  0  0  0  0
  142.1690   81.3650  223.7900 C   0  0  0  0  0  0  0  0  0  0  0  0
  140.8170   80.9500  223.1900 C   0  0  0  0  0  0  0  0  0  0  0  0
  140.2760   71.4720  223.5090 C   0  0  0  0  0  0  0  0  0  0  0  0
  139.5580   70.3060  223.3060 C   0  0  0  0  0  0  0  0  0  0  0  0
  139.2840   69.5520  224.4310 C   0  0  0  0  0  0  0  0  0  0  0  0
  139.7060   69.9460  225.6930 C   0  0  0  0  0  0  0  0  0  0  0  0
  139.4460   69.2130  226.8290 C   0  0  0  0  0  0  0  0  0  0  0  0
  139.8910   69.6560  228.0570 C   0  0  0  0  0  0  0  0  0  0  0  0
  139.6030   68.8910  229.1310 F   0  0  0  0  0  0  0  0  0  0  0  0
  140.6080   70.8330  228.2170 C   0  0  0  0  0  0  0  0  0  0  0  0
  140.8680   71.5670  227.0820 C   0  0  0  0  0  0  0  0  0  0  0  0
  140.4230   71.1290  225.8330 C   0  0  0  0  0  0  0  0  0  0  0  0
  140.6830   71.8540  224.7310 N   0  0  0  0  0  0  0  0  0  0  0  0
  139.5430   73.9690  223.1070 H   0  0  0  0  0  0  0  0  0  0  0  0
  141.4762   74.5930  220.9997 H   0  0  0  0  0  0  0  0  0  0  0  0
  139.8906   74.1678  220.2690 H   0  0  0  0  0  0  0  0  0  0  0  0
  142.1292   77.0553  219.6382 H   0  0  0  0  0  0  0  0  0  0  0  0
  141.0198   75.9010  218.9276 H   0  0  0  0  0  0  0  0  0  0  0  0
  141.2776   78.7720  218.3701 H   0  0  0  0  0  0  0  0  0  0  0  0
  140.2018   77.6437  217.5532 H   0  0  0  0  0  0  0  0  0  0  0  0
  139.1308   79.6356  219.1391 H   0  0  0  0  0  0  0  0  0  0  0  0
  138.3440   78.1104  219.2008 H   0  0  0  0  0  0  0  0  0  0  0  0
  140.7481   79.0827  220.9321 H   0  0  0  0  0  0  0  0  0  0  0  0
  138.9853   79.9045  221.7487 H   0  0  0  0  0  0  0  0  0  0  0  0
  138.3927   78.0966  221.9606 H   0  0  0  0  0  0  0  0  0  0  0  0
  139.6560   77.7860  223.6140 H   0  0  0  0  0  0  0  0  0  0  0  0
  140.6678   79.3954  224.7502 H   0  0  0  0  0  0  0  0  0  0  0  0
  142.4562   78.0870  223.4983 H   0  0  0  0  0  0  0  0  0  0  0  0
  142.1011   78.8690  221.9799 H   0  0  0  0  0  0  0  0  0  0  0  0
  143.6460   79.8759  224.3542 H   0  0  0  0  0  0  0  0  0  0  0  0
  143.7766   80.4017  222.6659 H   0  0  0  0  0  0  0  0  0  0  0  0
  142.0900   81.5207  224.8761 H   0  0  0  0  0  0  0  0  0  0  0  0
  142.5520   82.3146  223.3881 H   0  0  0  0  0  0  0  0  0  0  0  0
  139.9833   81.5370  223.6028 H   0  0  0  0  0  0  0  0  0  0  0  0
  140.7120   81.0971  222.1050 H   0  0  0  0  0  0  0  0  0  0  0  0
  139.2241   69.9968  222.3045 H   0  0  0  0  0  0  0  0  0  0  0  0
  138.7169   68.6156  224.3236 H   0  0  0  0  0  0  0  0  0  0  0  0
  138.8818   68.2714  226.7571 H   0  0  0  0  0  0  0  0  0  0  0  0
  140.9534   71.1649  229.2072 H   0  0  0  0  0  0  0  0  0  0  0  0
  141.4320   72.5082  227.1596 H   0  0  0  0  0  0  0  0  0  0  0  0
  1  2  2  0
  2  3  1  0
  3  4  1  0
  4  5  1  0
  5  6  2  0
  5  7  1  0
  7  8  1  0
  8  9  1  0
  9 10  1  0
 10 11  1  0
 11 12  1  0
 12 13  1  0
 13 14  1  0
 14 15  1  0
 15 16  1  0
 16 17  1  0
 17 18  1  0
  2 19  1  0
 19 20  2  0
 20 21  1  0
 21 22  2  0
 22 23  1  0
 23 24  2  0
 24 25  1  0
 24 26  1  0
 26 27  2  0
 27 28  1  0
 28 29  2  0
 11  7  1  0
 18 14  1  0
 29 19  1  0
 28 22  1  0
  3 30  1  0
  4 31  1  0
  4 32  1  0
  8 33  1  0
  8 34  1  0
  9 35  1  0
  9 36  1  0
 10 37  1  0
 10 38  1  0
 11 39  1  6
 12 40  1  0
 12 41  1  0
 13 42  1  0
 14 43  1  0
 15 44  1  0
 15 45  1  0
 16 46  1  0
 16 47  1  0
 17 48  1  0
 17 49  1  0
 18 50  1  0
 18 51  1  0
 20 52  1  0
 21 53  1  0
 23 54  1  0
 26 55  1  0
 27 56  1  0
M  END
>  <smiles>  (8) 
O=C(NCC(=O)N1CCC[C@H]1CNC1CCCC1)c1ccc2cc(F)ccc2n1

>  <score_type>  (8) 
oracle

>  <origin>  (8) 
autodockgpu

>  <m_score__min__energy>  (8) 
-9.0800000000000001

>  <m_primary>  (8) 
energy

>  <rmsd>  (8) 
2.4910012486257433

>  <m_score__min__rmsd>  (8) 
2.4910012486257433

>  <meeko>  (8) 
{"free_energy": -7.77, "intermolecular_energy": -9.86, "internal_energy": -2.71, "cluster_size": 40, "cluster_id": 1, "rank_in_cluster": 34}

>  <energy>  (8) 
-8.62

>  <cluster_rmsd>  (8) 
0.65

>  <cluster>  (8) 
1

$$$$

     RDKit          3D

 56 59  0  0  0  0  0  0  0  0999 V2000
  140.5490   71.1960  220.9510 O   0  0  0  0  0  0  0  0  0  0  0  0
  140.2730   71.8080  222.0280 C   0  0  0  0  0  0  0  0  0  0  0  0
  140.1800   73.2270  222.0330 N   0  0  0  0  0  0  0  0  0  0  0  0
  140.3870   74.0400  220.8550 C   0  0  0  0  0  0  0  0  0  0  0  0
  141.1850   75.2410  221.2110 C   0  0  0  0  0  0  0  0  0  0  0  0
  141.0020   75.7320  222.3480 O   0  0  0  0  0  0  0  0  0  0  0  0
  142.0950   75.7500  220.2500 N   0  0  0  0  0  0  0  0  0  0  0  0
  143.1000   74.9840  219.4900 C   0  0  0  0  0  0  0  0  0  0  0  0
  143.1970   75.7440  218.1850 C   0  0  0  0  0  0  0  0  0  0  0  0
  142.1270   76.8700  218.3120 C   0  0  0  0  0  0  0  0  0  0  0  0
  142.2720   77.1220  219.7750 C   0  0  1  0  0  0  0  0  0  0  0  0
  141.5020   78.1630  220.4300 C   0  0  0  0  0  0  0  0  0  0  0  0
  141.3860   78.2960  221.8070 N   0  0  0  0  0  0  0  0  0  0  0  0
  141.3770   79.5240  222.4700 C   0  0  0  0  0  0  0  0  0  0  0  0
  142.5510   79.6690  223.4630 C   0  0  0  0  0  0  0  0  0  0  0  0
  142.4900   81.1350  223.8100 C   0  0  0  0  0  0  0  0  0  0  0  0
  141.6890   81.8070  222.6910 C   0  0  0  0  0  0  0  0  0  0  0  0
  141.6690   80.7290  221.5970 C   0  0  0  0  0  0  0  0  0  0  0  0
  140.0490   71.0510  223.2770 C   0  0  0  0  0  0  0  0  0  0  0  0
  139.3820   69.8400  223.2080 C   0  0  0  0  0  0  0  0  0  0  0  0
  139.1980   69.1720  224.4030 C   0  0  0  0  0  0  0  0  0  0  0  0
  139.6590   69.6910  225.6060 C   0  0  0  0  0  0  0  0  0  0  0  0
  139.4890   69.0450  226.8100 C   0  0  0  0  0  0  0  0  0  0  0  0
  139.9680   69.6110  227.9730 C   0  0  0  0  0  0  0  0  0  0  0  0
  139.7700   68.9270  229.1200 F   0  0  0  0  0  0  0  0  0  0  0  0
  140.6320   70.8280  228.0000 C   0  0  0  0  0  0  0  0  0  0  0  0
  140.8020   71.4740  226.7960 C   0  0  0  0  0  0  0  0  0  0  0  0
  140.3220   70.9130  225.6120 C   0  0  0  0  0  0  0  0  0  0  0  0
  140.4930   71.5530  224.4420 N   0  0  0  0  0  0  0  0  0  0  0  0
  139.9480   73.6630  222.9660 H   0  0  0  0  0  0  0  0  0  0  0  0
  140.9264   73.4541  220.0962 H   0  0  0  0  0  0  0  0  0  0  0  0
  139.4126   74.3553  220.4535 H   0  0  0  0  0  0  0  0  0  0  0  0
  144.0673   74.9737  220.0136 H   0  0  0  0  0  0  0  0  0  0  0  0
  142.8265   73.9271  219.3552 H   0  0  0  0  0  0  0  0  0  0  0  0
  144.2016   76.1740  218.0587 H   0  0  0  0  0  0  0  0  0  0  0  0
  143.0255   75.0992  217.3104 H   0  0  0  0  0  0  0  0  0  0  0  0
  142.3784   77.7549  217.7089 H   0  0  0  0  0  0  0  0  0  0  0  0
  141.1151   76.6192  217.9611 H   0  0  0  0  0  0  0  0  0  0  0  0
  143.2204   77.6154  220.0342 H   0  0  0  0  0  0  0  0  0  0  0  0
  141.9240   79.1143  220.0736 H   0  0  0  0  0  0  0  0  0  0  0  0
  140.4778   77.8632  220.1631 H   0  0  0  0  0  0  0  0  0  0  0  0
  141.8520   77.5190  222.3450 H   0  0  0  0  0  0  0  0  0  0  0  0
  140.3647   79.5149  222.9004 H   0  0  0  0  0  0  0  0  0  0  0  0
  142.4009   79.0411  224.3536 H   0  0  0  0  0  0  0  0  0  0  0  0
  143.5206   79.3507  223.0524 H   0  0  0  0  0  0  0  0  0  0  0  0
  141.9863   81.2770  224.7775 H   0  0  0  0  0  0  0  0  0  0  0  0
  143.4974   81.5681  223.8970 H   0  0  0  0  0  0  0  0  0  0  0  0
  140.6700   82.0525  223.0248 H   0  0  0  0  0  0  0  0  0  0  0  0
  142.1220   82.7612  222.3562 H   0  0  0  0  0  0  0  0  0  0  0  0
  140.8753   80.9056  220.8562 H   0  0  0  0  0  0  0  0  0  0  0  0
  142.5761   80.6608  220.9785 H   0  0  0  0  0  0  0  0  0  0  0  0
  139.0183   69.4318  222.2535 H   0  0  0  0  0  0  0  0  0  0  0  0
  138.6734   68.2051  224.4018 H   0  0  0  0  0  0  0  0  0  0  0  0
  138.9702   68.0756  226.8444 H   0  0  0  0  0  0  0  0  0  0  0  0
  141.0061   71.2580  228.9409 H   0  0  0  0  0  0  0  0  0  0  0  0
  141.3219   72.4430  226.7672 H   0  0  0  0  0  0  0  0  0  0  0  0
  1  2  2  0
  2  3  1  0
  3  4  1  0
  4  5  1  0
  5  6  2  0
  5  7  1  0
  7  8  1  0
  8  9  1  0
  9 10  1  0
 10 11  1  0
 11 12  1  0
 12 13  1  0
 13 14  1  0
 14 15  1  0
 15 16  1  0
 16 17  1  0
 17 18  1  0
  2 19  1  0
 19 20  2  0
 20 21  1  0
 21 22  2  0
 22 23  1  0
 23 24  2  0
 24 25  1  0
 24 26  1  0
 26 27  2  0
 27 28  1  0
 28 29  2  0
 11  7  1  0
 18 14  1  0
 29 19  1  0
 28 22  1  0
  3 30  1  0
  4 31  1  0
  4 32  1  0
  8 33  1  0
  8 34  1  0
  9 35  1  0
  9 36  1  0
 10 37  1  0
 10 38  1  0
 11 39  1  6
 12 40  1  0
 12 41  1  0
 13 42  1  0
 14 43  1  0
 15 44  1  0
 15 45  1  0
 16 46  1  0
 16 47  1  0
 17 48  1  0
 17 49  1  0
 18 50  1  0
 18 51  1  0
 20 52  1  0
 21 53  1  0
 23 54  1  0
 26 55  1  0
 27 56  1  0
M  END
>  <smiles>  (9) 
O=C(NCC(=O)N1CCC[C@H]1CNC1CCCC1)c1ccc2cc(F)ccc2n1

>  <score_type>  (9) 
oracle

>  <origin>  (9) 
autodockgpu

>  <m_score__min__energy>  (9) 
-9.0800000000000001

>  <m_primary>  (9) 
energy

>  <rmsd>  (9) 
2.2346892470034607

>  <m_score__min__rmsd>  (9) 
2.2346892470034607

>  <meeko>  (9) 
{"free_energy": -8.58, "intermolecular_energy": -10.66, "internal_energy": -2.41, "cluster_size": 40, "cluster_id": 1, "rank_in_cluster": 10}

>  <energy>  (9) 
-8.61

>  <cluster_rmsd>  (9) 
1.81

>  <cluster>  (9) 
1

$$$$

     RDKit          3D

 56 59  0  0  0  0  0  0  0  0999 V2000
  141.0050   71.6990  221.2030 O   0  0  0  0  0  0  0  0  0  0  0  0
  140.4620   72.1830  222.2430 C   0  0  0  0  0  0  0  0  0  0  0  0
  140.0630   73.5470  222.2630 N   0  0  0  0  0  0  0  0  0  0  0  0
  140.2400   74.4430  221.1420 C   0  0  0  0  0  0  0  0  0  0  0  0
  140.3680   75.8390  221.6340 C   0  0  0  0  0  0  0  0  0  0  0  0
  139.8100   76.1150  222.7190 O   0  0  0  0  0  0  0  0  0  0  0  0
  141.1060   76.7620  220.8490 N   0  0  0  0  0  0  0  0  0  0  0  0
  142.3290   76.4840  220.0740 C   0  0  0  0  0  0  0  0  0  0  0  0
  142.2300   77.4530  218.9160 C   0  0  0  0  0  0  0  0  0  0  0  0
  140.8560   78.1590  219.1180 C   0  0  0  0  0  0  0  0  0  0  0  0
  140.8590   78.1830  220.6090 C   0  0  1  0  0  0  0  0  0  0  0  0
  139.7750   78.8080  221.3450 C   0  0  0  0  0  0  0  0  0  0  0  0
  139.7770   79.0020  222.7200 N   0  0  0  0  0  0  0  0  0  0  0  0
  140.7060   79.7970  223.3900 C   0  0  0  0  0  0  0  0  0  0  0  0
  142.1290   79.1980  223.3630 C   0  0  0  0  0  0  0  0  0  0  0  0
  142.9640   80.3460  223.8710 C   0  0  0  0  0  0  0  0  0  0  0  0
  142.1200   81.6080  223.6780 C   0  0  0  0  0  0  0  0  0  0  0  0
  141.0090   81.1280  222.7310 C   0  0  0  0  0  0  0  0  0  0  0  0
  140.2460   71.3350  223.4340 C   0  0  0  0  0  0  0  0  0  0  0  0
  139.6160   70.1130  223.2710 C   0  0  0  0  0  0  0  0  0  0  0  0
  139.4380   69.3590  224.4150 C   0  0  0  0  0  0  0  0  0  0  0  0
  139.8690   69.8050  225.6560 C   0  0  0  0  0  0  0  0  0  0  0  0
  139.7050   69.0720  226.8110 C   0  0  0  0  0  0  0  0  0  0  0  0
  140.1530   69.5680  228.0160 C   0  0  0  0  0  0  0  0  0  0  0  0
  139.9620   68.8010  229.1100 F   0  0  0  0  0  0  0  0  0  0  0  0
  140.7810   70.7990  228.1360 C   0  0  0  0  0  0  0  0  0  0  0  0
  140.9460   71.5330  226.9830 C   0  0  0  0  0  0  0  0  0  0  0  0
  140.4960   71.0420  225.7560 C   0  0  0  0  0  0  0  0  0  0  0  0
  140.6620   71.7660  224.6370 N   0  0  0  0  0  0  0  0  0  0  0  0
  139.6200   73.8770  223.1630 H   0  0  0  0  0  0  0  0  0  0  0  0
  141.1503   74.1643  220.5910 H   0  0  0  0  0  0  0  0  0  0  0  0
  139.3684   74.3696  220.4750 H   0  0  0  0  0  0  0  0  0  0  0  0
  143.2297   76.6777  220.6750 H   0  0  0  0  0  0  0  0  0  0  0  0
  142.4085   75.4346  219.7538 H   0  0  0  0  0  0  0  0  0  0  0  0
  143.0516   78.1837  218.9486 H   0  0  0  0  0  0  0  0  0  0  0  0
  142.3034   76.9497  217.9407 H   0  0  0  0  0  0  0  0  0  0  0  0
  140.8380   79.1696  218.6841 H   0  0  0  0  0  0  0  0  0  0  0  0
  139.9888   77.6775  218.6425 H   0  0  0  0  0  0  0  0  0  0  0  0
  141.5930   78.8887  221.0252 H   0  0  0  0  0  0  0  0  0  0  0  0
  139.6536   79.8082  220.9036 H   0  0  0  0  0  0  0  0  0  0  0  0
  138.9886   78.0455  221.2440 H   0  0  0  0  0  0  0  0  0  0  0  0
  139.4620   78.1560  223.2630 H   0  0  0  0  0  0  0  0  0  0  0  0
  140.2251   79.8816  224.3757 H   0  0  0  0  0  0  0  0  0  0  0  0
  142.2069   78.3236  224.0258 H   0  0  0  0  0  0  0  0  0  0  0  0
  142.4363   78.8312  222.3725 H   0  0  0  0  0  0  0  0  0  0  0  0
  143.1992   80.2041  224.9362 H   0  0  0  0  0  0  0  0  0  0  0  0
  143.9190   80.4165  223.3297 H   0  0  0  0  0  0  0  0  0  0  0  0
  141.7031   81.9568  224.6343 H   0  0  0  0  0  0  0  0  0  0  0  0
  142.6924   82.4605  223.2836 H   0  0  0  0  0  0  0  0  0  0  0  0
  140.1391   81.8012  222.7388 H   0  0  0  0  0  0  0  0  0  0  0  0
  141.2786   81.0814  221.6656 H   0  0  0  0  0  0  0  0  0  0  0  0
  139.2761   69.7619  222.2855 H   0  0  0  0  0  0  0  0  0  0  0  0
  138.9419   68.3801  224.3399 H   0  0  0  0  0  0  0  0  0  0  0  0
  139.2150   68.0880  226.7711 H   0  0  0  0  0  0  0  0  0  0  0  0
  141.1317   71.1723  229.1095 H   0  0  0  0  0  0  0  0  0  0  0  0
  141.4373   72.5161  227.0290 H   0  0  0  0  0  0  0  0  0  0  0  0
  1  2  2  0
  2  3  1  0
  3  4  1  0
  4  5  1  0
  5  6  2  0
  5  7  1  0
  7  8  1  0
  8  9  1  0
  9 10  1  0
 10 11  1  0
 11 12  1  0
 12 13  1  0
 13 14  1  0
 14 15  1  0
 15 16  1  0
 16 17  1  0
 17 18  1  0
  2 19  1  0
 19 20  2  0
 20 21  1  0
 21 22  2  0
 22 23  1  0
 23 24  2  0
 24 25  1  0
 24 26  1  0
 26 27  2  0
 27 28  1  0
 28 29  2  0
 11  7  1  0
 18 14  1  0
 29 19  1  0
 28 22  1  0
  3 30  1  0
  4 31  1  0
  4 32  1  0
  8 33  1  0
  8 34  1  0
  9 35  1  0
  9 36  1  0
 10 37  1  0
 10 38  1  0
 11 39  1  6
 12 40  1  0
 12 41  1  0
 13 42  1  0
 14 43  1  0
 15 44  1  0
 15 45  1  0
 16 46  1  0
 16 47  1  0
 17 48  1  0
 17 49  1  0
 18 50  1  0
 18 51  1  0
 20 52  1  0
 21 53  1  0
 23 54  1  0
 26 55  1  0
 27 56  1  0
M  END
>  <smiles>  (10) 
O=C(NCC(=O)N1CCC[C@H]1CNC1CCCC1)c1ccc2cc(F)ccc2n1

>  <score_type>  (10) 
oracle

>  <origin>  (10) 
autodockgpu

>  <m_score__min__energy>  (10) 
-9.0800000000000001

>  <m_primary>  (10) 
energy

>  <rmsd>  (10) 
2.4724838099280038

>  <m_score__min__rmsd>  (10) 
2.4724838099280038

>  <meeko>  (10) 
{"free_energy": -8.3, "intermolecular_energy": -10.39, "internal_energy": -2.68, "cluster_size": 40, "cluster_id": 1, "rank_in_cluster": 16}

>  <energy>  (10) 
-8.58

>  <cluster_rmsd>  (10) 
0.56

>  <cluster>  (10) 
1

$$$$

     RDKit          3D

 56 59  0  0  0  0  0  0  0  0999 V2000
  137.9480   70.8160  221.7900 O   0  0  0  0  0  0  0  0  0  0  0  0
  138.6750   71.3190  222.7000 C   0  0  0  0  0  0  0  0  0  0  0  0
  139.1060   72.6690  222.5980 N   0  0  0  0  0  0  0  0  0  0  0  0
  138.7590   73.5310  221.4910 C   0  0  0  0  0  0  0  0  0  0  0  0
  139.6820   74.6940  221.4530 C   0  0  0  0  0  0  0  0  0  0  0  0
  140.7860   74.5650  222.0280 O   0  0  0  0  0  0  0  0  0  0  0  0
  139.2590   75.8660  220.7760 N   0  0  0  0  0  0  0  0  0  0  0  0
  138.8220   75.9660  219.3700 C   0  0  0  0  0  0  0  0  0  0  0  0
  137.8190   77.0980  219.4020 C   0  0  0  0  0  0  0  0  0  0  0  0
  137.7240   77.4900  220.9080 C   0  0  0  0  0  0  0  0  0  0  0  0
  139.1480   77.2370  221.2720 C   0  0  1  0  0  0  0  0  0  0  0  0
  139.6320   77.5050  222.6130 C   0  0  0  0  0  0  0  0  0  0  0  0
  140.9660   77.4290  222.9900 N   0  0  0  0  0  0  0  0  0  0  0  0
  141.7760   78.5430  223.2090 C   0  0  0  0  0  0  0  0  0  0  0  0
  142.2160   79.2230  221.8950 C   0  0  0  0  0  0  0  0  0  0  0  0
  142.8060   80.5190  222.3920 C   0  0  0  0  0  0  0  0  0  0  0  0
  142.2430   80.7320  223.8000 C   0  0  0  0  0  0  0  0  0  0  0  0
  141.0830   79.7260  223.8550 C   0  0  0  0  0  0  0  0  0  0  0  0
  139.0770   70.5040  223.8670 C   0  0  0  0  0  0  0  0  0  0  0  0
  138.8270   69.1430  223.8420 C   0  0  0  0  0  0  0  0  0  0  0  0
  139.2210   68.4270  224.9560 C   0  0  0  0  0  0  0  0  0  0  0  0
  139.8350   69.0430  226.0380 C   0  0  0  0  0  0  0  0  0  0  0  0
  140.2380   68.3530  227.1590 C   0  0  0  0  0  0  0  0  0  0  0  0
  140.8420   69.0200  228.2040 C   0  0  0  0  0  0  0  0  0  0  0  0
  141.2140   68.2850  229.2730 F   0  0  0  0  0  0  0  0  0  0  0  0
  141.0740   70.3860  228.1890 C   0  0  0  0  0  0  0  0  0  0  0  0
  140.6710   71.0780  227.0690 C   0  0  0  0  0  0  0  0  0  0  0  0
  140.0590   70.4150  226.0040 C   0  0  0  0  0  0  0  0  0  0  0  0
  139.6700   71.1000  224.9160 N   0  0  0  0  0  0  0  0  0  0  0  0
  139.7080   73.0160  223.3930 H   0  0  0  0  0  0  0  0  0  0  0  0
  138.8414   72.9680  220.5496 H   0  0  0  0  0  0  0  0  0  0  0  0
  137.7268   73.8894  221.6183 H   0  0  0  0  0  0  0  0  0  0  0  0
  139.6682   76.2068  218.7097 H   0  0  0  0  0  0  0  0  0  0  0  0
  138.4020   75.0271  218.9800 H   0  0  0  0  0  0  0  0  0  0  0  0
  138.1724   77.9482  218.8001 H   0  0  0  0  0  0  0  0  0  0  0  0
  136.8448   76.8067  218.9824 H   0  0  0  0  0  0  0  0  0  0  0  0
  137.4377   78.5428  221.0483 H   0  0  0  0  0  0  0  0  0  0  0  0
  136.9689   76.9543  221.5020 H   0  0  0  0  0  0  0  0  0  0  0  0
  139.8388   77.9759  220.8398 H   0  0  0  0  0  0  0  0  0  0  0  0
  139.3160   78.5332  222.8433 H   0  0  0  0  0  0  0  0  0  0  0  0
  139.2128   76.6476  223.1600 H   0  0  0  0  0  0  0  0  0  0  0  0
  141.4730   76.6020  222.5760 H   0  0  0  0  0  0  0  0  0  0  0  0
  142.5715   78.0968  223.8239 H   0  0  0  0  0  0  0  0  0  0  0  0
  142.9676   78.6193  221.3653 H   0  0  0  0  0  0  0  0  0  0  0  0
  141.3988   79.3576  221.1711 H   0  0  0  0  0  0  0  0  0  0  0  0
  143.9033   80.4501  222.4264 H   0  0  0  0  0  0  0  0  0  0  0  0
  142.5505   81.3571  221.7269 H   0  0  0  0  0  0  0  0  0  0  0  0
  142.9987   80.5086  224.5675 H   0  0  0  0  0  0  0  0  0  0  0  0
  141.9313   81.7690  223.9935 H   0  0  0  0  0  0  0  0  0  0  0  0
  140.7712   79.5098  224.8875 H   0  0  0  0  0  0  0  0  0  0  0  0
  140.1479   80.0505  223.3751 H   0  0  0  0  0  0  0  0  0  0  0  0
  138.3413   68.6580  222.9824 H   0  0  0  0  0  0  0  0  0  0  0  0
  139.0437   67.3418  224.9863 H   0  0  0  0  0  0  0  0  0  0  0  0
  140.0778   67.2665  227.2213 H   0  0  0  0  0  0  0  0  0  0  0  0
  141.5589   70.8953  229.0349 H   0  0  0  0  0  0  0  0  0  0  0  0
  140.8330   72.1646  227.0129 H   0  0  0  0  0  0  0  0  0  0  0  0
  1  2  2  0
  2  3  1  0
  3  4  1  0
  4  5  1  0
  5  6  2  0
  5  7  1  0
  7  8  1  0
  8  9  1  0
  9 10  1  0
 10 11  1  0
 11 12  1  0
 12 13  1  0
 13 14  1  0
 14 15  1  0
 15 16  1  0
 16 17  1  0
 17 18  1  0
  2 19  1  0
 19 20  2  0
 20 21  1  0
 21 22  2  0
 22 23  1  0
 23 24  2  0
 24 25  1  0
 24 26  1  0
 26 27  2  0
 27 28  1  0
 28 29  2  0
 11  7  1  0
 18 14  1  0
 29 19  1  0
 28 22  1  0
  3 30  1  0
  4 31  1  0
  4 32  1  0
  8 33  1  0
  8 34  1  0
  9 35  1  0
  9 36  1  0
 10 37  1  0
 10 38  1  0
 11 39  1  6
 12 40  1  0
 12 41  1  0
 13 42  1  0
 14 43  1  0
 15 44  1  0
 15 45  1  0
 16 46  1  0
 16 47  1  0
 17 48  1  0
 17 49  1  0
 18 50  1  0
 18 51  1  0
 20 52  1  0
 21 53  1  0
 23 54  1  0
 26 55  1  0
 27 56  1  0
M  END
>  <smiles>  (11) 
O=C(NCC(=O)N1CCC[C@H]1CNC1CCCC1)c1ccc2cc(F)ccc2n1

>  <score_type>  (11) 
oracle

>  <origin>  (11) 
autodockgpu

>  <m_score__min__energy>  (11) 
-9.0800000000000001

>  <m_primary>  (11) 
energy

>  <rmsd>  (11) 
2.226484346444248

>  <m_score__min__rmsd>  (11) 
2.226484346444248

>  <meeko>  (11) 
{"free_energy": -7.97, "intermolecular_energy": -10.06, "internal_energy": -2.69, "cluster_size": 40, "cluster_id": 1, "rank_in_cluster": 30}

>  <energy>  (11) 
-8.49

>  <cluster_rmsd>  (11) 
0.96

>  <cluster>  (11) 
1

$$$$

     RDKit          3D

 56 59  0  0  0  0  0  0  0  0999 V2000
  139.2200   71.1170  220.9750 O   0  0  0  0  0  0  0  0  0  0  0  0
  139.3790   71.7010  222.0900 C   0  0  0  0  0  0  0  0  0  0  0  0
  139.4120   73.1210  222.1480 N   0  0  0  0  0  0  0  0  0  0  0  0
  139.2720   73.9660  220.9830 C   0  0  0  0  0  0  0  0  0  0  0  0
  139.6550   75.3590  221.3280 C   0  0  0  0  0  0  0  0  0  0  0  0
  140.1130   75.5580  222.4750 O   0  0  0  0  0  0  0  0  0  0  0  0
  139.4780   76.3660  220.3450 N   0  0  0  0  0  0  0  0  0  0  0  0
  138.4530   76.3970  219.2840 C   0  0  0  0  0  0  0  0  0  0  0  0
  138.2080   77.8760  219.0850 C   0  0  0  0  0  0  0  0  0  0  0  0
  139.1010   78.5650  220.1600 C   0  0  0  0  0  0  0  0  0  0  0  0
  140.2360   77.5980  220.1300 C   0  0  1  0  0  0  0  0  0  0  0  0
  141.4160   77.8100  220.9480 C   0  0  0  0  0  0  0  0  0  0  0  0
  141.4190   77.7720  222.3360 N   0  0  0  0  0  0  0  0  0  0  0  0
  141.6110   78.8940  223.1420 C   0  0  0  0  0  0  0  0  0  0  0  0
  142.9570   79.5990  222.8650 C   0  0  0  0  0  0  0  0  0  0  0  0
  142.7950   80.8950  223.6190 C   0  0  0  0  0  0  0  0  0  0  0  0
  141.2900   81.0810  223.8310 C   0  0  0  0  0  0  0  0  0  0  0  0
  140.6840   80.0590  222.8580 C   0  0  0  0  0  0  0  0  0  0  0  0
  139.5310   70.9100  223.3300 C   0  0  0  0  0  0  0  0  0  0  0  0
  139.1000   69.5950  223.3340 C   0  0  0  0  0  0  0  0  0  0  0  0
  139.2650   68.9000  224.5160 C   0  0  0  0  0  0  0  0  0  0  0  0
  139.8320   69.4910  225.6360 C   0  0  0  0  0  0  0  0  0  0  0  0
  140.0080   68.8210  226.8260 C   0  0  0  0  0  0  0  0  0  0  0  0
  140.5770   69.4620  227.9060 C   0  0  0  0  0  0  0  0  0  0  0  0
  140.7220   68.7480  229.0430 F   0  0  0  0  0  0  0  0  0  0  0  0
  140.9960   70.7830  227.8610 C   0  0  0  0  0  0  0  0  0  0  0  0
  140.8200   71.4550  226.6720 C   0  0  0  0  0  0  0  0  0  0  0  0
  140.2460   70.8180  225.5710 C   0  0  0  0  0  0  0  0  0  0  0  0
  140.0790   71.4830  224.4160 N   0  0  0  0  0  0  0  0  0  0  0  0
  139.5480   73.5340  223.1110 H   0  0  0  0  0  0  0  0  0  0  0  0
  139.9265   73.5946  220.1807 H   0  0  0  0  0  0  0  0  0  0  0  0
  138.2260   73.9486  220.6431 H   0  0  0  0  0  0  0  0  0  0  0  0
  138.8269   75.9311  218.3603 H   0  0  0  0  0  0  0  0  0  0  0  0
  137.5418   75.8399  219.5474 H   0  0  0  0  0  0  0  0  0  0  0  0
  138.5067   78.1873  218.0732 H   0  0  0  0  0  0  0  0  0  0  0  0
  137.1459   78.1427  219.1888 H   0  0  0  0  0  0  0  0  0  0  0  0
  139.4077   79.5782  219.8610 H   0  0  0  0  0  0  0  0  0  0  0  0
  138.6344   78.7345  221.1416 H   0  0  0  0  0  0  0  0  0  0  0  0
  140.8268   77.6588  219.2042 H   0  0  0  0  0  0  0  0  0  0  0  0
  142.1409   77.0470  220.6279 H   0  0  0  0  0  0  0  0  0  0  0  0
  141.6033   78.8791  220.7691 H   0  0  0  0  0  0  0  0  0  0  0  0
  141.8230   76.8830  222.7310 H   0  0  0  0  0  0  0  0  0  0  0  0
  141.4819   78.4496  224.1399 H   0  0  0  0  0  0  0  0  0  0  0  0
  143.8024   79.0131  223.2549 H   0  0  0  0  0  0  0  0  0  0  0  0
  143.1747   79.7333  221.7952 H   0  0  0  0  0  0  0  0  0  0  0  0
  143.3125   80.8396  224.5881 H   0  0  0  0  0  0  0  0  0  0  0  0
  143.2287   81.7391  223.0628 H   0  0  0  0  0  0  0  0  0  0  0  0
  141.0050   80.8574  224.8696 H   0  0  0  0  0  0  0  0  0  0  0  0
  140.9476   82.1109  223.6519 H   0  0  0  0  0  0  0  0  0  0  0  0
  139.6377   79.8244  223.1032 H   0  0  0  0  0  0  0  0  0  0  0  0
  140.6286   80.3777  221.8066 H   0  0  0  0  0  0  0  0  0  0  0  0
  138.6507   69.1289  222.4447 H   0  0  0  0  0  0  0  0  0  0  0  0
  138.9385   67.8510  224.5709 H   0  0  0  0  0  0  0  0  0  0  0  0
  139.6935   67.7707  226.9153 H   0  0  0  0  0  0  0  0  0  0  0  0
  141.4488   71.2723  228.7360 H   0  0  0  0  0  0  0  0  0  0  0  0
  141.1354   72.5056  226.5892 H   0  0  0  0  0  0  0  0  0  0  0  0
  1  2  2  0
  2  3  1  0
  3  4  1  0
  4  5  1  0
  5  6  2  0
  5  7  1  0
  7  8  1  0
  8  9  1  0
  9 10  1  0
 10 11  1  0
 11 12  1  0
 12 13  1  0
 13 14  1  0
 14 15  1  0
 15 16  1  0
 16 17  1  0
 17 18  1  0
  2 19  1  0
 19 20  2  0
 20 21  1  0
 21 22  2  0
 22 23  1  0
 23 24  2  0
 24 25  1  0
 24 26  1  0
 26 27  2  0
 27 28  1  0
 28 29  2  0
 11  7  1  0
 18 14  1  0
 29 19  1  0
 28 22  1  0
  3 30  1  0
  4 31  1  0
  4 32  1  0
  8 33  1  0
  8 34  1  0
  9 35  1  0
  9 36  1  0
 10 37  1  0
 10 38  1  0
 11 39  1  6
 12 40  1  0
 12 41  1  0
 13 42  1  0
 14 43  1  0
 15 44  1  0
 15 45  1  0
 16 46  1  0
 16 47  1  0
 17 48  1  0
 17 49  1  0
 18 50  1  0
 18 51  1  0
 20 52  1  0
 21 53  1  0
 23 54  1  0
 26 55  1  0
 27 56  1  0
M  END
>  <smiles>  (12) 
O=C(NCC(=O)N1CCC[C@H]1CNC1CCCC1)c1ccc2cc(F)ccc2n1

>  <score_type>  (12) 
oracle

>  <origin>  (12) 
autodockgpu

>  <m_score__min__energy>  (12) 
-9.0800000000000001

>  <m_primary>  (12) 
energy

>  <rmsd>  (12) 
2.080079684217118

>  <m_score__min__rmsd>  (12) 
2.080079684217118

>  <meeko>  (12) 
{"free_energy": -8.01, "intermolecular_energy": -10.1, "internal_energy": -2.73, "cluster_size": 40, "cluster_id": 1, "rank_in_cluster": 28}

>  <energy>  (12) 
-8.46

>  <cluster_rmsd>  (12) 
1.78

>  <cluster>  (12) 
1

$$$$

     RDKit          3D

 56 59  0  0  0  0  0  0  0  0999 V2000
  141.0020   71.6040  221.2530 O   0  0  0  0  0  0  0  0  0  0  0  0
  140.4510   72.1160  222.2750 C   0  0  0  0  0  0  0  0  0  0  0  0
  140.0730   73.4870  222.2650 N   0  0  0  0  0  0  0  0  0  0  0  0
  140.2810   74.3580  221.1300 C   0  0  0  0  0  0  0  0  0  0  0  0
  140.4110   75.7620  221.5970 C   0  0  0  0  0  0  0  0  0  0  0  0
  139.8900   76.0490  222.6980 O   0  0  0  0  0  0  0  0  0  0  0  0
  141.1110   76.6810  220.7730 N   0  0  0  0  0  0  0  0  0  0  0  0
  142.2840   76.3950  219.9260 C   0  0  0  0  0  0  0  0  0  0  0  0
  142.1270   77.3680  218.7790 C   0  0  0  0  0  0  0  0  0  0  0  0
  140.7730   78.0870  219.0640 C   0  0  0  0  0  0  0  0  0  0  0  0
  140.8640   78.1050  220.5520 C   0  0  1  0  0  0  0  0  0  0  0  0
  139.8320   78.7380  221.3520 C   0  0  0  0  0  0  0  0  0  0  0  0
  139.8730   78.8420  222.7360 N   0  0  0  0  0  0  0  0  0  0  0  0
  140.7440   79.6860  223.4250 C   0  0  0  0  0  0  0  0  0  0  0  0
  142.2250   79.2910  223.2370 C   0  0  0  0  0  0  0  0  0  0  0  0
  142.9450   80.4850  223.8110 C   0  0  0  0  0  0  0  0  0  0  0  0
  141.9330   81.6340  223.8140 C   0  0  0  0  0  0  0  0  0  0  0  0
  140.8200   81.1050  222.8970 C   0  0  0  0  0  0  0  0  0  0  0  0
  140.2040   71.2940  223.4780 C   0  0  0  0  0  0  0  0  0  0  0  0
  139.5990   70.0580  223.3230 C   0  0  0  0  0  0  0  0  0  0  0  0
  139.3900   69.3290  224.4780 C   0  0  0  0  0  0  0  0  0  0  0  0
  139.7670   69.8120  225.7230 C   0  0  0  0  0  0  0  0  0  0  0  0
  139.5710   69.1060  226.8880 C   0  0  0  0  0  0  0  0  0  0  0  0
  139.9660   69.6380  228.0970 C   0  0  0  0  0  0  0  0  0  0  0  0
  139.7450   68.8940  229.2020 F   0  0  0  0  0  0  0  0  0  0  0  0
  140.5690   70.8820  228.2100 C   0  0  0  0  0  0  0  0  0  0  0  0
  140.7650   71.5900  227.0450 C   0  0  0  0  0  0  0  0  0  0  0  0
  140.3700   71.0620  225.8150 C   0  0  0  0  0  0  0  0  0  0  0  0
  140.5670   71.7620  224.6850 N   0  0  0  0  0  0  0  0  0  0  0  0
  139.6210   73.8400  223.1510 H   0  0  0  0  0  0  0  0  0  0  0  0
  141.2001   74.0606  220.6038 H   0  0  0  0  0  0  0  0  0  0  0  0
  139.4231   74.2783  220.4461 H   0  0  0  0  0  0  0  0  0  0  0  0
  143.2202   76.5784  220.4736 H   0  0  0  0  0  0  0  0  0  0  0  0
  142.3342   75.3461  219.5983 H   0  0  0  0  0  0  0  0  0  0  0  0
  142.9562   78.0906  218.7651 H   0  0  0  0  0  0  0  0  0  0  0  0
  142.1382   76.8674  217.7996 H   0  0  0  0  0  0  0  0  0  0  0  0
  140.7394   79.0995  218.6353 H   0  0  0  0  0  0  0  0  0  0  0  0
  139.8746   77.6158  218.6386 H   0  0  0  0  0  0  0  0  0  0  0  0
  141.6284   78.8017  220.9266 H   0  0  0  0  0  0  0  0  0  0  0  0
  139.7569   79.7698  220.9782 H   0  0  0  0  0  0  0  0  0  0  0  0
  139.0029   78.0269  221.2217 H   0  0  0  0  0  0  0  0  0  0  0  0
  139.6690   77.9350  223.2320 H   0  0  0  0  0  0  0  0  0  0  0  0
  140.3373   79.6065  224.4440 H   0  0  0  0  0  0  0  0  0  0  0  0
  142.4673   78.3733  223.7930 H   0  0  0  0  0  0  0  0  0  0  0  0
  142.4954   79.0702  222.1939 H   0  0  0  0  0  0  0  0  0  0  0  0
  143.2815   80.2707  224.8361 H   0  0  0  0  0  0  0  0  0  0  0  0
  143.8366   80.7380  223.2186 H   0  0  0  0  0  0  0  0  0  0  0  0
  141.5536   81.8259  224.8285 H   0  0  0  0  0  0  0  0  0  0  0  0
  142.3579   82.5912  223.4777 H   0  0  0  0  0  0  0  0  0  0  0  0
  139.8747   81.6498  223.0369 H   0  0  0  0  0  0  0  0  0  0  0  0
  141.0062   81.2021  221.8172 H   0  0  0  0  0  0  0  0  0  0  0  0
  139.3012   69.6775  222.3348 H   0  0  0  0  0  0  0  0  0  0  0  0
  138.9125   68.3405  224.4088 H   0  0  0  0  0  0  0  0  0  0  0  0
  139.0975   68.1137  226.8544 H   0  0  0  0  0  0  0  0  0  0  0  0
  140.8768   71.2850  229.1862 H   0  0  0  0  0  0  0  0  0  0  0  0
  141.2380   72.5823  227.0844 H   0  0  0  0  0  0  0  0  0  0  0  0
  1  2  2  0
  2  3  1  0
  3  4  1  0
  4  5  1  0
  5  6  2  0
  5  7  1  0
  7  8  1  0
  8  9  1  0
  9 10  1  0
 10 11  1  0
 11 12  1  0
 12 13  1  0
 13 14  1  0
 14 15  1  0
 15 16  1  0
 16 17  1  0
 17 18  1  0
  2 19  1  0
 19 20  2  0
 20 21  1  0
 21 22  2  0
 22 23  1  0
 23 24  2  0
 24 25  1  0
 24 26  1  0
 26 27  2  0
 27 28  1  0
 28 29  2  0
 11  7  1  0
 18 14  1  0
 29 19  1  0
 28 22  1  0
  3 30  1  0
  4 31  1  0
  4 32  1  0
  8 33  1  0
  8 34  1  0
  9 35  1  0
  9 36  1  0
 10 37  1  0
 10 38  1  0
 11 39  1  6
 12 40  1  0
 12 41  1  0
 13 42  1  0
 14 43  1  0
 15 44  1  0
 15 45  1  0
 16 46  1  0
 16 47  1  0
 17 48  1  0
 17 49  1  0
 18 50  1  0
 18 51  1  0
 20 52  1  0
 21 53  1  0
 23 54  1  0
 26 55  1  0
 27 56  1  0
M  END
>  <smiles>  (13) 
O=C(NCC(=O)N1CCC[C@H]1CNC1CCCC1)c1ccc2cc(F)ccc2n1

>  <score_type>  (13) 
oracle

>  <origin>  (13) 
autodockgpu

>  <m_score__min__energy>  (13) 
-9.0800000000000001

>  <m_primary>  (13) 
energy

>  <rmsd>  (13) 
2.4444447881911717

>  <m_score__min__rmsd>  (13) 
2.4444447881911717

>  <meeko>  (13) 
{"free_energy": -8.32, "intermolecular_energy": -10.41, "internal_energy": -2.68, "cluster_size": 40, "cluster_id": 1, "rank_in_cluster": 14}

>  <energy>  (13) 
-8.46

>  <cluster_rmsd>  (13) 
0.71

>  <cluster>  (13) 
1

$$$$

     RDKit          3D

 56 59  0  0  0  0  0  0  0  0999 V2000
  138.3460   71.0570  221.3840 O   0  0  0  0  0  0  0  0  0  0  0  0
  138.8760   71.5940  222.4040 C   0  0  0  0  0  0  0  0  0  0  0  0
  139.1640   72.9870  222.4020 N   0  0  0  0  0  0  0  0  0  0  0  0
  138.8830   73.8540  221.2800 C   0  0  0  0  0  0  0  0  0  0  0  0
  139.6910   75.0950  221.3930 C   0  0  0  0  0  0  0  0  0  0  0  0
  140.5200   75.1530  222.3280 O   0  0  0  0  0  0  0  0  0  0  0  0
  139.4730   76.1260  220.4430 N   0  0  0  0  0  0  0  0  0  0  0  0
  138.4330   76.1610  219.3980 C   0  0  0  0  0  0  0  0  0  0  0  0
  138.1470   77.6390  219.2470 C   0  0  0  0  0  0  0  0  0  0  0  0
  139.0390   78.3190  220.3300 C   0  0  0  0  0  0  0  0  0  0  0  0
  140.1970   77.3820  220.2540 C   0  0  1  0  0  0  0  0  0  0  0  0
  141.3830   77.6000  221.0610 C   0  0  0  0  0  0  0  0  0  0  0  0
  141.3880   77.6200  222.4490 N   0  0  0  0  0  0  0  0  0  0  0  0
  141.5320   78.7820  223.2080 C   0  0  0  0  0  0  0  0  0  0  0  0
  142.8160   79.5650  222.8570 C   0  0  0  0  0  0  0  0  0  0  0  0
  142.5920   80.8740  223.5700 C   0  0  0  0  0  0  0  0  0  0  0  0
  141.0870   80.9660  223.8320 C   0  0  0  0  0  0  0  0  0  0  0  0
  140.5180   79.8710  222.9180 C   0  0  0  0  0  0  0  0  0  0  0  0
  139.1970   70.7780  223.5940 C   0  0  0  0  0  0  0  0  0  0  0  0
  138.8750   69.4320  223.5790 C   0  0  0  0  0  0  0  0  0  0  0  0
  139.1960   68.7130  224.7150 C   0  0  0  0  0  0  0  0  0  0  0  0
  139.8070   69.3120  225.8080 C   0  0  0  0  0  0  0  0  0  0  0  0
  140.1380   68.6190  226.9500 C   0  0  0  0  0  0  0  0  0  0  0  0
  140.7450   69.2690  228.0040 C   0  0  0  0  0  0  0  0  0  0  0  0
  141.0430   68.5320  229.0950 F   0  0  0  0  0  0  0  0  0  0  0  0
  141.0510   70.6210  227.9780 C   0  0  0  0  0  0  0  0  0  0  0  0
  140.7200   71.3150  226.8360 C   0  0  0  0  0  0  0  0  0  0  0  0
  140.1060   70.6700  225.7620 C   0  0  0  0  0  0  0  0  0  0  0  0
  139.7890   71.3570  224.6520 N   0  0  0  0  0  0  0  0  0  0  0  0
  139.6050   73.3600  223.2860 H   0  0  0  0  0  0  0  0  0  0  0  0
  139.1380   73.3354  220.3441 H   0  0  0  0  0  0  0  0  0  0  0  0
  137.8141   74.1136  221.2784 H   0  0  0  0  0  0  0  0  0  0  0  0
  138.8055   75.7327  218.4558 H   0  0  0  0  0  0  0  0  0  0  0  0
  137.5405   75.5724  219.6567 H   0  0  0  0  0  0  0  0  0  0  0  0
  138.4222   77.9879  218.2408 H   0  0  0  0  0  0  0  0  0  0  0  0
  137.0801   77.8748  219.3739 H   0  0  0  0  0  0  0  0  0  0  0  0
  139.3158   79.3481  220.0573 H   0  0  0  0  0  0  0  0  0  0  0  0
  138.5834   78.4477  221.3229 H   0  0  0  0  0  0  0  0  0  0  0  0
  140.7720   77.4841  219.3218 H   0  0  0  0  0  0  0  0  0  0  0  0
  142.0890   76.8074  220.7724 H   0  0  0  0  0  0  0  0  0  0  0  0
  141.5950   78.6560  220.8374 H   0  0  0  0  0  0  0  0  0  0  0  0
  141.8310   76.7670  222.8800 H   0  0  0  0  0  0  0  0  0  0  0  0
  141.4693   78.3672  224.2249 H   0  0  0  0  0  0  0  0  0  0  0  0
  143.7125   79.0523  223.2357 H   0  0  0  0  0  0  0  0  0  0  0  0
  142.9868   79.6734  221.7758 H   0  0  0  0  0  0  0  0  0  0  0  0
  143.1461   80.8903  224.5201 H   0  0  0  0  0  0  0  0  0  0  0  0
  142.9466   81.7238  222.9682 H   0  0  0  0  0  0  0  0  0  0  0  0
  140.8549   80.7618  224.8877 H   0  0  0  0  0  0  0  0  0  0  0  0
  140.6690   81.9634  223.6309 H   0  0  0  0  0  0  0  0  0  0  0  0
  139.4992   79.5763  223.2099 H   0  0  0  0  0  0  0  0  0  0  0  0
  140.4040   80.1460  221.8591 H   0  0  0  0  0  0  0  0  0  0  0  0
  138.3905   68.9606  222.7112 H   0  0  0  0  0  0  0  0  0  0  0  0
  138.9613   67.6390  224.7539 H   0  0  0  0  0  0  0  0  0  0  0  0
  139.9178   67.5437  227.0223 H   0  0  0  0  0  0  0  0  0  0  0  0
  141.5364   71.1169  228.8315 H   0  0  0  0  0  0  0  0  0  0  0  0
  140.9422   72.3903  226.7696 H   0  0  0  0  0  0  0  0  0  0  0  0
  1  2  2  0
  2  3  1  0
  3  4  1  0
  4  5  1  0
  5  6  2  0
  5  7  1  0
  7  8  1  0
  8  9  1  0
  9 10  1  0
 10 11  1  0
 11 12  1  0
 12 13  1  0
 13 14  1  0
 14 15  1  0
 15 16  1  0
 16 17  1  0
 17 18  1  0
  2 19  1  0
 19 20  2  0
 20 21  1  0
 21 22  2  0
 22 23  1  0
 23 24  2  0
 24 25  1  0
 24 26  1  0
 26 27  2  0
 27 28  1  0
 28 29  2  0
 11  7  1  0
 18 14  1  0
 29 19  1  0
 28 22  1  0
  3 30  1  0
  4 31  1  0
  4 32  1  0
  8 33  1  0
  8 34  1  0
  9 35  1  0
  9 36  1  0
 10 37  1  0
 10 38  1  0
 11 39  1  6
 12 40  1  0
 12 41  1  0
 13 42  1  0
 14 43  1  0
 15 44  1  0
 15 45  1  0
 16 46  1  0
 16 47  1  0
 17 48  1  0
 17 49  1  0
 18 50  1  0
 18 51  1  0
 20 52  1  0
 21 53  1  0
 23 54  1  0
 26 55  1  0
 27 56  1  0
M  END
>  <smiles>  (14) 
O=C(NCC(=O)N1CCC[C@H]1CNC1CCCC1)c1ccc2cc(F)ccc2n1

>  <score_type>  (14) 
oracle

>  <origin>  (14) 
autodockgpu

>  <m_score__min__energy>  (14) 
-9.0800000000000001

>  <m_primary>  (14) 
energy

>  <rmsd>  (14) 
2.0607009723963525

>  <m_score__min__rmsd>  (14) 
2.0607009723963525

>  <meeko>  (14) 
{"free_energy": -8.08, "intermolecular_energy": -10.17, "internal_energy": -2.77, "cluster_size": 40, "cluster_id": 1, "rank_in_cluster": 21}

>  <energy>  (14) 
-8.32

>  <cluster_rmsd>  (14) 
1.02

>  <cluster>  (14) 
1

$$$$

     RDKit          3D

 56 59  0  0  0  0  0  0  0  0999 V2000
  140.4910   71.3060  221.0050 O   0  0  0  0  0  0  0  0  0  0  0  0
  140.1400   71.8670  222.0880 C   0  0  0  0  0  0  0  0  0  0  0  0
  139.9040   73.2680  222.1160 N   0  0  0  0  0  0  0  0  0  0  0  0
  140.0410   74.1200  220.9550 C   0  0  0  0  0  0  0  0  0  0  0  0
  140.6820   75.4010  221.3490 C   0  0  0  0  0  0  0  0  0  0  0  0
  140.3150   75.9140  222.4290 O   0  0  0  0  0  0  0  0  0  0  0  0
  141.6590   75.9560  220.4830 N   0  0  0  0  0  0  0  0  0  0  0  0
  142.9450   75.3470  220.0950 C   0  0  0  0  0  0  0  0  0  0  0  0
  143.1730   75.8860  218.6990 C   0  0  0  0  0  0  0  0  0  0  0  0
  141.8930   76.7200  218.3920 C   0  0  0  0  0  0  0  0  0  0  0  0
  141.6510   77.2330  219.7710 C   0  0  1  0  0  0  0  0  0  0  0  0
  140.5560   78.1450  220.0440 C   0  0  0  0  0  0  0  0  0  0  0  0
  140.0840   78.4380  221.3160 N   0  0  0  0  0  0  0  0  0  0  0  0
  140.6970   79.3430  222.1820 C   0  0  0  0  0  0  0  0  0  0  0  0
  141.4670   78.6440  223.3240 C   0  0  0  0  0  0  0  0  0  0  0  0
  142.2540   79.7840  223.9180 C   0  0  0  0  0  0  0  0  0  0  0  0
  142.2990   80.8770  222.8470 C   0  0  0  0  0  0  0  0  0  0  0  0
  141.8470   80.1290  221.5830 C   0  0  0  0  0  0  0  0  0  0  0  0
  139.9780   71.0680  223.3210 C   0  0  0  0  0  0  0  0  0  0  0  0
  139.3600   69.8330  223.2340 C   0  0  0  0  0  0  0  0  0  0  0  0
  139.2330   69.1270  224.4150 C   0  0  0  0  0  0  0  0  0  0  0  0
  139.7010   69.6320  225.6200 C   0  0  0  0  0  0  0  0  0  0  0  0
  139.5880   68.9480  226.8100 C   0  0  0  0  0  0  0  0  0  0  0  0
  140.0720   69.5020  227.9760 C   0  0  0  0  0  0  0  0  0  0  0  0
  139.9300   68.7800  229.1080 F   0  0  0  0  0  0  0  0  0  0  0  0
  140.6860   70.7450  228.0210 C   0  0  0  0  0  0  0  0  0  0  0  0
  140.8000   71.4290  226.8310 C   0  0  0  0  0  0  0  0  0  0  0  0
  140.3140   70.8800  225.6440 C   0  0  0  0  0  0  0  0  0  0  0  0
  140.4300   71.5570  224.4890 N   0  0  0  0  0  0  0  0  0  0  0  0
  139.6160   73.6620  223.0530 H   0  0  0  0  0  0  0  0  0  0  0  0
  140.6642   73.6153  220.2021 H   0  0  0  0  0  0  0  0  0  0  0  0
  139.0460   74.3244  220.5328 H   0  0  0  0  0  0  0  0  0  0  0  0
  143.7510   75.6593  220.7754 H   0  0  0  0  0  0  0  0  0  0  0  0
  142.9331   74.2479  220.1375 H   0  0  0  0  0  0  0  0  0  0  0  0
  144.0692   76.5232  218.6693 H   0  0  0  0  0  0  0  0  0  0  0  0
  143.3390   75.0860  217.9625 H   0  0  0  0  0  0  0  0  0  0  0  0
  142.0848   77.5299  217.6728 H   0  0  0  0  0  0  0  0  0  0  0  0
  141.0598   76.1751  217.9241 H   0  0  0  0  0  0  0  0  0  0  0  0
  142.3947   77.9792  220.0874 H   0  0  0  0  0  0  0  0  0  0  0  0
  140.8569   79.1095  219.6091 H   0  0  0  0  0  0  0  0  0  0  0  0
  139.7072   77.5784  219.6335 H   0  0  0  0  0  0  0  0  0  0  0  0
  139.6390   77.6140  221.7990 H   0  0  0  0  0  0  0  0  0  0  0  0
  139.8337   79.9589  222.4742 H   0  0  0  0  0  0  0  0  0  0  0  0
  140.7776   78.2076  224.0618 H   0  0  0  0  0  0  0  0  0  0  0  0
  142.0913   77.8033  222.9872 H   0  0  0  0  0  0  0  0  0  0  0  0
  141.7565   80.1590  224.8246 H   0  0  0  0  0  0  0  0  0  0  0  0
  143.2662   79.4643  224.2066 H   0  0  0  0  0  0  0  0  0  0  0  0
  141.6094   81.6989  223.0896 H   0  0  0  0  0  0  0  0  0  0  0  0
  143.2875   81.3487  222.7455 H   0  0  0  0  0  0  0  0  0  0  0  0
  141.5112   80.8167  220.7929 H   0  0  0  0  0  0  0  0  0  0  0  0
  142.6218   79.5314  221.0803 H   0  0  0  0  0  0  0  0  0  0  0  0
  138.9902   69.4352  222.2774 H   0  0  0  0  0  0  0  0  0  0  0  0
  138.7486   68.1395  224.3997 H   0  0  0  0  0  0  0  0  0  0  0  0
  139.1104   67.9573  226.8302 H   0  0  0  0  0  0  0  0  0  0  0  0
  141.0647   71.1654  228.9643 H   0  0  0  0  0  0  0  0  0  0  0  0
  141.2794   72.4189  226.8163 H   0  0  0  0  0  0  0  0  0  0  0  0
  1  2  2  0
  2  3  1  0
  3  4  1  0
  4  5  1  0
  5  6  2  0
  5  7  1  0
  7  8  1  0
  8  9  1  0
  9 10  1  0
 10 11  1  0
 11 12  1  0
 12 13  1  0
 13 14  1  0
 14 15  1  0
 15 16  1  0
 16 17  1  0
 17 18  1  0
  2 19  1  0
 19 20  2  0
 20 21  1  0
 21 22  2  0
 22 23  1  0
 23 24  2  0
 24 25  1  0
 24 26  1  0
 26 27  2  0
 27 28  1  0
 28 29  2  0
 11  7  1  0
 18 14  1  0
 29 19  1  0
 28 22  1  0
  3 30  1  0
  4 31  1  0
  4 32  1  0
  8 33  1  0
  8 34  1  0
  9 35  1  0
  9 36  1  0
 10 37  1  0
 10 38  1  0
 11 39  1  1
 12 40  1  0
 12 41  1  0
 13 42  1  0
 14 43  1  0
 15 44  1  0
 15 45  1  0
 16 46  1  0
 16 47  1  0
 17 48  1  0
 17 49  1  0
 18 50  1  0
 18 51  1  0
 20 52  1  0
 21 53  1  0
 23 54  1  0
 26 55  1  0
 27 56  1  0
M  END
>  <smiles>  (15) 
O=C(NCC(=O)N1CCC[C@H]1CNC1CCCC1)c1ccc2cc(F)ccc2n1

>  <score_type>  (15) 
oracle

>  <origin>  (15) 
autodockgpu

>  <m_score__min__energy>  (15) 
-9.0800000000000001

>  <m_primary>  (15) 
energy

>  <rmsd>  (15) 
2.264650061403261

>  <m_score__min__rmsd>  (15) 
2.264650061403261

>  <meeko>  (15) 
{"free_energy": -8.12, "intermolecular_energy": -10.21, "internal_energy": -2.61, "cluster_size": 40, "cluster_id": 1, "rank_in_cluster": 20}

>  <energy>  (15) 
-8.31

>  <cluster_rmsd>  (15) 
1.13

>  <cluster>  (15) 
1

$$$$

     RDKit          3D

 56 59  0  0  0  0  0  0  0  0999 V2000
  140.0580   71.4430  221.0510 O   0  0  0  0  0  0  0  0  0  0  0  0
  139.9080   71.9610  222.2000 C   0  0  0  0  0  0  0  0  0  0  0  0
  139.7490   73.3670  222.3280 N   0  0  0  0  0  0  0  0  0  0  0  0
  139.7460   74.2710  221.2000 C   0  0  0  0  0  0  0  0  0  0  0  0
  139.3750   75.6360  221.6540 C   0  0  0  0  0  0  0  0  0  0  0  0
  139.2120   75.8040  222.8830 O   0  0  0  0  0  0  0  0  0  0  0  0
  139.2290   76.6520  220.6750 N   0  0  0  0  0  0  0  0  0  0  0  0
  139.1410   76.4680  219.2140 C   0  0  0  0  0  0  0  0  0  0  0  0
  138.2640   77.6200  218.7740 C   0  0  0  0  0  0  0  0  0  0  0  0
  137.8580   78.3270  220.1030 C   0  0  0  0  0  0  0  0  0  0  0  0
  139.1300   78.1010  220.8480 C   0  0  1  0  0  0  0  0  0  0  0  0
  139.3100   78.6300  222.1880 C   0  0  0  0  0  0  0  0  0  0  0  0
  140.3610   78.2840  223.0270 N   0  0  0  0  0  0  0  0  0  0  0  0
  141.3050   79.1940  223.5040 C   0  0  0  0  0  0  0  0  0  0  0  0
  142.5420   79.3010  222.5880 C   0  0  0  0  0  0  0  0  0  0  0  0
  143.2410   80.5170  223.1420 C   0  0  0  0  0  0  0  0  0  0  0  0
  142.1870   81.2890  223.9400 C   0  0  0  0  0  0  0  0  0  0  0  0
  140.8720   80.6460  223.4720 C   0  0  0  0  0  0  0  0  0  0  0  0
  139.9010   71.1060  223.4060 C   0  0  0  0  0  0  0  0  0  0  0  0
  139.4610   69.7990  223.2890 C   0  0  0  0  0  0  0  0  0  0  0  0
  139.4740   69.0430  224.4460 C   0  0  0  0  0  0  0  0  0  0  0  0
  139.9050   69.5690  225.6560 C   0  0  0  0  0  0  0  0  0  0  0  0
  139.9280   68.8360  226.8210 C   0  0  0  0  0  0  0  0  0  0  0  0
  140.3660   69.4140  227.9940 C   0  0  0  0  0  0  0  0  0  0  0  0
  140.3640   68.6420  229.1020 F   0  0  0  0  0  0  0  0  0  0  0  0
  140.7990   70.7290  228.0690 C   0  0  0  0  0  0  0  0  0  0  0  0
  140.7760   71.4630  226.9040 C   0  0  0  0  0  0  0  0  0  0  0  0
  140.3350   70.8900  225.7100 C   0  0  0  0  0  0  0  0  0  0  0  0
  140.3170   71.6150  224.5790 N   0  0  0  0  0  0  0  0  0  0  0  0
  139.6310   73.7230  223.3150 H   0  0  0  0  0  0  0  0  0  0  0  0
  140.7487   74.2957  220.7484 H   0  0  0  0  0  0  0  0  0  0  0  0
  139.0145   73.9230  220.4558 H   0  0  0  0  0  0  0  0  0  0  0  0
  140.1355   76.5287  218.7480 H   0  0  0  0  0  0  0  0  0  0  0  0
  138.7398   75.4852  218.9259 H   0  0  0  0  0  0  0  0  0  0  0  0
  138.8226   78.3077  218.1220 H   0  0  0  0  0  0  0  0  0  0  0  0
  137.3917   77.2853  218.1934 H   0  0  0  0  0  0  0  0  0  0  0  0
  137.6429   79.3960  219.9586 H   0  0  0  0  0  0  0  0  0  0  0  0
  136.9407   77.9603  220.5869 H   0  0  0  0  0  0  0  0  0  0  0  0
  139.9667   78.7017  220.4619 H   0  0  0  0  0  0  0  0  0  0  0  0
  139.3694   79.7222  222.0713 H   0  0  0  0  0  0  0  0  0  0  0  0
  138.4632   78.1624  222.7117 H   0  0  0  0  0  0  0  0  0  0  0  0
  140.7470   77.3210  222.8420 H   0  0  0  0  0  0  0  0  0  0  0  0
  141.4748   78.7972  224.5158 H   0  0  0  0  0  0  0  0  0  0  0  0
  143.1759   78.4055  222.6669 H   0  0  0  0  0  0  0  0  0  0  0  0
  142.2956   79.3808  221.5189 H   0  0  0  0  0  0  0  0  0  0  0  0
  144.0701   80.2142  223.7984 H   0  0  0  0  0  0  0  0  0  0  0  0
  143.6674   81.1352  222.3382 H   0  0  0  0  0  0  0  0  0  0  0  0
  142.3314   81.1544  225.0221 H   0  0  0  0  0  0  0  0  0  0  0  0
  142.2244   82.3760  223.7757 H   0  0  0  0  0  0  0  0  0  0  0  0
  140.0430   80.8462  224.1667 H   0  0  0  0  0  0  0  0  0  0  0  0
  140.4817   81.0060  222.5086 H   0  0  0  0  0  0  0  0  0  0  0  0
  139.1199   69.3850  222.3287 H   0  0  0  0  0  0  0  0  0  0  0  0
  139.1340   67.9976  224.4069 H   0  0  0  0  0  0  0  0  0  0  0  0
  139.5964   67.7872  226.8163 H   0  0  0  0  0  0  0  0  0  0  0  0
  141.1455   71.1665  229.0169 H   0  0  0  0  0  0  0  0  0  0  0  0
  141.1085   72.5115  226.9145 H   0  0  0  0  0  0  0  0  0  0  0  0
  1  2  2  0
  2  3  1  0
  3  4  1  0
  4  5  1  0
  5  6  2  0
  5  7  1  0
  7  8  1  0
  8  9  1  0
  9 10  1  0
 10 11  1  0
 11 12  1  0
 12 13  1  0
 13 14  1  0
 14 15  1  0
 15 16  1  0
 16 17  1  0
 17 18  1  0
  2 19  1  0
 19 20  2  0
 20 21  1  0
 21 22  2  0
 22 23  1  0
 23 24  2  0
 24 25  1  0
 24 26  1  0
 26 27  2  0
 27 28  1  0
 28 29  2  0
 11  7  1  0
 18 14  1  0
 29 19  1  0
 28 22  1  0
  3 30  1  0
  4 31  1  0
  4 32  1  0
  8 33  1  0
  8 34  1  0
  9 35  1  0
  9 36  1  0
 10 37  1  0
 10 38  1  0
 11 39  1  6
 12 40  1  0
 12 41  1  0
 13 42  1  0
 14 43  1  0
 15 44  1  0
 15 45  1  0
 16 46  1  0
 16 47  1  0
 17 48  1  0
 17 49  1  0
 18 50  1  0
 18 51  1  0
 20 52  1  0
 21 53  1  0
 23 54  1  0
 26 55  1  0
 27 56  1  0
M  END
>  <smiles>  (16) 
O=C(NCC(=O)N1CCC[C@H]1CNC1CCCC1)c1ccc2cc(F)ccc2n1

>  <score_type>  (16) 
oracle

>  <origin>  (16) 
autodockgpu

>  <m_score__min__energy>  (16) 
-9.0800000000000001

>  <m_primary>  (16) 
energy

>  <rmsd>  (16) 
2.330377745595955

>  <m_score__min__rmsd>  (16) 
2.330377745595955

>  <meeko>  (16) 
{"free_energy": -7.58, "intermolecular_energy": -9.66, "internal_energy": -2.7, "cluster_size": 40, "cluster_id": 1, "rank_in_cluster": 35}

>  <energy>  (16) 
-8.3

>  <cluster_rmsd>  (16) 
1.05

>  <cluster>  (16) 
1

$$$$

     RDKit          3D

 56 59  0  0  0  0  0  0  0  0999 V2000
  137.3050   76.2420  221.0350 O   0  0  0  0  0  0  0  0  0  0  0  0
  138.2560   76.2020  221.8740 C   0  0  0  0  0  0  0  0  0  0  0  0
  138.7480   74.9470  222.3280 N   0  0  0  0  0  0  0  0  0  0  0  0
  138.2170   73.6790  221.8800 C   0  0  0  0  0  0  0  0  0  0  0  0
  138.8910   72.5720  222.6070 C   0  0  0  0  0  0  0  0  0  0  0  0
  140.1280   72.6660  222.7700 O   0  0  0  0  0  0  0  0  0  0  0  0
  138.0970   71.4890  223.0640 N   0  0  0  0  0  0  0  0  0  0  0  0
  136.6240   71.4100  223.0670 C   0  0  0  0  0  0  0  0  0  0  0  0
  136.3580   69.9320  222.8860 C   0  0  0  0  0  0  0  0  0  0  0  0
  137.7730   69.3020  222.7090 C   0  0  0  0  0  0  0  0  0  0  0  0
  138.5140   70.2080  223.6340 C   0  0  1  0  0  0  0  0  0  0  0  0
  139.9300   70.0160  223.8870 C   0  0  0  0  0  0  0  0  0  0  0  0
  140.6780   70.7960  224.7590 N   0  0  0  0  0  0  0  0  0  0  0  0
  140.2920   71.0850  226.0680 C   0  0  0  0  0  0  0  0  0  0  0  0
  140.2190   69.8240  226.9570 C   0  0  0  0  0  0  0  0  0  0  0  0
  140.0810   70.4180  228.3360 C   0  0  0  0  0  0  0  0  0  0  0  0
  140.5730   71.8640  228.2300 C   0  0  0  0  0  0  0  0  0  0  0  0
  141.3020   71.8730  226.8780 C   0  0  0  0  0  0  0  0  0  0  0  0
  138.8540   77.4540  222.3830 C   0  0  0  0  0  0  0  0  0  0  0  0
  138.0110   78.4860  222.7590 C   0  0  0  0  0  0  0  0  0  0  0  0
  138.6200   79.6340  223.2270 C   0  0  0  0  0  0  0  0  0  0  0  0
  140.0000   79.7430  223.3150 C   0  0  0  0  0  0  0  0  0  0  0  0
  140.6310   80.8760  223.7790 C   0  0  0  0  0  0  0  0  0  0  0  0
  142.0080   80.9260  223.8420 C   0  0  0  0  0  0  0  0  0  0  0  0
  142.5640   82.0650  224.3060 F   0  0  0  0  0  0  0  0  0  0  0  0
  142.8170   79.8690  223.4550 C   0  0  0  0  0  0  0  0  0  0  0  0
  142.1870   78.7360  222.9910 C   0  0  0  0  0  0  0  0  0  0  0  0
  140.7950   78.6720  222.9220 C   0  0  0  0  0  0  0  0  0  0  0  0
  140.1910   77.5610  222.4670 N   0  0  0  0  0  0  0  0  0  0  0  0
  139.5390   74.9950  223.0250 H   0  0  0  0  0  0  0  0  0  0  0  0
  137.1359   73.6436  222.0799 H   0  0  0  0  0  0  0  0  0  0  0  0
  138.3953   73.5691  220.8001 H   0  0  0  0  0  0  0  0  0  0  0  0
  136.2113   71.7714  224.0205 H   0  0  0  0  0  0  0  0  0  0  0  0
  136.1566   72.0314  222.2889 H   0  0  0  0  0  0  0  0  0  0  0  0
  135.8546   69.5159  223.7711 H   0  0  0  0  0  0  0  0  0  0  0  0
  135.6977   69.7266  222.0306 H   0  0  0  0  0  0  0  0  0  0  0  0
  137.8068   68.2524  223.0364 H   0  0  0  0  0  0  0  0  0  0  0  0
  138.1530   69.2448  221.6783 H   0  0  0  0  0  0  0  0  0  0  0  0
  138.2683   70.0356  224.6923 H   0  0  0  0  0  0  0  0  0  0  0  0
  140.0298   68.9829  224.2515 H   0  0  0  0  0  0  0  0  0  0  0  0
  140.3570   70.3182  222.9193 H   0  0  0  0  0  0  0  0  0  0  0  0
  141.2000   71.5770  224.2820 H   0  0  0  0  0  0  0  0  0  0  0  0
  139.3463   71.6167  225.8868 H   0  0  0  0  0  0  0  0  0  0  0  0
  139.3473   69.2041  226.7001 H   0  0  0  0  0  0  0  0  0  0  0  0
  141.0849   69.1545  226.8479 H   0  0  0  0  0  0  0  0  0  0  0  0
  139.0292   70.3958  228.6572 H   0  0  0  0  0  0  0  0  0  0  0  0
  140.6629   69.8501  229.0769 H   0  0  0  0  0  0  0  0  0  0  0  0
  139.7303   72.5710  228.2312 H   0  0  0  0  0  0  0  0  0  0  0  0
  141.2103   72.1716  229.0722 H   0  0  0  0  0  0  0  0  0  0  0  0
  141.4395   72.8926  226.4888 H   0  0  0  0  0  0  0  0  0  0  0  0
  142.3251   71.4690  226.8861 H   0  0  0  0  0  0  0  0  0  0  0  0
  136.9169   78.3966  222.6889 H   0  0  0  0  0  0  0  0  0  0  0  0
  137.9945   80.4837  223.5380 H   0  0  0  0  0  0  0  0  0  0  0  0
  140.0353   81.7432  224.1002 H   0  0  0  0  0  0  0  0  0  0  0  0
  143.9135   79.9325  223.5159 H   0  0  0  0  0  0  0  0  0  0  0  0
  142.7878   77.8718  222.6712 H   0  0  0  0  0  0  0  0  0  0  0  0
  1  2  2  0
  2  3  1  0
  3  4  1  0
  4  5  1  0
  5  6  2  0
  5  7  1  0
  7  8  1  0
  8  9  1  0
  9 10  1  0
 10 11  1  0
 11 12  1  0
 12 13  1  0
 13 14  1  0
 14 15  1  0
 15 16  1  0
 16 17  1  0
 17 18  1  0
  2 19  1  0
 19 20  2  0
 20 21  1  0
 21 22  2  0
 22 23  1  0
 23 24  2  0
 24 25  1  0
 24 26  1  0
 26 27  2  0
 27 28  1  0
 28 29  2  0
 11  7  1  0
 18 14  1  0
 29 19  1  0
 28 22  1  0
  3 30  1  0
  4 31  1  0
  4 32  1  0
  8 33  1  0
  8 34  1  0
  9 35  1  0
  9 36  1  0
 10 37  1  0
 10 38  1  0
 11 39  1  1
 12 40  1  0
 12 41  1  0
 13 42  1  0
 14 43  1  0
 15 44  1  0
 15 45  1  0
 16 46  1  0
 16 47  1  0
 17 48  1  0
 17 49  1  0
 18 50  1  0
 18 51  1  0
 20 52  1  0
 21 53  1  0
 23 54  1  0
 26 55  1  0
 27 56  1  0
M  END
>  <smiles>  (17) 
O=C(NCC(=O)N1CCC[C@H]1CNC1CCCC1)c1ccc2cc(F)ccc2n1

>  <score_type>  (17) 
oracle

>  <origin>  (17) 
autodockgpu

>  <m_score__min__energy>  (17) 
-9.0800000000000001

>  <m_primary>  (17) 
energy

>  <rmsd>  (17) 
9.17996530175177

>  <m_score__min__rmsd>  (17) 
9.17996530175177

>  <meeko>  (17) 
{"free_energy": -7.55, "intermolecular_energy": -9.64, "internal_energy": -2.41, "cluster_size": 5, "cluster_id": 2, "rank_in_cluster": 2}

>  <energy>  (17) 
-8.29

>  <cluster_rmsd>  (17) 
1.82

>  <cluster>  (17) 
1

$$$$

     RDKit          3D

 56 59  0  0  0  0  0  0  0  0999 V2000
  138.0560   70.6500  221.7300 O   0  0  0  0  0  0  0  0  0  0  0  0
  138.6960   71.1820  222.6880 C   0  0  0  0  0  0  0  0  0  0  0  0
  139.0400   72.5600  222.6310 N   0  0  0  0  0  0  0  0  0  0  0  0
  138.6970   73.4180  221.5190 C   0  0  0  0  0  0  0  0  0  0  0  0
  139.2390   74.7810  221.7550 C   0  0  0  0  0  0  0  0  0  0  0  0
  140.3390   74.8640  222.3450 O   0  0  0  0  0  0  0  0  0  0  0  0
  138.4820   75.8910  221.3010 N   0  0  0  0  0  0  0  0  0  0  0  0
  137.0210   75.9470  221.1090 C   0  0  0  0  0  0  0  0  0  0  0  0
  136.6920   77.3970  221.3930 C   0  0  0  0  0  0  0  0  0  0  0  0
  138.0530   78.0270  221.8160 C   0  0  0  0  0  0  0  0  0  0  0  0
  138.9330   77.2280  220.9160 C   0  0  1  0  0  0  0  0  0  0  0  0
  140.3640   77.4660  220.8730 C   0  0  0  0  0  0  0  0  0  0  0  0
  141.1780   77.5240  221.9970 N   0  0  0  0  0  0  0  0  0  0  0  0
  141.8620   78.6710  222.4010 C   0  0  0  0  0  0  0  0  0  0  0  0
  141.2820   79.9580  221.7760 C   0  0  0  0  0  0  0  0  0  0  0  0
  141.9740   81.0340  222.5740 C   0  0  0  0  0  0  0  0  0  0  0  0
  142.4690   80.3640  223.8580 C   0  0  0  0  0  0  0  0  0  0  0  0
  141.6980   79.0360  223.8630 C   0  0  0  0  0  0  0  0  0  0  0  0
  139.0870   70.3730  223.8620 C   0  0  0  0  0  0  0  0  0  0  0  0
  138.8270   69.0140  223.8460 C   0  0  0  0  0  0  0  0  0  0  0  0
  139.2110   68.3040  224.9680 C   0  0  0  0  0  0  0  0  0  0  0  0
  139.8240   68.9240  226.0480 C   0  0  0  0  0  0  0  0  0  0  0  0
  140.2170   68.2390  227.1770 C   0  0  0  0  0  0  0  0  0  0  0  0
  140.8200   68.9100  228.2190 C   0  0  0  0  0  0  0  0  0  0  0  0
  141.1820   68.1810  229.2960 F   0  0  0  0  0  0  0  0  0  0  0  0
  141.0620   70.2750  228.1960 C   0  0  0  0  0  0  0  0  0  0  0  0
  140.6690   70.9610  227.0680 C   0  0  0  0  0  0  0  0  0  0  0  0
  140.0580   70.2940  226.0050 C   0  0  0  0  0  0  0  0  0  0  0  0
  139.6790   70.9730  224.9100 N   0  0  0  0  0  0  0  0  0  0  0  0
  139.5720   72.9300  223.4650 H   0  0  0  0  0  0  0  0  0  0  0  0
  139.1280   73.0079  220.5938 H   0  0  0  0  0  0  0  0  0  0  0  0
  137.6025   73.4718  221.4234 H   0  0  0  0  0  0  0  0  0  0  0  0
  136.7475   75.6746  220.0790 H   0  0  0  0  0  0  0  0  0  0  0  0
  136.4731   75.2451  221.7548 H   0  0  0  0  0  0  0  0  0  0  0  0
  136.2978   77.8904  220.4924 H   0  0  0  0  0  0  0  0  0  0  0  0
  135.9195   77.5078  222.1682 H   0  0  0  0  0  0  0  0  0  0  0  0
  138.1004   79.1041  221.5979 H   0  0  0  0  0  0  0  0  0  0  0  0
  138.2930   77.9880  222.8888 H   0  0  0  0  0  0  0  0  0  0  0  0
  138.8223   77.4993  219.8557 H   0  0  0  0  0  0  0  0  0  0  0  0
  140.7803   76.6645  220.2451 H   0  0  0  0  0  0  0  0  0  0  0  0
  140.3905   78.5149  220.5427 H   0  0  0  0  0  0  0  0  0  0  0  0
  141.6940   76.6250  222.1890 H   0  0  0  0  0  0  0  0  0  0  0  0
  142.8904   78.4046  222.1158 H   0  0  0  0  0  0  0  0  0  0  0  0
  141.5312   80.0305  220.7071 H   0  0  0  0  0  0  0  0  0  0  0  0
  140.1841   80.0139  221.8150 H   0  0  0  0  0  0  0  0  0  0  0  0
  142.8226   81.4433  222.0062 H   0  0  0  0  0  0  0  0  0  0  0  0
  141.2928   81.8688  222.7952 H   0  0  0  0  0  0  0  0  0  0  0  0
  143.5549   80.1923  223.8229 H   0  0  0  0  0  0  0  0  0  0  0  0
  142.3008   80.9704  224.7602 H   0  0  0  0  0  0  0  0  0  0  0  0
  142.1591   78.2923  224.5295 H   0  0  0  0  0  0  0  0  0  0  0  0
  140.6614   79.0885  224.2274 H   0  0  0  0  0  0  0  0  0  0  0  0
  138.3417   68.5258  222.9880 H   0  0  0  0  0  0  0  0  0  0  0  0
  139.0261   67.2203  225.0060 H   0  0  0  0  0  0  0  0  0  0  0  0
  140.0491   67.1541  227.2469 H   0  0  0  0  0  0  0  0  0  0  0  0
  141.5461   70.7872  229.0406 H   0  0  0  0  0  0  0  0  0  0  0  0
  140.8385   72.0460  227.0043 H   0  0  0  0  0  0  0  0  0  0  0  0
  1  2  2  0
  2  3  1  0
  3  4  1  0
  4  5  1  0
  5  6  2  0
  5  7  1  0
  7  8  1  0
  8  9  1  0
  9 10  1  0
 10 11  1  0
 11 12  1  0
 12 13  1  0
 13 14  1  0
 14 15  1  0
 15 16  1  0
 16 17  1  0
 17 18  1  0
  2 19  1  0
 19 20  2  0
 20 21  1  0
 21 22  2  0
 22 23  1  0
 23 24  2  0
 24 25  1  0
 24 26  1  0
 26 27  2  0
 27 28  1  0
 28 29  2  0
 11  7  1  0
 18 14  1  0
 29 19  1  0
 28 22  1  0
  3 30  1  0
  4 31  1  0
  4 32  1  0
  8 33  1  0
  8 34  1  0
  9 35  1  0
  9 36  1  0
 10 37  1  0
 10 38  1  0
 11 39  1  6
 12 40  1  0
 12 41  1  0
 13 42  1  0
 14 43  1  0
 15 44  1  0
 15 45  1  0
 16 46  1  0
 16 47  1  0
 17 48  1  0
 17 49  1  0
 18 50  1  0
 18 51  1  0
 20 52  1  0
 21 53  1  0
 23 54  1  0
 26 55  1  0
 27 56  1  0
M  END
>  <smiles>  (18) 
O=C(NCC(=O)N1CCC[C@H]1CNC1CCCC1)c1ccc2cc(F)ccc2n1

>  <score_type>  (18) 
oracle

>  <origin>  (18) 
autodockgpu

>  <m_score__min__energy>  (18) 
-9.0800000000000001

>  <m_primary>  (18) 
energy

>  <rmsd>  (18) 
2.5008468956413727

>  <m_score__min__rmsd>  (18) 
2.5008468956413727

>  <meeko>  (18) 
{"free_energy": -8.29, "intermolecular_energy": -10.38, "internal_energy": -2.65, "cluster_size": 40, "cluster_id": 1, "rank_in_cluster": 17}

>  <energy>  (18) 
-8.25

>  <cluster_rmsd>  (18) 
1.52

>  <cluster>  (18) 
1

$$$$

     RDKit          3D

 56 59  0  0  0  0  0  0  0  0999 V2000
  141.7150   78.2830  217.2080 O   0  0  0  0  0  0  0  0  0  0  0  0
  142.2290   77.8440  218.2820 C   0  0  0  0  0  0  0  0  0  0  0  0
  142.1600   78.6230  219.4700 N   0  0  0  0  0  0  0  0  0  0  0  0
  141.5230   79.9190  219.5320 C   0  0  0  0  0  0  0  0  0  0  0  0
  140.9220   80.1160  220.8760 C   0  0  0  0  0  0  0  0  0  0  0  0
  139.7230   80.4700  220.9190 O   0  0  0  0  0  0  0  0  0  0  0  0
  141.7370   79.8910  222.0150 N   0  0  0  0  0  0  0  0  0  0  0  0
  142.7120   80.8290  222.6040 C   0  0  0  0  0  0  0  0  0  0  0  0
  142.6810   80.4780  224.0750 C   0  0  0  0  0  0  0  0  0  0  0  0
  141.5800   79.3810  224.1890 C   0  0  0  0  0  0  0  0  0  0  0  0
  141.8240   78.7140  222.8780 C   0  0  1  0  0  0  0  0  0  0  0  0
  141.0650   77.5400  222.4880 C   0  0  0  0  0  0  0  0  0  0  0  0
  141.3600   76.7530  221.3830 N   0  0  0  0  0  0  0  0  0  0  0  0
  140.6230   75.6280  221.0130 C   0  0  0  0  0  0  0  0  0  0  0  0
  141.4080   74.3130  221.2110 C   0  0  0  0  0  0  0  0  0  0  0  0
  140.3310   73.2730  221.0320 C   0  0  0  0  0  0  0  0  0  0  0  0
  138.9980   73.9950  221.2480 C   0  0  0  0  0  0  0  0  0  0  0  0
  139.4330   75.3170  221.8990 C   0  0  0  0  0  0  0  0  0  0  0  0
  142.9010   76.5280  218.3030 C   0  0  0  0  0  0  0  0  0  0  0  0
  142.8880   75.7590  217.1520 C   0  0  0  0  0  0  0  0  0  0  0  0
  143.5290   74.5370  217.2240 C   0  0  0  0  0  0  0  0  0  0  0  0
  144.1510   74.1090  218.3880 C   0  0  0  0  0  0  0  0  0  0  0  0
  144.7980   72.8970  218.4860 C   0  0  0  0  0  0  0  0  0  0  0  0
  145.3980   72.5240  219.6700 C   0  0  0  0  0  0  0  0  0  0  0  0
  146.0150   71.3240  219.6990 F   0  0  0  0  0  0  0  0  0  0  0  0
  145.3880   73.3250  220.8020 C   0  0  0  0  0  0  0  0  0  0  0  0
  144.7410   74.5370  220.7060 C   0  0  0  0  0  0  0  0  0  0  0  0
  144.1310   74.9260  219.5130 C   0  0  0  0  0  0  0  0  0  0  0  0
  143.5030   76.1110  219.4300 N   0  0  0  0  0  0  0  0  0  0  0  0
  142.6110   78.1920  220.3220 H   0  0  0  0  0  0  0  0  0  0  0  0
  142.2713   80.7038  219.3472 H   0  0  0  0  0  0  0  0  0  0  0  0
  140.7339   79.9747  218.7677 H   0  0  0  0  0  0  0  0  0  0  0  0
  143.7155   80.6721  222.1818 H   0  0  0  0  0  0  0  0  0  0  0  0
  142.4708   81.8838  222.4062 H   0  0  0  0  0  0  0  0  0  0  0  0
  143.6556   80.0868  224.4024 H   0  0  0  0  0  0  0  0  0  0  0  0
  142.4700   81.3511  224.7099 H   0  0  0  0  0  0  0  0  0  0  0  0
  141.7506   78.7049  225.0398 H   0  0  0  0  0  0  0  0  0  0  0  0
  140.5553   79.7389  224.3679 H   0  0  0  0  0  0  0  0  0  0  0  0
  142.7693   78.1521  222.8523 H   0  0  0  0  0  0  0  0  0  0  0  0
  141.0998   76.8622  223.3537 H   0  0  0  0  0  0  0  0  0  0  0  0
  140.1192   78.0013  222.1677 H   0  0  0  0  0  0  0  0  0  0  0  0
  142.3920   76.6760  221.1860 H   0  0  0  0  0  0  0  0  0  0  0  0
  140.3569   75.8925  219.9790 H   0  0  0  0  0  0  0  0  0  0  0  0
  142.1994   74.2026  220.4550 H   0  0  0  0  0  0  0  0  0  0  0  0
  141.9288   74.2494  222.1778 H   0  0  0  0  0  0  0  0  0  0  0  0
  140.3750   72.8494  220.0178 H   0  0  0  0  0  0  0  0  0  0  0  0
  140.4555   72.4416  221.7414 H   0  0  0  0  0  0  0  0  0  0  0  0
  138.4840   74.1736  220.2920 H   0  0  0  0  0  0  0  0  0  0  0  0
  138.2843   73.4217  221.8578 H   0  0  0  0  0  0  0  0  0  0  0  0
  138.6524   76.0889  221.8295 H   0  0  0  0  0  0  0  0  0  0  0  0
  139.6421   75.2702  222.9779 H   0  0  0  0  0  0  0  0  0  0  0  0
  142.3945   76.1019  216.2307 H   0  0  0  0  0  0  0  0  0  0  0  0
  143.5466   73.8874  216.3364 H   0  0  0  0  0  0  0  0  0  0  0  0
  144.8362   72.2243  217.6165 H   0  0  0  0  0  0  0  0  0  0  0  0
  145.8753   73.0064  221.7353 H   0  0  0  0  0  0  0  0  0  0  0  0
  144.7048   75.2053  221.5790 H   0  0  0  0  0  0  0  0  0  0  0  0
  1  2  2  0
  2  3  1  0
  3  4  1  0
  4  5  1  0
  5  6  2  0
  5  7  1  0
  7  8  1  0
  8  9  1  0
  9 10  1  0
 10 11  1  0
 11 12  1  0
 12 13  1  0
 13 14  1  0
 14 15  1  0
 15 16  1  0
 16 17  1  0
 17 18  1  0
  2 19  1  0
 19 20  2  0
 20 21  1  0
 21 22  2  0
 22 23  1  0
 23 24  2  0
 24 25  1  0
 24 26  1  0
 26 27  2  0
 27 28  1  0
 28 29  2  0
 11  7  1  0
 18 14  1  0
 29 19  1  0
 28 22  1  0
  3 30  1  0
  4 31  1  0
  4 32  1  0
  8 33  1  0
  8 34  1  0
  9 35  1  0
  9 36  1  0
 10 37  1  0
 10 38  1  0
 11 39  1  1
 12 40  1  0
 12 41  1  0
 13 42  1  0
 14 43  1  0
 15 44  1  0
 15 45  1  0
 16 46  1  0
 16 47  1  0
 17 48  1  0
 17 49  1  0
 18 50  1  0
 18 51  1  0
 20 52  1  0
 21 53  1  0
 23 54  1  0
 26 55  1  0
 27 56  1  0
M  END
>  <smiles>  (19) 
O=C(NCC(=O)N1CCC[C@H]1CNC1CCCC1)c1ccc2cc(F)ccc2n1

>  <score_type>  (19) 
oracle

>  <origin>  (19) 
autodockgpu

>  <m_score__min__energy>  (19) 
-9.0800000000000001

>  <m_primary>  (19) 
energy

>  <rmsd>  (19) 
7.782332115942846

>  <m_score__min__rmsd>  (19) 
7.782332115942846

>  <meeko>  (19) 
{"free_energy": -6.35, "intermolecular_energy": -8.43, "internal_energy": -4.08, "cluster_size": 3, "cluster_id": 5, "rank_in_cluster": 1}

>  <energy>  (19) 
-8.22

>  <cluster_rmsd>  (19) 
0.82

>  <cluster>  (19) 
1

$$$$

     RDKit          3D

 56 59  0  0  0  0  0  0  0  0999 V2000
  141.9160   78.5860  217.0720 O   0  0  0  0  0  0  0  0  0  0  0  0
  142.2880   78.0970  218.1820 C   0  0  0  0  0  0  0  0  0  0  0  0
  142.2050   78.8820  219.3650 N   0  0  0  0  0  0  0  0  0  0  0  0
  141.7110   80.2410  219.3820 C   0  0  0  0  0  0  0  0  0  0  0  0
  141.1680   80.5580  220.7270 C   0  0  0  0  0  0  0  0  0  0  0  0
  140.1410   81.2720  220.7750 O   0  0  0  0  0  0  0  0  0  0  0  0
  141.8410   80.0370  221.8620 N   0  0  0  0  0  0  0  0  0  0  0  0
  142.8520   80.7260  222.6860 C   0  0  0  0  0  0  0  0  0  0  0  0
  142.6420   80.1290  224.0600 C   0  0  0  0  0  0  0  0  0  0  0  0
  141.4220   79.1760  223.8860 C   0  0  0  0  0  0  0  0  0  0  0  0
  141.7150   78.7240  222.4950 C   0  0  1  0  0  0  0  0  0  0  0  0
  140.8730   77.7420  221.8390 C   0  0  0  0  0  0  0  0  0  0  0  0
  141.3560   76.6820  221.0830 N   0  0  0  0  0  0  0  0  0  0  0  0
  140.6700   75.4810  220.9040 C   0  0  0  0  0  0  0  0  0  0  0  0
  141.5480   74.2460  221.2030 C   0  0  0  0  0  0  0  0  0  0  0  0
  140.5300   73.1340  221.2270 C   0  0  0  0  0  0  0  0  0  0  0  0
  139.1700   73.8030  221.4480 C   0  0  0  0  0  0  0  0  0  0  0  0
  139.5610   75.2170  221.9040 C   0  0  0  0  0  0  0  0  0  0  0  0
  142.8070   76.7150  218.2510 C   0  0  0  0  0  0  0  0  0  0  0  0
  142.5040   75.8410  217.2220 C   0  0  0  0  0  0  0  0  0  0  0  0
  143.0130   74.5620  217.3340 C   0  0  0  0  0  0  0  0  0  0  0  0
  143.7860   74.1780  218.4210 C   0  0  0  0  0  0  0  0  0  0  0  0
  144.3070   72.9110  218.5570 C   0  0  0  0  0  0  0  0  0  0  0  0
  145.0680   72.5880  219.6600 C   0  0  0  0  0  0  0  0  0  0  0  0
  145.5480   71.3280  219.7320 F   0  0  0  0  0  0  0  0  0  0  0  0
  145.3490   73.4940  220.6710 C   0  0  0  0  0  0  0  0  0  0  0  0
  144.8290   74.7620  220.5370 C   0  0  0  0  0  0  0  0  0  0  0  0
  144.0570   75.1020  219.4250 C   0  0  0  0  0  0  0  0  0  0  0  0
  143.5550   76.3430  219.3040 N   0  0  0  0  0  0  0  0  0  0  0  0
  142.5330   78.4080  220.2490 H   0  0  0  0  0  0  0  0  0  0  0  0
  142.5338   80.9323  219.1474 H   0  0  0  0  0  0  0  0  0  0  0  0
  140.9136   80.3487  218.6320 H   0  0  0  0  0  0  0  0  0  0  0  0
  143.8679   80.5206  222.3176 H   0  0  0  0  0  0  0  0  0  0  0  0
  142.7482   81.8210  222.6706 H   0  0  0  0  0  0  0  0  0  0  0  0
  143.5319   79.5675  224.3806 H   0  0  0  0  0  0  0  0  0  0  0  0
  142.4682   80.8965  224.8286 H   0  0  0  0  0  0  0  0  0  0  0  0
  141.4353   78.3450  224.6066 H   0  0  0  0  0  0  0  0  0  0  0  0
  140.4305   79.6227  224.0518 H   0  0  0  0  0  0  0  0  0  0  0  0
  142.5905   78.0607  222.4347 H   0  0  0  0  0  0  0  0  0  0  0  0
  140.2691   77.2868  222.6378 H   0  0  0  0  0  0  0  0  0  0  0  0
  140.4053   78.3585  221.0572 H   0  0  0  0  0  0  0  0  0  0  0  0
  142.4030   76.5770  221.1280 H   0  0  0  0  0  0  0  0  0  0  0  0
  140.3224   75.5999  219.8672 H   0  0  0  0  0  0  0  0  0  0  0  0
  142.2954   74.0863  220.4118 H   0  0  0  0  0  0  0  0  0  0  0  0
  142.1319   74.3320  222.1313 H   0  0  0  0  0  0  0  0  0  0  0  0
  140.5365   72.5906  220.2706 H   0  0  0  0  0  0  0  0  0  0  0  0
  140.7515   72.4054  222.0208 H   0  0  0  0  0  0  0  0  0  0  0  0
  138.5866   73.8337  220.5159 H   0  0  0  0  0  0  0  0  0  0  0  0
  138.5335   73.2711  222.1705 H   0  0  0  0  0  0  0  0  0  0  0  0
  138.7303   75.9303  221.7987 H   0  0  0  0  0  0  0  0  0  0  0  0
  139.8413   75.3155  222.9631 H   0  0  0  0  0  0  0  0  0  0  0  0
  141.8912   76.1481  216.3617 H   0  0  0  0  0  0  0  0  0  0  0  0
  142.8004   73.8291  216.5417 H   0  0  0  0  0  0  0  0  0  0  0  0
  144.1153   72.1536  217.7826 H   0  0  0  0  0  0  0  0  0  0  0  0
  145.9600   73.2126  221.5413 H   0  0  0  0  0  0  0  0  0  0  0  0
  145.0241   75.5151  221.3147 H   0  0  0  0  0  0  0  0  0  0  0  0
  1  2  2  0
  2  3  1  0
  3  4  1  0
  4  5  1  0
  5  6  2  0
  5  7  1  0
  7  8  1  0
  8  9  1  0
  9 10  1  0
 10 11  1  0
 11 12  1  0
 12 13  1  0
 13 14  1  0
 14 15  1  0
 15 16  1  0
 16 17  1  0
 17 18  1  0
  2 19  1  0
 19 20  2  0
 20 21  1  0
 21 22  2  0
 22 23  1  0
 23 24  2  0
 24 25  1  0
 24 26  1  0
 26 27  2  0
 27 28  1  0
 28 29  2  0
 11  7  1  0
 18 14  1  0
 29 19  1  0
 28 22  1  0
  3 30  1  0
  4 31  1  0
  4 32  1  0
  8 33  1  0
  8 34  1  0
  9 35  1  0
  9 36  1  0
 10 37  1  0
 10 38  1  0
 11 39  1  1
 12 40  1  0
 12 41  1  0
 13 42  1  0
 14 43  1  0
 15 44  1  0
 15 45  1  0
 16 46  1  0
 16 47  1  0
 17 48  1  0
 17 49  1  0
 18 50  1  0
 18 51  1  0
 20 52  1  0
 21 53  1  0
 23 54  1  0
 26 55  1  0
 27 56  1  0
M  END
>  <smiles>  (20) 
O=C(NCC(=O)N1CCC[C@H]1CNC1CCCC1)c1ccc2cc(F)ccc2n1

>  <score_type>  (20) 
oracle

>  <origin>  (20) 
autodockgpu

>  <m_score__min__energy>  (20) 
-9.0800000000000001

>  <m_primary>  (20) 
energy

>  <rmsd>  (20) 
7.811345311295308

>  <m_score__min__rmsd>  (20) 
7.811345311295308

>  <meeko>  (20) 
{"free_energy": -6.21, "intermolecular_energy": -8.3, "internal_energy": -3.97, "cluster_size": 3, "cluster_id": 5, "rank_in_cluster": 3}

>  <energy>  (20) 
-8.12

>  <cluster_rmsd>  (20) 
0.86

>  <cluster>  (20) 
1

$$$$

     RDKit          3D

 56 59  0  0  0  0  0  0  0  0999 V2000
  141.1170   72.1240  221.3690 O   0  0  0  0  0  0  0  0  0  0  0  0
  140.2250   72.4180  222.2230 C   0  0  0  0  0  0  0  0  0  0  0  0
  139.4090   73.5660  222.0280 N   0  0  0  0  0  0  0  0  0  0  0  0
  139.5340   74.4430  220.8850 C   0  0  0  0  0  0  0  0  0  0  0  0
  140.8740   75.0830  220.8910 C   0  0  0  0  0  0  0  0  0  0  0  0
  141.4490   75.1940  221.9970 O   0  0  0  0  0  0  0  0  0  0  0  0
  141.4120   75.5240  219.6550 N   0  0  0  0  0  0  0  0  0  0  0  0
  140.6620   76.0600  218.5040 C   0  0  0  0  0  0  0  0  0  0  0  0
  141.6400   77.0290  217.8760 C   0  0  0  0  0  0  0  0  0  0  0  0
  142.8740   77.0030  218.8270 C   0  0  0  0  0  0  0  0  0  0  0  0
  142.8040   75.5630  219.2090 C   0  0  1  0  0  0  0  0  0  0  0  0
  143.8040   74.9760  220.0820 C   0  0  0  0  0  0  0  0  0  0  0  0
  143.6310   73.7870  220.7770 N   0  0  0  0  0  0  0  0  0  0  0  0
  144.3420   72.6180  220.5050 C   0  0  0  0  0  0  0  0  0  0  0  0
  143.4560   71.5130  219.8900 C   0  0  0  0  0  0  0  0  0  0  0  0
  144.4800   70.5070  219.4300 C   0  0  0  0  0  0  0  0  0  0  0  0
  145.8090   71.2620  219.3340 C   0  0  0  0  0  0  0  0  0  0  0  0
  145.3660   72.7320  219.3920 C   0  0  0  0  0  0  0  0  0  0  0  0
  140.0340   71.5740  223.4210 C   0  0  0  0  0  0  0  0  0  0  0  0
  139.2710   70.4240  223.3060 C   0  0  0  0  0  0  0  0  0  0  0  0
  139.1230   69.6700  224.4540 C   0  0  0  0  0  0  0  0  0  0  0  0
  139.7080   70.0480  225.6540 C   0  0  0  0  0  0  0  0  0  0  0  0
  139.5760   69.3140  226.8120 C   0  0  0  0  0  0  0  0  0  0  0  0
  140.1810   69.7400  227.9760 C   0  0  0  0  0  0  0  0  0  0  0  0
  140.0120   68.9750  229.0750 F   0  0  0  0  0  0  0  0  0  0  0  0
  140.9370   70.9000  228.0490 C   0  0  0  0  0  0  0  0  0  0  0  0
  141.0700   71.6350  226.8920 C   0  0  0  0  0  0  0  0  0  0  0  0
  140.4630   71.2140  225.7070 C   0  0  0  0  0  0  0  0  0  0  0  0
  140.5990   71.9390  224.5840 N   0  0  0  0  0  0  0  0  0  0  0  0
  138.6910   73.7460  222.7810 H   0  0  0  0  0  0  0  0  0  0  0  0
  139.4115   73.8592  219.9608 H   0  0  0  0  0  0  0  0  0  0  0  0
  138.7579   75.2209  220.9354 H   0  0  0  0  0  0  0  0  0  0  0  0
  140.3936   75.2585  217.8001 H   0  0  0  0  0  0  0  0  0  0  0  0
  139.7106   76.5319  218.7906 H   0  0  0  0  0  0  0  0  0  0  0  0
  141.9205   76.6988  216.8649 H   0  0  0  0  0  0  0  0  0  0  0  0
  141.2175   78.0384  217.7641 H   0  0  0  0  0  0  0  0  0  0  0  0
  143.8094   77.2514  218.3042 H   0  0  0  0  0  0  0  0  0  0  0  0
  142.8625   77.7258  219.6561 H   0  0  0  0  0  0  0  0  0  0  0  0
  143.0775   74.8866  218.3858 H   0  0  0  0  0  0  0  0  0  0  0  0
  144.6954   74.8268  219.4549 H   0  0  0  0  0  0  0  0  0  0  0  0
  143.8080   75.7009  220.9093 H   0  0  0  0  0  0  0  0  0  0  0  0
  142.6370   73.6240  221.0880 H   0  0  0  0  0  0  0  0  0  0  0  0
  144.7734   72.4093  221.4951 H   0  0  0  0  0  0  0  0  0  0  0  0
  142.7796   71.0793  220.6412 H   0  0  0  0  0  0  0  0  0  0  0  0
  142.7954   71.8712  219.0867 H   0  0  0  0  0  0  0  0  0  0  0  0
  144.5601   69.6852  220.1567 H   0  0  0  0  0  0  0  0  0  0  0  0
  144.2001   70.0644  218.4626 H   0  0  0  0  0  0  0  0  0  0  0  0
  146.4689   71.0128  220.1781 H   0  0  0  0  0  0  0  0  0  0  0  0
  146.3875   71.0153  218.4315 H   0  0  0  0  0  0  0  0  0  0  0  0
  146.1949   73.4039  219.6594 H   0  0  0  0  0  0  0  0  0  0  0  0
  144.9968   73.1560  218.4465 H   0  0  0  0  0  0  0  0  0  0  0  0
  138.8083   70.1274  222.3531 H   0  0  0  0  0  0  0  0  0  0  0  0
  138.5263   68.7467  224.4158 H   0  0  0  0  0  0  0  0  0  0  0  0
  138.9864   68.3854  226.8085 H   0  0  0  0  0  0  0  0  0  0  0  0
  141.4097   71.2191  228.9896 H   0  0  0  0  0  0  0  0  0  0  0  0
  141.6604   72.5631  226.9014 H   0  0  0  0  0  0  0  0  0  0  0  0
  1  2  2  0
  2  3  1  0
  3  4  1  0
  4  5  1  0
  5  6  2  0
  5  7  1  0
  7  8  1  0
  8  9  1  0
  9 10  1  0
 10 11  1  0
 11 12  1  0
 12 13  1  0
 13 14  1  0
 14 15  1  0
 15 16  1  0
 16 17  1  0
 17 18  1  0
  2 19  1  0
 19 20  2  0
 20 21  1  0
 21 22  2  0
 22 23  1  0
 23 24  2  0
 24 25  1  0
 24 26  1  0
 26 27  2  0
 27 28  1  0
 28 29  2  0
 11  7  1  0
 18 14  1  0
 29 19  1  0
 28 22  1  0
  3 30  1  0
  4 31  1  0
  4 32  1  0
  8 33  1  0
  8 34  1  0
  9 35  1  0
  9 36  1  0
 10 37  1  0
 10 38  1  0
 11 39  1  6
 12 40  1  0
 12 41  1  0
 13 42  1  0
 14 43  1  0
 15 44  1  0
 15 45  1  0
 16 46  1  0
 16 47  1  0
 17 48  1  0
 17 49  1  0
 18 50  1  0
 18 51  1  0
 20 52  1  0
 21 53  1  0
 23 54  1  0
 26 55  1  0
 27 56  1  0
M  END
>  <smiles>  (21) 
O=C(NCC(=O)N1CCC[C@H]1CNC1CCCC1)c1ccc2cc(F)ccc2n1

>  <score_type>  (21) 
oracle

>  <origin>  (21) 
autodockgpu

>  <m_score__min__energy>  (21) 
-9.0800000000000001

>  <m_primary>  (21) 
energy

>  <rmsd>  (21) 
4.920950432133589

>  <m_score__min__rmsd>  (21) 
4.920950432133589

>  <meeko>  (21) 
{"free_energy": -7.22, "intermolecular_energy": -9.31, "internal_energy": -3.0, "cluster_size": 40, "cluster_id": 1, "rank_in_cluster": 40}

>  <energy>  (21) 
-8.08

>  <cluster_rmsd>  (21) 
1.53

>  <cluster>  (21) 
1

$$$$

     RDKit          3D

 56 59  0  0  0  0  0  0  0  0999 V2000
  141.1490   71.9940  221.8220 O   0  0  0  0  0  0  0  0  0  0  0  0
  140.1480   72.0010  222.6020 C   0  0  0  0  0  0  0  0  0  0  0  0
  139.0880   72.9240  222.3850 N   0  0  0  0  0  0  0  0  0  0  0  0
  139.0790   73.8810  221.3020 C   0  0  0  0  0  0  0  0  0  0  0  0
  139.5030   75.2120  221.8070 C   0  0  0  0  0  0  0  0  0  0  0  0
  140.6630   75.3050  222.2670 O   0  0  0  0  0  0  0  0  0  0  0  0
  138.5740   76.2820  221.7390 N   0  0  0  0  0  0  0  0  0  0  0  0
  137.1140   76.2010  221.9330 C   0  0  0  0  0  0  0  0  0  0  0  0
  136.7690   77.5550  222.5140 C   0  0  0  0  0  0  0  0  0  0  0  0
  138.1440   78.2700  222.6740 C   0  0  0  0  0  0  0  0  0  0  0  0
  138.8100   77.7000  221.4670 C   0  0  1  0  0  0  0  0  0  0  0  0
  140.1570   78.0980  221.1040 C   0  0  0  0  0  0  0  0  0  0  0  0
  141.2580   77.9780  221.9410 N   0  0  0  0  0  0  0  0  0  0  0  0
  142.0020   79.0630  222.4040 C   0  0  0  0  0  0  0  0  0  0  0  0
  141.3230   80.4180  222.1100 C   0  0  0  0  0  0  0  0  0  0  0  0
  142.1440   81.3700  222.9410 C   0  0  0  0  0  0  0  0  0  0  0  0
  142.8570   80.5150  223.9920 C   0  0  0  0  0  0  0  0  0  0  0  0
  142.0980   79.1820  223.9130 C   0  0  0  0  0  0  0  0  0  0  0  0
  140.0810   71.0560  223.7360 C   0  0  0  0  0  0  0  0  0  0  0  0
  139.5070   69.8130  223.5290 C   0  0  0  0  0  0  0  0  0  0  0  0
  139.4690   68.9670  224.6200 C   0  0  0  0  0  0  0  0  0  0  0  0
  139.9780   69.3460  225.8550 C   0  0  0  0  0  0  0  0  0  0  0  0
  139.9520   68.5210  226.9570 C   0  0  0  0  0  0  0  0  0  0  0  0
  140.4730   68.9540  228.1580 C   0  0  0  0  0  0  0  0  0  0  0  0
  140.4170   68.0970  229.2000 F   0  0  0  0  0  0  0  0  0  0  0  0
  141.0390   70.2080  228.3240 C   0  0  0  0  0  0  0  0  0  0  0  0
  141.0650   71.0340  227.2220 C   0  0  0  0  0  0  0  0  0  0  0  0
  140.5420   70.6080  226.0010 C   0  0  0  0  0  0  0  0  0  0  0  0
  140.5720   71.4220  224.9320 N   0  0  0  0  0  0  0  0  0  0  0  0
  138.2910   72.8700  223.0760 H   0  0  0  0  0  0  0  0  0  0  0  0
  139.7734   73.5500  220.5157 H   0  0  0  0  0  0  0  0  0  0  0  0
  138.0620   73.9548  220.8893 H   0  0  0  0  0  0  0  0  0  0  0  0
  136.5969   76.0387  220.9758 H   0  0  0  0  0  0  0  0  0  0  0  0
  136.8094   75.3636  222.5779 H   0  0  0  0  0  0  0  0  0  0  0  0
  136.1154   78.1168  221.8305 H   0  0  0  0  0  0  0  0  0  0  0  0
  136.2242   77.4760  223.4664 H   0  0  0  0  0  0  0  0  0  0  0  0
  138.0536   79.3651  222.6230 H   0  0  0  0  0  0  0  0  0  0  0  0
  138.6621   78.1155  223.6319 H   0  0  0  0  0  0  0  0  0  0  0  0
  138.4041   78.0958  220.5244 H   0  0  0  0  0  0  0  0  0  0  0  0
  140.4050   77.5195  220.2019 H   0  0  0  0  0  0  0  0  0  0  0  0
  140.0460   79.1916  221.0633 H   0  0  0  0  0  0  0  0  0  0  0  0
  141.8270   77.1090  221.7650 H   0  0  0  0  0  0  0  0  0  0  0  0
  142.9638   78.8747  221.9046 H   0  0  0  0  0  0  0  0  0  0  0  0
  141.3807   80.6697  221.0407 H   0  0  0  0  0  0  0  0  0  0  0  0
  140.2493   80.4357  222.3483 H   0  0  0  0  0  0  0  0  0  0  0  0
  142.8796   81.8900  222.3097 H   0  0  0  0  0  0  0  0  0  0  0  0
  141.5125   82.1384  223.4110 H   0  0  0  0  0  0  0  0  0  0  0  0
  143.9197   80.3820  223.7410 H   0  0  0  0  0  0  0  0  0  0  0  0
  142.8505   80.9625  224.9968 H   0  0  0  0  0  0  0  0  0  0  0  0
  142.6688   78.3537  224.3580 H   0  0  0  0  0  0  0  0  0  0  0  0
  141.1418   79.1454  224.4555 H   0  0  0  0  0  0  0  0  0  0  0  0
  139.1036   69.5158  222.5498 H   0  0  0  0  0  0  0  0  0  0  0  0
  139.0241   67.9673  224.5077 H   0  0  0  0  0  0  0  0  0  0  0  0
  139.5148   67.5146  226.8792 H   0  0  0  0  0  0  0  0  0  0  0  0
  141.4492   70.5295  229.2927 H   0  0  0  0  0  0  0  0  0  0  0  0
  141.5026   72.0397  227.3057 H   0  0  0  0  0  0  0  0  0  0  0  0
  1  2  2  0
  2  3  1  0
  3  4  1  0
  4  5  1  0
  5  6  2  0
  5  7  1  0
  7  8  1  0
  8  9  1  0
  9 10  1  0
 10 11  1  0
 11 12  1  0
 12 13  1  0
 13 14  1  0
 14 15  1  0
 15 16  1  0
 16 17  1  0
 17 18  1  0
  2 19  1  0
 19 20  2  0
 20 21  1  0
 21 22  2  0
 22 23  1  0
 23 24  2  0
 24 25  1  0
 24 26  1  0
 26 27  2  0
 27 28  1  0
 28 29  2  0
 11  7  1  0
 18 14  1  0
 29 19  1  0
 28 22  1  0
  3 30  1  0
  4 31  1  0
  4 32  1  0
  8 33  1  0
  8 34  1  0
  9 35  1  0
  9 36  1  0
 10 37  1  0
 10 38  1  0
 11 39  1  6
 12 40  1  0
 12 41  1  0
 13 42  1  0
 14 43  1  0
 15 44  1  0
 15 45  1  0
 16 46  1  0
 16 47  1  0
 17 48  1  0
 17 49  1  0
 18 50  1  0
 18 51  1  0
 20 52  1  0
 21 53  1  0
 23 54  1  0
 26 55  1  0
 27 56  1  0
M  END
>  <smiles>  (22) 
O=C(NCC(=O)N1CCC[C@H]1CNC1CCCC1)c1ccc2cc(F)ccc2n1

>  <score_type>  (22) 
oracle

>  <origin>  (22) 
autodockgpu

>  <m_score__min__energy>  (22) 
-9.0800000000000001

>  <m_primary>  (22) 
energy

>  <rmsd>  (22) 
2.8142337376477347

>  <m_score__min__rmsd>  (22) 
2.8142337376477347

>  <meeko>  (22) 
{"free_energy": -8.81, "intermolecular_energy": -10.9, "internal_energy": -1.97, "cluster_size": 40, "cluster_id": 1, "rank_in_cluster": 6}

>  <energy>  (22) 
-8.08

>  <cluster_rmsd>  (22) 
1.76

>  <cluster>  (22) 
1

$$$$

     RDKit          3D

 56 59  0  0  0  0  0  0  0  0999 V2000
  140.3150   71.2290  220.9930 O   0  0  0  0  0  0  0  0  0  0  0  0
  140.1110   71.8180  222.0980 C   0  0  0  0  0  0  0  0  0  0  0  0
  140.0270   73.2360  222.1410 N   0  0  0  0  0  0  0  0  0  0  0  0
  140.1640   74.0740  220.9700 C   0  0  0  0  0  0  0  0  0  0  0  0
  141.1500   75.1520  221.2400 C   0  0  0  0  0  0  0  0  0  0  0  0
  141.0630   75.7420  222.3400 O   0  0  0  0  0  0  0  0  0  0  0  0
  142.1170   75.4420  220.2440 N   0  0  0  0  0  0  0  0  0  0  0  0
  143.0100   74.4790  219.5710 C   0  0  0  0  0  0  0  0  0  0  0  0
  143.2030   75.0890  218.2000 C   0  0  0  0  0  0  0  0  0  0  0  0
  142.2920   76.3540  218.2070 C   0  0  0  0  0  0  0  0  0  0  0  0
  142.4730   76.7250  219.6400 C   0  0  1  0  0  0  0  0  0  0  0  0
  141.8490   77.9170  220.1840 C   0  0  0  0  0  0  0  0  0  0  0  0
  141.6990   78.1680  221.5410 N   0  0  0  0  0  0  0  0  0  0  0  0
  141.6420   79.4480  222.0920 C   0  0  0  0  0  0  0  0  0  0  0  0
  140.4680   79.6170  223.0800 C   0  0  0  0  0  0  0  0  0  0  0  0
  140.7950   80.9350  223.7360 C   0  0  0  0  0  0  0  0  0  0  0  0
  142.2870   81.1760  223.4920 C   0  0  0  0  0  0  0  0  0  0  0  0
  142.7800   79.7950  223.0320 C   0  0  0  0  0  0  0  0  0  0  0  0
  139.9620   71.0340  223.3430 C   0  0  0  0  0  0  0  0  0  0  0  0
  139.3560   69.7910  223.2750 C   0  0  0  0  0  0  0  0  0  0  0  0
  139.2410   69.1000  224.4660 C   0  0  0  0  0  0  0  0  0  0  0  0
  139.7080   69.6260  225.6620 C   0  0  0  0  0  0  0  0  0  0  0  0
  139.6070   68.9570  226.8610 C   0  0  0  0  0  0  0  0  0  0  0  0
  140.0900   69.5310  228.0180 C   0  0  0  0  0  0  0  0  0  0  0  0
  139.9590   68.8240  229.1600 F   0  0  0  0  0  0  0  0  0  0  0  0
  140.6910   70.7810  228.0430 C   0  0  0  0  0  0  0  0  0  0  0  0
  140.7930   71.4510  226.8450 C   0  0  0  0  0  0  0  0  0  0  0  0
  140.3080   70.8810  225.6660 C   0  0  0  0  0  0  0  0  0  0  0  0
  140.4140   71.5430  224.5020 N   0  0  0  0  0  0  0  0  0  0  0  0
  139.8570   73.6530  223.0960 H   0  0  0  0  0  0  0  0  0  0  0  0
  140.5110   73.4646  220.1225 H   0  0  0  0  0  0  0  0  0  0  0  0
  139.1898   74.5231  220.7267 H   0  0  0  0  0  0  0  0  0  0  0  0
  143.9690   74.3917  220.1028 H   0  0  0  0  0  0  0  0  0  0  0  0
  142.5984   73.4595  219.5362 H   0  0  0  0  0  0  0  0  0  0  0  0
  144.2553   75.3680  218.0427 H   0  0  0  0  0  0  0  0  0  0  0  0
  142.9448   74.3907  217.3902 H   0  0  0  0  0  0  0  0  0  0  0  0
  142.6570   77.1353  217.5241 H   0  0  0  0  0  0  0  0  0  0  0  0
  141.2548   76.2065  217.8716 H   0  0  0  0  0  0  0  0  0  0  0  0
  143.4795   77.1111  219.8590 H   0  0  0  0  0  0  0  0  0  0  0  0
  142.4286   78.7636  219.7873 H   0  0  0  0  0  0  0  0  0  0  0  0
  140.8023   77.7578  219.8855 H   0  0  0  0  0  0  0  0  0  0  0  0
  142.1750   77.4550  222.1550 H   0  0  0  0  0  0  0  0  0  0  0  0
  141.6094   80.0600  221.1785 H   0  0  0  0  0  0  0  0  0  0  0  0
  139.5045   79.6622  222.5513 H   0  0  0  0  0  0  0  0  0  0  0  0
  140.3631   78.7832  223.7897 H   0  0  0  0  0  0  0  0  0  0  0  0
  140.1997   81.7430  223.2856 H   0  0  0  0  0  0  0  0  0  0  0  0
  140.5630   80.9157  224.8111 H   0  0  0  0  0  0  0  0  0  0  0  0
  142.4440   81.9340  222.7105 H   0  0  0  0  0  0  0  0  0  0  0  0
  142.8184   81.5575  224.3763 H   0  0  0  0  0  0  0  0  0  0  0  0
  143.7458   79.8534  222.5088 H   0  0  0  0  0  0  0  0  0  0  0  0
  142.9746   79.0673  223.8336 H   0  0  0  0  0  0  0  0  0  0  0  0
  138.9866   69.3765  222.3254 H   0  0  0  0  0  0  0  0  0  0  0  0
  138.7670   68.1074  224.4660 H   0  0  0  0  0  0  0  0  0  0  0  0
  139.1397   67.9618  226.8961 H   0  0  0  0  0  0  0  0  0  0  0  0
  141.0694   71.2176  228.9791 H   0  0  0  0  0  0  0  0  0  0  0  0
  141.2615   72.4458  226.8160 H   0  0  0  0  0  0  0  0  0  0  0  0
  1  2  2  0
  2  3  1  0
  3  4  1  0
  4  5  1  0
  5  6  2  0
  5  7  1  0
  7  8  1  0
  8  9  1  0
  9 10  1  0
 10 11  1  0
 11 12  1  0
 12 13  1  0
 13 14  1  0
 14 15  1  0
 15 16  1  0
 16 17  1  0
 17 18  1  0
  2 19  1  0
 19 20  2  0
 20 21  1  0
 21 22  2  0
 22 23  1  0
 23 24  2  0
 24 25  1  0
 24 26  1  0
 26 27  2  0
 27 28  1  0
 28 29  2  0
 11  7  1  0
 18 14  1  0
 29 19  1  0
 28 22  1  0
  3 30  1  0
  4 31  1  0
  4 32  1  0
  8 33  1  0
  8 34  1  0
  9 35  1  0
  9 36  1  0
 10 37  1  0
 10 38  1  0
 11 39  1  6
 12 40  1  0
 12 41  1  0
 13 42  1  0
 14 43  1  0
 15 44  1  0
 15 45  1  0
 16 46  1  0
 16 47  1  0
 17 48  1  0
 17 49  1  0
 18 50  1  0
 18 51  1  0
 20 52  1  0
 21 53  1  0
 23 54  1  0
 26 55  1  0
 27 56  1  0
M  END
>  <smiles>  (23) 
O=C(NCC(=O)N1CCC[C@H]1CNC1CCCC1)c1ccc2cc(F)ccc2n1

>  <score_type>  (23) 
oracle

>  <origin>  (23) 
autodockgpu

>  <m_score__min__energy>  (23) 
-9.0800000000000001

>  <m_primary>  (23) 
energy

>  <rmsd>  (23) 
2.1252824407787476

>  <m_score__min__rmsd>  (23) 
2.1252824407787476

>  <meeko>  (23) 
{"free_energy": -8.62, "intermolecular_energy": -10.71, "internal_energy": -2.3, "cluster_size": 40, "cluster_id": 1, "rank_in_cluster": 8}

>  <energy>  (23) 
-8.05

>  <cluster_rmsd>  (23) 
1.07

>  <cluster>  (23) 
1

$$$$

     RDKit          3D

 56 59  0  0  0  0  0  0  0  0999 V2000
  141.0990   72.0610  221.2800 O   0  0  0  0  0  0  0  0  0  0  0  0
  140.2700   72.3770  222.1870 C   0  0  0  0  0  0  0  0  0  0  0  0
  139.5070   73.5700  222.0660 N   0  0  0  0  0  0  0  0  0  0  0  0
  139.6210   74.4730  220.9420 C   0  0  0  0  0  0  0  0  0  0  0  0
  140.5810   75.5580  221.2690 C   0  0  0  0  0  0  0  0  0  0  0  0
  141.2510   75.4310  222.3180 O   0  0  0  0  0  0  0  0  0  0  0  0
  140.6780   76.6590  220.3790 N   0  0  0  0  0  0  0  0  0  0  0  0
  141.2800   76.6580  219.0330 C   0  0  0  0  0  0  0  0  0  0  0  0
  140.4730   77.7040  218.2950 C   0  0  0  0  0  0  0  0  0  0  0  0
  139.3920   78.1560  219.3230 C   0  0  0  0  0  0  0  0  0  0  0  0
  140.2240   78.0380  220.5550 C   0  0  1  0  0  0  0  0  0  0  0  0
  139.6880   78.4060  221.8520 C   0  0  0  0  0  0  0  0  0  0  0  0
  140.3710   78.2500  223.0510 N   0  0  0  0  0  0  0  0  0  0  0  0
  141.2870   79.1770  223.5480 C   0  0  0  0  0  0  0  0  0  0  0  0
  142.5860   79.2340  222.7160 C   0  0  0  0  0  0  0  0  0  0  0  0
  143.2550   80.4710  223.2580 C   0  0  0  0  0  0  0  0  0  0  0  0
  142.1550   81.2870  223.9420 C   0  0  0  0  0  0  0  0  0  0  0  0
  140.8710   80.6290  223.4160 C   0  0  0  0  0  0  0  0  0  0  0  0
  140.0940   71.5080  223.3700 C   0  0  0  0  0  0  0  0  0  0  0  0
  139.3860   70.3270  223.2250 C   0  0  0  0  0  0  0  0  0  0  0  0
  139.2500   69.5520  224.3610 C   0  0  0  0  0  0  0  0  0  0  0  0
  139.7950   69.9390  225.5770 C   0  0  0  0  0  0  0  0  0  0  0  0
  139.6750   69.1840  226.7230 C   0  0  0  0  0  0  0  0  0  0  0  0
  140.2380   69.6210  227.9030 C   0  0  0  0  0  0  0  0  0  0  0  0
  140.0840   68.8350  228.9890 F   0  0  0  0  0  0  0  0  0  0  0  0
  140.9400   70.8120  228.0050 C   0  0  0  0  0  0  0  0  0  0  0  0
  141.0610   71.5680  226.8610 C   0  0  0  0  0  0  0  0  0  0  0  0
  140.4960   71.1370  225.6600 C   0  0  0  0  0  0  0  0  0  0  0  0
  140.6210   71.8830  224.5480 N   0  0  0  0  0  0  0  0  0  0  0  0
  138.8390   73.7650  222.8600 H   0  0  0  0  0  0  0  0  0  0  0  0
  139.9807   73.9189  220.0625 H   0  0  0  0  0  0  0  0  0  0  0  0
  138.6357   74.9108  220.7242 H   0  0  0  0  0  0  0  0  0  0  0  0
  142.3431   76.9372  219.0758 H   0  0  0  0  0  0  0  0  0  0  0  0
  141.2540   75.6708  218.5486 H   0  0  0  0  0  0  0  0  0  0  0  0
  141.1099   78.5516  218.0018 H   0  0  0  0  0  0  0  0  0  0  0  0
  140.0313   77.3144  217.3660 H   0  0  0  0  0  0  0  0  0  0  0  0
  139.0522   79.1871  219.1456 H   0  0  0  0  0  0  0  0  0  0  0  0
  138.4500   77.5881  219.3176 H   0  0  0  0  0  0  0  0  0  0  0  0
  141.0046   78.8101  220.6214 H   0  0  0  0  0  0  0  0  0  0  0  0
  139.4506   79.4778  221.7824 H   0  0  0  0  0  0  0  0  0  0  0  0
  138.8920   77.6557  221.9678 H   0  0  0  0  0  0  0  0  0  0  0  0
  140.6110   77.2480  223.2700 H   0  0  0  0  0  0  0  0  0  0  0  0
  141.3818   78.8281  224.5869 H   0  0  0  0  0  0  0  0  0  0  0  0
  143.2055   78.3402  222.8814 H   0  0  0  0  0  0  0  0  0  0  0  0
  142.4146   79.2637  221.6298 H   0  0  0  0  0  0  0  0  0  0  0  0
  144.0336   80.1960  223.9848 H   0  0  0  0  0  0  0  0  0  0  0  0
  143.7418   81.0468  222.4571 H   0  0  0  0  0  0  0  0  0  0  0  0
  142.2229   81.2052  225.0369 H   0  0  0  0  0  0  0  0  0  0  0  0
  142.2131   82.3644  223.7277 H   0  0  0  0  0  0  0  0  0  0  0  0
  139.9978   80.8677  224.0410 H   0  0  0  0  0  0  0  0  0  0  0  0
  140.5521   80.9434  222.4113 H   0  0  0  0  0  0  0  0  0  0  0  0
  138.9558   70.0226  222.2595 H   0  0  0  0  0  0  0  0  0  0  0  0
  138.6955   68.6040  224.2997 H   0  0  0  0  0  0  0  0  0  0  0  0
  139.1284   68.2298  226.6964 H   0  0  0  0  0  0  0  0  0  0  0  0
  141.3810   71.1386  228.9583 H   0  0  0  0  0  0  0  0  0  0  0  0
  141.6086   72.5215  226.8938 H   0  0  0  0  0  0  0  0  0  0  0  0
  1  2  2  0
  2  3  1  0
  3  4  1  0
  4  5  1  0
  5  6  2  0
  5  7  1  0
  7  8  1  0
  8  9  1  0
  9 10  1  0
 10 11  1  0
 11 12  1  0
 12 13  1  0
 13 14  1  0
 14 15  1  0
 15 16  1  0
 16 17  1  0
 17 18  1  0
  2 19  1  0
 19 20  2  0
 20 21  1  0
 21 22  2  0
 22 23  1  0
 23 24  2  0
 24 25  1  0
 24 26  1  0
 26 27  2  0
 27 28  1  0
 28 29  2  0
 11  7  1  0
 18 14  1  0
 29 19  1  0
 28 22  1  0
  3 30  1  0
  4 31  1  0
  4 32  1  0
  8 33  1  0
  8 34  1  0
  9 35  1  0
  9 36  1  0
 10 37  1  0
 10 38  1  0
 11 39  1  6
 12 40  1  0
 12 41  1  0
 13 42  1  0
 14 43  1  0
 15 44  1  0
 15 45  1  0
 16 46  1  0
 16 47  1  0
 17 48  1  0
 17 49  1  0
 18 50  1  0
 18 51  1  0
 20 52  1  0
 21 53  1  0
 23 54  1  0
 26 55  1  0
 27 56  1  0
M  END
>  <smiles>  (24) 
O=C(NCC(=O)N1CCC[C@H]1CNC1CCCC1)c1ccc2cc(F)ccc2n1

>  <score_type>  (24) 
oracle

>  <origin>  (24) 
autodockgpu

>  <m_score__min__energy>  (24) 
-9.0800000000000001

>  <m_primary>  (24) 
energy

>  <rmsd>  (24) 
2.282705037149436

>  <m_score__min__rmsd>  (24) 
2.282705037149436

>  <meeko>  (24) 
{"free_energy": -8.04, "intermolecular_energy": -10.13, "internal_energy": -2.19, "cluster_size": 40, "cluster_id": 1, "rank_in_cluster": 24}

>  <energy>  (24) 
-8.04

>  <cluster_rmsd>  (24) 
1.14

>  <cluster>  (24) 
1

$$$$

     RDKit          3D

 56 59  0  0  0  0  0  0  0  0999 V2000
  136.8410   76.5710  221.9900 O   0  0  0  0  0  0  0  0  0  0  0  0
  138.0860   76.5870  222.2350 C   0  0  0  0  0  0  0  0  0  0  0  0
  138.8460   75.3900  222.1230 N   0  0  0  0  0  0  0  0  0  0  0  0
  138.2730   74.1200  221.7360 C   0  0  0  0  0  0  0  0  0  0  0  0
  139.1970   73.0200  222.1140 C   0  0  0  0  0  0  0  0  0  0  0  0
  140.3750   73.3350  222.3940 O   0  0  0  0  0  0  0  0  0  0  0  0
  138.6900   71.6960  222.1330 N   0  0  0  0  0  0  0  0  0  0  0  0
  137.4990   71.1940  221.4230 C   0  0  0  0  0  0  0  0  0  0  0  0
  137.8500   69.7500  221.1390 C   0  0  0  0  0  0  0  0  0  0  0  0
  139.3070   69.5940  221.6700 C   0  0  0  0  0  0  0  0  0  0  0  0
  139.1970   70.5180  222.8360 C   0  0  1  0  0  0  0  0  0  0  0  0
  140.3130   70.7070  223.7430 C   0  0  0  0  0  0  0  0  0  0  0  0
  140.3810   71.7150  224.6950 N   0  0  0  0  0  0  0  0  0  0  0  0
  140.3040   71.4900  226.0700 C   0  0  0  0  0  0  0  0  0  0  0  0
  140.6810   70.0430  226.4560 C   0  0  0  0  0  0  0  0  0  0  0  0
  140.8040   70.1400  227.9560 C   0  0  0  0  0  0  0  0  0  0  0  0
  140.9960   71.6250  228.2750 C   0  0  0  0  0  0  0  0  0  0  0  0
  141.3380   72.2230  226.9020 C   0  0  0  0  0  0  0  0  0  0  0  0
  138.7500   77.8450  222.6390 C   0  0  0  0  0  0  0  0  0  0  0  0
  137.9650   78.9570  222.8880 C   0  0  0  0  0  0  0  0  0  0  0  0
  138.6330   80.1070  223.2620 C   0  0  0  0  0  0  0  0  0  0  0  0
  140.0160   80.1410  223.3800 C   0  0  0  0  0  0  0  0  0  0  0  0
  140.7050   81.2730  223.7510 C   0  0  0  0  0  0  0  0  0  0  0  0
  142.0800   81.2460  223.8510 C   0  0  0  0  0  0  0  0  0  0  0  0
  142.6960   82.3890  224.2200 F   0  0  0  0  0  0  0  0  0  0  0  0
  142.8310   80.1090  223.5910 C   0  0  0  0  0  0  0  0  0  0  0  0
  142.1420   78.9760  223.2200 C   0  0  0  0  0  0  0  0  0  0  0  0
  140.7500   78.9900  223.1150 C   0  0  0  0  0  0  0  0  0  0  0  0
  140.0890   77.8780  222.7520 N   0  0  0  0  0  0  0  0  0  0  0  0
  139.8750   75.4830  222.3430 H   0  0  0  0  0  0  0  0  0  0  0  0
  137.3098   73.9815  222.2490 H   0  0  0  0  0  0  0  0  0  0  0  0
  138.1158   74.1069  220.6474 H   0  0  0  0  0  0  0  0  0  0  0  0
  136.6027   71.2649  222.0568 H   0  0  0  0  0  0  0  0  0  0  0  0
  137.2641   71.7679  220.5145 H   0  0  0  0  0  0  0  0  0  0  0  0
  137.1670   69.0714  221.6711 H   0  0  0  0  0  0  0  0  0  0  0  0
  137.7636   69.4995  220.0714 H   0  0  0  0  0  0  0  0  0  0  0  0
  139.5319   68.5614  221.9752 H   0  0  0  0  0  0  0  0  0  0  0  0
  140.1109   69.8132  220.9518 H   0  0  0  0  0  0  0  0  0  0  0  0
  138.5674   70.1168  223.6438 H   0  0  0  0  0  0  0  0  0  0  0  0
  140.4056   69.7638  224.3013 H   0  0  0  0  0  0  0  0  0  0  0  0
  141.0975   71.0296  223.0426 H   0  0  0  0  0  0  0  0  0  0  0  0
  139.9420   72.6200  224.3810 H   0  0  0  0  0  0  0  0  0  0  0  0
  139.2669   71.7989  226.2673 H   0  0  0  0  0  0  0  0  0  0  0  0
  139.8925   69.3334  226.1648 H   0  0  0  0  0  0  0  0  0  0  0  0
  141.5908   69.6745  225.9595 H   0  0  0  0  0  0  0  0  0  0  0  0
  139.8908   69.7615  228.4385 H   0  0  0  0  0  0  0  0  0  0  0  0
  141.6463   69.5384  228.3283 H   0  0  0  0  0  0  0  0  0  0  0  0
  140.0738   72.0660  228.6813 H   0  0  0  0  0  0  0  0  0  0  0  0
  141.7668   71.8120  229.0372 H   0  0  0  0  0  0  0  0  0  0  0  0
  141.1921   73.3130  226.8773 H   0  0  0  0  0  0  0  0  0  0  0  0
  142.3822   72.1041  226.5772 H   0  0  0  0  0  0  0  0  0  0  0  0
  136.8695   78.9270  222.7934 H   0  0  0  0  0  0  0  0  0  0  0  0
  138.0545   81.0188  223.4716 H   0  0  0  0  0  0  0  0  0  0  0  0
  140.1574   82.2019  223.9684 H   0  0  0  0  0  0  0  0  0  0  0  0
  143.9276   80.1124  223.6773 H   0  0  0  0  0  0  0  0  0  0  0  0
  142.6945   78.0497  223.0040 H   0  0  0  0  0  0  0  0  0  0  0  0
  1  2  2  0
  2  3  1  0
  3  4  1  0
  4  5  1  0
  5  6  2  0
  5  7  1  0
  7  8  1  0
  8  9  1  0
  9 10  1  0
 10 11  1  0
 11 12  1  0
 12 13  1  0
 13 14  1  0
 14 15  1  0
 15 16  1  0
 16 17  1  0
 17 18  1  0
  2 19  1  0
 19 20  2  0
 20 21  1  0
 21 22  2  0
 22 23  1  0
 23 24  2  0
 24 25  1  0
 24 26  1  0
 26 27  2  0
 27 28  1  0
 28 29  2  0
 11  7  1  0
 18 14  1  0
 29 19  1  0
 28 22  1  0
  3 30  1  0
  4 31  1  0
  4 32  1  0
  8 33  1  0
  8 34  1  0
  9 35  1  0
  9 36  1  0
 10 37  1  0
 10 38  1  0
 11 39  1  1
 12 40  1  0
 12 41  1  0
 13 42  1  0
 14 43  1  0
 15 44  1  0
 15 45  1  0
 16 46  1  0
 16 47  1  0
 17 48  1  0
 17 49  1  0
 18 50  1  0
 18 51  1  0
 20 52  1  0
 21 53  1  0
 23 54  1  0
 26 55  1  0
 27 56  1  0
M  END
>  <smiles>  (25) 
O=C(NCC(=O)N1CCC[C@H]1CNC1CCCC1)c1ccc2cc(F)ccc2n1

>  <score_type>  (25) 
oracle

>  <origin>  (25) 
autodockgpu

>  <m_score__min__energy>  (25) 
-9.0800000000000001

>  <m_primary>  (25) 
energy

>  <rmsd>  (25) 
9.065252242301145

>  <m_score__min__rmsd>  (25) 
9.065252242301145

>  <meeko>  (25) 
{"free_energy": -7.63, "intermolecular_energy": -9.72, "internal_energy": -2.78, "cluster_size": 5, "cluster_id": 2, "rank_in_cluster": 1}

>  <energy>  (25) 
-8.04

>  <cluster_rmsd>  (25) 
1.73

>  <cluster>  (25) 
1

$$$$

     RDKit          3D

 56 59  0  0  0  0  0  0  0  0999 V2000
  141.4280   71.7620  221.3530 O   0  0  0  0  0  0  0  0  0  0  0  0
  140.5700   72.1540  222.2020 C   0  0  0  0  0  0  0  0  0  0  0  0
  139.8880   73.3860  222.0040 N   0  0  0  0  0  0  0  0  0  0  0  0
  140.1170   74.2440  220.8630 C   0  0  0  0  0  0  0  0  0  0  0  0
  141.0610   75.3290  221.2360 C   0  0  0  0  0  0  0  0  0  0  0  0
  140.8880   75.8790  222.3470 O   0  0  0  0  0  0  0  0  0  0  0  0
  142.0880   75.6700  220.3190 N   0  0  0  0  0  0  0  0  0  0  0  0
  143.0210   74.7430  219.6510 C   0  0  0  0  0  0  0  0  0  0  0  0
  143.2990   75.4270  218.3300 C   0  0  0  0  0  0  0  0  0  0  0  0
  142.3880   76.6920  218.3500 C   0  0  0  0  0  0  0  0  0  0  0  0
  142.4800   76.9830  219.8100 C   0  0  1  0  0  0  0  0  0  0  0  0
  141.8230   78.1460  220.3780 C   0  0  0  0  0  0  0  0  0  0  0  0
  141.5520   78.3040  221.7300 N   0  0  0  0  0  0  0  0  0  0  0  0
  141.3770   79.5430  222.3480 C   0  0  0  0  0  0  0  0  0  0  0  0
  142.3940   79.7880  223.4830 C   0  0  0  0  0  0  0  0  0  0  0  0
  142.1960   81.2540  223.7730 C   0  0  0  0  0  0  0  0  0  0  0  0
  141.5130   81.8460  222.5370 C   0  0  0  0  0  0  0  0  0  0  0  0
  141.7090   80.7440  221.4850 C   0  0  0  0  0  0  0  0  0  0  0  0
  140.2770   71.3360  223.3980 C   0  0  0  0  0  0  0  0  0  0  0  0
  139.5690   70.1570  223.2370 C   0  0  0  0  0  0  0  0  0  0  0  0
  139.3220   69.4290  224.3850 C   0  0  0  0  0  0  0  0  0  0  0  0
  139.7610   69.8600  225.6290 C   0  0  0  0  0  0  0  0  0  0  0  0
  139.5290   69.1530  226.7880 C   0  0  0  0  0  0  0  0  0  0  0  0
  139.9900   69.6310  227.9960 C   0  0  0  0  0  0  0  0  0  0  0  0
  139.7290   68.8910  229.0940 F   0  0  0  0  0  0  0  0  0  0  0  0
  140.6970   70.8190  228.1140 C   0  0  0  0  0  0  0  0  0  0  0  0
  140.9300   71.5260  226.9560 C   0  0  0  0  0  0  0  0  0  0  0  0
  140.4690   71.0530  225.7270 C   0  0  0  0  0  0  0  0  0  0  0  0
  140.7020   71.7520  224.6030 N   0  0  0  0  0  0  0  0  0  0  0  0
  139.1900   73.6450  222.7520 H   0  0  0  0  0  0  0  0  0  0  0  0
  140.5457   73.6526  220.0406 H   0  0  0  0  0  0  0  0  0  0  0  0
  139.1624   74.6855  220.5408 H   0  0  0  0  0  0  0  0  0  0  0  0
  143.9450   74.6235  220.2358 H   0  0  0  0  0  0  0  0  0  0  0  0
  142.6125   73.7283  219.5345 H   0  0  0  0  0  0  0  0  0  0  0  0
  144.3588   75.7116  218.2543 H   0  0  0  0  0  0  0  0  0  0  0  0
  143.0928   74.7750  217.4683 H   0  0  0  0  0  0  0  0  0  0  0  0
  142.7938   77.5087  217.7349 H   0  0  0  0  0  0  0  0  0  0  0  0
  141.3737   76.5659  217.9434 H   0  0  0  0  0  0  0  0  0  0  0  0
  143.4707   77.3528  220.1130 H   0  0  0  0  0  0  0  0  0  0  0  0
  142.4469   79.0072  220.0969 H   0  0  0  0  0  0  0  0  0  0  0  0
  140.8064   78.0283  219.9746 H   0  0  0  0  0  0  0  0  0  0  0  0
  142.0180   77.5810  222.3390 H   0  0  0  0  0  0  0  0  0  0  0  0
  140.3186   79.4762  222.6401 H   0  0  0  0  0  0  0  0  0  0  0  0
  142.1643   79.1719  224.3649 H   0  0  0  0  0  0  0  0  0  0  0  0
  143.4281   79.5254  223.2152 H   0  0  0  0  0  0  0  0  0  0  0  0
  141.5586   81.3845  224.6600 H   0  0  0  0  0  0  0  0  0  0  0  0
  143.1535   81.7544  223.9799 H   0  0  0  0  0  0  0  0  0  0  0  0
  140.4449   82.0309  222.7240 H   0  0  0  0  0  0  0  0  0  0  0  0
  141.9261   82.8191  222.2331 H   0  0  0  0  0  0  0  0  0  0  0  0
  141.0138   80.8508  220.6393 H   0  0  0  0  0  0  0  0  0  0  0  0
  142.6943   80.7217  220.9963 H   0  0  0  0  0  0  0  0  0  0  0  0
  139.2223   69.8186  222.2494 H   0  0  0  0  0  0  0  0  0  0  0  0
  138.7635   68.4842  224.3111 H   0  0  0  0  0  0  0  0  0  0  0  0
  138.9741   68.2040  226.7496 H   0  0  0  0  0  0  0  0  0  0  0  0
  141.0554   71.1798  229.0894 H   0  0  0  0  0  0  0  0  0  0  0  0
  141.4857   72.4743  227.0001 H   0  0  0  0  0  0  0  0  0  0  0  0
  1  2  2  0
  2  3  1  0
  3  4  1  0
  4  5  1  0
  5  6  2  0
  5  7  1  0
  7  8  1  0
  8  9  1  0
  9 10  1  0
 10 11  1  0
 11 12  1  0
 12 13  1  0
 13 14  1  0
 14 15  1  0
 15 16  1  0
 16 17  1  0
 17 18  1  0
  2 19  1  0
 19 20  2  0
 20 21  1  0
 21 22  2  0
 22 23  1  0
 23 24  2  0
 24 25  1  0
 24 26  1  0
 26 27  2  0
 27 28  1  0
 28 29  2  0
 11  7  1  0
 18 14  1  0
 29 19  1  0
 28 22  1  0
  3 30  1  0
  4 31  1  0
  4 32  1  0
  8 33  1  0
  8 34  1  0
  9 35  1  0
  9 36  1  0
 10 37  1  0
 10 38  1  0
 11 39  1  6
 12 40  1  0
 12 41  1  0
 13 42  1  0
 14 43  1  0
 15 44  1  0
 15 45  1  0
 16 46  1  0
 16 47  1  0
 17 48  1  0
 17 49  1  0
 18 50  1  0
 18 51  1  0
 20 52  1  0
 21 53  1  0
 23 54  1  0
 26 55  1  0
 27 56  1  0
M  END
>  <smiles>  (26) 
O=C(NCC(=O)N1CCC[C@H]1CNC1CCCC1)c1ccc2cc(F)ccc2n1

>  <score_type>  (26) 
oracle

>  <origin>  (26) 
autodockgpu

>  <m_score__min__energy>  (26) 
-9.0800000000000001

>  <m_primary>  (26) 
energy

>  <rmsd>  (26) 
2.2587028582514117

>  <m_score__min__rmsd>  (26) 
2.2587028582514117

>  <meeko>  (26) 
{"free_energy": -9.01, "intermolecular_energy": -11.1, "internal_energy": -2.01, "cluster_size": 40, "cluster_id": 1, "rank_in_cluster": 2}

>  <energy>  (26) 
-8.03

>  <cluster_rmsd>  (26) 
1.04

>  <cluster>  (26) 
1

$$$$

     RDKit          3D

 56 59  0  0  0  0  0  0  0  0999 V2000
  141.1220   71.6710  221.2790 O   0  0  0  0  0  0  0  0  0  0  0  0
  140.3900   72.0690  222.2360 C   0  0  0  0  0  0  0  0  0  0  0  0
  139.7540   73.3380  222.1610 N   0  0  0  0  0  0  0  0  0  0  0  0
  139.8920   74.2290  221.0310 C   0  0  0  0  0  0  0  0  0  0  0  0
  140.9180   75.2610  221.3310 C   0  0  0  0  0  0  0  0  0  0  0  0
  140.7420   75.9610  222.3520 O   0  0  0  0  0  0  0  0  0  0  0  0
  142.0220   75.3860  220.4480 N   0  0  0  0  0  0  0  0  0  0  0  0
  142.8720   74.2960  219.9340 C   0  0  0  0  0  0  0  0  0  0  0  0
  143.2920   74.8010  218.5710 C   0  0  0  0  0  0  0  0  0  0  0  0
  142.5360   76.1550  218.4100 C   0  0  0  0  0  0  0  0  0  0  0  0
  142.5900   76.5870  219.8360 C   0  0  1  0  0  0  0  0  0  0  0  0
  142.0460   77.8690  220.2460 C   0  0  0  0  0  0  0  0  0  0  0  0
  141.7970   78.2240  221.5650 N   0  0  0  0  0  0  0  0  0  0  0  0
  142.1650   79.4490  222.1210 C   0  0  0  0  0  0  0  0  0  0  0  0
  141.1100   80.5500  221.8810 C   0  0  0  0  0  0  0  0  0  0  0  0
  141.5840   81.6470  222.8000 C   0  0  0  0  0  0  0  0  0  0  0  0
  142.5020   80.9780  223.8260 C   0  0  0  0  0  0  0  0  0  0  0  0
  142.1890   79.4860  223.6370 C   0  0  0  0  0  0  0  0  0  0  0  0
  140.1980   71.2190  223.4300 C   0  0  0  0  0  0  0  0  0  0  0  0
  139.5330   70.0140  223.2840 C   0  0  0  0  0  0  0  0  0  0  0  0
  139.3790   69.2570  224.4300 C   0  0  0  0  0  0  0  0  0  0  0  0
  139.8660   69.6850  225.6570 C   0  0  0  0  0  0  0  0  0  0  0  0
  139.7270   68.9500  226.8130 C   0  0  0  0  0  0  0  0  0  0  0  0
  140.2310   69.4280  228.0040 C   0  0  0  0  0  0  0  0  0  0  0  0
  140.0610   68.6590  229.1000 F   0  0  0  0  0  0  0  0  0  0  0  0
  140.8910   70.6430  228.1070 C   0  0  0  0  0  0  0  0  0  0  0  0
  141.0310   71.3790  226.9520 C   0  0  0  0  0  0  0  0  0  0  0  0
  140.5260   70.9070  225.7400 C   0  0  0  0  0  0  0  0  0  0  0  0
  140.6680   71.6340  224.6190 N   0  0  0  0  0  0  0  0  0  0  0  0
  139.1620   73.6000  222.9950 H   0  0  0  0  0  0  0  0  0  0  0  0
  140.2004   73.6528  220.1462 H   0  0  0  0  0  0  0  0  0  0  0  0
  138.9276   74.7199  220.8336 H   0  0  0  0  0  0  0  0  0  0  0  0
  143.7460   74.1375  220.5828 H   0  0  0  0  0  0  0  0  0  0  0  0
  142.3543   73.3262  219.8948 H   0  0  0  0  0  0  0  0  0  0  0  0
  144.3804   74.9557  218.5315 H   0  0  0  0  0  0  0  0  0  0  0  0
  143.0527   74.0887  217.7676 H   0  0  0  0  0  0  0  0  0  0  0  0
  143.0644   76.8515  217.7424 H   0  0  0  0  0  0  0  0  0  0  0  0
  141.5349   76.1006  217.9574 H   0  0  0  0  0  0  0  0  0  0  0  0
  143.6011   76.8751  220.1594 H   0  0  0  0  0  0  0  0  0  0  0  0
  142.7456   78.6257  219.8613 H   0  0  0  0  0  0  0  0  0  0  0  0
  141.0209   77.7944  219.8541 H   0  0  0  0  0  0  0  0  0  0  0  0
  141.8510   77.4120  222.2350 H   0  0  0  0  0  0  0  0  0  0  0  0
  143.1483   79.5975  221.6508 H   0  0  0  0  0  0  0  0  0  0  0  0
  141.1093   80.8805  220.8318 H   0  0  0  0  0  0  0  0  0  0  0  0
  140.0777   80.2241  222.0763 H   0  0  0  0  0  0  0  0  0  0  0  0
  142.1385   82.4079  222.2312 H   0  0  0  0  0  0  0  0  0  0  0  0
  140.7387   82.1535  223.2888 H   0  0  0  0  0  0  0  0  0  0  0  0
  143.5594   81.1918  223.6111 H   0  0  0  0  0  0  0  0  0  0  0  0
  142.3379   81.3315  224.8546 H   0  0  0  0  0  0  0  0  0  0  0  0
  142.9767   78.8416  224.0545 H   0  0  0  0  0  0  0  0  0  0  0  0
  141.2792   79.1227  224.1372 H   0  0  0  0  0  0  0  0  0  0  0  0
  139.1484   69.6775  222.3099 H   0  0  0  0  0  0  0  0  0  0  0  0
  138.8571   68.2907  224.3680 H   0  0  0  0  0  0  0  0  0  0  0  0
  139.2122   67.9783  226.7862 H   0  0  0  0  0  0  0  0  0  0  0  0
  141.2852   71.0029  229.0688 H   0  0  0  0  0  0  0  0  0  0  0  0
  141.5468   72.3500  226.9850 H   0  0  0  0  0  0  0  0  0  0  0  0
  1  2  2  0
  2  3  1  0
  3  4  1  0
  4  5  1  0
  5  6  2  0
  5  7  1  0
  7  8  1  0
  8  9  1  0
  9 10  1  0
 10 11  1  0
 11 12  1  0
 12 13  1  0
 13 14  1  0
 14 15  1  0
 15 16  1  0
 16 17  1  0
 17 18  1  0
  2 19  1  0
 19 20  2  0
 20 21  1  0
 21 22  2  0
 22 23  1  0
 23 24  2  0
 24 25  1  0
 24 26  1  0
 26 27  2  0
 27 28  1  0
 28 29  2  0
 11  7  1  0
 18 14  1  0
 29 19  1  0
 28 22  1  0
  3 30  1  0
  4 31  1  0
  4 32  1  0
  8 33  1  0
  8 34  1  0
  9 35  1  0
  9 36  1  0
 10 37  1  0
 10 38  1  0
 11 39  1  1
 12 40  1  0
 12 41  1  0
 13 42  1  0
 14 43  1  0
 15 44  1  0
 15 45  1  0
 16 46  1  0
 16 47  1  0
 17 48  1  0
 17 49  1  0
 18 50  1  0
 18 51  1  0
 20 52  1  0
 21 53  1  0
 23 54  1  0
 26 55  1  0
 27 56  1  0
M  END
>  <smiles>  (27) 
O=C(NCC(=O)N1CCC[C@H]1CNC1CCCC1)c1ccc2cc(F)ccc2n1

>  <score_type>  (27) 
oracle

>  <origin>  (27) 
autodockgpu

>  <m_score__min__energy>  (27) 
-9.0800000000000001

>  <m_primary>  (27) 
energy

>  <rmsd>  (27) 
2.24057323352177

>  <m_score__min__rmsd>  (27) 
2.24057323352177

>  <meeko>  (27) 
{"free_energy": -9.01, "intermolecular_energy": -11.1, "internal_energy": -2.06, "cluster_size": 40, "cluster_id": 1, "rank_in_cluster": 3}

>  <energy>  (27) 
-8.02

>  <cluster_rmsd>  (27) 
1.69

>  <cluster>  (27) 
1

$$$$

     RDKit          3D

 56 59  0  0  0  0  0  0  0  0999 V2000
  137.9280   70.7660  221.8800 O   0  0  0  0  0  0  0  0  0  0  0  0
  138.6640   71.2530  222.7910 C   0  0  0  0  0  0  0  0  0  0  0  0
  139.1050   72.6020  222.7000 N   0  0  0  0  0  0  0  0  0  0  0  0
  138.7570   73.4780  221.6040 C   0  0  0  0  0  0  0  0  0  0  0  0
  139.7020   74.6230  221.5610 C   0  0  0  0  0  0  0  0  0  0  0  0
  140.7090   74.5610  222.3020 O   0  0  0  0  0  0  0  0  0  0  0  0
  139.4050   75.7060  220.6940 N   0  0  0  0  0  0  0  0  0  0  0  0
  139.1150   75.6280  219.2500 C   0  0  0  0  0  0  0  0  0  0  0  0
  138.1690   76.7880  219.0260 C   0  0  0  0  0  0  0  0  0  0  0  0
  137.9450   77.3850  220.4480 C   0  0  0  0  0  0  0  0  0  0  0  0
  139.3120   77.1350  220.9900 C   0  0  1  0  0  0  0  0  0  0  0  0
  139.6720   77.5670  222.3270 C   0  0  0  0  0  0  0  0  0  0  0  0
  140.9640   77.5320  222.8360 N   0  0  0  0  0  0  0  0  0  0  0  0
  141.8130   78.6390  222.8750 C   0  0  0  0  0  0  0  0  0  0  0  0
  141.3440   79.7790  221.9450 C   0  0  0  0  0  0  0  0  0  0  0  0
  142.2250   80.9220  222.3800 C   0  0  0  0  0  0  0  0  0  0  0  0
  142.7390   80.5600  223.7760 C   0  0  0  0  0  0  0  0  0  0  0  0
  141.8150   79.4020  224.1840 C   0  0  0  0  0  0  0  0  0  0  0  0
  139.0660   70.4240  223.9470 C   0  0  0  0  0  0  0  0  0  0  0  0
  138.8180   69.0630  223.9030 C   0  0  0  0  0  0  0  0  0  0  0  0
  139.2130   68.3320  225.0080 C   0  0  0  0  0  0  0  0  0  0  0  0
  139.8240   68.9350  226.0990 C   0  0  0  0  0  0  0  0  0  0  0  0
  140.2280   68.2300  227.2100 C   0  0  0  0  0  0  0  0  0  0  0  0
  140.8300   68.8840  228.2650 C   0  0  0  0  0  0  0  0  0  0  0  0
  141.2020   68.1350  229.3250 F   0  0  0  0  0  0  0  0  0  0  0  0
  141.0600   70.2510  228.2690 C   0  0  0  0  0  0  0  0  0  0  0  0
  140.6570   70.9570  227.1580 C   0  0  0  0  0  0  0  0  0  0  0  0
  140.0460   70.3070  226.0840 C   0  0  0  0  0  0  0  0  0  0  0  0
  139.6570   71.0060  225.0040 N   0  0  0  0  0  0  0  0  0  0  0  0
  139.7140   72.9350  223.4950 H   0  0  0  0  0  0  0  0  0  0  0  0
  138.8143   72.9205  220.6575 H   0  0  0  0  0  0  0  0  0  0  0  0
  137.7336   73.8546  221.7485 H   0  0  0  0  0  0  0  0  0  0  0  0
  140.0331   75.7470  218.6560 H   0  0  0  0  0  0  0  0  0  0  0  0
  138.6908   74.6596  218.9461 H   0  0  0  0  0  0  0  0  0  0  0  0
  138.6207   77.5351  218.3568 H   0  0  0  0  0  0  0  0  0  0  0  0
  137.2282   76.4759  218.5491 H   0  0  0  0  0  0  0  0  0  0  0  0
  137.6977   78.4564  220.4168 H   0  0  0  0  0  0  0  0  0  0  0  0
  137.1098   76.9618  221.0253 H   0  0  0  0  0  0  0  0  0  0  0  0
  140.0778   77.7832  220.5391 H   0  0  0  0  0  0  0  0  0  0  0  0
  139.3534   78.6176  222.3961 H   0  0  0  0  0  0  0  0  0  0  0  0
  139.1884   76.7877  222.9343 H   0  0  0  0  0  0  0  0  0  0  0  0
  141.4570   76.6170  222.6660 H   0  0  0  0  0  0  0  0  0  0  0  0
  142.7746   78.1653  222.6282 H   0  0  0  0  0  0  0  0  0  0  0  0
  141.5107   79.5261  220.8875 H   0  0  0  0  0  0  0  0  0  0  0  0
  140.2681   79.9961  222.0179 H   0  0  0  0  0  0  0  0  0  0  0  0
  143.0674   81.0405  221.6827 H   0  0  0  0  0  0  0  0  0  0  0  0
  141.6711   81.8723  222.3915 H   0  0  0  0  0  0  0  0  0  0  0  0
  143.7896   80.2360  223.7406 H   0  0  0  0  0  0  0  0  0  0  0  0
  142.7202   81.4038  224.4814 H   0  0  0  0  0  0  0  0  0  0  0  0
  142.2356   78.8078  225.0087 H   0  0  0  0  0  0  0  0  0  0  0  0
  140.8258   79.6941  224.5664 H   0  0  0  0  0  0  0  0  0  0  0  0
  138.3334   68.5891  223.0366 H   0  0  0  0  0  0  0  0  0  0  0  0
  139.0389   67.2460  225.0231 H   0  0  0  0  0  0  0  0  0  0  0  0
  140.0704   67.1424  227.2568 H   0  0  0  0  0  0  0  0  0  0  0  0
  141.5432   70.7496  229.1222 H   0  0  0  0  0  0  0  0  0  0  0  0
  140.8180   72.0443  227.1160 H   0  0  0  0  0  0  0  0  0  0  0  0
  1  2  2  0
  2  3  1  0
  3  4  1  0
  4  5  1  0
  5  6  2  0
  5  7  1  0
  7  8  1  0
  8  9  1  0
  9 10  1  0
 10 11  1  0
 11 12  1  0
 12 13  1  0
 13 14  1  0
 14 15  1  0
 15 16  1  0
 16 17  1  0
 17 18  1  0
  2 19  1  0
 19 20  2  0
 20 21  1  0
 21 22  2  0
 22 23  1  0
 23 24  2  0
 24 25  1  0
 24 26  1  0
 26 27  2  0
 27 28  1  0
 28 29  2  0
 11  7  1  0
 18 14  1  0
 29 19  1  0
 28 22  1  0
  3 30  1  0
  4 31  1  0
  4 32  1  0
  8 33  1  0
  8 34  1  0
  9 35  1  0
  9 36  1  0
 10 37  1  0
 10 38  1  0
 11 39  1  6
 12 40  1  0
 12 41  1  0
 13 42  1  0
 14 43  1  0
 15 44  1  0
 15 45  1  0
 16 46  1  0
 16 47  1  0
 17 48  1  0
 17 49  1  0
 18 50  1  0
 18 51  1  0
 20 52  1  0
 21 53  1  0
 23 54  1  0
 26 55  1  0
 27 56  1  0
M  END
>  <smiles>  (28) 
O=C(NCC(=O)N1CCC[C@H]1CNC1CCCC1)c1ccc2cc(F)ccc2n1

>  <score_type>  (28) 
oracle

>  <origin>  (28) 
autodockgpu

>  <m_score__min__energy>  (28) 
-9.0800000000000001

>  <m_primary>  (28) 
energy

>  <rmsd>  (28) 
2.036107891864296

>  <m_score__min__rmsd>  (28) 
2.036107891864296

>  <meeko>  (28) 
{"free_energy": -8.04, "intermolecular_energy": -10.13, "internal_energy": -2.74, "cluster_size": 40, "cluster_id": 1, "rank_in_cluster": 25}

>  <energy>  (28) 
-8.01

>  <cluster_rmsd>  (28) 
1.42

>  <cluster>  (28) 
1

$$$$

     RDKit          3D

 56 59  0  0  0  0  0  0  0  0999 V2000
  139.2260   71.3760  221.1130 O   0  0  0  0  0  0  0  0  0  0  0  0
  139.3550   71.9310  222.2470 C   0  0  0  0  0  0  0  0  0  0  0  0
  139.2900   73.3470  222.3530 N   0  0  0  0  0  0  0  0  0  0  0  0
  139.0810   74.2200  221.2190 C   0  0  0  0  0  0  0  0  0  0  0  0
  140.2980   75.0400  220.9890 C   0  0  0  0  0  0  0  0  0  0  0  0
  141.2620   74.8620  221.7670 O   0  0  0  0  0  0  0  0  0  0  0  0
  140.2910   75.9640  219.9130 N   0  0  0  0  0  0  0  0  0  0  0  0
  139.6120   75.8040  218.6140 C   0  0  0  0  0  0  0  0  0  0  0  0
  139.2640   77.2250  218.2300 C   0  0  0  0  0  0  0  0  0  0  0  0
  139.7310   78.0800  219.4460 C   0  0  0  0  0  0  0  0  0  0  0  0
  140.9320   77.2740  219.8100 C   0  0  1  0  0  0  0  0  0  0  0  0
  141.8000   77.6830  220.8990 C   0  0  0  0  0  0  0  0  0  0  0  0
  141.4500   77.6160  222.2410 N   0  0  0  0  0  0  0  0  0  0  0  0
  141.3930   78.7260  223.0850 C   0  0  0  0  0  0  0  0  0  0  0  0
  142.6760   79.5840  223.0230 C   0  0  0  0  0  0  0  0  0  0  0  0
  142.2570   80.8290  223.7640 C   0  0  0  0  0  0  0  0  0  0  0  0
  140.7270   80.8400  223.7520 C   0  0  0  0  0  0  0  0  0  0  0  0
  140.3910   79.7890  222.6830 C   0  0  0  0  0  0  0  0  0  0  0  0
  139.5730   71.1110  223.4570 C   0  0  0  0  0  0  0  0  0  0  0  0
  139.2360   69.7690  223.4170 C   0  0  0  0  0  0  0  0  0  0  0  0
  139.4590   69.0470  224.5740 C   0  0  0  0  0  0  0  0  0  0  0  0
  139.9920   69.6390  225.7110 C   0  0  0  0  0  0  0  0  0  0  0  0
  140.2250   68.9420  226.8750 C   0  0  0  0  0  0  0  0  0  0  0  0
  140.7560   69.5850  227.9740 C   0  0  0  0  0  0  0  0  0  0  0  0
  140.9600   68.8450  229.0840 F   0  0  0  0  0  0  0  0  0  0  0  0
  141.0800   70.9330  227.9720 C   0  0  0  0  0  0  0  0  0  0  0  0
  140.8470   71.6310  226.8080 C   0  0  0  0  0  0  0  0  0  0  0  0
  140.3100   70.9930  225.6890 C   0  0  0  0  0  0  0  0  0  0  0  0
  140.0880   71.6840  224.5590 N   0  0  0  0  0  0  0  0  0  0  0  0
  139.4060   73.7350  223.3280 H   0  0  0  0  0  0  0  0  0  0  0  0
  138.8734   73.6145  220.3244 H   0  0  0  0  0  0  0  0  0  0  0  0
  138.2272   74.8832  221.4217 H   0  0  0  0  0  0  0  0  0  0  0  0
  140.2831   75.3476  217.8715 H   0  0  0  0  0  0  0  0  0  0  0  0
  138.7343   75.1429  218.6640 H   0  0  0  0  0  0  0  0  0  0  0  0
  139.7986   77.5233  217.3161 H   0  0  0  0  0  0  0  0  0  0  0  0
  138.1925   77.3511  218.0154 H   0  0  0  0  0  0  0  0  0  0  0  0
  139.9906   79.1093  219.1577 H   0  0  0  0  0  0  0  0  0  0  0  0
  138.9898   78.2333  220.2442 H   0  0  0  0  0  0  0  0  0  0  0  0
  141.7494   77.3675  219.0799 H   0  0  0  0  0  0  0  0  0  0  0  0
  142.7108   77.0745  220.7982 H   0  0  0  0  0  0  0  0  0  0  0  0
  141.8273   78.7719  220.7454 H   0  0  0  0  0  0  0  0  0  0  0  0
  141.7710   76.7310  222.7150 H   0  0  0  0  0  0  0  0  0  0  0  0
  141.1712   78.2386  224.0459 H   0  0  0  0  0  0  0  0  0  0  0  0
  143.5163   79.0833  223.5261 H   0  0  0  0  0  0  0  0  0  0  0  0
  143.0323   79.7756  222.0001 H   0  0  0  0  0  0  0  0  0  0  0  0
  142.6298   80.8004  224.7985 H   0  0  0  0  0  0  0  0  0  0  0  0
  142.6675   81.7334  223.2913 H   0  0  0  0  0  0  0  0  0  0  0  0
  140.3204   80.5524  224.7328 H   0  0  0  0  0  0  0  0  0  0  0  0
  140.2989   81.8309  223.5402 H   0  0  0  0  0  0  0  0  0  0  0  0
  139.3537   79.4322  222.7651 H   0  0  0  0  0  0  0  0  0  0  0  0
  140.4544   80.1332  221.6402 H   0  0  0  0  0  0  0  0  0  0  0  0
  138.8141   69.3031  222.5143 H   0  0  0  0  0  0  0  0  0  0  0  0
  139.2079   67.9762  224.5946 H   0  0  0  0  0  0  0  0  0  0  0  0
  139.9871   67.8694  226.9290 H   0  0  0  0  0  0  0  0  0  0  0  0
  141.5043   71.4232  228.8606 H   0  0  0  0  0  0  0  0  0  0  0  0
  141.0868   72.7034  226.7597 H   0  0  0  0  0  0  0  0  0  0  0  0
  1  2  2  0
  2  3  1  0
  3  4  1  0
  4  5  1  0
  5  6  2  0
  5  7  1  0
  7  8  1  0
  8  9  1  0
  9 10  1  0
 10 11  1  0
 11 12  1  0
 12 13  1  0
 13 14  1  0
 14 15  1  0
 15 16  1  0
 16 17  1  0
 17 18  1  0
  2 19  1  0
 19 20  2  0
 20 21  1  0
 21 22  2  0
 22 23  1  0
 23 24  2  0
 24 25  1  0
 24 26  1  0
 26 27  2  0
 27 28  1  0
 28 29  2  0
 11  7  1  0
 18 14  1  0
 29 19  1  0
 28 22  1  0
  3 30  1  0
  4 31  1  0
  4 32  1  0
  8 33  1  0
  8 34  1  0
  9 35  1  0
  9 36  1  0
 10 37  1  0
 10 38  1  0
 11 39  1  6
 12 40  1  0
 12 41  1  0
 13 42  1  0
 14 43  1  0
 15 44  1  0
 15 45  1  0
 16 46  1  0
 16 47  1  0
 17 48  1  0
 17 49  1  0
 18 50  1  0
 18 51  1  0
 20 52  1  0
 21 53  1  0
 23 54  1  0
 26 55  1  0
 27 56  1  0
M  END
>  <smiles>  (29) 
O=C(NCC(=O)N1CCC[C@H]1CNC1CCCC1)c1ccc2cc(F)ccc2n1

>  <score_type>  (29) 
oracle

>  <origin>  (29) 
autodockgpu

>  <m_score__min__energy>  (29) 
-9.0800000000000001

>  <m_primary>  (29) 
energy

>  <rmsd>  (29) 
1.9097462927257653

>  <m_score__min__rmsd>  (29) 
1.9097462927257653

>  <meeko>  (29) 
{"free_energy": -7.92, "intermolecular_energy": -10.01, "internal_energy": -2.42, "cluster_size": 40, "cluster_id": 1, "rank_in_cluster": 32}

>  <energy>  (29) 
-8.0

>  <cluster_rmsd>  (29) 
1.75

>  <cluster>  (29) 
1

$$$$

     RDKit          3D

 56 59  0  0  0  0  0  0  0  0999 V2000
  140.4150   71.1170  221.1020 O   0  0  0  0  0  0  0  0  0  0  0  0
  140.0820   71.6940  222.1830 C   0  0  0  0  0  0  0  0  0  0  0  0
  139.8560   73.0980  222.1960 N   0  0  0  0  0  0  0  0  0  0  0  0
  139.9860   73.9330  221.0230 C   0  0  0  0  0  0  0  0  0  0  0  0
  140.8190   75.1200  221.3450 C   0  0  0  0  0  0  0  0  0  0  0  0
  140.4790   75.8040  222.3360 O   0  0  0  0  0  0  0  0  0  0  0  0
  141.9360   75.4010  220.5170 N   0  0  0  0  0  0  0  0  0  0  0  0
  142.8850   74.4240  219.9510 C   0  0  0  0  0  0  0  0  0  0  0  0
  143.3060   75.0680  218.6480 C   0  0  0  0  0  0  0  0  0  0  0  0
  142.4500   76.3670  218.5640 C   0  0  0  0  0  0  0  0  0  0  0  0
  142.4250   76.6860  220.0210 C   0  0  1  0  0  0  0  0  0  0  0  0
  141.7690   77.8860  220.5080 C   0  0  0  0  0  0  0  0  0  0  0  0
  141.6930   78.2430  221.8480 N   0  0  0  0  0  0  0  0  0  0  0  0
  142.1530   79.4590  222.3540 C   0  0  0  0  0  0  0  0  0  0  0  0
  141.2200   80.6380  222.0010 C   0  0  0  0  0  0  0  0  0  0  0  0
  141.7570   81.7390  222.8810 C   0  0  0  0  0  0  0  0  0  0  0  0
  142.5600   81.0490  223.9870 C   0  0  0  0  0  0  0  0  0  0  0  0
  142.1130   79.5840  223.8640 C   0  0  0  0  0  0  0  0  0  0  0  0
  139.9290   70.9120  223.4280 C   0  0  0  0  0  0  0  0  0  0  0  0
  139.3350   69.6640  223.3570 C   0  0  0  0  0  0  0  0  0  0  0  0
  139.2160   68.9740  224.5490 C   0  0  0  0  0  0  0  0  0  0  0  0
  139.6690   69.5070  225.7480 C   0  0  0  0  0  0  0  0  0  0  0  0
  139.5630   68.8400  226.9480 C   0  0  0  0  0  0  0  0  0  0  0  0
  140.0310   69.4220  228.1070 C   0  0  0  0  0  0  0  0  0  0  0  0
  139.8970   68.7150  229.2500 F   0  0  0  0  0  0  0  0  0  0  0  0
  140.6200   70.6760  228.1350 C   0  0  0  0  0  0  0  0  0  0  0  0
  140.7260   71.3440  226.9350 C   0  0  0  0  0  0  0  0  0  0  0  0
  140.2570   70.7670  225.7540 C   0  0  0  0  0  0  0  0  0  0  0  0
  140.3660   71.4280  224.5890 N   0  0  0  0  0  0  0  0  0  0  0  0
  139.5830   73.5050  223.1310 H   0  0  0  0  0  0  0  0  0  0  0  0
  140.4642   73.3584  220.2160 H   0  0  0  0  0  0  0  0  0  0  0  0
  138.9885   74.2643  220.6986 H   0  0  0  0  0  0  0  0  0  0  0  0
  143.7483   74.2806  220.6174 H   0  0  0  0  0  0  0  0  0  0  0  0
  142.4468   73.4240  219.8168 H   0  0  0  0  0  0  0  0  0  0  0  0
  144.3792   75.3091  218.6618 H   0  0  0  0  0  0  0  0  0  0  0  0
  143.1500   74.4062  217.7833 H   0  0  0  0  0  0  0  0  0  0  0  0
  142.9414   77.1536  217.9726 H   0  0  0  0  0  0  0  0  0  0  0  0
  141.4711   76.2719  218.0713 H   0  0  0  0  0  0  0  0  0  0  0  0
  143.3997   77.0234  220.4033 H   0  0  0  0  0  0  0  0  0  0  0  0
  142.2715   78.7250  220.0045 H   0  0  0  0  0  0  0  0  0  0  0  0
  140.7162   77.6478  220.2963 H   0  0  0  0  0  0  0  0  0  0  0  0
  141.8130   77.4290  222.5070 H   0  0  0  0  0  0  0  0  0  0  0  0
  143.1662   79.4862  221.9267 H   0  0  0  0  0  0  0  0  0  0  0  0
  141.2975   80.9039  220.9364 H   0  0  0  0  0  0  0  0  0  0  0  0
  140.1534   80.4225  222.1622 H   0  0  0  0  0  0  0  0  0  0  0  0
  142.4071   82.4091  222.2993 H   0  0  0  0  0  0  0  0  0  0  0  0
  140.9438   82.3509  223.2985 H   0  0  0  0  0  0  0  0  0  0  0  0
  143.6416   81.1497  223.8138 H   0  0  0  0  0  0  0  0  0  0  0  0
  142.3854   81.4767  224.9853 H   0  0  0  0  0  0  0  0  0  0  0  0
  142.8153   78.8944  224.3551 H   0  0  0  0  0  0  0  0  0  0  0  0
  141.1507   79.3383  224.3369 H   0  0  0  0  0  0  0  0  0  0  0  0
  138.9775   69.2445  222.4051 H   0  0  0  0  0  0  0  0  0  0  0  0
  138.7505   67.9773  224.5473 H   0  0  0  0  0  0  0  0  0  0  0  0
  139.1041   67.8409  226.9820 H   0  0  0  0  0  0  0  0  0  0  0  0
  140.9864   71.1181  229.0732 H   0  0  0  0  0  0  0  0  0  0  0  0
  141.1853   72.3431  226.9073 H   0  0  0  0  0  0  0  0  0  0  0  0
  1  2  2  0
  2  3  1  0
  3  4  1  0
  4  5  1  0
  5  6  2  0
  5  7  1  0
  7  8  1  0
  8  9  1  0
  9 10  1  0
 10 11  1  0
 11 12  1  0
 12 13  1  0
 13 14  1  0
 14 15  1  0
 15 16  1  0
 16 17  1  0
 17 18  1  0
  2 19  1  0
 19 20  2  0
 20 21  1  0
 21 22  2  0
 22 23  1  0
 23 24  2  0
 24 25  1  0
 24 26  1  0
 26 27  2  0
 27 28  1  0
 28 29  2  0
 11  7  1  0
 18 14  1  0
 29 19  1  0
 28 22  1  0
  3 30  1  0
  4 31  1  0
  4 32  1  0
  8 33  1  0
  8 34  1  0
  9 35  1  0
  9 36  1  0
 10 37  1  0
 10 38  1  0
 11 39  1  1
 12 40  1  0
 12 41  1  0
 13 42  1  0
 14 43  1  0
 15 44  1  0
 15 45  1  0
 16 46  1  0
 16 47  1  0
 17 48  1  0
 17 49  1  0
 18 50  1  0
 18 51  1  0
 20 52  1  0
 21 53  1  0
 23 54  1  0
 26 55  1  0
 27 56  1  0
M  END
>  <smiles>  (30) 
O=C(NCC(=O)N1CCC[C@H]1CNC1CCCC1)c1ccc2cc(F)ccc2n1

>  <score_type>  (30) 
oracle

>  <origin>  (30) 
autodockgpu

>  <m_score__min__energy>  (30) 
-9.0800000000000001

>  <m_primary>  (30) 
energy

>  <rmsd>  (30) 
2.2162435336586697

>  <m_score__min__rmsd>  (30) 
2.2162435336586697

>  <meeko>  (30) 
{"free_energy": -8.87, "intermolecular_energy": -10.96, "internal_energy": -2.24, "cluster_size": 40, "cluster_id": 1, "rank_in_cluster": 5}

>  <energy>  (30) 
-7.97

>  <cluster_rmsd>  (30) 
1.78

>  <cluster>  (30) 
1

$$$$

     RDKit          3D

 56 59  0  0  0  0  0  0  0  0999 V2000
  139.6680   71.0910  221.0320 O   0  0  0  0  0  0  0  0  0  0  0  0
  139.6410   71.6520  222.1700 C   0  0  0  0  0  0  0  0  0  0  0  0
  139.5900   73.0700  222.2600 N   0  0  0  0  0  0  0  0  0  0  0  0
  139.5640   73.9380  221.1040 C   0  0  0  0  0  0  0  0  0  0  0  0
  139.3020   75.3350  221.5340 C   0  0  0  0  0  0  0  0  0  0  0  0
  139.5930   75.6340  222.7140 O   0  0  0  0  0  0  0  0  0  0  0  0
  138.7430   76.2340  220.5900 N   0  0  0  0  0  0  0  0  0  0  0  0
  137.4870   76.0590  219.8370 C   0  0  0  0  0  0  0  0  0  0  0  0
  137.0000   77.4790  219.6450 C   0  0  0  0  0  0  0  0  0  0  0  0
  138.0360   78.3510  220.4150 C   0  0  0  0  0  0  0  0  0  0  0  0
  139.2460   77.5280  220.1290 C   0  0  1  0  0  0  0  0  0  0  0  0
  140.5560   77.9430  220.5960 C   0  0  0  0  0  0  0  0  0  0  0  0
  140.8720   78.1700  221.9280 N   0  0  0  0  0  0  0  0  0  0  0  0
  141.6630   79.2310  222.3690 C   0  0  0  0  0  0  0  0  0  0  0  0
  140.8680   80.5480  222.5020 C   0  0  0  0  0  0  0  0  0  0  0  0
  141.8380   81.4270  223.2500 C   0  0  0  0  0  0  0  0  0  0  0  0
  142.8440   80.4850  223.9150 C   0  0  0  0  0  0  0  0  0  0  0  0
  142.1530   79.1180  223.7990 C   0  0  0  0  0  0  0  0  0  0  0  0
  139.6670   70.8370  223.4030 C   0  0  0  0  0  0  0  0  0  0  0  0
  139.1530   69.5530  223.3580 C   0  0  0  0  0  0  0  0  0  0  0  0
  139.2000   68.8320  224.5360 C   0  0  0  0  0  0  0  0  0  0  0  0
  139.7340   69.3710  225.6980 C   0  0  0  0  0  0  0  0  0  0  0  0
  139.7940   68.6750  226.8850 C   0  0  0  0  0  0  0  0  0  0  0  0
  140.3350   69.2640  228.0080 C   0  0  0  0  0  0  0  0  0  0  0  0
  140.3640   68.5270  229.1390 F   0  0  0  0  0  0  0  0  0  0  0  0
  140.8400   70.5550  228.0110 C   0  0  0  0  0  0  0  0  0  0  0  0
  140.7810   71.2530  226.8250 C   0  0  0  0  0  0  0  0  0  0  0  0
  140.2350   70.6690  225.6810 C   0  0  0  0  0  0  0  0  0  0  0  0
  140.1830   71.3590  224.5290 N   0  0  0  0  0  0  0  0  0  0  0  0
  139.5710   73.4630  223.2400 H   0  0  0  0  0  0  0  0  0  0  0  0
  140.5345   73.8898  220.5885 H   0  0  0  0  0  0  0  0  0  0  0  0
  138.7665   73.6112  220.4205 H   0  0  0  0  0  0  0  0  0  0  0  0
  137.6720   75.5709  218.8688 H   0  0  0  0  0  0  0  0  0  0  0  0
  136.7581   75.4187  220.3555 H   0  0  0  0  0  0  0  0  0  0  0  0
  136.9847   77.7443  218.5776 H   0  0  0  0  0  0  0  0  0  0  0  0
  135.9737   77.6238  220.0134 H   0  0  0  0  0  0  0  0  0  0  0  0
  138.1152   79.3674  220.0018 H   0  0  0  0  0  0  0  0  0  0  0  0
  137.8175   78.5387  221.4766 H   0  0  0  0  0  0  0  0  0  0  0  0
  139.5664   77.5872  219.0784 H   0  0  0  0  0  0  0  0  0  0  0  0
  141.2542   77.1653  220.2530 H   0  0  0  0  0  0  0  0  0  0  0  0
  140.6055   78.9656  220.1937 H   0  0  0  0  0  0  0  0  0  0  0  0
  140.9870   77.2850  222.4890 H   0  0  0  0  0  0  0  0  0  0  0  0
  142.4643   79.2122  221.6156 H   0  0  0  0  0  0  0  0  0  0  0  0
  140.6258   80.9697  221.5154 H   0  0  0  0  0  0  0  0  0  0  0  0
  139.8973   80.4305  223.0059 H   0  0  0  0  0  0  0  0  0  0  0  0
  142.3533   82.1048  222.5535 H   0  0  0  0  0  0  0  0  0  0  0  0
  141.3212   82.0509  223.9941 H   0  0  0  0  0  0  0  0  0  0  0  0
  143.8055   80.4902  223.3808 H   0  0  0  0  0  0  0  0  0  0  0  0
  143.0865   80.7654  224.9506 H   0  0  0  0  0  0  0  0  0  0  0  0
  142.8591   78.2848  223.9300 H   0  0  0  0  0  0  0  0  0  0  0  0
  141.3794   78.9096  224.5527 H   0  0  0  0  0  0  0  0  0  0  0  0
  138.7301   69.1294  222.4351 H   0  0  0  0  0  0  0  0  0  0  0  0
  138.8045   67.8057  224.5530 H   0  0  0  0  0  0  0  0  0  0  0  0
  139.4090   67.6459  226.9372 H   0  0  0  0  0  0  0  0  0  0  0  0
  141.2687   71.0021  228.9200 H   0  0  0  0  0  0  0  0  0  0  0  0
  141.1683   72.2815  226.7790 H   0  0  0  0  0  0  0  0  0  0  0  0
  1  2  2  0
  2  3  1  0
  3  4  1  0
  4  5  1  0
  5  6  2  0
  5  7  1  0
  7  8  1  0
  8  9  1  0
  9 10  1  0
 10 11  1  0
 11 12  1  0
 12 13  1  0
 13 14  1  0
 14 15  1  0
 15 16  1  0
 16 17  1  0
 17 18  1  0
  2 19  1  0
 19 20  2  0
 20 21  1  0
 21 22  2  0
 22 23  1  0
 23 24  2  0
 24 25  1  0
 24 26  1  0
 26 27  2  0
 27 28  1  0
 28 29  2  0
 11  7  1  0
 18 14  1  0
 29 19  1  0
 28 22  1  0
  3 30  1  0
  4 31  1  0
  4 32  1  0
  8 33  1  0
  8 34  1  0
  9 35  1  0
  9 36  1  0
 10 37  1  0
 10 38  1  0
 11 39  1  6
 12 40  1  0
 12 41  1  0
 13 42  1  0
 14 43  1  0
 15 44  1  0
 15 45  1  0
 16 46  1  0
 16 47  1  0
 17 48  1  0
 17 49  1  0
 18 50  1  0
 18 51  1  0
 20 52  1  0
 21 53  1  0
 23 54  1  0
 26 55  1  0
 27 56  1  0
M  END
>  <smiles>  (31) 
O=C(NCC(=O)N1CCC[C@H]1CNC1CCCC1)c1ccc2cc(F)ccc2n1

>  <score_type>  (31) 
oracle

>  <origin>  (31) 
autodockgpu

>  <m_score__min__energy>  (31) 
-9.0800000000000001

>  <m_primary>  (31) 
energy

>  <rmsd>  (31) 
2.1781200013300963

>  <m_score__min__rmsd>  (31) 
2.1781200013300963

>  <meeko>  (31) 
{"free_energy": -7.43, "intermolecular_energy": -9.52, "internal_energy": -2.71, "cluster_size": 40, "cluster_id": 1, "rank_in_cluster": 38}

>  <energy>  (31) 
-7.96

>  <cluster_rmsd>  (31) 
1.49

>  <cluster>  (31) 
1

$$$$

     RDKit          3D

 56 59  0  0  0  0  0  0  0  0999 V2000
  133.6060   69.8420  226.4810 O   0  0  0  0  0  0  0  0  0  0  0  0
  133.9610   70.9910  226.0760 C   0  0  0  0  0  0  0  0  0  0  0  0
  135.0180   71.1140  225.1330 N   0  0  0  0  0  0  0  0  0  0  0  0
  135.7340   69.9800  224.5920 C   0  0  0  0  0  0  0  0  0  0  0  0
  136.8480   70.4560  223.7320 C   0  0  0  0  0  0  0  0  0  0  0  0
  136.9110   71.6860  223.5100 O   0  0  0  0  0  0  0  0  0  0  0  0
  137.7600   69.4970  223.2220 N   0  0  0  0  0  0  0  0  0  0  0  0
  137.4440   68.1280  222.7710 C   0  0  0  0  0  0  0  0  0  0  0  0
  138.4710   67.8770  221.6890 C   0  0  0  0  0  0  0  0  0  0  0  0
  139.2510   69.2220  221.5750 C   0  0  0  0  0  0  0  0  0  0  0  0
  139.2030   69.6050  223.0160 C   0  0  1  0  0  0  0  0  0  0  0  0
  139.8580   70.8120  223.4860 C   0  0  0  0  0  0  0  0  0  0  0  0
  139.5860   71.4230  224.7030 N   0  0  0  0  0  0  0  0  0  0  0  0
  139.8470   70.8360  225.9410 C   0  0  0  0  0  0  0  0  0  0  0  0
  140.6490   69.5230  225.8180 C   0  0  0  0  0  0  0  0  0  0  0  0
  141.0440   69.2600  227.2500 C   0  0  0  0  0  0  0  0  0  0  0  0
  140.9130   70.5970  227.9820 C   0  0  0  0  0  0  0  0  0  0  0  0
  140.8070   71.6050  226.8280 C   0  0  0  0  0  0  0  0  0  0  0  0
  133.2820   72.2030  226.5810 C   0  0  0  0  0  0  0  0  0  0  0  0
  132.0790   72.0570  227.2490 C   0  0  0  0  0  0  0  0  0  0  0  0
  131.4840   73.2200  227.7020 C   0  0  0  0  0  0  0  0  0  0  0  0
  132.0660   74.4630  227.4950 C   0  0  0  0  0  0  0  0  0  0  0  0
  131.4950   75.6360  227.9360 C   0  0  0  0  0  0  0  0  0  0  0  0
  132.1190   76.8420  227.7000 C   0  0  0  0  0  0  0  0  0  0  0  0
  131.5070   77.9550  228.1580 F   0  0  0  0  0  0  0  0  0  0  0  0
  133.3260   76.9450  227.0250 C   0  0  0  0  0  0  0  0  0  0  0  0
  133.8980   75.7730  226.5830 C   0  0  0  0  0  0  0  0  0  0  0  0
  133.2760   74.5450  226.8150 C   0  0  0  0  0  0  0  0  0  0  0  0
  133.8430   73.4070  226.3800 N   0  0  0  0  0  0  0  0  0  0  0  0
  135.2570   72.1010  224.8440 H   0  0  0  0  0  0  0  0  0  0  0  0
  136.1408   69.3768  225.4170 H   0  0  0  0  0  0  0  0  0  0  0  0
  135.0458   69.3672  223.9912 H   0  0  0  0  0  0  0  0  0  0  0  0
  137.5530   67.4062  223.5939 H   0  0  0  0  0  0  0  0  0  0  0  0
  136.4082   68.0177  222.4176 H   0  0  0  0  0  0  0  0  0  0  0  0
  139.1470   67.0582  221.9764 H   0  0  0  0  0  0  0  0  0  0  0  0
  138.0110   67.5771  220.7359 H   0  0  0  0  0  0  0  0  0  0  0  0
  140.2805   69.0786  221.2149 H   0  0  0  0  0  0  0  0  0  0  0  0
  138.8479   69.9579  220.8637 H   0  0  0  0  0  0  0  0  0  0  0  0
  139.8404   68.9712  223.6501 H   0  0  0  0  0  0  0  0  0  0  0  0
  140.9330   70.5795  223.5036 H   0  0  0  0  0  0  0  0  0  0  0  0
  139.4509   71.5555  222.7849 H   0  0  0  0  0  0  0  0  0  0  0  0
  138.7220   72.0260  224.6850 H   0  0  0  0  0  0  0  0  0  0  0  0
  138.8271   70.7544  226.3449 H   0  0  0  0  0  0  0  0  0  0  0  0
  140.0248   68.7094  225.4199 H   0  0  0  0  0  0  0  0  0  0  0  0
  141.5030   69.5885  225.1277 H   0  0  0  0  0  0  0  0  0  0  0  0
  140.3738   68.5122  227.6991 H   0  0  0  0  0  0  0  0  0  0  0  0
  142.0686   68.8654  227.3169 H   0  0  0  0  0  0  0  0  0  0  0  0
  140.0109   70.6180  228.6111 H   0  0  0  0  0  0  0  0  0  0  0  0
  141.7489   70.8035  228.6665 H   0  0  0  0  0  0  0  0  0  0  0  0
  140.3869   72.5672  227.1561 H   0  0  0  0  0  0  0  0  0  0  0  0
  141.7592   71.8956  226.3602 H   0  0  0  0  0  0  0  0  0  0  0  0
  131.6212   71.0700  227.4107 H   0  0  0  0  0  0  0  0  0  0  0  0
  130.5262   73.1587  228.2395 H   0  0  0  0  0  0  0  0  0  0  0  0
  130.5382   75.6103  228.4781 H   0  0  0  0  0  0  0  0  0  0  0  0
  133.8052   77.9196  226.8504 H   0  0  0  0  0  0  0  0  0  0  0  0
  134.8549   75.8047  226.0415 H   0  0  0  0  0  0  0  0  0  0  0  0
  1  2  2  0
  2  3  1  0
  3  4  1  0
  4  5  1  0
  5  6  2  0
  5  7  1  0
  7  8  1  0
  8  9  1  0
  9 10  1  0
 10 11  1  0
 11 12  1  0
 12 13  1  0
 13 14  1  0
 14 15  1  0
 15 16  1  0
 16 17  1  0
 17 18  1  0
  2 19  1  0
 19 20  2  0
 20 21  1  0
 21 22  2  0
 22 23  1  0
 23 24  2  0
 24 25  1  0
 24 26  1  0
 26 27  2  0
 27 28  1  0
 28 29  2  0
 11  7  1  0
 18 14  1  0
 29 19  1  0
 28 22  1  0
  3 30  1  0
  4 31  1  0
  4 32  1  0
  8 33  1  0
  8 34  1  0
  9 35  1  0
  9 36  1  0
 10 37  1  0
 10 38  1  0
 11 39  1  1
 12 40  1  0
 12 41  1  0
 13 42  1  0
 14 43  1  0
 15 44  1  0
 15 45  1  0
 16 46  1  0
 16 47  1  0
 17 48  1  0
 17 49  1  0
 18 50  1  0
 18 51  1  0
 20 52  1  0
 21 53  1  0
 23 54  1  0
 26 55  1  0
 27 56  1  0
M  END
>  <smiles>  (32) 
O=C(NCC(=O)N1CCC[C@H]1CNC1CCCC1)c1ccc2cc(F)ccc2n1

>  <score_type>  (32) 
oracle

>  <origin>  (32) 
autodockgpu

>  <m_score__min__energy>  (32) 
-9.0800000000000001

>  <m_primary>  (32) 
energy

>  <rmsd>  (32) 
9.269325718921419

>  <m_score__min__rmsd>  (32) 
9.269325718921419

>  <meeko>  (32) 
{"free_energy": -7.27, "intermolecular_energy": -9.36, "internal_energy": -2.96, "cluster_size": 1, "cluster_id": 3, "rank_in_cluster": 1}

>  <energy>  (32) 
-7.92

>  <cluster_rmsd>  (32) 
1.28

>  <cluster>  (32) 
1

$$$$

     RDKit          3D

 56 59  0  0  0  0  0  0  0  0999 V2000
  138.1970   70.7860  221.7030 O   0  0  0  0  0  0  0  0  0  0  0  0
  138.8450   71.2780  222.6780 C   0  0  0  0  0  0  0  0  0  0  0  0
  139.2360   72.6440  222.6510 N   0  0  0  0  0  0  0  0  0  0  0  0
  138.9340   73.5350  221.5520 C   0  0  0  0  0  0  0  0  0  0  0  0
  139.5280   74.8710  221.8140 C   0  0  0  0  0  0  0  0  0  0  0  0
  140.6720   74.8980  222.3190 O   0  0  0  0  0  0  0  0  0  0  0  0
  138.7670   76.0200  221.4800 N   0  0  0  0  0  0  0  0  0  0  0  0
  137.5900   76.0750  220.5930 C   0  0  0  0  0  0  0  0  0  0  0  0
  136.7740   77.2090  221.1740 C   0  0  0  0  0  0  0  0  0  0  0  0
  137.5690   77.6490  222.4400 C   0  0  0  0  0  0  0  0  0  0  0  0
  138.9420   77.4070  221.9100 C   0  0  1  0  0  0  0  0  0  0  0  0
  140.1130   77.7180  222.7090 C   0  0  0  0  0  0  0  0  0  0  0  0
  141.4140   77.6980  222.2250 N   0  0  0  0  0  0  0  0  0  0  0  0
  141.8930   78.5710  221.2480 C   0  0  0  0  0  0  0  0  0  0  0  0
  141.7500   78.0010  219.8200 C   0  0  0  0  0  0  0  0  0  0  0  0
  142.0470   79.2080  218.9680 C   0  0  0  0  0  0  0  0  0  0  0  0
  141.8420   80.4290  219.8680 C   0  0  0  0  0  0  0  0  0  0  0  0
  141.0830   79.8400  221.0660 C   0  0  0  0  0  0  0  0  0  0  0  0
  139.1950   70.4350  223.8400 C   0  0  0  0  0  0  0  0  0  0  0  0
  138.9040   69.0820  223.7890 C   0  0  0  0  0  0  0  0  0  0  0  0
  139.2520   68.3390  224.9000 C   0  0  0  0  0  0  0  0  0  0  0  0
  139.8600   68.9200  226.0050 C   0  0  0  0  0  0  0  0  0  0  0  0
  140.2170   68.2010  227.1240 C   0  0  0  0  0  0  0  0  0  0  0  0
  140.8180   68.8340  228.1910 C   0  0  0  0  0  0  0  0  0  0  0  0
  141.1430   68.0720  229.2580 F   0  0  0  0  0  0  0  0  0  0  0  0
  141.0920   70.1930  228.2030 C   0  0  0  0  0  0  0  0  0  0  0  0
  140.7350   70.9130  227.0840 C   0  0  0  0  0  0  0  0  0  0  0  0
  140.1270   70.2840  225.9970 C   0  0  0  0  0  0  0  0  0  0  0  0
  139.7830   70.9970  224.9100 N   0  0  0  0  0  0  0  0  0  0  0  0
  139.7720   72.9800  223.4960 H   0  0  0  0  0  0  0  0  0  0  0  0
  139.3537   73.1241  220.6220 H   0  0  0  0  0  0  0  0  0  0  0  0
  137.8430   73.6342  221.4522 H   0  0  0  0  0  0  0  0  0  0  0  0
  137.8867   76.2929  219.5564 H   0  0  0  0  0  0  0  0  0  0  0  0
  137.0381   75.1245  220.5480 H   0  0  0  0  0  0  0  0  0  0  0  0
  136.6944   78.0389  220.4564 H   0  0  0  0  0  0  0  0  0  0  0  0
  135.7433   76.9059  221.4103 H   0  0  0  0  0  0  0  0  0  0  0  0
  137.3994   78.7059  222.6933 H   0  0  0  0  0  0  0  0  0  0  0  0
  137.3129   77.1330  223.3771 H   0  0  0  0  0  0  0  0  0  0  0  0
  139.2373   78.1305  221.1358 H   0  0  0  0  0  0  0  0  0  0  0  0
  139.9522   78.7381  223.0880 H   0  0  0  0  0  0  0  0  0  0  0  0
  140.1326   76.8566  223.3928 H   0  0  0  0  0  0  0  0  0  0  0  0
  141.8290   76.7300  222.1780 H   0  0  0  0  0  0  0  0  0  0  0  0
  142.9176   78.7380  221.6118 H   0  0  0  0  0  0  0  0  0  0  0  0
  142.4756   77.1948  219.6372 H   0  0  0  0  0  0  0  0  0  0  0  0
  140.7675   77.5486  219.6200 H   0  0  0  0  0  0  0  0  0  0  0  0
  143.0848   79.1721  218.6050 H   0  0  0  0  0  0  0  0  0  0  0  0
  141.3909   79.2464  218.0859 H   0  0  0  0  0  0  0  0  0  0  0  0
  142.8055   80.8579  220.1806 H   0  0  0  0  0  0  0  0  0  0  0  0
  141.3058   81.2519  219.3727 H   0  0  0  0  0  0  0  0  0  0  0  0
  141.1332   80.4933  221.9495 H   0  0  0  0  0  0  0  0  0  0  0  0
  140.0017   79.6984  220.9219 H   0  0  0  0  0  0  0  0  0  0  0  0
  138.4224   68.6245  222.9122 H   0  0  0  0  0  0  0  0  0  0  0  0
  139.0421   67.2592  224.9098 H   0  0  0  0  0  0  0  0  0  0  0  0
  140.0222   67.1192  227.1665 H   0  0  0  0  0  0  0  0  0  0  0  0
  141.5728   70.6747  229.0671 H   0  0  0  0  0  0  0  0  0  0  0  0
  140.9313   71.9947  227.0471 H   0  0  0  0  0  0  0  0  0  0  0  0
  1  2  2  0
  2  3  1  0
  3  4  1  0
  4  5  1  0
  5  6  2  0
  5  7  1  0
  7  8  1  0
  8  9  1  0
  9 10  1  0
 10 11  1  0
 11 12  1  0
 12 13  1  0
 13 14  1  0
 14 15  1  0
 15 16  1  0
 16 17  1  0
 17 18  1  0
  2 19  1  0
 19 20  2  0
 20 21  1  0
 21 22  2  0
 22 23  1  0
 23 24  2  0
 24 25  1  0
 24 26  1  0
 26 27  2  0
 27 28  1  0
 28 29  2  0
 11  7  1  0
 18 14  1  0
 29 19  1  0
 28 22  1  0
  3 30  1  0
  4 31  1  0
  4 32  1  0
  8 33  1  0
  8 34  1  0
  9 35  1  0
  9 36  1  0
 10 37  1  0
 10 38  1  0
 11 39  1  6
 12 40  1  0
 12 41  1  0
 13 42  1  0
 14 43  1  0
 15 44  1  0
 15 45  1  0
 16 46  1  0
 16 47  1  0
 17 48  1  0
 17 49  1  0
 18 50  1  0
 18 51  1  0
 20 52  1  0
 21 53  1  0
 23 54  1  0
 26 55  1  0
 27 56  1  0
M  END
>  <smiles>  (33) 
O=C(NCC(=O)N1CCC[C@H]1CNC1CCCC1)c1ccc2cc(F)ccc2n1

>  <score_type>  (33) 
oracle

>  <origin>  (33) 
autodockgpu

>  <m_score__min__energy>  (33) 
-9.0800000000000001

>  <m_primary>  (33) 
energy

>  <rmsd>  (33) 
2.4919381656087833

>  <m_score__min__rmsd>  (33) 
2.4919381656087833

>  <meeko>  (33) 
{"free_energy": -7.38, "intermolecular_energy": -9.47, "internal_energy": -2.74, "cluster_size": 40, "cluster_id": 1, "rank_in_cluster": 39}

>  <energy>  (33) 
-7.79

>  <cluster_rmsd>  (33) 
1.07

>  <cluster>  (33) 
1

$$$$

     RDKit          3D

 56 59  0  0  0  0  0  0  0  0999 V2000
  140.8780   71.6890  221.1400 O   0  0  0  0  0  0  0  0  0  0  0  0
  140.3720   72.2080  222.1820 C   0  0  0  0  0  0  0  0  0  0  0  0
  140.0180   73.5850  222.1860 N   0  0  0  0  0  0  0  0  0  0  0  0
  140.2030   74.4550  221.0470 C   0  0  0  0  0  0  0  0  0  0  0  0
  140.5460   75.8230  221.5130 C   0  0  0  0  0  0  0  0  0  0  0  0
  140.3320   76.0860  222.7180 O   0  0  0  0  0  0  0  0  0  0  0  0
  141.0890   76.7360  220.5740 N   0  0  0  0  0  0  0  0  0  0  0  0
  142.2580   76.5180  219.7010 C   0  0  0  0  0  0  0  0  0  0  0  0
  141.9330   77.3440  218.4770 C   0  0  0  0  0  0  0  0  0  0  0  0
  140.5090   77.9100  218.7580 C   0  0  0  0  0  0  0  0  0  0  0  0
  140.6500   78.0880  220.2320 C   0  0  1  0  0  0  0  0  0  0  0  0
  139.5730   78.6620  221.0180 C   0  0  0  0  0  0  0  0  0  0  0  0
  139.5900   78.7680  222.4020 N   0  0  0  0  0  0  0  0  0  0  0  0
  140.4270   79.6350  223.1040 C   0  0  0  0  0  0  0  0  0  0  0  0
  141.7990   79.0040  223.4280 C   0  0  0  0  0  0  0  0  0  0  0  0
  142.5900   80.1970  223.9020 C   0  0  0  0  0  0  0  0  0  0  0  0
  141.8610   81.4340  223.3700 C   0  0  0  0  0  0  0  0  0  0  0  0
  140.9110   80.8390  222.3200 C   0  0  0  0  0  0  0  0  0  0  0  0
  140.1510   71.3870  223.3910 C   0  0  0  0  0  0  0  0  0  0  0  0
  139.5130   70.1670  223.2560 C   0  0  0  0  0  0  0  0  0  0  0  0
  139.3310   69.4380  224.4160 C   0  0  0  0  0  0  0  0  0  0  0  0
  139.7660   69.9090  225.6470 C   0  0  0  0  0  0  0  0  0  0  0  0
  139.5980   69.2030  226.8170 C   0  0  0  0  0  0  0  0  0  0  0  0
  140.0510   69.7230  228.0120 C   0  0  0  0  0  0  0  0  0  0  0  0
  139.8550   68.9800  229.1220 F   0  0  0  0  0  0  0  0  0  0  0  0
  140.6860   70.9520  228.1040 C   0  0  0  0  0  0  0  0  0  0  0  0
  140.8550   71.6590  226.9350 C   0  0  0  0  0  0  0  0  0  0  0  0
  140.4010   71.1440  225.7190 C   0  0  0  0  0  0  0  0  0  0  0  0
  140.5710   71.8430  224.5840 N   0  0  0  0  0  0  0  0  0  0  0  0
  139.6040   73.9450  223.0890 H   0  0  0  0  0  0  0  0  0  0  0  0
  141.0188   74.0672  220.4193 H   0  0  0  0  0  0  0  0  0  0  0  0
  139.2724   74.4920  220.4617 H   0  0  0  0  0  0  0  0  0  0  0  0
  143.1815   76.8723  220.1823 H   0  0  0  0  0  0  0  0  0  0  0  0
  142.4333   75.4566  219.4714 H   0  0  0  0  0  0  0  0  0  0  0  0
  142.6594   78.1610  218.3547 H   0  0  0  0  0  0  0  0  0  0  0  0
  141.9739   76.7535  217.5499 H   0  0  0  0  0  0  0  0  0  0  0  0
  140.3279   78.8622  218.2378 H   0  0  0  0  0  0  0  0  0  0  0  0
  139.6654   77.2886  218.4231 H   0  0  0  0  0  0  0  0  0  0  0  0
  141.3294   78.9099  220.5018 H   0  0  0  0  0  0  0  0  0  0  0  0
  139.4447   79.6880  220.6426 H   0  0  0  0  0  0  0  0  0  0  0  0
  138.7870   77.9055  220.8772 H   0  0  0  0  0  0  0  0  0  0  0  0
  139.4050   77.8550  222.8950 H   0  0  0  0  0  0  0  0  0  0  0  0
  139.7847   79.8846  223.9614 H   0  0  0  0  0  0  0  0  0  0  0  0
  141.7122   78.2429  224.2175 H   0  0  0  0  0  0  0  0  0  0  0  0
  142.2570   78.4784  222.5771 H   0  0  0  0  0  0  0  0  0  0  0  0
  142.6249   80.2187  225.0012 H   0  0  0  0  0  0  0  0  0  0  0  0
  143.6281   80.1580  223.5404 H   0  0  0  0  0  0  0  0  0  0  0  0
  141.3011   81.9396  224.1706 H   0  0  0  0  0  0  0  0  0  0  0  0
  142.5384   82.1990  222.9628 H   0  0  0  0  0  0  0  0  0  0  0  0
  140.0897   81.5262  222.0685 H   0  0  0  0  0  0  0  0  0  0  0  0
  141.3615   80.6194  221.3408 H   0  0  0  0  0  0  0  0  0  0  0  0
  139.1693   69.7973  222.2787 H   0  0  0  0  0  0  0  0  0  0  0  0
  138.8291   68.4606  224.3623 H   0  0  0  0  0  0  0  0  0  0  0  0
  139.1013   68.2217  226.7990 H   0  0  0  0  0  0  0  0  0  0  0  0
  141.0393   71.3449  229.0688 H   0  0  0  0  0  0  0  0  0  0  0  0
  141.3527   72.6396  226.9590 H   0  0  0  0  0  0  0  0  0  0  0  0
  1  2  2  0
  2  3  1  0
  3  4  1  0
  4  5  1  0
  5  6  2  0
  5  7  1  0
  7  8  1  0
  8  9  1  0
  9 10  1  0
 10 11  1  0
 11 12  1  0
 12 13  1  0
 13 14  1  0
 14 15  1  0
 15 16  1  0
 16 17  1  0
 17 18  1  0
  2 19  1  0
 19 20  2  0
 20 21  1  0
 21 22  2  0
 22 23  1  0
 23 24  2  0
 24 25  1  0
 24 26  1  0
 26 27  2  0
 27 28  1  0
 28 29  2  0
 11  7  1  0
 18 14  1  0
 29 19  1  0
 28 22  1  0
  3 30  1  0
  4 31  1  0
  4 32  1  0
  8 33  1  0
  8 34  1  0
  9 35  1  0
  9 36  1  0
 10 37  1  0
 10 38  1  0
 11 39  1  6
 12 40  1  0
 12 41  1  0
 13 42  1  0
 14 43  1  0
 15 44  1  0
 15 45  1  0
 16 46  1  0
 16 47  1  0
 17 48  1  0
 17 49  1  0
 18 50  1  0
 18 51  1  0
 20 52  1  0
 21 53  1  0
 23 54  1  0
 26 55  1  0
 27 56  1  0
M  END
>  <smiles>  (34) 
O=C(NCC(=O)N1CCC[C@H]1CNC1CCCC1)c1ccc2cc(F)ccc2n1

>  <score_type>  (34) 
oracle

>  <origin>  (34) 
autodockgpu

>  <m_score__min__energy>  (34) 
-9.0800000000000001

>  <m_primary>  (34) 
energy

>  <rmsd>  (34) 
2.3626159224322163

>  <m_score__min__rmsd>  (34) 
2.3626159224322163

>  <meeko>  (34) 
{"free_energy": -8.05, "intermolecular_energy": -10.14, "internal_energy": -2.75, "cluster_size": 40, "cluster_id": 1, "rank_in_cluster": 23}

>  <energy>  (34) 
-7.77

>  <cluster_rmsd>  (34) 
1.35

>  <cluster>  (34) 
1

$$$$

     RDKit          3D

 56 59  0  0  0  0  0  0  0  0999 V2000
  141.4210   71.9740  221.5540 O   0  0  0  0  0  0  0  0  0  0  0  0
  140.4620   72.2180  222.3480 C   0  0  0  0  0  0  0  0  0  0  0  0
  139.6050   73.3260  222.1030 N   0  0  0  0  0  0  0  0  0  0  0  0
  139.7620   74.2160  220.9750 C   0  0  0  0  0  0  0  0  0  0  0  0
  140.7570   75.2690  221.3040 C   0  0  0  0  0  0  0  0  0  0  0  0
  140.5600   75.9350  222.3450 O   0  0  0  0  0  0  0  0  0  0  0  0
  141.8560   75.4510  220.4260 N   0  0  0  0  0  0  0  0  0  0  0  0
  142.7010   74.3960  219.8360 C   0  0  0  0  0  0  0  0  0  0  0  0
  143.1150   74.9900  218.5080 C   0  0  0  0  0  0  0  0  0  0  0  0
  142.3620   76.3520  218.4410 C   0  0  0  0  0  0  0  0  0  0  0  0
  142.4230   76.6880  219.8920 C   0  0  1  0  0  0  0  0  0  0  0  0
  141.8840   77.9410  220.3890 C   0  0  0  0  0  0  0  0  0  0  0  0
  141.7610   78.2570  221.7350 N   0  0  0  0  0  0  0  0  0  0  0  0
  142.2010   79.4570  222.2940 C   0  0  0  0  0  0  0  0  0  0  0  0
  141.2490   80.6350  221.9950 C   0  0  0  0  0  0  0  0  0  0  0  0
  141.7690   81.7040  222.9230 C   0  0  0  0  0  0  0  0  0  0  0  0
  142.5850   80.9790  223.9960 C   0  0  0  0  0  0  0  0  0  0  0  0
  142.1620   79.5150  223.8090 C   0  0  0  0  0  0  0  0  0  0  0  0
  140.2330   71.3570  223.5270 C   0  0  0  0  0  0  0  0  0  0  0  0
  139.5540   70.1640  223.3540 C   0  0  0  0  0  0  0  0  0  0  0  0
  139.3660   69.3950  224.4870 C   0  0  0  0  0  0  0  0  0  0  0  0
  139.8350   69.8020  225.7290 C   0  0  0  0  0  0  0  0  0  0  0  0
  139.6620   69.0550  226.8720 C   0  0  0  0  0  0  0  0  0  0  0  0
  140.1490   69.5110  228.0790 C   0  0  0  0  0  0  0  0  0  0  0  0
  139.9460   68.7320  229.1620 F   0  0  0  0  0  0  0  0  0  0  0  0
  140.8250   70.7150  228.2100 C   0  0  0  0  0  0  0  0  0  0  0  0
  140.9990   71.4630  227.0670 C   0  0  0  0  0  0  0  0  0  0  0  0
  140.5110   71.0120  225.8390 C   0  0  0  0  0  0  0  0  0  0  0  0
  140.6860   71.7500  224.7300 N   0  0  0  0  0  0  0  0  0  0  0  0
  138.8300   73.4650  222.8070 H   0  0  0  0  0  0  0  0  0  0  0  0
  140.1103   73.6433  220.1028 H   0  0  0  0  0  0  0  0  0  0  0  0
  138.7950   74.6871  220.7448 H   0  0  0  0  0  0  0  0  0  0  0  0
  143.5780   74.1929  220.4682 H   0  0  0  0  0  0  0  0  0  0  0  0
  142.1811   73.4319  219.7349 H   0  0  0  0  0  0  0  0  0  0  0  0
  144.2035   75.1449  218.4733 H   0  0  0  0  0  0  0  0  0  0  0  0
  142.8698   74.3333  217.6603 H   0  0  0  0  0  0  0  0  0  0  0  0
  142.8891   77.0904  217.8189 H   0  0  0  0  0  0  0  0  0  0  0  0
  141.3588   76.3297  217.9903 H   0  0  0  0  0  0  0  0  0  0  0  0
  143.4364   76.9521  220.2286 H   0  0  0  0  0  0  0  0  0  0  0  0
  142.5161   78.7297  219.9549 H   0  0  0  0  0  0  0  0  0  0  0  0
  140.8269   77.8404  220.1021 H   0  0  0  0  0  0  0  0  0  0  0  0
  141.8590   77.4240  222.3730 H   0  0  0  0  0  0  0  0  0  0  0  0
  143.2127   79.5192  221.8667 H   0  0  0  0  0  0  0  0  0  0  0  0
  141.3208   80.9495  220.9434 H   0  0  0  0  0  0  0  0  0  0  0  0
  140.1863   80.3951  222.1471 H   0  0  0  0  0  0  0  0  0  0  0  0
  142.4068   82.4103  222.3714 H   0  0  0  0  0  0  0  0  0  0  0  0
  140.9463   82.2827  223.3683 H   0  0  0  0  0  0  0  0  0  0  0  0
  143.6645   81.1049  223.8261 H   0  0  0  0  0  0  0  0  0  0  0  0
  142.4054   81.3591  225.0125 H   0  0  0  0  0  0  0  0  0  0  0  0
  142.8764   78.8160  224.2684 H   0  0  0  0  0  0  0  0  0  0  0  0
  141.2047   79.2332  224.2718 H   0  0  0  0  0  0  0  0  0  0  0  0
  139.1840   69.8449  222.3685 H   0  0  0  0  0  0  0  0  0  0  0  0
  138.8318   68.4371  224.4028 H   0  0  0  0  0  0  0  0  0  0  0  0
  139.1337   68.0914  226.8226 H   0  0  0  0  0  0  0  0  0  0  0  0
  141.2053   71.0572  229.1838 H   0  0  0  0  0  0  0  0  0  0  0  0
  141.5280   72.4259  227.1220 H   0  0  0  0  0  0  0  0  0  0  0  0
  1  2  2  0
  2  3  1  0
  3  4  1  0
  4  5  1  0
  5  6  2  0
  5  7  1  0
  7  8  1  0
  8  9  1  0
  9 10  1  0
 10 11  1  0
 11 12  1  0
 12 13  1  0
 13 14  1  0
 14 15  1  0
 15 16  1  0
 16 17  1  0
 17 18  1  0
  2 19  1  0
 19 20  2  0
 20 21  1  0
 21 22  2  0
 22 23  1  0
 23 24  2  0
 24 25  1  0
 24 26  1  0
 26 27  2  0
 27 28  1  0
 28 29  2  0
 11  7  1  0
 18 14  1  0
 29 19  1  0
 28 22  1  0
  3 30  1  0
  4 31  1  0
  4 32  1  0
  8 33  1  0
  8 34  1  0
  9 35  1  0
  9 36  1  0
 10 37  1  0
 10 38  1  0
 11 39  1  1
 12 40  1  0
 12 41  1  0
 13 42  1  0
 14 43  1  0
 15 44  1  0
 15 45  1  0
 16 46  1  0
 16 47  1  0
 17 48  1  0
 17 49  1  0
 18 50  1  0
 18 51  1  0
 20 52  1  0
 21 53  1  0
 23 54  1  0
 26 55  1  0
 27 56  1  0
M  END
>  <smiles>  (35) 
O=C(NCC(=O)N1CCC[C@H]1CNC1CCCC1)c1ccc2cc(F)ccc2n1

>  <score_type>  (35) 
oracle

>  <origin>  (35) 
autodockgpu

>  <m_score__min__energy>  (35) 
-9.0800000000000001

>  <m_primary>  (35) 
energy

>  <rmsd>  (35) 
2.227006503999448

>  <m_score__min__rmsd>  (35) 
2.227006503999448

>  <meeko>  (35) 
{"free_energy": -9.08, "intermolecular_energy": -11.17, "internal_energy": -2.03, "cluster_size": 40, "cluster_id": 1, "rank_in_cluster": 1}

>  <energy>  (35) 
-7.58

>  <cluster_rmsd>  (35) 
1.65

>  <cluster>  (35) 
1

$$$$

     RDKit          3D

 56 59  0  0  0  0  0  0  0  0999 V2000
  136.8200   76.4710  222.0950 O   0  0  0  0  0  0  0  0  0  0  0  0
  138.0810   76.5210  222.2280 C   0  0  0  0  0  0  0  0  0  0  0  0
  138.8640   75.3590  221.9920 N   0  0  0  0  0  0  0  0  0  0  0  0
  138.2990   74.0870  221.6000 C   0  0  0  0  0  0  0  0  0  0  0  0
  139.2380   72.9920  221.9560 C   0  0  0  0  0  0  0  0  0  0  0  0
  140.3240   73.3210  222.4850 O   0  0  0  0  0  0  0  0  0  0  0  0
  138.8500   71.6570  221.6760 N   0  0  0  0  0  0  0  0  0  0  0  0
  138.4580   71.1060  220.3640 C   0  0  0  0  0  0  0  0  0  0  0  0
  138.9040   69.6630  220.4510 C   0  0  0  0  0  0  0  0  0  0  0  0
  139.6080   69.5570  221.8370 C   0  0  0  0  0  0  0  0  0  0  0  0
  138.7370   70.5130  222.5790 C   0  0  1  0  0  0  0  0  0  0  0  0
  138.9380   70.7560  223.9960 C   0  0  0  0  0  0  0  0  0  0  0  0
  140.1150   71.2500  224.5420 N   0  0  0  0  0  0  0  0  0  0  0  0
  140.6710   70.7880  225.7350 C   0  0  0  0  0  0  0  0  0  0  0  0
  140.7320   71.8820  226.8240 C   0  0  0  0  0  0  0  0  0  0  0  0
  141.0770   71.0820  228.0550 C   0  0  0  0  0  0  0  0  0  0  0  0
  140.7070   69.6300  227.7400 C   0  0  0  0  0  0  0  0  0  0  0  0
  139.8330   69.7700  226.4840 C   0  0  0  0  0  0  0  0  0  0  0  0
  138.7380   77.7830  222.6280 C   0  0  0  0  0  0  0  0  0  0  0  0
  137.9480   78.8960  222.8610 C   0  0  0  0  0  0  0  0  0  0  0  0
  138.6110   80.0510  223.2320 C   0  0  0  0  0  0  0  0  0  0  0  0
  139.9920   80.0880  223.3630 C   0  0  0  0  0  0  0  0  0  0  0  0
  140.6760   81.2240  223.7320 C   0  0  0  0  0  0  0  0  0  0  0  0
  142.0500   81.2000  223.8450 C   0  0  0  0  0  0  0  0  0  0  0  0
  142.6600   82.3480  224.2110 F   0  0  0  0  0  0  0  0  0  0  0  0
  142.8050   80.0630  223.6020 C   0  0  0  0  0  0  0  0  0  0  0  0
  142.1220   78.9250  223.2330 C   0  0  0  0  0  0  0  0  0  0  0  0
  140.7320   78.9360  223.1150 C   0  0  0  0  0  0  0  0  0  0  0  0
  140.0750   77.8200  222.7540 N   0  0  0  0  0  0  0  0  0  0  0  0
  139.9050   75.4780  222.1240 H   0  0  0  0  0  0  0  0  0  0  0  0
  137.3436   73.9342  222.1234 H   0  0  0  0  0  0  0  0  0  0  0  0
  138.1291   74.0828  220.5132 H   0  0  0  0  0  0  0  0  0  0  0  0
  137.3702   71.1749  220.2158 H   0  0  0  0  0  0  0  0  0  0  0  0
  138.9052   71.6466  219.5168 H   0  0  0  0  0  0  0  0  0  0  0  0
  138.0394   68.9848  220.4009 H   0  0  0  0  0  0  0  0  0  0  0  0
  139.5678   69.3789  219.6211 H   0  0  0  0  0  0  0  0  0  0  0  0
  139.5606   68.5397  222.2528 H   0  0  0  0  0  0  0  0  0  0  0  0
  140.6866   69.7725  221.8509 H   0  0  0  0  0  0  0  0  0  0  0  0
  137.7241   70.1220  222.7553 H   0  0  0  0  0  0  0  0  0  0  0  0
  138.1520   71.4669  224.2905 H   0  0  0  0  0  0  0  0  0  0  0  0
  138.9445   69.7269  224.3845 H   0  0  0  0  0  0  0  0  0  0  0  0
  140.2580   72.2800  224.3710 H   0  0  0  0  0  0  0  0  0  0  0  0
  141.6339   70.3993  225.3721 H   0  0  0  0  0  0  0  0  0  0  0  0
  141.5107   72.6258  226.5998 H   0  0  0  0  0  0  0  0  0  0  0  0
  139.8035   72.4640  226.9197 H   0  0  0  0  0  0  0  0  0  0  0  0
  142.1522   71.1626  228.2729 H   0  0  0  0  0  0  0  0  0  0  0  0
  140.5339   71.4511  228.9375 H   0  0  0  0  0  0  0  0  0  0  0  0
  141.6041   69.0276  227.5341 H   0  0  0  0  0  0  0  0  0  0  0  0
  140.1991   69.1185  228.5709 H   0  0  0  0  0  0  0  0  0  0  0  0
  139.7442   68.8217  225.9337 H   0  0  0  0  0  0  0  0  0  0  0  0
  138.7852   70.0538  226.6619 H   0  0  0  0  0  0  0  0  0  0  0  0
  136.8535   78.8630  222.7567 H   0  0  0  0  0  0  0  0  0  0  0  0
  138.0292   80.9637  223.4283 H   0  0  0  0  0  0  0  0  0  0  0  0
  140.1250   82.1536  223.9373 H   0  0  0  0  0  0  0  0  0  0  0  0
  143.9006   80.0692  223.6995 H   0  0  0  0  0  0  0  0  0  0  0  0
  142.6783   77.9982  223.0293 H   0  0  0  0  0  0  0  0  0  0  0  0
  1  2  2  0
  2  3  1  0
  3  4  1  0
  4  5  1  0
  5  6  2  0
  5  7  1  0
  7  8  1  0
  8  9  1  0
  9 10  1  0
 10 11  1  0
 11 12  1  0
 12 13  1  0
 13 14  1  0
 14 15  1  0
 15 16  1  0
 16 17  1  0
 17 18  1  0
  2 19  1  0
 19 20  2  0
 20 21  1  0
 21 22  2  0
 22 23  1  0
 23 24  2  0
 24 25  1  0
 24 26  1  0
 26 27  2  0
 27 28  1  0
 28 29  2  0
 11  7  1  0
 18 14  1  0
 29 19  1  0
 28 22  1  0
  3 30  1  0
  4 31  1  0
  4 32  1  0
  8 33  1  0
  8 34  1  0
  9 35  1  0
  9 36  1  0
 10 37  1  0
 10 38  1  0
 11 39  1  1
 12 40  1  0
 12 41  1  0
 13 42  1  0
 14 43  1  0
 15 44  1  0
 15 45  1  0
 16 46  1  0
 16 47  1  0
 17 48  1  0
 17 49  1  0
 18 50  1  0
 18 51  1  0
 20 52  1  0
 21 53  1  0
 23 54  1  0
 26 55  1  0
 27 56  1  0
M  END
>  <smiles>  (36) 
O=C(NCC(=O)N1CCC[C@H]1CNC1CCCC1)c1ccc2cc(F)ccc2n1

>  <score_type>  (36) 
oracle

>  <origin>  (36) 
autodockgpu

>  <m_score__min__energy>  (36) 
-9.0800000000000001

>  <m_primary>  (36) 
energy

>  <rmsd>  (36) 
9.255651309314262

>  <m_score__min__rmsd>  (36) 
9.255651309314262

>  <meeko>  (36) 
{"free_energy": -7.48, "intermolecular_energy": -9.57, "internal_energy": -2.82, "cluster_size": 5, "cluster_id": 2, "rank_in_cluster": 4}

>  <energy>  (36) 
-7.55

>  <cluster_rmsd>  (36) 
1.78

>  <cluster>  (36) 
1

$$$$

     RDKit          3D

 56 59  0  0  0  0  0  0  0  0999 V2000
  140.5210   71.7730  221.1110 O   0  0  0  0  0  0  0  0  0  0  0  0
  139.9350   72.1670  222.1650 C   0  0  0  0  0  0  0  0  0  0  0  0
  139.2630   73.4190  222.1760 N   0  0  0  0  0  0  0  0  0  0  0  0
  139.2020   74.2970  221.0290 C   0  0  0  0  0  0  0  0  0  0  0  0
  140.4290   75.1330  220.9730 C   0  0  0  0  0  0  0  0  0  0  0  0
  141.1830   75.1060  221.9710 O   0  0  0  0  0  0  0  0  0  0  0  0
  140.6650   75.9010  219.8050 N   0  0  0  0  0  0  0  0  0  0  0  0
  140.2510   75.5690  218.4290 C   0  0  0  0  0  0  0  0  0  0  0  0
  140.0340   76.9260  217.7970 C   0  0  0  0  0  0  0  0  0  0  0  0
  140.2810   77.9370  218.9580 C   0  0  0  0  0  0  0  0  0  0  0  0
  141.3580   77.1800  219.6590 C   0  0  1  0  0  0  0  0  0  0  0  0
  142.0080   77.7290  220.8350 C   0  0  0  0  0  0  0  0  0  0  0  0
  141.4480   77.7280  222.1050 N   0  0  0  0  0  0  0  0  0  0  0  0
  141.4470   78.8350  222.9540 C   0  0  0  0  0  0  0  0  0  0  0  0
  142.5070   79.8860  222.5580 C   0  0  0  0  0  0  0  0  0  0  0  0
  142.1130   81.0660  223.4110 C   0  0  0  0  0  0  0  0  0  0  0  0
  140.6580   80.8310  223.8220 C   0  0  0  0  0  0  0  0  0  0  0  0
  140.2150   79.7130  222.8660 C   0  0  0  0  0  0  0  0  0  0  0  0
  139.9510   71.3300  223.3830 C   0  0  0  0  0  0  0  0  0  0  0  0
  139.4450   70.0440  223.3100 C   0  0  0  0  0  0  0  0  0  0  0  0
  139.4830   69.3030  224.4760 C   0  0  0  0  0  0  0  0  0  0  0  0
  140.0020   69.8230  225.6530 C   0  0  0  0  0  0  0  0  0  0  0  0
  140.0520   69.1060  226.8270 C   0  0  0  0  0  0  0  0  0  0  0  0
  140.5790   69.6770  227.9670 C   0  0  0  0  0  0  0  0  0  0  0  0
  140.5990   68.9210  229.0840 F   0  0  0  0  0  0  0  0  0  0  0  0
  141.0760   70.9710  227.9980 C   0  0  0  0  0  0  0  0  0  0  0  0
  141.0260   71.6900  226.8240 C   0  0  0  0  0  0  0  0  0  0  0  0
  140.4960   71.1230  225.6640 C   0  0  0  0  0  0  0  0  0  0  0  0
  140.4520   71.8340  224.5240 N   0  0  0  0  0  0  0  0  0  0  0  0
  138.8010   73.6790  223.0890 H   0  0  0  0  0  0  0  0  0  0  0  0
  139.1273   73.6951  220.1113 H   0  0  0  0  0  0  0  0  0  0  0  0
  138.3203   74.9491  221.1156 H   0  0  0  0  0  0  0  0  0  0  0  0
  141.0398   75.0106  217.9036 H   0  0  0  0  0  0  0  0  0  0  0  0
  139.3587   74.9270  218.3898 H   0  0  0  0  0  0  0  0  0  0  0  0
  140.7481   77.0925  216.9771 H   0  0  0  0  0  0  0  0  0  0  0  0
  139.0310   77.0287  217.3572 H   0  0  0  0  0  0  0  0  0  0  0  0
  140.6276   78.9152  218.5933 H   0  0  0  0  0  0  0  0  0  0  0  0
  139.4025   78.2036  219.5639 H   0  0  0  0  0  0  0  0  0  0  0  0
  142.3061   77.1661  219.1015 H   0  0  0  0  0  0  0  0  0  0  0  0
  142.9605   77.1869  220.9292 H   0  0  0  0  0  0  0  0  0  0  0  0
  141.9900   78.8035  220.6003 H   0  0  0  0  0  0  0  0  0  0  0  0
  141.5390   76.8030  222.6030 H   0  0  0  0  0  0  0  0  0  0  0  0
  141.5799   78.3425  223.9286 H   0  0  0  0  0  0  0  0  0  0  0  0
  143.5228   79.5397  222.7995 H   0  0  0  0  0  0  0  0  0  0  0  0
  142.5320   80.1064  221.4806 H   0  0  0  0  0  0  0  0  0  0  0  0
  142.7559   81.1239  224.3017 H   0  0  0  0  0  0  0  0  0  0  0  0
  142.2258   82.0123  222.8616 H   0  0  0  0  0  0  0  0  0  0  0  0
  140.5893   80.5067  224.8709 H   0  0  0  0  0  0  0  0  0  0  0  0
  140.0340   81.7346  223.7569 H   0  0  0  0  0  0  0  0  0  0  0  0
  139.3122   79.1962  223.2237 H   0  0  0  0  0  0  0  0  0  0  0  0
  139.9324   80.0367  221.8534 H   0  0  0  0  0  0  0  0  0  0  0  0
  139.0350   69.6341  222.3752 H   0  0  0  0  0  0  0  0  0  0  0  0
  139.0919   68.2749  224.4708 H   0  0  0  0  0  0  0  0  0  0  0  0
  139.6706   68.0746  226.8563 H   0  0  0  0  0  0  0  0  0  0  0  0
  141.4919   71.4044  228.9195 H   0  0  0  0  0  0  0  0  0  0  0  0
  141.4076   72.7214  226.8006 H   0  0  0  0  0  0  0  0  0  0  0  0
  1  2  2  0
  2  3  1  0
  3  4  1  0
  4  5  1  0
  5  6  2  0
  5  7  1  0
  7  8  1  0
  8  9  1  0
  9 10  1  0
 10 11  1  0
 11 12  1  0
 12 13  1  0
 13 14  1  0
 14 15  1  0
 15 16  1  0
 16 17  1  0
 17 18  1  0
  2 19  1  0
 19 20  2  0
 20 21  1  0
 21 22  2  0
 22 23  1  0
 23 24  2  0
 24 25  1  0
 24 26  1  0
 26 27  2  0
 27 28  1  0
 28 29  2  0
 11  7  1  0
 18 14  1  0
 29 19  1  0
 28 22  1  0
  3 30  1  0
  4 31  1  0
  4 32  1  0
  8 33  1  0
  8 34  1  0
  9 35  1  0
  9 36  1  0
 10 37  1  0
 10 38  1  0
 11 39  1  6
 12 40  1  0
 12 41  1  0
 13 42  1  0
 14 43  1  0
 15 44  1  0
 15 45  1  0
 16 46  1  0
 16 47  1  0
 17 48  1  0
 17 49  1  0
 18 50  1  0
 18 51  1  0
 20 52  1  0
 21 53  1  0
 23 54  1  0
 26 55  1  0
 27 56  1  0
M  END
>  <smiles>  (37) 
O=C(NCC(=O)N1CCC[C@H]1CNC1CCCC1)c1ccc2cc(F)ccc2n1

>  <score_type>  (37) 
oracle

>  <origin>  (37) 
autodockgpu

>  <m_score__min__energy>  (37) 
-9.0800000000000001

>  <m_primary>  (37) 
energy

>  <rmsd>  (37) 
1.8931498384192442

>  <m_score__min__rmsd>  (37) 
1.8931498384192442

>  <meeko>  (37) 
{"free_energy": -8.03, "intermolecular_energy": -10.12, "internal_energy": -2.1, "cluster_size": 40, "cluster_id": 1, "rank_in_cluster": 26}

>  <energy>  (37) 
-7.45

>  <cluster_rmsd>  (37) 
1.56

>  <cluster>  (37) 
1

$$$$

     RDKit          3D

 56 59  0  0  0  0  0  0  0  0999 V2000
  140.6510   71.5250  221.1530 O   0  0  0  0  0  0  0  0  0  0  0  0
  140.2350   72.0350  222.2380 C   0  0  0  0  0  0  0  0  0  0  0  0
  139.9230   73.4210  222.2950 N   0  0  0  0  0  0  0  0  0  0  0  0
  140.0540   74.3110  221.1630 C   0  0  0  0  0  0  0  0  0  0  0  0
  140.3090   75.6940  221.6420 C   0  0  0  0  0  0  0  0  0  0  0  0
  139.7480   76.0430  222.7040 O   0  0  0  0  0  0  0  0  0  0  0  0
  141.1650   76.5230  220.8720 N   0  0  0  0  0  0  0  0  0  0  0  0
  142.3550   76.1010  220.1100 C   0  0  0  0  0  0  0  0  0  0  0  0
  142.3900   77.0800  218.9570 C   0  0  0  0  0  0  0  0  0  0  0  0
  141.1100   77.9490  219.1470 C   0  0  0  0  0  0  0  0  0  0  0  0
  141.0970   77.9650  220.6390 C   0  0  1  0  0  0  0  0  0  0  0  0
  140.0900   78.7150  221.3650 C   0  0  0  0  0  0  0  0  0  0  0  0
  140.0840   78.8790  222.7440 N   0  0  0  0  0  0  0  0  0  0  0  0
  140.9970   79.6750  223.4350 C   0  0  0  0  0  0  0  0  0  0  0  0
  142.4610   79.3760  223.0440 C   0  0  0  0  0  0  0  0  0  0  0  0
  143.1990   80.5270  223.6790 C   0  0  0  0  0  0  0  0  0  0  0  0
  142.1550   81.6190  223.9290 C   0  0  0  0  0  0  0  0  0  0  0  0
  140.9660   81.1490  223.0780 C   0  0  0  0  0  0  0  0  0  0  0  0
  140.0750   71.1940  223.4430 C   0  0  0  0  0  0  0  0  0  0  0  0
  139.5040   69.9410  223.3050 C   0  0  0  0  0  0  0  0  0  0  0  0
  139.3760   69.1950  224.4610 C   0  0  0  0  0  0  0  0  0  0  0  0
  139.8000   69.6800  225.6910 C   0  0  0  0  0  0  0  0  0  0  0  0
  139.6860   68.9570  226.8570 C   0  0  0  0  0  0  0  0  0  0  0  0
  140.1240   69.4910  228.0500 C   0  0  0  0  0  0  0  0  0  0  0  0
  139.9830   68.7310  229.1560 F   0  0  0  0  0  0  0  0  0  0  0  0
  140.6910   70.7530  228.1450 C   0  0  0  0  0  0  0  0  0  0  0  0
  140.8060   71.4770  226.9800 C   0  0  0  0  0  0  0  0  0  0  0  0
  140.3660   70.9480  225.7660 C   0  0  0  0  0  0  0  0  0  0  0  0
  140.4830   71.6630  224.6340 N   0  0  0  0  0  0  0  0  0  0  0  0
  139.5840   73.7720  223.2310 H   0  0  0  0  0  0  0  0  0  0  0  0
  140.8936   73.9812  220.5335 H   0  0  0  0  0  0  0  0  0  0  0  0
  139.1240   74.2939  220.5759 H   0  0  0  0  0  0  0  0  0  0  0  0
  143.2649   76.1804  220.7230 H   0  0  0  0  0  0  0  0  0  0  0  0
  142.3097   75.0513  219.7843 H   0  0  0  0  0  0  0  0  0  0  0  0
  143.2946   77.7041  219.0037 H   0  0  0  0  0  0  0  0  0  0  0  0
  142.4132   76.5759  217.9796 H   0  0  0  0  0  0  0  0  0  0  0  0
  141.2218   78.9563  218.7195 H   0  0  0  0  0  0  0  0  0  0  0  0
  140.1963   77.5802  218.6579 H   0  0  0  0  0  0  0  0  0  0  0  0
  141.9065   78.5727  221.0697 H   0  0  0  0  0  0  0  0  0  0  0  0
  140.1153   79.7312  220.9447 H   0  0  0  0  0  0  0  0  0  0  0  0
  139.2109   78.0679  221.2290 H   0  0  0  0  0  0  0  0  0  0  0  0
  139.7830   78.0150  223.2680 H   0  0  0  0  0  0  0  0  0  0  0  0
  140.7091   79.4562  224.4738 H   0  0  0  0  0  0  0  0  0  0  0  0
  142.7951   78.4120  223.4552 H   0  0  0  0  0  0  0  0  0  0  0  0
  142.6210   79.2924  221.9589 H   0  0  0  0  0  0  0  0  0  0  0  0
  143.6543   80.2103  224.6289 H   0  0  0  0  0  0  0  0  0  0  0  0
  144.0102   80.8893  223.0304 H   0  0  0  0  0  0  0  0  0  0  0  0
  141.8842   81.6728  224.9938 H   0  0  0  0  0  0  0  0  0  0  0  0
  142.5071   82.6280  223.6683 H   0  0  0  0  0  0  0  0  0  0  0  0
  140.0241   81.6287  223.3824 H   0  0  0  0  0  0  0  0  0  0  0  0
  141.0281   81.3802  222.0044 H   0  0  0  0  0  0  0  0  0  0  0  0
  139.1703   69.5598  222.3286 H   0  0  0  0  0  0  0  0  0  0  0  0
  138.9272   68.1923  224.4055 H   0  0  0  0  0  0  0  0  0  0  0  0
  139.2440   67.9499  226.8366 H   0  0  0  0  0  0  0  0  0  0  0  0
  141.0337   71.1576  229.1088 H   0  0  0  0  0  0  0  0  0  0  0  0
  141.2495   72.4833  227.0062 H   0  0  0  0  0  0  0  0  0  0  0  0
  1  2  2  0
  2  3  1  0
  3  4  1  0
  4  5  1  0
  5  6  2  0
  5  7  1  0
  7  8  1  0
  8  9  1  0
  9 10  1  0
 10 11  1  0
 11 12  1  0
 12 13  1  0
 13 14  1  0
 14 15  1  0
 15 16  1  0
 16 17  1  0
 17 18  1  0
  2 19  1  0
 19 20  2  0
 20 21  1  0
 21 22  2  0
 22 23  1  0
 23 24  2  0
 24 25  1  0
 24 26  1  0
 26 27  2  0
 27 28  1  0
 28 29  2  0
 11  7  1  0
 18 14  1  0
 29 19  1  0
 28 22  1  0
  3 30  1  0
  4 31  1  0
  4 32  1  0
  8 33  1  0
  8 34  1  0
  9 35  1  0
  9 36  1  0
 10 37  1  0
 10 38  1  0
 11 39  1  1
 12 40  1  0
 12 41  1  0
 13 42  1  0
 14 43  1  0
 15 44  1  0
 15 45  1  0
 16 46  1  0
 16 47  1  0
 17 48  1  0
 17 49  1  0
 18 50  1  0
 18 51  1  0
 20 52  1  0
 21 53  1  0
 23 54  1  0
 26 55  1  0
 27 56  1  0
M  END
>  <smiles>  (38) 
O=C(NCC(=O)N1CCC[C@H]1CNC1CCCC1)c1ccc2cc(F)ccc2n1

>  <score_type>  (38) 
oracle

>  <origin>  (38) 
autodockgpu

>  <m_score__min__energy>  (38) 
-9.0800000000000001

>  <m_primary>  (38) 
energy

>  <rmsd>  (38) 
2.4085201530702065

>  <m_score__min__rmsd>  (38) 
2.4085201530702065

>  <meeko>  (38) 
{"free_energy": -8.49, "intermolecular_energy": -10.57, "internal_energy": -2.56, "cluster_size": 40, "cluster_id": 1, "rank_in_cluster": 11}

>  <energy>  (38) 
-7.43

>  <cluster_rmsd>  (38) 
1.6

>  <cluster>  (38) 
1

$$$$

     RDKit          3D

 56 59  0  0  0  0  0  0  0  0999 V2000
  138.4750   70.6270  221.4020 O   0  0  0  0  0  0  0  0  0  0  0  0
  138.9550   71.1810  222.4370 C   0  0  0  0  0  0  0  0  0  0  0  0
  139.2100   72.5800  222.4380 N   0  0  0  0  0  0  0  0  0  0  0  0
  138.9480   73.4350  221.3010 C   0  0  0  0  0  0  0  0  0  0  0  0
  139.6110   74.7490  221.5010 C   0  0  0  0  0  0  0  0  0  0  0  0
  140.6880   74.7530  222.1400 O   0  0  0  0  0  0  0  0  0  0  0  0
  138.9890   75.9030  220.9620 N   0  0  0  0  0  0  0  0  0  0  0  0
  138.2300   75.9920  219.7000 C   0  0  0  0  0  0  0  0  0  0  0  0
  137.2130   77.0750  219.9860 C   0  0  0  0  0  0  0  0  0  0  0  0
  137.4580   77.4520  221.4780 C   0  0  0  0  0  0  0  0  0  0  0  0
  138.9370   77.2650  221.4930 C   0  0  1  0  0  0  0  0  0  0  0  0
  139.7100   77.5470  222.6880 C   0  0  0  0  0  0  0  0  0  0  0  0
  141.0970   77.5290  222.7410 N   0  0  0  0  0  0  0  0  0  0  0  0
  141.8870   78.6770  222.8070 C   0  0  0  0  0  0  0  0  0  0  0  0
  141.3650   79.8090  221.8960 C   0  0  0  0  0  0  0  0  0  0  0  0
  142.1810   80.9890  222.3590 C   0  0  0  0  0  0  0  0  0  0  0  0
  142.7060   80.6270  223.7510 C   0  0  0  0  0  0  0  0  0  0  0  0
  141.8410   79.4150  224.1310 C   0  0  0  0  0  0  0  0  0  0  0  0
  139.2530   70.3780  223.6420 C   0  0  0  0  0  0  0  0  0  0  0  0
  138.9020   69.0390  223.6480 C   0  0  0  0  0  0  0  0  0  0  0  0
  139.2030   68.3330  224.7980 C   0  0  0  0  0  0  0  0  0  0  0  0
  139.8220   68.9380  225.8830 C   0  0  0  0  0  0  0  0  0  0  0  0
  140.1330   68.2570  227.0390 C   0  0  0  0  0  0  0  0  0  0  0  0
  140.7480   68.9110  228.0850 C   0  0  0  0  0  0  0  0  0  0  0  0
  141.0260   68.1860  229.1890 F   0  0  0  0  0  0  0  0  0  0  0  0
  141.0830   70.2560  228.0380 C   0  0  0  0  0  0  0  0  0  0  0  0
  140.7730   70.9380  226.8820 C   0  0  0  0  0  0  0  0  0  0  0  0
  140.1500   70.2870  225.8160 C   0  0  0  0  0  0  0  0  0  0  0  0
  139.8520   70.9630  224.6930 N   0  0  0  0  0  0  0  0  0  0  0  0
  139.6100   72.9680  223.3340 H   0  0  0  0  0  0  0  0  0  0  0  0
  139.3412   72.9618  220.3891 H   0  0  0  0  0  0  0  0  0  0  0  0
  137.8630   73.5854  221.2000 H   0  0  0  0  0  0  0  0  0  0  0  0
  138.8858   76.2771  218.8642 H   0  0  0  0  0  0  0  0  0  0  0  0
  137.7722   75.0369  219.4028 H   0  0  0  0  0  0  0  0  0  0  0  0
  137.3764   77.9448  219.3328 H   0  0  0  0  0  0  0  0  0  0  0  0
  136.1813   76.7408  219.8018 H   0  0  0  0  0  0  0  0  0  0  0  0
  137.1659   78.4890  221.7001 H   0  0  0  0  0  0  0  0  0  0  0  0
  136.8889   76.8769  222.2232 H   0  0  0  0  0  0  0  0  0  0  0  0
  139.4730   78.0383  220.9231 H   0  0  0  0  0  0  0  0  0  0  0  0
  139.4134   78.5586  223.0023 H   0  0  0  0  0  0  0  0  0  0  0  0
  139.4673   76.6687  223.3042 H   0  0  0  0  0  0  0  0  0  0  0  0
  141.5280   76.7410  222.1900 H   0  0  0  0  0  0  0  0  0  0  0  0
  142.8732   78.2581  222.5583 H   0  0  0  0  0  0  0  0  0  0  0  0
  141.5519   79.5860  220.8352 H   0  0  0  0  0  0  0  0  0  0  0  0
  140.2787   79.9676  221.9656 H   0  0  0  0  0  0  0  0  0  0  0  0
  143.0196   81.1664  221.6696 H   0  0  0  0  0  0  0  0  0  0  0  0
  141.5769   81.9079  222.3854 H   0  0  0  0  0  0  0  0  0  0  0  0
  143.7721   80.3585  223.7158 H   0  0  0  0  0  0  0  0  0  0  0  0
  142.6400   81.4549  224.4723 H   0  0  0  0  0  0  0  0  0  0  0  0
  142.2868   78.8281  224.9476 H   0  0  0  0  0  0  0  0  0  0  0  0
  140.8356   79.6481  224.5116 H   0  0  0  0  0  0  0  0  0  0  0  0
  138.4111   68.5633  222.7861 H   0  0  0  0  0  0  0  0  0  0  0  0
  138.9455   67.2651  224.8545 H   0  0  0  0  0  0  0  0  0  0  0  0
  139.8899   67.1879  227.1278 H   0  0  0  0  0  0  0  0  0  0  0  0
  141.5742   70.7558  228.8859 H   0  0  0  0  0  0  0  0  0  0  0  0
  141.0190   72.0069  226.7981 H   0  0  0  0  0  0  0  0  0  0  0  0
  1  2  2  0
  2  3  1  0
  3  4  1  0
  4  5  1  0
  5  6  2  0
  5  7  1  0
  7  8  1  0
  8  9  1  0
  9 10  1  0
 10 11  1  0
 11 12  1  0
 12 13  1  0
 13 14  1  0
 14 15  1  0
 15 16  1  0
 16 17  1  0
 17 18  1  0
  2 19  1  0
 19 20  2  0
 20 21  1  0
 21 22  2  0
 22 23  1  0
 23 24  2  0
 24 25  1  0
 24 26  1  0
 26 27  2  0
 27 28  1  0
 28 29  2  0
 11  7  1  0
 18 14  1  0
 29 19  1  0
 28 22  1  0
  3 30  1  0
  4 31  1  0
  4 32  1  0
  8 33  1  0
  8 34  1  0
  9 35  1  0
  9 36  1  0
 10 37  1  0
 10 38  1  0
 11 39  1  6
 12 40  1  0
 12 41  1  0
 13 42  1  0
 14 43  1  0
 15 44  1  0
 15 45  1  0
 16 46  1  0
 16 47  1  0
 17 48  1  0
 17 49  1  0
 18 50  1  0
 18 51  1  0
 20 52  1  0
 21 53  1  0
 23 54  1  0
 26 55  1  0
 27 56  1  0
M  END
>  <smiles>  (39) 
O=C(NCC(=O)N1CCC[C@H]1CNC1CCCC1)c1ccc2cc(F)ccc2n1

>  <score_type>  (39) 
oracle

>  <origin>  (39) 
autodockgpu

>  <m_score__min__energy>  (39) 
-9.0800000000000001

>  <m_primary>  (39) 
energy

>  <rmsd>  (39) 
2.282971958100494

>  <m_score__min__rmsd>  (39) 
2.282971958100494

>  <meeko>  (39) 
{"free_energy": -8.08, "intermolecular_energy": -10.17, "internal_energy": -2.61, "cluster_size": 40, "cluster_id": 1, "rank_in_cluster": 22}

>  <energy>  (39) 
-7.38

>  <cluster_rmsd>  (39) 
1.9

>  <cluster>  (39) 
1

$$$$

     RDKit          3D

 56 59  0  0  0  0  0  0  0  0999 V2000
  138.1050   70.7630  221.8470 O   0  0  0  0  0  0  0  0  0  0  0  0
  138.8200   71.2250  222.7880 C   0  0  0  0  0  0  0  0  0  0  0  0
  139.2960   72.5630  222.7240 N   0  0  0  0  0  0  0  0  0  0  0  0
  139.0100   73.4560  221.6240 C   0  0  0  0  0  0  0  0  0  0  0  0
  139.5210   74.8150  221.9370 C   0  0  0  0  0  0  0  0  0  0  0  0
  140.7230   74.9090  222.2730 O   0  0  0  0  0  0  0  0  0  0  0  0
  138.6240   75.9090  221.8380 N   0  0  0  0  0  0  0  0  0  0  0  0
  137.1660   75.8810  222.0620 C   0  0  0  0  0  0  0  0  0  0  0  0
  136.8720   77.2690  222.5880 C   0  0  0  0  0  0  0  0  0  0  0  0
  138.2710   77.9480  222.6910 C   0  0  0  0  0  0  0  0  0  0  0  0
  138.8960   77.3050  221.4990 C   0  0  1  0  0  0  0  0  0  0  0  0
  140.2470   77.6460  221.0940 C   0  0  0  0  0  0  0  0  0  0  0  0
  141.2550   78.0160  221.9740 N   0  0  0  0  0  0  0  0  0  0  0  0
  141.3370   79.2720  222.5750 C   0  0  0  0  0  0  0  0  0  0  0  0
  142.5700   79.4110  223.4940 C   0  0  0  0  0  0  0  0  0  0  0  0
  142.5910   80.8930  223.7720 C   0  0  0  0  0  0  0  0  0  0  0  0
  141.7580   81.5470  222.6670 C   0  0  0  0  0  0  0  0  0  0  0  0
  141.6300   80.4210  221.6300 C   0  0  0  0  0  0  0  0  0  0  0  0
  139.1610   70.3770  223.9490 C   0  0  0  0  0  0  0  0  0  0  0  0
  138.8630   69.0260  223.8930 C   0  0  0  0  0  0  0  0  0  0  0  0
  139.2020   68.2770  225.0030 C   0  0  0  0  0  0  0  0  0  0  0  0
  139.8070   68.8520  226.1130 C   0  0  0  0  0  0  0  0  0  0  0  0
  140.1550   68.1280  227.2310 C   0  0  0  0  0  0  0  0  0  0  0  0
  140.7530   68.7550  228.3040 C   0  0  0  0  0  0  0  0  0  0  0  0
  141.0690   67.9890  229.3690 F   0  0  0  0  0  0  0  0  0  0  0  0
  141.0340   70.1130  228.3210 C   0  0  0  0  0  0  0  0  0  0  0  0
  140.6860   70.8380  227.2030 C   0  0  0  0  0  0  0  0  0  0  0  0
  140.0800   70.2150  226.1100 C   0  0  0  0  0  0  0  0  0  0  0  0
  139.7450   70.9330  225.0240 N   0  0  0  0  0  0  0  0  0  0  0  0
  139.8850   72.8750  223.5430 H   0  0  0  0  0  0  0  0  0  0  0  0
  139.4996   73.0821  220.7127 H   0  0  0  0  0  0  0  0  0  0  0  0
  137.9224   73.5030  221.4661 H   0  0  0  0  0  0  0  0  0  0  0  0
  136.6259   75.6923  221.1225 H   0  0  0  0  0  0  0  0  0  0  0  0
  136.8497   75.0825  222.7493 H   0  0  0  0  0  0  0  0  0  0  0  0
  136.2222   77.8197  221.8919 H   0  0  0  0  0  0  0  0  0  0  0  0
  136.3433   77.2490  223.5524 H   0  0  0  0  0  0  0  0  0  0  0  0
  138.2124   79.0420  222.5926 H   0  0  0  0  0  0  0  0  0  0  0  0
  138.8028   77.8202  223.6454 H   0  0  0  0  0  0  0  0  0  0  0  0
  138.4833   77.6705  220.5471 H   0  0  0  0  0  0  0  0  0  0  0  0
  140.6285   76.7639  220.5588 H   0  0  0  0  0  0  0  0  0  0  0  0
  140.0720   78.5961  220.5680 H   0  0  0  0  0  0  0  0  0  0  0  0
  142.1890   77.5850  221.7480 H   0  0  0  0  0  0  0  0  0  0  0  0
  140.3512   79.3277  223.0599 H   0  0  0  0  0  0  0  0  0  0  0  0
  142.4443   78.8325  224.4211 H   0  0  0  0  0  0  0  0  0  0  0  0
  143.5005   79.0313  223.0468 H   0  0  0  0  0  0  0  0  0  0  0  0
  142.1489   81.1024  224.7573 H   0  0  0  0  0  0  0  0  0  0  0  0
  143.6191   81.2840  223.7834 H   0  0  0  0  0  0  0  0  0  0  0  0
  140.7710   81.8539  223.0432 H   0  0  0  0  0  0  0  0  0  0  0  0
  142.2119   82.4637  222.2625 H   0  0  0  0  0  0  0  0  0  0  0  0
  140.8037   80.5988  220.9260 H   0  0  0  0  0  0  0  0  0  0  0  0
  142.4970   80.2832  220.9672 H   0  0  0  0  0  0  0  0  0  0  0  0
  138.3826   68.5739  223.0128 H   0  0  0  0  0  0  0  0  0  0  0  0
  138.9874   67.1981  225.0079 H   0  0  0  0  0  0  0  0  0  0  0  0
  139.9556   67.0469  227.2686 H   0  0  0  0  0  0  0  0  0  0  0  0
  141.5134   70.5897  229.1887 H   0  0  0  0  0  0  0  0  0  0  0  0
  140.8875   71.9189  227.1707 H   0  0  0  0  0  0  0  0  0  0  0  0
  1  2  2  0
  2  3  1  0
  3  4  1  0
  4  5  1  0
  5  6  2  0
  5  7  1  0
  7  8  1  0
  8  9  1  0
  9 10  1  0
 10 11  1  0
 11 12  1  0
 12 13  1  0
 13 14  1  0
 14 15  1  0
 15 16  1  0
 16 17  1  0
 17 18  1  0
  2 19  1  0
 19 20  2  0
 20 21  1  0
 21 22  2  0
 22 23  1  0
 23 24  2  0
 24 25  1  0
 24 26  1  0
 26 27  2  0
 27 28  1  0
 28 29  2  0
 11  7  1  0
 18 14  1  0
 29 19  1  0
 28 22  1  0
  3 30  1  0
  4 31  1  0
  4 32  1  0
  8 33  1  0
  8 34  1  0
  9 35  1  0
  9 36  1  0
 10 37  1  0
 10 38  1  0
 11 39  1  6
 12 40  1  0
 12 41  1  0
 13 42  1  0
 14 43  1  0
 15 44  1  0
 15 45  1  0
 16 46  1  0
 16 47  1  0
 17 48  1  0
 17 49  1  0
 18 50  1  0
 18 51  1  0
 20 52  1  0
 21 53  1  0
 23 54  1  0
 26 55  1  0
 27 56  1  0
M  END
>  <smiles>  (40) 
O=C(NCC(=O)N1CCC[C@H]1CNC1CCCC1)c1ccc2cc(F)ccc2n1

>  <score_type>  (40) 
oracle

>  <origin>  (40) 
autodockgpu

>  <m_score__min__energy>  (40) 
-9.0800000000000001

>  <m_primary>  (40) 
energy

>  <rmsd>  (40) 
2.725740551859406

>  <m_score__min__rmsd>  (40) 
2.725740551859406

>  <meeko>  (40) 
{"free_energy": -8.61, "intermolecular_energy": -10.7, "internal_energy": -1.86, "cluster_size": 40, "cluster_id": 1, "rank_in_cluster": 9}

>  <energy>  (40) 
-7.22

>  <cluster_rmsd>  (40) 
1.94

>  <cluster>  (40) 
1

$$$$

     RDKit          3D

 56 59  0  0  0  0  0  0  0  0999 V2000
  138.0210   70.6300  221.7690 O   0  0  0  0  0  0  0  0  0  0  0  0
  138.6950   71.1510  222.7100 C   0  0  0  0  0  0  0  0  0  0  0  0
  139.0740   72.5190  222.6370 N   0  0  0  0  0  0  0  0  0  0  0  0
  138.7300   73.3790  221.5270 C   0  0  0  0  0  0  0  0  0  0  0  0
  139.5810   74.5960  221.5550 C   0  0  0  0  0  0  0  0  0  0  0  0
  140.5650   74.5860  222.3280 O   0  0  0  0  0  0  0  0  0  0  0  0
  139.2290   75.6810  220.7130 N   0  0  0  0  0  0  0  0  0  0  0  0
  138.8360   75.6090  219.2930 C   0  0  0  0  0  0  0  0  0  0  0  0
  137.8820   76.7730  219.1400 C   0  0  0  0  0  0  0  0  0  0  0  0
  137.7630   77.3670  220.5760 C   0  0  0  0  0  0  0  0  0  0  0  0
  139.1630   77.1100  221.0180 C   0  0  1  0  0  0  0  0  0  0  0  0
  139.6200   77.5370  222.3270 C   0  0  0  0  0  0  0  0  0  0  0  0
  140.9500   77.5340  222.7280 N   0  0  0  0  0  0  0  0  0  0  0  0
  141.7970   78.6360  222.6150 C   0  0  0  0  0  0  0  0  0  0  0  0
  141.1320   79.8240  221.8870 C   0  0  0  0  0  0  0  0  0  0  0  0
  142.1070   80.9430  222.1530 C   0  0  0  0  0  0  0  0  0  0  0  0
  142.9410   80.5060  223.3610 C   0  0  0  0  0  0  0  0  0  0  0  0
  142.1290   79.3290  223.9220 C   0  0  0  0  0  0  0  0  0  0  0  0
  139.0890   70.3390  223.8810 C   0  0  0  0  0  0  0  0  0  0  0  0
  138.8290   68.9800  223.8630 C   0  0  0  0  0  0  0  0  0  0  0  0
  139.2170   68.2670  224.9810 C   0  0  0  0  0  0  0  0  0  0  0  0
  139.8330   68.8840  226.0610 C   0  0  0  0  0  0  0  0  0  0  0  0
  140.2300   68.1970  227.1860 C   0  0  0  0  0  0  0  0  0  0  0  0
  140.8380   68.8640  228.2280 C   0  0  0  0  0  0  0  0  0  0  0  0
  141.2030   68.1320  229.3020 F   0  0  0  0  0  0  0  0  0  0  0  0
  141.0810   70.2300  228.2060 C   0  0  0  0  0  0  0  0  0  0  0  0
  140.6840   70.9180  227.0820 C   0  0  0  0  0  0  0  0  0  0  0  0
  140.0680   70.2540  226.0200 C   0  0  0  0  0  0  0  0  0  0  0  0
  139.6850   70.9360  224.9270 N   0  0  0  0  0  0  0  0  0  0  0  0
  139.6340   72.8800  223.4560 H   0  0  0  0  0  0  0  0  0  0  0  0
  138.8936   72.8399  220.5822 H   0  0  0  0  0  0  0  0  0  0  0  0
  137.6726   73.6716  221.6066 H   0  0  0  0  0  0  0  0  0  0  0  0
  139.7099   75.7259  218.6353 H   0  0  0  0  0  0  0  0  0  0  0  0
  138.3867   74.6434  219.0178 H   0  0  0  0  0  0  0  0  0  0  0  0
  138.2880   77.5200  218.4420 H   0  0  0  0  0  0  0  0  0  0  0  0
  136.9081   76.4663  218.7308 H   0  0  0  0  0  0  0  0  0  0  0  0
  137.5188   78.4395  220.5652 H   0  0  0  0  0  0  0  0  0  0  0  0
  136.9694   76.9456  221.2105 H   0  0  0  0  0  0  0  0  0  0  0  0
  139.8969   77.7565  220.5147 H   0  0  0  0  0  0  0  0  0  0  0  0
  139.2787   78.5770  222.4365 H   0  0  0  0  0  0  0  0  0  0  0  0
  139.2104   76.7368  222.9609 H   0  0  0  0  0  0  0  0  0  0  0  0
  141.4280   76.6060  222.5860 H   0  0  0  0  0  0  0  0  0  0  0  0
  142.6626   78.1750  222.1168 H   0  0  0  0  0  0  0  0  0  0  0  0
  141.0340   79.6275  220.8091 H   0  0  0  0  0  0  0  0  0  0  0  0
  140.1090   80.0372  222.2306 H   0  0  0  0  0  0  0  0  0  0  0  0
  142.7556   81.0994  221.2785 H   0  0  0  0  0  0  0  0  0  0  0  0
  141.5848   81.8912  222.3487 H   0  0  0  0  0  0  0  0  0  0  0  0
  143.9466   80.1835  223.0533 H   0  0  0  0  0  0  0  0  0  0  0  0
  143.1063   81.3109  224.0923 H   0  0  0  0  0  0  0  0  0  0  0  0
  142.7299   78.6916  224.5873 H   0  0  0  0  0  0  0  0  0  0  0  0
  141.2670   79.6012  224.5488 H   0  0  0  0  0  0  0  0  0  0  0  0
  138.3402   68.4941  223.0057 H   0  0  0  0  0  0  0  0  0  0  0  0
  139.0331   67.1830  225.0161 H   0  0  0  0  0  0  0  0  0  0  0  0
  140.0615   67.1121  227.2537 H   0  0  0  0  0  0  0  0  0  0  0  0
  141.5692   70.7403  229.0494 H   0  0  0  0  0  0  0  0  0  0  0  0
  140.8541   72.0030  227.0199 H   0  0  0  0  0  0  0  0  0  0  0  0
  1  2  2  0
  2  3  1  0
  3  4  1  0
  4  5  1  0
  5  6  2  0
  5  7  1  0
  7  8  1  0
  8  9  1  0
  9 10  1  0
 10 11  1  0
 11 12  1  0
 12 13  1  0
 13 14  1  0
 14 15  1  0
 15 16  1  0
 16 17  1  0
 17 18  1  0
  2 19  1  0
 19 20  2  0
 20 21  1  0
 21 22  2  0
 22 23  1  0
 23 24  2  0
 24 25  1  0
 24 26  1  0
 26 27  2  0
 27 28  1  0
 28 29  2  0
 11  7  1  0
 18 14  1  0
 29 19  1  0
 28 22  1  0
  3 30  1  0
  4 31  1  0
  4 32  1  0
  8 33  1  0
  8 34  1  0
  9 35  1  0
  9 36  1  0
 10 37  1  0
 10 38  1  0
 11 39  1  6
 12 40  1  0
 12 41  1  0
 13 42  1  0
 14 43  1  0
 15 44  1  0
 15 45  1  0
 16 46  1  0
 16 47  1  0
 17 48  1  0
 17 49  1  0
 18 50  1  0
 18 51  1  0
 20 52  1  0
 21 53  1  0
 23 54  1  0
 26 55  1  0
 27 56  1  0
M  END
>  <smiles>  (41) 
O=C(NCC(=O)N1CCC[C@H]1CNC1CCCC1)c1ccc2cc(F)ccc2n1

>  <score_type>  (41) 
oracle

>  <origin>  (41) 
autodockgpu

>  <m_score__min__energy>  (41) 
-9.0800000000000001

>  <m_primary>  (41) 
energy

>  <rmsd>  (41) 
2.0105071386798756

>  <m_score__min__rmsd>  (41) 
2.0105071386798756

>  <meeko>  (41) 
{"free_energy": -8.0, "intermolecular_energy": -10.09, "internal_energy": -2.75, "cluster_size": 40, "cluster_id": 1, "rank_in_cluster": 29}

>  <energy>  (41) 
-7.63

>  <cluster_rmsd>  (41) 
0.0

>  <cluster>  (41) 
2

$$$$

     RDKit          3D

 56 59  0  0  0  0  0  0  0  0999 V2000
  138.1590   71.1890  221.4380 O   0  0  0  0  0  0  0  0  0  0  0  0
  138.8010   71.6910  222.4110 C   0  0  0  0  0  0  0  0  0  0  0  0
  139.1890   73.0590  222.3730 N   0  0  0  0  0  0  0  0  0  0  0  0
  138.8890   73.9380  221.2650 C   0  0  0  0  0  0  0  0  0  0  0  0
  139.9620   74.9550  221.1300 C   0  0  0  0  0  0  0  0  0  0  0  0
  140.8840   74.9290  221.9760 O   0  0  0  0  0  0  0  0  0  0  0  0
  139.8750   75.8840  220.0610 N   0  0  0  0  0  0  0  0  0  0  0  0
  139.0310   75.7720  218.8570 C   0  0  0  0  0  0  0  0  0  0  0  0
  138.7230   77.2130  218.5170 C   0  0  0  0  0  0  0  0  0  0  0  0
  139.3890   78.0330  219.6630 C   0  0  0  0  0  0  0  0  0  0  0  0
  140.5750   77.1550  219.8760 C   0  0  1  0  0  0  0  0  0  0  0  0
  141.5950   77.5060  220.8470 C   0  0  0  0  0  0  0  0  0  0  0  0
  141.3870   77.5360  222.2190 N   0  0  0  0  0  0  0  0  0  0  0  0
  141.3480   78.7100  222.9720 C   0  0  0  0  0  0  0  0  0  0  0  0
  142.6080   79.5810  222.7770 C   0  0  0  0  0  0  0  0  0  0  0  0
  142.2010   80.8750  223.4350 C   0  0  0  0  0  0  0  0  0  0  0  0
  140.6710   80.8600  223.4990 C   0  0  0  0  0  0  0  0  0  0  0  0
  140.3060   79.7200  222.5370 C   0  0  0  0  0  0  0  0  0  0  0  0
  139.1500   70.8600  223.5830 C   0  0  0  0  0  0  0  0  0  0  0  0
  138.8420   69.5110  223.5530 C   0  0  0  0  0  0  0  0  0  0  0  0
  139.1880   68.7790  224.6720 C   0  0  0  0  0  0  0  0  0  0  0  0
  139.8100   69.3680  225.7640 C   0  0  0  0  0  0  0  0  0  0  0  0
  140.1660   68.6600  226.8910 C   0  0  0  0  0  0  0  0  0  0  0  0
  140.7820   69.3010  227.9450 C   0  0  0  0  0  0  0  0  0  0  0  0
  141.1050   68.5500  229.0200 F   0  0  0  0  0  0  0  0  0  0  0  0
  141.0730   70.6560  227.9360 C   0  0  0  0  0  0  0  0  0  0  0  0
  140.7170   71.3650  226.8090 C   0  0  0  0  0  0  0  0  0  0  0  0
  140.0940   70.7290  225.7350 C   0  0  0  0  0  0  0  0  0  0  0  0
  139.7510   71.4300  224.6410 N   0  0  0  0  0  0  0  0  0  0  0  0
  139.7200   73.4040  223.2170 H   0  0  0  0  0  0  0  0  0  0  0  0
  138.8242   73.3493  220.3381 H   0  0  0  0  0  0  0  0  0  0  0  0
  137.9291   74.4427  221.4492 H   0  0  0  0  0  0  0  0  0  0  0  0
  139.5760   75.2809  218.0373 H   0  0  0  0  0  0  0  0  0  0  0  0
  138.1286   75.1638  219.0173 H   0  0  0  0  0  0  0  0  0  0  0  0
  139.1554   77.4839  217.5425 H   0  0  0  0  0  0  0  0  0  0  0  0
  137.6424   77.4034  218.4387 H   0  0  0  0  0  0  0  0  0  0  0  0
  139.6719   79.0463  219.3416 H   0  0  0  0  0  0  0  0  0  0  0  0
  138.7640   78.2268  220.5472 H   0  0  0  0  0  0  0  0  0  0  0  0
  141.2988   77.2034  219.0491 H   0  0  0  0  0  0  0  0  0  0  0  0
  142.4168   76.7927  220.6862 H   0  0  0  0  0  0  0  0  0  0  0  0
  141.7252   78.5772  220.6333 H   0  0  0  0  0  0  0  0  0  0  0  0
  141.8060   76.7130  222.7260 H   0  0  0  0  0  0  0  0  0  0  0  0
  141.1831   78.2987  223.9788 H   0  0  0  0  0  0  0  0  0  0  0  0
  143.4819   79.1367  223.2759 H   0  0  0  0  0  0  0  0  0  0  0  0
  142.9097   79.6945  221.7253 H   0  0  0  0  0  0  0  0  0  0  0  0
  142.6243   80.9369  224.4484 H   0  0  0  0  0  0  0  0  0  0  0  0
  142.5698   81.7444  222.8710 H   0  0  0  0  0  0  0  0  0  0  0  0
  140.3184   80.6470  224.5189 H   0  0  0  0  0  0  0  0  0  0  0  0
  140.2126   81.8230  223.2297 H   0  0  0  0  0  0  0  0  0  0  0  0
  139.2816   79.3536  222.6995 H   0  0  0  0  0  0  0  0  0  0  0  0
  140.3118   79.9793  221.4680 H   0  0  0  0  0  0  0  0  0  0  0  0
  138.3489   69.0474  222.6859 H   0  0  0  0  0  0  0  0  0  0  0  0
  138.9650   67.7022  224.6984 H   0  0  0  0  0  0  0  0  0  0  0  0
  139.9584   67.5814  226.9501 H   0  0  0  0  0  0  0  0  0  0  0  0
  141.5659   71.1437  228.7899 H   0  0  0  0  0  0  0  0  0  0  0  0
  140.9263   72.4436  226.7558 H   0  0  0  0  0  0  0  0  0  0  0  0
  1  2  2  0
  2  3  1  0
  3  4  1  0
  4  5  1  0
  5  6  2  0
  5  7  1  0
  7  8  1  0
  8  9  1  0
  9 10  1  0
 10 11  1  0
 11 12  1  0
 12 13  1  0
 13 14  1  0
 14 15  1  0
 15 16  1  0
 16 17  1  0
 17 18  1  0
  2 19  1  0
 19 20  2  0
 20 21  1  0
 21 22  2  0
 22 23  1  0
 23 24  2  0
 24 25  1  0
 24 26  1  0
 26 27  2  0
 27 28  1  0
 28 29  2  0
 11  7  1  0
 18 14  1  0
 29 19  1  0
 28 22  1  0
  3 30  1  0
  4 31  1  0
  4 32  1  0
  8 33  1  0
  8 34  1  0
  9 35  1  0
  9 36  1  0
 10 37  1  0
 10 38  1  0
 11 39  1  6
 12 40  1  0
 12 41  1  0
 13 42  1  0
 14 43  1  0
 15 44  1  0
 15 45  1  0
 16 46  1  0
 16 47  1  0
 17 48  1  0
 17 49  1  0
 18 50  1  0
 18 51  1  0
 20 52  1  0
 21 53  1  0
 23 54  1  0
 26 55  1  0
 27 56  1  0
M  END
>  <smiles>  (42) 
O=C(NCC(=O)N1CCC[C@H]1CNC1CCCC1)c1ccc2cc(F)ccc2n1

>  <score_type>  (42) 
oracle

>  <origin>  (42) 
autodockgpu

>  <m_score__min__energy>  (42) 
-9.0800000000000001

>  <m_primary>  (42) 
energy

>  <rmsd>  (42) 
1.8618365956275476

>  <m_score__min__rmsd>  (42) 
1.8618365956275476

>  <meeko>  (42) 
{"free_energy": -7.96, "intermolecular_energy": -10.05, "internal_energy": -2.76, "cluster_size": 40, "cluster_id": 1, "rank_in_cluster": 31}

>  <energy>  (42) 
-7.55

>  <cluster_rmsd>  (42) 
0.91

>  <cluster>  (42) 
2

$$$$

     RDKit          3D

 56 59  0  0  0  0  0  0  0  0999 V2000
  138.0670   70.7090  221.7340 O   0  0  0  0  0  0  0  0  0  0  0  0
  138.7390   71.2140  222.6850 C   0  0  0  0  0  0  0  0  0  0  0  0
  139.1300   72.5800  222.6290 N   0  0  0  0  0  0  0  0  0  0  0  0
  138.8000   73.4550  221.5250 C   0  0  0  0  0  0  0  0  0  0  0  0
  139.7420   74.6020  221.4990 C   0  0  0  0  0  0  0  0  0  0  0  0
  140.7000   74.5730  222.3040 O   0  0  0  0  0  0  0  0  0  0  0  0
  139.4990   75.6490  220.5730 N   0  0  0  0  0  0  0  0  0  0  0  0
  139.2770   75.5120  219.1220 C   0  0  0  0  0  0  0  0  0  0  0  0
  138.3560   76.6700  218.8040 C   0  0  0  0  0  0  0  0  0  0  0  0
  138.0720   77.3290  220.1870 C   0  0  0  0  0  0  0  0  0  0  0  0
  139.4090   77.0900  220.8030 C   0  0  1  0  0  0  0  0  0  0  0  0
  139.7100   77.5760  222.1370 C   0  0  0  0  0  0  0  0  0  0  0  0
  140.9730   77.5360  222.7140 N   0  0  0  0  0  0  0  0  0  0  0  0
  141.8260   78.6370  222.7920 C   0  0  0  0  0  0  0  0  0  0  0  0
  141.3450   79.8220  221.9280 C   0  0  0  0  0  0  0  0  0  0  0  0
  142.2370   80.9410  222.4030 C   0  0  0  0  0  0  0  0  0  0  0  0
  142.7750   80.5090  223.7700 C   0  0  0  0  0  0  0  0  0  0  0  0
  141.8540   79.3350  224.1380 C   0  0  0  0  0  0  0  0  0  0  0  0
  139.1190   70.3880  223.8500 C   0  0  0  0  0  0  0  0  0  0  0  0
  138.8450   69.0310  223.8170 C   0  0  0  0  0  0  0  0  0  0  0  0
  139.2200   68.3040  224.9310 C   0  0  0  0  0  0  0  0  0  0  0  0
  139.8360   68.9040  226.0200 C   0  0  0  0  0  0  0  0  0  0  0  0
  140.2200   68.2020  227.1400 C   0  0  0  0  0  0  0  0  0  0  0  0
  140.8280   68.8540  228.1920 C   0  0  0  0  0  0  0  0  0  0  0  0
  141.1800   68.1080  229.2610 F   0  0  0  0  0  0  0  0  0  0  0  0
  141.0840   70.2160  228.1860 C   0  0  0  0  0  0  0  0  0  0  0  0
  140.7010   70.9200  227.0660 C   0  0  0  0  0  0  0  0  0  0  0  0
  140.0840   70.2720  225.9940 C   0  0  0  0  0  0  0  0  0  0  0  0
  139.7150   70.9690  224.9060 N   0  0  0  0  0  0  0  0  0  0  0  0
  139.6870   72.9280  223.4550 H   0  0  0  0  0  0  0  0  0  0  0  0
  138.8767   72.8970  220.5802 H   0  0  0  0  0  0  0  0  0  0  0  0
  137.7730   73.8288  221.6499 H   0  0  0  0  0  0  0  0  0  0  0  0
  140.2236   75.5968  218.5681 H   0  0  0  0  0  0  0  0  0  0  0  0
  138.8567   74.5355  218.8395 H   0  0  0  0  0  0  0  0  0  0  0  0
  138.8473   77.3835  218.1262 H   0  0  0  0  0  0  0  0  0  0  0  0
  137.4353   76.3468  218.2961 H   0  0  0  0  0  0  0  0  0  0  0  0
  137.8383   78.4003  220.0990 H   0  0  0  0  0  0  0  0  0  0  0  0
  137.2059   76.9385  220.7414 H   0  0  0  0  0  0  0  0  0  0  0  0
  140.2029   77.7105  220.3617 H   0  0  0  0  0  0  0  0  0  0  0  0
  139.4141   78.6354  222.1416 H   0  0  0  0  0  0  0  0  0  0  0  0
  139.1765   76.8370  222.7529 H   0  0  0  0  0  0  0  0  0  0  0  0
  141.4680   76.6160  222.5760 H   0  0  0  0  0  0  0  0  0  0  0  0
  142.7814   78.1736  222.5049 H   0  0  0  0  0  0  0  0  0  0  0  0
  141.4926   79.6209  220.8566 H   0  0  0  0  0  0  0  0  0  0  0  0
  140.2712   80.0377  222.0306 H   0  0  0  0  0  0  0  0  0  0  0  0
  143.0671   81.0925  221.6973 H   0  0  0  0  0  0  0  0  0  0  0  0
  141.6861   81.8906  222.4714 H   0  0  0  0  0  0  0  0  0  0  0  0
  143.8235   80.1839  223.6993 H   0  0  0  0  0  0  0  0  0  0  0  0
  142.7723   81.3172  224.5162 H   0  0  0  0  0  0  0  0  0  0  0  0
  142.2871   78.6999  224.9248 H   0  0  0  0  0  0  0  0  0  0  0  0
  140.8730   79.6106  224.5525 H   0  0  0  0  0  0  0  0  0  0  0  0
  138.3562   68.5581  222.9525 H   0  0  0  0  0  0  0  0  0  0  0  0
  139.0251   67.2217  224.9550 H   0  0  0  0  0  0  0  0  0  0  0  0
  140.0414   67.1180  227.1960 H   0  0  0  0  0  0  0  0  0  0  0  0
  141.5714   70.7127  229.0379 H   0  0  0  0  0  0  0  0  0  0  0  0
  140.8830   72.0037  227.0154 H   0  0  0  0  0  0  0  0  0  0  0  0
  1  2  2  0
  2  3  1  0
  3  4  1  0
  4  5  1  0
  5  6  2  0
  5  7  1  0
  7  8  1  0
  8  9  1  0
  9 10  1  0
 10 11  1  0
 11 12  1  0
 12 13  1  0
 13 14  1  0
 14 15  1  0
 15 16  1  0
 16 17  1  0
 17 18  1  0
  2 19  1  0
 19 20  2  0
 20 21  1  0
 21 22  2  0
 22 23  1  0
 23 24  2  0
 24 25  1  0
 24 26  1  0
 26 27  2  0
 27 28  1  0
 28 29  2  0
 11  7  1  0
 18 14  1  0
 29 19  1  0
 28 22  1  0
  3 30  1  0
  4 31  1  0
  4 32  1  0
  8 33  1  0
  8 34  1  0
  9 35  1  0
  9 36  1  0
 10 37  1  0
 10 38  1  0
 11 39  1  6
 12 40  1  0
 12 41  1  0
 13 42  1  0
 14 43  1  0
 15 44  1  0
 15 45  1  0
 16 46  1  0
 16 47  1  0
 17 48  1  0
 17 49  1  0
 18 50  1  0
 18 51  1  0
 20 52  1  0
 21 53  1  0
 23 54  1  0
 26 55  1  0
 27 56  1  0
M  END
>  <smiles>  (43) 
O=C(NCC(=O)N1CCC[C@H]1CNC1CCCC1)c1ccc2cc(F)ccc2n1

>  <score_type>  (43) 
oracle

>  <origin>  (43) 
autodockgpu

>  <m_score__min__energy>  (43) 
-9.0800000000000001

>  <m_primary>  (43) 
energy

>  <rmsd>  (43) 
1.9608035328957896

>  <m_score__min__rmsd>  (43) 
1.9608035328957896

>  <meeko>  (43) 
{"free_energy": -8.02, "intermolecular_energy": -10.11, "internal_energy": -2.76, "cluster_size": 40, "cluster_id": 1, "rank_in_cluster": 27}

>  <energy>  (43) 
-7.54

>  <cluster_rmsd>  (43) 
0.48

>  <cluster>  (43) 
2

$$$$

     RDKit          3D

 56 59  0  0  0  0  0  0  0  0999 V2000
  137.8650   71.9340  222.7510 O   0  0  0  0  0  0  0  0  0  0  0  0
  139.0540   71.5650  222.9940 C   0  0  0  0  0  0  0  0  0  0  0  0
  140.1250   72.0570  222.1980 N   0  0  0  0  0  0  0  0  0  0  0  0
  139.9390   72.9780  221.0990 C   0  0  0  0  0  0  0  0  0  0  0  0
  140.0700   74.3740  221.5900 C   0  0  0  0  0  0  0  0  0  0  0  0
  141.2050   74.7410  221.9690 O   0  0  0  0  0  0  0  0  0  0  0  0
  138.9130   75.1940  221.5980 N   0  0  0  0  0  0  0  0  0  0  0  0
  137.5090   74.7430  221.5750 C   0  0  0  0  0  0  0  0  0  0  0  0
  136.7870   75.8260  222.3460 C   0  0  0  0  0  0  0  0  0  0  0  0
  137.9200   76.7850  222.8200 C   0  0  0  0  0  0  0  0  0  0  0  0
  138.8080   76.6520  221.6290 C   0  0  1  0  0  0  0  0  0  0  0  0
  140.0390   77.4140  221.5300 C   0  0  0  0  0  0  0  0  0  0  0  0
  141.0000   77.4750  222.5300 N   0  0  0  0  0  0  0  0  0  0  0  0
  141.3680   78.6510  223.1830 C   0  0  0  0  0  0  0  0  0  0  0  0
  142.5680   79.3530  222.5110 C   0  0  0  0  0  0  0  0  0  0  0  0
  142.5740   80.6950  223.1990 C   0  0  0  0  0  0  0  0  0  0  0  0
  141.1760   80.8750  223.7980 C   0  0  0  0  0  0  0  0  0  0  0  0
  140.3630   79.7820  223.0880 C   0  0  0  0  0  0  0  0  0  0  0  0
  139.3310   70.6230  224.0990 C   0  0  0  0  0  0  0  0  0  0  0  0
  138.9120   69.3100  223.9710 C   0  0  0  0  0  0  0  0  0  0  0  0
  139.1940   68.4710  225.0320 C   0  0  0  0  0  0  0  0  0  0  0  0
  139.8620   68.9240  226.1620 C   0  0  0  0  0  0  0  0  0  0  0  0
  140.1560   68.1090  227.2310 C   0  0  0  0  0  0  0  0  0  0  0  0
  140.8220   68.6160  228.3270 C   0  0  0  0  0  0  0  0  0  0  0  0
  141.0800   67.7640  229.3420 F   0  0  0  0  0  0  0  0  0  0  0  0
  141.2250   69.9400  228.4160 C   0  0  0  0  0  0  0  0  0  0  0  0
  140.9310   70.7560  227.3470 C   0  0  0  0  0  0  0  0  0  0  0  0
  140.2580   70.2550  226.2320 C   0  0  0  0  0  0  0  0  0  0  0  0
  139.9760   71.0610  225.1940 N   0  0  0  0  0  0  0  0  0  0  0  0
  141.0850   71.7040  222.4600 H   0  0  0  0  0  0  0  0  0  0  0  0
  140.7013   72.7878  220.3291 H   0  0  0  0  0  0  0  0  0  0  0  0
  138.9368   72.8350  220.6686 H   0  0  0  0  0  0  0  0  0  0  0  0
  137.1330   74.6753  220.5435 H   0  0  0  0  0  0  0  0  0  0  0  0
  137.3702   73.7404  222.0057 H   0  0  0  0  0  0  0  0  0  0  0  0
  136.0742   76.3563  221.6974 H   0  0  0  0  0  0  0  0  0  0  0  0
  136.2001   75.4234  223.1847 H   0  0  0  0  0  0  0  0  0  0  0  0
  137.5627   77.8157  222.9616 H   0  0  0  0  0  0  0  0  0  0  0  0
  138.3763   76.5527  223.7936 H   0  0  0  0  0  0  0  0  0  0  0  0
  138.3968   77.1368  220.7313 H   0  0  0  0  0  0  0  0  0  0  0  0
  140.5585   77.0259  220.6415 H   0  0  0  0  0  0  0  0  0  0  0  0
  139.6491   78.4423  221.5537 H   0  0  0  0  0  0  0  0  0  0  0  0
  141.7920   76.7930  222.3930 H   0  0  0  0  0  0  0  0  0  0  0  0
  141.5262   78.2733  224.2039 H   0  0  0  0  0  0  0  0  0  0  0  0
  143.5046   78.8060  222.6944 H   0  0  0  0  0  0  0  0  0  0  0  0
  142.4870   79.4172  221.4159 H   0  0  0  0  0  0  0  0  0  0  0  0
  143.3344   80.7126  223.9937 H   0  0  0  0  0  0  0  0  0  0  0  0
  142.8155   81.5050  222.4950 H   0  0  0  0  0  0  0  0  0  0  0  0
  141.1873   80.7174  224.8866 H   0  0  0  0  0  0  0  0  0  0  0  0
  140.7665   81.8861  223.6563 H   0  0  0  0  0  0  0  0  0  0  0  0
  139.4282   79.5506  223.6195 H   0  0  0  0  0  0  0  0  0  0  0  0
  140.0183   80.0286  222.0729 H   0  0  0  0  0  0  0  0  0  0  0  0
  138.3837   68.9541  223.0742 H   0  0  0  0  0  0  0  0  0  0  0  0
  138.8815   67.4176  224.9802 H   0  0  0  0  0  0  0  0  0  0  0  0
  139.8590   67.0501  227.2113 H   0  0  0  0  0  0  0  0  0  0  0  0
  141.7557   70.3210  229.3010 H   0  0  0  0  0  0  0  0  0  0  0  0
  141.2298   71.8143  227.3720 H   0  0  0  0  0  0  0  0  0  0  0  0
  1  2  2  0
  2  3  1  0
  3  4  1  0
  4  5  1  0
  5  6  2  0
  5  7  1  0
  7  8  1  0
  8  9  1  0
  9 10  1  0
 10 11  1  0
 11 12  1  0
 12 13  1  0
 13 14  1  0
 14 15  1  0
 15 16  1  0
 16 17  1  0
 17 18  1  0
  2 19  1  0
 19 20  2  0
 20 21  1  0
 21 22  2  0
 22 23  1  0
 23 24  2  0
 24 25  1  0
 24 26  1  0
 26 27  2  0
 27 28  1  0
 28 29  2  0
 11  7  1  0
 18 14  1  0
 29 19  1  0
 28 22  1  0
  3 30  1  0
  4 31  1  0
  4 32  1  0
  8 33  1  0
  8 34  1  0
  9 35  1  0
  9 36  1  0
 10 37  1  0
 10 38  1  0
 11 39  1  6
 12 40  1  0
 12 41  1  0
 13 42  1  0
 14 43  1  0
 15 44  1  0
 15 45  1  0
 16 46  1  0
 16 47  1  0
 17 48  1  0
 17 49  1  0
 18 50  1  0
 18 51  1  0
 20 52  1  0
 21 53  1  0
 23 54  1  0
 26 55  1  0
 27 56  1  0
M  END
>  <smiles>  (44) 
O=C(NCC(=O)N1CCC[C@H]1CNC1CCCC1)c1ccc2cc(F)ccc2n1

>  <score_type>  (44) 
oracle

>  <origin>  (44) 
autodockgpu

>  <m_score__min__energy>  (44) 
-9.0800000000000001

>  <m_primary>  (44) 
energy

>  <rmsd>  (44) 
2.8844681497345257

>  <m_score__min__rmsd>  (44) 
2.8844681497345257

>  <meeko>  (44) 
{"free_energy": -8.46, "intermolecular_energy": -10.55, "internal_energy": -2.13, "cluster_size": 40, "cluster_id": 1, "rank_in_cluster": 12}

>  <energy>  (44) 
-7.48

>  <cluster_rmsd>  (44) 
0.54

>  <cluster>  (44) 
2

$$$$

     RDKit          3D

 56 59  0  0  0  0  0  0  0  0999 V2000
  139.4090   74.5170  222.2100 O   0  0  0  0  0  0  0  0  0  0  0  0
  140.5800   74.8600  221.8610 C   0  0  0  0  0  0  0  0  0  0  0  0
  141.0020   76.2080  222.0240 N   0  0  0  0  0  0  0  0  0  0  0  0
  140.1570   77.2410  222.5800 C   0  0  0  0  0  0  0  0  0  0  0  0
  140.9880   78.4090  222.9700 C   0  0  0  0  0  0  0  0  0  0  0  0
  141.8460   78.2270  223.8620 O   0  0  0  0  0  0  0  0  0  0  0  0
  140.7580   79.6450  222.3130 N   0  0  0  0  0  0  0  0  0  0  0  0
  140.2740   80.8970  222.9260 C   0  0  0  0  0  0  0  0  0  0  0  0
  140.9280   81.9690  222.0820 C   0  0  0  0  0  0  0  0  0  0  0  0
  141.8230   81.1800  221.0790 C   0  0  0  0  0  0  0  0  0  0  0  0
  140.9340   79.9950  220.9040 C   0  0  1  0  0  0  0  0  0  0  0  0
  141.2890   78.9280  219.9880 C   0  0  0  0  0  0  0  0  0  0  0  0
  142.2830   77.9890  220.2330 N   0  0  0  0  0  0  0  0  0  0  0  0
  142.4470   76.8210  219.4890 C   0  0  0  0  0  0  0  0  0  0  0  0
  141.1260   76.3250  218.8640 C   0  0  0  0  0  0  0  0  0  0  0  0
  141.6090   75.2660  217.9050 C   0  0  0  0  0  0  0  0  0  0  0  0
  143.0920   75.5540  217.6620 C   0  0  0  0  0  0  0  0  0  0  0  0
  143.2540   76.9770  218.2150 C   0  0  0  0  0  0  0  0  0  0  0  0
  141.5070   73.8640  221.2830 C   0  0  0  0  0  0  0  0  0  0  0  0
  141.0350   72.5870  221.0320 C   0  0  0  0  0  0  0  0  0  0  0  0
  141.9400   71.6940  220.4920 C   0  0  0  0  0  0  0  0  0  0  0  0
  143.2500   72.0610  220.2170 C   0  0  0  0  0  0  0  0  0  0  0  0
  144.1710   71.1920  219.6780 C   0  0  0  0  0  0  0  0  0  0  0  0
  145.4590   71.6140  219.4270 C   0  0  0  0  0  0  0  0  0  0  0  0
  146.3130   70.7120  218.8980 F   0  0  0  0  0  0  0  0  0  0  0  0
  145.8930   72.9040  219.6930 C   0  0  0  0  0  0  0  0  0  0  0  0
  144.9730   73.7750  220.2320 C   0  0  0  0  0  0  0  0  0  0  0  0
  143.6660   73.3600  220.4910 C   0  0  0  0  0  0  0  0  0  0  0  0
  142.7760   74.2190  221.0170 N   0  0  0  0  0  0  0  0  0  0  0  0
  141.9880   76.4170  221.7100 H   0  0  0  0  0  0  0  0  0  0  0  0
  139.4173   77.5529  221.8280 H   0  0  0  0  0  0  0  0  0  0  0  0
  139.6379   76.8497  223.4673 H   0  0  0  0  0  0  0  0  0  0  0  0
  139.1775   80.9654  222.8707 H   0  0  0  0  0  0  0  0  0  0  0  0
  140.5210   80.9782  223.9948 H   0  0  0  0  0  0  0  0  0  0  0  0
  140.1699   82.5592  221.5463 H   0  0  0  0  0  0  0  0  0  0  0  0
  141.5053   82.6844  222.6861 H   0  0  0  0  0  0  0  0  0  0  0  0
  141.9786   81.7279  220.1379 H   0  0  0  0  0  0  0  0  0  0  0  0
  142.8514   80.9702  221.4082 H   0  0  0  0  0  0  0  0  0  0  0  0
  140.0210   80.2239  220.3347 H   0  0  0  0  0  0  0  0  0  0  0  0
  140.3660   78.3504  219.8320 H   0  0  0  0  0  0  0  0  0  0  0  0
  141.7432   79.5018  219.1667 H   0  0  0  0  0  0  0  0  0  0  0  0
  142.5200   77.8860  221.2550 H   0  0  0  0  0  0  0  0  0  0  0  0
  142.9131   76.1671  220.2408 H   0  0  0  0  0  0  0  0  0  0  0  0
  140.4586   75.8982  219.6272 H   0  0  0  0  0  0  0  0  0  0  0  0
  140.5366   77.1207  218.3849 H   0  0  0  0  0  0  0  0  0  0  0  0
  141.4820   74.2661  218.3456 H   0  0  0  0  0  0  0  0  0  0  0  0
  141.0377   75.2859  216.9652 H   0  0  0  0  0  0  0  0  0  0  0  0
  143.7289   74.8417  218.2069 H   0  0  0  0  0  0  0  0  0  0  0  0
  143.3881   75.4592  216.6068 H   0  0  0  0  0  0  0  0  0  0  0  0
  144.3062   77.2242  218.4194 H   0  0  0  0  0  0  0  0  0  0  0  0
  142.9330   77.7877  217.5444 H   0  0  0  0  0  0  0  0  0  0  0  0
  139.9961   72.2992  221.2506 H   0  0  0  0  0  0  0  0  0  0  0  0
  141.6143   70.6661  220.2745 H   0  0  0  0  0  0  0  0  0  0  0  0
  143.8783   70.1572  219.4467 H   0  0  0  0  0  0  0  0  0  0  0  0
  146.9262   73.2174  219.4827 H   0  0  0  0  0  0  0  0  0  0  0  0
  145.2713   74.8088  220.4609 H   0  0  0  0  0  0  0  0  0  0  0  0
  1  2  2  0
  2  3  1  0
  3  4  1  0
  4  5  1  0
  5  6  2  0
  5  7  1  0
  7  8  1  0
  8  9  1  0
  9 10  1  0
 10 11  1  0
 11 12  1  0
 12 13  1  0
 13 14  1  0
 14 15  1  0
 15 16  1  0
 16 17  1  0
 17 18  1  0
  2 19  1  0
 19 20  2  0
 20 21  1  0
 21 22  2  0
 22 23  1  0
 23 24  2  0
 24 25  1  0
 24 26  1  0
 26 27  2  0
 27 28  1  0
 28 29  2  0
 11  7  1  0
 18 14  1  0
 29 19  1  0
 28 22  1  0
  3 30  1  0
  4 31  1  0
  4 32  1  0
  8 33  1  0
  8 34  1  0
  9 35  1  0
  9 36  1  0
 10 37  1  0
 10 38  1  0
 11 39  1  6
 12 40  1  0
 12 41  1  0
 13 42  1  0
 14 43  1  0
 15 44  1  0
 15 45  1  0
 16 46  1  0
 16 47  1  0
 17 48  1  0
 17 49  1  0
 18 50  1  0
 18 51  1  0
 20 52  1  0
 21 53  1  0
 23 54  1  0
 26 55  1  0
 27 56  1  0
M  END
>  <smiles>  (45) 
O=C(NCC(=O)N1CCC[C@H]1CNC1CCCC1)c1ccc2cc(F)ccc2n1

>  <score_type>  (45) 
oracle

>  <origin>  (45) 
autodockgpu

>  <m_score__min__energy>  (45) 
-9.0800000000000001

>  <m_primary>  (45) 
energy

>  <rmsd>  (45) 
6.37602023296079

>  <m_score__min__rmsd>  (45) 
6.37602023296079

>  <meeko>  (45) 
{"free_energy": -6.37, "intermolecular_energy": -8.46, "internal_energy": -3.67, "cluster_size": 1, "cluster_id": 4, "rank_in_cluster": 1}

>  <energy>  (45) 
-7.43

>  <cluster_rmsd>  (45) 
0.54

>  <cluster>  (45) 
2

$$$$

     RDKit          3D

 56 59  0  0  0  0  0  0  0  0999 V2000
  140.3930   71.2340  221.0260 O   0  0  0  0  0  0  0  0  0  0  0  0
  140.0730   71.8000  222.1160 C   0  0  0  0  0  0  0  0  0  0  0  0
  139.8520   73.2040  222.1470 N   0  0  0  0  0  0  0  0  0  0  0  0
  139.9720   74.0520  220.9820 C   0  0  0  0  0  0  0  0  0  0  0  0
  140.8820   75.1870  221.2830 C   0  0  0  0  0  0  0  0  0  0  0  0
  140.6450   75.8500  222.3170 O   0  0  0  0  0  0  0  0  0  0  0  0
  141.9510   75.4450  220.3870 N   0  0  0  0  0  0  0  0  0  0  0  0
  142.8520   74.4510  219.7750 C   0  0  0  0  0  0  0  0  0  0  0  0
  143.2030   75.0790  218.4430 C   0  0  0  0  0  0  0  0  0  0  0  0
  142.3620   76.3900  218.4000 C   0  0  0  0  0  0  0  0  0  0  0  0
  142.4270   76.7200  219.8520 C   0  0  1  0  0  0  0  0  0  0  0  0
  141.8180   77.9320  220.3670 C   0  0  0  0  0  0  0  0  0  0  0  0
  141.7250   78.2450  221.7170 N   0  0  0  0  0  0  0  0  0  0  0  0
  142.1770   79.4430  222.2690 C   0  0  0  0  0  0  0  0  0  0  0  0
  141.2440   80.6320  221.9520 C   0  0  0  0  0  0  0  0  0  0  0  0
  141.7710   81.7010  222.8750 C   0  0  0  0  0  0  0  0  0  0  0  0
  142.5690   80.9750  223.9610 C   0  0  0  0  0  0  0  0  0  0  0  0
  142.1270   79.5140  223.7830 C   0  0  0  0  0  0  0  0  0  0  0  0
  139.9300   71.0050  223.3540 C   0  0  0  0  0  0  0  0  0  0  0  0
  139.3350   69.7580  223.2750 C   0  0  0  0  0  0  0  0  0  0  0  0
  139.2260   69.0550  224.4600 C   0  0  0  0  0  0  0  0  0  0  0  0
  139.6880   69.5760  225.6610 C   0  0  0  0  0  0  0  0  0  0  0  0
  139.5920   68.8960  226.8550 C   0  0  0  0  0  0  0  0  0  0  0  0
  140.0690   69.4650  228.0170 C   0  0  0  0  0  0  0  0  0  0  0  0
  139.9450   68.7470  229.1530 F   0  0  0  0  0  0  0  0  0  0  0  0
  140.6590   70.7190  228.0530 C   0  0  0  0  0  0  0  0  0  0  0  0
  140.7550   71.4000  226.8590 C   0  0  0  0  0  0  0  0  0  0  0  0
  140.2770   70.8350  225.6760 C   0  0  0  0  0  0  0  0  0  0  0  0
  140.3760   71.5090  224.5180 N   0  0  0  0  0  0  0  0  0  0  0  0
  139.5900   73.6020  223.0900 H   0  0  0  0  0  0  0  0  0  0  0  0
  140.3804   73.4676  220.1444 H   0  0  0  0  0  0  0  0  0  0  0  0
  138.9799   74.4416  220.7101 H   0  0  0  0  0  0  0  0  0  0  0  0
  143.7515   74.3018  220.3904 H   0  0  0  0  0  0  0  0  0  0  0  0
  142.3941   73.4557  219.6762 H   0  0  0  0  0  0  0  0  0  0  0  0
  144.2784   75.3043  218.3900 H   0  0  0  0  0  0  0  0  0  0  0  0
  142.9857   74.4131  217.5949 H   0  0  0  0  0  0  0  0  0  0  0  0
  142.8288   77.1651  217.7744 H   0  0  0  0  0  0  0  0  0  0  0  0
  141.3544   76.3053  217.9669 H   0  0  0  0  0  0  0  0  0  0  0  0
  143.4270   77.0470  220.1732 H   0  0  0  0  0  0  0  0  0  0  0  0
  142.3731   78.7626  219.9067 H   0  0  0  0  0  0  0  0  0  0  0  0
  140.7606   77.7531  220.1222 H   0  0  0  0  0  0  0  0  0  0  0  0
  141.8360   77.4100  222.3500 H   0  0  0  0  0  0  0  0  0  0  0  0
  143.1928   79.4878  221.8493 H   0  0  0  0  0  0  0  0  0  0  0  0
  141.3291   80.9366  220.8984 H   0  0  0  0  0  0  0  0  0  0  0  0
  140.1768   80.4084  222.0971 H   0  0  0  0  0  0  0  0  0  0  0  0
  142.4225   82.3940  222.3225 H   0  0  0  0  0  0  0  0  0  0  0  0
  140.9524   82.2939  223.3090 H   0  0  0  0  0  0  0  0  0  0  0  0
  143.6514   81.0848  223.7986 H   0  0  0  0  0  0  0  0  0  0  0  0
  142.3870   81.3666  224.9727 H   0  0  0  0  0  0  0  0  0  0  0  0
  142.8282   78.8092  224.2538 H   0  0  0  0  0  0  0  0  0  0  0  0
  141.1625   79.2490  224.2407 H   0  0  0  0  0  0  0  0  0  0  0  0
  138.9690   69.3489  222.3217 H   0  0  0  0  0  0  0  0  0  0  0  0
  138.7616   68.0579  224.4513 H   0  0  0  0  0  0  0  0  0  0  0  0
  139.1336   67.8964  226.8817 H   0  0  0  0  0  0  0  0  0  0  0  0
  141.0337   71.1510  228.9927 H   0  0  0  0  0  0  0  0  0  0  0  0
  141.2134   72.3997  226.8381 H   0  0  0  0  0  0  0  0  0  0  0  0
  1  2  2  0
  2  3  1  0
  3  4  1  0
  4  5  1  0
  5  6  2  0
  5  7  1  0
  7  8  1  0
  8  9  1  0
  9 10  1  0
 10 11  1  0
 11 12  1  0
 12 13  1  0
 13 14  1  0
 14 15  1  0
 15 16  1  0
 16 17  1  0
 17 18  1  0
  2 19  1  0
 19 20  2  0
 20 21  1  0
 21 22  2  0
 22 23  1  0
 23 24  2  0
 24 25  1  0
 24 26  1  0
 26 27  2  0
 27 28  1  0
 28 29  2  0
 11  7  1  0
 18 14  1  0
 29 19  1  0
 28 22  1  0
  3 30  1  0
  4 31  1  0
  4 32  1  0
  8 33  1  0
  8 34  1  0
  9 35  1  0
  9 36  1  0
 10 37  1  0
 10 38  1  0
 11 39  1  1
 12 40  1  0
 12 41  1  0
 13 42  1  0
 14 43  1  0
 15 44  1  0
 15 45  1  0
 16 46  1  0
 16 47  1  0
 17 48  1  0
 17 49  1  0
 18 50  1  0
 18 51  1  0
 20 52  1  0
 21 53  1  0
 23 54  1  0
 26 55  1  0
 27 56  1  0
M  END
>  <smiles>  (46) 
O=C(NCC(=O)N1CCC[C@H]1CNC1CCCC1)c1ccc2cc(F)ccc2n1

>  <score_type>  (46) 
oracle

>  <origin>  (46) 
autodockgpu

>  <m_score__min__energy>  (46) 
-9.0800000000000001

>  <m_primary>  (46) 
energy

>  <rmsd>  (46) 
2.189270650282359

>  <m_score__min__rmsd>  (46) 
2.189270650282359

>  <meeko>  (46) 
{"free_energy": -8.9, "intermolecular_energy": -10.99, "internal_energy": -2.24, "cluster_size": 40, "cluster_id": 1, "rank_in_cluster": 4}

>  <energy>  (46) 
-7.27

>  <cluster_rmsd>  (46) 
0.0

>  <cluster>  (46) 
3

$$$$

     RDKit          3D

 56 59  0  0  0  0  0  0  0  0999 V2000
  140.8170   71.9960  221.2590 O   0  0  0  0  0  0  0  0  0  0  0  0
  140.0660   72.3340  222.2240 C   0  0  0  0  0  0  0  0  0  0  0  0
  139.3320   73.5500  222.1590 N   0  0  0  0  0  0  0  0  0  0  0  0
  139.3900   74.4510  221.0310 C   0  0  0  0  0  0  0  0  0  0  0  0
  140.5540   75.3620  221.1780 C   0  0  0  0  0  0  0  0  0  0  0  0
  141.4530   75.0150  221.9750 O   0  0  0  0  0  0  0  0  0  0  0  0
  140.5720   76.5570  220.4130 N   0  0  0  0  0  0  0  0  0  0  0  0
  139.5460   77.6170  220.4050 C   0  0  0  0  0  0  0  0  0  0  0  0
  140.3470   78.8680  220.1160 C   0  0  0  0  0  0  0  0  0  0  0  0
  141.8260   78.3780  220.0670 C   0  0  0  0  0  0  0  0  0  0  0  0
  141.5750   77.0380  219.4650 C   0  0  1  0  0  0  0  0  0  0  0  0
  142.6760   76.1480  219.1460 C   0  0  0  0  0  0  0  0  0  0  0  0
  143.4760   75.5270  220.0960 N   0  0  0  0  0  0  0  0  0  0  0  0
  144.1590   74.3310  219.8740 C   0  0  0  0  0  0  0  0  0  0  0  0
  145.4160   74.1930  220.7590 C   0  0  0  0  0  0  0  0  0  0  0  0
  145.7880   72.7460  220.5540 C   0  0  0  0  0  0  0  0  0  0  0  0
  144.5300   72.0510  220.0270 C   0  0  0  0  0  0  0  0  0  0  0  0
  143.4290   73.0800  220.3220 C   0  0  0  0  0  0  0  0  0  0  0  0
  139.9520   71.4680  223.4180 C   0  0  0  0  0  0  0  0  0  0  0  0
  139.3000   70.2540  223.2950 C   0  0  0  0  0  0  0  0  0  0  0  0
  139.2200   69.4830  224.4390 C   0  0  0  0  0  0  0  0  0  0  0  0
  139.7660   69.9070  225.6420 C   0  0  0  0  0  0  0  0  0  0  0  0
  139.7020   69.1580  226.7960 C   0  0  0  0  0  0  0  0  0  0  0  0
  140.2620   69.6320  227.9630 C   0  0  0  0  0  0  0  0  0  0  0  0
  140.1650   68.8490  229.0580 F   0  0  0  0  0  0  0  0  0  0  0  0
  140.9080   70.8560  228.0430 C   0  0  0  0  0  0  0  0  0  0  0  0
  140.9730   71.6070  226.8910 C   0  0  0  0  0  0  0  0  0  0  0  0
  140.4100   71.1380  225.7030 C   0  0  0  0  0  0  0  0  0  0  0  0
  140.4800   71.8790  224.5840 N   0  0  0  0  0  0  0  0  0  0  0  0
  138.7300   73.7630  223.0000 H   0  0  0  0  0  0  0  0  0  0  0  0
  139.4956   73.8694  220.1034 H   0  0  0  0  0  0  0  0  0  0  0  0
  138.4650   75.0450  220.9910 H   0  0  0  0  0  0  0  0  0  0  0  0
  138.7981   77.4366  219.6188 H   0  0  0  0  0  0  0  0  0  0  0  0
  138.9773   77.6753  221.3448 H   0  0  0  0  0  0  0  0  0  0  0  0
  140.0500   79.3064  219.1519 H   0  0  0  0  0  0  0  0  0  0  0  0
  140.1894   79.6511  220.8722 H   0  0  0  0  0  0  0  0  0  0  0  0
  142.4551   79.0127  219.4256 H   0  0  0  0  0  0  0  0  0  0  0  0
  142.3712   78.3858  221.0224 H   0  0  0  0  0  0  0  0  0  0  0  0
  141.2698   77.0928  218.4096 H   0  0  0  0  0  0  0  0  0  0  0  0
  142.2378   75.3349  218.5486 H   0  0  0  0  0  0  0  0  0  0  0  0
  143.3921   76.8546  218.7011 H   0  0  0  0  0  0  0  0  0  0  0  0
  143.1260   75.6470  221.0830 H   0  0  0  0  0  0  0  0  0  0  0  0
  144.3245   74.3914  218.7882 H   0  0  0  0  0  0  0  0  0  0  0  0
  146.2190   74.8638  220.4197 H   0  0  0  0  0  0  0  0  0  0  0  0
  145.2480   74.4623  221.8122 H   0  0  0  0  0  0  0  0  0  0  0  0
  146.6046   72.6625  219.8218 H   0  0  0  0  0  0  0  0  0  0  0  0
  146.1372   72.2859  221.4901 H   0  0  0  0  0  0  0  0  0  0  0  0
  144.6088   71.8524  218.9479 H   0  0  0  0  0  0  0  0  0  0  0  0
  144.3465   71.0699  220.4893 H   0  0  0  0  0  0  0  0  0  0  0  0
  142.5210   72.8960  219.7290 H   0  0  0  0  0  0  0  0  0  0  0  0
  143.0534   73.0923  221.3558 H   0  0  0  0  0  0  0  0  0  0  0  0
  138.8691   69.9209  222.3393 H   0  0  0  0  0  0  0  0  0  0  0  0
  138.7108   68.5090  224.3948 H   0  0  0  0  0  0  0  0  0  0  0  0
  139.2023   68.1781  226.7864 H   0  0  0  0  0  0  0  0  0  0  0  0
  141.3494   71.2116  228.9857 H   0  0  0  0  0  0  0  0  0  0  0  0
  141.4736   72.5864  226.9069 H   0  0  0  0  0  0  0  0  0  0  0  0
  1  2  2  0
  2  3  1  0
  3  4  1  0
  4  5  1  0
  5  6  2  0
  5  7  1  0
  7  8  1  0
  8  9  1  0
  9 10  1  0
 10 11  1  0
 11 12  1  0
 12 13  1  0
 13 14  1  0
 14 15  1  0
 15 16  1  0
 16 17  1  0
 17 18  1  0
  2 19  1  0
 19 20  2  0
 20 21  1  0
 21 22  2  0
 22 23  1  0
 23 24  2  0
 24 25  1  0
 24 26  1  0
 26 27  2  0
 27 28  1  0
 28 29  2  0
 11  7  1  0
 18 14  1  0
 29 19  1  0
 28 22  1  0
  3 30  1  0
  4 31  1  0
  4 32  1  0
  8 33  1  0
  8 34  1  0
  9 35  1  0
  9 36  1  0
 10 37  1  0
 10 38  1  0
 11 39  1  6
 12 40  1  0
 12 41  1  0
 13 42  1  0
 14 43  1  0
 15 44  1  0
 15 45  1  0
 16 46  1  0
 16 47  1  0
 17 48  1  0
 17 49  1  0
 18 50  1  0
 18 51  1  0
 20 52  1  0
 21 53  1  0
 23 54  1  0
 26 55  1  0
 27 56  1  0
M  END
>  <smiles>  (47) 
O=C(NCC(=O)N1CCC[C@H]1CNC1CCCC1)c1ccc2cc(F)ccc2n1

>  <score_type>  (47) 
oracle

>  <origin>  (47) 
autodockgpu

>  <m_score__min__energy>  (47) 
-9.0800000000000001

>  <m_primary>  (47) 
energy

>  <rmsd>  (47) 
4.38551017045289

>  <m_score__min__rmsd>  (47) 
4.38551017045289

>  <meeko>  (47) 
{"free_energy": -8.25, "intermolecular_energy": -10.34, "internal_energy": -2.38, "cluster_size": 40, "cluster_id": 1, "rank_in_cluster": 18}

>  <energy>  (47) 
-6.37

>  <cluster_rmsd>  (47) 
0.0

>  <cluster>  (47) 
4

$$$$

     RDKit          3D

 56 59  0  0  0  0  0  0  0  0999 V2000
  140.1420   70.8810  220.8460 O   0  0  0  0  0  0  0  0  0  0  0  0
  140.3580   71.5090  221.9270 C   0  0  0  0  0  0  0  0  0  0  0  0
  140.8960   72.8240  221.8880 N   0  0  0  0  0  0  0  0  0  0  0  0
  141.2220   73.5120  220.6580 C   0  0  0  0  0  0  0  0  0  0  0  0
  141.5320   74.9350  220.9490 C   0  0  0  0  0  0  0  0  0  0  0  0
  141.0850   75.4100  222.0160 O   0  0  0  0  0  0  0  0  0  0  0  0
  142.3080   75.6580  220.0070 N   0  0  0  0  0  0  0  0  0  0  0  0
  143.3580   75.1170  219.1230 C   0  0  0  0  0  0  0  0  0  0  0  0
  143.2760   76.0090  217.9040 C   0  0  0  0  0  0  0  0  0  0  0  0
  142.0770   76.9590  218.2000 C   0  0  0  0  0  0  0  0  0  0  0  0
  142.2740   77.0810  219.6730 C   0  0  1  0  0  0  0  0  0  0  0  0
  141.4150   77.9360  220.4710 C   0  0  0  0  0  0  0  0  0  0  0  0
  141.6010   78.1830  221.8240 N   0  0  0  0  0  0  0  0  0  0  0  0
  142.1030   79.3820  222.3320 C   0  0  0  0  0  0  0  0  0  0  0  0
  141.1860   80.5860  222.0280 C   0  0  0  0  0  0  0  0  0  0  0  0
  141.7750   81.6600  222.9060 C   0  0  0  0  0  0  0  0  0  0  0  0
  142.5990   80.9370  223.9740 C   0  0  0  0  0  0  0  0  0  0  0  0
  142.1160   79.4840  223.8450 C   0  0  0  0  0  0  0  0  0  0  0  0
  140.0530   70.8770  223.2280 C   0  0  0  0  0  0  0  0  0  0  0  0
  139.2800   69.7290  223.2420 C   0  0  0  0  0  0  0  0  0  0  0  0
  139.0240   69.1780  224.4830 C   0  0  0  0  0  0  0  0  0  0  0  0
  139.5170   69.7470  225.6490 C   0  0  0  0  0  0  0  0  0  0  0  0
  139.2780   69.2180  226.8970 C   0  0  0  0  0  0  0  0  0  0  0  0
  139.7940   69.8290  228.0200 C   0  0  0  0  0  0  0  0  0  0  0  0
  139.5230   69.2590  229.2140 F   0  0  0  0  0  0  0  0  0  0  0  0
  140.5650   70.9800  227.9630 C   0  0  0  0  0  0  0  0  0  0  0  0
  140.8050   71.5110  226.7150 C   0  0  0  0  0  0  0  0  0  0  0  0
  140.2880   70.9020  225.5710 C   0  0  0  0  0  0  0  0  0  0  0  0
  140.5290   71.4290  224.3580 N   0  0  0  0  0  0  0  0  0  0  0  0
  141.0480   73.2810  222.8270 H   0  0  0  0  0  0  0  0  0  0  0  0
  142.0970   73.0347  220.1926 H   0  0  0  0  0  0  0  0  0  0  0  0
  140.3641   73.4585  219.9716 H   0  0  0  0  0  0  0  0  0  0  0  0
  144.3480   75.1872  219.5974 H   0  0  0  0  0  0  0  0  0  0  0  0
  143.2180   74.0515  218.8884 H   0  0  0  0  0  0  0  0  0  0  0  0
  144.2059   76.5831  217.7783 H   0  0  0  0  0  0  0  0  0  0  0  0
  143.1389   75.4374  216.9742 H   0  0  0  0  0  0  0  0  0  0  0  0
  142.1733   77.9259  217.6844 H   0  0  0  0  0  0  0  0  0  0  0  0
  141.0879   76.6079  217.8708 H   0  0  0  0  0  0  0  0  0  0  0  0
  143.1629   77.6719  219.9387 H   0  0  0  0  0  0  0  0  0  0  0  0
  141.4399   78.9214  219.9827 H   0  0  0  0  0  0  0  0  0  0  0  0
  140.4918   77.3384  220.4944 H   0  0  0  0  0  0  0  0  0  0  0  0
  141.8880   77.3300  222.3710 H   0  0  0  0  0  0  0  0  0  0  0  0
  143.1015   79.3946  221.8706 H   0  0  0  0  0  0  0  0  0  0  0  0
  141.2350   80.8671  220.9657 H   0  0  0  0  0  0  0  0  0  0  0  0
  140.1207   80.3912  222.2207 H   0  0  0  0  0  0  0  0  0  0  0  0
  142.4197   82.3256  222.3133 H   0  0  0  0  0  0  0  0  0  0  0  0
  140.9889   82.2814  223.3599 H   0  0  0  0  0  0  0  0  0  0  0  0
  143.6762   81.0171  223.7659 H   0  0  0  0  0  0  0  0  0  0  0  0
  142.4674   81.3533  224.9836 H   0  0  0  0  0  0  0  0  0  0  0  0
  142.8190   78.7719  224.3019 H   0  0  0  0  0  0  0  0  0  0  0  0
  141.1650   79.2515  224.3466 H   0  0  0  0  0  0  0  0  0  0  0  0
  138.8909   69.2800  222.3162 H   0  0  0  0  0  0  0  0  0  0  0  0
  138.4139   68.2651  224.5485 H   0  0  0  0  0  0  0  0  0  0  0  0
  138.6733   68.3048  226.9987 H   0  0  0  0  0  0  0  0  0  0  0  0
  140.9670   71.4481  228.8737 H   0  0  0  0  0  0  0  0  0  0  0  0
  141.4104   72.4244  226.6192 H   0  0  0  0  0  0  0  0  0  0  0  0
  1  2  2  0
  2  3  1  0
  3  4  1  0
  4  5  1  0
  5  6  2  0
  5  7  1  0
  7  8  1  0
  8  9  1  0
  9 10  1  0
 10 11  1  0
 11 12  1  0
 12 13  1  0
 13 14  1  0
 14 15  1  0
 15 16  1  0
 16 17  1  0
 17 18  1  0
  2 19  1  0
 19 20  2  0
 20 21  1  0
 21 22  2  0
 22 23  1  0
 23 24  2  0
 24 25  1  0
 24 26  1  0
 26 27  2  0
 27 28  1  0
 28 29  2  0
 11  7  1  0
 18 14  1  0
 29 19  1  0
 28 22  1  0
  3 30  1  0
  4 31  1  0
  4 32  1  0
  8 33  1  0
  8 34  1  0
  9 35  1  0
  9 36  1  0
 10 37  1  0
 10 38  1  0
 11 39  1  6
 12 40  1  0
 12 41  1  0
 13 42  1  0
 14 43  1  0
 15 44  1  0
 15 45  1  0
 16 46  1  0
 16 47  1  0
 17 48  1  0
 17 49  1  0
 18 50  1  0
 18 51  1  0
 20 52  1  0
 21 53  1  0
 23 54  1  0
 26 55  1  0
 27 56  1  0
M  END
>  <smiles>  (48) 
O=C(NCC(=O)N1CCC[C@H]1CNC1CCCC1)c1ccc2cc(F)ccc2n1

>  <score_type>  (48) 
oracle

>  <origin>  (48) 
autodockgpu

>  <m_score__min__energy>  (48) 
-9.0800000000000001

>  <m_primary>  (48) 
energy

>  <rmsd>  (48) 
2.3767166547408687

>  <m_score__min__rmsd>  (48) 
2.3767166547408687

>  <meeko>  (48) 
{"free_energy": -8.22, "intermolecular_energy": -10.31, "internal_energy": -2.64, "cluster_size": 40, "cluster_id": 1, "rank_in_cluster": 19}

>  <energy>  (48) 
-6.35

>  <cluster_rmsd>  (48) 
0.0

>  <cluster>  (48) 
5

$$$$

     RDKit          3D

 56 59  0  0  0  0  0  0  0  0999 V2000
  137.0130   76.5950  221.6370 O   0  0  0  0  0  0  0  0  0  0  0  0
  138.2000   76.5730  222.0850 C   0  0  0  0  0  0  0  0  0  0  0  0
  138.9120   75.3430  222.1430 N   0  0  0  0  0  0  0  0  0  0  0  0
  138.3530   74.0820  221.7120 C   0  0  0  0  0  0  0  0  0  0  0  0
  139.3070   72.9840  222.0120 C   0  0  0  0  0  0  0  0  0  0  0  0
  140.4610   73.3120  222.3680 O   0  0  0  0  0  0  0  0  0  0  0  0
  138.8540   71.6460  221.8780 N   0  0  0  0  0  0  0  0  0  0  0  0
  138.3320   71.0070  220.6550 C   0  0  0  0  0  0  0  0  0  0  0  0
  138.7390   69.5600  220.8230 C   0  0  0  0  0  0  0  0  0  0  0  0
  139.5600   69.5390  222.1470 C   0  0  0  0  0  0  0  0  0  0  0  0
  138.7880   70.5830  222.8800 C   0  0  1  0  0  0  0  0  0  0  0  0
  139.1210   70.9310  224.2490 C   0  0  0  0  0  0  0  0  0  0  0  0
  140.3770   71.3550  224.6610 N   0  0  0  0  0  0  0  0  0  0  0  0
  140.9440   71.0210  225.8910 C   0  0  0  0  0  0  0  0  0  0  0  0
  140.9780   72.2130  226.8720 C   0  0  0  0  0  0  0  0  0  0  0  0
  141.3430   71.5410  228.1710 C   0  0  0  0  0  0  0  0  0  0  0  0
  141.0100   70.0580  227.9950 C   0  0  0  0  0  0  0  0  0  0  0  0
  140.1320   70.0580  226.7340 C   0  0  0  0  0  0  0  0  0  0  0  0
  138.8450   77.8190  222.5490 C   0  0  0  0  0  0  0  0  0  0  0  0
  138.0410   78.8830  222.9190 C   0  0  0  0  0  0  0  0  0  0  0  0
  138.6930   80.0250  223.3440 C   0  0  0  0  0  0  0  0  0  0  0  0
  140.0780   80.0960  223.3960 C   0  0  0  0  0  0  0  0  0  0  0  0
  140.7510   81.2210  223.8170 C   0  0  0  0  0  0  0  0  0  0  0  0
  142.1300   81.2330  223.8470 C   0  0  0  0  0  0  0  0  0  0  0  0
  142.7290   82.3670  224.2690 F   0  0  0  0  0  0  0  0  0  0  0  0
  142.9000   80.1440  223.4670 C   0  0  0  0  0  0  0  0  0  0  0  0
  142.2270   79.0190  223.0460 C   0  0  0  0  0  0  0  0  0  0  0  0
  140.8320   78.9930  223.0110 C   0  0  0  0  0  0  0  0  0  0  0  0
  140.1860   77.8900  222.5990 N   0  0  0  0  0  0  0  0  0  0  0  0
  139.8930   75.4040  222.5280 H   0  0  0  0  0  0  0  0  0  0  0  0
  137.4073   73.9003  222.2436 H   0  0  0  0  0  0  0  0  0  0  0  0
  138.1664   74.1171  220.6285 H   0  0  0  0  0  0  0  0  0  0  0  0
  137.2380   71.1050  220.5945 H   0  0  0  0  0  0  0  0  0  0  0  0
  138.7199   71.4606  219.7310 H   0  0  0  0  0  0  0  0  0  0  0  0
  137.8528   68.9134  220.9043 H   0  0  0  0  0  0  0  0  0  0  0  0
  139.3170   69.1850  219.9655 H   0  0  0  0  0  0  0  0  0  0  0  0
  139.5192   68.5606  222.6481 H   0  0  0  0  0  0  0  0  0  0  0  0
  140.6415   69.7147  222.0496 H   0  0  0  0  0  0  0  0  0  0  0  0
  137.7838   70.2452  223.1759 H   0  0  0  0  0  0  0  0  0  0  0  0
  138.4280   71.7385  224.5278 H   0  0  0  0  0  0  0  0  0  0  0  0
  139.0651   69.9451  224.7336 H   0  0  0  0  0  0  0  0  0  0  0  0
  140.6280   72.3200  224.3190 H   0  0  0  0  0  0  0  0  0  0  0  0
  141.9162   70.6237  225.5638 H   0  0  0  0  0  0  0  0  0  0  0  0
  141.7379   72.9516  226.5770 H   0  0  0  0  0  0  0  0  0  0  0  0
  140.0354   72.7783  226.9152 H   0  0  0  0  0  0  0  0  0  0  0  0
  142.4158   71.6686  228.3777 H   0  0  0  0  0  0  0  0  0  0  0  0
  140.7907   71.9775  229.0162 H   0  0  0  0  0  0  0  0  0  0  0  0
  141.9219   69.4617  227.8438 H   0  0  0  0  0  0  0  0  0  0  0  0
  140.5159   69.6139  228.8717 H   0  0  0  0  0  0  0  0  0  0  0  0
  140.0663   69.0603  226.2753 H   0  0  0  0  0  0  0  0  0  0  0  0
  139.0776   70.3314  226.8875 H   0  0  0  0  0  0  0  0  0  0  0  0
  136.9434   78.8230  222.8771 H   0  0  0  0  0  0  0  0  0  0  0  0
  138.0994   80.8995  223.6486 H   0  0  0  0  0  0  0  0  0  0  0  0
  140.1876   82.1124  224.1302 H   0  0  0  0  0  0  0  0  0  0  0  0
  143.9990   80.1775  223.5004 H   0  0  0  0  0  0  0  0  0  0  0  0
  142.7953   78.1305  222.7337 H   0  0  0  0  0  0  0  0  0  0  0  0
  1  2  2  0
  2  3  1  0
  3  4  1  0
  4  5  1  0
  5  6  2  0
  5  7  1  0
  7  8  1  0
  8  9  1  0
  9 10  1  0
 10 11  1  0
 11 12  1  0
 12 13  1  0
 13 14  1  0
 14 15  1  0
 15 16  1  0
 16 17  1  0
 17 18  1  0
  2 19  1  0
 19 20  2  0
 20 21  1  0
 21 22  2  0
 22 23  1  0
 23 24  2  0
 24 25  1  0
 24 26  1  0
 26 27  2  0
 27 28  1  0
 28 29  2  0
 11  7  1  0
 18 14  1  0
 29 19  1  0
 28 22  1  0
  3 30  1  0
  4 31  1  0
  4 32  1  0
  8 33  1  0
  8 34  1  0
  9 35  1  0
  9 36  1  0
 10 37  1  0
 10 38  1  0
 11 39  1  1
 12 40  1  0
 12 41  1  0
 13 42  1  0
 14 43  1  0
 15 44  1  0
 15 45  1  0
 16 46  1  0
 16 47  1  0
 17 48  1  0
 17 49  1  0
 18 50  1  0
 18 51  1  0
 20 52  1  0
 21 53  1  0
 23 54  1  0
 26 55  1  0
 27 56  1  0
M  END
>  <smiles>  (49) 
O=C(NCC(=O)N1CCC[C@H]1CNC1CCCC1)c1ccc2cc(F)ccc2n1

>  <score_type>  (49) 
oracle

>  <origin>  (49) 
autodockgpu

>  <m_score__min__energy>  (49) 
-9.0800000000000001

>  <m_primary>  (49) 
energy

>  <rmsd>  (49) 
9.23271398362116

>  <m_score__min__rmsd>  (49) 
9.23271398362116

>  <meeko>  (49) 
{"free_energy": -7.54, "intermolecular_energy": -9.63, "internal_energy": -2.78, "cluster_size": 5, "cluster_id": 2, "rank_in_cluster": 3}

>  <energy>  (49) 
-6.31

>  <cluster_rmsd>  (49) 
0.11

>  <cluster>  (49) 
5

$$$$

     RDKit          3D

 56 59  0  0  0  0  0  0  0  0999 V2000
  141.7670   78.4100  217.1630 O   0  0  0  0  0  0  0  0  0  0  0  0
  142.2410   77.9520  218.2470 C   0  0  0  0  0  0  0  0  0  0  0  0
  142.1520   78.7200  219.4400 N   0  0  0  0  0  0  0  0  0  0  0  0
  141.5380   80.0280  219.4960 C   0  0  0  0  0  0  0  0  0  0  0  0
  140.9630   80.2520  220.8480 C   0  0  0  0  0  0  0  0  0  0  0  0
  139.7970   80.7030  220.9050 O   0  0  0  0  0  0  0  0  0  0  0  0
  141.7640   79.9440  221.9770 N   0  0  0  0  0  0  0  0  0  0  0  0
  142.7820   80.8080  222.6030 C   0  0  0  0  0  0  0  0  0  0  0  0
  142.7310   80.4020  224.0590 C   0  0  0  0  0  0  0  0  0  0  0  0
  141.5780   79.3550  224.1290 C   0  0  0  0  0  0  0  0  0  0  0  0
  141.7920   78.7300  222.7920 C   0  0  1  0  0  0  0  0  0  0  0  0
  140.9780   77.6110  222.3560 C   0  0  0  0  0  0  0  0  0  0  0  0
  141.3250   76.7510  221.3220 N   0  0  0  0  0  0  0  0  0  0  0  0
  140.5920   75.6150  220.9780 C   0  0  0  0  0  0  0  0  0  0  0  0
  141.3720   74.3070  221.2320 C   0  0  0  0  0  0  0  0  0  0  0  0
  140.2960   73.2630  221.0720 C   0  0  0  0  0  0  0  0  0  0  0  0
  138.9610   73.9930  221.2430 C   0  0  0  0  0  0  0  0  0  0  0  0
  139.3880   75.3350  221.8560 C   0  0  0  0  0  0  0  0  0  0  0  0
  142.8860   76.6220  218.2750 C   0  0  0  0  0  0  0  0  0  0  0  0
  142.8640   75.8510  217.1260 C   0  0  0  0  0  0  0  0  0  0  0  0
  143.4810   74.6170  217.2040 C   0  0  0  0  0  0  0  0  0  0  0  0
  144.0890   74.1790  218.3730 C   0  0  0  0  0  0  0  0  0  0  0  0
  144.7110   72.9560  218.4770 C   0  0  0  0  0  0  0  0  0  0  0  0
  145.2980   72.5750  219.6650 C   0  0  0  0  0  0  0  0  0  0  0  0
  145.8910   71.3630  219.7000 F   0  0  0  0  0  0  0  0  0  0  0  0
  145.2980   73.3780  220.7950 C   0  0  0  0  0  0  0  0  0  0  0  0
  144.6760   74.6030  220.6920 C   0  0  0  0  0  0  0  0  0  0  0  0
  144.0790   75.0000  219.4950 C   0  0  0  0  0  0  0  0  0  0  0  0
  143.4750   76.1970  219.4060 N   0  0  0  0  0  0  0  0  0  0  0  0
  142.5680   78.2730  220.3010 H   0  0  0  0  0  0  0  0  0  0  0  0
  142.2963   80.7974  219.2887 H   0  0  0  0  0  0  0  0  0  0  0  0
  140.7372   80.0879  218.7442 H   0  0  0  0  0  0  0  0  0  0  0  0
  143.7775   80.6184  222.1752 H   0  0  0  0  0  0  0  0  0  0  0  0
  142.5930   81.8804  222.4471 H   0  0  0  0  0  0  0  0  0  0  0  0
  143.6849   79.9521  224.3714 H   0  0  0  0  0  0  0  0  0  0  0  0
  142.5608   81.2587  224.7276 H   0  0  0  0  0  0  0  0  0  0  0  0
  141.7144   78.6379  224.9519 H   0  0  0  0  0  0  0  0  0  0  0  0
  140.5714   79.7542  224.3222 H   0  0  0  0  0  0  0  0  0  0  0  0
  142.7090   78.1245  222.7429 H   0  0  0  0  0  0  0  0  0  0  0  0
  140.8494   76.9732  223.2430 H   0  0  0  0  0  0  0  0  0  0  0  0
  140.1223   78.1383  221.9092 H   0  0  0  0  0  0  0  0  0  0  0  0
  142.3650   76.6480  221.1930 H   0  0  0  0  0  0  0  0  0  0  0  0
  140.3420   75.8449  219.9317 H   0  0  0  0  0  0  0  0  0  0  0  0
  142.1744   74.1703  220.4921 H   0  0  0  0  0  0  0  0  0  0  0  0
  141.8784   74.2755  222.2080 H   0  0  0  0  0  0  0  0  0  0  0  0
  140.3548   72.8052  220.0735 H   0  0  0  0  0  0  0  0  0  0  0  0
  140.4083   72.4562  221.8112 H   0  0  0  0  0  0  0  0  0  0  0  0
  138.4621   74.1402  220.2738 H   0  0  0  0  0  0  0  0  0  0  0  0
  138.2369   73.4411  221.8603 H   0  0  0  0  0  0  0  0  0  0  0  0
  138.6098   76.1051  221.7490 H   0  0  0  0  0  0  0  0  0  0  0  0
  139.5807   75.3239  222.9389 H   0  0  0  0  0  0  0  0  0  0  0  0
  142.3818   76.2012  216.2014 H   0  0  0  0  0  0  0  0  0  0  0  0
  143.4907   73.9654  216.3178 H   0  0  0  0  0  0  0  0  0  0  0  0
  144.7400   72.2801  217.6096 H   0  0  0  0  0  0  0  0  0  0  0  0
  145.7733   73.0518  221.7318 H   0  0  0  0  0  0  0  0  0  0  0  0
  144.6498   75.2750  221.5625 H   0  0  0  0  0  0  0  0  0  0  0  0
  1  2  2  0
  2  3  1  0
  3  4  1  0
  4  5  1  0
  5  6  2  0
  5  7  1  0
  7  8  1  0
  8  9  1  0
  9 10  1  0
 10 11  1  0
 11 12  1  0
 12 13  1  0
 13 14  1  0
 14 15  1  0
 15 16  1  0
 16 17  1  0
 17 18  1  0
  2 19  1  0
 19 20  2  0
 20 21  1  0
 21 22  2  0
 22 23  1  0
 23 24  2  0
 24 25  1  0
 24 26  1  0
 26 27  2  0
 27 28  1  0
 28 29  2  0
 11  7  1  0
 18 14  1  0
 29 19  1  0
 28 22  1  0
  3 30  1  0
  4 31  1  0
  4 32  1  0
  8 33  1  0
  8 34  1  0
  9 35  1  0
  9 36  1  0
 10 37  1  0
 10 38  1  0
 11 39  1  1
 12 40  1  0
 12 41  1  0
 13 42  1  0
 14 43  1  0
 15 44  1  0
 15 45  1  0
 16 46  1  0
 16 47  1  0
 17 48  1  0
 17 49  1  0
 18 50  1  0
 18 51  1  0
 20 52  1  0
 21 53  1  0
 23 54  1  0
 26 55  1  0
 27 56  1  0
M  END
>  <smiles>  (50) 
O=C(NCC(=O)N1CCC[C@H]1CNC1CCCC1)c1ccc2cc(F)ccc2n1

>  <score_type>  (50) 
oracle

>  <origin>  (50) 
autodockgpu

>  <m_score__min__energy>  (50) 
-9.0800000000000001

>  <m_primary>  (50) 
energy

>  <rmsd>  (50) 
7.806287195354962

>  <m_score__min__rmsd>  (50) 
7.806287195354962

>  <meeko>  (50) 
{"free_energy": -6.31, "intermolecular_energy": -8.4, "internal_energy": -4.05, "cluster_size": 3, "cluster_id": 5, "rank_in_cluster": 2}

>  <energy>  (50) 
-6.21

>  <cluster_rmsd>  (50) 
0.38

>  <cluster>  (50) 
5

$$$$
