
     RDKit          3D

 63 65  0  0  0  0  0  0  0  0999 V2000
  141.0630   82.6720  221.6320 C   0  0  0  0  0  0  0  0  0  0  0  0
  141.1920   81.6360  222.7420 C   0  0  0  0  0  0  0  0  0  0  0  0
  142.0170   80.4550  222.2960 C   0  0  0  0  0  0  0  0  0  0  0  0
  143.2350   80.5170  222.6020 O   0  0  0  0  0  0  0  0  0  0  0  0
  141.4260   79.3770  221.5880 N   0  0  0  0  0  0  0  0  0  0  0  0
  141.8240   79.2500  220.1970 C   0  0  0  0  0  0  0  0  0  0  0  0
  142.1840   78.0220  219.7290 C   0  0  0  0  0  0  0  0  0  0  0  0
  142.5650   77.9020  218.3960 C   0  0  0  0  0  0  0  0  0  0  0  0
  142.5670   79.0420  217.5800 C   0  0  0  0  0  0  0  0  0  0  0  0
  142.1920   80.2780  218.0970 C   0  0  0  0  0  0  0  0  0  0  0  0
  141.8150   80.4020  219.4140 C   0  0  0  0  0  0  0  0  0  0  0  0
  140.5020   78.4310  222.1160 C   0  0  0  0  0  0  0  0  0  0  0  0
  141.1120   77.2520  222.7680 C   0  0  0  0  0  0  0  0  0  0  0  0
  140.7950   75.9680  222.0420 C   0  0  0  0  0  0  0  0  0  0  0  0
  139.3730   75.7760  222.0090 N   0  0  0  0  0  0  0  0  0  0  0  0
  138.6660   74.5660  221.9790 C   0  0  0  0  0  0  0  0  0  0  0  0
  137.3700   74.6400  221.9880 O   0  0  0  0  0  0  0  0  0  0  0  0
  139.1860   73.1960  221.9340 C   0  0  1  0  0  0  0  0  0  0  0  0
  138.2550   72.2400  222.4350 N   0  0  0  0  0  0  0  0  0  0  0  0
  139.6260   72.8590  220.5030 C   0  0  0  0  0  0  0  0  0  0  0  0
  141.0780   72.7350  220.4120 C   0  0  0  0  0  0  0  0  0  0  0  0
  141.7390   73.5800  219.5110 C   0  0  0  0  0  0  0  0  0  0  0  0
  143.1070   73.5300  219.3470 C   0  0  0  0  0  0  0  0  0  0  0  0
  143.8800   72.6410  220.0700 C   0  0  0  0  0  0  0  0  0  0  0  0
  145.6010   72.6270  219.8210 S   0  0  0  0  0  0  0  0  0  0  0  0
  146.3740   73.3910  221.2270 C   0  0  0  0  0  0  0  0  0  0  0  0
  146.0370   71.1990  219.6350 O   0  0  0  0  0  0  0  0  0  0  0  0
  145.9470   73.4160  218.5990 O   0  0  0  0  0  0  0  0  0  0  0  0
  143.2320   71.8030  220.9630 C   0  0  0  0  0  0  0  0  0  0  0  0
  141.8660   71.8610  221.1190 C   0  0  0  0  0  0  0  0  0  0  0  0
  138.5600   77.0130  221.9680 C   0  0  0  0  0  0  0  0  0  0  0  0
  139.4410   77.9640  221.1280 C   0  0  0  0  0  0  0  0  0  0  0  0
  140.9386   83.6709  222.0754 H   0  0  0  0  0  0  0  0  0  0  0  0
  141.9699   82.6574  221.0096 H   0  0  0  0  0  0  0  0  0  0  0  0
  140.1874   82.4355  221.0096 H   0  0  0  0  0  0  0  0  0  0  0  0
  141.6755   82.1024  223.6130 H   0  0  0  0  0  0  0  0  0  0  0  0
  140.1848   81.2778  223.0014 H   0  0  0  0  0  0  0  0  0  0  0  0
  142.1737   77.1437  220.3912 H   0  0  0  0  0  0  0  0  0  0  0  0
  142.8610   76.9245  217.9875 H   0  0  0  0  0  0  0  0  0  0  0  0
  142.8668   78.9587  216.5249 H   0  0  0  0  0  0  0  0  0  0  0  0
  142.1970   81.1648  217.4462 H   0  0  0  0  0  0  0  0  0  0  0  0
  141.5175   81.3745  219.8332 H   0  0  0  0  0  0  0  0  0  0  0  0
  140.0084   79.0256  222.8989 H   0  0  0  0  0  0  0  0  0  0  0  0
  142.2036   77.3855  222.7903 H   0  0  0  0  0  0  0  0  0  0  0  0
  140.6956   77.1760  223.7833 H   0  0  0  0  0  0  0  0  0  0  0  0
  141.1816   76.0231  221.0137 H   0  0  0  0  0  0  0  0  0  0  0  0
  141.2670   75.1240  222.5663 H   0  0  0  0  0  0  0  0  0  0  0  0
  140.0594   73.1425  222.6006 H   0  0  0  0  0  0  0  0  0  0  0  0
  137.7230   71.7190  221.7020 H   0  0  0  0  0  0  0  0  0  0  0  0
  137.6060   72.6870  223.0850 H   0  0  0  0  0  0  0  0  0  0  0  0
  139.1650   71.9071  220.2008 H   0  0  0  0  0  0  0  0  0  0  0  0
  139.3039   73.6744  219.8386 H   0  0  0  0  0  0  0  0  0  0  0  0
  141.1530   74.2999  218.9208 H   0  0  0  0  0  0  0  0  0  0  0  0
  143.5911   74.2085  218.6292 H   0  0  0  0  0  0  0  0  0  0  0  0
  145.9499   72.9718  222.1514 H   0  0  0  0  0  0  0  0  0  0  0  0
  147.4566   73.1982  221.2000 H   0  0  0  0  0  0  0  0  0  0  0  0
  146.1939   74.4758  221.2000 H   0  0  0  0  0  0  0  0  0  0  0  0
  143.8164   71.0827  221.5543 H   0  0  0  0  0  0  0  0  0  0  0  0
  141.3868   71.1805  221.8382 H   0  0  0  0  0  0  0  0  0  0  0  0
  137.5900   76.8353  221.4806 H   0  0  0  0  0  0  0  0  0  0  0  0
  138.3133   77.4090  222.9642 H   0  0  0  0  0  0  0  0  0  0  0  0
  139.8991   77.4309  220.2818 H   0  0  0  0  0  0  0  0  0  0  0  0
  138.8727   78.7951  220.6849 H   0  0  0  0  0  0  0  0  0  0  0  0
  1  2  1  0
  2  3  1  0
  3  4  2  0
  3  5  1  0
  5  6  1  0
  6  7  2  0
  7  8  1  0
  8  9  2  0
  9 10  1  0
 10 11  2  0
  5 12  1  0
 12 13  1  0
 13 14  1  0
 14 15  1  0
 15 16  1  0
 16 17  2  0
 16 18  1  0
 18 19  1  0
 18 20  1  0
 20 21  1  0
 21 22  2  0
 22 23  1  0
 23 24  2  0
 24 25  1  0
 25 26  1  0
 25 27  2  0
 25 28  2  0
 24 29  1  0
 29 30  2  0
 15 31  1  0
 31 32  1  0
 11  6  1  0
 32 12  1  0
 30 21  1  0
  1 33  1  0
  1 34  1  0
  1 35  1  0
  2 36  1  0
  2 37  1  0
  7 38  1  0
  8 39  1  0
  9 40  1  0
 10 41  1  0
 11 42  1  0
 12 43  1  0
 13 44  1  0
 13 45  1  0
 14 46  1  0
 14 47  1  0
 18 48  1  1
 19 49  1  0
 19 50  1  0
 20 51  1  0
 20 52  1  0
 22 53  1  0
 23 54  1  0
 26 55  1  0
 26 56  1  0
 26 57  1  0
 29 58  1  0
 30 59  1  0
 31 60  1  0
 31 61  1  0
 32 62  1  0
 32 63  1  0
M  END
>  <smiles>  (1) 
CCC(=O)N(c1ccccc1)C1CCN(C(=O)[C@@H](N)Cc2ccc(S(C)(=O)=O)cc2)CC1

>  <score_type>  (1) 
oracle

>  <origin>  (1) 
autodockgpu

>  <m_score__min__energy>  (1) 
-8.8800000000000008

>  <m_primary>  (1) 
energy

>  <rmsd>  (1) 
4.527483524079294

>  <m_score__min__rmsd>  (1) 
4.527483524079294

>  <meeko>  (1) 
{"free_energy": -6.79, "intermolecular_energy": -9.47, "internal_energy": -2.75, "cluster_size": 19, "cluster_id": 5, "rank_in_cluster": 15}

>  <energy>  (1) 
-8.88

>  <cluster_rmsd>  (1) 
0.0

>  <cluster>  (1) 
1

$$$$

     RDKit          3D

 63 65  0  0  0  0  0  0  0  0999 V2000
  141.1090   79.0670  218.1730 C   0  0  0  0  0  0  0  0  0  0  0  0
  142.4050   78.4460  218.6790 C   0  0  0  0  0  0  0  0  0  0  0  0
  142.1740   77.6460  219.9370 C   0  0  0  0  0  0  0  0  0  0  0  0
  142.9140   76.6370  220.0630 O   0  0  0  0  0  0  0  0  0  0  0  0
  141.1890   78.0360  220.8800 N   0  0  0  0  0  0  0  0  0  0  0  0
  141.5580   79.1380  221.7510 C   0  0  0  0  0  0  0  0  0  0  0  0
  141.9840   78.8590  223.0150 C   0  0  0  0  0  0  0  0  0  0  0  0
  142.3380   79.9160  223.8480 C   0  0  0  0  0  0  0  0  0  0  0  0
  142.2440   81.2280  223.3640 C   0  0  0  0  0  0  0  0  0  0  0  0
  141.8040   81.4700  222.0670 C   0  0  0  0  0  0  0  0  0  0  0  0
  141.4530   80.4290  221.2400 C   0  0  0  0  0  0  0  0  0  0  0  0
  139.8990   77.4530  221.0370 C   0  0  0  0  0  0  0  0  0  0  0  0
  139.6640   76.7890  222.3380 C   0  0  0  0  0  0  0  0  0  0  0  0
  139.4450   75.3030  222.1900 C   0  0  0  0  0  0  0  0  0  0  0  0
  138.3020   75.0690  221.3540 N   0  0  0  0  0  0  0  0  0  0  0  0
  137.4150   73.9850  221.3900 C   0  0  0  0  0  0  0  0  0  0  0  0
  136.4240   74.0050  220.5510 O   0  0  0  0  0  0  0  0  0  0  0  0
  137.4410   72.8000  222.2530 C   0  0  1  0  0  0  0  0  0  0  0  0
  136.3170   71.9480  222.0490 N   0  0  0  0  0  0  0  0  0  0  0  0
  138.7640   72.0470  222.0540 C   0  0  0  0  0  0  0  0  0  0  0  0
  139.0700   71.2020  223.2050 C   0  0  0  0  0  0  0  0  0  0  0  0
  138.3710   69.9940  223.3160 C   0  0  0  0  0  0  0  0  0  0  0  0
  138.5830   69.1330  224.3730 C   0  0  0  0  0  0  0  0  0  0  0  0
  139.4980   69.4340  225.3650 C   0  0  0  0  0  0  0  0  0  0  0  0
  139.7230   68.3080  226.6710 S   0  0  0  0  0  0  0  0  0  0  0  0
  141.4320   67.8210  226.6990 C   0  0  0  0  0  0  0  0  0  0  0  0
  139.2990   68.9800  227.9480 O   0  0  0  0  0  0  0  0  0  0  0  0
  138.8840   67.0910  226.4470 O   0  0  0  0  0  0  0  0  0  0  0  0
  140.1920   70.6290  225.2590 C   0  0  0  0  0  0  0  0  0  0  0  0
  139.9730   71.4790  224.2000 C   0  0  0  0  0  0  0  0  0  0  0  0
  138.0560   76.0850  220.3060 C   0  0  0  0  0  0  0  0  0  0  0  0
  139.4880   76.5130  219.9130 C   0  0  0  0  0  0  0  0  0  0  0  0
  140.4865   79.3653  219.0295 H   0  0  0  0  0  0  0  0  0  0  0  0
  141.3405   79.9520  217.5621 H   0  0  0  0  0  0  0  0  0  0  0  0
  140.5643   78.3321  217.5621 H   0  0  0  0  0  0  0  0  0  0  0  0
  142.8119   77.7824  217.9018 H   0  0  0  0  0  0  0  0  0  0  0  0
  143.1127   79.2565  218.9076 H   0  0  0  0  0  0  0  0  0  0  0  0
  142.0467   77.8196  223.3696 H   0  0  0  0  0  0  0  0  0  0  0  0
  142.6872   79.7243  224.8733 H   0  0  0  0  0  0  0  0  0  0  0  0
  142.5199   82.0715  224.0139 H   0  0  0  0  0  0  0  0  0  0  0  0
  141.7361   82.5044  221.6991 H   0  0  0  0  0  0  0  0  0  0  0  0
  141.1024   80.6094  220.2131 H   0  0  0  0  0  0  0  0  0  0  0  0
  139.2535   78.3427  220.9956 H   0  0  0  0  0  0  0  0  0  0  0  0
  140.5391   76.9553  222.9834 H   0  0  0  0  0  0  0  0  0  0  0  0
  138.7533   77.2218  222.7776 H   0  0  0  0  0  0  0  0  0  0  0  0
  140.3342   74.8451  221.7321 H   0  0  0  0  0  0  0  0  0  0  0  0
  139.2722   74.8573  223.1807 H   0  0  0  0  0  0  0  0  0  0  0  0
  137.3740   73.1395  223.2971 H   0  0  0  0  0  0  0  0  0  0  0  0
  135.9260   71.9620  221.0800 H   0  0  0  0  0  0  0  0  0  0  0  0
  135.5830   72.1650  222.7250 H   0  0  0  0  0  0  0  0  0  0  0  0
  138.6860   71.4159  221.1564 H   0  0  0  0  0  0  0  0  0  0  0  0
  139.5711   72.7857  221.9403 H   0  0  0  0  0  0  0  0  0  0  0  0
  137.6361   69.7253  222.5429 H   0  0  0  0  0  0  0  0  0  0  0  0
  138.0152   68.1924  224.4274 H   0  0  0  0  0  0  0  0  0  0  0  0
  141.7689   67.7250  227.7417 H   0  0  0  0  0  0  0  0  0  0  0  0
  141.5463   66.8545  226.1863 H   0  0  0  0  0  0  0  0  0  0  0  0
  142.0386   68.5820  226.1863 H   0  0  0  0  0  0  0  0  0  0  0  0
  140.9268   70.9010  226.0311 H   0  0  0  0  0  0  0  0  0  0  0  0
  140.5443   72.4176  224.1489 H   0  0  0  0  0  0  0  0  0  0  0  0
  137.5215   75.6503  219.4485 H   0  0  0  0  0  0  0  0  0  0  0  0
  137.4257   76.9206  220.6444 H   0  0  0  0  0  0  0  0  0  0  0  0
  140.1588   75.6426  219.8633 H   0  0  0  0  0  0  0  0  0  0  0  0
  139.5369   76.9848  218.9205 H   0  0  0  0  0  0  0  0  0  0  0  0
  1  2  1  0
  2  3  1  0
  3  4  2  0
  3  5  1  0
  5  6  1  0
  6  7  2  0
  7  8  1  0
  8  9  2  0
  9 10  1  0
 10 11  2  0
  5 12  1  0
 12 13  1  0
 13 14  1  0
 14 15  1  0
 15 16  1  0
 16 17  2  0
 16 18  1  0
 18 19  1  0
 18 20  1  0
 20 21  1  0
 21 22  2  0
 22 23  1  0
 23 24  2  0
 24 25  1  0
 25 26  1  0
 25 27  2  0
 25 28  2  0
 24 29  1  0
 29 30  2  0
 15 31  1  0
 31 32  1  0
 11  6  1  0
 32 12  1  0
 30 21  1  0
  1 33  1  0
  1 34  1  0
  1 35  1  0
  2 36  1  0
  2 37  1  0
  7 38  1  0
  8 39  1  0
  9 40  1  0
 10 41  1  0
 11 42  1  0
 12 43  1  0
 13 44  1  0
 13 45  1  0
 14 46  1  0
 14 47  1  0
 18 48  1  1
 19 49  1  0
 19 50  1  0
 20 51  1  0
 20 52  1  0
 22 53  1  0
 23 54  1  0
 26 55  1  0
 26 56  1  0
 26 57  1  0
 29 58  1  0
 30 59  1  0
 31 60  1  0
 31 61  1  0
 32 62  1  0
 32 63  1  0
M  END
>  <smiles>  (2) 
CCC(=O)N(c1ccccc1)C1CCN(C(=O)[C@@H](N)Cc2ccc(S(C)(=O)=O)cc2)CC1

>  <score_type>  (2) 
oracle

>  <origin>  (2) 
autodockgpu

>  <m_score__min__energy>  (2) 
-8.8800000000000008

>  <m_primary>  (2) 
energy

>  <rmsd>  (2) 
6.020713489940636

>  <m_score__min__rmsd>  (2) 
6.020713489940636

>  <meeko>  (2) 
{"free_energy": -6.94, "intermolecular_energy": -9.62, "internal_energy": -2.36, "cluster_size": 2, "cluster_id": 6, "rank_in_cluster": 2}

>  <energy>  (2) 
-8.52

>  <cluster_rmsd>  (2) 
1.18

>  <cluster>  (2) 
1

$$$$

     RDKit          3D

 63 65  0  0  0  0  0  0  0  0999 V2000
  141.0910   68.1390  228.6320 C   0  0  0  0  0  0  0  0  0  0  0  0
  141.1450   67.7380  227.1630 C   0  0  0  0  0  0  0  0  0  0  0  0
  139.8350   68.0170  226.4710 C   0  0  0  0  0  0  0  0  0  0  0  0
  139.0230   67.0560  226.4700 O   0  0  0  0  0  0  0  0  0  0  0  0
  139.5750   69.2810  225.8800 N   0  0  0  0  0  0  0  0  0  0  0  0
  140.2180   70.4140  226.5210 C   0  0  0  0  0  0  0  0  0  0  0  0
  139.8120   70.7770  227.7700 C   0  0  0  0  0  0  0  0  0  0  0  0
  140.4280   71.8630  228.3830 C   0  0  0  0  0  0  0  0  0  0  0  0
  141.4430   72.5480  227.7000 C   0  0  0  0  0  0  0  0  0  0  0  0
  141.8270   72.1470  226.4250 C   0  0  0  0  0  0  0  0  0  0  0  0
  141.2210   71.0730  225.8150 C   0  0  0  0  0  0  0  0  0  0  0  0
  138.7610   69.5230  224.7380 C   0  0  0  0  0  0  0  0  0  0  0  0
  139.2330   68.8960  223.4840 C   0  0  0  0  0  0  0  0  0  0  0  0
  139.6180   69.9190  222.4430 C   0  0  0  0  0  0  0  0  0  0  0  0
  138.4790   70.7370  222.1330 N   0  0  0  0  0  0  0  0  0  0  0  0
  138.1800   71.3760  220.9230 C   0  0  0  0  0  0  0  0  0  0  0  0
  137.0660   72.0400  220.8660 O   0  0  0  0  0  0  0  0  0  0  0  0
  138.9590   71.4100  219.6810 C   0  0  1  0  0  0  0  0  0  0  0  0
  138.1620   71.7250  218.5420 N   0  0  0  0  0  0  0  0  0  0  0  0
  140.1320   72.3880  219.8370 C   0  0  0  0  0  0  0  0  0  0  0  0
  141.4140   71.6990  219.7120 C   0  0  0  0  0  0  0  0  0  0  0  0
  141.6660   71.0260  218.5100 C   0  0  0  0  0  0  0  0  0  0  0  0
  142.8430   70.3380  218.3020 C   0  0  0  0  0  0  0  0  0  0  0  0
  143.8220   70.2880  219.2780 C   0  0  0  0  0  0  0  0  0  0  0  0
  145.2860   69.4070  218.9560 S   0  0  0  0  0  0  0  0  0  0  0  0
  145.0480   68.4540  217.4740 C   0  0  0  0  0  0  0  0  0  0  0  0
  146.4110   70.3970  218.8250 O   0  0  0  0  0  0  0  0  0  0  0  0
  145.5760   68.4700  220.0840 O   0  0  0  0  0  0  0  0  0  0  0  0
  143.5770   70.9520  220.4690 C   0  0  0  0  0  0  0  0  0  0  0  0
  142.3990   71.6350  220.6660 C   0  0  0  0  0  0  0  0  0  0  0  0
  137.5260   70.9540  223.2440 C   0  0  0  0  0  0  0  0  0  0  0  0
  138.4540   70.9920  224.4790 C   0  0  0  0  0  0  0  0  0  0  0  0
  141.2115   67.2446  229.2609 H   0  0  0  0  0  0  0  0  0  0  0  0
  141.9014   68.8508  228.8478 H   0  0  0  0  0  0  0  0  0  0  0  0
  140.1212   68.6111  228.8478 H   0  0  0  0  0  0  0  0  0  0  0  0
  141.9423   68.3090  226.6647 H   0  0  0  0  0  0  0  0  0  0  0  0
  141.3455   66.6580  227.1048 H   0  0  0  0  0  0  0  0  0  0  0  0
  139.0129   70.2222  228.2834 H   0  0  0  0  0  0  0  0  0  0  0  0
  140.1227   72.1805  229.3910 H   0  0  0  0  0  0  0  0  0  0  0  0
  141.9383   73.4074  228.1754 H   0  0  0  0  0  0  0  0  0  0  0  0
  142.6233   72.6940  225.8989 H   0  0  0  0  0  0  0  0  0  0  0  0
  141.5178   70.7471  224.8072 H   0  0  0  0  0  0  0  0  0  0  0  0
  137.8269   69.0207  225.0297 H   0  0  0  0  0  0  0  0  0  0  0  0
  140.1106   68.2721  223.7087 H   0  0  0  0  0  0  0  0  0  0  0  0
  138.4071   68.2946  223.0763 H   0  0  0  0  0  0  0  0  0  0  0  0
  140.4289   70.5518  222.8328 H   0  0  0  0  0  0  0  0  0  0  0  0
  139.9599   69.4054  221.5323 H   0  0  0  0  0  0  0  0  0  0  0  0
  139.3539   70.3994  219.5001 H   0  0  0  0  0  0  0  0  0  0  0  0
  137.3410   72.3420  218.7380 H   0  0  0  0  0  0  0  0  0  0  0  0
  137.8520   70.8690  218.0820 H   0  0  0  0  0  0  0  0  0  0  0  0
  140.0619   73.1599  219.0565 H   0  0  0  0  0  0  0  0  0  0  0  0
  140.0765   72.8420  220.8374 H   0  0  0  0  0  0  0  0  0  0  0  0
  140.9077   71.0466  217.7134 H   0  0  0  0  0  0  0  0  0  0  0  0
  143.0059   69.8208  217.3449 H   0  0  0  0  0  0  0  0  0  0  0  0
  144.7895   67.4188  217.7413 H   0  0  0  0  0  0  0  0  0  0  0  0
  144.2323   68.8944  216.8819 H   0  0  0  0  0  0  0  0  0  0  0  0
  145.9750   68.4592  216.8819 H   0  0  0  0  0  0  0  0  0  0  0  0
  144.3337   70.9329  221.2671 H   0  0  0  0  0  0  0  0  0  0  0  0
  142.2403   72.1497  221.6251 H   0  0  0  0  0  0  0  0  0  0  0  0
  136.9853   71.9044  223.1238 H   0  0  0  0  0  0  0  0  0  0  0  0
  136.7437   70.1833  223.3072 H   0  0  0  0  0  0  0  0  0  0  0  0
  139.3745   71.5538  224.2621 H   0  0  0  0  0  0  0  0  0  0  0  0
  137.9955   71.4930  225.3443 H   0  0  0  0  0  0  0  0  0  0  0  0
  1  2  1  0
  2  3  1  0
  3  4  2  0
  3  5  1  0
  5  6  1  0
  6  7  2  0
  7  8  1  0
  8  9  2  0
  9 10  1  0
 10 11  2  0
  5 12  1  0
 12 13  1  0
 13 14  1  0
 14 15  1  0
 15 16  1  0
 16 17  2  0
 16 18  1  0
 18 19  1  0
 18 20  1  0
 20 21  1  0
 21 22  2  0
 22 23  1  0
 23 24  2  0
 24 25  1  0
 25 26  1  0
 25 27  2  0
 25 28  2  0
 24 29  1  0
 29 30  2  0
 15 31  1  0
 31 32  1  0
 11  6  1  0
 32 12  1  0
 30 21  1  0
  1 33  1  0
  1 34  1  0
  1 35  1  0
  2 36  1  0
  2 37  1  0
  7 38  1  0
  8 39  1  0
  9 40  1  0
 10 41  1  0
 11 42  1  0
 12 43  1  0
 13 44  1  0
 13 45  1  0
 14 46  1  0
 14 47  1  0
 18 48  1  6
 19 49  1  0
 19 50  1  0
 20 51  1  0
 20 52  1  0
 22 53  1  0
 23 54  1  0
 26 55  1  0
 26 56  1  0
 26 57  1  0
 29 58  1  0
 30 59  1  0
 31 60  1  0
 31 61  1  0
 32 62  1  0
 32 63  1  0
M  END
>  <smiles>  (3) 
CCC(=O)N(c1ccccc1)C1CCN(C(=O)[C@@H](N)Cc2ccc(S(C)(=O)=O)cc2)CC1

>  <score_type>  (3) 
oracle

>  <origin>  (3) 
autodockgpu

>  <m_score__min__energy>  (3) 
-8.8800000000000008

>  <m_primary>  (3) 
energy

>  <rmsd>  (3) 
8.682042224745846

>  <m_score__min__rmsd>  (3) 
8.682042224745846

>  <meeko>  (3) 
{"free_energy": -7.18, "intermolecular_energy": -9.86, "internal_energy": -2.47, "cluster_size": 1, "cluster_id": 8, "rank_in_cluster": 1}

>  <energy>  (3) 
-8.25

>  <cluster_rmsd>  (3) 
1.11

>  <cluster>  (3) 
1

$$$$

     RDKit          3D

 63 65  0  0  0  0  0  0  0  0999 V2000
  142.5300   81.3510  224.2520 C   0  0  0  0  0  0  0  0  0  0  0  0
  142.9180   80.4780  223.0650 C   0  0  0  0  0  0  0  0  0  0  0  0
  141.9070   80.5860  221.9510 C   0  0  0  0  0  0  0  0  0  0  0  0
  141.5850   81.7620  221.6430 O   0  0  0  0  0  0  0  0  0  0  0  0
  141.3830   79.4250  221.3250 N   0  0  0  0  0  0  0  0  0  0  0  0
  141.8360   79.1900  219.9660 C   0  0  0  0  0  0  0  0  0  0  0  0
  141.8320   80.2300  219.0850 C   0  0  0  0  0  0  0  0  0  0  0  0
  142.2660   80.0030  217.7830 C   0  0  0  0  0  0  0  0  0  0  0  0
  142.6920   78.7180  217.4180 C   0  0  0  0  0  0  0  0  0  0  0  0
  142.6800   77.6830  218.3480 C   0  0  0  0  0  0  0  0  0  0  0  0
  142.2510   77.9020  219.6360 C   0  0  0  0  0  0  0  0  0  0  0  0
  140.4760   78.4940  221.9060 C   0  0  0  0  0  0  0  0  0  0  0  0
  141.1070   77.3510  222.6010 C   0  0  0  0  0  0  0  0  0  0  0  0
  140.7950   76.0340  221.9360 C   0  0  0  0  0  0  0  0  0  0  0  0
  139.3740   75.8260  221.9300 N   0  0  0  0  0  0  0  0  0  0  0  0
  138.6800   74.6080  221.9620 C   0  0  0  0  0  0  0  0  0  0  0  0
  137.3840   74.6690  221.9850 O   0  0  0  0  0  0  0  0  0  0  0  0
  139.2140   73.2430  221.9700 C   0  0  1  0  0  0  0  0  0  0  0  0
  138.2980   72.3000  222.5210 N   0  0  0  0  0  0  0  0  0  0  0  0
  139.6440   72.8490  220.5500 C   0  0  0  0  0  0  0  0  0  0  0  0
  141.0960   72.7350  220.4500 C   0  0  0  0  0  0  0  0  0  0  0  0
  141.7630   73.6960  219.6790 C   0  0  0  0  0  0  0  0  0  0  0  0
  143.1320   73.6670  219.5160 C   0  0  0  0  0  0  0  0  0  0  0  0
  143.9000   72.6830  220.1120 C   0  0  0  0  0  0  0  0  0  0  0  0
  145.6220   72.6990  219.8710 S   0  0  0  0  0  0  0  0  0  0  0  0
  146.3640   73.5810  221.2240 C   0  0  0  0  0  0  0  0  0  0  0  0
  146.0980   71.2750  219.7880 O   0  0  0  0  0  0  0  0  0  0  0  0
  145.9530   73.4100  218.5980 O   0  0  0  0  0  0  0  0  0  0  0  0
  143.2450   71.7290  220.8750 C   0  0  0  0  0  0  0  0  0  0  0  0
  141.8780   71.7690  221.0310 C   0  0  0  0  0  0  0  0  0  0  0  0
  138.5480   77.0510  221.8460 C   0  0  0  0  0  0  0  0  0  0  0  0
  139.4080   77.9730  220.9530 C   0  0  0  0  0  0  0  0  0  0  0  0
  142.7648   80.8228  225.1879 H   0  0  0  0  0  0  0  0  0  0  0  0
  143.0933   82.2950  224.2125 H   0  0  0  0  0  0  0  0  0  0  0  0
  141.4518   81.5655  224.2125 H   0  0  0  0  0  0  0  0  0  0  0  0
  143.9005   80.8000  222.6895 H   0  0  0  0  0  0  0  0  0  0  0  0
  142.9535   79.4312  223.4011 H   0  0  0  0  0  0  0  0  0  0  0  0
  141.4925   81.2286  219.3972 H   0  0  0  0  0  0  0  0  0  0  0  0
  142.2749   80.8218  217.0486 H   0  0  0  0  0  0  0  0  0  0  0  0
  143.0375   78.5271  216.3912 H   0  0  0  0  0  0  0  0  0  0  0  0
  143.0171   76.6793  218.0498 H   0  0  0  0  0  0  0  0  0  0  0  0
  142.2361   77.0902  220.3781 H   0  0  0  0  0  0  0  0  0  0  0  0
  139.9858   79.1172  222.6684 H   0  0  0  0  0  0  0  0  0  0  0  0
  142.1973   77.4966  222.6034 H   0  0  0  0  0  0  0  0  0  0  0  0
  140.7043   77.3152  223.6240 H   0  0  0  0  0  0  0  0  0  0  0  0
  141.1680   76.0482  220.9013 H   0  0  0  0  0  0  0  0  0  0  0  0
  141.2828   75.2186  222.4902 H   0  0  0  0  0  0  0  0  0  0  0  0
  140.0946   73.2272  222.6290 H   0  0  0  0  0  0  0  0  0  0  0  0
  137.2980   72.4570  222.2630 H   0  0  0  0  0  0  0  0  0  0  0  0
  138.3960   72.2670  223.5370 H   0  0  0  0  0  0  0  0  0  0  0  0
  139.1896   71.8807  220.2933 H   0  0  0  0  0  0  0  0  0  0  0  0
  139.3076   73.6321  219.8546 H   0  0  0  0  0  0  0  0  0  0  0  0
  141.1809   74.4924  219.1922 H   0  0  0  0  0  0  0  0  0  0  0  0
  143.6208   74.4382  218.9026 H   0  0  0  0  0  0  0  0  0  0  0  0
  146.0088   73.1588  222.1757 H   0  0  0  0  0  0  0  0  0  0  0  0
  147.4585   73.4868  221.1668 H   0  0  0  0  0  0  0  0  0  0  0  0
  146.0839   74.6432  221.1668 H   0  0  0  0  0  0  0  0  0  0  0  0
  143.8245   70.9306  221.3616 H   0  0  0  0  0  0  0  0  0  0  0  0
  141.3935   70.9961  221.6457 H   0  0  0  0  0  0  0  0  0  0  0  0
  137.5736   76.8424  221.3801 H   0  0  0  0  0  0  0  0  0  0  0  0
  138.3102   77.4879  222.8271 H   0  0  0  0  0  0  0  0  0  0  0  0
  139.8613   77.4077  220.1253 H   0  0  0  0  0  0  0  0  0  0  0  0
  138.8253   78.7776  220.4807 H   0  0  0  0  0  0  0  0  0  0  0  0
  1  2  1  0
  2  3  1  0
  3  4  2  0
  3  5  1  0
  5  6  1  0
  6  7  2  0
  7  8  1  0
  8  9  2  0
  9 10  1  0
 10 11  2  0
  5 12  1  0
 12 13  1  0
 13 14  1  0
 14 15  1  0
 15 16  1  0
 16 17  2  0
 16 18  1  0
 18 19  1  0
 18 20  1  0
 20 21  1  0
 21 22  2  0
 22 23  1  0
 23 24  2  0
 24 25  1  0
 25 26  1  0
 25 27  2  0
 25 28  2  0
 24 29  1  0
 29 30  2  0
 15 31  1  0
 31 32  1  0
 11  6  1  0
 32 12  1  0
 30 21  1  0
  1 33  1  0
  1 34  1  0
  1 35  1  0
  2 36  1  0
  2 37  1  0
  7 38  1  0
  8 39  1  0
  9 40  1  0
 10 41  1  0
 11 42  1  0
 12 43  1  0
 13 44  1  0
 13 45  1  0
 14 46  1  0
 14 47  1  0
 18 48  1  1
 19 49  1  0
 19 50  1  0
 20 51  1  0
 20 52  1  0
 22 53  1  0
 23 54  1  0
 26 55  1  0
 26 56  1  0
 26 57  1  0
 29 58  1  0
 30 59  1  0
 31 60  1  0
 31 61  1  0
 32 62  1  0
 32 63  1  0
M  END
>  <smiles>  (4) 
CCC(=O)N(c1ccccc1)C1CCN(C(=O)[C@@H](N)Cc2ccc(S(C)(=O)=O)cc2)CC1

>  <score_type>  (4) 
oracle

>  <origin>  (4) 
autodockgpu

>  <m_score__min__energy>  (4) 
-8.8800000000000008

>  <m_primary>  (4) 
energy

>  <rmsd>  (4) 
4.490224733769527

>  <m_score__min__rmsd>  (4) 
4.490224733769527

>  <meeko>  (4) 
{"free_energy": -7.02, "intermolecular_energy": -9.71, "internal_energy": -2.75, "cluster_size": 19, "cluster_id": 5, "rank_in_cluster": 8}

>  <energy>  (4) 
-8.12

>  <cluster_rmsd>  (4) 
1.16

>  <cluster>  (4) 
1

$$$$

     RDKit          3D

 63 65  0  0  0  0  0  0  0  0999 V2000
  136.9220   82.3210  222.9600 C   0  0  0  0  0  0  0  0  0  0  0  0
  136.7770   80.8260  223.2160 C   0  0  0  0  0  0  0  0  0  0  0  0
  138.0610   80.2330  223.7390 C   0  0  0  0  0  0  0  0  0  0  0  0
  138.2920   80.4610  224.9540 O   0  0  0  0  0  0  0  0  0  0  0  0
  138.9160   79.4800  222.8930 N   0  0  0  0  0  0  0  0  0  0  0  0
  140.3180   79.8560  222.9280 C   0  0  0  0  0  0  0  0  0  0  0  0
  140.7420   80.8780  222.1330 C   0  0  0  0  0  0  0  0  0  0  0  0
  142.0860   81.2370  222.1670 C   0  0  0  0  0  0  0  0  0  0  0  0
  142.9590   80.5380  223.0130 C   0  0  0  0  0  0  0  0  0  0  0  0
  142.4860   79.4990  223.8080 C   0  0  0  0  0  0  0  0  0  0  0  0
  141.1580   79.1410  223.7780 C   0  0  0  0  0  0  0  0  0  0  0  0
  138.5230   78.4120  222.0370 C   0  0  0  0  0  0  0  0  0  0  0  0
  137.7790   77.3180  222.6970 C   0  0  0  0  0  0  0  0  0  0  0  0
  138.5350   76.0120  222.6660 C   0  0  0  0  0  0  0  0  0  0  0  0
  138.7760   75.6320  221.3030 N   0  0  0  0  0  0  0  0  0  0  0  0
  138.9010   74.3380  220.7780 C   0  0  0  0  0  0  0  0  0  0  0  0
  139.0830   74.2370  219.4960 O   0  0  0  0  0  0  0  0  0  0  0  0
  138.8580   73.0510  221.4780 C   0  0  1  0  0  0  0  0  0  0  0  0
  138.7180   71.9470  220.5870 N   0  0  0  0  0  0  0  0  0  0  0  0
  140.1020   72.9060  222.3650 C   0  0  0  0  0  0  0  0  0  0  0  0
  139.9580   71.7940  223.3010 C   0  0  0  0  0  0  0  0  0  0  0  0
  140.6910   71.8600  224.4920 C   0  0  0  0  0  0  0  0  0  0  0  0
  140.6290   70.8540  225.4330 C   0  0  0  0  0  0  0  0  0  0  0  0
  139.8350   69.7390  225.2340 C   0  0  0  0  0  0  0  0  0  0  0  0
  139.7960   68.5050  226.4580 S   0  0  0  0  0  0  0  0  0  0  0  0
  141.4380   67.8500  226.6410 C   0  0  0  0  0  0  0  0  0  0  0  0
  139.2810   69.1210  227.7300 O   0  0  0  0  0  0  0  0  0  0  0  0
  138.8840   67.3970  226.0380 O   0  0  0  0  0  0  0  0  0  0  0  0
  139.1080   69.6690  224.0570 C   0  0  0  0  0  0  0  0  0  0  0  0
  139.1780   70.6790  223.1250 C   0  0  0  0  0  0  0  0  0  0  0  0
  138.9440   76.7480  220.3460 C   0  0  0  0  0  0  0  0  0  0  0  0
  139.6530   77.8200  221.2050 C   0  0  0  0  0  0  0  0  0  0  0  0
  136.9737   82.8542  223.9208 H   0  0  0  0  0  0  0  0  0  0  0  0
  137.8424   82.5073  222.3872 H   0  0  0  0  0  0  0  0  0  0  0  0
  136.0545   82.6808  222.3872 H   0  0  0  0  0  0  0  0  0  0  0  0
  135.9800   80.6649  223.9568 H   0  0  0  0  0  0  0  0  0  0  0  0
  136.5290   80.3331  222.2644 H   0  0  0  0  0  0  0  0  0  0  0  0
  140.0360   81.4087  221.4773 H   0  0  0  0  0  0  0  0  0  0  0  0
  142.4590   82.0588  221.5381 H   0  0  0  0  0  0  0  0  0  0  0  0
  144.0236   80.8127  223.0482 H   0  0  0  0  0  0  0  0  0  0  0  0
  143.1809   78.9582  224.4673 H   0  0  0  0  0  0  0  0  0  0  0  0
  140.7740   78.3206  224.4021 H   0  0  0  0  0  0  0  0  0  0  0  0
  137.8258   78.9249  221.3581 H   0  0  0  0  0  0  0  0  0  0  0  0
  137.5964   77.5964  223.7454 H   0  0  0  0  0  0  0  0  0  0  0  0
  136.8357   77.1742  222.1498 H   0  0  0  0  0  0  0  0  0  0  0  0
  139.4954   76.1316  223.1888 H   0  0  0  0  0  0  0  0  0  0  0  0
  137.9411   75.2321  223.1650 H   0  0  0  0  0  0  0  0  0  0  0  0
  137.9600   73.0399  222.1132 H   0  0  0  0  0  0  0  0  0  0  0  0
  139.6070   71.4440  220.3680 H   0  0  0  0  0  0  0  0  0  0  0  0
  138.2640   72.2470  219.7230 H   0  0  0  0  0  0  0  0  0  0  0  0
  140.9790   72.7256  221.7260 H   0  0  0  0  0  0  0  0  0  0  0  0
  140.2269   73.8334  222.9432 H   0  0  0  0  0  0  0  0  0  0  0  0
  141.3310   72.7344  224.6814 H   0  0  0  0  0  0  0  0  0  0  0  0
  141.2203   70.9395  226.3566 H   0  0  0  0  0  0  0  0  0  0  0  0
  141.6776   67.7544  227.7103 H   0  0  0  0  0  0  0  0  0  0  0  0
  141.4936   66.8609  226.1630 H   0  0  0  0  0  0  0  0  0  0  0  0
  142.1591   68.5293  226.1630 H   0  0  0  0  0  0  0  0  0  0  0  0
  138.4672   68.7958  223.8651 H   0  0  0  0  0  0  0  0  0  0  0  0
  138.5854   70.5889  222.2027 H   0  0  0  0  0  0  0  0  0  0  0  0
  139.5670   76.4479  219.4905 H   0  0  0  0  0  0  0  0  0  0  0  0
  137.9976   77.0943  219.9050 H   0  0  0  0  0  0  0  0  0  0  0  0
  140.4189   77.3641  221.8496 H   0  0  0  0  0  0  0  0  0  0  0  0
  140.1809   78.5729  220.6013 H   0  0  0  0  0  0  0  0  0  0  0  0
  1  2  1  0
  2  3  1  0
  3  4  2  0
  3  5  1  0
  5  6  1  0
  6  7  2  0
  7  8  1  0
  8  9  2  0
  9 10  1  0
 10 11  2  0
  5 12  1  0
 12 13  1  0
 13 14  1  0
 14 15  1  0
 15 16  1  0
 16 17  2  0
 16 18  1  0
 18 19  1  0
 18 20  1  0
 20 21  1  0
 21 22  2  0
 22 23  1  0
 23 24  2  0
 24 25  1  0
 25 26  1  0
 25 27  2  0
 25 28  2  0
 24 29  1  0
 29 30  2  0
 15 31  1  0
 31 32  1  0
 11  6  1  0
 32 12  1  0
 30 21  1  0
  1 33  1  0
  1 34  1  0
  1 35  1  0
  2 36  1  0
  2 37  1  0
  7 38  1  0
  8 39  1  0
  9 40  1  0
 10 41  1  0
 11 42  1  0
 12 43  1  0
 13 44  1  0
 13 45  1  0
 14 46  1  0
 14 47  1  0
 18 48  1  1
 19 49  1  0
 19 50  1  0
 20 51  1  0
 20 52  1  0
 22 53  1  0
 23 54  1  0
 26 55  1  0
 26 56  1  0
 26 57  1  0
 29 58  1  0
 30 59  1  0
 31 60  1  0
 31 61  1  0
 32 62  1  0
 32 63  1  0
M  END
>  <smiles>  (5) 
CCC(=O)N(c1ccccc1)C1CCN(C(=O)[C@@H](N)Cc2ccc(S(C)(=O)=O)cc2)CC1

>  <score_type>  (5) 
oracle

>  <origin>  (5) 
autodockgpu

>  <m_score__min__energy>  (5) 
-8.8800000000000008

>  <m_primary>  (5) 
energy

>  <rmsd>  (5) 
5.538480040945551

>  <m_score__min__rmsd>  (5) 
5.538480040945551

>  <meeko>  (5) 
{"free_energy": -7.24, "intermolecular_energy": -9.92, "internal_energy": -2.3, "cluster_size": 11, "cluster_id": 4, "rank_in_cluster": 10}

>  <energy>  (5) 
-7.91

>  <cluster_rmsd>  (5) 
1.42

>  <cluster>  (5) 
1

$$$$

     RDKit          3D

 63 65  0  0  0  0  0  0  0  0999 V2000
  142.1920   80.0330  223.8540 C   0  0  0  0  0  0  0  0  0  0  0  0
  142.8400   80.3400  222.5100 C   0  0  0  0  0  0  0  0  0  0  0  0
  141.8310   80.2850  221.3900 C   0  0  0  0  0  0  0  0  0  0  0  0
  141.4440   81.4070  220.9730 O   0  0  0  0  0  0  0  0  0  0  0  0
  141.3790   79.0430  220.8740 N   0  0  0  0  0  0  0  0  0  0  0  0
  141.9190   78.6710  219.5790 C   0  0  0  0  0  0  0  0  0  0  0  0
  141.8130   79.5540  218.5460 C   0  0  0  0  0  0  0  0  0  0  0  0
  142.3310   79.1950  217.3060 C   0  0  0  0  0  0  0  0  0  0  0  0
  142.9420   77.9420  217.1560 C   0  0  0  0  0  0  0  0  0  0  0  0
  143.0300   77.0690  218.2350 C   0  0  0  0  0  0  0  0  0  0  0  0
  142.5190   77.4190  219.4640 C   0  0  0  0  0  0  0  0  0  0  0  0
  140.4660   78.1530  221.5070 C   0  0  0  0  0  0  0  0  0  0  0  0
  141.0850   77.1330  222.3810 C   0  0  0  0  0  0  0  0  0  0  0  0
  140.8670   75.7310  221.8690 C   0  0  0  0  0  0  0  0  0  0  0  0
  139.4580   75.4630  221.7960 N   0  0  0  0  0  0  0  0  0  0  0  0
  138.8060   74.2300  221.9360 C   0  0  0  0  0  0  0  0  0  0  0  0
  137.5100   74.2370  221.8650 O   0  0  0  0  0  0  0  0  0  0  0  0
  139.3850   72.9000  222.1520 C   0  0  1  0  0  0  0  0  0  0  0  0
  138.5370   72.0520  222.9220 N   0  0  0  0  0  0  0  0  0  0  0  0
  139.7390   72.2670  220.8000 C   0  0  0  0  0  0  0  0  0  0  0  0
  141.1530   72.4510  220.4840 C   0  0  0  0  0  0  0  0  0  0  0  0
  142.0580   71.5400  221.0420 C   0  0  0  0  0  0  0  0  0  0  0  0
  143.4140   71.6370  220.8110 C   0  0  0  0  0  0  0  0  0  0  0  0
  143.9310   72.6420  220.0150 C   0  0  0  0  0  0  0  0  0  0  0  0
  145.6500   72.7120  219.7580 S   0  0  0  0  0  0  0  0  0  0  0  0
  146.3740   73.6460  221.0850 C   0  0  0  0  0  0  0  0  0  0  0  0
  146.1730   71.3030  219.6990 O   0  0  0  0  0  0  0  0  0  0  0  0
  145.9460   73.4070  218.4680 O   0  0  0  0  0  0  0  0  0  0  0  0
  143.0400   73.5470  219.4600 C   0  0  0  0  0  0  0  0  0  0  0  0
  141.6890   73.4400  219.6980 C   0  0  0  0  0  0  0  0  0  0  0  0
  138.5980   76.6310  221.5030 C   0  0  0  0  0  0  0  0  0  0  0  0
  139.4870   77.4720  220.5600 C   0  0  0  0  0  0  0  0  0  0  0  0
  142.8629   80.3509  224.6657 H   0  0  0  0  0  0  0  0  0  0  0  0
  141.2380   80.5749  223.9334 H   0  0  0  0  0  0  0  0  0  0  0  0
  142.0071   78.9516  223.9334 H   0  0  0  0  0  0  0  0  0  0  0  0
  143.2805   81.3473  222.5463 H   0  0  0  0  0  0  0  0  0  0  0  0
  143.6147   79.5833  222.3170 H   0  0  0  0  0  0  0  0  0  0  0  0
  141.3277   80.5306  218.6901 H   0  0  0  0  0  0  0  0  0  0  0  0
  142.2621   79.8861  216.4530 H   0  0  0  0  0  0  0  0  0  0  0  0
  143.3541   77.6478  216.1794 H   0  0  0  0  0  0  0  0  0  0  0  0
  143.5127   76.0892  218.1049 H   0  0  0  0  0  0  0  0  0  0  0  0
  142.5820   76.7355  220.3236 H   0  0  0  0  0  0  0  0  0  0  0  0
  139.9022   78.8448  222.1501 H   0  0  0  0  0  0  0  0  0  0  0  0
  142.1667   77.3248  222.4371 H   0  0  0  0  0  0  0  0  0  0  0  0
  140.6117   77.2067  223.3712 H   0  0  0  0  0  0  0  0  0  0  0  0
  141.3115   75.6328  220.8676 H   0  0  0  0  0  0  0  0  0  0  0  0
  141.3425   75.0123  222.5526 H   0  0  0  0  0  0  0  0  0  0  0  0
  140.3045   73.0220  222.7433 H   0  0  0  0  0  0  0  0  0  0  0  0
  138.1520   71.2300  222.4050 H   0  0  0  0  0  0  0  0  0  0  0  0
  137.7750   72.5940  223.3320 H   0  0  0  0  0  0  0  0  0  0  0  0
  139.5174   71.1903  220.8391 H   0  0  0  0  0  0  0  0  0  0  0  0
  139.1409   72.7583  220.0184 H   0  0  0  0  0  0  0  0  0  0  0  0
  141.6785   70.7279  221.6796 H   0  0  0  0  0  0  0  0  0  0  0  0
  144.0948   70.9033  221.2672 H   0  0  0  0  0  0  0  0  0  0  0  0
  146.0489   73.2266  222.0485 H   0  0  0  0  0  0  0  0  0  0  0  0
  147.4705   73.5946  221.0140 H   0  0  0  0  0  0  0  0  0  0  0  0
  146.0508   74.6950  221.0140 H   0  0  0  0  0  0  0  0  0  0  0  0
  143.4171   74.3599  218.8221 H   0  0  0  0  0  0  0  0  0  0  0  0
  141.0119   74.1762  219.2402 H   0  0  0  0  0  0  0  0  0  0  0  0
  137.6673   76.3241  221.0033 H   0  0  0  0  0  0  0  0  0  0  0  0
  138.2755   77.1751  222.4030 H   0  0  0  0  0  0  0  0  0  0  0  0
  140.0172   76.8288  219.8422 H   0  0  0  0  0  0  0  0  0  0  0  0
  138.9115   78.1862  219.9528 H   0  0  0  0  0  0  0  0  0  0  0  0
  1  2  1  0
  2  3  1  0
  3  4  2  0
  3  5  1  0
  5  6  1  0
  6  7  2  0
  7  8  1  0
  8  9  2  0
  9 10  1  0
 10 11  2  0
  5 12  1  0
 12 13  1  0
 13 14  1  0
 14 15  1  0
 15 16  1  0
 16 17  2  0
 16 18  1  0
 18 19  1  0
 18 20  1  0
 20 21  1  0
 21 22  2  0
 22 23  1  0
 23 24  2  0
 24 25  1  0
 25 26  1  0
 25 27  2  0
 25 28  2  0
 24 29  1  0
 29 30  2  0
 15 31  1  0
 31 32  1  0
 11  6  1  0
 32 12  1  0
 30 21  1  0
  1 33  1  0
  1 34  1  0
  1 35  1  0
  2 36  1  0
  2 37  1  0
  7 38  1  0
  8 39  1  0
  9 40  1  0
 10 41  1  0
 11 42  1  0
 12 43  1  0
 13 44  1  0
 13 45  1  0
 14 46  1  0
 14 47  1  0
 18 48  1  1
 19 49  1  0
 19 50  1  0
 20 51  1  0
 20 52  1  0
 22 53  1  0
 23 54  1  0
 26 55  1  0
 26 56  1  0
 26 57  1  0
 29 58  1  0
 30 59  1  0
 31 60  1  0
 31 61  1  0
 32 62  1  0
 32 63  1  0
M  END
>  <smiles>  (6) 
CCC(=O)N(c1ccccc1)C1CCN(C(=O)[C@@H](N)Cc2ccc(S(C)(=O)=O)cc2)CC1

>  <score_type>  (6) 
oracle

>  <origin>  (6) 
autodockgpu

>  <m_score__min__energy>  (6) 
-8.8800000000000008

>  <m_primary>  (6) 
energy

>  <rmsd>  (6) 
4.88053665452517

>  <m_score__min__rmsd>  (6) 
4.88053665452517

>  <meeko>  (6) 
{"free_energy": -6.75, "intermolecular_energy": -9.43, "internal_energy": -3.0, "cluster_size": 19, "cluster_id": 5, "rank_in_cluster": 16}

>  <energy>  (6) 
-8.06

>  <cluster_rmsd>  (6) 
0.0

>  <cluster>  (6) 
2

$$$$

     RDKit          3D

 63 65  0  0  0  0  0  0  0  0999 V2000
  143.2970   80.5110  223.6620 C   0  0  0  0  0  0  0  0  0  0  0  0
  142.1980   81.5650  223.7140 C   0  0  0  0  0  0  0  0  0  0  0  0
  141.4510   81.6420  222.4060 C   0  0  0  0  0  0  0  0  0  0  0  0
  141.2140   82.8080  222.0000 O   0  0  0  0  0  0  0  0  0  0  0  0
  141.0630   80.4640  221.7160 N   0  0  0  0  0  0  0  0  0  0  0  0
  141.5120   80.3700  220.3380 C   0  0  0  0  0  0  0  0  0  0  0  0
  141.5220   81.4980  219.5750 C   0  0  0  0  0  0  0  0  0  0  0  0
  141.9510   81.4060  218.2550 C   0  0  0  0  0  0  0  0  0  0  0  0
  142.3590   80.1620  217.7530 C   0  0  0  0  0  0  0  0  0  0  0  0
  142.3330   79.0340  218.5660 C   0  0  0  0  0  0  0  0  0  0  0  0
  141.9090   79.1190  219.8720 C   0  0  0  0  0  0  0  0  0  0  0  0
  140.2930   79.3920  222.2510 C   0  0  0  0  0  0  0  0  0  0  0  0
  141.0790   78.2830  222.8350 C   0  0  0  0  0  0  0  0  0  0  0  0
  140.8940   76.9900  222.0790 C   0  0  0  0  0  0  0  0  0  0  0  0
  139.5080   76.6180  222.1010 N   0  0  0  0  0  0  0  0  0  0  0  0
  138.9610   75.3280  222.0600 C   0  0  0  0  0  0  0  0  0  0  0  0
  137.6670   75.2330  222.1280 O   0  0  0  0  0  0  0  0  0  0  0  0
  139.6480   74.0380  221.9450 C   0  0  1  0  0  0  0  0  0  0  0  0
  138.8770   72.9580  222.4670 N   0  0  0  0  0  0  0  0  0  0  0  0
  140.0440   73.7940  220.4830 C   0  0  0  0  0  0  0  0  0  0  0  0
  141.4920   73.6650  220.3420 C   0  0  0  0  0  0  0  0  0  0  0  0
  142.0820   72.4970  220.8420 C   0  0  0  0  0  0  0  0  0  0  0  0
  143.4430   72.2870  220.7650 C   0  0  0  0  0  0  0  0  0  0  0  0
  144.2780   73.2270  220.1880 C   0  0  0  0  0  0  0  0  0  0  0  0
  145.9850   72.9050  220.1180 S   0  0  0  0  0  0  0  0  0  0  0  0
  146.6960   73.3260  221.6920 C   0  0  0  0  0  0  0  0  0  0  0  0
  146.1750   71.4530  219.7750 O   0  0  0  0  0  0  0  0  0  0  0  0
  146.6220   73.7530  219.0640 O   0  0  0  0  0  0  0  0  0  0  0  0
  143.6990   74.3840  219.6930 C   0  0  0  0  0  0  0  0  0  0  0  0
  142.3390   74.5820  219.7740 C   0  0  0  0  0  0  0  0  0  0  0  0
  138.5430   77.7390  222.1390 C   0  0  0  0  0  0  0  0  0  0  0  0
  139.2550   78.8200  221.2950 C   0  0  0  0  0  0  0  0  0  0  0  0
  143.5870   80.2329  224.6860 H   0  0  0  0  0  0  0  0  0  0  0  0
  142.9270   79.6214  223.1312 H   0  0  0  0  0  0  0  0  0  0  0  0
  144.1704   80.9178  223.1312 H   0  0  0  0  0  0  0  0  0  0  0  0
  141.4909   81.3063  224.5159 H   0  0  0  0  0  0  0  0  0  0  0  0
  142.6633   82.5430  223.9064 H   0  0  0  0  0  0  0  0  0  0  0  0
  141.1975   82.4620  219.9939 H   0  0  0  0  0  0  0  0  0  0  0  0
  141.9700   82.2987  217.6125 H   0  0  0  0  0  0  0  0  0  0  0  0
  142.7013   80.0779  216.7110 H   0  0  0  0  0  0  0  0  0  0  0  0
  142.6549   78.0635  218.1605 H   0  0  0  0  0  0  0  0  0  0  0  0
  141.8845   78.2329  220.5233 H   0  0  0  0  0  0  0  0  0  0  0  0
  139.7653   79.8958  223.0742 H   0  0  0  0  0  0  0  0  0  0  0  0
  142.1445   78.5554  222.8145 H   0  0  0  0  0  0  0  0  0  0  0  0
  140.7246   78.1248  223.8643 H   0  0  0  0  0  0  0  0  0  0  0  0
  141.2213   77.1240  221.0374 H   0  0  0  0  0  0  0  0  0  0  0  0
  141.4939   76.1989  222.5525 H   0  0  0  0  0  0  0  0  0  0  0  0
  140.5582   74.0823  222.5611 H   0  0  0  0  0  0  0  0  0  0  0  0
  137.8850   73.1960  222.6920 H   0  0  0  0  0  0  0  0  0  0  0  0
  139.3360   72.5630  223.2880 H   0  0  0  0  0  0  0  0  0  0  0  0
  139.5655   72.8680  220.1315 H   0  0  0  0  0  0  0  0  0  0  0  0
  139.7112   74.6544  219.8839 H   0  0  0  0  0  0  0  0  0  0  0  0
  141.4453   71.7298  221.3067 H   0  0  0  0  0  0  0  0  0  0  0  0
  143.8711   71.3576  221.1687 H   0  0  0  0  0  0  0  0  0  0  0  0
  146.0525   72.9450  222.4987 H   0  0  0  0  0  0  0  0  0  0  0  0
  147.6953   72.8739  221.7756 H   0  0  0  0  0  0  0  0  0  0  0  0
  146.7801   74.4196  221.7756 H   0  0  0  0  0  0  0  0  0  0  0  0
  144.3335   75.1538  219.2296 H   0  0  0  0  0  0  0  0  0  0  0  0
  141.9152   75.5120  219.3673 H   0  0  0  0  0  0  0  0  0  0  0  0
  137.5816   77.4517  221.6883 H   0  0  0  0  0  0  0  0  0  0  0  0
  138.2949   78.0704  223.1581 H   0  0  0  0  0  0  0  0  0  0  0  0
  139.7369   78.3750  220.4120 H   0  0  0  0  0  0  0  0  0  0  0  0
  138.5647   79.5830  220.9061 H   0  0  0  0  0  0  0  0  0  0  0  0
  1  2  1  0
  2  3  1  0
  3  4  2  0
  3  5  1  0
  5  6  1  0
  6  7  2  0
  7  8  1  0
  8  9  2  0
  9 10  1  0
 10 11  2  0
  5 12  1  0
 12 13  1  0
 13 14  1  0
 14 15  1  0
 15 16  1  0
 16 17  2  0
 16 18  1  0
 18 19  1  0
 18 20  1  0
 20 21  1  0
 21 22  2  0
 22 23  1  0
 23 24  2  0
 24 25  1  0
 25 26  1  0
 25 27  2  0
 25 28  2  0
 24 29  1  0
 29 30  2  0
 15 31  1  0
 31 32  1  0
 11  6  1  0
 32 12  1  0
 30 21  1  0
  1 33  1  0
  1 34  1  0
  1 35  1  0
  2 36  1  0
  2 37  1  0
  7 38  1  0
  8 39  1  0
  9 40  1  0
 10 41  1  0
 11 42  1  0
 12 43  1  0
 13 44  1  0
 13 45  1  0
 14 46  1  0
 14 47  1  0
 18 48  1  1
 19 49  1  0
 19 50  1  0
 20 51  1  0
 20 52  1  0
 22 53  1  0
 23 54  1  0
 26 55  1  0
 26 56  1  0
 26 57  1  0
 29 58  1  0
 30 59  1  0
 31 60  1  0
 31 61  1  0
 32 62  1  0
 32 63  1  0
M  END
>  <smiles>  (7) 
CCC(=O)N(c1ccccc1)C1CCN(C(=O)[C@@H](N)Cc2ccc(S(C)(=O)=O)cc2)CC1

>  <score_type>  (7) 
oracle

>  <origin>  (7) 
autodockgpu

>  <m_score__min__energy>  (7) 
-8.8800000000000008

>  <m_primary>  (7) 
energy

>  <rmsd>  (7) 
3.9429328063095674

>  <m_score__min__rmsd>  (7) 
3.9429328063095674

>  <meeko>  (7) 
{"free_energy": -7.68, "intermolecular_energy": -10.37, "internal_energy": -2.49, "cluster_size": 19, "cluster_id": 5, "rank_in_cluster": 1}

>  <energy>  (7) 
-7.9

>  <cluster_rmsd>  (7) 
0.35

>  <cluster>  (7) 
2

$$$$

     RDKit          3D

 63 65  0  0  0  0  0  0  0  0999 V2000
  142.2610   80.0330  223.9100 C   0  0  0  0  0  0  0  0  0  0  0  0
  142.8370   80.4880  222.5760 C   0  0  0  0  0  0  0  0  0  0  0  0
  141.7970   80.4410  221.4850 C   0  0  0  0  0  0  0  0  0  0  0  0
  141.3870   81.5650  221.0980 O   0  0  0  0  0  0  0  0  0  0  0  0
  141.3420   79.2030  220.9620 N   0  0  0  0  0  0  0  0  0  0  0  0
  141.8640   78.8480  219.6540 C   0  0  0  0  0  0  0  0  0  0  0  0
  142.3770   77.5990  219.4710 C   0  0  0  0  0  0  0  0  0  0  0  0
  142.8770   77.2600  218.2180 C   0  0  0  0  0  0  0  0  0  0  0  0
  142.8380   78.2090  217.1870 C   0  0  0  0  0  0  0  0  0  0  0  0
  142.3060   79.4740  217.4150 C   0  0  0  0  0  0  0  0  0  0  0  0
  141.8110   79.8140  218.6530 C   0  0  0  0  0  0  0  0  0  0  0  0
  140.4420   78.3020  221.5980 C   0  0  0  0  0  0  0  0  0  0  0  0
  141.0810   77.2290  222.3900 C   0  0  0  0  0  0  0  0  0  0  0  0
  140.8060   75.8580  221.8240 C   0  0  0  0  0  0  0  0  0  0  0  0
  139.3900   75.6220  221.8110 N   0  0  0  0  0  0  0  0  0  0  0  0
  138.7190   74.3970  221.9260 C   0  0  0  0  0  0  0  0  0  0  0  0
  137.4210   74.4330  221.9230 O   0  0  0  0  0  0  0  0  0  0  0  0
  139.2780   73.0470  222.0490 C   0  0  1  0  0  0  0  0  0  0  0  0
  138.4170   72.1600  222.7590 N   0  0  0  0  0  0  0  0  0  0  0  0
  139.6240   72.5040  220.6560 C   0  0  0  0  0  0  0  0  0  0  0  0
  141.0540   72.6230  220.3820 C   0  0  0  0  0  0  0  0  0  0  0  0
  141.9150   71.7770  221.0930 C   0  0  0  0  0  0  0  0  0  0  0  0
  143.2810   71.8220  220.9110 C   0  0  0  0  0  0  0  0  0  0  0  0
  143.8530   72.7080  220.0160 C   0  0  0  0  0  0  0  0  0  0  0  0
  145.5820   72.7160  219.8290 S   0  0  0  0  0  0  0  0  0  0  0  0
  146.2840   73.6250  221.1860 C   0  0  0  0  0  0  0  0  0  0  0  0
  146.0560   71.2900  219.7900 O   0  0  0  0  0  0  0  0  0  0  0  0
  145.9540   73.4000  218.5530 O   0  0  0  0  0  0  0  0  0  0  0  0
  143.0050   73.5470  219.3110 C   0  0  0  0  0  0  0  0  0  0  0  0
  141.6430   73.4930  219.5000 C   0  0  0  0  0  0  0  0  0  0  0  0
  138.5430   76.8200  221.6190 C   0  0  0  0  0  0  0  0  0  0  0  0
  139.4020   77.6880  220.6710 C   0  0  0  0  0  0  0  0  0  0  0  0
  142.8353   80.4866  224.7312 H   0  0  0  0  0  0  0  0  0  0  0  0
  141.2091   80.3466  223.9813 H   0  0  0  0  0  0  0  0  0  0  0  0
  142.3225   78.9370  223.9813 H   0  0  0  0  0  0  0  0  0  0  0  0
  143.2034   81.5202  222.6774 H   0  0  0  0  0  0  0  0  0  0  0  0
  143.6577   79.8085  222.3026 H   0  0  0  0  0  0  0  0  0  0  0  0
  142.3954   76.8734  220.2975 H   0  0  0  0  0  0  0  0  0  0  0  0
  143.2978   76.2597  218.0384 H   0  0  0  0  0  0  0  0  0  0  0  0
  143.2303   77.9519  216.1920 H   0  0  0  0  0  0  0  0  0  0  0  0
  142.2808   80.2097  216.5976 H   0  0  0  0  0  0  0  0  0  0  0  0
  141.3892   80.8117  218.8446 H   0  0  0  0  0  0  0  0  0  0  0  0
  139.9265   78.9726  222.3013 H   0  0  0  0  0  0  0  0  0  0  0  0
  142.1682   77.3961  222.3996 H   0  0  0  0  0  0  0  0  0  0  0  0
  140.6599   77.2643  223.4056 H   0  0  0  0  0  0  0  0  0  0  0  0
  141.1971   75.7997  220.7975 H   0  0  0  0  0  0  0  0  0  0  0  0
  141.2992   75.0977  222.4475 H   0  0  0  0  0  0  0  0  0  0  0  0
  140.1987   73.1141  222.6471 H   0  0  0  0  0  0  0  0  0  0  0  0
  137.3960   72.3290  222.6130 H   0  0  0  0  0  0  0  0  0  0  0  0
  138.6350   72.1800  223.7560 H   0  0  0  0  0  0  0  0  0  0  0  0
  139.3356   71.4438  220.6025 H   0  0  0  0  0  0  0  0  0  0  0  0
  139.0758   73.0938  219.9066 H   0  0  0  0  0  0  0  0  0  0  0  0
  141.4918   71.0607  221.8126 H   0  0  0  0  0  0  0  0  0  0  0  0
  143.9263   71.1423  221.4868 H   0  0  0  0  0  0  0  0  0  0  0  0
  145.9449   73.1859  222.1359 H   0  0  0  0  0  0  0  0  0  0  0  0
  147.3816   73.5768  221.1309 H   0  0  0  0  0  0  0  0  0  0  0  0
  145.9599   74.6747  221.1309 H   0  0  0  0  0  0  0  0  0  0  0  0
  143.4257   74.2649  218.5915 H   0  0  0  0  0  0  0  0  0  0  0  0
  141.0016   74.1740  218.9213 H   0  0  0  0  0  0  0  0  0  0  0  0
  137.5812   76.5567  221.1548 H   0  0  0  0  0  0  0  0  0  0  0  0
  138.2796   77.3263  222.5593 H   0  0  0  0  0  0  0  0  0  0  0  0
  139.8807   77.0698  219.8973 H   0  0  0  0  0  0  0  0  0  0  0  0
  138.8130   78.4418  220.1281 H   0  0  0  0  0  0  0  0  0  0  0  0
  1  2  1  0
  2  3  1  0
  3  4  2  0
  3  5  1  0
  5  6  1  0
  6  7  2  0
  7  8  1  0
  8  9  2  0
  9 10  1  0
 10 11  2  0
  5 12  1  0
 12 13  1  0
 13 14  1  0
 14 15  1  0
 15 16  1  0
 16 17  2  0
 16 18  1  0
 18 19  1  0
 18 20  1  0
 20 21  1  0
 21 22  2  0
 22 23  1  0
 23 24  2  0
 24 25  1  0
 25 26  1  0
 25 27  2  0
 25 28  2  0
 24 29  1  0
 29 30  2  0
 15 31  1  0
 31 32  1  0
 11  6  1  0
 32 12  1  0
 30 21  1  0
  1 33  1  0
  1 34  1  0
  1 35  1  0
  2 36  1  0
  2 37  1  0
  7 38  1  0
  8 39  1  0
  9 40  1  0
 10 41  1  0
 11 42  1  0
 12 43  1  0
 13 44  1  0
 13 45  1  0
 14 46  1  0
 14 47  1  0
 18 48  1  1
 19 49  1  0
 19 50  1  0
 20 51  1  0
 20 52  1  0
 22 53  1  0
 23 54  1  0
 26 55  1  0
 26 56  1  0
 26 57  1  0
 29 58  1  0
 30 59  1  0
 31 60  1  0
 31 61  1  0
 32 62  1  0
 32 63  1  0
M  END
>  <smiles>  (8) 
CCC(=O)N(c1ccccc1)C1CCN(C(=O)[C@@H](N)Cc2ccc(S(C)(=O)=O)cc2)CC1

>  <score_type>  (8) 
oracle

>  <origin>  (8) 
autodockgpu

>  <m_score__min__energy>  (8) 
-8.8800000000000008

>  <m_primary>  (8) 
energy

>  <rmsd>  (8) 
4.727238246592982

>  <m_score__min__rmsd>  (8) 
4.727238246592982

>  <meeko>  (8) 
{"free_energy": -6.63, "intermolecular_energy": -9.31, "internal_energy": -2.94, "cluster_size": 19, "cluster_id": 5, "rank_in_cluster": 18}

>  <energy>  (8) 
-7.89

>  <cluster_rmsd>  (8) 
0.4

>  <cluster>  (8) 
2

$$$$

     RDKit          3D

 63 65  0  0  0  0  0  0  0  0999 V2000
  137.4790   67.7800  222.4450 C   0  0  0  0  0  0  0  0  0  0  0  0
  138.8550   67.3920  222.9730 C   0  0  0  0  0  0  0  0  0  0  0  0
  139.1860   68.1410  224.2390 C   0  0  0  0  0  0  0  0  0  0  0  0
  139.3290   67.4180  225.2580 O   0  0  0  0  0  0  0  0  0  0  0  0
  139.3180   69.5540  224.2380 N   0  0  0  0  0  0  0  0  0  0  0  0
  139.8730   70.1300  225.4500 C   0  0  0  0  0  0  0  0  0  0  0  0
  140.8960   71.0250  225.3410 C   0  0  0  0  0  0  0  0  0  0  0  0
  141.4270   71.5760  226.5030 C   0  0  0  0  0  0  0  0  0  0  0  0
  140.8970   71.1960  227.7440 C   0  0  0  0  0  0  0  0  0  0  0  0
  139.8530   70.2790  227.8120 C   0  0  0  0  0  0  0  0  0  0  0  0
  139.3250   69.7310  226.6660 C   0  0  0  0  0  0  0  0  0  0  0  0
  138.9640   70.4310  223.1740 C   0  0  0  0  0  0  0  0  0  0  0  0
  140.1040   71.0380  222.4530 C   0  0  0  0  0  0  0  0  0  0  0  0
  140.1510   72.5370  222.6170 C   0  0  0  0  0  0  0  0  0  0  0  0
  138.9400   73.1120  222.1040 N   0  0  0  0  0  0  0  0  0  0  0  0
  138.7610   74.3800  221.5350 C   0  0  0  0  0  0  0  0  0  0  0  0
  137.5700   74.6710  221.1050 O   0  0  0  0  0  0  0  0  0  0  0  0
  139.7410   75.4550  221.3490 C   0  0  1  0  0  0  0  0  0  0  0  0
  140.7600   75.4450  222.3460 N   0  0  0  0  0  0  0  0  0  0  0  0
  140.3330   75.3730  219.9360 C   0  0  0  0  0  0  0  0  0  0  0  0
  141.7020   74.8640  219.9650 C   0  0  0  0  0  0  0  0  0  0  0  0
  141.8670   73.4740  220.0180 C   0  0  0  0  0  0  0  0  0  0  0  0
  143.1200   72.8990  220.0590 C   0  0  0  0  0  0  0  0  0  0  0  0
  144.2630   73.6770  220.0480 C   0  0  0  0  0  0  0  0  0  0  0  0
  145.8140   72.8930  220.0990 S   0  0  0  0  0  0  0  0  0  0  0  0
  146.5710   73.2570  221.6660 C   0  0  0  0  0  0  0  0  0  0  0  0
  145.6020   71.4180  219.8950 O   0  0  0  0  0  0  0  0  0  0  0  0
  146.6910   73.4250  219.0110 O   0  0  0  0  0  0  0  0  0  0  0  0
  144.1040   75.0520  219.9960 C   0  0  0  0  0  0  0  0  0  0  0  0
  142.8490   75.6160  219.9550 C   0  0  0  0  0  0  0  0  0  0  0  0
  137.7290   72.2700  222.2260 C   0  0  0  0  0  0  0  0  0  0  0  0
  137.9740   71.5230  223.5570 C   0  0  0  0  0  0  0  0  0  0  0  0
  136.8021   67.9709  223.2908 H   0  0  0  0  0  0  0  0  0  0  0  0
  137.5646   68.6890  221.8315 H   0  0  0  0  0  0  0  0  0  0  0  0
  137.0771   66.9602  221.8315 H   0  0  0  0  0  0  0  0  0  0  0  0
  138.8675   66.3120  223.1817 H   0  0  0  0  0  0  0  0  0  0  0  0
  139.6051   67.6492  222.2107 H   0  0  0  0  0  0  0  0  0  0  0  0
  141.2933   71.3057  224.3544 H   0  0  0  0  0  0  0  0  0  0  0  0
  142.2526   72.3009  226.4486 H   0  0  0  0  0  0  0  0  0  0  0  0
  141.3089   71.6253  228.6692 H   0  0  0  0  0  0  0  0  0  0  0  0
  139.4457   69.9893  228.7919 H   0  0  0  0  0  0  0  0  0  0  0  0
  138.5003   69.0044  226.7088 H   0  0  0  0  0  0  0  0  0  0  0  0
  138.4638   69.7383  222.4812 H   0  0  0  0  0  0  0  0  0  0  0  0
  141.0387   70.6097  222.8441 H   0  0  0  0  0  0  0  0  0  0  0  0
  139.9801   70.8199  221.3820 H   0  0  0  0  0  0  0  0  0  0  0  0
  140.2523   72.7863  223.6836 H   0  0  0  0  0  0  0  0  0  0  0  0
  141.0118   72.9399  222.0633 H   0  0  0  0  0  0  0  0  0  0  0  0
  139.2176   76.4156  221.4638 H   0  0  0  0  0  0  0  0  0  0  0  0
  141.4520   76.2240  222.2730 H   0  0  0  0  0  0  0  0  0  0  0  0
  141.2440   74.5460  222.3460 H   0  0  0  0  0  0  0  0  0  0  0  0
  139.7129   74.6999  219.3258 H   0  0  0  0  0  0  0  0  0  0  0  0
  140.3469   76.3850  219.5052 H   0  0  0  0  0  0  0  0  0  0  0  0
  140.9776   72.8267  220.0271 H   0  0  0  0  0  0  0  0  0  0  0  0
  143.2115   71.8036  220.1011 H   0  0  0  0  0  0  0  0  0  0  0  0
  145.9034   72.9360  222.4791 H   0  0  0  0  0  0  0  0  0  0  0  0
  147.5282   72.7207  221.7442 H   0  0  0  0  0  0  0  0  0  0  0  0
  146.7498   74.3396  221.7442 H   0  0  0  0  0  0  0  0  0  0  0  0
  144.9918   75.7014  219.9874 H   0  0  0  0  0  0  0  0  0  0  0  0
  142.7627   76.7118  219.9126 H   0  0  0  0  0  0  0  0  0  0  0  0
  136.8196   72.8867  222.2777 H   0  0  0  0  0  0  0  0  0  0  0  0
  137.5732   71.5988  221.3685 H   0  0  0  0  0  0  0  0  0  0  0  0
  138.4044   72.1967  224.3126 H   0  0  0  0  0  0  0  0  0  0  0  0
  137.0497   71.1266  224.0026 H   0  0  0  0  0  0  0  0  0  0  0  0
  1  2  1  0
  2  3  1  0
  3  4  2  0
  3  5  1  0
  5  6  1  0
  6  7  2  0
  7  8  1  0
  8  9  2  0
  9 10  1  0
 10 11  2  0
  5 12  1  0
 12 13  1  0
 13 14  1  0
 14 15  1  0
 15 16  1  0
 16 17  2  0
 16 18  1  0
 18 19  1  0
 18 20  1  0
 20 21  1  0
 21 22  2  0
 22 23  1  0
 23 24  2  0
 24 25  1  0
 25 26  1  0
 25 27  2  0
 25 28  2  0
 24 29  1  0
 29 30  2  0
 15 31  1  0
 31 32  1  0
 11  6  1  0
 32 12  1  0
 30 21  1  0
  1 33  1  0
  1 34  1  0
  1 35  1  0
  2 36  1  0
  2 37  1  0
  7 38  1  0
  8 39  1  0
  9 40  1  0
 10 41  1  0
 11 42  1  0
 12 43  1  0
 13 44  1  0
 13 45  1  0
 14 46  1  0
 14 47  1  0
 18 48  1  6
 19 49  1  0
 19 50  1  0
 20 51  1  0
 20 52  1  0
 22 53  1  0
 23 54  1  0
 26 55  1  0
 26 56  1  0
 26 57  1  0
 29 58  1  0
 30 59  1  0
 31 60  1  0
 31 61  1  0
 32 62  1  0
 32 63  1  0
M  END
>  <smiles>  (9) 
CCC(=O)N(c1ccccc1)C1CCN(C(=O)[C@@H](N)Cc2ccc(S(C)(=O)=O)cc2)CC1

>  <score_type>  (9) 
oracle

>  <origin>  (9) 
autodockgpu

>  <m_score__min__energy>  (9) 
-8.8800000000000008

>  <m_primary>  (9) 
energy

>  <rmsd>  (9) 
6.966874776801742

>  <m_score__min__rmsd>  (9) 
6.966874776801742

>  <meeko>  (9) 
{"free_energy": -8.52, "intermolecular_energy": -11.21, "internal_energy": -1.73, "cluster_size": 5, "cluster_id": 1, "rank_in_cluster": 2}

>  <energy>  (9) 
-7.82

>  <cluster_rmsd>  (9) 
1.75

>  <cluster>  (9) 
2

$$$$

     RDKit          3D

 63 65  0  0  0  0  0  0  0  0999 V2000
  142.1520   80.3980  217.0170 C   0  0  0  0  0  0  0  0  0  0  0  0
  142.5580   79.6490  218.2810 C   0  0  0  0  0  0  0  0  0  0  0  0
  141.7490   80.1020  219.4700 C   0  0  0  0  0  0  0  0  0  0  0  0
  141.1430   81.1930  219.3110 O   0  0  0  0  0  0  0  0  0  0  0  0
  141.6990   79.3270  220.6570 N   0  0  0  0  0  0  0  0  0  0  0  0
  141.8850   80.0660  221.8940 C   0  0  0  0  0  0  0  0  0  0  0  0
  143.0550   79.9160  222.5760 C   0  0  0  0  0  0  0  0  0  0  0  0
  143.2310   80.6240  223.7610 C   0  0  0  0  0  0  0  0  0  0  0  0
  142.2060   81.4660  224.2140 C   0  0  0  0  0  0  0  0  0  0  0  0
  141.0260   81.5900  223.4880 C   0  0  0  0  0  0  0  0  0  0  0  0
  140.8460   80.8920  222.3160 C   0  0  0  0  0  0  0  0  0  0  0  0
  141.4830   77.9220  220.7360 C   0  0  0  0  0  0  0  0  0  0  0  0
  140.4610   77.3900  219.8090 C   0  0  0  0  0  0  0  0  0  0  0  0
  139.2720   76.8130  220.5380 C   0  0  0  0  0  0  0  0  0  0  0  0
  139.7080   75.7410  221.3880 N   0  0  0  0  0  0  0  0  0  0  0  0
  138.9870   74.6060  221.7830 C   0  0  0  0  0  0  0  0  0  0  0  0
  139.6050   73.7460  222.5340 O   0  0  0  0  0  0  0  0  0  0  0  0
  137.6040   74.2360  221.4670 C   0  0  1  0  0  0  0  0  0  0  0  0
  137.1780   73.0640  222.1580 N   0  0  0  0  0  0  0  0  0  0  0  0
  136.6760   75.4260  221.7510 C   0  0  0  0  0  0  0  0  0  0  0  0
  135.8790   75.2000  222.9530 C   0  0  0  0  0  0  0  0  0  0  0  0
  134.6540   74.5400  222.7950 C   0  0  0  0  0  0  0  0  0  0  0  0
  133.8260   74.2900  223.8690 C   0  0  0  0  0  0  0  0  0  0  0  0
  134.1770   74.6830  225.1470 C   0  0  0  0  0  0  0  0  0  0  0  0
  133.0920   74.3380  226.4620 S   0  0  0  0  0  0  0  0  0  0  0  0
  131.4320   74.3310  225.8270 C   0  0  0  0  0  0  0  0  0  0  0  0
  133.4830   73.0120  227.0560 O   0  0  0  0  0  0  0  0  0  0  0  0
  133.2000   75.4020  227.5060 O   0  0  0  0  0  0  0  0  0  0  0  0
  135.3880   75.3370  225.3090 C   0  0  0  0  0  0  0  0  0  0  0  0
  136.2070   75.5810  224.2300 C   0  0  0  0  0  0  0  0  0  0  0  0
  141.0750   75.8750  221.9390 C   0  0  0  0  0  0  0  0  0  0  0  0
  141.2060   77.4010  222.1400 C   0  0  0  0  0  0  0  0  0  0  0  0
  141.6445   81.3342  217.2926 H   0  0  0  0  0  0  0  0  0  0  0  0
  143.0488   80.6282  216.4231 H   0  0  0  0  0  0  0  0  0  0  0  0
  141.4696   79.7721  216.4231 H   0  0  0  0  0  0  0  0  0  0  0  0
  142.3962   78.5719  218.1269 H   0  0  0  0  0  0  0  0  0  0  0  0
  143.6189   79.8582  218.4829 H   0  0  0  0  0  0  0  0  0  0  0  0
  143.8439   79.2492  222.1978 H   0  0  0  0  0  0  0  0  0  0  0  0
  144.1637   80.5241  224.3356 H   0  0  0  0  0  0  0  0  0  0  0  0
  142.3354   82.0317  225.1485 H   0  0  0  0  0  0  0  0  0  0  0  0
  140.2285   82.2530  223.8547 H   0  0  0  0  0  0  0  0  0  0  0  0
  139.9168   80.9829  221.7344 H   0  0  0  0  0  0  0  0  0  0  0  0
  142.4605   77.5357  220.4114 H   0  0  0  0  0  0  0  0  0  0  0  0
  140.1148   78.2062  219.1578 H   0  0  0  0  0  0  0  0  0  0  0  0
  140.9240   76.5802  219.2261 H   0  0  0  0  0  0  0  0  0  0  0  0
  138.8001   77.5969  221.1487 H   0  0  0  0  0  0  0  0  0  0  0  0
  138.5438   76.4301  219.8079 H   0  0  0  0  0  0  0  0  0  0  0  0
  137.5554   73.9878  220.3965 H   0  0  0  0  0  0  0  0  0  0  0  0
  136.1420   72.9580  222.2460 H   0  0  0  0  0  0  0  0  0  0  0  0
  137.6130   73.0220  223.0810 H   0  0  0  0  0  0  0  0  0  0  0  0
  137.2856   76.3310  221.8898 H   0  0  0  0  0  0  0  0  0  0  0  0
  135.9923   75.5454  220.8976 H   0  0  0  0  0  0  0  0  0  0  0  0
  134.3452   74.2135  221.7910 H   0  0  0  0  0  0  0  0  0  0  0  0
  132.8708   73.7694  223.7061 H   0  0  0  0  0  0  0  0  0  0  0  0
  130.7190   74.3280  226.6646 H   0  0  0  0  0  0  0  0  0  0  0  0
  131.2710   75.2285  225.2117 H   0  0  0  0  0  0  0  0  0  0  0  0
  131.2786   73.4322  225.2117 H   0  0  0  0  0  0  0  0  0  0  0  0
  135.6985   75.6651  226.3120 H   0  0  0  0  0  0  0  0  0  0  0  0
  137.1614   76.1016  224.3977 H   0  0  0  0  0  0  0  0  0  0  0  0
  141.1730   75.3383  222.8942 H   0  0  0  0  0  0  0  0  0  0  0  0
  141.8537   75.4498  221.2887 H   0  0  0  0  0  0  0  0  0  0  0  0
  140.2739   77.8263  222.5404 H   0  0  0  0  0  0  0  0  0  0  0  0
  141.9917   77.6724  222.8605 H   0  0  0  0  0  0  0  0  0  0  0  0
  1  2  1  0
  2  3  1  0
  3  4  2  0
  3  5  1  0
  5  6  1  0
  6  7  2  0
  7  8  1  0
  8  9  2  0
  9 10  1  0
 10 11  2  0
  5 12  1  0
 12 13  1  0
 13 14  1  0
 14 15  1  0
 15 16  1  0
 16 17  2  0
 16 18  1  0
 18 19  1  0
 18 20  1  0
 20 21  1  0
 21 22  2  0
 22 23  1  0
 23 24  2  0
 24 25  1  0
 25 26  1  0
 25 27  2  0
 25 28  2  0
 24 29  1  0
 29 30  2  0
 15 31  1  0
 31 32  1  0
 11  6  1  0
 32 12  1  0
 30 21  1  0
  1 33  1  0
  1 34  1  0
  1 35  1  0
  2 36  1  0
  2 37  1  0
  7 38  1  0
  8 39  1  0
  9 40  1  0
 10 41  1  0
 11 42  1  0
 12 43  1  0
 13 44  1  0
 13 45  1  0
 14 46  1  0
 14 47  1  0
 18 48  1  6
 19 49  1  0
 19 50  1  0
 20 51  1  0
 20 52  1  0
 22 53  1  0
 23 54  1  0
 26 55  1  0
 26 56  1  0
 26 57  1  0
 29 58  1  0
 30 59  1  0
 31 60  1  0
 31 61  1  0
 32 62  1  0
 32 63  1  0
M  END
>  <smiles>  (10) 
CCC(=O)N(c1ccccc1)C1CCN(C(=O)[C@@H](N)Cc2ccc(S(C)(=O)=O)cc2)CC1

>  <score_type>  (10) 
oracle

>  <origin>  (10) 
autodockgpu

>  <m_score__min__energy>  (10) 
-8.8800000000000008

>  <m_primary>  (10) 
energy

>  <rmsd>  (10) 
5.113167381213421

>  <m_score__min__rmsd>  (10) 
5.113167381213421

>  <meeko>  (10) 
{"free_energy": -7.11, "intermolecular_energy": -9.8, "internal_energy": -2.24, "cluster_size": 3, "cluster_id": 7, "rank_in_cluster": 3}

>  <energy>  (10) 
-7.75

>  <cluster_rmsd>  (10) 
1.69

>  <cluster>  (10) 
2

$$$$

     RDKit          3D

 63 65  0  0  0  0  0  0  0  0999 V2000
  141.1660   67.7630  227.4830 C   0  0  0  0  0  0  0  0  0  0  0  0
  139.7060   67.7720  227.0450 C   0  0  0  0  0  0  0  0  0  0  0  0
  139.5700   68.1890  225.6030 C   0  0  0  0  0  0  0  0  0  0  0  0
  139.4500   67.2390  224.7880 O   0  0  0  0  0  0  0  0  0  0  0  0
  139.5800   69.5590  225.2350 N   0  0  0  0  0  0  0  0  0  0  0  0
  140.1840   70.4610  226.1990 C   0  0  0  0  0  0  0  0  0  0  0  0
  141.2620   71.2010  225.8180 C   0  0  0  0  0  0  0  0  0  0  0  0
  141.8400   72.0650  226.7430 C   0  0  0  0  0  0  0  0  0  0  0  0
  141.2970   72.1470  228.0330 C   0  0  0  0  0  0  0  0  0  0  0  0
  140.1950   71.3740  228.3830 C   0  0  0  0  0  0  0  0  0  0  0  0
  139.6210   70.5180  227.4720 C   0  0  0  0  0  0  0  0  0  0  0  0
  139.0630   70.1090  224.0270 C   0  0  0  0  0  0  0  0  0  0  0  0
  140.0640   70.7560  223.1510 C   0  0  0  0  0  0  0  0  0  0  0  0
  139.8190   72.2370  223.0000 C   0  0  0  0  0  0  0  0  0  0  0  0
  138.5200   72.4500  222.4280 N   0  0  0  0  0  0  0  0  0  0  0  0
  138.0980   73.5120  221.6160 C   0  0  0  0  0  0  0  0  0  0  0  0
  136.8740   73.4750  221.1840 O   0  0  0  0  0  0  0  0  0  0  0  0
  138.8510   74.6900  221.1740 C   0  0  1  0  0  0  0  0  0  0  0  0
  139.8560   75.0800  222.1070 N   0  0  0  0  0  0  0  0  0  0  0  0
  139.4430   74.4290  219.7820 C   0  0  0  0  0  0  0  0  0  0  0  0
  140.8700   74.1320  219.8620 C   0  0  0  0  0  0  0  0  0  0  0  0
  141.2520   72.7890  219.7450 C   0  0  0  0  0  0  0  0  0  0  0  0
  142.5760   72.4080  219.8180 C   0  0  0  0  0  0  0  0  0  0  0  0
  143.5770   73.3410  220.0090 C   0  0  0  0  0  0  0  0  0  0  0  0
  145.2280   72.7990  220.0910 S   0  0  0  0  0  0  0  0  0  0  0  0
  145.9510   73.4380  221.5830 C   0  0  0  0  0  0  0  0  0  0  0  0
  145.2300   71.2950  220.0520 O   0  0  0  0  0  0  0  0  0  0  0  0
  145.9970   73.3280  218.9230 O   0  0  0  0  0  0  0  0  0  0  0  0
  143.2040   74.6700  220.1260 C   0  0  0  0  0  0  0  0  0  0  0  0
  141.8810   75.0400  220.0520 C   0  0  0  0  0  0  0  0  0  0  0  0
  137.4950   71.4380  222.7690 C   0  0  0  0  0  0  0  0  0  0  0  0
  137.8800   71.0490  224.2150 C   0  0  0  0  0  0  0  0  0  0  0  0
  141.2192   67.7627  228.5817 H   0  0  0  0  0  0  0  0  0  0  0  0
  141.6607   66.8618  227.0917 H   0  0  0  0  0  0  0  0  0  0  0  0
  141.6717   68.6580  227.0917 H   0  0  0  0  0  0  0  0  0  0  0  0
  139.2890   66.7614  227.1667 H   0  0  0  0  0  0  0  0  0  0  0  0
  139.1606   68.4954  227.6688 H   0  0  0  0  0  0  0  0  0  0  0  0
  141.6678   71.1173  224.7990 H   0  0  0  0  0  0  0  0  0  0  0  0
  142.7118   72.6758  226.4657 H   0  0  0  0  0  0  0  0  0  0  0  0
  141.7452   72.8267  228.7727 H   0  0  0  0  0  0  0  0  0  0  0  0
  139.7784   71.4479  229.3983 H   0  0  0  0  0  0  0  0  0  0  0  0
  138.7499   69.9015  227.7387 H   0  0  0  0  0  0  0  0  0  0  0  0
  138.7073   69.2036  223.5134 H   0  0  0  0  0  0  0  0  0  0  0  0
  141.0638   70.6050  223.5842 H   0  0  0  0  0  0  0  0  0  0  0  0
  139.9855   70.2980  222.1540 H   0  0  0  0  0  0  0  0  0  0  0  0
  139.8688   72.7196  223.9872 H   0  0  0  0  0  0  0  0  0  0  0  0
  140.5858   72.6707  222.3414 H   0  0  0  0  0  0  0  0  0  0  0  0
  138.1522   75.5375  221.1146 H   0  0  0  0  0  0  0  0  0  0  0  0
  139.6190   74.9000  223.1080 H   0  0  0  0  0  0  0  0  0  0  0  0
  140.0940   76.0640  221.9760 H   0  0  0  0  0  0  0  0  0  0  0  0
  138.9235   73.5733  219.3259 H   0  0  0  0  0  0  0  0  0  0  0  0
  139.3095   75.3343  219.1716 H   0  0  0  0  0  0  0  0  0  0  0  0
  140.4792   72.0214  219.5915 H   0  0  0  0  0  0  0  0  0  0  0  0
  142.8390   71.3442  219.7226 H   0  0  0  0  0  0  0  0  0  0  0  0
  145.4477   72.9932  222.4541 H   0  0  0  0  0  0  0  0  0  0  0  0
  147.0212   73.1852  221.6093 H   0  0  0  0  0  0  0  0  0  0  0  0
  145.8317   74.5312  221.6093 H   0  0  0  0  0  0  0  0  0  0  0  0
  143.9753   75.4391  220.2800 H   0  0  0  0  0  0  0  0  0  0  0  0
  141.6237   76.1051  220.1489 H   0  0  0  0  0  0  0  0  0  0  0  0
  136.4831   71.8674  222.7285 H   0  0  0  0  0  0  0  0  0  0  0  0
  137.4726   70.5844  222.0756 H   0  0  0  0  0  0  0  0  0  0  0  0
  138.1712   71.9361  224.7965 H   0  0  0  0  0  0  0  0  0  0  0  0
  137.0500   70.5875  224.7700 H   0  0  0  0  0  0  0  0  0  0  0  0
  1  2  1  0
  2  3  1  0
  3  4  2  0
  3  5  1  0
  5  6  1  0
  6  7  2  0
  7  8  1  0
  8  9  2  0
  9 10  1  0
 10 11  2  0
  5 12  1  0
 12 13  1  0
 13 14  1  0
 14 15  1  0
 15 16  1  0
 16 17  2  0
 16 18  1  0
 18 19  1  0
 18 20  1  0
 20 21  1  0
 21 22  2  0
 22 23  1  0
 23 24  2  0
 24 25  1  0
 25 26  1  0
 25 27  2  0
 25 28  2  0
 24 29  1  0
 29 30  2  0
 15 31  1  0
 31 32  1  0
 11  6  1  0
 32 12  1  0
 30 21  1  0
  1 33  1  0
  1 34  1  0
  1 35  1  0
  2 36  1  0
  2 37  1  0
  7 38  1  0
  8 39  1  0
  9 40  1  0
 10 41  1  0
 11 42  1  0
 12 43  1  0
 13 44  1  0
 13 45  1  0
 14 46  1  0
 14 47  1  0
 18 48  1  6
 19 49  1  0
 19 50  1  0
 20 51  1  0
 20 52  1  0
 22 53  1  0
 23 54  1  0
 26 55  1  0
 26 56  1  0
 26 57  1  0
 29 58  1  0
 30 59  1  0
 31 60  1  0
 31 61  1  0
 32 62  1  0
 32 63  1  0
M  END
>  <smiles>  (11) 
CCC(=O)N(c1ccccc1)C1CCN(C(=O)[C@@H](N)Cc2ccc(S(C)(=O)=O)cc2)CC1

>  <score_type>  (11) 
oracle

>  <origin>  (11) 
autodockgpu

>  <m_score__min__energy>  (11) 
-8.8800000000000008

>  <m_primary>  (11) 
energy

>  <rmsd>  (11) 
7.472366075575652

>  <m_score__min__rmsd>  (11) 
7.472366075575652

>  <meeko>  (11) 
{"free_energy": -8.88, "intermolecular_energy": -11.56, "internal_energy": -1.38, "cluster_size": 5, "cluster_id": 1, "rank_in_cluster": 1}

>  <energy>  (11) 
-7.7

>  <cluster_rmsd>  (11) 
1.96

>  <cluster>  (11) 
2

$$$$

     RDKit          3D

 63 65  0  0  0  0  0  0  0  0999 V2000
  143.2850   80.5080  223.5240 C   0  0  0  0  0  0  0  0  0  0  0  0
  142.1410   81.5080  223.6390 C   0  0  0  0  0  0  0  0  0  0  0  0
  141.2740   81.4930  222.4050 C   0  0  0  0  0  0  0  0  0  0  0  0
  140.8870   82.6250  222.0180 O   0  0  0  0  0  0  0  0  0  0  0  0
  140.9440   80.2730  221.7600 N   0  0  0  0  0  0  0  0  0  0  0  0
  141.4700   80.1150  220.4150 C   0  0  0  0  0  0  0  0  0  0  0  0
  141.8280   78.8690  219.9950 C   0  0  0  0  0  0  0  0  0  0  0  0
  142.3330   78.7200  218.7070 C   0  0  0  0  0  0  0  0  0  0  0  0
  142.4570   79.8490  217.8860 C   0  0  0  0  0  0  0  0  0  0  0  0
  142.0810   81.1040  218.3540 C   0  0  0  0  0  0  0  0  0  0  0  0
  141.5820   81.2570  219.6260 C   0  0  0  0  0  0  0  0  0  0  0  0
  140.1610   79.2170  222.3070 C   0  0  0  0  0  0  0  0  0  0  0  0
  140.9350   78.0990  222.8900 C   0  0  0  0  0  0  0  0  0  0  0  0
  140.7220   76.8050  222.1430 C   0  0  0  0  0  0  0  0  0  0  0  0
  139.3300   76.4550  222.1820 N   0  0  0  0  0  0  0  0  0  0  0  0
  138.7620   75.1750  222.1530 C   0  0  0  0  0  0  0  0  0  0  0  0
  137.4680   75.1010  222.2340 O   0  0  0  0  0  0  0  0  0  0  0  0
  139.4270   73.8730  222.0390 C   0  0  1  0  0  0  0  0  0  0  0  0
  138.6910   72.8250  222.6660 N   0  0  0  0  0  0  0  0  0  0  0  0
  139.7020   73.5630  220.5610 C   0  0  0  0  0  0  0  0  0  0  0  0
  141.1320   73.4020  220.3130 C   0  0  0  0  0  0  0  0  0  0  0  0
  141.6720   72.1210  220.4850 C   0  0  0  0  0  0  0  0  0  0  0  0
  143.0130   71.8720  220.2840 C   0  0  0  0  0  0  0  0  0  0  0  0
  143.8770   72.8820  219.9020 C   0  0  0  0  0  0  0  0  0  0  0  0
  145.5580   72.5050  219.6620 S   0  0  0  0  0  0  0  0  0  0  0  0
  145.6890   70.7790  219.2590 C   0  0  0  0  0  0  0  0  0  0  0  0
  146.0850   73.3900  218.5660 O   0  0  0  0  0  0  0  0  0  0  0  0
  146.3240   72.7610  220.9200 O   0  0  0  0  0  0  0  0  0  0  0  0
  143.3480   74.1510  219.7310 C   0  0  0  0  0  0  0  0  0  0  0  0
  142.0080   74.3880  219.9340 C   0  0  0  0  0  0  0  0  0  0  0  0
  138.3840   77.5930  222.2220 C   0  0  0  0  0  0  0  0  0  0  0  0
  139.1050   78.6570  221.3650 C   0  0  0  0  0  0  0  0  0  0  0  0
  143.6192   80.2159  224.5305 H   0  0  0  0  0  0  0  0  0  0  0  0
  142.9397   79.6169  222.9793 H   0  0  0  0  0  0  0  0  0  0  0  0
  144.1219   80.9693  222.9793 H   0  0  0  0  0  0  0  0  0  0  0  0
  141.5251   81.2490  224.5128 H   0  0  0  0  0  0  0  0  0  0  0  0
  142.5698   82.5149  223.7499 H   0  0  0  0  0  0  0  0  0  0  0  0
  141.7201   77.9995  220.6601 H   0  0  0  0  0  0  0  0  0  0  0  0
  142.6313   77.7278  218.3376 H   0  0  0  0  0  0  0  0  0  0  0  0
  142.8539   79.7422  216.8657 H   0  0  0  0  0  0  0  0  0  0  0  0
  142.1839   81.9825  217.7000 H   0  0  0  0  0  0  0  0  0  0  0  0
  141.2824   82.2447  220.0063 H   0  0  0  0  0  0  0  0  0  0  0  0
  139.6479   79.7340  223.1313 H   0  0  0  0  0  0  0  0  0  0  0  0
  142.0045   78.3543  222.8578 H   0  0  0  0  0  0  0  0  0  0  0  0
  140.5884   77.9523  223.9236 H   0  0  0  0  0  0  0  0  0  0  0  0
  141.0402   76.9283  221.0973 H   0  0  0  0  0  0  0  0  0  0  0  0
  141.3147   76.0071  222.6142 H   0  0  0  0  0  0  0  0  0  0  0  0
  140.3840   73.9324  222.5782 H   0  0  0  0  0  0  0  0  0  0  0  0
  137.7260   73.0860  222.9690 H   0  0  0  0  0  0  0  0  0  0  0  0
  139.2160   72.4530  223.4590 H   0  0  0  0  0  0  0  0  0  0  0  0
  139.1832   72.6326  220.2869 H   0  0  0  0  0  0  0  0  0  0  0  0
  139.3356   74.4043  219.9544 H   0  0  0  0  0  0  0  0  0  0  0  0
  141.0112   71.2951  220.7872 H   0  0  0  0  0  0  0  0  0  0  0  0
  143.4020   70.8535  220.4298 H   0  0  0  0  0  0  0  0  0  0  0  0
  145.7338   70.1884  220.1859 H   0  0  0  0  0  0  0  0  0  0  0  0
  144.8116   70.4722  218.6708 H   0  0  0  0  0  0  0  0  0  0  0  0
  146.6027   70.6081  218.6708 H   0  0  0  0  0  0  0  0  0  0  0  0
  144.0069   74.9786  219.4295 H   0  0  0  0  0  0  0  0  0  0  0  0
  141.6237   75.4081  219.7867 H   0  0  0  0  0  0  0  0  0  0  0  0
  137.4137   77.3190  221.7822 H   0  0  0  0  0  0  0  0  0  0  0  0
  138.1517   77.9347  223.2415 H   0  0  0  0  0  0  0  0  0  0  0  0
  139.5709   78.1991  220.4800 H   0  0  0  0  0  0  0  0  0  0  0  0
  138.4235   79.4290  220.9783 H   0  0  0  0  0  0  0  0  0  0  0  0
  1  2  1  0
  2  3  1  0
  3  4  2  0
  3  5  1  0
  5  6  1  0
  6  7  2  0
  7  8  1  0
  8  9  2  0
  9 10  1  0
 10 11  2  0
  5 12  1  0
 12 13  1  0
 13 14  1  0
 14 15  1  0
 15 16  1  0
 16 17  2  0
 16 18  1  0
 18 19  1  0
 18 20  1  0
 20 21  1  0
 21 22  2  0
 22 23  1  0
 23 24  2  0
 24 25  1  0
 25 26  1  0
 25 27  2  0
 25 28  2  0
 24 29  1  0
 29 30  2  0
 15 31  1  0
 31 32  1  0
 11  6  1  0
 32 12  1  0
 30 21  1  0
  1 33  1  0
  1 34  1  0
  1 35  1  0
  2 36  1  0
  2 37  1  0
  7 38  1  0
  8 39  1  0
  9 40  1  0
 10 41  1  0
 11 42  1  0
 12 43  1  0
 13 44  1  0
 13 45  1  0
 14 46  1  0
 14 47  1  0
 18 48  1  1
 19 49  1  0
 19 50  1  0
 20 51  1  0
 20 52  1  0
 22 53  1  0
 23 54  1  0
 26 55  1  0
 26 56  1  0
 26 57  1  0
 29 58  1  0
 30 59  1  0
 31 60  1  0
 31 61  1  0
 32 62  1  0
 32 63  1  0
M  END
>  <smiles>  (12) 
CCC(=O)N(c1ccccc1)C1CCN(C(=O)[C@@H](N)Cc2ccc(S(C)(=O)=O)cc2)CC1

>  <score_type>  (12) 
oracle

>  <origin>  (12) 
autodockgpu

>  <m_score__min__energy>  (12) 
-8.8800000000000008

>  <m_primary>  (12) 
energy

>  <rmsd>  (12) 
4.103600581438743

>  <m_score__min__rmsd>  (12) 
4.103600581438743

>  <meeko>  (12) 
{"free_energy": -7.0, "intermolecular_energy": -9.68, "internal_energy": -2.53, "cluster_size": 19, "cluster_id": 5, "rank_in_cluster": 9}

>  <energy>  (12) 
-7.83

>  <cluster_rmsd>  (12) 
0.0

>  <cluster>  (12) 
3

$$$$

     RDKit          3D

 63 65  0  0  0  0  0  0  0  0999 V2000
  142.1870   80.0910  223.9060 C   0  0  0  0  0  0  0  0  0  0  0  0
  142.8000   80.5190  222.5780 C   0  0  0  0  0  0  0  0  0  0  0  0
  141.7850   80.4660  221.4640 C   0  0  0  0  0  0  0  0  0  0  0  0
  141.4000   81.5880  221.0480 O   0  0  0  0  0  0  0  0  0  0  0  0
  141.3260   79.2250  220.9520 N   0  0  0  0  0  0  0  0  0  0  0  0
  141.8360   78.8630  219.6420 C   0  0  0  0  0  0  0  0  0  0  0  0
  141.7430   79.7690  218.6290 C   0  0  0  0  0  0  0  0  0  0  0  0
  142.2320   79.4210  217.3740 C   0  0  0  0  0  0  0  0  0  0  0  0
  142.8010   78.1530  217.1900 C   0  0  0  0  0  0  0  0  0  0  0  0
  142.8770   77.2550  218.2500 C   0  0  0  0  0  0  0  0  0  0  0  0
  142.3950   77.5960  219.4930 C   0  0  0  0  0  0  0  0  0  0  0  0
  140.4320   78.3270  221.6020 C   0  0  0  0  0  0  0  0  0  0  0  0
  141.0800   77.2400  222.3690 C   0  0  0  0  0  0  0  0  0  0  0  0
  140.7770   75.8770  221.7970 C   0  0  0  0  0  0  0  0  0  0  0  0
  139.3590   75.6550  221.8160 N   0  0  0  0  0  0  0  0  0  0  0  0
  138.6780   74.4360  221.9360 C   0  0  0  0  0  0  0  0  0  0  0  0
  137.3810   74.4850  221.9650 O   0  0  0  0  0  0  0  0  0  0  0  0
  139.2260   73.0800  222.0340 C   0  0  1  0  0  0  0  0  0  0  0  0
  138.3590   72.1870  222.7290 N   0  0  0  0  0  0  0  0  0  0  0  0
  139.5640   72.5590  220.6300 C   0  0  0  0  0  0  0  0  0  0  0  0
  140.9990   72.6390  220.3690 C   0  0  0  0  0  0  0  0  0  0  0  0
  141.8360   71.8170  221.1340 C   0  0  0  0  0  0  0  0  0  0  0  0
  143.2050   71.8280  220.9680 C   0  0  0  0  0  0  0  0  0  0  0  0
  143.8030   72.6550  220.0340 C   0  0  0  0  0  0  0  0  0  0  0  0
  145.5340   72.6220  219.8690 S   0  0  0  0  0  0  0  0  0  0  0  0
  146.2440   73.3970  221.3020 C   0  0  0  0  0  0  0  0  0  0  0  0
  145.9650   71.1890  219.7210 O   0  0  0  0  0  0  0  0  0  0  0  0
  145.9450   73.3940  218.6560 O   0  0  0  0  0  0  0  0  0  0  0  0
  142.9790   73.4700  219.2750 C   0  0  0  0  0  0  0  0  0  0  0  0
  141.6140   73.4500  219.4490 C   0  0  0  0  0  0  0  0  0  0  0  0
  138.5190   76.8640  221.6550 C   0  0  0  0  0  0  0  0  0  0  0  0
  139.3640   77.7320  220.6950 C   0  0  0  0  0  0  0  0  0  0  0  0
  142.7805   80.5054  224.7343 H   0  0  0  0  0  0  0  0  0  0  0  0
  141.1549   80.4658  223.9711 H   0  0  0  0  0  0  0  0  0  0  0  0
  142.1832   78.9929  223.9711 H   0  0  0  0  0  0  0  0  0  0  0  0
  143.1756   81.5486  222.6719 H   0  0  0  0  0  0  0  0  0  0  0  0
  143.6194   79.8267  222.3345 H   0  0  0  0  0  0  0  0  0  0  0  0
  141.2900   80.7567  218.8000 H   0  0  0  0  0  0  0  0  0  0  0  0
  142.1729   80.1318  216.5366 H   0  0  0  0  0  0  0  0  0  0  0  0
  143.1897   77.8664  216.2017 H   0  0  0  0  0  0  0  0  0  0  0  0
  143.3265   76.2634  218.0930 H   0  0  0  0  0  0  0  0  0  0  0  0
  142.4492   76.8937  220.3379 H   0  0  0  0  0  0  0  0  0  0  0  0
  139.9400   78.9958  222.3236 H   0  0  0  0  0  0  0  0  0  0  0  0
  142.1687   77.3963  222.3533 H   0  0  0  0  0  0  0  0  0  0  0  0
  140.6849   77.2700  223.3951 H   0  0  0  0  0  0  0  0  0  0  0  0
  141.1426   75.8246  220.7608 H   0  0  0  0  0  0  0  0  0  0  0  0
  141.2771   75.1060  222.4015 H   0  0  0  0  0  0  0  0  0  0  0  0
  140.1481   73.1293  222.6317 H   0  0  0  0  0  0  0  0  0  0  0  0
  137.3390   72.3560  222.5750 H   0  0  0  0  0  0  0  0  0  0  0  0
  138.5670   72.2020  223.7290 H   0  0  0  0  0  0  0  0  0  0  0  0
  139.2424   71.5102  220.5493 H   0  0  0  0  0  0  0  0  0  0  0  0
  139.0399   73.1829  219.8911 H   0  0  0  0  0  0  0  0  0  0  0  0
  141.3912   71.1471  221.8846 H   0  0  0  0  0  0  0  0  0  0  0  0
  143.8310   71.1692  221.5877 H   0  0  0  0  0  0  0  0  0  0  0  0
  145.8256   72.9403  222.2110 H   0  0  0  0  0  0  0  0  0  0  0  0
  147.3352   73.2585  221.2910 H   0  0  0  0  0  0  0  0  0  0  0  0
  146.0107   74.4719  221.2910 H   0  0  0  0  0  0  0  0  0  0  0  0
  143.4212   74.1413  218.5241 H   0  0  0  0  0  0  0  0  0  0  0  0
  140.9919   74.1098  218.8264 H   0  0  0  0  0  0  0  0  0  0  0  0
  137.5439   76.6145  221.2113 H   0  0  0  0  0  0  0  0  0  0  0  0
  138.2829   77.3641  222.6059 H   0  0  0  0  0  0  0  0  0  0  0  0
  139.8178   77.1163  219.9045 H   0  0  0  0  0  0  0  0  0  0  0  0
  138.7699   78.4968  220.1733 H   0  0  0  0  0  0  0  0  0  0  0  0
  1  2  1  0
  2  3  1  0
  3  4  2  0
  3  5  1  0
  5  6  1  0
  6  7  2  0
  7  8  1  0
  8  9  2  0
  9 10  1  0
 10 11  2  0
  5 12  1  0
 12 13  1  0
 13 14  1  0
 14 15  1  0
 15 16  1  0
 16 17  2  0
 16 18  1  0
 18 19  1  0
 18 20  1  0
 20 21  1  0
 21 22  2  0
 22 23  1  0
 23 24  2  0
 24 25  1  0
 25 26  1  0
 25 27  2  0
 25 28  2  0
 24 29  1  0
 29 30  2  0
 15 31  1  0
 31 32  1  0
 11  6  1  0
 32 12  1  0
 30 21  1  0
  1 33  1  0
  1 34  1  0
  1 35  1  0
  2 36  1  0
  2 37  1  0
  7 38  1  0
  8 39  1  0
  9 40  1  0
 10 41  1  0
 11 42  1  0
 12 43  1  0
 13 44  1  0
 13 45  1  0
 14 46  1  0
 14 47  1  0
 18 48  1  1
 19 49  1  0
 19 50  1  0
 20 51  1  0
 20 52  1  0
 22 53  1  0
 23 54  1  0
 26 55  1  0
 26 56  1  0
 26 57  1  0
 29 58  1  0
 30 59  1  0
 31 60  1  0
 31 61  1  0
 32 62  1  0
 32 63  1  0
M  END
>  <smiles>  (13) 
CCC(=O)N(c1ccccc1)C1CCN(C(=O)[C@@H](N)Cc2ccc(S(C)(=O)=O)cc2)CC1

>  <score_type>  (13) 
oracle

>  <origin>  (13) 
autodockgpu

>  <m_score__min__energy>  (13) 
-8.8800000000000008

>  <m_primary>  (13) 
energy

>  <rmsd>  (13) 
4.699147587175132

>  <m_score__min__rmsd>  (13) 
4.699147587175132

>  <meeko>  (13) 
{"free_energy": -6.67, "intermolecular_energy": -9.35, "internal_energy": -2.92, "cluster_size": 19, "cluster_id": 5, "rank_in_cluster": 17}

>  <energy>  (13) 
-7.75

>  <cluster_rmsd>  (13) 
0.0

>  <cluster>  (13) 
4

$$$$

     RDKit          3D

 63 65  0  0  0  0  0  0  0  0999 V2000
  142.5010   81.0460  223.9610 C   0  0  0  0  0  0  0  0  0  0  0  0
  142.9310   80.1950  222.7720 C   0  0  0  0  0  0  0  0  0  0  0  0
  141.9150   80.2550  221.6600 C   0  0  0  0  0  0  0  0  0  0  0  0
  141.5770   81.4160  221.3150 O   0  0  0  0  0  0  0  0  0  0  0  0
  141.4050   79.0690  221.0720 N   0  0  0  0  0  0  0  0  0  0  0  0
  141.8950   78.7710  219.7380 C   0  0  0  0  0  0  0  0  0  0  0  0
  141.7930   79.7290  218.7740 C   0  0  0  0  0  0  0  0  0  0  0  0
  142.2630   79.4420  217.4960 C   0  0  0  0  0  0  0  0  0  0  0  0
  142.8240   78.1830  217.2410 C   0  0  0  0  0  0  0  0  0  0  0  0
  142.9090   77.2320  218.2530 C   0  0  0  0  0  0  0  0  0  0  0  0
  142.4450   77.5110  219.5170 C   0  0  0  0  0  0  0  0  0  0  0  0
  140.4780   78.1670  221.6680 C   0  0  0  0  0  0  0  0  0  0  0  0
  141.0800   77.1110  222.5100 C   0  0  0  0  0  0  0  0  0  0  0  0
  140.8500   75.7300  221.9470 C   0  0  0  0  0  0  0  0  0  0  0  0
  139.4390   75.4800  221.8570 N   0  0  0  0  0  0  0  0  0  0  0  0
  138.7730   74.2500  221.9500 C   0  0  0  0  0  0  0  0  0  0  0  0
  137.4770   74.2740  221.8730 O   0  0  0  0  0  0  0  0  0  0  0  0
  139.3360   72.9080  222.1230 C   0  0  1  0  0  0  0  0  0  0  0  0
  138.4800   72.0470  222.8710 N   0  0  0  0  0  0  0  0  0  0  0  0
  139.6760   72.3120  220.7500 C   0  0  0  0  0  0  0  0  0  0  0  0
  141.0940   72.4750  220.4400 C   0  0  0  0  0  0  0  0  0  0  0  0
  141.9990   71.6560  221.1270 C   0  0  0  0  0  0  0  0  0  0  0  0
  143.3580   71.7430  220.9100 C   0  0  0  0  0  0  0  0  0  0  0  0
  143.8790   72.6470  220.0020 C   0  0  0  0  0  0  0  0  0  0  0  0
  145.6010   72.7090  219.7710 S   0  0  0  0  0  0  0  0  0  0  0  0
  146.3100   73.6350  221.1120 C   0  0  0  0  0  0  0  0  0  0  0  0
  146.1180   71.2980  219.7140 O   0  0  0  0  0  0  0  0  0  0  0  0
  145.9190   73.4080  218.4880 O   0  0  0  0  0  0  0  0  0  0  0  0
  142.9880   73.4610  219.3210 C   0  0  0  0  0  0  0  0  0  0  0  0
  141.6330   73.3650  219.5450 C   0  0  0  0  0  0  0  0  0  0  0  0
  138.5930   76.6670  221.6010 C   0  0  0  0  0  0  0  0  0  0  0  0
  139.4970   77.5310  220.6920 C   0  0  0  0  0  0  0  0  0  0  0  0
  142.7624   80.5286  224.8959 H   0  0  0  0  0  0  0  0  0  0  0  0
  143.0167   82.0168  223.9226 H   0  0  0  0  0  0  0  0  0  0  0  0
  141.4135   81.2068  223.9226 H   0  0  0  0  0  0  0  0  0  0  0  0
  143.8960   80.5659  222.3962 H   0  0  0  0  0  0  0  0  0  0  0  0
  143.0191   79.1507  223.1061 H   0  0  0  0  0  0  0  0  0  0  0  0
  141.3482   80.7090  219.0015 H   0  0  0  0  0  0  0  0  0  0  0  0
  142.1951   80.1938  216.6959 H   0  0  0  0  0  0  0  0  0  0  0  0
  143.1993   77.9454  216.2347 H   0  0  0  0  0  0  0  0  0  0  0  0
  143.3515   76.2477  218.0400 H   0  0  0  0  0  0  0  0  0  0  0  0
  142.5061   76.7661  220.3241 H   0  0  0  0  0  0  0  0  0  0  0  0
  139.9174   78.8420  222.3315 H   0  0  0  0  0  0  0  0  0  0  0  0
  142.1633   77.2888  222.5799 H   0  0  0  0  0  0  0  0  0  0  0  0
  140.6013   77.1554  223.4994 H   0  0  0  0  0  0  0  0  0  0  0  0
  141.2992   75.6627  220.9451 H   0  0  0  0  0  0  0  0  0  0  0  0
  141.3140   74.9824  222.6072 H   0  0  0  0  0  0  0  0  0  0  0  0
  140.2593   73.0004  222.7137 H   0  0  0  0  0  0  0  0  0  0  0  0
  138.0780   71.2490  222.3280 H   0  0  0  0  0  0  0  0  0  0  0  0
  137.7300   72.5870  223.3050 H   0  0  0  0  0  0  0  0  0  0  0  0
  139.4304   71.2398  220.7535 H   0  0  0  0  0  0  0  0  0  0  0  0
  139.0891   72.8418  219.9852 H   0  0  0  0  0  0  0  0  0  0  0  0
  141.6169   70.9266  221.8564 H   0  0  0  0  0  0  0  0  0  0  0  0
  144.0385   71.0830  221.4679 H   0  0  0  0  0  0  0  0  0  0  0  0
  145.9805   73.2047  222.0692 H   0  0  0  0  0  0  0  0  0  0  0  0
  147.4073   73.5907  221.0484 H   0  0  0  0  0  0  0  0  0  0  0  0
  145.9810   74.6827  221.0484 H   0  0  0  0  0  0  0  0  0  0  0  0
  143.3679   74.1926  218.5927 H   0  0  0  0  0  0  0  0  0  0  0  0
  140.9563   74.0272  218.9850 H   0  0  0  0  0  0  0  0  0  0  0  0
  137.6618   76.3881  221.0862 H   0  0  0  0  0  0  0  0  0  0  0  0
  138.2713   77.1827  222.5178 H   0  0  0  0  0  0  0  0  0  0  0  0
  140.0241   76.9075  219.9548 H   0  0  0  0  0  0  0  0  0  0  0  0
  138.9330   78.2724  220.1070 H   0  0  0  0  0  0  0  0  0  0  0  0
  1  2  1  0
  2  3  1  0
  3  4  2  0
  3  5  1  0
  5  6  1  0
  6  7  2  0
  7  8  1  0
  8  9  2  0
  9 10  1  0
 10 11  2  0
  5 12  1  0
 12 13  1  0
 13 14  1  0
 14 15  1  0
 15 16  1  0
 16 17  2  0
 16 18  1  0
 18 19  1  0
 18 20  1  0
 20 21  1  0
 21 22  2  0
 22 23  1  0
 23 24  2  0
 24 25  1  0
 25 26  1  0
 25 27  2  0
 25 28  2  0
 24 29  1  0
 29 30  2  0
 15 31  1  0
 31 32  1  0
 11  6  1  0
 32 12  1  0
 30 21  1  0
  1 33  1  0
  1 34  1  0
  1 35  1  0
  2 36  1  0
  2 37  1  0
  7 38  1  0
  8 39  1  0
  9 40  1  0
 10 41  1  0
 11 42  1  0
 12 43  1  0
 13 44  1  0
 13 45  1  0
 14 46  1  0
 14 47  1  0
 18 48  1  1
 19 49  1  0
 19 50  1  0
 20 51  1  0
 20 52  1  0
 22 53  1  0
 23 54  1  0
 26 55  1  0
 26 56  1  0
 26 57  1  0
 29 58  1  0
 30 59  1  0
 31 60  1  0
 31 61  1  0
 32 62  1  0
 32 63  1  0
M  END
>  <smiles>  (14) 
CCC(=O)N(c1ccccc1)C1CCN(C(=O)[C@@H](N)Cc2ccc(S(C)(=O)=O)cc2)CC1

>  <score_type>  (14) 
oracle

>  <origin>  (14) 
autodockgpu

>  <m_score__min__energy>  (14) 
-8.8800000000000008

>  <m_primary>  (14) 
energy

>  <rmsd>  (14) 
4.867780397999617

>  <m_score__min__rmsd>  (14) 
4.867780397999617

>  <meeko>  (14) 
{"free_energy": -6.86, "intermolecular_energy": -9.54, "internal_energy": -2.93, "cluster_size": 19, "cluster_id": 5, "rank_in_cluster": 13}

>  <energy>  (14) 
-7.67

>  <cluster_rmsd>  (14) 
1.52

>  <cluster>  (14) 
4

$$$$

     RDKit          3D

 63 65  0  0  0  0  0  0  0  0999 V2000
  142.5480   76.9040  219.6430 C   0  0  0  0  0  0  0  0  0  0  0  0
  142.1670   78.3540  219.3710 C   0  0  0  0  0  0  0  0  0  0  0  0
  140.8340   78.6950  219.9880 C   0  0  0  0  0  0  0  0  0  0  0  0
  139.9600   79.0860  219.1730 O   0  0  0  0  0  0  0  0  0  0  0  0
  140.6220   78.5710  221.3850 N   0  0  0  0  0  0  0  0  0  0  0  0
  141.2200   79.6110  222.2030 C   0  0  0  0  0  0  0  0  0  0  0  0
  142.0620   79.2490  223.2120 C   0  0  0  0  0  0  0  0  0  0  0  0
  142.6330   80.2470  223.9950 C   0  0  0  0  0  0  0  0  0  0  0  0
  142.3270   81.5880  223.7240 C   0  0  0  0  0  0  0  0  0  0  0  0
  141.4620   81.9160  222.6850 C   0  0  0  0  0  0  0  0  0  0  0  0
  140.8950   80.9330  221.9080 C   0  0  0  0  0  0  0  0  0  0  0  0
  139.8880   77.5380  222.0350 C   0  0  0  0  0  0  0  0  0  0  0  0
  140.6630   76.3180  222.3490 C   0  0  0  0  0  0  0  0  0  0  0  0
  140.1610   75.1120  221.5940 C   0  0  0  0  0  0  0  0  0  0  0  0
  138.7880   74.8710  221.9380 N   0  0  0  0  0  0  0  0  0  0  0  0
  138.1070   73.6460  221.9640 C   0  0  0  0  0  0  0  0  0  0  0  0
  136.8650   73.6690  222.3430 O   0  0  0  0  0  0  0  0  0  0  0  0
  138.6000   72.3100  221.6160 C   0  0  1  0  0  0  0  0  0  0  0  0
  138.5080   72.0380  220.2200 N   0  0  0  0  0  0  0  0  0  0  0  0
  140.0360   72.1410  222.1310 C   0  0  0  0  0  0  0  0  0  0  0  0
  140.0770   71.2740  223.3060 C   0  0  0  0  0  0  0  0  0  0  0  0
  139.4130   70.0440  223.2190 C   0  0  0  0  0  0  0  0  0  0  0  0
  139.3870   69.1620  224.2790 C   0  0  0  0  0  0  0  0  0  0  0  0
  140.0190   69.4630  225.4720 C   0  0  0  0  0  0  0  0  0  0  0  0
  139.9530   68.3090  226.7720 S   0  0  0  0  0  0  0  0  0  0  0  0
  139.6160   69.1890  228.2800 C   0  0  0  0  0  0  0  0  0  0  0  0
  138.8870   67.2990  226.4490 O   0  0  0  0  0  0  0  0  0  0  0  0
  141.2710   67.6170  226.9080 O   0  0  0  0  0  0  0  0  0  0  0  0
  140.6770   70.6780  225.5630 C   0  0  0  0  0  0  0  0  0  0  0  0
  140.6970   71.5500  224.4990 C   0  0  0  0  0  0  0  0  0  0  0  0
  137.9910   76.0730  222.2710 C   0  0  0  0  0  0  0  0  0  0  0  0
  138.5950   77.1440  221.3350 C   0  0  0  0  0  0  0  0  0  0  0  0
  142.5926   76.7341  220.7289 H   0  0  0  0  0  0  0  0  0  0  0  0
  141.7946   76.2373  219.1982 H   0  0  0  0  0  0  0  0  0  0  0  0
  143.5319   76.6938  219.1982 H   0  0  0  0  0  0  0  0  0  0  0  0
  142.9380   79.0130  219.7967 H   0  0  0  0  0  0  0  0  0  0  0  0
  142.0922   78.4951  218.2827 H   0  0  0  0  0  0  0  0  0  0  0  0
  142.2854   78.1890  223.4032 H   0  0  0  0  0  0  0  0  0  0  0  0
  143.3164   79.9871  224.8169 H   0  0  0  0  0  0  0  0  0  0  0  0
  142.7734   82.3853  224.3364 H   0  0  0  0  0  0  0  0  0  0  0  0
  141.2293   82.9719  222.4829 H   0  0  0  0  0  0  0  0  0  0  0  0
  140.2101   81.1816  221.0839 H   0  0  0  0  0  0  0  0  0  0  0  0
  139.6309   78.0232  222.9881 H   0  0  0  0  0  0  0  0  0  0  0  0
  141.7163   76.4894  222.0823 H   0  0  0  0  0  0  0  0  0  0  0  0
  140.5495   76.1140  223.4239 H   0  0  0  0  0  0  0  0  0  0  0  0
  140.2414   75.2965  220.5126 H   0  0  0  0  0  0  0  0  0  0  0  0
  140.7663   74.2333  221.8613 H   0  0  0  0  0  0  0  0  0  0  0  0
  137.9520   71.5702  222.1087 H   0  0  0  0  0  0  0  0  0  0  0  0
  137.7690   72.5780  219.7160 H   0  0  0  0  0  0  0  0  0  0  0  0
  138.3770   71.0380  220.0640 H   0  0  0  0  0  0  0  0  0  0  0  0
  140.6525   71.6968  221.3356 H   0  0  0  0  0  0  0  0  0  0  0  0
  140.4232   73.1308  222.4147 H   0  0  0  0  0  0  0  0  0  0  0  0
  138.9004   69.7751  222.2836 H   0  0  0  0  0  0  0  0  0  0  0  0
  138.8556   68.2046  224.1741 H   0  0  0  0  0  0  0  0  0  0  0  0
  139.8610   68.5491  229.1405 H   0  0  0  0  0  0  0  0  0  0  0  0
  140.2280   70.1023  228.3162 H   0  0  0  0  0  0  0  0  0  0  0  0
  138.5505   69.4599  228.3162 H   0  0  0  0  0  0  0  0  0  0  0  0
  141.1900   70.9493  226.4975 H   0  0  0  0  0  0  0  0  0  0  0  0
  141.2307   72.5056  224.6087 H   0  0  0  0  0  0  0  0  0  0  0  0
  136.9237   75.9142  222.0571 H   0  0  0  0  0  0  0  0  0  0  0  0
  138.0335   76.3465  223.3356 H   0  0  0  0  0  0  0  0  0  0  0  0
  138.7990   76.7255  220.3384 H   0  0  0  0  0  0  0  0  0  0  0  0
  137.9208   77.9969  221.1680 H   0  0  0  0  0  0  0  0  0  0  0  0
  1  2  1  0
  2  3  1  0
  3  4  2  0
  3  5  1  0
  5  6  1  0
  6  7  2  0
  7  8  1  0
  8  9  2  0
  9 10  1  0
 10 11  2  0
  5 12  1  0
 12 13  1  0
 13 14  1  0
 14 15  1  0
 15 16  1  0
 16 17  2  0
 16 18  1  0
 18 19  1  0
 18 20  1  0
 20 21  1  0
 21 22  2  0
 22 23  1  0
 23 24  2  0
 24 25  1  0
 25 26  1  0
 25 27  2  0
 25 28  2  0
 24 29  1  0
 29 30  2  0
 15 31  1  0
 31 32  1  0
 11  6  1  0
 32 12  1  0
 30 21  1  0
  1 33  1  0
  1 34  1  0
  1 35  1  0
  2 36  1  0
  2 37  1  0
  7 38  1  0
  8 39  1  0
  9 40  1  0
 10 41  1  0
 11 42  1  0
 12 43  1  0
 13 44  1  0
 13 45  1  0
 14 46  1  0
 14 47  1  0
 18 48  1  1
 19 49  1  0
 19 50  1  0
 20 51  1  0
 20 52  1  0
 22 53  1  0
 23 54  1  0
 26 55  1  0
 26 56  1  0
 26 57  1  0
 29 58  1  0
 30 59  1  0
 31 60  1  0
 31 61  1  0
 32 62  1  0
 32 63  1  0
M  END
>  <smiles>  (15) 
CCC(=O)N(c1ccccc1)C1CCN(C(=O)[C@@H](N)Cc2ccc(S(C)(=O)=O)cc2)CC1

>  <score_type>  (15) 
oracle

>  <origin>  (15) 
autodockgpu

>  <m_score__min__energy>  (15) 
-8.8800000000000008

>  <m_primary>  (15) 
energy

>  <rmsd>  (15) 
5.8649859537088105

>  <m_score__min__rmsd>  (15) 
5.8649859537088105

>  <meeko>  (15) 
{"free_energy": -7.7, "intermolecular_energy": -10.38, "internal_energy": -1.78, "cluster_size": 6, "cluster_id": 2, "rank_in_cluster": 6}

>  <energy>  (15) 
-7.6

>  <cluster_rmsd>  (15) 
1.61

>  <cluster>  (15) 
4

$$$$

     RDKit          3D

 63 65  0  0  0  0  0  0  0  0999 V2000
  142.5580   81.2570  224.2170 C   0  0  0  0  0  0  0  0  0  0  0  0
  142.9190   80.3980  223.0110 C   0  0  0  0  0  0  0  0  0  0  0  0
  141.8890   80.5310  221.9170 C   0  0  0  0  0  0  0  0  0  0  0  0
  141.5660   81.7130  221.6370 O   0  0  0  0  0  0  0  0  0  0  0  0
  141.3510   79.3840  221.2770 N   0  0  0  0  0  0  0  0  0  0  0  0
  141.8000   79.1620  219.9140 C   0  0  0  0  0  0  0  0  0  0  0  0
  141.7820   80.2070  219.0400 C   0  0  0  0  0  0  0  0  0  0  0  0
  142.2110   79.9920  217.7340 C   0  0  0  0  0  0  0  0  0  0  0  0
  142.6470   78.7130  217.3590 C   0  0  0  0  0  0  0  0  0  0  0  0
  142.6480   77.6720  218.2820 C   0  0  0  0  0  0  0  0  0  0  0  0
  142.2240   77.8800  219.5740 C   0  0  0  0  0  0  0  0  0  0  0  0
  140.4340   78.4560  221.8470 C   0  0  0  0  0  0  0  0  0  0  0  0
  141.0530   77.3360  222.5890 C   0  0  0  0  0  0  0  0  0  0  0  0
  140.7780   76.0000  221.9430 C   0  0  0  0  0  0  0  0  0  0  0  0
  139.3610   75.7760  221.8930 N   0  0  0  0  0  0  0  0  0  0  0  0
  138.6800   74.5520  221.9290 C   0  0  0  0  0  0  0  0  0  0  0  0
  137.3820   74.5980  221.9060 O   0  0  0  0  0  0  0  0  0  0  0  0
  139.2270   73.1930  221.9860 C   0  0  1  0  0  0  0  0  0  0  0  0
  138.3280   72.2650  222.5870 N   0  0  0  0  0  0  0  0  0  0  0  0
  139.6430   72.7460  220.5780 C   0  0  0  0  0  0  0  0  0  0  0  0
  141.0950   72.6560  220.4580 C   0  0  0  0  0  0  0  0  0  0  0  0
  141.7300   73.5930  219.6330 C   0  0  0  0  0  0  0  0  0  0  0  0
  143.0960   73.5830  219.4480 C   0  0  0  0  0  0  0  0  0  0  0  0
  143.8930   72.6430  220.0760 C   0  0  0  0  0  0  0  0  0  0  0  0
  145.6110   72.6830  219.8060 S   0  0  0  0  0  0  0  0  0  0  0  0
  146.3670   73.5590  221.1550 C   0  0  0  0  0  0  0  0  0  0  0  0
  146.1020   71.2650  219.6990 O   0  0  0  0  0  0  0  0  0  0  0  0
  145.9120   73.4110  218.5350 O   0  0  0  0  0  0  0  0  0  0  0  0
  143.2710   71.7140  220.8930 C   0  0  0  0  0  0  0  0  0  0  0  0
  141.9060   71.7340  221.0700 C   0  0  0  0  0  0  0  0  0  0  0  0
  138.5250   76.9890  221.7540 C   0  0  0  0  0  0  0  0  0  0  0  0
  139.4060   77.9020  220.8710 C   0  0  0  0  0  0  0  0  0  0  0  0
  142.7891   80.7071  225.1412 H   0  0  0  0  0  0  0  0  0  0  0  0
  143.1402   82.1899  224.1901 H   0  0  0  0  0  0  0  0  0  0  0  0
  141.4842   81.4940  224.1901 H   0  0  0  0  0  0  0  0  0  0  0  0
  143.8974   80.7177  222.6231 H   0  0  0  0  0  0  0  0  0  0  0  0
  142.9527   79.3461  223.3309 H   0  0  0  0  0  0  0  0  0  0  0  0
  141.4353   81.2006  219.3604 H   0  0  0  0  0  0  0  0  0  0  0  0
  142.2082   80.8153  217.0045 H   0  0  0  0  0  0  0  0  0  0  0  0
  142.9900   78.5319  216.3297 H   0  0  0  0  0  0  0  0  0  0  0  0
  142.9912   76.6728  217.9756 H   0  0  0  0  0  0  0  0  0  0  0  0
  142.2200   77.0637  220.3113 H   0  0  0  0  0  0  0  0  0  0  0  0
  139.9106   79.0907  222.5772 H   0  0  0  0  0  0  0  0  0  0  0  0
  142.1410   77.4941  222.6254 H   0  0  0  0  0  0  0  0  0  0  0  0
  140.6158   77.3183  223.5982 H   0  0  0  0  0  0  0  0  0  0  0  0
  141.1863   75.9955  220.9216 H   0  0  0  0  0  0  0  0  0  0  0  0
  141.2550   75.2026  222.5317 H   0  0  0  0  0  0  0  0  0  0  0  0
  140.1156   73.2118  222.6341 H   0  0  0  0  0  0  0  0  0  0  0  0
  137.3180   72.4340  222.3790 H   0  0  0  0  0  0  0  0  0  0  0  0
  138.4760   72.2350  223.5970 H   0  0  0  0  0  0  0  0  0  0  0  0
  139.2044   71.7587  220.3712 H   0  0  0  0  0  0  0  0  0  0  0  0
  139.2803   73.4918  219.8554 H   0  0  0  0  0  0  0  0  0  0  0  0
  141.1243   74.3549  219.1206 H   0  0  0  0  0  0  0  0  0  0  0  0
  143.5592   74.3339  218.7910 H   0  0  0  0  0  0  0  0  0  0  0  0
  146.0087   73.1438  222.1085 H   0  0  0  0  0  0  0  0  0  0  0  0
  147.4601   73.4509  221.0957 H   0  0  0  0  0  0  0  0  0  0  0  0
  146.1002   74.6245  221.0957 H   0  0  0  0  0  0  0  0  0  0  0  0
  143.8746   70.9512  221.4065 H   0  0  0  0  0  0  0  0  0  0  0  0
  141.4474   70.9812  221.7280 H   0  0  0  0  0  0  0  0  0  0  0  0
  137.5698   76.7591  221.2593 H   0  0  0  0  0  0  0  0  0  0  0  0
  138.2482   77.4439  222.7165 H   0  0  0  0  0  0  0  0  0  0  0  0
  139.8938   77.3242  220.0721 H   0  0  0  0  0  0  0  0  0  0  0  0
  138.8310   78.6894  220.3617 H   0  0  0  0  0  0  0  0  0  0  0  0
  1  2  1  0
  2  3  1  0
  3  4  2  0
  3  5  1  0
  5  6  1  0
  6  7  2  0
  7  8  1  0
  8  9  2  0
  9 10  1  0
 10 11  2  0
  5 12  1  0
 12 13  1  0
 13 14  1  0
 14 15  1  0
 15 16  1  0
 16 17  2  0
 16 18  1  0
 18 19  1  0
 18 20  1  0
 20 21  1  0
 21 22  2  0
 22 23  1  0
 23 24  2  0
 24 25  1  0
 25 26  1  0
 25 27  2  0
 25 28  2  0
 24 29  1  0
 29 30  2  0
 15 31  1  0
 31 32  1  0
 11  6  1  0
 32 12  1  0
 30 21  1  0
  1 33  1  0
  1 34  1  0
  1 35  1  0
  2 36  1  0
  2 37  1  0
  7 38  1  0
  8 39  1  0
  9 40  1  0
 10 41  1  0
 11 42  1  0
 12 43  1  0
 13 44  1  0
 13 45  1  0
 14 46  1  0
 14 47  1  0
 18 48  1  1
 19 49  1  0
 19 50  1  0
 20 51  1  0
 20 52  1  0
 22 53  1  0
 23 54  1  0
 26 55  1  0
 26 56  1  0
 26 57  1  0
 29 58  1  0
 30 59  1  0
 31 60  1  0
 31 61  1  0
 32 62  1  0
 32 63  1  0
M  END
>  <smiles>  (16) 
CCC(=O)N(c1ccccc1)C1CCN(C(=O)[C@@H](N)Cc2ccc(S(C)(=O)=O)cc2)CC1

>  <score_type>  (16) 
oracle

>  <origin>  (16) 
autodockgpu

>  <m_score__min__energy>  (16) 
-8.8800000000000008

>  <m_primary>  (16) 
energy

>  <rmsd>  (16) 
4.535986610226872

>  <m_score__min__rmsd>  (16) 
4.535986610226872

>  <meeko>  (16) 
{"free_energy": -7.04, "intermolecular_energy": -9.72, "internal_energy": -2.75, "cluster_size": 19, "cluster_id": 5, "rank_in_cluster": 7}

>  <energy>  (16) 
-7.48

>  <cluster_rmsd>  (16) 
1.65

>  <cluster>  (16) 
4

$$$$

     RDKit          3D

 63 65  0  0  0  0  0  0  0  0999 V2000
  142.5550   81.2300  224.2000 C   0  0  0  0  0  0  0  0  0  0  0  0
  142.9460   80.4550  222.9470 C   0  0  0  0  0  0  0  0  0  0  0  0
  141.8810   80.5620  221.8840 C   0  0  0  0  0  0  0  0  0  0  0  0
  141.5160   81.7360  221.6180 O   0  0  0  0  0  0  0  0  0  0  0  0
  141.3590   79.4030  221.2540 N   0  0  0  0  0  0  0  0  0  0  0  0
  141.8190   79.1670  219.8970 C   0  0  0  0  0  0  0  0  0  0  0  0
  142.2480   77.9190  219.5590 C   0  0  0  0  0  0  0  0  0  0  0  0
  142.6880   77.6950  218.2580 C   0  0  0  0  0  0  0  0  0  0  0  0
  142.6770   78.7550  217.3400 C   0  0  0  0  0  0  0  0  0  0  0  0
  142.2310   80.0150  217.7260 C   0  0  0  0  0  0  0  0  0  0  0  0
  141.7950   80.2410  219.0110 C   0  0  0  0  0  0  0  0  0  0  0  0
  140.4470   78.4730  221.8300 C   0  0  0  0  0  0  0  0  0  0  0  0
  141.0700   77.3730  222.5980 C   0  0  0  0  0  0  0  0  0  0  0  0
  140.8190   76.0240  221.9710 C   0  0  0  0  0  0  0  0  0  0  0  0
  139.4050   75.7820  221.9100 N   0  0  0  0  0  0  0  0  0  0  0  0
  138.7380   74.5500  221.9590 C   0  0  0  0  0  0  0  0  0  0  0  0
  137.4400   74.5800  221.9210 O   0  0  0  0  0  0  0  0  0  0  0  0
  139.3010   73.1990  222.0450 C   0  0  1  0  0  0  0  0  0  0  0  0
  138.4210   72.2780  222.6850 N   0  0  0  0  0  0  0  0  0  0  0  0
  139.7010   72.7170  220.6440 C   0  0  0  0  0  0  0  0  0  0  0  0
  141.1510   72.6080  220.5160 C   0  0  0  0  0  0  0  0  0  0  0  0
  141.8210   73.6700  219.8950 C   0  0  0  0  0  0  0  0  0  0  0  0
  143.1890   73.6550  219.7180 C   0  0  0  0  0  0  0  0  0  0  0  0
  143.9520   72.5850  220.1510 C   0  0  0  0  0  0  0  0  0  0  0  0
  145.6720   72.6240  219.9020 S   0  0  0  0  0  0  0  0  0  0  0  0
  146.4170   73.4440  221.2920 C   0  0  0  0  0  0  0  0  0  0  0  0
  146.1560   71.2090  219.7470 O   0  0  0  0  0  0  0  0  0  0  0  0
  145.9920   73.3990  218.6640 O   0  0  0  0  0  0  0  0  0  0  0  0
  143.2930   71.5320  220.7660 C   0  0  0  0  0  0  0  0  0  0  0  0
  141.9280   71.5590  220.9370 C   0  0  0  0  0  0  0  0  0  0  0  0
  138.5560   76.9820  221.7410 C   0  0  0  0  0  0  0  0  0  0  0  0
  139.4360   77.8900  220.8520 C   0  0  0  0  0  0  0  0  0  0  0  0
  142.8449   80.6553  225.0920 H   0  0  0  0  0  0  0  0  0  0  0  0
  143.0708   82.2015  224.2061 H   0  0  0  0  0  0  0  0  0  0  0  0
  141.4671   81.3924  224.2061 H   0  0  0  0  0  0  0  0  0  0  0  0
  143.8886   80.8626  222.5527 H   0  0  0  0  0  0  0  0  0  0  0  0
  143.0639   79.3950  223.2161 H   0  0  0  0  0  0  0  0  0  0  0  0
  142.2466   77.1052  220.2991 H   0  0  0  0  0  0  0  0  0  0  0  0
  143.0402   76.6984  217.9533 H   0  0  0  0  0  0  0  0  0  0  0  0
  143.0229   78.5893  216.3090 H   0  0  0  0  0  0  0  0  0  0  0  0
  142.2270   80.8384  216.9967 H   0  0  0  0  0  0  0  0  0  0  0  0
  141.4406   81.2333  219.3269 H   0  0  0  0  0  0  0  0  0  0  0  0
  139.9090   79.1139  222.5440 H   0  0  0  0  0  0  0  0  0  0  0  0
  142.1555   77.5448  222.6451 H   0  0  0  0  0  0  0  0  0  0  0  0
  140.6206   77.3666  223.6020 H   0  0  0  0  0  0  0  0  0  0  0  0
  141.2382   76.0082  220.9541 H   0  0  0  0  0  0  0  0  0  0  0  0
  141.2998   75.2420  222.5771 H   0  0  0  0  0  0  0  0  0  0  0  0
  140.1989   73.2459  222.6786 H   0  0  0  0  0  0  0  0  0  0  0  0
  137.4040   72.4810  222.5560 H   0  0  0  0  0  0  0  0  0  0  0  0
  138.6400   72.2160  223.6800 H   0  0  0  0  0  0  0  0  0  0  0  0
  139.2498   71.7305  220.4618 H   0  0  0  0  0  0  0  0  0  0  0  0
  139.3411   73.4508  219.9078 H   0  0  0  0  0  0  0  0  0  0  0  0
  141.2428   74.5360  219.5403 H   0  0  0  0  0  0  0  0  0  0  0  0
  143.6807   74.5066  219.2251 H   0  0  0  0  0  0  0  0  0  0  0  0
  146.0253   73.0129  222.2251 H   0  0  0  0  0  0  0  0  0  0  0  0
  147.5081   73.3093  221.2555 H   0  0  0  0  0  0  0  0  0  0  0  0
  146.1786   74.5172  221.2555 H   0  0  0  0  0  0  0  0  0  0  0  0
  143.8682   70.6644  221.1216 H   0  0  0  0  0  0  0  0  0  0  0  0
  141.4405   70.7055  221.4309 H   0  0  0  0  0  0  0  0  0  0  0  0
  137.6092   76.7320  221.2400 H   0  0  0  0  0  0  0  0  0  0  0  0
  138.2629   77.4500  222.6923 H   0  0  0  0  0  0  0  0  0  0  0  0
  139.9394   77.3044  220.0686 H   0  0  0  0  0  0  0  0  0  0  0  0
  138.8577   78.6617  220.3229 H   0  0  0  0  0  0  0  0  0  0  0  0
  1  2  1  0
  2  3  1  0
  3  4  2  0
  3  5  1  0
  5  6  1  0
  6  7  2  0
  7  8  1  0
  8  9  2  0
  9 10  1  0
 10 11  2  0
  5 12  1  0
 12 13  1  0
 13 14  1  0
 14 15  1  0
 15 16  1  0
 16 17  2  0
 16 18  1  0
 18 19  1  0
 18 20  1  0
 20 21  1  0
 21 22  2  0
 22 23  1  0
 23 24  2  0
 24 25  1  0
 25 26  1  0
 25 27  2  0
 25 28  2  0
 24 29  1  0
 29 30  2  0
 15 31  1  0
 31 32  1  0
 11  6  1  0
 32 12  1  0
 30 21  1  0
  1 33  1  0
  1 34  1  0
  1 35  1  0
  2 36  1  0
  2 37  1  0
  7 38  1  0
  8 39  1  0
  9 40  1  0
 10 41  1  0
 11 42  1  0
 12 43  1  0
 13 44  1  0
 13 45  1  0
 14 46  1  0
 14 47  1  0
 18 48  1  1
 19 49  1  0
 19 50  1  0
 20 51  1  0
 20 52  1  0
 22 53  1  0
 23 54  1  0
 26 55  1  0
 26 56  1  0
 26 57  1  0
 29 58  1  0
 30 59  1  0
 31 60  1  0
 31 61  1  0
 32 62  1  0
 32 63  1  0
M  END
>  <smiles>  (17) 
CCC(=O)N(c1ccccc1)C1CCN(C(=O)[C@@H](N)Cc2ccc(S(C)(=O)=O)cc2)CC1

>  <score_type>  (17) 
oracle

>  <origin>  (17) 
autodockgpu

>  <m_score__min__energy>  (17) 
-8.8800000000000008

>  <m_primary>  (17) 
energy

>  <rmsd>  (17) 
4.549872804830505

>  <m_score__min__rmsd>  (17) 
4.549872804830505

>  <meeko>  (17) 
{"free_energy": -7.08, "intermolecular_energy": -9.77, "internal_energy": -2.73, "cluster_size": 19, "cluster_id": 5, "rank_in_cluster": 6}

>  <energy>  (17) 
-7.47

>  <cluster_rmsd>  (17) 
1.66

>  <cluster>  (17) 
4

$$$$

     RDKit          3D

 63 65  0  0  0  0  0  0  0  0999 V2000
  139.5400   76.7030  221.9940 C   0  0  0  0  0  0  0  0  0  0  0  0
  141.0420   76.6210  221.7570 C   0  0  0  0  0  0  0  0  0  0  0  0
  141.4380   75.2730  221.2090 C   0  0  0  0  0  0  0  0  0  0  0  0
  140.8820   74.2930  221.7680 O   0  0  0  0  0  0  0  0  0  0  0  0
  142.3680   75.1610  220.1430 N   0  0  0  0  0  0  0  0  0  0  0  0
  143.4920   74.2750  220.3850 C   0  0  0  0  0  0  0  0  0  0  0  0
  143.2560   72.9390  220.5160 C   0  0  0  0  0  0  0  0  0  0  0  0
  144.3340   72.0910  220.7480 C   0  0  0  0  0  0  0  0  0  0  0  0
  145.6240   72.6330  220.8400 C   0  0  0  0  0  0  0  0  0  0  0  0
  145.8220   74.0030  220.7010 C   0  0  0  0  0  0  0  0  0  0  0  0
  144.7590   74.8460  220.4720 C   0  0  0  0  0  0  0  0  0  0  0  0
  142.2900   75.8270  218.8870 C   0  0  0  0  0  0  0  0  0  0  0  0
  143.3330   76.8500  218.6520 C   0  0  0  0  0  0  0  0  0  0  0  0
  142.7550   78.2380  218.5290 C   0  0  0  0  0  0  0  0  0  0  0  0
  141.8340   78.2770  217.4290 N   0  0  0  0  0  0  0  0  0  0  0  0
  141.5160   79.3670  216.6080 C   0  0  0  0  0  0  0  0  0  0  0  0
  140.6720   79.1540  215.6440 O   0  0  0  0  0  0  0  0  0  0  0  0
  142.0030   80.7480  216.6800 C   0  0  1  0  0  0  0  0  0  0  0  0
  142.3070   81.2890  215.3970 N   0  0  0  0  0  0  0  0  0  0  0  0
  140.9830   81.6150  217.4310 C   0  0  0  0  0  0  0  0  0  0  0  0
  140.9270   81.2600  218.8460 C   0  0  0  0  0  0  0  0  0  0  0  0
  142.1470   81.0690  219.5070 C   0  0  0  0  0  0  0  0  0  0  0  0
  142.1980   80.7210  220.8410 C   0  0  0  0  0  0  0  0  0  0  0  0
  141.0400   80.5490  221.5770 C   0  0  0  0  0  0  0  0  0  0  0  0
  141.1680   80.1130  223.2560 S   0  0  0  0  0  0  0  0  0  0  0  0
  139.5380   79.7380  223.8590 C   0  0  0  0  0  0  0  0  0  0  0  0
  142.1020   78.9390  223.3660 O   0  0  0  0  0  0  0  0  0  0  0  0
  141.7150   81.2610  224.0410 O   0  0  0  0  0  0  0  0  0  0  0  0
  139.8300   80.7360  220.9270 C   0  0  0  0  0  0  0  0  0  0  0  0
  139.7920   81.0830  219.5960 C   0  0  0  0  0  0  0  0  0  0  0  0
  141.1110   77.0150  217.1540 C   0  0  0  0  0  0  0  0  0  0  0  0
  140.9250   76.4220  218.5690 C   0  0  0  0  0  0  0  0  0  0  0  0
  139.3395   76.7139  223.0755 H   0  0  0  0  0  0  0  0  0  0  0  0
  139.1467   77.6240  221.5388 H   0  0  0  0  0  0  0  0  0  0  0  0
  139.0488   75.8303  221.5388 H   0  0  0  0  0  0  0  0  0  0  0  0
  141.3342   77.4001  221.0375 H   0  0  0  0  0  0  0  0  0  0  0  0
  141.5537   76.7682  222.7196 H   0  0  0  0  0  0  0  0  0  0  0  0
  142.2339   72.5395  220.4398 H   0  0  0  0  0  0  0  0  0  0  0  0
  144.1764   71.0079  220.8580 H   0  0  0  0  0  0  0  0  0  0  0  0
  146.4837   71.9716  221.0230 H   0  0  0  0  0  0  0  0  0  0  0  0
  146.8387   74.4164  220.7749 H   0  0  0  0  0  0  0  0  0  0  0  0
  144.9046   75.9307  220.3617 H   0  0  0  0  0  0  0  0  0  0  0  0
  142.4752   74.9957  218.1908 H   0  0  0  0  0  0  0  0  0  0  0  0
  144.0401   76.8345  219.4945 H   0  0  0  0  0  0  0  0  0  0  0  0
  143.8340   76.6084  217.7030 H   0  0  0  0  0  0  0  0  0  0  0  0
  142.2275   78.4992  219.4583 H   0  0  0  0  0  0  0  0  0  0  0  0
  143.5669   78.9590  218.3531 H   0  0  0  0  0  0  0  0  0  0  0  0
  142.9515   80.7450  217.2370 H   0  0  0  0  0  0  0  0  0  0  0  0
  141.7940   80.8470  214.6010 H   0  0  0  0  0  0  0  0  0  0  0  0
  143.3130   81.2500  215.2280 H   0  0  0  0  0  0  0  0  0  0  0  0
  141.2731   82.6720  217.3377 H   0  0  0  0  0  0  0  0  0  0  0  0
  139.9898   81.4444  216.9900 H   0  0  0  0  0  0  0  0  0  0  0  0
  143.0863   81.1995  218.9495 H   0  0  0  0  0  0  0  0  0  0  0  0
  143.1746   80.5782  221.3266 H   0  0  0  0  0  0  0  0  0  0  0  0
  139.5446   79.7395  224.9590 H   0  0  0  0  0  0  0  0  0  0  0  0
  138.8291   80.4965  223.4955 H   0  0  0  0  0  0  0  0  0  0  0  0
  139.2318   78.7460  223.4955 H   0  0  0  0  0  0  0  0  0  0  0  0
  138.8891   80.6055  221.4817 H   0  0  0  0  0  0  0  0  0  0  0  0
  138.8131   81.2240  219.1144 H   0  0  0  0  0  0  0  0  0  0  0  0
  140.1407   77.2091  216.6735 H   0  0  0  0  0  0  0  0  0  0  0  0
  141.6447   76.3449  216.4640 H   0  0  0  0  0  0  0  0  0  0  0  0
  140.6600   77.2069  219.2926 H   0  0  0  0  0  0  0  0  0  0  0  0
  140.1126   75.6822  218.6202 H   0  0  0  0  0  0  0  0  0  0  0  0
  1  2  1  0
  2  3  1  0
  3  4  2  0
  3  5  1  0
  5  6  1  0
  6  7  2  0
  7  8  1  0
  8  9  2  0
  9 10  1  0
 10 11  2  0
  5 12  1  0
 12 13  1  0
 13 14  1  0
 14 15  1  0
 15 16  1  0
 16 17  2  0
 16 18  1  0
 18 19  1  0
 18 20  1  0
 20 21  1  0
 21 22  2  0
 22 23  1  0
 23 24  2  0
 24 25  1  0
 25 26  1  0
 25 27  2  0
 25 28  2  0
 24 29  1  0
 29 30  2  0
 15 31  1  0
 31 32  1  0
 11  6  1  0
 32 12  1  0
 30 21  1  0
  1 33  1  0
  1 34  1  0
  1 35  1  0
  2 36  1  0
  2 37  1  0
  7 38  1  0
  8 39  1  0
  9 40  1  0
 10 41  1  0
 11 42  1  0
 12 43  1  0
 13 44  1  0
 13 45  1  0
 14 46  1  0
 14 47  1  0
 18 48  1  1
 19 49  1  0
 19 50  1  0
 20 51  1  0
 20 52  1  0
 22 53  1  0
 23 54  1  0
 26 55  1  0
 26 56  1  0
 26 57  1  0
 29 58  1  0
 30 59  1  0
 31 60  1  0
 31 61  1  0
 32 62  1  0
 32 63  1  0
M  END
>  <smiles>  (18) 
CCC(=O)N(c1ccccc1)C1CCN(C(=O)[C@@H](N)Cc2ccc(S(C)(=O)=O)cc2)CC1

>  <score_type>  (18) 
oracle

>  <origin>  (18) 
autodockgpu

>  <m_score__min__energy>  (18) 
-8.8800000000000008

>  <m_primary>  (18) 
energy

>  <rmsd>  (18) 
6.000872823325075

>  <m_score__min__rmsd>  (18) 
6.000872823325075

>  <meeko>  (18) 
{"free_energy": -6.33, "intermolecular_energy": -9.02, "internal_energy": -3.09, "cluster_size": 1, "cluster_id": 9, "rank_in_cluster": 1}

>  <energy>  (18) 
-7.41

>  <cluster_rmsd>  (18) 
1.66

>  <cluster>  (18) 
4

$$$$

     RDKit          3D

 63 65  0  0  0  0  0  0  0  0999 V2000
  143.3230   80.5240  223.7970 C   0  0  0  0  0  0  0  0  0  0  0  0
  142.1890   81.5420  223.8140 C   0  0  0  0  0  0  0  0  0  0  0  0
  141.4910   81.6050  222.4790 C   0  0  0  0  0  0  0  0  0  0  0  0
  141.3150   82.7670  222.0300 O   0  0  0  0  0  0  0  0  0  0  0  0
  141.0800   80.4220  221.8120 N   0  0  0  0  0  0  0  0  0  0  0  0
  141.4830   80.3160  220.4210 C   0  0  0  0  0  0  0  0  0  0  0  0
  141.4650   81.4370  219.6470 C   0  0  0  0  0  0  0  0  0  0  0  0
  141.8520   81.3340  218.3150 C   0  0  0  0  0  0  0  0  0  0  0  0
  142.2460   80.0860  217.8120 C   0  0  0  0  0  0  0  0  0  0  0  0
  142.2500   78.9650  218.6360 C   0  0  0  0  0  0  0  0  0  0  0  0
  141.8680   79.0630  219.9540 C   0  0  0  0  0  0  0  0  0  0  0  0
  140.3260   79.3560  222.3800 C   0  0  0  0  0  0  0  0  0  0  0  0
  141.1240   78.2030  222.8500 C   0  0  0  0  0  0  0  0  0  0  0  0
  140.8260   76.9450  222.0720 C   0  0  0  0  0  0  0  0  0  0  0  0
  139.4360   76.6150  222.2120 N   0  0  0  0  0  0  0  0  0  0  0  0
  138.8430   75.3450  222.1790 C   0  0  0  0  0  0  0  0  0  0  0  0
  137.5590   75.2880  222.3650 O   0  0  0  0  0  0  0  0  0  0  0  0
  139.4720   74.0400  221.9570 C   0  0  1  0  0  0  0  0  0  0  0  0
  138.6440   72.9550  222.3690 N   0  0  0  0  0  0  0  0  0  0  0  0
  139.8810   73.9100  220.4840 C   0  0  0  0  0  0  0  0  0  0  0  0
  141.3230   73.7200  220.3500 C   0  0  0  0  0  0  0  0  0  0  0  0
  141.7760   72.4250  220.0680 C   0  0  0  0  0  0  0  0  0  0  0  0
  143.1190   72.1440  219.9340 C   0  0  0  0  0  0  0  0  0  0  0  0
  144.0730   73.1360  220.0740 C   0  0  0  0  0  0  0  0  0  0  0  0
  145.7510   72.7200  219.8920 S   0  0  0  0  0  0  0  0  0  0  0  0
  146.6280   73.3060  221.3220 C   0  0  0  0  0  0  0  0  0  0  0  0
  145.8510   71.2280  219.7310 O   0  0  0  0  0  0  0  0  0  0  0  0
  146.3150   73.3900  218.6790 O   0  0  0  0  0  0  0  0  0  0  0  0
  143.6300   74.4190  220.3540 C   0  0  0  0  0  0  0  0  0  0  0  0
  142.2870   74.6880  220.4850 C   0  0  0  0  0  0  0  0  0  0  0  0
  138.5180   77.7640  222.3780 C   0  0  0  0  0  0  0  0  0  0  0  0
  139.1850   78.8530  221.5070 C   0  0  0  0  0  0  0  0  0  0  0  0
  143.6044   80.2714  224.8299 H   0  0  0  0  0  0  0  0  0  0  0  0
  142.9916   79.6146  223.2744 H   0  0  0  0  0  0  0  0  0  0  0  0
  144.1915   80.9513  223.2744 H   0  0  0  0  0  0  0  0  0  0  0  0
  141.4604   81.2543  224.5863 H   0  0  0  0  0  0  0  0  0  0  0  0
  142.6144   82.5329  224.0311 H   0  0  0  0  0  0  0  0  0  0  0  0
  141.1508   82.4039  220.0669 H   0  0  0  0  0  0  0  0  0  0  0  0
  141.8490   82.2208  217.6642 H   0  0  0  0  0  0  0  0  0  0  0  0
  142.5537   79.9927  216.7600 H   0  0  0  0  0  0  0  0  0  0  0  0
  142.5615   77.9913  218.2299 H   0  0  0  0  0  0  0  0  0  0  0  0
  141.8669   78.1833  220.6143 H   0  0  0  0  0  0  0  0  0  0  0  0
  139.8938   79.8449  223.2655 H   0  0  0  0  0  0  0  0  0  0  0  0
  142.1917   78.4430  222.7390 H   0  0  0  0  0  0  0  0  0  0  0  0
  140.8610   78.0183  223.9020 H   0  0  0  0  0  0  0  0  0  0  0  0
  141.0594   77.1069  221.0093 H   0  0  0  0  0  0  0  0  0  0  0  0
  141.4403   76.1191  222.4601 H   0  0  0  0  0  0  0  0  0  0  0  0
  140.3725   73.9859  222.5864 H   0  0  0  0  0  0  0  0  0  0  0  0
  137.6170   73.1280  222.2790 H   0  0  0  0  0  0  0  0  0  0  0  0
  138.8700   72.6840  223.3270 H   0  0  0  0  0  0  0  0  0  0  0  0
  139.3629   73.0457  220.0429 H   0  0  0  0  0  0  0  0  0  0  0  0
  139.6024   74.8375  219.9624 H   0  0  0  0  0  0  0  0  0  0  0  0
  141.0431   71.6132  219.9507 H   0  0  0  0  0  0  0  0  0  0  0  0
  143.4371   71.1146  219.7122 H   0  0  0  0  0  0  0  0  0  0  0  0
  146.1150   72.9632  222.2327 H   0  0  0  0  0  0  0  0  0  0  0  0
  147.6549   72.9120  221.3093 H   0  0  0  0  0  0  0  0  0  0  0  0
  146.6570   74.4055  221.3093 H   0  0  0  0  0  0  0  0  0  0  0  0
  144.3611   75.2323  220.4730 H   0  0  0  0  0  0  0  0  0  0  0  0
  141.9736   75.7189  220.7065 H   0  0  0  0  0  0  0  0  0  0  0  0
  137.5095   77.5235  222.0106 H   0  0  0  0  0  0  0  0  0  0  0  0
  138.3779   78.0657  223.4265 H   0  0  0  0  0  0  0  0  0  0  0  0
  139.5670   78.4262  220.5679 H   0  0  0  0  0  0  0  0  0  0  0  0
  138.4883   79.6509  221.2104 H   0  0  0  0  0  0  0  0  0  0  0  0
  1  2  1  0
  2  3  1  0
  3  4  2  0
  3  5  1  0
  5  6  1  0
  6  7  2  0
  7  8  1  0
  8  9  2  0
  9 10  1  0
 10 11  2  0
  5 12  1  0
 12 13  1  0
 13 14  1  0
 14 15  1  0
 15 16  1  0
 16 17  2  0
 16 18  1  0
 18 19  1  0
 18 20  1  0
 20 21  1  0
 21 22  2  0
 22 23  1  0
 23 24  2  0
 24 25  1  0
 25 26  1  0
 25 27  2  0
 25 28  2  0
 24 29  1  0
 29 30  2  0
 15 31  1  0
 31 32  1  0
 11  6  1  0
 32 12  1  0
 30 21  1  0
  1 33  1  0
  1 34  1  0
  1 35  1  0
  2 36  1  0
  2 37  1  0
  7 38  1  0
  8 39  1  0
  9 40  1  0
 10 41  1  0
 11 42  1  0
 12 43  1  0
 13 44  1  0
 13 45  1  0
 14 46  1  0
 14 47  1  0
 18 48  1  1
 19 49  1  0
 19 50  1  0
 20 51  1  0
 20 52  1  0
 22 53  1  0
 23 54  1  0
 26 55  1  0
 26 56  1  0
 26 57  1  0
 29 58  1  0
 30 59  1  0
 31 60  1  0
 31 61  1  0
 32 62  1  0
 32 63  1  0
M  END
>  <smiles>  (19) 
CCC(=O)N(c1ccccc1)C1CCN(C(=O)[C@@H](N)Cc2ccc(S(C)(=O)=O)cc2)CC1

>  <score_type>  (19) 
oracle

>  <origin>  (19) 
autodockgpu

>  <m_score__min__energy>  (19) 
-8.8800000000000008

>  <m_primary>  (19) 
energy

>  <rmsd>  (19) 
3.916954187694879

>  <m_score__min__rmsd>  (19) 
3.916954187694879

>  <meeko>  (19) 
{"free_energy": -7.56, "intermolecular_energy": -10.25, "internal_energy": -2.45, "cluster_size": 19, "cluster_id": 5, "rank_in_cluster": 3}

>  <energy>  (19) 
-7.33

>  <cluster_rmsd>  (19) 
1.54

>  <cluster>  (19) 
4

$$$$

     RDKit          3D

 63 65  0  0  0  0  0  0  0  0999 V2000
  137.1070   77.5810  222.7020 C   0  0  0  0  0  0  0  0  0  0  0  0
  137.7000   78.9830  222.7680 C   0  0  0  0  0  0  0  0  0  0  0  0
  138.7300   79.1920  221.6860 C   0  0  0  0  0  0  0  0  0  0  0  0
  138.3340   79.8750  220.7060 O   0  0  0  0  0  0  0  0  0  0  0  0
  140.0340   78.6460  221.8020 N   0  0  0  0  0  0  0  0  0  0  0  0
  140.9990   79.4760  222.5000 C   0  0  0  0  0  0  0  0  0  0  0  0
  142.3270   79.2430  222.3030 C   0  0  0  0  0  0  0  0  0  0  0  0
  143.2510   80.0390  222.9730 C   0  0  0  0  0  0  0  0  0  0  0  0
  142.7900   81.0510  223.8250 C   0  0  0  0  0  0  0  0  0  0  0  0
  141.4260   81.2570  224.0000 C   0  0  0  0  0  0  0  0  0  0  0  0
  140.5080   80.4720  223.3400 C   0  0  0  0  0  0  0  0  0  0  0  0
  140.4630   77.3820  221.3070 C   0  0  0  0  0  0  0  0  0  0  0  0
  139.4670   76.6570  220.4870 C   0  0  0  0  0  0  0  0  0  0  0  0
  139.0260   75.3660  221.1310 C   0  0  0  0  0  0  0  0  0  0  0  0
  140.1630   74.5100  221.3140 N   0  0  0  0  0  0  0  0  0  0  0  0
  140.1960   73.1090  221.3220 C   0  0  0  0  0  0  0  0  0  0  0  0
  141.3570   72.5470  221.4730 O   0  0  0  0  0  0  0  0  0  0  0  0
  139.0870   72.1600  221.1860 C   0  0  1  0  0  0  0  0  0  0  0  0
  139.5330   70.8250  220.9610 N   0  0  0  0  0  0  0  0  0  0  0  0
  138.1770   72.2510  222.4180 C   0  0  0  0  0  0  0  0  0  0  0  0
  138.5350   71.2470  223.4160 C   0  0  0  0  0  0  0  0  0  0  0  0
  139.8020   71.3530  224.0040 C   0  0  0  0  0  0  0  0  0  0  0  0
  140.2350   70.4470  224.9490 C   0  0  0  0  0  0  0  0  0  0  0  0
  139.4310   69.3960  225.3520 C   0  0  0  0  0  0  0  0  0  0  0  0
  140.0320   68.2870  226.5490 S   0  0  0  0  0  0  0  0  0  0  0  0
  139.9130   69.0680  228.1410 C   0  0  0  0  0  0  0  0  0  0  0  0
  139.2190   67.0250  226.4690 O   0  0  0  0  0  0  0  0  0  0  0  0
  141.4680   67.9720  226.2770 O   0  0  0  0  0  0  0  0  0  0  0  0
  138.1770   69.2870  224.7720 C   0  0  0  0  0  0  0  0  0  0  0  0
  137.7550   70.1980  223.8300 C   0  0  0  0  0  0  0  0  0  0  0  0
  141.4510   75.1990  221.5580 C   0  0  0  0  0  0  0  0  0  0  0  0
  141.0170   76.4410  222.3680 C   0  0  0  0  0  0  0  0  0  0  0  0
  136.9468   77.2022  223.7222 H   0  0  0  0  0  0  0  0  0  0  0  0
  136.1458   77.6142  222.1681 H   0  0  0  0  0  0  0  0  0  0  0  0
  137.8002   76.9144  222.1681 H   0  0  0  0  0  0  0  0  0  0  0  0
  136.8931   79.7200  222.6423 H   0  0  0  0  0  0  0  0  0  0  0  0
  138.1909   79.1075  223.7445 H   0  0  0  0  0  0  0  0  0  0  0  0
  142.6619   78.4417  221.6279 H   0  0  0  0  0  0  0  0  0  0  0  0
  144.3301   79.8756  222.8354 H   0  0  0  0  0  0  0  0  0  0  0  0
  143.5116   81.6867  224.3589 H   0  0  0  0  0  0  0  0  0  0  0  0
  141.0773   82.0548  224.6722 H   0  0  0  0  0  0  0  0  0  0  0  0
  139.4267   80.6258  223.4713 H   0  0  0  0  0  0  0  0  0  0  0  0
  141.2886   77.6796  220.6438 H   0  0  0  0  0  0  0  0  0  0  0  0
  138.5866   77.3017  220.3478 H   0  0  0  0  0  0  0  0  0  0  0  0
  139.9394   76.4091  219.5250 H   0  0  0  0  0  0  0  0  0  0  0  0
  138.5680   75.5812  222.1077 H   0  0  0  0  0  0  0  0  0  0  0  0
  138.2908   74.8657  220.4836 H   0  0  0  0  0  0  0  0  0  0  0  0
  138.5099   72.4386  220.2920 H   0  0  0  0  0  0  0  0  0  0  0  0
  140.5490   70.7340  220.7340 H   0  0  0  0  0  0  0  0  0  0  0  0
  138.9710   70.3850  220.2310 H   0  0  0  0  0  0  0  0  0  0  0  0
  138.2766   73.2515  222.8642 H   0  0  0  0  0  0  0  0  0  0  0  0
  137.1402   72.0694  222.0986 H   0  0  0  0  0  0  0  0  0  0  0  0
  140.4663   72.1773  223.7052 H   0  0  0  0  0  0  0  0  0  0  0  0
  141.2363   70.5619  225.3897 H   0  0  0  0  0  0  0  0  0  0  0  0
  140.0284   68.3107  228.9305 H   0  0  0  0  0  0  0  0  0  0  0  0
  140.7064   69.8236  228.2390 H   0  0  0  0  0  0  0  0  0  0  0  0
  138.9306   69.5530  228.2390 H   0  0  0  0  0  0  0  0  0  0  0  0
  137.5111   68.4629  225.0678 H   0  0  0  0  0  0  0  0  0  0  0  0
  136.7528   70.0797  223.3923 H   0  0  0  0  0  0  0  0  0  0  0  0
  142.1371   74.5652  222.1390 H   0  0  0  0  0  0  0  0  0  0  0  0
  141.9981   75.4456  220.6362 H   0  0  0  0  0  0  0  0  0  0  0  0
  140.2428   76.1793  223.1043 H   0  0  0  0  0  0  0  0  0  0  0  0
  141.8410   76.8848  222.9459 H   0  0  0  0  0  0  0  0  0  0  0  0
  1  2  1  0
  2  3  1  0
  3  4  2  0
  3  5  1  0
  5  6  1  0
  6  7  2  0
  7  8  1  0
  8  9  2  0
  9 10  1  0
 10 11  2  0
  5 12  1  0
 12 13  1  0
 13 14  1  0
 14 15  1  0
 15 16  1  0
 16 17  2  0
 16 18  1  0
 18 19  1  0
 18 20  1  0
 20 21  1  0
 21 22  2  0
 22 23  1  0
 23 24  2  0
 24 25  1  0
 25 26  1  0
 25 27  2  0
 25 28  2  0
 24 29  1  0
 29 30  2  0
 15 31  1  0
 31 32  1  0
 11  6  1  0
 32 12  1  0
 30 21  1  0
  1 33  1  0
  1 34  1  0
  1 35  1  0
  2 36  1  0
  2 37  1  0
  7 38  1  0
  8 39  1  0
  9 40  1  0
 10 41  1  0
 11 42  1  0
 12 43  1  0
 13 44  1  0
 13 45  1  0
 14 46  1  0
 14 47  1  0
 18 48  1  6
 19 49  1  0
 19 50  1  0
 20 51  1  0
 20 52  1  0
 22 53  1  0
 23 54  1  0
 26 55  1  0
 26 56  1  0
 26 57  1  0
 29 58  1  0
 30 59  1  0
 31 60  1  0
 31 61  1  0
 32 62  1  0
 32 63  1  0
M  END
>  <smiles>  (20) 
CCC(=O)N(c1ccccc1)C1CCN(C(=O)[C@@H](N)Cc2ccc(S(C)(=O)=O)cc2)CC1

>  <score_type>  (20) 
oracle

>  <origin>  (20) 
autodockgpu

>  <m_score__min__energy>  (20) 
-8.8800000000000008

>  <m_primary>  (20) 
energy

>  <rmsd>  (20) 
5.871313719744556

>  <m_score__min__rmsd>  (20) 
5.871313719744556

>  <meeko>  (20) 
{"free_energy": -7.26, "intermolecular_energy": -9.95, "internal_energy": -2.38, "cluster_size": 11, "cluster_id": 4, "rank_in_cluster": 9}

>  <energy>  (20) 
-7.3

>  <cluster_rmsd>  (20) 
1.95

>  <cluster>  (20) 
4

$$$$

     RDKit          3D

 63 65  0  0  0  0  0  0  0  0999 V2000
  138.2430   80.8720  223.7410 C   0  0  0  0  0  0  0  0  0  0  0  0
  137.9460   79.4210  223.3800 C   0  0  0  0  0  0  0  0  0  0  0  0
  138.4450   79.0900  221.9950 C   0  0  0  0  0  0  0  0  0  0  0  0
  137.6390   79.3540  221.0670 O   0  0  0  0  0  0  0  0  0  0  0  0
  139.7310   78.5250  221.7980 N   0  0  0  0  0  0  0  0  0  0  0  0
  140.8380   79.2770  222.3630 C   0  0  0  0  0  0  0  0  0  0  0  0
  141.4770   80.1900  221.5790 C   0  0  0  0  0  0  0  0  0  0  0  0
  142.5370   80.9090  222.1220 C   0  0  0  0  0  0  0  0  0  0  0  0
  142.9130   80.6740  223.4520 C   0  0  0  0  0  0  0  0  0  0  0  0
  142.2350   79.7320  224.2180 C   0  0  0  0  0  0  0  0  0  0  0  0
  141.1860   79.0180  223.6860 C   0  0  0  0  0  0  0  0  0  0  0  0
  140.0200   77.3110  221.1110 C   0  0  0  0  0  0  0  0  0  0  0  0
  138.8380   76.5030  220.7390 C   0  0  0  0  0  0  0  0  0  0  0  0
  138.8100   75.1710  221.4460 C   0  0  0  0  0  0  0  0  0  0  0  0
  139.9880   74.4250  221.1060 N   0  0  0  0  0  0  0  0  0  0  0  0
  140.1370   73.0330  221.0340 C   0  0  0  0  0  0  0  0  0  0  0  0
  141.2980   72.5820  220.6680 O   0  0  0  0  0  0  0  0  0  0  0  0
  139.1530   71.9850  221.3200 C   0  0  1  0  0  0  0  0  0  0  0  0
  139.7090   70.6750  221.2420 N   0  0  0  0  0  0  0  0  0  0  0  0
  138.5080   72.2440  222.6880 C   0  0  0  0  0  0  0  0  0  0  0  0
  138.9880   71.2930  223.6880 C   0  0  0  0  0  0  0  0  0  0  0  0
  138.0920   70.3050  224.1150 C   0  0  0  0  0  0  0  0  0  0  0  0
  138.4500   69.3690  225.0630 C   0  0  0  0  0  0  0  0  0  0  0  0
  139.7120   69.3730  225.6270 C   0  0  0  0  0  0  0  0  0  0  0  0
  140.1050   68.1650  226.8160 S   0  0  0  0  0  0  0  0  0  0  0  0
  139.9530   68.9000  228.4270 C   0  0  0  0  0  0  0  0  0  0  0  0
  139.1720   67.0010  226.6280 O   0  0  0  0  0  0  0  0  0  0  0  0
  141.5160   67.7070  226.6310 O   0  0  0  0  0  0  0  0  0  0  0  0
  140.6020   70.3480  225.2080 C   0  0  0  0  0  0  0  0  0  0  0  0
  140.2340   71.2770  224.2620 C   0  0  0  0  0  0  0  0  0  0  0  0
  141.2000   75.2300  220.8320 C   0  0  0  0  0  0  0  0  0  0  0  0
  141.0380   76.4180  221.8060 C   0  0  0  0  0  0  0  0  0  0  0  0
  138.2652   80.9804  224.8354 H   0  0  0  0  0  0  0  0  0  0  0  0
  139.2190   81.1612  223.3240 H   0  0  0  0  0  0  0  0  0  0  0  0
  137.4592   81.5214  223.3240 H   0  0  0  0  0  0  0  0  0  0  0  0
  138.4422   78.7616  224.1073 H   0  0  0  0  0  0  0  0  0  0  0  0
  136.8563   79.2726  223.4023 H   0  0  0  0  0  0  0  0  0  0  0  0
  141.1613   80.3551  220.5383 H   0  0  0  0  0  0  0  0  0  0  0  0
  143.0737   81.6530  221.5150 H   0  0  0  0  0  0  0  0  0  0  0  0
  143.7488   81.2378  223.8920 H   0  0  0  0  0  0  0  0  0  0  0  0
  142.5405   79.5559  225.2600 H   0  0  0  0  0  0  0  0  0  0  0  0
  140.6429   78.2708  224.2833 H   0  0  0  0  0  0  0  0  0  0  0  0
  140.4702   77.6904  220.1818 H   0  0  0  0  0  0  0  0  0  0  0  0
  137.9290   77.0632  221.0036 H   0  0  0  0  0  0  0  0  0  0  0  0
  138.8896   76.3090  219.6575 H   0  0  0  0  0  0  0  0  0  0  0  0
  138.7799   75.3335  222.5335 H   0  0  0  0  0  0  0  0  0  0  0  0
  137.9171   74.6090  221.1348 H   0  0  0  0  0  0  0  0  0  0  0  0
  138.3761   72.0278  220.5424 H   0  0  0  0  0  0  0  0  0  0  0  0
  140.7400   70.6250  221.4080 H   0  0  0  0  0  0  0  0  0  0  0  0
  139.4790   70.2470  220.3440 H   0  0  0  0  0  0  0  0  0  0  0  0
  138.7573   73.2644  223.0147 H   0  0  0  0  0  0  0  0  0  0  0  0
  137.4192   72.1236  222.5877 H   0  0  0  0  0  0  0  0  0  0  0  0
  137.0801   70.2747  223.6848 H   0  0  0  0  0  0  0  0  0  0  0  0
  137.7199   68.6077  225.3750 H   0  0  0  0  0  0  0  0  0  0  0  0
  140.1120   68.1310  229.1973 H   0  0  0  0  0  0  0  0  0  0  0  0
  140.7060   69.6938  228.5404 H   0  0  0  0  0  0  0  0  0  0  0  0
  138.9469   69.3301  228.5404 H   0  0  0  0  0  0  0  0  0  0  0  0
  141.6147   70.3801  225.6364 H   0  0  0  0  0  0  0  0  0  0  0  0
  140.9676   72.0366  223.9539 H   0  0  0  0  0  0  0  0  0  0  0  0
  142.1145   74.6589  221.0500 H   0  0  0  0  0  0  0  0  0  0  0  0
  141.2957   75.5351  219.7795 H   0  0  0  0  0  0  0  0  0  0  0  0
  140.6612   76.0778  222.7819 H   0  0  0  0  0  0  0  0  0  0  0  0
  141.9872   76.9328  222.0154 H   0  0  0  0  0  0  0  0  0  0  0  0
  1  2  1  0
  2  3  1  0
  3  4  2  0
  3  5  1  0
  5  6  1  0
  6  7  2  0
  7  8  1  0
  8  9  2  0
  9 10  1  0
 10 11  2  0
  5 12  1  0
 12 13  1  0
 13 14  1  0
 14 15  1  0
 15 16  1  0
 16 17  2  0
 16 18  1  0
 18 19  1  0
 18 20  1  0
 20 21  1  0
 21 22  2  0
 22 23  1  0
 23 24  2  0
 24 25  1  0
 25 26  1  0
 25 27  2  0
 25 28  2  0
 24 29  1  0
 29 30  2  0
 15 31  1  0
 31 32  1  0
 11  6  1  0
 32 12  1  0
 30 21  1  0
  1 33  1  0
  1 34  1  0
  1 35  1  0
  2 36  1  0
  2 37  1  0
  7 38  1  0
  8 39  1  0
  9 40  1  0
 10 41  1  0
 11 42  1  0
 12 43  1  0
 13 44  1  0
 13 45  1  0
 14 46  1  0
 14 47  1  0
 18 48  1  6
 19 49  1  0
 19 50  1  0
 20 51  1  0
 20 52  1  0
 22 53  1  0
 23 54  1  0
 26 55  1  0
 26 56  1  0
 26 57  1  0
 29 58  1  0
 30 59  1  0
 31 60  1  0
 31 61  1  0
 32 62  1  0
 32 63  1  0
M  END
>  <smiles>  (21) 
CCC(=O)N(c1ccccc1)C1CCN(C(=O)[C@@H](N)Cc2ccc(S(C)(=O)=O)cc2)CC1

>  <score_type>  (21) 
oracle

>  <origin>  (21) 
autodockgpu

>  <m_score__min__energy>  (21) 
-8.8800000000000008

>  <m_primary>  (21) 
energy

>  <rmsd>  (21) 
6.047180789094538

>  <m_score__min__rmsd>  (21) 
6.047180789094538

>  <meeko>  (21) 
{"free_energy": -7.33, "intermolecular_energy": -10.02, "internal_energy": -2.42, "cluster_size": 11, "cluster_id": 4, "rank_in_cluster": 7}

>  <energy>  (21) 
-7.26

>  <cluster_rmsd>  (21) 
1.7

>  <cluster>  (21) 
4

$$$$

     RDKit          3D

 63 65  0  0  0  0  0  0  0  0999 V2000
  142.8340   81.3270  217.5750 C   0  0  0  0  0  0  0  0  0  0  0  0
  142.4560   80.0320  218.2830 C   0  0  0  0  0  0  0  0  0  0  0  0
  141.4690   80.2840  219.3950 C   0  0  0  0  0  0  0  0  0  0  0  0
  140.7240   81.2830  219.2230 O   0  0  0  0  0  0  0  0  0  0  0  0
  141.4140   79.4360  220.5300 N   0  0  0  0  0  0  0  0  0  0  0  0
  141.6210   80.0900  221.8100 C   0  0  0  0  0  0  0  0  0  0  0  0
  142.8830   80.1420  222.3220 C   0  0  0  0  0  0  0  0  0  0  0  0
  143.0790   80.7690  223.5490 C   0  0  0  0  0  0  0  0  0  0  0  0
  141.9780   81.3240  224.2170 C   0  0  0  0  0  0  0  0  0  0  0  0
  140.7060   81.2490  223.6600 C   0  0  0  0  0  0  0  0  0  0  0  0
  140.5070   80.6300  222.4480 C   0  0  0  0  0  0  0  0  0  0  0  0
  141.1770   78.0320  220.5190 C   0  0  0  0  0  0  0  0  0  0  0  0
  139.9230   77.6110  219.8580 C   0  0  0  0  0  0  0  0  0  0  0  0
  138.9560   76.9670  220.8210 C   0  0  0  0  0  0  0  0  0  0  0  0
  139.5660   75.8050  221.4040 N   0  0  0  0  0  0  0  0  0  0  0  0
  138.9380   74.6390  221.8620 C   0  0  0  0  0  0  0  0  0  0  0  0
  139.7050   73.6980  222.3240 O   0  0  0  0  0  0  0  0  0  0  0  0
  137.5090   74.3160  221.9010 C   0  0  1  0  0  0  0  0  0  0  0  0
  137.2320   73.1410  222.6590 N   0  0  0  0  0  0  0  0  0  0  0  0
  136.7220   75.5250  222.4270 C   0  0  0  0  0  0  0  0  0  0  0  0
  135.6960   75.1130  223.3800 C   0  0  0  0  0  0  0  0  0  0  0  0
  135.8190   75.5800  224.6950 C   0  0  0  0  0  0  0  0  0  0  0  0
  134.9050   75.2370  225.6700 C   0  0  0  0  0  0  0  0  0  0  0  0
  133.8290   74.4180  225.3830 C   0  0  0  0  0  0  0  0  0  0  0  0
  132.7100   74.0230  226.6530 S   0  0  0  0  0  0  0  0  0  0  0  0
  131.1000   73.8080  225.9310 C   0  0  0  0  0  0  0  0  0  0  0  0
  133.1990   72.7770  227.3400 O   0  0  0  0  0  0  0  0  0  0  0  0
  132.6430   75.1430  227.6420 O   0  0  0  0  0  0  0  0  0  0  0  0
  133.7030   73.9530  224.0830 C   0  0  0  0  0  0  0  0  0  0  0  0
  134.6210   74.3020  223.1190 C   0  0  0  0  0  0  0  0  0  0  0  0
  141.0360   75.8690  221.5710 C   0  0  0  0  0  0  0  0  0  0  0  0
  141.2720   77.3630  221.8840 C   0  0  0  0  0  0  0  0  0  0  0  0
  143.0600   82.1013  218.3229 H   0  0  0  0  0  0  0  0  0  0  0  0
  143.7196   81.1557  216.9454 H   0  0  0  0  0  0  0  0  0  0  0  0
  141.9953   81.6590  216.9454 H   0  0  0  0  0  0  0  0  0  0  0  0
  142.0057   79.3429  217.5534 H   0  0  0  0  0  0  0  0  0  0  0  0
  143.3668   79.5959  218.7191 H   0  0  0  0  0  0  0  0  0  0  0  0
  143.7289   79.6977  221.7769 H   0  0  0  0  0  0  0  0  0  0  0  0
  144.0852   80.8285  223.9894 H   0  0  0  0  0  0  0  0  0  0  0  0
  142.1214   81.8217  225.1874 H   0  0  0  0  0  0  0  0  0  0  0  0
  139.8508   81.6890  224.1939 H   0  0  0  0  0  0  0  0  0  0  0  0
  139.5049   80.5639  221.9991 H   0  0  0  0  0  0  0  0  0  0  0  0
  142.0148   77.6774  219.9007 H   0  0  0  0  0  0  0  0  0  0  0  0
  139.4433   78.4955  219.4135 H   0  0  0  0  0  0  0  0  0  0  0  0
  140.1807   76.8656  219.0912 H   0  0  0  0  0  0  0  0  0  0  0  0
  138.6971   77.6830  221.6149 H   0  0  0  0  0  0  0  0  0  0  0  0
  138.0432   76.6718  220.2827 H   0  0  0  0  0  0  0  0  0  0  0  0
  137.1841   74.0937  220.8739 H   0  0  0  0  0  0  0  0  0  0  0  0
  136.9500   73.3140  223.6500 H   0  0  0  0  0  0  0  0  0  0  0  0
  138.0320   72.5070  222.6300 H   0  0  0  0  0  0  0  0  0  0  0  0
  137.4174   76.2166  222.9251 H   0  0  0  0  0  0  0  0  0  0  0  0
  136.2291   76.0169  221.5755 H   0  0  0  0  0  0  0  0  0  0  0  0
  136.6633   76.2349  224.9561 H   0  0  0  0  0  0  0  0  0  0  0  0
  135.0346   75.6215  226.6924 H   0  0  0  0  0  0  0  0  0  0  0  0
  130.3504   73.7079  226.7298 H   0  0  0  0  0  0  0  0  0  0  0  0
  130.8578   74.6818  225.3082 H   0  0  0  0  0  0  0  0  0  0  0  0
  131.0956   72.9013  225.3082 H   0  0  0  0  0  0  0  0  0  0  0  0
  132.8598   73.2977  223.8191 H   0  0  0  0  0  0  0  0  0  0  0  0
  134.4873   73.9150  222.0980 H   0  0  0  0  0  0  0  0  0  0  0  0
  141.3698   75.2310  222.4026 H   0  0  0  0  0  0  0  0  0  0  0  0
  141.5932   75.5116  220.6924 H   0  0  0  0  0  0  0  0  0  0  0  0
  140.4994   77.7487  222.5654 H   0  0  0  0  0  0  0  0  0  0  0  0
  142.2330   77.5488  222.3861 H   0  0  0  0  0  0  0  0  0  0  0  0
  1  2  1  0
  2  3  1  0
  3  4  2  0
  3  5  1  0
  5  6  1  0
  6  7  2  0
  7  8  1  0
  8  9  2  0
  9 10  1  0
 10 11  2  0
  5 12  1  0
 12 13  1  0
 13 14  1  0
 14 15  1  0
 15 16  1  0
 16 17  2  0
 16 18  1  0
 18 19  1  0
 18 20  1  0
 20 21  1  0
 21 22  2  0
 22 23  1  0
 23 24  2  0
 24 25  1  0
 25 26  1  0
 25 27  2  0
 25 28  2  0
 24 29  1  0
 29 30  2  0
 15 31  1  0
 31 32  1  0
 11  6  1  0
 32 12  1  0
 30 21  1  0
  1 33  1  0
  1 34  1  0
  1 35  1  0
  2 36  1  0
  2 37  1  0
  7 38  1  0
  8 39  1  0
  9 40  1  0
 10 41  1  0
 11 42  1  0
 12 43  1  0
 13 44  1  0
 13 45  1  0
 14 46  1  0
 14 47  1  0
 18 48  1  6
 19 49  1  0
 19 50  1  0
 20 51  1  0
 20 52  1  0
 22 53  1  0
 23 54  1  0
 26 55  1  0
 26 56  1  0
 26 57  1  0
 29 58  1  0
 30 59  1  0
 31 60  1  0
 31 61  1  0
 32 62  1  0
 32 63  1  0
M  END
>  <smiles>  (22) 
CCC(=O)N(c1ccccc1)C1CCN(C(=O)[C@@H](N)Cc2ccc(S(C)(=O)=O)cc2)CC1

>  <score_type>  (22) 
oracle

>  <origin>  (22) 
autodockgpu

>  <m_score__min__energy>  (22) 
-8.8800000000000008

>  <m_primary>  (22) 
energy

>  <rmsd>  (22) 
5.356272529065496

>  <m_score__min__rmsd>  (22) 
5.356272529065496

>  <meeko>  (22) 
{"free_energy": -7.31, "intermolecular_energy": -10.0, "internal_energy": -2.22, "cluster_size": 3, "cluster_id": 7, "rank_in_cluster": 2}

>  <energy>  (22) 
-7.24

>  <cluster_rmsd>  (22) 
1.5

>  <cluster>  (22) 
4

$$$$

     RDKit          3D

 63 65  0  0  0  0  0  0  0  0999 V2000
  142.5200   77.7260  217.3690 C   0  0  0  0  0  0  0  0  0  0  0  0
  142.4010   78.5680  218.6340 C   0  0  0  0  0  0  0  0  0  0  0  0
  142.2030   77.7020  219.8520 C   0  0  0  0  0  0  0  0  0  0  0  0
  143.0180   76.7500  219.9610 O   0  0  0  0  0  0  0  0  0  0  0  0
  141.1660   77.9740  220.7810 N   0  0  0  0  0  0  0  0  0  0  0  0
  141.4300   79.0540  221.7140 C   0  0  0  0  0  0  0  0  0  0  0  0
  141.8400   78.7440  222.9760 C   0  0  0  0  0  0  0  0  0  0  0  0
  142.0930   79.7810  223.8690 C   0  0  0  0  0  0  0  0  0  0  0  0
  141.9190   81.1060  223.4460 C   0  0  0  0  0  0  0  0  0  0  0  0
  141.4980   81.3800  222.1480 C   0  0  0  0  0  0  0  0  0  0  0  0
  141.2470   80.3590  221.2620 C   0  0  0  0  0  0  0  0  0  0  0  0
  139.9180   77.2940  220.8700 C   0  0  0  0  0  0  0  0  0  0  0  0
  139.5930   76.7490  222.2060 C   0  0  0  0  0  0  0  0  0  0  0  0
  139.5120   75.2420  222.2060 C   0  0  0  0  0  0  0  0  0  0  0  0
  138.4920   74.8190  221.2890 N   0  0  0  0  0  0  0  0  0  0  0  0
  137.6970   73.6670  221.3550 C   0  0  0  0  0  0  0  0  0  0  0  0
  136.8070   73.5090  220.4220 O   0  0  0  0  0  0  0  0  0  0  0  0
  137.7220   72.5850  222.3440 C   0  0  1  0  0  0  0  0  0  0  0  0
  136.6430   71.6680  222.1810 N   0  0  0  0  0  0  0  0  0  0  0  0
  139.0800   71.8730  222.2940 C   0  0  0  0  0  0  0  0  0  0  0  0
  139.4940   71.4300  223.6230 C   0  0  0  0  0  0  0  0  0  0  0  0
  138.7140   70.4450  224.2410 C   0  0  0  0  0  0  0  0  0  0  0  0
  139.0180   69.9690  225.5000 C   0  0  0  0  0  0  0  0  0  0  0  0
  140.1100   70.4500  226.1980 C   0  0  0  0  0  0  0  0  0  0  0  0
  140.4450   69.8090  227.7800 S   0  0  0  0  0  0  0  0  0  0  0  0
  141.0340   68.1430  227.5940 C   0  0  0  0  0  0  0  0  0  0  0  0
  141.4560   70.7030  228.4440 O   0  0  0  0  0  0  0  0  0  0  0  0
  139.1920   69.7840  228.5960 O   0  0  0  0  0  0  0  0  0  0  0  0
  140.8850   71.4240  225.5910 C   0  0  0  0  0  0  0  0  0  0  0  0
  140.5730   71.8910  224.3350 C   0  0  0  0  0  0  0  0  0  0  0  0
  138.2840   75.6940  220.1130 C   0  0  0  0  0  0  0  0  0  0  0  0
  139.7120   76.2090  219.8230 C   0  0  0  0  0  0  0  0  0  0  0  0
  142.6691   76.6712  217.6433 H   0  0  0  0  0  0  0  0  0  0  0  0
  141.5991   77.8239  216.7754 H   0  0  0  0  0  0  0  0  0  0  0  0
  143.3777   78.0753  216.7754 H   0  0  0  0  0  0  0  0  0  0  0  0
  143.3209   79.1580  218.7596 H   0  0  0  0  0  0  0  0  0  0  0  0
  141.5266   79.2274  218.5311 H   0  0  0  0  0  0  0  0  0  0  0  0
  141.9684   77.6954  223.2827 H   0  0  0  0  0  0  0  0  0  0  0  0
  142.4256   79.5634  224.8947 H   0  0  0  0  0  0  0  0  0  0  0  0
  142.1162   81.9335  224.1435 H   0  0  0  0  0  0  0  0  0  0  0  0
  141.3647   82.4239  221.8278 H   0  0  0  0  0  0  0  0  0  0  0  0
  140.9139   80.5650  220.2341 H   0  0  0  0  0  0  0  0  0  0  0  0
  139.2121   78.1118  220.6631 H   0  0  0  0  0  0  0  0  0  0  0  0
  140.3740   77.0612  222.9149 H   0  0  0  0  0  0  0  0  0  0  0  0
  138.6066   77.1389  222.4974 H   0  0  0  0  0  0  0  0  0  0  0  0
  140.4806   74.8225  221.8964 H   0  0  0  0  0  0  0  0  0  0  0  0
  139.2662   74.8874  223.2178 H   0  0  0  0  0  0  0  0  0  0  0  0
  137.5873   73.0328  223.3397 H   0  0  0  0  0  0  0  0  0  0  0  0
  136.3140   71.5480  221.1970 H   0  0  0  0  0  0  0  0  0  0  0  0
  135.8600   71.9350  222.7800 H   0  0  0  0  0  0  0  0  0  0  0  0
  139.0020   70.9978  221.6323 H   0  0  0  0  0  0  0  0  0  0  0  0
  139.8307   72.5814  221.9137 H   0  0  0  0  0  0  0  0  0  0  0  0
  137.8388   70.0414  223.7107 H   0  0  0  0  0  0  0  0  0  0  0  0
  138.3820   69.1954  225.9550 H   0  0  0  0  0  0  0  0  0  0  0  0
  141.1917   67.6968  228.5870 H   0  0  0  0  0  0  0  0  0  0  0  0
  140.2907   67.5510  227.0399 H   0  0  0  0  0  0  0  0  0  0  0  0
  141.9842   68.1497  227.0399 H   0  0  0  0  0  0  0  0  0  0  0  0
  141.7606   71.8292  226.1194 H   0  0  0  0  0  0  0  0  0  0  0  0
  141.2130   72.6637  223.8841 H   0  0  0  0  0  0  0  0  0  0  0  0
  137.8855   75.1254  219.2599 H   0  0  0  0  0  0  0  0  0  0  0  0
  137.5547   76.4986  220.2884 H   0  0  0  0  0  0  0  0  0  0  0  0
  140.4519   75.4036  219.9407 H   0  0  0  0  0  0  0  0  0  0  0  0
  139.8335   76.5781  218.7939 H   0  0  0  0  0  0  0  0  0  0  0  0
  1  2  1  0
  2  3  1  0
  3  4  2  0
  3  5  1  0
  5  6  1  0
  6  7  2  0
  7  8  1  0
  8  9  2  0
  9 10  1  0
 10 11  2  0
  5 12  1  0
 12 13  1  0
 13 14  1  0
 14 15  1  0
 15 16  1  0
 16 17  2  0
 16 18  1  0
 18 19  1  0
 18 20  1  0
 20 21  1  0
 21 22  2  0
 22 23  1  0
 23 24  2  0
 24 25  1  0
 25 26  1  0
 25 27  2  0
 25 28  2  0
 24 29  1  0
 29 30  2  0
 15 31  1  0
 31 32  1  0
 11  6  1  0
 32 12  1  0
 30 21  1  0
  1 33  1  0
  1 34  1  0
  1 35  1  0
  2 36  1  0
  2 37  1  0
  7 38  1  0
  8 39  1  0
  9 40  1  0
 10 41  1  0
 11 42  1  0
 12 43  1  0
 13 44  1  0
 13 45  1  0
 14 46  1  0
 14 47  1  0
 18 48  1  1
 19 49  1  0
 19 50  1  0
 20 51  1  0
 20 52  1  0
 22 53  1  0
 23 54  1  0
 26 55  1  0
 26 56  1  0
 26 57  1  0
 29 58  1  0
 30 59  1  0
 31 60  1  0
 31 61  1  0
 32 62  1  0
 32 63  1  0
M  END
>  <smiles>  (23) 
CCC(=O)N(c1ccccc1)C1CCN(C(=O)[C@@H](N)Cc2ccc(S(C)(=O)=O)cc2)CC1

>  <score_type>  (23) 
oracle

>  <origin>  (23) 
autodockgpu

>  <m_score__min__energy>  (23) 
-8.8800000000000008

>  <m_primary>  (23) 
energy

>  <rmsd>  (23) 
6.159255732898588

>  <m_score__min__rmsd>  (23) 
6.159255732898588

>  <meeko>  (23) 
{"free_energy": -7.1, "intermolecular_energy": -9.78, "internal_energy": -2.33, "cluster_size": 11, "cluster_id": 4, "rank_in_cluster": 11}

>  <energy>  (23) 
-7.1

>  <cluster_rmsd>  (23) 
1.93

>  <cluster>  (23) 
4

$$$$

     RDKit          3D

 63 65  0  0  0  0  0  0  0  0999 V2000
  138.0340   80.7350  223.1670 C   0  0  0  0  0  0  0  0  0  0  0  0
  137.6510   79.6970  222.1190 C   0  0  0  0  0  0  0  0  0  0  0  0
  138.6840   79.6200  221.0230 C   0  0  0  0  0  0  0  0  0  0  0  0
  138.4210   80.3060  220.0010 O   0  0  0  0  0  0  0  0  0  0  0  0
  139.8490   78.8250  221.1710 N   0  0  0  0  0  0  0  0  0  0  0  0
  140.8460   79.3430  222.0920 C   0  0  0  0  0  0  0  0  0  0  0  0
  140.9300   78.8000  223.3390 C   0  0  0  0  0  0  0  0  0  0  0  0
  141.8850   79.2970  224.2200 C   0  0  0  0  0  0  0  0  0  0  0  0
  142.7280   80.3370  223.8000 C   0  0  0  0  0  0  0  0  0  0  0  0
  142.6090   80.8640  222.5180 C   0  0  0  0  0  0  0  0  0  0  0  0
  141.6660   80.3760  221.6440 C   0  0  0  0  0  0  0  0  0  0  0  0
  140.1150   77.5920  220.5120 C   0  0  0  0  0  0  0  0  0  0  0  0
  139.0250   76.5940  220.5810 C   0  0  0  0  0  0  0  0  0  0  0  0
  139.4270   75.3590  221.3500 C   0  0  0  0  0  0  0  0  0  0  0  0
  140.5560   74.7450  220.7100 N   0  0  0  0  0  0  0  0  0  0  0  0
  140.9020   73.3870  220.6880 C   0  0  0  0  0  0  0  0  0  0  0  0
  141.9580   73.0580  220.0090 O   0  0  0  0  0  0  0  0  0  0  0  0
  140.2330   72.2550  221.3360 C   0  0  1  0  0  0  0  0  0  0  0  0
  141.0300   71.0740  221.3340 N   0  0  0  0  0  0  0  0  0  0  0  0
  139.8130   72.6510  222.7580 C   0  0  0  0  0  0  0  0  0  0  0  0
  139.8180   71.4960  223.6510 C   0  0  0  0  0  0  0  0  0  0  0  0
  140.6660   71.5500  224.7650 C   0  0  0  0  0  0  0  0  0  0  0  0
  140.7480   70.5040  225.6600 C   0  0  0  0  0  0  0  0  0  0  0  0
  139.9920   69.3590  225.4900 C   0  0  0  0  0  0  0  0  0  0  0  0
  140.1370   68.0750  226.6540 S   0  0  0  0  0  0  0  0  0  0  0  0
  139.9840   68.7770  228.2800 C   0  0  0  0  0  0  0  0  0  0  0  0
  139.0660   67.0590  226.3670 O   0  0  0  0  0  0  0  0  0  0  0  0
  141.4810   67.4300  226.5380 O   0  0  0  0  0  0  0  0  0  0  0  0
  139.1510   69.3000  224.3900 C   0  0  0  0  0  0  0  0  0  0  0  0
  139.0770   70.3500  223.5040 C   0  0  0  0  0  0  0  0  0  0  0  0
  141.4820   75.6700  220.0180 C   0  0  0  0  0  0  0  0  0  0  0  0
  141.4260   76.9290  220.9130 C   0  0  0  0  0  0  0  0  0  0  0  0
  137.8793   80.3156  224.1721 H   0  0  0  0  0  0  0  0  0  0  0  0
  139.0922   81.0084  223.0427 H   0  0  0  0  0  0  0  0  0  0  0  0
  137.4070   81.6302  223.0427 H   0  0  0  0  0  0  0  0  0  0  0  0
  137.5676   78.7127  222.6029 H   0  0  0  0  0  0  0  0  0  0  0  0
  136.6905   79.9925  221.6716 H   0  0  0  0  0  0  0  0  0  0  0  0
  140.2563   77.9852  223.6428 H   0  0  0  0  0  0  0  0  0  0  0  0
  141.9781   78.8797  225.2335 H   0  0  0  0  0  0  0  0  0  0  0  0
  143.4870   80.7378  224.4880 H   0  0  0  0  0  0  0  0  0  0  0  0
  143.2758   81.6791  222.2003 H   0  0  0  0  0  0  0  0  0  0  0  0
  141.5631   80.7863  220.6286 H   0  0  0  0  0  0  0  0  0  0  0  0
  140.2000   77.9215  219.4660 H   0  0  0  0  0  0  0  0  0  0  0  0
  138.1566   77.0523  221.0767 H   0  0  0  0  0  0  0  0  0  0  0  0
  138.7845   76.2866  219.5525 H   0  0  0  0  0  0  0  0  0  0  0  0
  139.6960   75.6389  222.3792 H   0  0  0  0  0  0  0  0  0  0  0  0
  138.5864   74.6498  221.3716 H   0  0  0  0  0  0  0  0  0  0  0  0
  139.3341   72.0111  220.7508 H   0  0  0  0  0  0  0  0  0  0  0  0
  142.0490   71.2320  221.1610 H   0  0  0  0  0  0  0  0  0  0  0  0
  140.6620   70.4010  220.6600 H   0  0  0  0  0  0  0  0  0  0  0  0
  140.5155   73.4050  223.1427 H   0  0  0  0  0  0  0  0  0  0  0  0
  138.7913   73.0568  222.7191 H   0  0  0  0  0  0  0  0  0  0  0  0
  141.2805   72.4474  224.9295 H   0  0  0  0  0  0  0  0  0  0  0  0
  141.4257   70.5819  226.5229 H   0  0  0  0  0  0  0  0  0  0  0  0
  140.1544   67.9949  229.0345 H   0  0  0  0  0  0  0  0  0  0  0  0
  140.7290   69.5765  228.4058 H   0  0  0  0  0  0  0  0  0  0  0  0
  138.9739   69.1940  228.4058 H   0  0  0  0  0  0  0  0  0  0  0  0
  138.5357   68.4035  224.2234 H   0  0  0  0  0  0  0  0  0  0  0  0
  138.3968   70.2678  222.6434 H   0  0  0  0  0  0  0  0  0  0  0  0
  142.5004   75.2563  219.9768 H   0  0  0  0  0  0  0  0  0  0  0  0
  141.2078   75.8635  218.9705 H   0  0  0  0  0  0  0  0  0  0  0  0
  141.4180   76.6542  221.9781 H   0  0  0  0  0  0  0  0  0  0  0  0
  142.2971   77.5876  220.7811 H   0  0  0  0  0  0  0  0  0  0  0  0
  1  2  1  0
  2  3  1  0
  3  4  2  0
  3  5  1  0
  5  6  1  0
  6  7  2  0
  7  8  1  0
  8  9  2  0
  9 10  1  0
 10 11  2  0
  5 12  1  0
 12 13  1  0
 13 14  1  0
 14 15  1  0
 15 16  1  0
 16 17  2  0
 16 18  1  0
 18 19  1  0
 18 20  1  0
 20 21  1  0
 21 22  2  0
 22 23  1  0
 23 24  2  0
 24 25  1  0
 25 26  1  0
 25 27  2  0
 25 28  2  0
 24 29  1  0
 29 30  2  0
 15 31  1  0
 31 32  1  0
 11  6  1  0
 32 12  1  0
 30 21  1  0
  1 33  1  0
  1 34  1  0
  1 35  1  0
  2 36  1  0
  2 37  1  0
  7 38  1  0
  8 39  1  0
  9 40  1  0
 10 41  1  0
 11 42  1  0
 12 43  1  0
 13 44  1  0
 13 45  1  0
 14 46  1  0
 14 47  1  0
 18 48  1  6
 19 49  1  0
 19 50  1  0
 20 51  1  0
 20 52  1  0
 22 53  1  0
 23 54  1  0
 26 55  1  0
 26 56  1  0
 26 57  1  0
 29 58  1  0
 30 59  1  0
 31 60  1  0
 31 61  1  0
 32 62  1  0
 32 63  1  0
M  END
>  <smiles>  (24) 
CCC(=O)N(c1ccccc1)C1CCN(C(=O)[C@@H](N)Cc2ccc(S(C)(=O)=O)cc2)CC1

>  <score_type>  (24) 
oracle

>  <origin>  (24) 
autodockgpu

>  <m_score__min__energy>  (24) 
-8.8800000000000008

>  <m_primary>  (24) 
energy

>  <rmsd>  (24) 
5.808610497719799

>  <m_score__min__rmsd>  (24) 
5.808610497719799

>  <meeko>  (24) 
{"free_energy": -7.3, "intermolecular_energy": -9.98, "internal_energy": -2.29, "cluster_size": 11, "cluster_id": 4, "rank_in_cluster": 8}

>  <energy>  (24) 
-7.68

>  <cluster_rmsd>  (24) 
0.0

>  <cluster>  (24) 
5

$$$$

     RDKit          3D

 63 65  0  0  0  0  0  0  0  0999 V2000
  140.1310   81.9350  221.8460 C   0  0  0  0  0  0  0  0  0  0  0  0
  141.3220   81.6770  222.7590 C   0  0  0  0  0  0  0  0  0  0  0  0
  142.1080   80.4720  222.3060 C   0  0  0  0  0  0  0  0  0  0  0  0
  143.3270   80.4890  222.6170 O   0  0  0  0  0  0  0  0  0  0  0  0
  141.4840   79.4210  221.5870 N   0  0  0  0  0  0  0  0  0  0  0  0
  141.8570   79.3120  220.1880 C   0  0  0  0  0  0  0  0  0  0  0  0
  141.8740   80.4410  219.4250 C   0  0  0  0  0  0  0  0  0  0  0  0
  142.2320   80.3350  218.0850 C   0  0  0  0  0  0  0  0  0  0  0  0
  142.5630   79.0760  217.5630 C   0  0  0  0  0  0  0  0  0  0  0  0
  142.5330   77.9480  218.3760 C   0  0  0  0  0  0  0  0  0  0  0  0
  142.1790   78.0480  219.7010 C   0  0  0  0  0  0  0  0  0  0  0  0
  140.5470   78.4850  222.1110 C   0  0  0  0  0  0  0  0  0  0  0  0
  141.1420   77.3020  222.7710 C   0  0  0  0  0  0  0  0  0  0  0  0
  140.8180   76.0190  222.0460 C   0  0  0  0  0  0  0  0  0  0  0  0
  139.3940   75.8400  222.0040 N   0  0  0  0  0  0  0  0  0  0  0  0
  138.6770   74.6370  221.9720 C   0  0  0  0  0  0  0  0  0  0  0  0
  137.3810   74.7220  221.9720 O   0  0  0  0  0  0  0  0  0  0  0  0
  139.1840   73.2620  221.9350 C   0  0  1  0  0  0  0  0  0  0  0  0
  138.2450   72.3170  222.4430 N   0  0  0  0  0  0  0  0  0  0  0  0
  139.6180   72.9120  220.5050 C   0  0  0  0  0  0  0  0  0  0  0  0
  141.0670   72.7560  220.4150 C   0  0  0  0  0  0  0  0  0  0  0  0
  141.7780   73.7520  219.7340 C   0  0  0  0  0  0  0  0  0  0  0  0
  143.1480   73.6870  219.5880 C   0  0  0  0  0  0  0  0  0  0  0  0
  143.8720   72.6330  220.1130 C   0  0  0  0  0  0  0  0  0  0  0  0
  145.5980   72.6080  219.8980 S   0  0  0  0  0  0  0  0  0  0  0  0
  146.3470   73.3680  221.3200 C   0  0  0  0  0  0  0  0  0  0  0  0
  146.0290   71.1780  219.7210 O   0  0  0  0  0  0  0  0  0  0  0  0
  145.9730   73.3950  218.6830 O   0  0  0  0  0  0  0  0  0  0  0  0
  143.1740   71.6450  220.7880 C   0  0  0  0  0  0  0  0  0  0  0  0
  141.8070   71.7190  220.9270 C   0  0  0  0  0  0  0  0  0  0  0  0
  138.5930   77.0840  221.9550 C   0  0  0  0  0  0  0  0  0  0  0  0
  139.4890   78.0250  221.1170 C   0  0  0  0  0  0  0  0  0  0  0  0
  139.2365   82.1288  222.4561 H   0  0  0  0  0  0  0  0  0  0  0  0
  140.3382   82.8091  221.2111 H   0  0  0  0  0  0  0  0  0  0  0  0
  139.9579   81.0535  221.2111 H   0  0  0  0  0  0  0  0  0  0  0  0
  141.9796   82.5587  222.7481 H   0  0  0  0  0  0  0  0  0  0  0  0
  140.9460   81.4849  223.7747 H   0  0  0  0  0  0  0  0  0  0  0  0
  141.6100   81.4163  219.8599 H   0  0  0  0  0  0  0  0  0  0  0  0
  142.2552   81.2277  217.4426 H   0  0  0  0  0  0  0  0  0  0  0  0
  142.8479   78.9802  216.5049 H   0  0  0  0  0  0  0  0  0  0  0  0
  142.7950   76.9661  217.9550 H   0  0  0  0  0  0  0  0  0  0  0  0
  142.1512   77.1619  220.3522 H   0  0  0  0  0  0  0  0  0  0  0  0
  140.0528   79.0863  222.8883 H   0  0  0  0  0  0  0  0  0  0  0  0
  142.2346   77.4255  222.8005 H   0  0  0  0  0  0  0  0  0  0  0  0
  140.7183   77.2327  223.7837 H   0  0  0  0  0  0  0  0  0  0  0  0
  141.2119   76.0679  221.0201 H   0  0  0  0  0  0  0  0  0  0  0  0
  141.2787   75.1720  222.5755 H   0  0  0  0  0  0  0  0  0  0  0  0
  140.0576   73.2050  222.6010 H   0  0  0  0  0  0  0  0  0  0  0  0
  137.2530   72.4930  222.1680 H   0  0  0  0  0  0  0  0  0  0  0  0
  138.3200   72.2590  223.4600 H   0  0  0  0  0  0  0  0  0  0  0  0
  139.1365   71.9697  220.2047 H   0  0  0  0  0  0  0  0  0  0  0  0
  139.3145   73.7329  219.8387 H   0  0  0  0  0  0  0  0  0  0  0  0
  141.2316   74.6053  219.3059 H   0  0  0  0  0  0  0  0  0  0  0  0
  143.6729   74.4868  219.0450 H   0  0  0  0  0  0  0  0  0  0  0  0
  145.9192   72.9339  222.2357 H   0  0  0  0  0  0  0  0  0  0  0  0
  147.4323   73.1897  221.3021 H   0  0  0  0  0  0  0  0  0  0  0  0
  146.1529   74.4506  221.3021 H   0  0  0  0  0  0  0  0  0  0  0  0
  143.7188   70.7915  221.2178 H   0  0  0  0  0  0  0  0  0  0  0  0
  141.2867   70.9159  221.4696 H   0  0  0  0  0  0  0  0  0  0  0  0
  137.6243   76.9141  221.4622 H   0  0  0  0  0  0  0  0  0  0  0  0
  138.3438   77.4850  222.9486 H   0  0  0  0  0  0  0  0  0  0  0  0
  139.9480   77.4851  220.2757 H   0  0  0  0  0  0  0  0  0  0  0  0
  138.9316   78.8597  220.6670 H   0  0  0  0  0  0  0  0  0  0  0  0
  1  2  1  0
  2  3  1  0
  3  4  2  0
  3  5  1  0
  5  6  1  0
  6  7  2  0
  7  8  1  0
  8  9  2  0
  9 10  1  0
 10 11  2  0
  5 12  1  0
 12 13  1  0
 13 14  1  0
 14 15  1  0
 15 16  1  0
 16 17  2  0
 16 18  1  0
 18 19  1  0
 18 20  1  0
 20 21  1  0
 21 22  2  0
 22 23  1  0
 23 24  2  0
 24 25  1  0
 25 26  1  0
 25 27  2  0
 25 28  2  0
 24 29  1  0
 29 30  2  0
 15 31  1  0
 31 32  1  0
 11  6  1  0
 32 12  1  0
 30 21  1  0
  1 33  1  0
  1 34  1  0
  1 35  1  0
  2 36  1  0
  2 37  1  0
  7 38  1  0
  8 39  1  0
  9 40  1  0
 10 41  1  0
 11 42  1  0
 12 43  1  0
 13 44  1  0
 13 45  1  0
 14 46  1  0
 14 47  1  0
 18 48  1  1
 19 49  1  0
 19 50  1  0
 20 51  1  0
 20 52  1  0
 22 53  1  0
 23 54  1  0
 26 55  1  0
 26 56  1  0
 26 57  1  0
 29 58  1  0
 30 59  1  0
 31 60  1  0
 31 61  1  0
 32 62  1  0
 32 63  1  0
M  END
>  <smiles>  (25) 
CCC(=O)N(c1ccccc1)C1CCN(C(=O)[C@@H](N)Cc2ccc(S(C)(=O)=O)cc2)CC1

>  <score_type>  (25) 
oracle

>  <origin>  (25) 
autodockgpu

>  <m_score__min__energy>  (25) 
-8.8800000000000008

>  <m_primary>  (25) 
energy

>  <rmsd>  (25) 
4.489849437825557

>  <m_score__min__rmsd>  (25) 
4.489849437825557

>  <meeko>  (25) 
{"free_energy": -6.84, "intermolecular_energy": -9.53, "internal_energy": -2.77, "cluster_size": 19, "cluster_id": 5, "rank_in_cluster": 14}

>  <energy>  (25) 
-7.58

>  <cluster_rmsd>  (25) 
0.17

>  <cluster>  (25) 
5

$$$$

     RDKit          3D

 63 65  0  0  0  0  0  0  0  0999 V2000
  142.1630   80.1660  218.9430 C   0  0  0  0  0  0  0  0  0  0  0  0
  141.1420   79.0520  219.1400 C   0  0  0  0  0  0  0  0  0  0  0  0
  140.1430   79.4090  220.2120 C   0  0  0  0  0  0  0  0  0  0  0  0
  139.1770   80.1120  219.8210 O   0  0  0  0  0  0  0  0  0  0  0  0
  140.3160   78.9640  221.5490 N   0  0  0  0  0  0  0  0  0  0  0  0
  141.2300   79.7520  222.3560 C   0  0  0  0  0  0  0  0  0  0  0  0
  140.7340   80.7990  223.0740 C   0  0  0  0  0  0  0  0  0  0  0  0
  141.6110   81.5530  223.8470 C   0  0  0  0  0  0  0  0  0  0  0  0
  142.9710   81.2150  223.8640 C   0  0  0  0  0  0  0  0  0  0  0  0
  143.4380   80.1390  223.1160 C   0  0  0  0  0  0  0  0  0  0  0  0
  142.5750   79.3900  222.3500 C   0  0  0  0  0  0  0  0  0  0  0  0
  139.6810   77.8400  222.1490 C   0  0  0  0  0  0  0  0  0  0  0  0
  140.5760   76.7020  222.4550 C   0  0  0  0  0  0  0  0  0  0  0  0
  140.2290   75.4710  221.6540 C   0  0  0  0  0  0  0  0  0  0  0  0
  138.8820   75.0730  221.9490 N   0  0  0  0  0  0  0  0  0  0  0  0
  138.3390   73.7810  221.9230 C   0  0  0  0  0  0  0  0  0  0  0  0
  137.0920   73.6590  222.2640 O   0  0  0  0  0  0  0  0  0  0  0  0
  138.9840   72.5170  221.5560 C   0  0  1  0  0  0  0  0  0  0  0  0
  139.2180   72.4080  220.1540 N   0  0  0  0  0  0  0  0  0  0  0  0
  140.2800   72.3480  222.3600 C   0  0  0  0  0  0  0  0  0  0  0  0
  140.1430   71.3030  223.3700 C   0  0  0  0  0  0  0  0  0  0  0  0
  140.7400   71.5330  224.6160 C   0  0  0  0  0  0  0  0  0  0  0  0
  140.6740   70.6010  225.6310 C   0  0  0  0  0  0  0  0  0  0  0  0
  140.0120   69.4000  225.4540 C   0  0  0  0  0  0  0  0  0  0  0  0
  139.9610   68.2660  226.7710 S   0  0  0  0  0  0  0  0  0  0  0  0
  139.7180   69.1750  228.2790 C   0  0  0  0  0  0  0  0  0  0  0  0
  138.8470   67.2900  226.5060 O   0  0  0  0  0  0  0  0  0  0  0  0
  141.2580   67.5290  226.8610 O   0  0  0  0  0  0  0  0  0  0  0  0
  139.4190   69.1670  224.2230 C   0  0  0  0  0  0  0  0  0  0  0  0
  139.4910   70.1050  223.2180 C   0  0  0  0  0  0  0  0  0  0  0  0
  137.9490   76.1710  222.2880 C   0  0  0  0  0  0  0  0  0  0  0  0
  138.4590   77.3280  221.3990 C   0  0  0  0  0  0  0  0  0  0  0  0
  142.4992   80.5329  219.9240 H   0  0  0  0  0  0  0  0  0  0  0  0
  143.0255   79.7778  218.3814 H   0  0  0  0  0  0  0  0  0  0  0  0
  141.7012   80.9915  218.3814 H   0  0  0  0  0  0  0  0  0  0  0  0
  140.6075   78.8841  218.1934 H   0  0  0  0  0  0  0  0  0  0  0  0
  141.6760   78.1421  219.4515 H   0  0  0  0  0  0  0  0  0  0  0  0
  139.6618   81.0429  223.0429 H   0  0  0  0  0  0  0  0  0  0  0  0
  141.2415   82.4042  224.4377 H   0  0  0  0  0  0  0  0  0  0  0  0
  143.6732   81.8039  224.4723 H   0  0  0  0  0  0  0  0  0  0  0  0
  144.5080   79.8846  223.1373 H   0  0  0  0  0  0  0  0  0  0  0  0
  142.9337   78.5371  221.7551 H   0  0  0  0  0  0  0  0  0  0  0  0
  139.3453   78.2670  223.1055 H   0  0  0  0  0  0  0  0  0  0  0  0
  141.6113   76.9940  222.2248 H   0  0  0  0  0  0  0  0  0  0  0  0
  140.4563   76.4559  223.5204 H   0  0  0  0  0  0  0  0  0  0  0  0
  140.3187   75.6945  220.5807 H   0  0  0  0  0  0  0  0  0  0  0  0
  140.9186   74.6555  221.9173 H   0  0  0  0  0  0  0  0  0  0  0  0
  138.2948   71.6980  221.8094 H   0  0  0  0  0  0  0  0  0  0  0  0
  139.5650   73.2820  219.6980 H   0  0  0  0  0  0  0  0  0  0  0  0
  138.3760   72.0780  219.6810 H   0  0  0  0  0  0  0  0  0  0  0  0
  141.0956   72.0781  221.6730 H   0  0  0  0  0  0  0  0  0  0  0  0
  140.4998   73.2978  222.8695 H   0  0  0  0  0  0  0  0  0  0  0  0
  141.2740   72.4789  224.7893 H   0  0  0  0  0  0  0  0  0  0  0  0
  141.1555   70.8167  226.5962 H   0  0  0  0  0  0  0  0  0  0  0  0
  139.8951   68.5125  229.1391 H   0  0  0  0  0  0  0  0  0  0  0  0
  140.4219   70.0195  228.3156 H   0  0  0  0  0  0  0  0  0  0  0  0
  138.6866   69.5556  228.3156 H   0  0  0  0  0  0  0  0  0  0  0  0
  138.8847   68.2217  224.0471 H   0  0  0  0  0  0  0  0  0  0  0  0
  139.0068   69.8856  222.2550 H   0  0  0  0  0  0  0  0  0  0  0  0
  136.9120   75.9036  222.0367 H   0  0  0  0  0  0  0  0  0  0  0  0
  137.9308   76.4163  223.3601 H   0  0  0  0  0  0  0  0  0  0  0  0
  138.7358   76.9629  220.3990 H   0  0  0  0  0  0  0  0  0  0  0  0
  137.7005   78.1072  221.2329 H   0  0  0  0  0  0  0  0  0  0  0  0
  1  2  1  0
  2  3  1  0
  3  4  2  0
  3  5  1  0
  5  6  1  0
  6  7  2  0
  7  8  1  0
  8  9  2  0
  9 10  1  0
 10 11  2  0
  5 12  1  0
 12 13  1  0
 13 14  1  0
 14 15  1  0
 15 16  1  0
 16 17  2  0
 16 18  1  0
 18 19  1  0
 18 20  1  0
 20 21  1  0
 21 22  2  0
 22 23  1  0
 23 24  2  0
 24 25  1  0
 25 26  1  0
 25 27  2  0
 25 28  2  0
 24 29  1  0
 29 30  2  0
 15 31  1  0
 31 32  1  0
 11  6  1  0
 32 12  1  0
 30 21  1  0
  1 33  1  0
  1 34  1  0
  1 35  1  0
  2 36  1  0
  2 37  1  0
  7 38  1  0
  8 39  1  0
  9 40  1  0
 10 41  1  0
 11 42  1  0
 12 43  1  0
 13 44  1  0
 13 45  1  0
 14 46  1  0
 14 47  1  0
 18 48  1  1
 19 49  1  0
 19 50  1  0
 20 51  1  0
 20 52  1  0
 22 53  1  0
 23 54  1  0
 26 55  1  0
 26 56  1  0
 26 57  1  0
 29 58  1  0
 30 59  1  0
 31 60  1  0
 31 61  1  0
 32 62  1  0
 32 63  1  0
M  END
>  <smiles>  (26) 
CCC(=O)N(c1ccccc1)C1CCN(C(=O)[C@@H](N)Cc2ccc(S(C)(=O)=O)cc2)CC1

>  <score_type>  (26) 
oracle

>  <origin>  (26) 
autodockgpu

>  <m_score__min__energy>  (26) 
-8.8800000000000008

>  <m_primary>  (26) 
energy

>  <rmsd>  (26) 
5.793780521416884

>  <m_score__min__rmsd>  (26) 
5.793780521416884

>  <meeko>  (26) 
{"free_energy": -7.64, "intermolecular_energy": -10.32, "internal_energy": -1.77, "cluster_size": 2, "cluster_id": 6, "rank_in_cluster": 1}

>  <energy>  (26) 
-7.56

>  <cluster_rmsd>  (26) 
0.36

>  <cluster>  (26) 
5

$$$$

     RDKit          3D

 63 65  0  0  0  0  0  0  0  0999 V2000
  135.7850   80.8520  224.4650 C   0  0  0  0  0  0  0  0  0  0  0  0
  136.6120   80.4620  223.2460 C   0  0  0  0  0  0  0  0  0  0  0  0
  138.0650   80.2830  223.6050 C   0  0  0  0  0  0  0  0  0  0  0  0
  138.4310   80.8890  224.6450 O   0  0  0  0  0  0  0  0  0  0  0  0
  138.9220   79.4830  222.8060 N   0  0  0  0  0  0  0  0  0  0  0  0
  140.3300   79.8370  222.8500 C   0  0  0  0  0  0  0  0  0  0  0  0
  141.1490   79.1590  223.7020 C   0  0  0  0  0  0  0  0  0  0  0  0
  142.4980   79.5000  223.7430 C   0  0  0  0  0  0  0  0  0  0  0  0
  142.9690   80.5260  222.9120 C   0  0  0  0  0  0  0  0  0  0  0  0
  142.0990   81.1950  222.0570 C   0  0  0  0  0  0  0  0  0  0  0  0
  140.7650   80.8610  222.0130 C   0  0  0  0  0  0  0  0  0  0  0  0
  138.5270   78.3870  221.9870 C   0  0  0  0  0  0  0  0  0  0  0  0
  137.7670   77.3250  222.6820 C   0  0  0  0  0  0  0  0  0  0  0  0
  138.5100   76.0130  222.7070 C   0  0  0  0  0  0  0  0  0  0  0  0
  138.7590   75.5790  221.3610 N   0  0  0  0  0  0  0  0  0  0  0  0
  138.8760   74.2650  220.8860 C   0  0  0  0  0  0  0  0  0  0  0  0
  139.0680   74.1140  219.6110 O   0  0  0  0  0  0  0  0  0  0  0  0
  138.8150   73.0060  221.6340 C   0  0  1  0  0  0  0  0  0  0  0  0
  138.3970   71.9080  220.8260 N   0  0  0  0  0  0  0  0  0  0  0  0
  140.1730   72.7340  222.2960 C   0  0  0  0  0  0  0  0  0  0  0  0
  140.0840   71.6340  223.2520 C   0  0  0  0  0  0  0  0  0  0  0  0
  140.6620   71.8320  224.5120 C   0  0  0  0  0  0  0  0  0  0  0  0
  140.6380   70.8480  225.4790 C   0  0  0  0  0  0  0  0  0  0  0  0
  140.0400   69.6250  225.2370 C   0  0  0  0  0  0  0  0  0  0  0  0
  140.0400   68.4250  226.4950 S   0  0  0  0  0  0  0  0  0  0  0  0
  139.6610   69.2310  228.0330 C   0  0  0  0  0  0  0  0  0  0  0  0
  139.0290   67.3700  226.1380 O   0  0  0  0  0  0  0  0  0  0  0  0
  141.3940   67.8000  226.6050 O   0  0  0  0  0  0  0  0  0  0  0  0
  139.4680   69.4240  223.9910 C   0  0  0  0  0  0  0  0  0  0  0  0
  139.4970   70.4130  223.0340 C   0  0  0  0  0  0  0  0  0  0  0  0
  138.9460   76.6570  220.3640 C   0  0  0  0  0  0  0  0  0  0  0  0
  139.6580   77.7530  221.1890 C   0  0  0  0  0  0  0  0  0  0  0  0
  136.3364   80.5920  225.3806 H   0  0  0  0  0  0  0  0  0  0  0  0
  135.5939   81.9351  224.4472 H   0  0  0  0  0  0  0  0  0  0  0  0
  134.8277   80.3104  224.4472 H   0  0  0  0  0  0  0  0  0  0  0  0
  136.2247   79.5169  222.8376 H   0  0  0  0  0  0  0  0  0  0  0  0
  136.5348   81.2681  222.5015 H   0  0  0  0  0  0  0  0  0  0  0  0
  140.7525   78.3587  224.3441 H   0  0  0  0  0  0  0  0  0  0  0  0
  143.1858   78.9710  224.4190 H   0  0  0  0  0  0  0  0  0  0  0  0
  144.0330   80.8039  222.9361 H   0  0  0  0  0  0  0  0  0  0  0  0
  142.4812   81.9984  221.4102 H   0  0  0  0  0  0  0  0  0  0  0  0
  140.0680   81.3836  221.3414 H   0  0  0  0  0  0  0  0  0  0  0  0
  137.8416   78.8805  221.2823 H   0  0  0  0  0  0  0  0  0  0  0  0
  137.5785   77.6447  223.7175 H   0  0  0  0  0  0  0  0  0  0  0  0
  136.8269   77.1691  222.1325 H   0  0  0  0  0  0  0  0  0  0  0  0
  139.4671   76.1434  223.2333 H   0  0  0  0  0  0  0  0  0  0  0  0
  137.9043   75.2582  223.2298 H   0  0  0  0  0  0  0  0  0  0  0  0
  138.0485   73.1128  222.4157 H   0  0  0  0  0  0  0  0  0  0  0  0
  139.1300   71.1830  220.6580 H   0  0  0  0  0  0  0  0  0  0  0  0
  138.0300   72.2460  219.9350 H   0  0  0  0  0  0  0  0  0  0  0  0
  140.9059   72.4745  221.5178 H   0  0  0  0  0  0  0  0  0  0  0  0
  140.4848   73.6402  222.8360 H   0  0  0  0  0  0  0  0  0  0  0  0
  141.1462   72.7939  224.7360 H   0  0  0  0  0  0  0  0  0  0  0  0
  141.1019   71.0395  226.4578 H   0  0  0  0  0  0  0  0  0  0  0  0
  139.9647   68.5851  228.8700 H   0  0  0  0  0  0  0  0  0  0  0  0
  140.2046   70.1856  228.0904 H   0  0  0  0  0  0  0  0  0  0  0  0
  138.5791   69.4212  228.0904 H   0  0  0  0  0  0  0  0  0  0  0  0
  138.9848   68.4623  223.7638 H   0  0  0  0  0  0  0  0  0  0  0  0
  139.0316   70.2170  222.0568 H   0  0  0  0  0  0  0  0  0  0  0  0
  139.5733   76.3193  219.5259 H   0  0  0  0  0  0  0  0  0  0  0  0
  138.0070   76.9955  219.9017 H   0  0  0  0  0  0  0  0  0  0  0  0
  140.4131   77.3139  221.8576 H   0  0  0  0  0  0  0  0  0  0  0  0
  140.1994   78.4774  220.5627 H   0  0  0  0  0  0  0  0  0  0  0  0
  1  2  1  0
  2  3  1  0
  3  4  2  0
  3  5  1  0
  5  6  1  0
  6  7  2  0
  7  8  1  0
  8  9  2  0
  9 10  1  0
 10 11  2  0
  5 12  1  0
 12 13  1  0
 13 14  1  0
 14 15  1  0
 15 16  1  0
 16 17  2  0
 16 18  1  0
 18 19  1  0
 18 20  1  0
 20 21  1  0
 21 22  2  0
 22 23  1  0
 23 24  2  0
 24 25  1  0
 25 26  1  0
 25 27  2  0
 25 28  2  0
 24 29  1  0
 29 30  2  0
 15 31  1  0
 31 32  1  0
 11  6  1  0
 32 12  1  0
 30 21  1  0
  1 33  1  0
  1 34  1  0
  1 35  1  0
  2 36  1  0
  2 37  1  0
  7 38  1  0
  8 39  1  0
  9 40  1  0
 10 41  1  0
 11 42  1  0
 12 43  1  0
 13 44  1  0
 13 45  1  0
 14 46  1  0
 14 47  1  0
 18 48  1  1
 19 49  1  0
 19 50  1  0
 20 51  1  0
 20 52  1  0
 22 53  1  0
 23 54  1  0
 26 55  1  0
 26 56  1  0
 26 57  1  0
 29 58  1  0
 30 59  1  0
 31 60  1  0
 31 61  1  0
 32 62  1  0
 32 63  1  0
M  END
>  <smiles>  (27) 
CCC(=O)N(c1ccccc1)C1CCN(C(=O)[C@@H](N)Cc2ccc(S(C)(=O)=O)cc2)CC1

>  <score_type>  (27) 
oracle

>  <origin>  (27) 
autodockgpu

>  <m_score__min__energy>  (27) 
-8.8800000000000008

>  <m_primary>  (27) 
energy

>  <rmsd>  (27) 
5.569479204838

>  <m_score__min__rmsd>  (27) 
5.569479204838

>  <meeko>  (27) 
{"free_energy": -7.48, "intermolecular_energy": -10.16, "internal_energy": -2.22, "cluster_size": 11, "cluster_id": 4, "rank_in_cluster": 4}

>  <energy>  (27) 
-7.36

>  <cluster_rmsd>  (27) 
0.55

>  <cluster>  (27) 
5

$$$$

     RDKit          3D

 63 65  0  0  0  0  0  0  0  0999 V2000
  137.1760   80.1100  223.6350 C   0  0  0  0  0  0  0  0  0  0  0  0
  137.6490   78.8710  222.8840 C   0  0  0  0  0  0  0  0  0  0  0  0
  138.6740   79.2250  221.8360 C   0  0  0  0  0  0  0  0  0  0  0  0
  138.2690   80.0180  220.9480 O   0  0  0  0  0  0  0  0  0  0  0  0
  139.9850   78.6850  221.8850 N   0  0  0  0  0  0  0  0  0  0  0  0
  140.9770   79.5110  222.5480 C   0  0  0  0  0  0  0  0  0  0  0  0
  142.2940   79.3120  222.2590 C   0  0  0  0  0  0  0  0  0  0  0  0
  143.2440   80.1050  222.8960 C   0  0  0  0  0  0  0  0  0  0  0  0
  142.8200   81.0790  223.8110 C   0  0  0  0  0  0  0  0  0  0  0  0
  141.4650   81.2500  224.0780 C   0  0  0  0  0  0  0  0  0  0  0  0
  140.5230   80.4690  223.4520 C   0  0  0  0  0  0  0  0  0  0  0  0
  140.3970   77.4290  221.3540 C   0  0  0  0  0  0  0  0  0  0  0  0
  139.3540   76.6880  220.6110 C   0  0  0  0  0  0  0  0  0  0  0  0
  138.9870   75.3880  221.2830 C   0  0  0  0  0  0  0  0  0  0  0  0
  140.1510   74.5530  221.3750 N   0  0  0  0  0  0  0  0  0  0  0  0
  140.2100   73.1530  221.3760 C   0  0  0  0  0  0  0  0  0  0  0  0
  141.3880   72.6110  221.4340 O   0  0  0  0  0  0  0  0  0  0  0  0
  139.1110   72.1840  221.3230 C   0  0  1  0  0  0  0  0  0  0  0  0
  139.5600   70.8600  221.0450 N   0  0  0  0  0  0  0  0  0  0  0  0
  138.3070   72.2450  222.6290 C   0  0  0  0  0  0  0  0  0  0  0  0
  138.8370   71.3130  223.6200 C   0  0  0  0  0  0  0  0  0  0  0  0
  138.0870   70.1600  223.8810 C   0  0  0  0  0  0  0  0  0  0  0  0
  138.4990   69.2250  224.8080 C   0  0  0  0  0  0  0  0  0  0  0  0
  139.6760   69.3950  225.5150 C   0  0  0  0  0  0  0  0  0  0  0  0
  140.1450   68.1810  226.6690 S   0  0  0  0  0  0  0  0  0  0  0  0
  140.1190   68.9130  228.2890 C   0  0  0  0  0  0  0  0  0  0  0  0
  139.1900   67.0250  226.5490 O   0  0  0  0  0  0  0  0  0  0  0  0
  141.5340   67.7110  226.3790 O   0  0  0  0  0  0  0  0  0  0  0  0
  140.4210   70.5340  225.2610 C   0  0  0  0  0  0  0  0  0  0  0  0
  140.0000   71.4600  224.3340 C   0  0  0  0  0  0  0  0  0  0  0  0
  141.4410   75.2640  221.5210 C   0  0  0  0  0  0  0  0  0  0  0  0
  141.0480   76.4970  222.3660 C   0  0  0  0  0  0  0  0  0  0  0  0
  137.2445   79.9307  224.7181 H   0  0  0  0  0  0  0  0  0  0  0  0
  137.8101   80.9671  223.3644 H   0  0  0  0  0  0  0  0  0  0  0  0
  136.1320   80.3265  223.3644 H   0  0  0  0  0  0  0  0  0  0  0  0
  138.0972   78.1668  223.6004 H   0  0  0  0  0  0  0  0  0  0  0  0
  136.7820   78.4161  222.3827 H   0  0  0  0  0  0  0  0  0  0  0  0
  142.5998   78.5404  221.5371 H   0  0  0  0  0  0  0  0  0  0  0  0
  144.3148   79.9692  222.6841 H   0  0  0  0  0  0  0  0  0  0  0  0
  143.5622   81.7112  224.3204 H   0  0  0  0  0  0  0  0  0  0  0  0
  141.1446   82.0180  224.7974 H   0  0  0  0  0  0  0  0  0  0  0  0
  139.4498   80.5957  223.6573 H   0  0  0  0  0  0  0  0  0  0  0  0
  141.1633   77.7421  220.6296 H   0  0  0  0  0  0  0  0  0  0  0  0
  138.4542   77.3171  220.5422 H   0  0  0  0  0  0  0  0  0  0  0  0
  139.7551   76.4504  219.6146 H   0  0  0  0  0  0  0  0  0  0  0  0
  138.6017   75.5929  222.2927 H   0  0  0  0  0  0  0  0  0  0  0  0
  138.2130   74.8753  220.6930 H   0  0  0  0  0  0  0  0  0  0  0  0
  138.4555   72.4606  220.4841 H   0  0  0  0  0  0  0  0  0  0  0  0
  140.5170   70.6370  221.4020 H   0  0  0  0  0  0  0  0  0  0  0  0
  139.5100   70.6740  220.0430 H   0  0  0  0  0  0  0  0  0  0  0  0
  138.3577   73.2664  223.0341 H   0  0  0  0  0  0  0  0  0  0  0  0
  137.2659   71.9655  222.4102 H   0  0  0  0  0  0  0  0  0  0  0  0
  137.1469   69.9957  223.3340 H   0  0  0  0  0  0  0  0  0  0  0  0
  137.8829   68.3316  224.9876 H   0  0  0  0  0  0  0  0  0  0  0  0
  140.1472   68.1196  229.0504 H   0  0  0  0  0  0  0  0  0  0  0  0
  140.9944   69.5680  228.4095 H   0  0  0  0  0  0  0  0  0  0  0  0
  139.1993   69.5043  228.4095 H   0  0  0  0  0  0  0  0  0  0  0  0
  141.3612   70.7009  225.8070 H   0  0  0  0  0  0  0  0  0  0  0  0
  140.6192   72.3521  224.1586 H   0  0  0  0  0  0  0  0  0  0  0  0
  142.1810   74.6417  222.0456 H   0  0  0  0  0  0  0  0  0  0  0  0
  141.9114   75.5218  220.5606 H   0  0  0  0  0  0  0  0  0  0  0  0
  140.3378   76.2199  223.1590 H   0  0  0  0  0  0  0  0  0  0  0  0
  141.9059   76.9550  222.8800 H   0  0  0  0  0  0  0  0  0  0  0  0
  1  2  1  0
  2  3  1  0
  3  4  2  0
  3  5  1  0
  5  6  1  0
  6  7  2  0
  7  8  1  0
  8  9  2  0
  9 10  1  0
 10 11  2  0
  5 12  1  0
 12 13  1  0
 13 14  1  0
 14 15  1  0
 15 16  1  0
 16 17  2  0
 16 18  1  0
 18 19  1  0
 18 20  1  0
 20 21  1  0
 21 22  2  0
 22 23  1  0
 23 24  2  0
 24 25  1  0
 25 26  1  0
 25 27  2  0
 25 28  2  0
 24 29  1  0
 29 30  2  0
 15 31  1  0
 31 32  1  0
 11  6  1  0
 32 12  1  0
 30 21  1  0
  1 33  1  0
  1 34  1  0
  1 35  1  0
  2 36  1  0
  2 37  1  0
  7 38  1  0
  8 39  1  0
  9 40  1  0
 10 41  1  0
 11 42  1  0
 12 43  1  0
 13 44  1  0
 13 45  1  0
 14 46  1  0
 14 47  1  0
 18 48  1  6
 19 49  1  0
 19 50  1  0
 20 51  1  0
 20 52  1  0
 22 53  1  0
 23 54  1  0
 26 55  1  0
 26 56  1  0
 26 57  1  0
 29 58  1  0
 30 59  1  0
 31 60  1  0
 31 61  1  0
 32 62  1  0
 32 63  1  0
M  END
>  <smiles>  (28) 
CCC(=O)N(c1ccccc1)C1CCN(C(=O)[C@@H](N)Cc2ccc(S(C)(=O)=O)cc2)CC1

>  <score_type>  (28) 
oracle

>  <origin>  (28) 
autodockgpu

>  <m_score__min__energy>  (28) 
-8.8800000000000008

>  <m_primary>  (28) 
energy

>  <rmsd>  (28) 
5.922885588999863

>  <m_score__min__rmsd>  (28) 
5.922885588999863

>  <meeko>  (28) 
{"free_energy": -7.47, "intermolecular_energy": -10.16, "internal_energy": -2.4, "cluster_size": 11, "cluster_id": 4, "rank_in_cluster": 5}

>  <energy>  (28) 
-7.16

>  <cluster_rmsd>  (28) 
0.73

>  <cluster>  (28) 
5

$$$$

     RDKit          3D

 63 65  0  0  0  0  0  0  0  0999 V2000
  138.0680   80.6290  224.3420 C   0  0  0  0  0  0  0  0  0  0  0  0
  137.8800   80.1120  222.9210 C   0  0  0  0  0  0  0  0  0  0  0  0
  138.3720   78.6940  222.7850 C   0  0  0  0  0  0  0  0  0  0  0  0
  137.5310   77.8110  223.0940 O   0  0  0  0  0  0  0  0  0  0  0  0
  139.6890   78.4170  222.3370 N   0  0  0  0  0  0  0  0  0  0  0  0
  140.6910   79.4080  222.6900 C   0  0  0  0  0  0  0  0  0  0  0  0
  140.8600   80.4870  221.8760 C   0  0  0  0  0  0  0  0  0  0  0  0
  141.8200   81.4350  222.2160 C   0  0  0  0  0  0  0  0  0  0  0  0
  142.5800   81.2520  223.3800 C   0  0  0  0  0  0  0  0  0  0  0  0
  142.3770   80.1350  224.1840 C   0  0  0  0  0  0  0  0  0  0  0  0
  141.4290   79.1950  223.8520 C   0  0  0  0  0  0  0  0  0  0  0  0
  140.1020   77.2760  221.5910 C   0  0  0  0  0  0  0  0  0  0  0  0
  139.0040   76.4890  220.9880 C   0  0  0  0  0  0  0  0  0  0  0  0
  138.9160   75.0970  221.5630 C   0  0  0  0  0  0  0  0  0  0  0  0
  140.1500   74.4020  221.3230 N   0  0  0  0  0  0  0  0  0  0  0  0
  140.3440   73.0250  221.1480 C   0  0  0  0  0  0  0  0  0  0  0  0
  141.5570   72.6270  220.9070 O   0  0  0  0  0  0  0  0  0  0  0  0
  139.3600   71.9410  221.2010 C   0  0  1  0  0  0  0  0  0  0  0  0
  139.9630   70.6500  221.1730 N   0  0  0  0  0  0  0  0  0  0  0  0
  138.4640   72.1180  222.4350 C   0  0  0  0  0  0  0  0  0  0  0  0
  138.7760   71.1270  223.4610 C   0  0  0  0  0  0  0  0  0  0  0  0
  139.9440   71.3240  224.2090 C   0  0  0  0  0  0  0  0  0  0  0  0
  140.3280   70.4370  225.1930 C   0  0  0  0  0  0  0  0  0  0  0  0
  139.5700   69.3160  225.4780 C   0  0  0  0  0  0  0  0  0  0  0  0
  140.1050   68.2360  226.7320 S   0  0  0  0  0  0  0  0  0  0  0  0
  139.9950   69.0900  228.2870 C   0  0  0  0  0  0  0  0  0  0  0  0
  139.2410   67.0060  226.6920 O   0  0  0  0  0  0  0  0  0  0  0  0
  141.5310   67.8500  226.4990 O   0  0  0  0  0  0  0  0  0  0  0  0
  138.4150   69.1160  224.7410 C   0  0  0  0  0  0  0  0  0  0  0  0
  138.0410   70.0080  223.7610 C   0  0  0  0  0  0  0  0  0  0  0  0
  141.3650   75.2470  221.2920 C   0  0  0  0  0  0  0  0  0  0  0  0
  141.0400   76.3380  222.3370 C   0  0  0  0  0  0  0  0  0  0  0  0
  137.7827   79.8445  225.0583 H   0  0  0  0  0  0  0  0  0  0  0  0
  139.1226   80.9009  224.4967 H   0  0  0  0  0  0  0  0  0  0  0  0
  137.4344   81.5148  224.4967 H   0  0  0  0  0  0  0  0  0  0  0  0
  136.8106   80.1463  222.6657 H   0  0  0  0  0  0  0  0  0  0  0  0
  138.4633   80.7489  222.2397 H   0  0  0  0  0  0  0  0  0  0  0  0
  140.2500   80.6064  220.9685 H   0  0  0  0  0  0  0  0  0  0  0  0
  141.9808   82.3174  221.5793 H   0  0  0  0  0  0  0  0  0  0  0  0
  143.3409   81.9957  223.6590 H   0  0  0  0  0  0  0  0  0  0  0  0
  142.9804   80.0021  225.0941 H   0  0  0  0  0  0  0  0  0  0  0  0
  141.2601   78.3083  224.4807 H   0  0  0  0  0  0  0  0  0  0  0  0
  140.6646   77.7458  220.7708 H   0  0  0  0  0  0  0  0  0  0  0  0
  138.0526   77.0092  221.1731 H   0  0  0  0  0  0  0  0  0  0  0  0
  139.2077   76.3965  219.9110 H   0  0  0  0  0  0  0  0  0  0  0  0
  138.7341   75.1583  222.6461 H   0  0  0  0  0  0  0  0  0  0  0  0
  138.0890   74.5532  221.0831 H   0  0  0  0  0  0  0  0  0  0  0  0
  138.7403   72.0024  220.2942 H   0  0  0  0  0  0  0  0  0  0  0  0
  140.8940   70.6110  220.6990 H   0  0  0  0  0  0  0  0  0  0  0  0
  139.3280   69.9730  220.7480 H   0  0  0  0  0  0  0  0  0  0  0  0
  138.6194   73.1249  222.8497 H   0  0  0  0  0  0  0  0  0  0  0  0
  137.4167   71.9825  222.1271 H   0  0  0  0  0  0  0  0  0  0  0  0
  140.5692   72.2062  224.0070 H   0  0  0  0  0  0  0  0  0  0  0  0
  141.2518   70.6242  225.7600 H   0  0  0  0  0  0  0  0  0  0  0  0
  140.0882   68.3663  229.1102 H   0  0  0  0  0  0  0  0  0  0  0  0
  140.8051   69.8308  228.3566 H   0  0  0  0  0  0  0  0  0  0  0  0
  139.0236   69.6013  228.3566 H   0  0  0  0  0  0  0  0  0  0  0  0
  137.7887   68.2340  224.9408 H   0  0  0  0  0  0  0  0  0  0  0  0
  137.1167   69.8159  223.1965 H   0  0  0  0  0  0  0  0  0  0  0  0
  142.2567   74.6719  221.5819 H   0  0  0  0  0  0  0  0  0  0  0  0
  141.5939   75.6496  220.2943 H   0  0  0  0  0  0  0  0  0  0  0  0
  140.5436   75.9038  223.2174 H   0  0  0  0  0  0  0  0  0  0  0  0
  141.9377   76.8452  222.7203 H   0  0  0  0  0  0  0  0  0  0  0  0
  1  2  1  0
  2  3  1  0
  3  4  2  0
  3  5  1  0
  5  6  1  0
  6  7  2  0
  7  8  1  0
  8  9  2  0
  9 10  1  0
 10 11  2  0
  5 12  1  0
 12 13  1  0
 13 14  1  0
 14 15  1  0
 15 16  1  0
 16 17  2  0
 16 18  1  0
 18 19  1  0
 18 20  1  0
 20 21  1  0
 21 22  2  0
 22 23  1  0
 23 24  2  0
 24 25  1  0
 25 26  1  0
 25 27  2  0
 25 28  2  0
 24 29  1  0
 29 30  2  0
 15 31  1  0
 31 32  1  0
 11  6  1  0
 32 12  1  0
 30 21  1  0
  1 33  1  0
  1 34  1  0
  1 35  1  0
  2 36  1  0
  2 37  1  0
  7 38  1  0
  8 39  1  0
  9 40  1  0
 10 41  1  0
 11 42  1  0
 12 43  1  0
 13 44  1  0
 13 45  1  0
 14 46  1  0
 14 47  1  0
 18 48  1  6
 19 49  1  0
 19 50  1  0
 20 51  1  0
 20 52  1  0
 22 53  1  0
 23 54  1  0
 26 55  1  0
 26 56  1  0
 26 57  1  0
 29 58  1  0
 30 59  1  0
 31 60  1  0
 31 61  1  0
 32 62  1  0
 32 63  1  0
M  END
>  <smiles>  (29) 
CCC(=O)N(c1ccccc1)C1CCN(C(=O)[C@@H](N)Cc2ccc(S(C)(=O)=O)cc2)CC1

>  <score_type>  (29) 
oracle

>  <origin>  (29) 
autodockgpu

>  <m_score__min__energy>  (29) 
-8.8800000000000008

>  <m_primary>  (29) 
energy

>  <rmsd>  (29) 
5.9996249564178905

>  <m_score__min__rmsd>  (29) 
5.9996249564178905

>  <meeko>  (29) 
{"free_energy": -7.67, "intermolecular_energy": -10.36, "internal_energy": -2.35, "cluster_size": 11, "cluster_id": 4, "rank_in_cluster": 2}

>  <energy>  (29) 
-7.08

>  <cluster_rmsd>  (29) 
0.92

>  <cluster>  (29) 
5

$$$$

     RDKit          3D

 63 65  0  0  0  0  0  0  0  0999 V2000
  142.7520   80.8690  217.9470 C   0  0  0  0  0  0  0  0  0  0  0  0
  141.7050   79.8110  218.2710 C   0  0  0  0  0  0  0  0  0  0  0  0
  141.0300   80.0950  219.5900 C   0  0  0  0  0  0  0  0  0  0  0  0
  140.2930   81.1140  219.5960 O   0  0  0  0  0  0  0  0  0  0  0  0
  141.2340   79.2520  220.7120 N   0  0  0  0  0  0  0  0  0  0  0  0
  141.5970   79.9290  221.9450 C   0  0  0  0  0  0  0  0  0  0  0  0
  140.6200   80.5540  222.6600 C   0  0  0  0  0  0  0  0  0  0  0  0
  140.9690   81.2020  223.8410 C   0  0  0  0  0  0  0  0  0  0  0  0
  142.3080   81.1930  224.2560 C   0  0  0  0  0  0  0  0  0  0  0  0
  143.2750   80.5430  223.4960 C   0  0  0  0  0  0  0  0  0  0  0  0
  142.9350   79.9010  222.3280 C   0  0  0  0  0  0  0  0  0  0  0  0
  141.1130   77.8330  220.7310 C   0  0  0  0  0  0  0  0  0  0  0  0
  139.9880   77.2870  219.9400 C   0  0  0  0  0  0  0  0  0  0  0  0
  138.9650   76.5940  220.8050 C   0  0  0  0  0  0  0  0  0  0  0  0
  139.5890   75.5070  221.5060 N   0  0  0  0  0  0  0  0  0  0  0  0
  139.0050   74.3060  221.9320 C   0  0  0  0  0  0  0  0  0  0  0  0
  139.7820   73.4490  222.5210 O   0  0  0  0  0  0  0  0  0  0  0  0
  137.6120   73.8650  221.8110 C   0  0  1  0  0  0  0  0  0  0  0  0
  137.3050   72.7760  222.6770 N   0  0  0  0  0  0  0  0  0  0  0  0
  136.6730   75.0560  222.0460 C   0  0  0  0  0  0  0  0  0  0  0  0
  135.8210   74.8340  223.2110 C   0  0  0  0  0  0  0  0  0  0  0  0
  134.7650   73.9250  223.0700 C   0  0  0  0  0  0  0  0  0  0  0  0
  133.9010   73.6570  224.1100 C   0  0  0  0  0  0  0  0  0  0  0  0
  134.0460   74.2790  225.3370 C   0  0  0  0  0  0  0  0  0  0  0  0
  132.9250   73.8990  226.6110 S   0  0  0  0  0  0  0  0  0  0  0  0
  131.3090   73.7160  225.8950 C   0  0  0  0  0  0  0  0  0  0  0  0
  133.3960   72.6420  227.2900 O   0  0  0  0  0  0  0  0  0  0  0  0
  132.8830   75.0150  227.6050 O   0  0  0  0  0  0  0  0  0  0  0  0
  135.0880   75.1810  225.4810 C   0  0  0  0  0  0  0  0  0  0  0  0
  135.9450   75.4400  224.4360 C   0  0  0  0  0  0  0  0  0  0  0  0
  141.0170   75.6990  221.8450 C   0  0  0  0  0  0  0  0  0  0  0  0
  141.0920   77.2180  222.1230 C   0  0  0  0  0  0  0  0  0  0  0  0
  143.1592   81.2804  218.8824 H   0  0  0  0  0  0  0  0  0  0  0  0
  143.5648   80.4135  217.3623 H   0  0  0  0  0  0  0  0  0  0  0  0
  142.2880   81.6770  217.3623 H   0  0  0  0  0  0  0  0  0  0  0  0
  140.9462   79.8018  217.4746 H   0  0  0  0  0  0  0  0  0  0  0  0
  142.2072   78.8348  218.3406 H   0  0  0  0  0  0  0  0  0  0  0  0
  139.5769   80.5465  222.3109 H   0  0  0  0  0  0  0  0  0  0  0  0
  140.2035   81.7151  224.4416 H   0  0  0  0  0  0  0  0  0  0  0  0
  142.5955   81.7026  225.1875 H   0  0  0  0  0  0  0  0  0  0  0  0
  144.3222   80.5424  223.8326 H   0  0  0  0  0  0  0  0  0  0  0  0
  143.6920   79.3848  221.7194 H   0  0  0  0  0  0  0  0  0  0  0  0
  142.0467   77.5306  220.2342 H   0  0  0  0  0  0  0  0  0  0  0  0
  139.4976   78.1135  219.4049 H   0  0  0  0  0  0  0  0  0  0  0  0
  140.3974   76.5433  219.2405 H   0  0  0  0  0  0  0  0  0  0  0  0
  138.5530   77.3103  221.5311 H   0  0  0  0  0  0  0  0  0  0  0  0
  138.1531   76.2050  220.1729 H   0  0  0  0  0  0  0  0  0  0  0  0
  137.4632   73.4863  220.7890 H   0  0  0  0  0  0  0  0  0  0  0  0
  137.0420   73.0500  223.6510 H   0  0  0  0  0  0  0  0  0  0  0  0
  138.0820   72.1140  222.7000 H   0  0  0  0  0  0  0  0  0  0  0  0
  137.2758   75.9615  222.2095 H   0  0  0  0  0  0  0  0  0  0  0  0
  136.0301   75.1730  221.1611 H   0  0  0  0  0  0  0  0  0  0  0  0
  134.6217   73.4130  222.1070 H   0  0  0  0  0  0  0  0  0  0  0  0
  133.0829   72.9368  223.9618 H   0  0  0  0  0  0  0  0  0  0  0  0
  130.5603   73.6312  226.6964 H   0  0  0  0  0  0  0  0  0  0  0  0
  131.0821   74.5942  225.2727 H   0  0  0  0  0  0  0  0  0  0  0  0
  131.2842   72.8093  225.2727 H   0  0  0  0  0  0  0  0  0  0  0  0
  135.2318   75.6962  226.4422 H   0  0  0  0  0  0  0  0  0  0  0  0
  136.7615   76.1611  224.5886 H   0  0  0  0  0  0  0  0  0  0  0  0
  141.2960   75.1173  222.7360 H   0  0  0  0  0  0  0  0  0  0  0  0
  141.7049   75.3627  221.0552 H   0  0  0  0  0  0  0  0  0  0  0  0
  140.2127   77.5579  222.6898 H   0  0  0  0  0  0  0  0  0  0  0  0
  141.9653   77.5001  222.7294 H   0  0  0  0  0  0  0  0  0  0  0  0
  1  2  1  0
  2  3  1  0
  3  4  2  0
  3  5  1  0
  5  6  1  0
  6  7  2  0
  7  8  1  0
  8  9  2  0
  9 10  1  0
 10 11  2  0
  5 12  1  0
 12 13  1  0
 13 14  1  0
 14 15  1  0
 15 16  1  0
 16 17  2  0
 16 18  1  0
 18 19  1  0
 18 20  1  0
 20 21  1  0
 21 22  2  0
 22 23  1  0
 23 24  2  0
 24 25  1  0
 25 26  1  0
 25 27  2  0
 25 28  2  0
 24 29  1  0
 29 30  2  0
 15 31  1  0
 31 32  1  0
 11  6  1  0
 32 12  1  0
 30 21  1  0
  1 33  1  0
  1 34  1  0
  1 35  1  0
  2 36  1  0
  2 37  1  0
  7 38  1  0
  8 39  1  0
  9 40  1  0
 10 41  1  0
 11 42  1  0
 12 43  1  0
 13 44  1  0
 13 45  1  0
 14 46  1  0
 14 47  1  0
 18 48  1  6
 19 49  1  0
 19 50  1  0
 20 51  1  0
 20 52  1  0
 22 53  1  0
 23 54  1  0
 26 55  1  0
 26 56  1  0
 26 57  1  0
 29 58  1  0
 30 59  1  0
 31 60  1  0
 31 61  1  0
 32 62  1  0
 32 63  1  0
M  END
>  <smiles>  (30) 
CCC(=O)N(c1ccccc1)C1CCN(C(=O)[C@@H](N)Cc2ccc(S(C)(=O)=O)cc2)CC1

>  <score_type>  (30) 
oracle

>  <origin>  (30) 
autodockgpu

>  <m_score__min__energy>  (30) 
-8.8800000000000008

>  <m_primary>  (30) 
energy

>  <rmsd>  (30) 
5.329494622746835

>  <m_score__min__rmsd>  (30) 
5.329494622746835

>  <meeko>  (30) 
{"free_energy": -7.32, "intermolecular_energy": -10.0, "internal_energy": -2.2, "cluster_size": 3, "cluster_id": 7, "rank_in_cluster": 1}

>  <energy>  (30) 
-7.04

>  <cluster_rmsd>  (30) 
0.94

>  <cluster>  (30) 
5

$$$$

     RDKit          3D

 63 65  0  0  0  0  0  0  0  0999 V2000
  142.9210   80.9120  224.2170 C   0  0  0  0  0  0  0  0  0  0  0  0
  143.1710   80.2480  222.8680 C   0  0  0  0  0  0  0  0  0  0  0  0
  141.9890   80.4190  221.9470 C   0  0  0  0  0  0  0  0  0  0  0  0
  141.5750   81.6020  221.8330 O   0  0  0  0  0  0  0  0  0  0  0  0
  141.4170   79.3070  221.2780 N   0  0  0  0  0  0  0  0  0  0  0  0
  141.8510   79.1120  219.9060 C   0  0  0  0  0  0  0  0  0  0  0  0
  141.8200   80.1730  219.0520 C   0  0  0  0  0  0  0  0  0  0  0  0
  142.2350   79.9850  217.7380 C   0  0  0  0  0  0  0  0  0  0  0  0
  142.6710   78.7160  217.3340 C   0  0  0  0  0  0  0  0  0  0  0  0
  142.6880   77.6570  218.2360 C   0  0  0  0  0  0  0  0  0  0  0  0
  142.2770   77.8380  219.5370 C   0  0  0  0  0  0  0  0  0  0  0  0
  140.4800   78.3860  221.8270 C   0  0  0  0  0  0  0  0  0  0  0  0
  141.0710   77.2690  222.5950 C   0  0  0  0  0  0  0  0  0  0  0  0
  140.8100   75.9300  221.9500 C   0  0  0  0  0  0  0  0  0  0  0  0
  139.3940   75.7120  221.8610 N   0  0  0  0  0  0  0  0  0  0  0  0
  138.7060   74.4910  221.8850 C   0  0  0  0  0  0  0  0  0  0  0  0
  137.4100   74.5420  221.8230 O   0  0  0  0  0  0  0  0  0  0  0  0
  139.2450   73.1300  221.9680 C   0  0  1  0  0  0  0  0  0  0  0  0
  138.3350   72.2160  222.5740 N   0  0  0  0  0  0  0  0  0  0  0  0
  139.6710   72.6590  220.5700 C   0  0  0  0  0  0  0  0  0  0  0  0
  141.1250   72.5770  220.4610 C   0  0  0  0  0  0  0  0  0  0  0  0
  141.7600   73.5180  219.6400 C   0  0  0  0  0  0  0  0  0  0  0  0
  143.1280   73.5150  219.4640 C   0  0  0  0  0  0  0  0  0  0  0  0
  143.9260   72.5790  220.0970 C   0  0  0  0  0  0  0  0  0  0  0  0
  145.6450   72.6270  219.8380 S   0  0  0  0  0  0  0  0  0  0  0  0
  146.3920   73.4620  221.2180 C   0  0  0  0  0  0  0  0  0  0  0  0
  146.1370   71.2140  219.6910 O   0  0  0  0  0  0  0  0  0  0  0  0
  145.9530   73.3940  218.5920 O   0  0  0  0  0  0  0  0  0  0  0  0
  143.3020   71.6460  220.9100 C   0  0  0  0  0  0  0  0  0  0  0  0
  141.9370   71.6580  221.0770 C   0  0  0  0  0  0  0  0  0  0  0  0
  138.5670   76.9280  221.6880 C   0  0  0  0  0  0  0  0  0  0  0  0
  139.4780   77.8300  220.8250 C   0  0  0  0  0  0  0  0  0  0  0  0
  143.1843   80.2127  225.0243 H   0  0  0  0  0  0  0  0  0  0  0  0
  143.5397   81.8177  224.3001 H   0  0  0  0  0  0  0  0  0  0  0  0
  141.8586   81.1848  224.3001 H   0  0  0  0  0  0  0  0  0  0  0  0
  144.0572   80.7042  222.4026 H   0  0  0  0  0  0  0  0  0  0  0  0
  143.3297   79.1722  223.0340 H   0  0  0  0  0  0  0  0  0  0  0  0
  141.4735   81.1590  219.3950 H   0  0  0  0  0  0  0  0  0  0  0  0
  142.2212   80.8222  217.0246 H   0  0  0  0  0  0  0  0  0  0  0  0
  143.0019   78.5562  216.2972 H   0  0  0  0  0  0  0  0  0  0  0  0
  143.0331   76.6659  217.9064 H   0  0  0  0  0  0  0  0  0  0  0  0
  142.2846   77.0077  220.2585 H   0  0  0  0  0  0  0  0  0  0  0  0
  139.9388   79.0280  222.5376 H   0  0  0  0  0  0  0  0  0  0  0  0
  142.1580   77.4228  222.6636 H   0  0  0  0  0  0  0  0  0  0  0  0
  140.6032   77.2601  223.5905 H   0  0  0  0  0  0  0  0  0  0  0  0
  141.2475   75.9172  220.9408 H   0  0  0  0  0  0  0  0  0  0  0  0
  141.2670   75.1344  222.5567 H   0  0  0  0  0  0  0  0  0  0  0  0
  140.1275   73.1541  222.6242 H   0  0  0  0  0  0  0  0  0  0  0  0
  137.3320   72.3620  222.3200 H   0  0  0  0  0  0  0  0  0  0  0  0
  138.4440   72.2320  223.5890 H   0  0  0  0  0  0  0  0  0  0  0  0
  139.2402   71.6649  220.3795 H   0  0  0  0  0  0  0  0  0  0  0  0
  139.3067   73.3876  219.8308 H   0  0  0  0  0  0  0  0  0  0  0  0
  141.1535   74.2768  219.1238 H   0  0  0  0  0  0  0  0  0  0  0  0
  143.5916   74.2685  218.8103 H   0  0  0  0  0  0  0  0  0  0  0  0
  146.0093   73.0342  222.1563 H   0  0  0  0  0  0  0  0  0  0  0  0
  147.4839   73.3354  221.1758 H   0  0  0  0  0  0  0  0  0  0  0  0
  146.1451   74.5331  221.1758 H   0  0  0  0  0  0  0  0  0  0  0  0
  143.9060   70.8865  221.4281 H   0  0  0  0  0  0  0  0  0  0  0  0
  141.4779   70.9012  221.7300 H   0  0  0  0  0  0  0  0  0  0  0  0
  137.6259   76.6982  221.1668 H   0  0  0  0  0  0  0  0  0  0  0  0
  138.2634   77.3914  222.6383 H   0  0  0  0  0  0  0  0  0  0  0  0
  139.9860   77.2441  220.0449 H   0  0  0  0  0  0  0  0  0  0  0  0
  138.9223   78.6166  220.2935 H   0  0  0  0  0  0  0  0  0  0  0  0
  1  2  1  0
  2  3  1  0
  3  4  2  0
  3  5  1  0
  5  6  1  0
  6  7  2  0
  7  8  1  0
  8  9  2  0
  9 10  1  0
 10 11  2  0
  5 12  1  0
 12 13  1  0
 13 14  1  0
 14 15  1  0
 15 16  1  0
 16 17  2  0
 16 18  1  0
 18 19  1  0
 18 20  1  0
 20 21  1  0
 21 22  2  0
 22 23  1  0
 23 24  2  0
 24 25  1  0
 25 26  1  0
 25 27  2  0
 25 28  2  0
 24 29  1  0
 29 30  2  0
 15 31  1  0
 31 32  1  0
 11  6  1  0
 32 12  1  0
 30 21  1  0
  1 33  1  0
  1 34  1  0
  1 35  1  0
  2 36  1  0
  2 37  1  0
  7 38  1  0
  8 39  1  0
  9 40  1  0
 10 41  1  0
 11 42  1  0
 12 43  1  0
 13 44  1  0
 13 45  1  0
 14 46  1  0
 14 47  1  0
 18 48  1  1
 19 49  1  0
 19 50  1  0
 20 51  1  0
 20 52  1  0
 22 53  1  0
 23 54  1  0
 26 55  1  0
 26 56  1  0
 26 57  1  0
 29 58  1  0
 30 59  1  0
 31 60  1  0
 31 61  1  0
 32 62  1  0
 32 63  1  0
M  END
>  <smiles>  (31) 
CCC(=O)N(c1ccccc1)C1CCN(C(=O)[C@@H](N)Cc2ccc(S(C)(=O)=O)cc2)CC1

>  <score_type>  (31) 
oracle

>  <origin>  (31) 
autodockgpu

>  <m_score__min__energy>  (31) 
-8.8800000000000008

>  <m_primary>  (31) 
energy

>  <rmsd>  (31) 
4.583894356803006

>  <m_score__min__rmsd>  (31) 
4.583894356803006

>  <meeko>  (31) 
{"free_energy": -6.96, "intermolecular_energy": -9.64, "internal_energy": -2.75, "cluster_size": 19, "cluster_id": 5, "rank_in_cluster": 10}

>  <energy>  (31) 
-7.02

>  <cluster_rmsd>  (31) 
0.9

>  <cluster>  (31) 
5

$$$$

     RDKit          3D

 63 65  0  0  0  0  0  0  0  0999 V2000
  139.7930   81.8700  221.8510 C   0  0  0  0  0  0  0  0  0  0  0  0
  141.2550   82.0010  222.2610 C   0  0  0  0  0  0  0  0  0  0  0  0
  141.9620   80.6700  222.1950 C   0  0  0  0  0  0  0  0  0  0  0  0
  143.0580   80.6240  222.8110 O   0  0  0  0  0  0  0  0  0  0  0  0
  141.4010   79.5790  221.4830 N   0  0  0  0  0  0  0  0  0  0  0  0
  141.7980   79.4710  220.0900 C   0  0  0  0  0  0  0  0  0  0  0  0
  141.7660   80.5890  219.3120 C   0  0  0  0  0  0  0  0  0  0  0  0
  142.1460   80.4840  217.9780 C   0  0  0  0  0  0  0  0  0  0  0  0
  142.5480   79.2370  217.4770 C   0  0  0  0  0  0  0  0  0  0  0  0
  142.5650   78.1190  218.3050 C   0  0  0  0  0  0  0  0  0  0  0  0
  142.1900   78.2190  219.6250 C   0  0  0  0  0  0  0  0  0  0  0  0
  140.5060   78.6040  222.0090 C   0  0  0  0  0  0  0  0  0  0  0  0
  141.1500   77.4790  222.7220 C   0  0  0  0  0  0  0  0  0  0  0  0
  140.9270   76.1580  222.0280 C   0  0  0  0  0  0  0  0  0  0  0  0
  139.5190   75.8920  221.9500 N   0  0  0  0  0  0  0  0  0  0  0  0
  138.8760   74.6460  221.9350 C   0  0  0  0  0  0  0  0  0  0  0  0
  137.5780   74.6520  221.8950 O   0  0  0  0  0  0  0  0  0  0  0  0
  139.4660   73.3040  221.9560 C   0  0  1  0  0  0  0  0  0  0  0  0
  138.6150   72.3410  222.5720 N   0  0  0  0  0  0  0  0  0  0  0  0
  139.8480   72.8880  220.5280 C   0  0  0  0  0  0  0  0  0  0  0  0
  141.2950   72.9330  220.3350 C   0  0  0  0  0  0  0  0  0  0  0  0
  142.0180   71.7740  220.6400 C   0  0  0  0  0  0  0  0  0  0  0  0
  143.3890   71.7210  220.5000 C   0  0  0  0  0  0  0  0  0  0  0  0
  144.1020   72.8170  220.0490 C   0  0  0  0  0  0  0  0  0  0  0  0
  145.8290   72.6900  219.8900 S   0  0  0  0  0  0  0  0  0  0  0  0
  146.5750   73.4020  221.3370 C   0  0  0  0  0  0  0  0  0  0  0  0
  146.1790   71.2370  219.7230 O   0  0  0  0  0  0  0  0  0  0  0  0
  146.2890   73.4540  218.6900 O   0  0  0  0  0  0  0  0  0  0  0  0
  143.3910   73.9670  219.7450 C   0  0  0  0  0  0  0  0  0  0  0  0
  142.0230   74.0080  219.8890 C   0  0  0  0  0  0  0  0  0  0  0  0
  138.6460   77.0820  221.8390 C   0  0  0  0  0  0  0  0  0  0  0  0
  139.5090   78.0510  220.9990 C   0  0  0  0  0  0  0  0  0  0  0  0
  139.1634   81.8136  222.7512 H   0  0  0  0  0  0  0  0  0  0  0  0
  139.5000   82.7455  221.2529 H   0  0  0  0  0  0  0  0  0  0  0  0
  139.6604   80.9564  221.2529 H   0  0  0  0  0  0  0  0  0  0  0  0
  141.7559   82.7073  221.5826 H   0  0  0  0  0  0  0  0  0  0  0  0
  141.2944   82.3650  223.2983 H   0  0  0  0  0  0  0  0  0  0  0  0
  141.4462   81.5549  219.7302 H   0  0  0  0  0  0  0  0  0  0  0  0
  142.1314   81.3682  217.3238 H   0  0  0  0  0  0  0  0  0  0  0  0
  142.8514   79.1425  216.4239 H   0  0  0  0  0  0  0  0  0  0  0  0
  142.8812   77.1461  217.9005 H   0  0  0  0  0  0  0  0  0  0  0  0
  142.1996   77.3417  220.2885 H   0  0  0  0  0  0  0  0  0  0  0  0
  139.9533   79.1969  222.7527 H   0  0  0  0  0  0  0  0  0  0  0  0
  142.2318   77.6699  222.7800 H   0  0  0  0  0  0  0  0  0  0  0  0
  140.6992   77.4132  223.7232 H   0  0  0  0  0  0  0  0  0  0  0  0
  141.3491   76.2008  221.0131 H   0  0  0  0  0  0  0  0  0  0  0  0
  141.4213   75.3564  222.5964 H   0  0  0  0  0  0  0  0  0  0  0  0
  140.3743   73.3418  222.5754 H   0  0  0  0  0  0  0  0  0  0  0  0
  138.2180   71.6260  221.9220 H   0  0  0  0  0  0  0  0  0  0  0  0
  137.8610   72.8090  223.0770 H   0  0  0  0  0  0  0  0  0  0  0  0
  139.4932   71.8629  220.3457 H   0  0  0  0  0  0  0  0  0  0  0  0
  139.3801   73.5909  219.8230 H   0  0  0  0  0  0  0  0  0  0  0  0
  141.4801   70.8845  220.9998 H   0  0  0  0  0  0  0  0  0  0  0  0
  143.9236   70.7929  220.7508 H   0  0  0  0  0  0  0  0  0  0  0  0
  146.1180   72.9658  222.2375 H   0  0  0  0  0  0  0  0  0  0  0  0
  147.6545   73.1908  221.3347 H   0  0  0  0  0  0  0  0  0  0  0  0
  146.4143   74.4902  221.3347 H   0  0  0  0  0  0  0  0  0  0  0  0
  143.9265   74.8576  219.3843 H   0  0  0  0  0  0  0  0  0  0  0  0
  141.4924   74.9380  219.6370 H   0  0  0  0  0  0  0  0  0  0  0  0
  137.7052   76.8385  221.3235 H   0  0  0  0  0  0  0  0  0  0  0  0
  138.3419   77.4957  222.8118 H   0  0  0  0  0  0  0  0  0  0  0  0
  140.0257   77.5159  220.1887 H   0  0  0  0  0  0  0  0  0  0  0  0
  138.9165   78.8364  220.5071 H   0  0  0  0  0  0  0  0  0  0  0  0
  1  2  1  0
  2  3  1  0
  3  4  2  0
  3  5  1  0
  5  6  1  0
  6  7  2  0
  7  8  1  0
  8  9  2  0
  9 10  1  0
 10 11  2  0
  5 12  1  0
 12 13  1  0
 13 14  1  0
 14 15  1  0
 15 16  1  0
 16 17  2  0
 16 18  1  0
 18 19  1  0
 18 20  1  0
 20 21  1  0
 21 22  2  0
 22 23  1  0
 23 24  2  0
 24 25  1  0
 25 26  1  0
 25 27  2  0
 25 28  2  0
 24 29  1  0
 29 30  2  0
 15 31  1  0
 31 32  1  0
 11  6  1  0
 32 12  1  0
 30 21  1  0
  1 33  1  0
  1 34  1  0
  1 35  1  0
  2 36  1  0
  2 37  1  0
  7 38  1  0
  8 39  1  0
  9 40  1  0
 10 41  1  0
 11 42  1  0
 12 43  1  0
 13 44  1  0
 13 45  1  0
 14 46  1  0
 14 47  1  0
 18 48  1  1
 19 49  1  0
 19 50  1  0
 20 51  1  0
 20 52  1  0
 22 53  1  0
 23 54  1  0
 26 55  1  0
 26 56  1  0
 26 57  1  0
 29 58  1  0
 30 59  1  0
 31 60  1  0
 31 61  1  0
 32 62  1  0
 32 63  1  0
M  END
>  <smiles>  (32) 
CCC(=O)N(c1ccccc1)C1CCN(C(=O)[C@@H](N)Cc2ccc(S(C)(=O)=O)cc2)CC1

>  <score_type>  (32) 
oracle

>  <origin>  (32) 
autodockgpu

>  <m_score__min__energy>  (32) 
-8.8800000000000008

>  <m_primary>  (32) 
energy

>  <rmsd>  (32) 
4.484389601351377

>  <m_score__min__rmsd>  (32) 
4.484389601351377

>  <meeko>  (32) 
{"free_energy": -6.89, "intermolecular_energy": -9.58, "internal_energy": -2.73, "cluster_size": 19, "cluster_id": 5, "rank_in_cluster": 12}

>  <energy>  (32) 
-7.0

>  <cluster_rmsd>  (32) 
0.8

>  <cluster>  (32) 
5

$$$$

     RDKit          3D

 63 65  0  0  0  0  0  0  0  0999 V2000
  139.8780   81.6820  222.3460 C   0  0  0  0  0  0  0  0  0  0  0  0
  141.3530   81.7640  221.9740 C   0  0  0  0  0  0  0  0  0  0  0  0
  142.0070   80.4060  222.0250 C   0  0  0  0  0  0  0  0  0  0  0  0
  143.0700   80.3570  222.6960 O   0  0  0  0  0  0  0  0  0  0  0  0
  141.4350   79.2940  221.3550 N   0  0  0  0  0  0  0  0  0  0  0  0
  141.8520   79.1140  219.9760 C   0  0  0  0  0  0  0  0  0  0  0  0
  141.8330   80.1890  219.1390 C   0  0  0  0  0  0  0  0  0  0  0  0
  142.2320   80.0140  217.8180 C   0  0  0  0  0  0  0  0  0  0  0  0
  142.6400   78.7430  217.3900 C   0  0  0  0  0  0  0  0  0  0  0  0
  142.6440   77.6700  218.2750 C   0  0  0  0  0  0  0  0  0  0  0  0
  142.2500   77.8380  219.5820 C   0  0  0  0  0  0  0  0  0  0  0  0
  140.5120   78.3630  221.9090 C   0  0  0  0  0  0  0  0  0  0  0  0
  141.1230   77.2230  222.6280 C   0  0  0  0  0  0  0  0  0  0  0  0
  140.8350   75.9030  221.9570 C   0  0  0  0  0  0  0  0  0  0  0  0
  139.4160   75.6920  221.9070 N   0  0  0  0  0  0  0  0  0  0  0  0
  138.7250   74.4730  221.9210 C   0  0  0  0  0  0  0  0  0  0  0  0
  137.4280   74.5300  221.9030 O   0  0  0  0  0  0  0  0  0  0  0  0
  139.2610   73.1090  221.9500 C   0  0  1  0  0  0  0  0  0  0  0  0
  138.3550   72.1760  222.5330 N   0  0  0  0  0  0  0  0  0  0  0  0
  139.6720   72.6870  220.5330 C   0  0  0  0  0  0  0  0  0  0  0  0
  141.1240   72.6120  220.4030 C   0  0  0  0  0  0  0  0  0  0  0  0
  141.7380   73.5280  219.5400 C   0  0  0  0  0  0  0  0  0  0  0  0
  143.1030   73.5300  219.3430 C   0  0  0  0  0  0  0  0  0  0  0  0
  143.9190   72.6230  219.9960 C   0  0  0  0  0  0  0  0  0  0  0  0
  145.6330   72.6760  219.7090 S   0  0  0  0  0  0  0  0  0  0  0  0
  146.3950   73.5640  221.0470 C   0  0  0  0  0  0  0  0  0  0  0  0
  146.1350   71.2620  219.6020 O   0  0  0  0  0  0  0  0  0  0  0  0
  145.9150   73.4020  218.4330 O   0  0  0  0  0  0  0  0  0  0  0  0
  143.3160   71.7150  220.8510 C   0  0  0  0  0  0  0  0  0  0  0  0
  141.9530   71.7230  221.0390 C   0  0  0  0  0  0  0  0  0  0  0  0
  138.5900   76.9150  221.7940 C   0  0  0  0  0  0  0  0  0  0  0  0
  139.4760   77.8370  220.9250 C   0  0  0  0  0  0  0  0  0  0  0  0
  139.7758   81.6763  223.4412 H   0  0  0  0  0  0  0  0  0  0  0  0
  139.3467   82.5520  221.9327 H   0  0  0  0  0  0  0  0  0  0  0  0
  139.4464   80.7585  221.9327 H   0  0  0  0  0  0  0  0  0  0  0  0
  141.4436   82.1674  220.9546 H   0  0  0  0  0  0  0  0  0  0  0  0
  141.8579   82.4201  222.6983 H   0  0  0  0  0  0  0  0  0  0  0  0
  141.5085   81.1758  219.5008 H   0  0  0  0  0  0  0  0  0  0  0  0
  142.2274   80.8624  217.1179 H   0  0  0  0  0  0  0  0  0  0  0  0
  142.9589   78.5933  216.3479 H   0  0  0  0  0  0  0  0  0  0  0  0
  142.9654   76.6775  217.9262 H   0  0  0  0  0  0  0  0  0  0  0  0
  142.2491   76.9962  220.2901 H   0  0  0  0  0  0  0  0  0  0  0  0
  139.9963   78.9879  222.6530 H   0  0  0  0  0  0  0  0  0  0  0  0
  142.2124   77.3709  222.6650 H   0  0  0  0  0  0  0  0  0  0  0  0
  140.6879   77.1895  223.6377 H   0  0  0  0  0  0  0  0  0  0  0  0
  141.2403   75.9152  220.9345 H   0  0  0  0  0  0  0  0  0  0  0  0
  141.3070   75.0902  222.5284 H   0  0  0  0  0  0  0  0  0  0  0  0
  140.1503   73.1079  222.5975 H   0  0  0  0  0  0  0  0  0  0  0  0
  137.8750   71.5460  221.8520 H   0  0  0  0  0  0  0  0  0  0  0  0
  137.6630   72.6660  223.1020 H   0  0  0  0  0  0  0  0  0  0  0  0
  139.2410   71.6989  220.3140 H   0  0  0  0  0  0  0  0  0  0  0  0
  139.2980   73.4401  219.8238 H   0  0  0  0  0  0  0  0  0  0  0  0
  141.1172   74.2630  219.0068 H   0  0  0  0  0  0  0  0  0  0  0  0
  143.5499   74.2639  218.6562 H   0  0  0  0  0  0  0  0  0  0  0  0
  146.0438   73.1547  222.0057 H   0  0  0  0  0  0  0  0  0  0  0  0
  147.4880   73.4585  220.9816 H   0  0  0  0  0  0  0  0  0  0  0  0
  146.1248   74.6283  220.9816 H   0  0  0  0  0  0  0  0  0  0  0  0
  143.9341   70.9789  221.3859 H   0  0  0  0  0  0  0  0  0  0  0  0
  141.5104   70.9873  221.7266 H   0  0  0  0  0  0  0  0  0  0  0  0
  137.6310   76.7028  221.2987 H   0  0  0  0  0  0  0  0  0  0  0  0
  138.3207   77.3540  222.7660 H   0  0  0  0  0  0  0  0  0  0  0  0
  139.9562   77.2704  220.1136 H   0  0  0  0  0  0  0  0  0  0  0  0
  138.9066   78.6389  220.4322 H   0  0  0  0  0  0  0  0  0  0  0  0
  1  2  1  0
  2  3  1  0
  3  4  2  0
  3  5  1  0
  5  6  1  0
  6  7  2  0
  7  8  1  0
  8  9  2  0
  9 10  1  0
 10 11  2  0
  5 12  1  0
 12 13  1  0
 13 14  1  0
 14 15  1  0
 15 16  1  0
 16 17  2  0
 16 18  1  0
 18 19  1  0
 18 20  1  0
 20 21  1  0
 21 22  2  0
 22 23  1  0
 23 24  2  0
 24 25  1  0
 25 26  1  0
 25 27  2  0
 25 28  2  0
 24 29  1  0
 29 30  2  0
 15 31  1  0
 31 32  1  0
 11  6  1  0
 32 12  1  0
 30 21  1  0
  1 33  1  0
  1 34  1  0
  1 35  1  0
  2 36  1  0
  2 37  1  0
  7 38  1  0
  8 39  1  0
  9 40  1  0
 10 41  1  0
 11 42  1  0
 12 43  1  0
 13 44  1  0
 13 45  1  0
 14 46  1  0
 14 47  1  0
 18 48  1  1
 19 49  1  0
 19 50  1  0
 20 51  1  0
 20 52  1  0
 22 53  1  0
 23 54  1  0
 26 55  1  0
 26 56  1  0
 26 57  1  0
 29 58  1  0
 30 59  1  0
 31 60  1  0
 31 61  1  0
 32 62  1  0
 32 63  1  0
M  END
>  <smiles>  (33) 
CCC(=O)N(c1ccccc1)C1CCN(C(=O)[C@@H](N)Cc2ccc(S(C)(=O)=O)cc2)CC1

>  <score_type>  (33) 
oracle

>  <origin>  (33) 
autodockgpu

>  <m_score__min__energy>  (33) 
-8.8800000000000008

>  <m_primary>  (33) 
energy

>  <rmsd>  (33) 
4.577986970285761

>  <m_score__min__rmsd>  (33) 
4.577986970285761

>  <meeko>  (33) 
{"free_energy": -6.6, "intermolecular_energy": -9.28, "internal_energy": -2.82, "cluster_size": 19, "cluster_id": 5, "rank_in_cluster": 19}

>  <energy>  (33) 
-6.96

>  <cluster_rmsd>  (33) 
0.98

>  <cluster>  (33) 
5

$$$$

     RDKit          3D

 63 65  0  0  0  0  0  0  0  0999 V2000
  145.7190   73.4810  221.2130 C   0  0  0  0  0  0  0  0  0  0  0  0
  144.7970   72.8770  220.1600 C   0  0  0  0  0  0  0  0  0  0  0  0
  143.3470   73.0850  220.5190 C   0  0  0  0  0  0  0  0  0  0  0  0
  142.8400   72.1710  221.2180 O   0  0  0  0  0  0  0  0  0  0  0  0
  142.6450   74.2370  220.0810 N   0  0  0  0  0  0  0  0  0  0  0  0
  141.4610   74.5770  220.8500 C   0  0  0  0  0  0  0  0  0  0  0  0
  141.4510   75.7420  221.5570 C   0  0  0  0  0  0  0  0  0  0  0  0
  140.3160   76.0660  222.2940 C   0  0  0  0  0  0  0  0  0  0  0  0
  139.2230   75.1890  222.2860 C   0  0  0  0  0  0  0  0  0  0  0  0
  139.2730   74.0090  221.5510 C   0  0  0  0  0  0  0  0  0  0  0  0
  140.3930   73.6840  220.8220 C   0  0  0  0  0  0  0  0  0  0  0  0
  142.9970   75.0690  218.9800 C   0  0  0  0  0  0  0  0  0  0  0  0
  143.5680   76.3840  219.3430 C   0  0  0  0  0  0  0  0  0  0  0  0
  142.6890   77.5300  218.9060 C   0  0  0  0  0  0  0  0  0  0  0  0
  142.5260   77.4910  217.4810 N   0  0  0  0  0  0  0  0  0  0  0  0
  142.3140   78.5660  216.6070 C   0  0  0  0  0  0  0  0  0  0  0  0
  142.2310   78.2890  215.3410 O   0  0  0  0  0  0  0  0  0  0  0  0
  142.1670   79.9910  216.9170 C   0  0  1  0  0  0  0  0  0  0  0  0
  142.3580   80.8230  215.7750 N   0  0  0  0  0  0  0  0  0  0  0  0
  140.8010   80.2370  217.5730 C   0  0  0  0  0  0  0  0  0  0  0  0
  140.8610   80.0200  219.0160 C   0  0  0  0  0  0  0  0  0  0  0  0
  141.9140   80.6270  219.7120 C   0  0  0  0  0  0  0  0  0  0  0  0
  142.0620   80.4720  221.0740 C   0  0  0  0  0  0  0  0  0  0  0  0
  141.1700   79.7090  221.8060 C   0  0  0  0  0  0  0  0  0  0  0  0
  141.4070   79.5530  223.5210 S   0  0  0  0  0  0  0  0  0  0  0  0
  142.5990   80.7680  224.0320 C   0  0  0  0  0  0  0  0  0  0  0  0
  140.0760   79.7390  224.1970 O   0  0  0  0  0  0  0  0  0  0  0  0
  141.9420   78.1940  223.8420 O   0  0  0  0  0  0  0  0  0  0  0  0
  140.1270   79.1060  221.1210 C   0  0  0  0  0  0  0  0  0  0  0  0
  139.9890   79.2670  219.7620 C   0  0  0  0  0  0  0  0  0  0  0  0
  142.5520   76.1430  216.8700 C   0  0  0  0  0  0  0  0  0  0  0  0
  141.8870   75.2700  217.9580 C   0  0  0  0  0  0  0  0  0  0  0  0
  145.3415   73.2337  222.2162 H   0  0  0  0  0  0  0  0  0  0  0  0
  146.7326   73.0713  221.0913 H   0  0  0  0  0  0  0  0  0  0  0  0
  145.7482   74.5739  221.0913 H   0  0  0  0  0  0  0  0  0  0  0  0
  144.9985   73.3553  219.1901 H   0  0  0  0  0  0  0  0  0  0  0  0
  144.9906   71.7954  220.1074 H   0  0  0  0  0  0  0  0  0  0  0  0
  142.3227   76.4128  221.5453 H   0  0  0  0  0  0  0  0  0  0  0  0
  140.2772   76.9989  222.8756 H   0  0  0  0  0  0  0  0  0  0  0  0
  138.3202   75.4351  222.8643 H   0  0  0  0  0  0  0  0  0  0  0  0
  138.4082   73.3292  221.5529 H   0  0  0  0  0  0  0  0  0  0  0  0
  140.4433   72.7530  220.2384 H   0  0  0  0  0  0  0  0  0  0  0  0
  143.7963   74.4772  218.5100 H   0  0  0  0  0  0  0  0  0  0  0  0
  143.6892   76.4277  220.4354 H   0  0  0  0  0  0  0  0  0  0  0  0
  144.5344   76.4853  218.8274 H   0  0  0  0  0  0  0  0  0  0  0  0
  141.7051   77.4428  219.3902 H   0  0  0  0  0  0  0  0  0  0  0  0
  143.1570   78.4824  219.1957 H   0  0  0  0  0  0  0  0  0  0  0  0
  142.9612   80.2678  217.6260 H   0  0  0  0  0  0  0  0  0  0  0  0
  142.0540   80.4000  214.8690 H   0  0  0  0  0  0  0  0  0  0  0  0
  143.3330   81.1180  215.7130 H   0  0  0  0  0  0  0  0  0  0  0  0
  140.4914   81.2745  217.3788 H   0  0  0  0  0  0  0  0  0  0  0  0
  140.0763   79.5291  217.1443 H   0  0  0  0  0  0  0  0  0  0  0  0
  142.6397   81.2416  219.1592 H   0  0  0  0  0  0  0  0  0  0  0  0
  142.9025   80.9627  221.5866 H   0  0  0  0  0  0  0  0  0  0  0  0
  142.6361   80.8058  225.1307 H   0  0  0  0  0  0  0  0  0  0  0  0
  143.5905   80.4961  223.6408 H   0  0  0  0  0  0  0  0  0  0  0  0
  142.3082   81.7541  223.6408 H   0  0  0  0  0  0  0  0  0  0  0  0
  139.4000   78.4906  221.6713 H   0  0  0  0  0  0  0  0  0  0  0  0
  139.1476   78.7734  219.2536 H   0  0  0  0  0  0  0  0  0  0  0  0
  141.9749   76.1196  215.9338 H   0  0  0  0  0  0  0  0  0  0  0  0
  143.5621   75.8060  216.5940 H   0  0  0  0  0  0  0  0  0  0  0  0
  141.0277   75.7891  218.4077 H   0  0  0  0  0  0  0  0  0  0  0  0
  141.4907   74.3225  217.5640 H   0  0  0  0  0  0  0  0  0  0  0  0
  1  2  1  0
  2  3  1  0
  3  4  2  0
  3  5  1  0
  5  6  1  0
  6  7  2  0
  7  8  1  0
  8  9  2  0
  9 10  1  0
 10 11  2  0
  5 12  1  0
 12 13  1  0
 13 14  1  0
 14 15  1  0
 15 16  1  0
 16 17  2  0
 16 18  1  0
 18 19  1  0
 18 20  1  0
 20 21  1  0
 21 22  2  0
 22 23  1  0
 23 24  2  0
 24 25  1  0
 25 26  1  0
 25 27  2  0
 25 28  2  0
 24 29  1  0
 29 30  2  0
 15 31  1  0
 31 32  1  0
 11  6  1  0
 32 12  1  0
 30 21  1  0
  1 33  1  0
  1 34  1  0
  1 35  1  0
  2 36  1  0
  2 37  1  0
  7 38  1  0
  8 39  1  0
  9 40  1  0
 10 41  1  0
 11 42  1  0
 12 43  1  0
 13 44  1  0
 13 45  1  0
 14 46  1  0
 14 47  1  0
 18 48  1  1
 19 49  1  0
 19 50  1  0
 20 51  1  0
 20 52  1  0
 22 53  1  0
 23 54  1  0
 26 55  1  0
 26 56  1  0
 26 57  1  0
 29 58  1  0
 30 59  1  0
 31 60  1  0
 31 61  1  0
 32 62  1  0
 32 63  1  0
M  END
>  <smiles>  (34) 
CCC(=O)N(c1ccccc1)C1CCN(C(=O)[C@@H](N)Cc2ccc(S(C)(=O)=O)cc2)CC1

>  <score_type>  (34) 
oracle

>  <origin>  (34) 
autodockgpu

>  <m_score__min__energy>  (34) 
-8.8800000000000008

>  <m_primary>  (34) 
energy

>  <rmsd>  (34) 
5.97723863705719

>  <m_score__min__rmsd>  (34) 
5.97723863705719

>  <meeko>  (34) 
{"free_energy": -6.09, "intermolecular_energy": -8.78, "internal_energy": -3.45, "cluster_size": 1, "cluster_id": 10, "rank_in_cluster": 1}

>  <energy>  (34) 
-6.92

>  <cluster_rmsd>  (34) 
1.03

>  <cluster>  (34) 
5

$$$$

     RDKit          3D

 63 65  0  0  0  0  0  0  0  0999 V2000
  142.9490   80.1620  223.8620 C   0  0  0  0  0  0  0  0  0  0  0  0
  141.9740   81.2870  223.5400 C   0  0  0  0  0  0  0  0  0  0  0  0
  141.2530   81.0310  222.2400 C   0  0  0  0  0  0  0  0  0  0  0  0
  141.6990   81.6700  221.2540 O   0  0  0  0  0  0  0  0  0  0  0  0
  140.1590   80.1290  222.1780 N   0  0  0  0  0  0  0  0  0  0  0  0
  138.9710   80.5360  222.9070 C   0  0  0  0  0  0  0  0  0  0  0  0
  138.8520   80.1790  224.2170 C   0  0  0  0  0  0  0  0  0  0  0  0
  137.7130   80.5690  224.9140 C   0  0  0  0  0  0  0  0  0  0  0  0
  136.7270   81.3130  224.2510 C   0  0  0  0  0  0  0  0  0  0  0  0
  136.8860   81.6570  222.9130 C   0  0  0  0  0  0  0  0  0  0  0  0
  138.0100   81.2730  222.2190 C   0  0  0  0  0  0  0  0  0  0  0  0
  140.1290   78.8920  221.4740 C   0  0  0  0  0  0  0  0  0  0  0  0
  138.9350   78.0550  221.7230 C   0  0  0  0  0  0  0  0  0  0  0  0
  139.2800   76.7530  222.4020 C   0  0  0  0  0  0  0  0  0  0  0  0
  140.1840   76.0070  221.5730 N   0  0  0  0  0  0  0  0  0  0  0  0
  140.3230   74.6150  221.4830 C   0  0  0  0  0  0  0  0  0  0  0  0
  141.1920   74.1630  220.6300 O   0  0  0  0  0  0  0  0  0  0  0  0
  139.6190   73.5680  222.2290 C   0  0  1  0  0  0  0  0  0  0  0  0
  138.2040   73.6440  222.0760 N   0  0  0  0  0  0  0  0  0  0  0  0
  140.1580   72.1920  221.8170 C   0  0  0  0  0  0  0  0  0  0  0  0
  140.0290   71.2260  222.9050 C   0  0  0  0  0  0  0  0  0  0  0  0
  140.7070   71.5100  224.0980 C   0  0  0  0  0  0  0  0  0  0  0  0
  140.6550   70.6550  225.1780 C   0  0  0  0  0  0  0  0  0  0  0  0
  139.9270   69.4810  225.1230 C   0  0  0  0  0  0  0  0  0  0  0  0
  139.8970   68.4430  226.5190 S   0  0  0  0  0  0  0  0  0  0  0  0
  139.5400   69.4410  227.9460 C   0  0  0  0  0  0  0  0  0  0  0  0
  138.8590   67.3790  226.2910 O   0  0  0  0  0  0  0  0  0  0  0  0
  141.2350   67.8020  226.7070 O   0  0  0  0  0  0  0  0  0  0  0  0
  139.2550   69.1950  223.9460 C   0  0  0  0  0  0  0  0  0  0  0  0
  139.3140   70.0560  222.8740 C   0  0  0  0  0  0  0  0  0  0  0  0
  141.1030   76.8140  220.7390 C   0  0  0  0  0  0  0  0  0  0  0  0
  141.3800   78.0400  221.6390 C   0  0  0  0  0  0  0  0  0  0  0  0
  143.0401   80.0569  224.9532 H   0  0  0  0  0  0  0  0  0  0  0  0
  142.5768   79.2201  223.4327 H   0  0  0  0  0  0  0  0  0  0  0  0
  143.9342   80.3966  223.4327 H   0  0  0  0  0  0  0  0  0  0  0  0
  141.2347   81.3637  224.3509 H   0  0  0  0  0  0  0  0  0  0  0  0
  142.5433   82.2232  223.4431 H   0  0  0  0  0  0  0  0  0  0  0  0
  139.6407   79.5943  224.7131 H   0  0  0  0  0  0  0  0  0  0  0  0
  137.5876   80.2969  225.9724 H   0  0  0  0  0  0  0  0  0  0  0  0
  135.8222   81.6265  224.7924 H   0  0  0  0  0  0  0  0  0  0  0  0
  136.1054   82.2419  222.4046 H   0  0  0  0  0  0  0  0  0  0  0  0
  138.1448   81.5382  221.1600 H   0  0  0  0  0  0  0  0  0  0  0  0
  140.0809   79.2388  220.4312 H   0  0  0  0  0  0  0  0  0  0  0  0
  138.2382   78.6146  222.3643 H   0  0  0  0  0  0  0  0  0  0  0  0
  138.4819   77.8170  220.7493 H   0  0  0  0  0  0  0  0  0  0  0  0
  139.7570   76.9599  223.3713 H   0  0  0  0  0  0  0  0  0  0  0  0
  138.3622   76.1684  222.5629 H   0  0  0  0  0  0  0  0  0  0  0  0
  139.8141   73.7245  223.3002 H   0  0  0  0  0  0  0  0  0  0  0  0
  137.8730   74.3720  221.4020 H   0  0  0  0  0  0  0  0  0  0  0  0
  137.7580   73.7820  222.9840 H   0  0  0  0  0  0  0  0  0  0  0  0
  139.5904   71.8303  220.9470 H   0  0  0  0  0  0  0  0  0  0  0  0
  141.2245   72.2961  221.5687 H   0  0  0  0  0  0  0  0  0  0  0  0
  141.2944   72.4369  224.1745 H   0  0  0  0  0  0  0  0  0  0  0  0
  141.2012   70.9108  226.0979 H   0  0  0  0  0  0  0  0  0  0  0  0
  139.7468   68.8630  228.8587 H   0  0  0  0  0  0  0  0  0  0  0  0
  140.1718   70.3413  227.9312 H   0  0  0  0  0  0  0  0  0  0  0  0
  138.4805   69.7363  227.9312 H   0  0  0  0  0  0  0  0  0  0  0  0
  138.6672   68.2686  223.8672 H   0  0  0  0  0  0  0  0  0  0  0  0
  138.7662   69.7956  221.9563 H   0  0  0  0  0  0  0  0  0  0  0  0
  142.0298   76.2630  220.5211 H   0  0  0  0  0  0  0  0  0  0  0  0
  140.6867   77.0767  219.7553 H   0  0  0  0  0  0  0  0  0  0  0  0
  141.5131   77.7358  222.6877 H   0  0  0  0  0  0  0  0  0  0  0  0
  142.3014   78.5741  221.3638 H   0  0  0  0  0  0  0  0  0  0  0  0
  1  2  1  0
  2  3  1  0
  3  4  2  0
  3  5  1  0
  5  6  1  0
  6  7  2  0
  7  8  1  0
  8  9  2  0
  9 10  1  0
 10 11  2  0
  5 12  1  0
 12 13  1  0
 13 14  1  0
 14 15  1  0
 15 16  1  0
 16 17  2  0
 16 18  1  0
 18 19  1  0
 18 20  1  0
 20 21  1  0
 21 22  2  0
 22 23  1  0
 23 24  2  0
 24 25  1  0
 25 26  1  0
 25 27  2  0
 25 28  2  0
 24 29  1  0
 29 30  2  0
 15 31  1  0
 31 32  1  0
 11  6  1  0
 32 12  1  0
 30 21  1  0
  1 33  1  0
  1 34  1  0
  1 35  1  0
  2 36  1  0
  2 37  1  0
  7 38  1  0
  8 39  1  0
  9 40  1  0
 10 41  1  0
 11 42  1  0
 12 43  1  0
 13 44  1  0
 13 45  1  0
 14 46  1  0
 14 47  1  0
 18 48  1  1
 19 49  1  0
 19 50  1  0
 20 51  1  0
 20 52  1  0
 22 53  1  0
 23 54  1  0
 26 55  1  0
 26 56  1  0
 26 57  1  0
 29 58  1  0
 30 59  1  0
 31 60  1  0
 31 61  1  0
 32 62  1  0
 32 63  1  0
M  END
>  <smiles>  (35) 
CCC(=O)N(c1ccccc1)C1CCN(C(=O)[C@@H](N)Cc2ccc(S(C)(=O)=O)cc2)CC1

>  <score_type>  (35) 
oracle

>  <origin>  (35) 
autodockgpu

>  <m_score__min__energy>  (35) 
-8.8800000000000008

>  <m_primary>  (35) 
energy

>  <rmsd>  (35) 
5.056766486154016

>  <m_score__min__rmsd>  (35) 
5.056766486154016

>  <meeko>  (35) 
{"free_energy": -7.89, "intermolecular_energy": -10.58, "internal_energy": -1.69, "cluster_size": 6, "cluster_id": 2, "rank_in_cluster": 3}

>  <energy>  (35) 
-6.89

>  <cluster_rmsd>  (35) 
0.97

>  <cluster>  (35) 
5

$$$$

     RDKit          3D

 63 65  0  0  0  0  0  0  0  0999 V2000
  142.3320   80.0970  224.0720 C   0  0  0  0  0  0  0  0  0  0  0  0
  142.8420   80.5350  222.7050 C   0  0  0  0  0  0  0  0  0  0  0  0
  141.7310   80.5520  221.6860 C   0  0  0  0  0  0  0  0  0  0  0  0
  141.2910   81.6960  221.4040 O   0  0  0  0  0  0  0  0  0  0  0  0
  141.2480   79.3480  221.1110 N   0  0  0  0  0  0  0  0  0  0  0  0
  141.7160   79.0660  219.7650 C   0  0  0  0  0  0  0  0  0  0  0  0
  141.6580   80.0570  218.8310 C   0  0  0  0  0  0  0  0  0  0  0  0
  142.1060   79.7850  217.5420 C   0  0  0  0  0  0  0  0  0  0  0  0
  142.6010   78.5070  217.2460 C   0  0  0  0  0  0  0  0  0  0  0  0
  142.6420   77.5230  218.2280 C   0  0  0  0  0  0  0  0  0  0  0  0
  142.2000   77.7870  219.5040 C   0  0  0  0  0  0  0  0  0  0  0  0
  140.3680   78.4160  221.7300 C   0  0  0  0  0  0  0  0  0  0  0  0
  141.0320   77.3320  222.4880 C   0  0  0  0  0  0  0  0  0  0  0  0
  140.7740   75.9730  221.8870 C   0  0  0  0  0  0  0  0  0  0  0  0
  139.3610   75.7140  221.8790 N   0  0  0  0  0  0  0  0  0  0  0  0
  138.7110   74.4760  221.9660 C   0  0  0  0  0  0  0  0  0  0  0  0
  137.4120   74.4910  221.9750 O   0  0  0  0  0  0  0  0  0  0  0  0
  139.2920   73.1330  222.0480 C   0  0  1  0  0  0  0  0  0  0  0  0
  138.4330   72.2020  222.7030 N   0  0  0  0  0  0  0  0  0  0  0  0
  139.6780   72.6520  220.6430 C   0  0  0  0  0  0  0  0  0  0  0  0
  141.1280   72.5560  220.4960 C   0  0  0  0  0  0  0  0  0  0  0  0
  141.7850   73.6400  219.9000 C   0  0  0  0  0  0  0  0  0  0  0  0
  143.1500   73.6380  219.7090 C   0  0  0  0  0  0  0  0  0  0  0  0
  143.9240   72.5610  220.1010 C   0  0  0  0  0  0  0  0  0  0  0  0
  145.6420   72.6180  219.8360 S   0  0  0  0  0  0  0  0  0  0  0  0
  146.3930   73.4330  221.2250 C   0  0  0  0  0  0  0  0  0  0  0  0
  146.1370   71.2090  219.6630 O   0  0  0  0  0  0  0  0  0  0  0  0
  145.9420   73.4060  218.6010 O   0  0  0  0  0  0  0  0  0  0  0  0
  143.2790   71.4860  220.6910 C   0  0  0  0  0  0  0  0  0  0  0  0
  141.9150   71.4990  220.8770 C   0  0  0  0  0  0  0  0  0  0  0  0
  138.4930   76.9030  221.7270 C   0  0  0  0  0  0  0  0  0  0  0  0
  139.3300   77.8100  220.7960 C   0  0  0  0  0  0  0  0  0  0  0  0
  142.9153   80.5979  224.8587 H   0  0  0  0  0  0  0  0  0  0  0  0
  141.2711   80.3698  224.1722 H   0  0  0  0  0  0  0  0  0  0  0  0
  142.4414   79.0071  224.1722 H   0  0  0  0  0  0  0  0  0  0  0  0
  143.2675   81.5460  222.7883 H   0  0  0  0  0  0  0  0  0  0  0  0
  143.6067   79.8173  222.3732 H   0  0  0  0  0  0  0  0  0  0  0  0
  141.2652   81.0511  219.0908 H   0  0  0  0  0  0  0  0  0  0  0  0
  142.0722   80.5629  216.7650 H   0  0  0  0  0  0  0  0  0  0  0  0
  142.9591   78.2812  216.2307 H   0  0  0  0  0  0  0  0  0  0  0  0
  143.0315   76.5241  217.9822 H   0  0  0  0  0  0  0  0  0  0  0  0
  142.2280   77.0164  220.2885 H   0  0  0  0  0  0  0  0  0  0  0  0
  139.8476   79.0592  222.4550 H   0  0  0  0  0  0  0  0  0  0  0  0
  142.1164   77.5166  222.4930 H   0  0  0  0  0  0  0  0  0  0  0  0
  140.6199   77.3329  223.5079 H   0  0  0  0  0  0  0  0  0  0  0  0
  141.1571   75.9491  220.8561 H   0  0  0  0  0  0  0  0  0  0  0  0
  141.2846   75.2042  222.4855 H   0  0  0  0  0  0  0  0  0  0  0  0
  140.1979   73.1936  222.6691 H   0  0  0  0  0  0  0  0  0  0  0  0
  138.0050   71.4840  222.0760 H   0  0  0  0  0  0  0  0  0  0  0  0
  137.7020   72.6980  223.2150 H   0  0  0  0  0  0  0  0  0  0  0  0
  139.2335   71.6610  220.4686 H   0  0  0  0  0  0  0  0  0  0  0  0
  139.3017   73.3810  219.9103 H   0  0  0  0  0  0  0  0  0  0  0  0
  141.1983   74.5126  219.5771 H   0  0  0  0  0  0  0  0  0  0  0  0
  143.6316   74.5071  219.2371 H   0  0  0  0  0  0  0  0  0  0  0  0
  145.9986   73.0050  222.1584 H   0  0  0  0  0  0  0  0  0  0  0  0
  147.4831   73.2906  221.1882 H   0  0  0  0  0  0  0  0  0  0  0  0
  146.1622   74.5079  221.1882 H   0  0  0  0  0  0  0  0  0  0  0  0
  143.8635   70.6121  221.0145 H   0  0  0  0  0  0  0  0  0  0  0  0
  141.4376   70.6279  221.3495 H   0  0  0  0  0  0  0  0  0  0  0  0
  137.5315   76.6369  221.2637 H   0  0  0  0  0  0  0  0  0  0  0  0
  138.2295   77.3792  222.6829 H   0  0  0  0  0  0  0  0  0  0  0  0
  139.8119   77.2206  220.0020 H   0  0  0  0  0  0  0  0  0  0  0  0
  138.7242   78.5685  220.2787 H   0  0  0  0  0  0  0  0  0  0  0  0
  1  2  1  0
  2  3  1  0
  3  4  2  0
  3  5  1  0
  5  6  1  0
  6  7  2  0
  7  8  1  0
  8  9  2  0
  9 10  1  0
 10 11  2  0
  5 12  1  0
 12 13  1  0
 13 14  1  0
 14 15  1  0
 15 16  1  0
 16 17  2  0
 16 18  1  0
 18 19  1  0
 18 20  1  0
 20 21  1  0
 21 22  2  0
 22 23  1  0
 23 24  2  0
 24 25  1  0
 25 26  1  0
 25 27  2  0
 25 28  2  0
 24 29  1  0
 29 30  2  0
 15 31  1  0
 31 32  1  0
 11  6  1  0
 32 12  1  0
 30 21  1  0
  1 33  1  0
  1 34  1  0
  1 35  1  0
  2 36  1  0
  2 37  1  0
  7 38  1  0
  8 39  1  0
  9 40  1  0
 10 41  1  0
 11 42  1  0
 12 43  1  0
 13 44  1  0
 13 45  1  0
 14 46  1  0
 14 47  1  0
 18 48  1  1
 19 49  1  0
 19 50  1  0
 20 51  1  0
 20 52  1  0
 22 53  1  0
 23 54  1  0
 26 55  1  0
 26 56  1  0
 26 57  1  0
 29 58  1  0
 30 59  1  0
 31 60  1  0
 31 61  1  0
 32 62  1  0
 32 63  1  0
M  END
>  <smiles>  (36) 
CCC(=O)N(c1ccccc1)C1CCN(C(=O)[C@@H](N)Cc2ccc(S(C)(=O)=O)cc2)CC1

>  <score_type>  (36) 
oracle

>  <origin>  (36) 
autodockgpu

>  <m_score__min__energy>  (36) 
-8.8800000000000008

>  <m_primary>  (36) 
energy

>  <rmsd>  (36) 
4.5864636671293235

>  <m_score__min__rmsd>  (36) 
4.5864636671293235

>  <meeko>  (36) 
{"free_energy": -6.92, "intermolecular_energy": -9.61, "internal_energy": -2.81, "cluster_size": 19, "cluster_id": 5, "rank_in_cluster": 11}

>  <energy>  (36) 
-6.86

>  <cluster_rmsd>  (36) 
1.18

>  <cluster>  (36) 
5

$$$$

     RDKit          3D

 63 65  0  0  0  0  0  0  0  0999 V2000
  142.5930   81.2490  224.2210 C   0  0  0  0  0  0  0  0  0  0  0  0
  142.7130   80.6800  222.8130 C   0  0  0  0  0  0  0  0  0  0  0  0
  141.4710   80.9550  222.0030 C   0  0  0  0  0  0  0  0  0  0  0  0
  141.4980   82.0240  221.3410 O   0  0  0  0  0  0  0  0  0  0  0  0
  140.3770   80.0510  222.0130 N   0  0  0  0  0  0  0  0  0  0  0  0
  139.2100   80.4900  222.7570 C   0  0  0  0  0  0  0  0  0  0  0  0
  138.2750   81.2490  222.1190 C   0  0  0  0  0  0  0  0  0  0  0  0
  137.1580   81.6700  222.8330 C   0  0  0  0  0  0  0  0  0  0  0  0
  137.0280   81.3020  224.1790 C   0  0  0  0  0  0  0  0  0  0  0  0
  138.0050   80.5260  224.7940 C   0  0  0  0  0  0  0  0  0  0  0  0
  139.1120   80.1090  224.0920 C   0  0  0  0  0  0  0  0  0  0  0  0
  140.3300   78.7820  221.3690 C   0  0  0  0  0  0  0  0  0  0  0  0
  139.0370   78.0710  221.4750 C   0  0  0  0  0  0  0  0  0  0  0  0
  139.1530   76.7850  222.2550 C   0  0  0  0  0  0  0  0  0  0  0  0
  140.0910   75.9140  221.6040 N   0  0  0  0  0  0  0  0  0  0  0  0
  140.1060   74.5130  221.5980 C   0  0  0  0  0  0  0  0  0  0  0  0
  141.0400   73.9360  220.9050 O   0  0  0  0  0  0  0  0  0  0  0  0
  139.2030   73.5780  222.2760 C   0  0  1  0  0  0  0  0  0  0  0  0
  137.8280   73.8890  222.0610 N   0  0  0  0  0  0  0  0  0  0  0  0
  139.5310   72.1420  221.8460 C   0  0  0  0  0  0  0  0  0  0  0  0
  139.7520   71.2810  223.0040 C   0  0  0  0  0  0  0  0  0  0  0  0
  139.0560   70.0650  223.0410 C   0  0  0  0  0  0  0  0  0  0  0  0
  139.1920   69.1900  224.0980 C   0  0  0  0  0  0  0  0  0  0  0  0
  140.0240   69.4810  225.1630 C   0  0  0  0  0  0  0  0  0  0  0  0
  140.1550   68.3360  226.4660 S   0  0  0  0  0  0  0  0  0  0  0  0
  139.8940   69.2010  227.9960 C   0  0  0  0  0  0  0  0  0  0  0  0
  139.1360   67.2520  226.2410 O   0  0  0  0  0  0  0  0  0  0  0  0
  141.5240   67.7360  226.4830 O   0  0  0  0  0  0  0  0  0  0  0  0
  140.7140   70.6820  225.1310 C   0  0  0  0  0  0  0  0  0  0  0  0
  140.5710   71.5480  224.0720 C   0  0  0  0  0  0  0  0  0  0  0  0
  141.1930   76.5860  220.8810 C   0  0  0  0  0  0  0  0  0  0  0  0
  141.4560   77.8330  221.7560 C   0  0  0  0  0  0  0  0  0  0  0  0
  142.7619   80.4480  224.9558 H   0  0  0  0  0  0  0  0  0  0  0  0
  143.3440   82.0403  224.3619 H   0  0  0  0  0  0  0  0  0  0  0  0
  141.5864   81.6696  224.3619 H   0  0  0  0  0  0  0  0  0  0  0  0
  143.5768   81.1418  222.3124 H   0  0  0  0  0  0  0  0  0  0  0  0
  142.8437   79.5904  222.8889 H   0  0  0  0  0  0  0  0  0  0  0  0
  138.4011   81.5230  221.0612 H   0  0  0  0  0  0  0  0  0  0  0  0
  136.3859   82.2845  222.3469 H   0  0  0  0  0  0  0  0  0  0  0  0
  136.1481   81.6288  224.7526 H   0  0  0  0  0  0  0  0  0  0  0  0
  137.8914   80.2433  225.8510 H   0  0  0  0  0  0  0  0  0  0  0  0
  139.8916   79.4965  224.5685 H   0  0  0  0  0  0  0  0  0  0  0  0
  140.4673   79.0697  220.3162 H   0  0  0  0  0  0  0  0  0  0  0  0
  138.3129   78.7271  221.9803 H   0  0  0  0  0  0  0  0  0  0  0  0
  138.7075   77.8182  220.4564 H   0  0  0  0  0  0  0  0  0  0  0  0
  139.5029   77.0046  223.2745 H   0  0  0  0  0  0  0  0  0  0  0  0
  138.1694   76.2949  222.3030 H   0  0  0  0  0  0  0  0  0  0  0  0
  139.3661   73.6750  223.3595 H   0  0  0  0  0  0  0  0  0  0  0  0
  137.6560   74.6870  221.4080 H   0  0  0  0  0  0  0  0  0  0  0  0
  137.3630   74.0620  222.9520 H   0  0  0  0  0  0  0  0  0  0  0  0
  138.6916   71.7432  221.2575 H   0  0  0  0  0  0  0  0  0  0  0  0
  140.4522   72.1604  221.2451 H   0  0  0  0  0  0  0  0  0  0  0  0
  138.3865   69.8029  222.2085 H   0  0  0  0  0  0  0  0  0  0  0  0
  138.6292   68.2449  224.0937 H   0  0  0  0  0  0  0  0  0  0  0  0
  140.0981   68.5246  228.8391 H   0  0  0  0  0  0  0  0  0  0  0  0
  140.5710   70.0664  228.0481 H   0  0  0  0  0  0  0  0  0  0  0  0
  138.8513   69.5475  228.0481 H   0  0  0  0  0  0  0  0  0  0  0  0
  141.3841   70.9461  225.9624 H   0  0  0  0  0  0  0  0  0  0  0  0
  141.1356   72.4920  224.0817 H   0  0  0  0  0  0  0  0  0  0  0  0
  142.0838   75.9428  220.8276 H   0  0  0  0  0  0  0  0  0  0  0  0
  140.9488   76.8272  219.8359 H   0  0  0  0  0  0  0  0  0  0  0  0
  141.4073   77.5804  222.8255 H   0  0  0  0  0  0  0  0  0  0  0  0
  142.4548   78.2655  221.5968 H   0  0  0  0  0  0  0  0  0  0  0  0
  1  2  1  0
  2  3  1  0
  3  4  2  0
  3  5  1  0
  5  6  1  0
  6  7  2  0
  7  8  1  0
  8  9  2  0
  9 10  1  0
 10 11  2  0
  5 12  1  0
 12 13  1  0
 13 14  1  0
 14 15  1  0
 15 16  1  0
 16 17  2  0
 16 18  1  0
 18 19  1  0
 18 20  1  0
 20 21  1  0
 21 22  2  0
 22 23  1  0
 23 24  2  0
 24 25  1  0
 25 26  1  0
 25 27  2  0
 25 28  2  0
 24 29  1  0
 29 30  2  0
 15 31  1  0
 31 32  1  0
 11  6  1  0
 32 12  1  0
 30 21  1  0
  1 33  1  0
  1 34  1  0
  1 35  1  0
  2 36  1  0
  2 37  1  0
  7 38  1  0
  8 39  1  0
  9 40  1  0
 10 41  1  0
 11 42  1  0
 12 43  1  0
 13 44  1  0
 13 45  1  0
 14 46  1  0
 14 47  1  0
 18 48  1  1
 19 49  1  0
 19 50  1  0
 20 51  1  0
 20 52  1  0
 22 53  1  0
 23 54  1  0
 26 55  1  0
 26 56  1  0
 26 57  1  0
 29 58  1  0
 30 59  1  0
 31 60  1  0
 31 61  1  0
 32 62  1  0
 32 63  1  0
M  END
>  <smiles>  (37) 
CCC(=O)N(c1ccccc1)C1CCN(C(=O)[C@@H](N)Cc2ccc(S(C)(=O)=O)cc2)CC1

>  <score_type>  (37) 
oracle

>  <origin>  (37) 
autodockgpu

>  <m_score__min__energy>  (37) 
-8.8800000000000008

>  <m_primary>  (37) 
energy

>  <rmsd>  (37) 
5.077500330906368

>  <m_score__min__rmsd>  (37) 
5.077500330906368

>  <meeko>  (37) 
{"free_energy": -7.9, "intermolecular_energy": -10.58, "internal_energy": -1.7, "cluster_size": 6, "cluster_id": 2, "rank_in_cluster": 2}

>  <energy>  (37) 
-6.84

>  <cluster_rmsd>  (37) 
1.03

>  <cluster>  (37) 
5

$$$$

     RDKit          3D

 63 65  0  0  0  0  0  0  0  0999 V2000
  143.3960   80.5300  223.5360 C   0  0  0  0  0  0  0  0  0  0  0  0
  142.2160   81.4880  223.6460 C   0  0  0  0  0  0  0  0  0  0  0  0
  141.4270   81.5340  222.3620 C   0  0  0  0  0  0  0  0  0  0  0  0
  141.1280   82.6900  221.9660 O   0  0  0  0  0  0  0  0  0  0  0  0
  141.0690   80.3410  221.6820 N   0  0  0  0  0  0  0  0  0  0  0  0
  141.5870   80.2120  220.3310 C   0  0  0  0  0  0  0  0  0  0  0  0
  141.6820   81.3290  219.5570 C   0  0  0  0  0  0  0  0  0  0  0  0
  142.1780   81.2040  218.2630 C   0  0  0  0  0  0  0  0  0  0  0  0
  142.5620   79.9390  217.7980 C   0  0  0  0  0  0  0  0  0  0  0  0
  142.4480   78.8220  218.6200 C   0  0  0  0  0  0  0  0  0  0  0  0
  141.9580   78.9410  219.9000 C   0  0  0  0  0  0  0  0  0  0  0  0
  140.2660   79.2860  222.2010 C   0  0  0  0  0  0  0  0  0  0  0  0
  141.0160   78.1860  222.8470 C   0  0  0  0  0  0  0  0  0  0  0  0
  140.8590   76.8780  222.1110 C   0  0  0  0  0  0  0  0  0  0  0  0
  139.4710   76.5130  222.0750 N   0  0  0  0  0  0  0  0  0  0  0  0
  138.9180   75.2260  222.0350 C   0  0  0  0  0  0  0  0  0  0  0  0
  137.6230   75.1400  222.0430 O   0  0  0  0  0  0  0  0  0  0  0  0
  139.6020   73.9300  221.9820 C   0  0  1  0  0  0  0  0  0  0  0  0
  138.8280   72.8790  222.5550 N   0  0  0  0  0  0  0  0  0  0  0  0
  139.9960   73.6160  220.5330 C   0  0  0  0  0  0  0  0  0  0  0  0
  141.4470   73.5330  220.3860 C   0  0  0  0  0  0  0  0  0  0  0  0
  142.0510   72.3020  220.6720 C   0  0  0  0  0  0  0  0  0  0  0  0
  143.4150   72.1280  220.5730 C   0  0  0  0  0  0  0  0  0  0  0  0
  144.2400   73.1670  220.1850 C   0  0  0  0  0  0  0  0  0  0  0  0
  145.9530   72.8860  220.0760 S   0  0  0  0  0  0  0  0  0  0  0  0
  146.6960   73.3730  221.6150 C   0  0  0  0  0  0  0  0  0  0  0  0
  146.1710   71.4290  219.7710 O   0  0  0  0  0  0  0  0  0  0  0  0
  146.5380   73.7170  218.9790 O   0  0  0  0  0  0  0  0  0  0  0  0
  143.6480   74.3870  219.9010 C   0  0  0  0  0  0  0  0  0  0  0  0
  142.2850   74.5490  220.0030 C   0  0  0  0  0  0  0  0  0  0  0  0
  138.5130   77.6410  222.0420 C   0  0  0  0  0  0  0  0  0  0  0  0
  139.2720   78.6990  221.2090 C   0  0  0  0  0  0  0  0  0  0  0  0
  143.7380   80.2523  224.5439 H   0  0  0  0  0  0  0  0  0  0  0  0
  143.0848   79.6258  222.9923 H   0  0  0  0  0  0  0  0  0  0  0  0
  144.2170   81.0204  222.9923 H   0  0  0  0  0  0  0  0  0  0  0  0
  141.5566   81.1525  224.4601 H   0  0  0  0  0  0  0  0  0  0  0  0
  142.6050   82.4963  223.8511 H   0  0  0  0  0  0  0  0  0  0  0  0
  141.3729   82.3099  219.9471 H   0  0  0  0  0  0  0  0  0  0  0  0
  142.2676   82.0870  217.6132 H   0  0  0  0  0  0  0  0  0  0  0  0
  142.9560   79.8284  216.7769 H   0  0  0  0  0  0  0  0  0  0  0  0
  142.7525   77.8346  218.2428 H   0  0  0  0  0  0  0  0  0  0  0  0
  141.8628   78.0649  220.5583 H   0  0  0  0  0  0  0  0  0  0  0  0
  139.7009   79.8109  222.9853 H   0  0  0  0  0  0  0  0  0  0  0  0
  142.0830   78.4521  222.8722 H   0  0  0  0  0  0  0  0  0  0  0  0
  140.6118   78.0526  223.8613 H   0  0  0  0  0  0  0  0  0  0  0  0
  141.2360   76.9878  221.0835 H   0  0  0  0  0  0  0  0  0  0  0  0
  141.4309   76.0944  222.6295 H   0  0  0  0  0  0  0  0  0  0  0  0
  140.5128   74.0004  222.5948 H   0  0  0  0  0  0  0  0  0  0  0  0
  137.8390   73.1320  222.7750 H   0  0  0  0  0  0  0  0  0  0  0  0
  139.2900   72.5170  223.3900 H   0  0  0  0  0  0  0  0  0  0  0  0
  139.5502   72.6539  220.2404 H   0  0  0  0  0  0  0  0  0  0  0  0
  139.6265   74.4269  219.8881 H   0  0  0  0  0  0  0  0  0  0  0  0
  141.4224   71.4545  220.9828 H   0  0  0  0  0  0  0  0  0  0  0  0
  143.8538   71.1467  220.8065 H   0  0  0  0  0  0  0  0  0  0  0  0
  146.0981   72.9811  222.4510 H   0  0  0  0  0  0  0  0  0  0  0  0
  147.7173   72.9685  221.6733 H   0  0  0  0  0  0  0  0  0  0  0  0
  146.7326   74.4708  221.6733 H   0  0  0  0  0  0  0  0  0  0  0  0
  144.2746   75.2361  219.5904 H   0  0  0  0  0  0  0  0  0  0  0  0
  141.8507   75.5320  219.7681 H   0  0  0  0  0  0  0  0  0  0  0  0
  137.5721   77.3495  221.5524 H   0  0  0  0  0  0  0  0  0  0  0  0
  138.2193   77.9967  223.0406 H   0  0  0  0  0  0  0  0  0  0  0  0
  139.7929   78.2316  220.3604 H   0  0  0  0  0  0  0  0  0  0  0  0
  138.6064   79.4569  220.7701 H   0  0  0  0  0  0  0  0  0  0  0  0
  1  2  1  0
  2  3  1  0
  3  4  2  0
  3  5  1  0
  5  6  1  0
  6  7  2  0
  7  8  1  0
  8  9  2  0
  9 10  1  0
 10 11  2  0
  5 12  1  0
 12 13  1  0
 13 14  1  0
 14 15  1  0
 15 16  1  0
 16 17  2  0
 16 18  1  0
 18 19  1  0
 18 20  1  0
 20 21  1  0
 21 22  2  0
 22 23  1  0
 23 24  2  0
 24 25  1  0
 25 26  1  0
 25 27  2  0
 25 28  2  0
 24 29  1  0
 29 30  2  0
 15 31  1  0
 31 32  1  0
 11  6  1  0
 32 12  1  0
 30 21  1  0
  1 33  1  0
  1 34  1  0
  1 35  1  0
  2 36  1  0
  2 37  1  0
  7 38  1  0
  8 39  1  0
  9 40  1  0
 10 41  1  0
 11 42  1  0
 12 43  1  0
 13 44  1  0
 13 45  1  0
 14 46  1  0
 14 47  1  0
 18 48  1  1
 19 49  1  0
 19 50  1  0
 20 51  1  0
 20 52  1  0
 22 53  1  0
 23 54  1  0
 26 55  1  0
 26 56  1  0
 26 57  1  0
 29 58  1  0
 30 59  1  0
 31 60  1  0
 31 61  1  0
 32 62  1  0
 32 63  1  0
M  END
>  <smiles>  (38) 
CCC(=O)N(c1ccccc1)C1CCN(C(=O)[C@@H](N)Cc2ccc(S(C)(=O)=O)cc2)CC1

>  <score_type>  (38) 
oracle

>  <origin>  (38) 
autodockgpu

>  <m_score__min__energy>  (38) 
-8.8800000000000008

>  <m_primary>  (38) 
energy

>  <rmsd>  (38) 
4.040039414696837

>  <m_score__min__rmsd>  (38) 
4.040039414696837

>  <meeko>  (38) 
{"free_energy": -7.58, "intermolecular_energy": -10.26, "internal_energy": -2.54, "cluster_size": 19, "cluster_id": 5, "rank_in_cluster": 2}

>  <energy>  (38) 
-6.79

>  <cluster_rmsd>  (38) 
1.06

>  <cluster>  (38) 
5

$$$$

     RDKit          3D

 63 65  0  0  0  0  0  0  0  0999 V2000
  143.5220   80.5250  223.5220 C   0  0  0  0  0  0  0  0  0  0  0  0
  142.1240   81.1280  223.5620 C   0  0  0  0  0  0  0  0  0  0  0  0
  141.5080   81.1740  222.1860 C   0  0  0  0  0  0  0  0  0  0  0  0
  141.3980   82.3270  221.6950 O   0  0  0  0  0  0  0  0  0  0  0  0
  141.0970   79.9860  221.5290 N   0  0  0  0  0  0  0  0  0  0  0  0
  141.6180   79.8020  220.1860 C   0  0  0  0  0  0  0  0  0  0  0  0
  141.6250   80.8660  219.3350 C   0  0  0  0  0  0  0  0  0  0  0  0
  142.1230   80.6880  218.0490 C   0  0  0  0  0  0  0  0  0  0  0  0
  142.6010   79.4260  217.6690 C   0  0  0  0  0  0  0  0  0  0  0  0
  142.5750   78.3650  218.5680 C   0  0  0  0  0  0  0  0  0  0  0  0
  142.0830   78.5360  219.8410 C   0  0  0  0  0  0  0  0  0  0  0  0
  140.2410   78.9820  222.0650 C   0  0  0  0  0  0  0  0  0  0  0  0
  140.9280   77.8910  222.7900 C   0  0  0  0  0  0  0  0  0  0  0  0
  140.7560   76.5550  222.1100 C   0  0  0  0  0  0  0  0  0  0  0  0
  139.3590   76.2330  222.0360 N   0  0  0  0  0  0  0  0  0  0  0  0
  138.7650   74.9640  222.0350 C   0  0  0  0  0  0  0  0  0  0  0  0
  137.4680   74.9190  221.9950 O   0  0  0  0  0  0  0  0  0  0  0  0
  139.4060   73.6460  222.0680 C   0  0  1  0  0  0  0  0  0  0  0  0
  138.6040   72.6620  222.7160 N   0  0  0  0  0  0  0  0  0  0  0  0
  139.7810   73.2190  220.6420 C   0  0  0  0  0  0  0  0  0  0  0  0
  141.2190   72.9960  220.5180 C   0  0  0  0  0  0  0  0  0  0  0  0
  141.9580   73.9580  219.8180 C   0  0  0  0  0  0  0  0  0  0  0  0
  143.3200   73.8300  219.6390 C   0  0  0  0  0  0  0  0  0  0  0  0
  144.0070   72.7430  220.1460 C   0  0  0  0  0  0  0  0  0  0  0  0
  145.7240   72.6380  219.8900 S   0  0  0  0  0  0  0  0  0  0  0  0
  146.5410   73.3870  221.2790 C   0  0  0  0  0  0  0  0  0  0  0  0
  146.0860   71.1880  219.7260 O   0  0  0  0  0  0  0  0  0  0  0  0
  146.1020   73.3880  218.6520 O   0  0  0  0  0  0  0  0  0  0  0  0
  143.2790   71.7880  220.8390 C   0  0  0  0  0  0  0  0  0  0  0  0
  141.9210   71.9260  221.0120 C   0  0  0  0  0  0  0  0  0  0  0  0
  138.4410   77.3880  221.9130 C   0  0  0  0  0  0  0  0  0  0  0  0
  139.2660   78.3810  221.0630 C   0  0  0  0  0  0  0  0  0  0  0  0
  143.8836   80.3690  224.5491 H   0  0  0  0  0  0  0  0  0  0  0  0
  143.4904   79.5605  222.9940 H   0  0  0  0  0  0  0  0  0  0  0  0
  144.2018   81.2099  222.9940 H   0  0  0  0  0  0  0  0  0  0  0  0
  141.4884   80.5161  224.2190 H   0  0  0  0  0  0  0  0  0  0  0  0
  142.2003   82.1571  223.9431 H   0  0  0  0  0  0  0  0  0  0  0  0
  141.2444   81.8460  219.6587 H   0  0  0  0  0  0  0  0  0  0  0  0
  142.1417   81.5274  217.3383 H   0  0  0  0  0  0  0  0  0  0  0  0
  142.9986   79.2742  216.6547 H   0  0  0  0  0  0  0  0  0  0  0  0
  142.9517   77.3792  218.2578 H   0  0  0  0  0  0  0  0  0  0  0  0
  142.0579   77.7035  220.5596 H   0  0  0  0  0  0  0  0  0  0  0  0
  139.6657   79.5609  222.8025 H   0  0  0  0  0  0  0  0  0  0  0  0
  142.0016   78.1242  222.8455 H   0  0  0  0  0  0  0  0  0  0  0  0
  140.4805   77.8188  223.7923 H   0  0  0  0  0  0  0  0  0  0  0  0
  141.1755   76.6036  221.0943 H   0  0  0  0  0  0  0  0  0  0  0  0
  141.2814   75.7794  222.6865 H   0  0  0  0  0  0  0  0  0  0  0  0
  140.3225   73.7303  222.6705 H   0  0  0  0  0  0  0  0  0  0  0  0
  137.6660   72.9990  223.0320 H   0  0  0  0  0  0  0  0  0  0  0  0
  139.1120   72.2560  223.5030 H   0  0  0  0  0  0  0  0  0  0  0  0
  139.2509   72.2872  220.3954 H   0  0  0  0  0  0  0  0  0  0  0  0
  139.4926   74.0242  219.9503 H   0  0  0  0  0  0  0  0  0  0  0  0
  141.4410   74.8351  219.4016 H   0  0  0  0  0  0  0  0  0  0  0  0
  143.8681   74.6055  219.0839 H   0  0  0  0  0  0  0  0  0  0  0  0
  146.1120   72.9937  222.2125 H   0  0  0  0  0  0  0  0  0  0  0  0
  147.6153   73.1534  221.2422 H   0  0  0  0  0  0  0  0  0  0  0  0
  146.4014   74.4775  221.2422 H   0  0  0  0  0  0  0  0  0  0  0  0
  143.7933   70.9094  221.2556 H   0  0  0  0  0  0  0  0  0  0  0  0
  141.3772   71.1481  221.5680 H   0  0  0  0  0  0  0  0  0  0  0  0
  137.5103   77.1034  221.4003 H   0  0  0  0  0  0  0  0  0  0  0  0
  138.1214   77.7997  222.8817 H   0  0  0  0  0  0  0  0  0  0  0  0
  139.8025   77.8579  220.2577 H   0  0  0  0  0  0  0  0  0  0  0  0
  138.6432   79.1382  220.5643 H   0  0  0  0  0  0  0  0  0  0  0  0
  1  2  1  0
  2  3  1  0
  3  4  2  0
  3  5  1  0
  5  6  1  0
  6  7  2  0
  7  8  1  0
  8  9  2  0
  9 10  1  0
 10 11  2  0
  5 12  1  0
 12 13  1  0
 13 14  1  0
 14 15  1  0
 15 16  1  0
 16 17  2  0
 16 18  1  0
 18 19  1  0
 18 20  1  0
 20 21  1  0
 21 22  2  0
 22 23  1  0
 23 24  2  0
 24 25  1  0
 25 26  1  0
 25 27  2  0
 25 28  2  0
 24 29  1  0
 29 30  2  0
 15 31  1  0
 31 32  1  0
 11  6  1  0
 32 12  1  0
 30 21  1  0
  1 33  1  0
  1 34  1  0
  1 35  1  0
  2 36  1  0
  2 37  1  0
  7 38  1  0
  8 39  1  0
  9 40  1  0
 10 41  1  0
 11 42  1  0
 12 43  1  0
 13 44  1  0
 13 45  1  0
 14 46  1  0
 14 47  1  0
 18 48  1  1
 19 49  1  0
 19 50  1  0
 20 51  1  0
 20 52  1  0
 22 53  1  0
 23 54  1  0
 26 55  1  0
 26 56  1  0
 26 57  1  0
 29 58  1  0
 30 59  1  0
 31 60  1  0
 31 61  1  0
 32 62  1  0
 32 63  1  0
M  END
>  <smiles>  (39) 
CCC(=O)N(c1ccccc1)C1CCN(C(=O)[C@@H](N)Cc2ccc(S(C)(=O)=O)cc2)CC1

>  <score_type>  (39) 
oracle

>  <origin>  (39) 
autodockgpu

>  <m_score__min__energy>  (39) 
-8.8800000000000008

>  <m_primary>  (39) 
energy

>  <rmsd>  (39) 
4.249439482813621

>  <m_score__min__rmsd>  (39) 
4.249439482813621

>  <meeko>  (39) 
{"free_energy": -7.36, "intermolecular_energy": -10.04, "internal_energy": -2.55, "cluster_size": 19, "cluster_id": 5, "rank_in_cluster": 4}

>  <energy>  (39) 
-6.75

>  <cluster_rmsd>  (39) 
1.24

>  <cluster>  (39) 
5

$$$$

     RDKit          3D

 63 65  0  0  0  0  0  0  0  0999 V2000
  137.4860   67.7580  222.3750 C   0  0  0  0  0  0  0  0  0  0  0  0
  138.8730   67.4100  222.9000 C   0  0  0  0  0  0  0  0  0  0  0  0
  139.1790   68.1560  224.1750 C   0  0  0  0  0  0  0  0  0  0  0  0
  139.3330   67.4290  225.1890 O   0  0  0  0  0  0  0  0  0  0  0  0
  139.2790   69.5720  224.1860 N   0  0  0  0  0  0  0  0  0  0  0  0
  139.8560   70.1480  225.3880 C   0  0  0  0  0  0  0  0  0  0  0  0
  139.3610   69.7680  226.5990 C   0  0  0  0  0  0  0  0  0  0  0  0
  139.9140   70.3210  227.7490 C   0  0  0  0  0  0  0  0  0  0  0  0
  140.9580   71.2480  227.6280 C   0  0  0  0  0  0  0  0  0  0  0  0
  141.4350   71.6110  226.3720 C   0  0  0  0  0  0  0  0  0  0  0  0
  140.8910   71.0660  225.2320 C   0  0  0  0  0  0  0  0  0  0  0  0
  138.8740   70.4510  223.1420 C   0  0  0  0  0  0  0  0  0  0  0  0
  139.9790   71.0870  222.3910 C   0  0  0  0  0  0  0  0  0  0  0  0
  140.0030   72.5850  222.5680 C   0  0  0  0  0  0  0  0  0  0  0  0
  138.7650   73.1410  222.1000 N   0  0  0  0  0  0  0  0  0  0  0  0
  138.5440   74.4110  221.5490 C   0  0  0  0  0  0  0  0  0  0  0  0
  137.3350   74.6830  221.1610 O   0  0  0  0  0  0  0  0  0  0  0  0
  139.4970   75.5050  221.3420 C   0  0  1  0  0  0  0  0  0  0  0  0
  140.5170   75.5390  222.3380 N   0  0  0  0  0  0  0  0  0  0  0  0
  140.0900   75.4120  219.9300 C   0  0  0  0  0  0  0  0  0  0  0  0
  141.3690   74.7070  219.9390 C   0  0  0  0  0  0  0  0  0  0  0  0
  142.5240   75.4770  220.1260 C   0  0  0  0  0  0  0  0  0  0  0  0
  143.7780   74.9040  220.1390 C   0  0  0  0  0  0  0  0  0  0  0  0
  143.9410   73.5410  219.9680 C   0  0  0  0  0  0  0  0  0  0  0  0
  145.5480   72.8770  219.9970 S   0  0  0  0  0  0  0  0  0  0  0  0
  146.3360   73.3890  221.5050 C   0  0  0  0  0  0  0  0  0  0  0  0
  145.4390   71.3800  219.8880 O   0  0  0  0  0  0  0  0  0  0  0  0
  146.3390   73.4030  218.8420 O   0  0  0  0  0  0  0  0  0  0  0  0
  142.8020   72.7750  219.7820 C   0  0  0  0  0  0  0  0  0  0  0  0
  141.5550   73.3580  219.7710 C   0  0  0  0  0  0  0  0  0  0  0  0
  137.5750   72.2750  222.2520 C   0  0  0  0  0  0  0  0  0  0  0  0
  137.8770   71.5210  223.5670 C   0  0  0  0  0  0  0  0  0  0  0  0
  136.8055   67.9287  223.2222 H   0  0  0  0  0  0  0  0  0  0  0  0
  137.5440   68.6694  221.7619 H   0  0  0  0  0  0  0  0  0  0  0  0
  137.1069   66.9271  221.7619 H   0  0  0  0  0  0  0  0  0  0  0  0
  138.9208   66.3288  223.0970 H   0  0  0  0  0  0  0  0  0  0  0  0
  139.6146   67.7002  222.1412 H   0  0  0  0  0  0  0  0  0  0  0  0
  138.5404   69.0385  226.6659 H   0  0  0  0  0  0  0  0  0  0  0  0
  139.5365   70.0342  228.7416 H   0  0  0  0  0  0  0  0  0  0  0  0
  141.4030   71.6913  228.5310 H   0  0  0  0  0  0  0  0  0  0  0  0
  142.2544   72.3403  226.2900 H   0  0  0  0  0  0  0  0  0  0  0  0
  141.2601   71.3452  224.2341 H   0  0  0  0  0  0  0  0  0  0  0  0
  138.3647   69.7548  222.4594 H   0  0  0  0  0  0  0  0  0  0  0  0
  140.9336   70.6732  222.7480 H   0  0  0  0  0  0  0  0  0  0  0  0
  139.8248   70.8766  221.3224 H   0  0  0  0  0  0  0  0  0  0  0  0
  140.1343   72.8265  223.6331 H   0  0  0  0  0  0  0  0  0  0  0  0
  140.8376   73.0096  221.9907 H   0  0  0  0  0  0  0  0  0  0  0  0
  138.9498   76.4542  221.4397 H   0  0  0  0  0  0  0  0  0  0  0  0
  140.1730   75.6870  223.3130 H   0  0  0  0  0  0  0  0  0  0  0  0
  141.2150   76.2460  222.1030 H   0  0  0  0  0  0  0  0  0  0  0  0
  139.3865   74.8705  219.2805 H   0  0  0  0  0  0  0  0  0  0  0  0
  140.2577   76.4324  219.5550 H   0  0  0  0  0  0  0  0  0  0  0  0
  142.4284   76.5639  220.2657 H   0  0  0  0  0  0  0  0  0  0  0  0
  144.6626   75.5406  220.2877 H   0  0  0  0  0  0  0  0  0  0  0  0
  145.7605   73.0151  222.3647 H   0  0  0  0  0  0  0  0  0  0  0  0
  147.3570   72.9813  221.5420 H   0  0  0  0  0  0  0  0  0  0  0  0
  146.3783   74.4876  221.5420 H   0  0  0  0  0  0  0  0  0  0  0  0
  142.8950   71.6880  219.6414 H   0  0  0  0  0  0  0  0  0  0  0  0
  140.6733   72.7174  219.6217 H   0  0  0  0  0  0  0  0  0  0  0  0
  136.6561   72.8734  222.3387 H   0  0  0  0  0  0  0  0  0  0  0  0
  137.4044   71.6089  221.3934 H   0  0  0  0  0  0  0  0  0  0  0  0
  138.3193   72.1959  224.3146 H   0  0  0  0  0  0  0  0  0  0  0  0
  136.9751   71.1034  224.0384 H   0  0  0  0  0  0  0  0  0  0  0  0
  1  2  1  0
  2  3  1  0
  3  4  2  0
  3  5  1  0
  5  6  1  0
  6  7  2  0
  7  8  1  0
  8  9  2  0
  9 10  1  0
 10 11  2  0
  5 12  1  0
 12 13  1  0
 13 14  1  0
 14 15  1  0
 15 16  1  0
 16 17  2  0
 16 18  1  0
 18 19  1  0
 18 20  1  0
 20 21  1  0
 21 22  2  0
 22 23  1  0
 23 24  2  0
 24 25  1  0
 25 26  1  0
 25 27  2  0
 25 28  2  0
 24 29  1  0
 29 30  2  0
 15 31  1  0
 31 32  1  0
 11  6  1  0
 32 12  1  0
 30 21  1  0
  1 33  1  0
  1 34  1  0
  1 35  1  0
  2 36  1  0
  2 37  1  0
  7 38  1  0
  8 39  1  0
  9 40  1  0
 10 41  1  0
 11 42  1  0
 12 43  1  0
 13 44  1  0
 13 45  1  0
 14 46  1  0
 14 47  1  0
 18 48  1  6
 19 49  1  0
 19 50  1  0
 20 51  1  0
 20 52  1  0
 22 53  1  0
 23 54  1  0
 26 55  1  0
 26 56  1  0
 26 57  1  0
 29 58  1  0
 30 59  1  0
 31 60  1  0
 31 61  1  0
 32 62  1  0
 32 63  1  0
M  END
>  <smiles>  (40) 
CCC(=O)N(c1ccccc1)C1CCN(C(=O)[C@@H](N)Cc2ccc(S(C)(=O)=O)cc2)CC1

>  <score_type>  (40) 
oracle

>  <origin>  (40) 
autodockgpu

>  <m_score__min__energy>  (40) 
-8.8800000000000008

>  <m_primary>  (40) 
energy

>  <rmsd>  (40) 
7.0159387183911655

>  <m_score__min__rmsd>  (40) 
7.0159387183911655

>  <meeko>  (40) 
{"free_energy": -8.25, "intermolecular_energy": -10.93, "internal_energy": -1.79, "cluster_size": 5, "cluster_id": 1, "rank_in_cluster": 3}

>  <energy>  (40) 
-6.67

>  <cluster_rmsd>  (40) 
1.1

>  <cluster>  (40) 
5

$$$$

     RDKit          3D

 63 65  0  0  0  0  0  0  0  0999 V2000
  136.8010   67.7820  222.1890 C   0  0  0  0  0  0  0  0  0  0  0  0
  138.2830   67.4450  222.3000 C   0  0  0  0  0  0  0  0  0  0  0  0
  138.8720   67.9830  223.5800 C   0  0  0  0  0  0  0  0  0  0  0  0
  139.2510   67.1040  224.3960 O   0  0  0  0  0  0  0  0  0  0  0  0
  138.9740   69.3800  223.8070 N   0  0  0  0  0  0  0  0  0  0  0  0
  139.5760   69.7650  225.0710 C   0  0  0  0  0  0  0  0  0  0  0  0
  140.6410   70.6140  225.0570 C   0  0  0  0  0  0  0  0  0  0  0  0
  141.2170   70.9820  226.2690 C   0  0  0  0  0  0  0  0  0  0  0  0
  140.6870   70.4700  227.4620 C   0  0  0  0  0  0  0  0  0  0  0  0
  139.5980   69.6050  227.4330 C   0  0  0  0  0  0  0  0  0  0  0  0
  139.0250   69.2380  226.2370 C   0  0  0  0  0  0  0  0  0  0  0  0
  138.5480   70.4090  222.9200 C   0  0  0  0  0  0  0  0  0  0  0  0
  139.5640   70.8550  221.9420 C   0  0  0  0  0  0  0  0  0  0  0  0
  139.9670   72.2940  222.1510 C   0  0  0  0  0  0  0  0  0  0  0  0
  138.8130   73.1370  222.0150 N   0  0  0  0  0  0  0  0  0  0  0  0
  138.7630   74.4660  221.5730 C   0  0  0  0  0  0  0  0  0  0  0  0
  137.5910   75.0200  221.4990 O   0  0  0  0  0  0  0  0  0  0  0  0
  139.8650   75.3470  221.1730 C   0  0  1  0  0  0  0  0  0  0  0  0
  140.8860   75.4320  222.1640 N   0  0  0  0  0  0  0  0  0  0  0  0
  140.4280   74.8850  219.8220 C   0  0  0  0  0  0  0  0  0  0  0  0
  141.8420   74.5340  219.9300 C   0  0  0  0  0  0  0  0  0  0  0  0
  142.1610   73.1720  219.9880 C   0  0  0  0  0  0  0  0  0  0  0  0
  143.4660   72.7420  220.1020 C   0  0  0  0  0  0  0  0  0  0  0  0
  144.5120   73.6450  220.1610 C   0  0  0  0  0  0  0  0  0  0  0  0
  146.1370   73.0410  220.3020 S   0  0  0  0  0  0  0  0  0  0  0  0
  146.7040   73.3500  221.9580 C   0  0  0  0  0  0  0  0  0  0  0  0
  146.1240   71.5750  219.9660 O   0  0  0  0  0  0  0  0  0  0  0  0
  147.0340   73.7630  219.3480 O   0  0  0  0  0  0  0  0  0  0  0  0
  144.2010   74.9940  220.1040 C   0  0  0  0  0  0  0  0  0  0  0  0
  142.8950   75.4120  219.9910 C   0  0  0  0  0  0  0  0  0  0  0  0
  137.5260   72.5340  222.4270 C   0  0  0  0  0  0  0  0  0  0  0  0
  137.9450   71.6270  223.6060 C   0  0  0  0  0  0  0  0  0  0  0  0
  136.3707   67.8798  223.1966 H   0  0  0  0  0  0  0  0  0  0  0  0
  136.6804   68.7305  221.6451 H   0  0  0  0  0  0  0  0  0  0  0  0
  136.2821   66.9789  221.6451 H   0  0  0  0  0  0  0  0  0  0  0  0
  138.4045   66.3519  222.2811 H   0  0  0  0  0  0  0  0  0  0  0  0
  138.8094   67.9093  221.4531 H   0  0  0  0  0  0  0  0  0  0  0  0
  141.0377   71.0009  224.1068 H   0  0  0  0  0  0  0  0  0  0  0  0
  142.0779   71.6664  226.2910 H   0  0  0  0  0  0  0  0  0  0  0  0
  141.1347   70.7539  228.4258 H   0  0  0  0  0  0  0  0  0  0  0  0
  139.1908   69.2104  228.3756 H   0  0  0  0  0  0  0  0  0  0  0  0
  138.1641   68.5541  226.2028 H   0  0  0  0  0  0  0  0  0  0  0  0
  137.7501   69.8967  222.3624 H   0  0  0  0  0  0  0  0  0  0  0  0
  140.4560   70.2195  222.0438 H   0  0  0  0  0  0  0  0  0  0  0  0
  139.1237   70.7713  220.9374 H   0  0  0  0  0  0  0  0  0  0  0  0
  140.3920   72.4134  223.1585 H   0  0  0  0  0  0  0  0  0  0  0  0
  140.7196   72.5775  221.4005 H   0  0  0  0  0  0  0  0  0  0  0  0
  139.4638   76.3657  221.0668 H   0  0  0  0  0  0  0  0  0  0  0  0
  141.6620   76.0950  221.9390 H   0  0  0  0  0  0  0  0  0  0  0  0
  141.2650   74.5050  222.3600 H   0  0  0  0  0  0  0  0  0  0  0  0
  139.8647   74.0037  219.4813 H   0  0  0  0  0  0  0  0  0  0  0  0
  140.3286   75.7114  219.1028 H   0  0  0  0  0  0  0  0  0  0  0  0
  141.3521   72.4280  219.9416 H   0  0  0  0  0  0  0  0  0  0  0  0
  143.6787   71.6637  220.1467 H   0  0  0  0  0  0  0  0  0  0  0  0
  145.9725   72.9514  222.6764 H   0  0  0  0  0  0  0  0  0  0  0  0
  147.6750   72.8563  222.1112 H   0  0  0  0  0  0  0  0  0  0  0  0
  146.8154   74.4336  222.1112 H   0  0  0  0  0  0  0  0  0  0  0  0
  145.0081   75.7400  220.1497 H   0  0  0  0  0  0  0  0  0  0  0  0
  142.6869   76.4913  219.9479 H   0  0  0  0  0  0  0  0  0  0  0  0
  136.8118   73.3047  222.7525 H   0  0  0  0  0  0  0  0  0  0  0  0
  137.0156   71.9928  221.6167 H   0  0  0  0  0  0  0  0  0  0  0  0
  138.6889   72.1282  224.2427 H   0  0  0  0  0  0  0  0  0  0  0  0
  137.1061   71.3731  224.2706 H   0  0  0  0  0  0  0  0  0  0  0  0
  1  2  1  0
  2  3  1  0
  3  4  2  0
  3  5  1  0
  5  6  1  0
  6  7  2  0
  7  8  1  0
  8  9  2  0
  9 10  1  0
 10 11  2  0
  5 12  1  0
 12 13  1  0
 13 14  1  0
 14 15  1  0
 15 16  1  0
 16 17  2  0
 16 18  1  0
 18 19  1  0
 18 20  1  0
 20 21  1  0
 21 22  2  0
 22 23  1  0
 23 24  2  0
 24 25  1  0
 25 26  1  0
 25 27  2  0
 25 28  2  0
 24 29  1  0
 29 30  2  0
 15 31  1  0
 31 32  1  0
 11  6  1  0
 32 12  1  0
 30 21  1  0
  1 33  1  0
  1 34  1  0
  1 35  1  0
  2 36  1  0
  2 37  1  0
  7 38  1  0
  8 39  1  0
  9 40  1  0
 10 41  1  0
 11 42  1  0
 12 43  1  0
 13 44  1  0
 13 45  1  0
 14 46  1  0
 14 47  1  0
 18 48  1  6
 19 49  1  0
 19 50  1  0
 20 51  1  0
 20 52  1  0
 22 53  1  0
 23 54  1  0
 26 55  1  0
 26 56  1  0
 26 57  1  0
 29 58  1  0
 30 59  1  0
 31 60  1  0
 31 61  1  0
 32 62  1  0
 32 63  1  0
M  END
>  <smiles>  (41) 
CCC(=O)N(c1ccccc1)C1CCN(C(=O)[C@@H](N)Cc2ccc(S(C)(=O)=O)cc2)CC1

>  <score_type>  (41) 
oracle

>  <origin>  (41) 
autodockgpu

>  <m_score__min__energy>  (41) 
-8.8800000000000008

>  <m_primary>  (41) 
energy

>  <rmsd>  (41) 
6.999325548911838

>  <m_score__min__rmsd>  (41) 
6.999325548911838

>  <meeko>  (41) 
{"free_energy": -7.91, "intermolecular_energy": -10.59, "internal_energy": -1.9, "cluster_size": 5, "cluster_id": 1, "rank_in_cluster": 5}

>  <energy>  (41) 
-6.63

>  <cluster_rmsd>  (41) 
1.1

>  <cluster>  (41) 
5

$$$$

     RDKit          3D

 63 65  0  0  0  0  0  0  0  0999 V2000
  136.8040   77.5300  222.7230 C   0  0  0  0  0  0  0  0  0  0  0  0
  137.6170   78.7780  223.0420 C   0  0  0  0  0  0  0  0  0  0  0  0
  138.5730   79.1090  221.9240 C   0  0  0  0  0  0  0  0  0  0  0  0
  138.0970   79.8450  221.0220 O   0  0  0  0  0  0  0  0  0  0  0  0
  139.9010   78.6090  221.9260 N   0  0  0  0  0  0  0  0  0  0  0  0
  140.8870   79.4570  222.5720 C   0  0  0  0  0  0  0  0  0  0  0  0
  140.4610   80.3930  223.4660 C   0  0  0  0  0  0  0  0  0  0  0  0
  141.4070   81.2050  224.0840 C   0  0  0  0  0  0  0  0  0  0  0  0
  142.7630   81.0370  223.7690 C   0  0  0  0  0  0  0  0  0  0  0  0
  143.1560   80.0700  222.8490 C   0  0  0  0  0  0  0  0  0  0  0  0
  142.2250   79.2650  222.2360 C   0  0  0  0  0  0  0  0  0  0  0  0
  140.3360   77.3750  221.3650 C   0  0  0  0  0  0  0  0  0  0  0  0
  139.2970   76.6150  220.6360 C   0  0  0  0  0  0  0  0  0  0  0  0
  138.9840   75.2950  221.2950 C   0  0  0  0  0  0  0  0  0  0  0  0
  140.1730   74.4930  221.3450 N   0  0  0  0  0  0  0  0  0  0  0  0
  140.2730   73.0950  221.3220 C   0  0  0  0  0  0  0  0  0  0  0  0
  141.4680   72.5880  221.3420 O   0  0  0  0  0  0  0  0  0  0  0  0
  139.2010   72.0950  221.2800 C   0  0  1  0  0  0  0  0  0  0  0  0
  139.6910   70.7750  221.0590 N   0  0  0  0  0  0  0  0  0  0  0  0
  138.3670   72.1800  222.5650 C   0  0  0  0  0  0  0  0  0  0  0  0
  138.8720   71.2640  223.5840 C   0  0  0  0  0  0  0  0  0  0  0  0
  138.1380   70.0930  223.8140 C   0  0  0  0  0  0  0  0  0  0  0  0
  138.5290   69.1720  224.7620 C   0  0  0  0  0  0  0  0  0  0  0  0
  139.6660   69.3720  225.5250 C   0  0  0  0  0  0  0  0  0  0  0  0
  140.1090   68.1730  226.7040 S   0  0  0  0  0  0  0  0  0  0  0  0
  140.0300   68.9210  228.3150 C   0  0  0  0  0  0  0  0  0  0  0  0
  139.1660   67.0090  226.5670 O   0  0  0  0  0  0  0  0  0  0  0  0
  141.5090   67.7100  226.4600 O   0  0  0  0  0  0  0  0  0  0  0  0
  140.3940   70.5290  225.3020 C   0  0  0  0  0  0  0  0  0  0  0  0
  139.9950   71.4410  224.3520 C   0  0  0  0  0  0  0  0  0  0  0  0
  141.4450   75.2390  221.4700 C   0  0  0  0  0  0  0  0  0  0  0  0
  141.0390   76.4460  222.3450 C   0  0  0  0  0  0  0  0  0  0  0  0
  136.4897   77.0476  223.6603 H   0  0  0  0  0  0  0  0  0  0  0  0
  135.9150   77.8108  222.1392 H   0  0  0  0  0  0  0  0  0  0  0  0
  137.4201   76.8303  222.1392 H   0  0  0  0  0  0  0  0  0  0  0  0
  136.9307   79.6249  223.1893 H   0  0  0  0  0  0  0  0  0  0  0  0
  138.2016   78.5880  223.9542 H   0  0  0  0  0  0  0  0  0  0  0  0
  139.3908   80.5044  223.6945 H   0  0  0  0  0  0  0  0  0  0  0  0
  141.0949   81.9694  224.8108 H   0  0  0  0  0  0  0  0  0  0  0  0
  143.5198   81.6729  224.2516 H   0  0  0  0  0  0  0  0  0  0  0  0
  144.2227   79.9482  222.6096 H   0  0  0  0  0  0  0  0  0  0  0  0
  142.5257   78.4978  221.5073 H   0  0  0  0  0  0  0  0  0  0  0  0
  141.0746   77.7228  220.6278 H   0  0  0  0  0  0  0  0  0  0  0  0
  138.3780   77.2185  220.5991 H   0  0  0  0  0  0  0  0  0  0  0  0
  139.6806   76.4043  219.6268 H   0  0  0  0  0  0  0  0  0  0  0  0
  138.6181   75.4728  222.3170 H   0  0  0  0  0  0  0  0  0  0  0  0
  138.2106   74.7695  220.7156 H   0  0  0  0  0  0  0  0  0  0  0  0
  138.5572   72.3240  220.4180 H   0  0  0  0  0  0  0  0  0  0  0  0
  140.6890   70.7230  220.7540 H   0  0  0  0  0  0  0  0  0  0  0  0
  139.0960   70.2860  220.3900 H   0  0  0  0  0  0  0  0  0  0  0  0
  138.4104   73.2082  222.9536 H   0  0  0  0  0  0  0  0  0  0  0  0
  137.3306   71.8988  222.3268 H   0  0  0  0  0  0  0  0  0  0  0  0
  137.2287   69.9043  223.2244 H   0  0  0  0  0  0  0  0  0  0  0  0
  137.9277   68.2636  224.9145 H   0  0  0  0  0  0  0  0  0  0  0  0
  140.1124   68.1407  229.0860 H   0  0  0  0  0  0  0  0  0  0  0  0
  140.8575   69.6368  228.4279 H   0  0  0  0  0  0  0  0  0  0  0  0
  139.0712   69.4482  228.4279 H   0  0  0  0  0  0  0  0  0  0  0  0
  141.3025   70.7212  225.8917 H   0  0  0  0  0  0  0  0  0  0  0  0
  140.6001   72.3474  224.2025 H   0  0  0  0  0  0  0  0  0  0  0  0
  142.2160   74.6304  221.9651 H   0  0  0  0  0  0  0  0  0  0  0  0
  141.8825   75.5258  220.5024 H   0  0  0  0  0  0  0  0  0  0  0  0
  140.3574   76.1359  223.1508 H   0  0  0  0  0  0  0  0  0  0  0  0
  141.8963   76.9203  222.8451 H   0  0  0  0  0  0  0  0  0  0  0  0
  1  2  1  0
  2  3  1  0
  3  4  2  0
  3  5  1  0
  5  6  1  0
  6  7  2  0
  7  8  1  0
  8  9  2  0
  9 10  1  0
 10 11  2  0
  5 12  1  0
 12 13  1  0
 13 14  1  0
 14 15  1  0
 15 16  1  0
 16 17  2  0
 16 18  1  0
 18 19  1  0
 18 20  1  0
 20 21  1  0
 21 22  2  0
 22 23  1  0
 23 24  2  0
 24 25  1  0
 25 26  1  0
 25 27  2  0
 25 28  2  0
 24 29  1  0
 29 30  2  0
 15 31  1  0
 31 32  1  0
 11  6  1  0
 32 12  1  0
 30 21  1  0
  1 33  1  0
  1 34  1  0
  1 35  1  0
  2 36  1  0
  2 37  1  0
  7 38  1  0
  8 39  1  0
  9 40  1  0
 10 41  1  0
 11 42  1  0
 12 43  1  0
 13 44  1  0
 13 45  1  0
 14 46  1  0
 14 47  1  0
 18 48  1  6
 19 49  1  0
 19 50  1  0
 20 51  1  0
 20 52  1  0
 22 53  1  0
 23 54  1  0
 26 55  1  0
 26 56  1  0
 26 57  1  0
 29 58  1  0
 30 59  1  0
 31 60  1  0
 31 61  1  0
 32 62  1  0
 32 63  1  0
M  END
>  <smiles>  (42) 
CCC(=O)N(c1ccccc1)C1CCN(C(=O)[C@@H](N)Cc2ccc(S(C)(=O)=O)cc2)CC1

>  <score_type>  (42) 
oracle

>  <origin>  (42) 
autodockgpu

>  <m_score__min__energy>  (42) 
-8.8800000000000008

>  <m_primary>  (42) 
energy

>  <rmsd>  (42) 
5.950097688520543

>  <m_score__min__rmsd>  (42) 
5.950097688520543

>  <meeko>  (42) 
{"free_energy": -7.41, "intermolecular_energy": -10.09, "internal_energy": -2.4, "cluster_size": 11, "cluster_id": 4, "rank_in_cluster": 6}

>  <energy>  (42) 
-6.6

>  <cluster_rmsd>  (42) 
1.14

>  <cluster>  (42) 
5

$$$$

     RDKit          3D

 63 65  0  0  0  0  0  0  0  0999 V2000
  142.5660   81.2070  224.2050 C   0  0  0  0  0  0  0  0  0  0  0  0
  142.7090   80.4260  222.9050 C   0  0  0  0  0  0  0  0  0  0  0  0
  141.5690   80.7190  221.9620 C   0  0  0  0  0  0  0  0  0  0  0  0
  141.7510   81.7070  221.2060 O   0  0  0  0  0  0  0  0  0  0  0  0
  140.3990   79.9170  221.9590 N   0  0  0  0  0  0  0  0  0  0  0  0
  139.2700   80.4540  222.6990 C   0  0  0  0  0  0  0  0  0  0  0  0
  138.4120   81.2990  222.0610 C   0  0  0  0  0  0  0  0  0  0  0  0
  137.3320   81.8130  222.7720 C   0  0  0  0  0  0  0  0  0  0  0  0
  137.1600   81.4480  224.1140 C   0  0  0  0  0  0  0  0  0  0  0  0
  138.0600   80.5830  224.7280 C   0  0  0  0  0  0  0  0  0  0  0  0
  139.1300   80.0730  224.0300 C   0  0  0  0  0  0  0  0  0  0  0  0
  140.2420   78.6620  221.3040 C   0  0  0  0  0  0  0  0  0  0  0  0
  139.0350   77.8990  221.6900 C   0  0  0  0  0  0  0  0  0  0  0  0
  139.3750   76.6010  222.3800 C   0  0  0  0  0  0  0  0  0  0  0  0
  140.1600   75.7830  221.4990 N   0  0  0  0  0  0  0  0  0  0  0  0
  140.2200   74.3840  221.4450 C   0  0  0  0  0  0  0  0  0  0  0  0
  140.9820   73.8600  220.5330 O   0  0  0  0  0  0  0  0  0  0  0  0
  139.5350   73.3990  222.2870 C   0  0  1  0  0  0  0  0  0  0  0  0
  138.1180   73.4410  222.1390 N   0  0  0  0  0  0  0  0  0  0  0  0
  140.0920   71.9980  221.9970 C   0  0  0  0  0  0  0  0  0  0  0  0
  140.1150   71.1780  223.2050 C   0  0  0  0  0  0  0  0  0  0  0  0
  139.4360   69.9530  223.1620 C   0  0  0  0  0  0  0  0  0  0  0  0
  139.3930   69.1140  224.2550 C   0  0  0  0  0  0  0  0  0  0  0  0
  140.0210   69.4530  225.4400 C   0  0  0  0  0  0  0  0  0  0  0  0
  139.9330   68.3520  226.7830 S   0  0  0  0  0  0  0  0  0  0  0  0
  139.5480   69.2880  228.2450 C   0  0  0  0  0  0  0  0  0  0  0  0
  138.8850   67.3180  226.4750 O   0  0  0  0  0  0  0  0  0  0  0  0
  141.2530   67.6800  226.9800 O   0  0  0  0  0  0  0  0  0  0  0  0
  140.6930   70.6640  225.4880 C   0  0  0  0  0  0  0  0  0  0  0  0
  140.7300   71.4930  224.3910 C   0  0  0  0  0  0  0  0  0  0  0  0
  141.0370   76.5140  220.5570 C   0  0  0  0  0  0  0  0  0  0  0  0
  141.4580   77.7500  221.3840 C   0  0  0  0  0  0  0  0  0  0  0  0
  142.6910   80.5244  225.0585 H   0  0  0  0  0  0  0  0  0  0  0  0
  143.3353   81.9921  224.2476 H   0  0  0  0  0  0  0  0  0  0  0  0
  141.5684   81.6685  224.2476 H   0  0  0  0  0  0  0  0  0  0  0  0
  143.6559   80.7066  222.4206 H   0  0  0  0  0  0  0  0  0  0  0  0
  142.6966   79.3519  223.1419 H   0  0  0  0  0  0  0  0  0  0  0  0
  138.5699   81.5690  221.0064 H   0  0  0  0  0  0  0  0  0  0  0  0
  136.6214   82.4979  222.2863 H   0  0  0  0  0  0  0  0  0  0  0  0
  136.3089   81.8476  224.6849 H   0  0  0  0  0  0  0  0  0  0  0  0
  137.9146   80.3041  225.7821 H   0  0  0  0  0  0  0  0  0  0  0  0
  139.8483   79.3894  224.5063 H   0  0  0  0  0  0  0  0  0  0  0  0
  140.1160   78.9783  220.2580 H   0  0  0  0  0  0  0  0  0  0  0  0
  138.4304   78.5146  222.3723 H   0  0  0  0  0  0  0  0  0  0  0  0
  138.4815   77.6568  220.7708 H   0  0  0  0  0  0  0  0  0  0  0  0
  139.9492   76.8111  223.2944 H   0  0  0  0  0  0  0  0  0  0  0  0
  138.4476   76.0715  222.6435 H   0  0  0  0  0  0  0  0  0  0  0  0
  139.7338   73.6548  223.3382 H   0  0  0  0  0  0  0  0  0  0  0  0
  137.7800   73.9740  221.3060 H   0  0  0  0  0  0  0  0  0  0  0  0
  137.6860   73.8090  222.9880 H   0  0  0  0  0  0  0  0  0  0  0  0
  139.4576   71.5087  221.2433 H   0  0  0  0  0  0  0  0  0  0  0  0
  141.1228   72.1028  221.6276 H   0  0  0  0  0  0  0  0  0  0  0  0
  138.9255   69.6539  222.2347 H   0  0  0  0  0  0  0  0  0  0  0  0
  138.8506   68.1597  224.1837 H   0  0  0  0  0  0  0  0  0  0  0  0
  139.7930   68.6924  229.1368 H   0  0  0  0  0  0  0  0  0  0  0  0
  140.1371   70.2170  228.2513 H   0  0  0  0  0  0  0  0  0  0  0  0
  138.4758   69.5337  228.2513 H   0  0  0  0  0  0  0  0  0  0  0  0
  141.2030   70.9660  226.4147 H   0  0  0  0  0  0  0  0  0  0  0  0
  141.2739   72.4461  224.4672 H   0  0  0  0  0  0  0  0  0  0  0  0
  141.9105   75.9079  220.2750 H   0  0  0  0  0  0  0  0  0  0  0  0
  140.5448   76.7686  219.6068 H   0  0  0  0  0  0  0  0  0  0  0  0
  141.6725   77.4712  222.4262 H   0  0  0  0  0  0  0  0  0  0  0  0
  142.3756   78.2254  221.0071 H   0  0  0  0  0  0  0  0  0  0  0  0
  1  2  1  0
  2  3  1  0
  3  4  2  0
  3  5  1  0
  5  6  1  0
  6  7  2  0
  7  8  1  0
  8  9  2  0
  9 10  1  0
 10 11  2  0
  5 12  1  0
 12 13  1  0
 13 14  1  0
 14 15  1  0
 15 16  1  0
 16 17  2  0
 16 18  1  0
 18 19  1  0
 18 20  1  0
 20 21  1  0
 21 22  2  0
 22 23  1  0
 23 24  2  0
 24 25  1  0
 25 26  1  0
 25 27  2  0
 25 28  2  0
 24 29  1  0
 29 30  2  0
 15 31  1  0
 31 32  1  0
 11  6  1  0
 32 12  1  0
 30 21  1  0
  1 33  1  0
  1 34  1  0
  1 35  1  0
  2 36  1  0
  2 37  1  0
  7 38  1  0
  8 39  1  0
  9 40  1  0
 10 41  1  0
 11 42  1  0
 12 43  1  0
 13 44  1  0
 13 45  1  0
 14 46  1  0
 14 47  1  0
 18 48  1  1
 19 49  1  0
 19 50  1  0
 20 51  1  0
 20 52  1  0
 22 53  1  0
 23 54  1  0
 26 55  1  0
 26 56  1  0
 26 57  1  0
 29 58  1  0
 30 59  1  0
 31 60  1  0
 31 61  1  0
 32 62  1  0
 32 63  1  0
M  END
>  <smiles>  (43) 
CCC(=O)N(c1ccccc1)C1CCN(C(=O)[C@@H](N)Cc2ccc(S(C)(=O)=O)cc2)CC1

>  <score_type>  (43) 
oracle

>  <origin>  (43) 
autodockgpu

>  <m_score__min__energy>  (43) 
-8.8800000000000008

>  <m_primary>  (43) 
energy

>  <rmsd>  (43) 
5.22034740830695

>  <m_score__min__rmsd>  (43) 
5.22034740830695

>  <meeko>  (43) 
{"free_energy": -8.06, "intermolecular_energy": -10.74, "internal_energy": -1.67, "cluster_size": 6, "cluster_id": 2, "rank_in_cluster": 1}

>  <energy>  (43) 
-7.64

>  <cluster_rmsd>  (43) 
0.0

>  <cluster>  (43) 
6

$$$$

     RDKit          3D

 63 65  0  0  0  0  0  0  0  0999 V2000
  143.3180   80.5060  223.6820 C   0  0  0  0  0  0  0  0  0  0  0  0
  141.9110   81.0560  223.4850 C   0  0  0  0  0  0  0  0  0  0  0  0
  141.4900   80.9800  222.0390 C   0  0  0  0  0  0  0  0  0  0  0  0
  141.4960   82.0800  221.4290 O   0  0  0  0  0  0  0  0  0  0  0  0
  141.1260   79.7420  221.4480 N   0  0  0  0  0  0  0  0  0  0  0  0
  141.7050   79.4780  220.1430 C   0  0  0  0  0  0  0  0  0  0  0  0
  142.1230   78.2130  219.8560 C   0  0  0  0  0  0  0  0  0  0  0  0
  142.6780   77.9610  218.6060 C   0  0  0  0  0  0  0  0  0  0  0  0
  142.7910   79.0110  217.6840 C   0  0  0  0  0  0  0  0  0  0  0  0
  142.3530   80.2890  218.0160 C   0  0  0  0  0  0  0  0  0  0  0  0
  141.8040   80.5430  219.2520 C   0  0  0  0  0  0  0  0  0  0  0  0
  140.2630   78.7620  222.0160 C   0  0  0  0  0  0  0  0  0  0  0  0
  140.9460   77.6640  222.7340 C   0  0  0  0  0  0  0  0  0  0  0  0
  140.7290   76.3250  222.0730 C   0  0  0  0  0  0  0  0  0  0  0  0
  139.3250   76.0320  222.0370 N   0  0  0  0  0  0  0  0  0  0  0  0
  138.7050   74.7750  222.0630 C   0  0  0  0  0  0  0  0  0  0  0  0
  137.4070   74.7570  222.0560 O   0  0  0  0  0  0  0  0  0  0  0  0
  139.3200   73.4450  222.0940 C   0  0  1  0  0  0  0  0  0  0  0  0
  138.5120   72.4830  222.7680 N   0  0  0  0  0  0  0  0  0  0  0  0
  139.6550   72.9980  220.6650 C   0  0  0  0  0  0  0  0  0  0  0  0
  141.0950   73.0320  220.4240 C   0  0  0  0  0  0  0  0  0  0  0  0
  141.7620   71.8020  220.3550 C   0  0  0  0  0  0  0  0  0  0  0  0
  143.1230   71.7310  220.1420 C   0  0  0  0  0  0  0  0  0  0  0  0
  143.8810   72.8770  219.9870 C   0  0  0  0  0  0  0  0  0  0  0  0
  145.5920   72.7230  219.7180 S   0  0  0  0  0  0  0  0  0  0  0  0
  146.4390   73.6230  220.9960 C   0  0  0  0  0  0  0  0  0  0  0  0
  145.9380   71.2600  219.7240 O   0  0  0  0  0  0  0  0  0  0  0  0
  145.9570   73.3160  218.3950 O   0  0  0  0  0  0  0  0  0  0  0  0
  143.2260   74.0960  220.0550 C   0  0  0  0  0  0  0  0  0  0  0  0
  141.8670   74.1550  220.2680 C   0  0  0  0  0  0  0  0  0  0  0  0
  138.4280   77.2040  221.9240 C   0  0  0  0  0  0  0  0  0  0  0  0
  139.2510   78.1710  221.0440 C   0  0  0  0  0  0  0  0  0  0  0  0
  143.5317   80.4225  224.7578 H   0  0  0  0  0  0  0  0  0  0  0  0
  143.3921   79.5127  223.2152 H   0  0  0  0  0  0  0  0  0  0  0  0
  144.0461   81.1857  223.2152 H   0  0  0  0  0  0  0  0  0  0  0  0
  141.2082   80.4686  224.0941 H   0  0  0  0  0  0  0  0  0  0  0  0
  141.9049   82.1119  223.7931 H   0  0  0  0  0  0  0  0  0  0  0  0
  142.0234   77.4073  220.5983 H   0  0  0  0  0  0  0  0  0  0  0  0
  143.0240   76.9503  218.3440 H   0  0  0  0  0  0  0  0  0  0  0  0
  143.2285   78.8233  216.6924 H   0  0  0  0  0  0  0  0  0  0  0  0
  142.4464   81.1043  217.2835 H   0  0  0  0  0  0  0  0  0  0  0  0
  141.4563   81.5501  219.5258 H   0  0  0  0  0  0  0  0  0  0  0  0
  139.7182   79.3597  222.7617 H   0  0  0  0  0  0  0  0  0  0  0  0
  142.0252   77.8753  222.7591 H   0  0  0  0  0  0  0  0  0  0  0  0
  140.5232   77.6110  223.7481 H   0  0  0  0  0  0  0  0  0  0  0  0
  141.1240   76.3542  221.0468 H   0  0  0  0  0  0  0  0  0  0  0  0
  141.2522   75.5444  222.6448 H   0  0  0  0  0  0  0  0  0  0  0  0
  140.2510   73.5161  222.6755 H   0  0  0  0  0  0  0  0  0  0  0  0
  137.5760   72.8340  223.0750 H   0  0  0  0  0  0  0  0  0  0  0  0
  139.0170   72.0940  223.5650 H   0  0  0  0  0  0  0  0  0  0  0  0
  139.2905   71.9709  220.5158 H   0  0  0  0  0  0  0  0  0  0  0  0
  139.1680   73.6889  219.9611 H   0  0  0  0  0  0  0  0  0  0  0  0
  141.1873   70.8716  220.4734 H   0  0  0  0  0  0  0  0  0  0  0  0
  143.6130   70.7473  220.0947 H   0  0  0  0  0  0  0  0  0  0  0  0
  146.1028   73.2657  221.9805 H   0  0  0  0  0  0  0  0  0  0  0  0
  147.5232   73.4645  220.8991 H   0  0  0  0  0  0  0  0  0  0  0  0
  146.2151   74.6956  220.8991 H   0  0  0  0  0  0  0  0  0  0  0  0
  143.7986   75.0278  219.9374 H   0  0  0  0  0  0  0  0  0  0  0  0
  141.3815   75.1410  220.3149 H   0  0  0  0  0  0  0  0  0  0  0  0
  137.4794   76.9332  221.4373 H   0  0  0  0  0  0  0  0  0  0  0  0
  138.1409   77.6320  222.8958 H   0  0  0  0  0  0  0  0  0  0  0  0
  139.7566   77.6291  220.2312 H   0  0  0  0  0  0  0  0  0  0  0  0
  138.6315   78.9358  220.5528 H   0  0  0  0  0  0  0  0  0  0  0  0
  1  2  1  0
  2  3  1  0
  3  4  2  0
  3  5  1  0
  5  6  1  0
  6  7  2  0
  7  8  1  0
  8  9  2  0
  9 10  1  0
 10 11  2  0
  5 12  1  0
 12 13  1  0
 13 14  1  0
 14 15  1  0
 15 16  1  0
 16 17  2  0
 16 18  1  0
 18 19  1  0
 18 20  1  0
 20 21  1  0
 21 22  2  0
 22 23  1  0
 23 24  2  0
 24 25  1  0
 25 26  1  0
 25 27  2  0
 25 28  2  0
 24 29  1  0
 29 30  2  0
 15 31  1  0
 31 32  1  0
 11  6  1  0
 32 12  1  0
 30 21  1  0
  1 33  1  0
  1 34  1  0
  1 35  1  0
  2 36  1  0
  2 37  1  0
  7 38  1  0
  8 39  1  0
  9 40  1  0
 10 41  1  0
 11 42  1  0
 12 43  1  0
 13 44  1  0
 13 45  1  0
 14 46  1  0
 14 47  1  0
 18 48  1  1
 19 49  1  0
 19 50  1  0
 20 51  1  0
 20 52  1  0
 22 53  1  0
 23 54  1  0
 26 55  1  0
 26 56  1  0
 26 57  1  0
 29 58  1  0
 30 59  1  0
 31 60  1  0
 31 61  1  0
 32 62  1  0
 32 63  1  0
M  END
>  <smiles>  (44) 
CCC(=O)N(c1ccccc1)C1CCN(C(=O)[C@@H](N)Cc2ccc(S(C)(=O)=O)cc2)CC1

>  <score_type>  (44) 
oracle

>  <origin>  (44) 
autodockgpu

>  <m_score__min__energy>  (44) 
-8.8800000000000008

>  <m_primary>  (44) 
energy

>  <rmsd>  (44) 
4.432516873281645

>  <m_score__min__rmsd>  (44) 
4.432516873281645

>  <meeko>  (44) 
{"free_energy": -7.16, "intermolecular_energy": -9.84, "internal_energy": -2.5, "cluster_size": 19, "cluster_id": 5, "rank_in_cluster": 5}

>  <energy>  (44) 
-6.94

>  <cluster_rmsd>  (44) 
1.85

>  <cluster>  (44) 
6

$$$$

     RDKit          3D

 63 65  0  0  0  0  0  0  0  0999 V2000
  141.0990   82.8090  219.5760 C   0  0  0  0  0  0  0  0  0  0  0  0
  140.8420   81.6190  218.6590 C   0  0  0  0  0  0  0  0  0  0  0  0
  141.8170   80.5010  218.9270 C   0  0  0  0  0  0  0  0  0  0  0  0
  142.8710   80.5440  218.2430 O   0  0  0  0  0  0  0  0  0  0  0  0
  141.5300   79.4960  219.8870 N   0  0  0  0  0  0  0  0  0  0  0  0
  141.4220   79.9560  221.2600 C   0  0  0  0  0  0  0  0  0  0  0  0
  140.1840   80.2010  221.7740 C   0  0  0  0  0  0  0  0  0  0  0  0
  140.0830   80.6420  223.0900 C   0  0  0  0  0  0  0  0  0  0  0  0
  141.2520   80.8200  223.8430 C   0  0  0  0  0  0  0  0  0  0  0  0
  142.4980   80.5600  223.2810 C   0  0  0  0  0  0  0  0  0  0  0  0
  142.6030   80.1240  221.9800 C   0  0  0  0  0  0  0  0  0  0  0  0
  141.3400   78.1100  219.6220 C   0  0  0  0  0  0  0  0  0  0  0  0
  140.0190   77.5700  220.0120 C   0  0  0  0  0  0  0  0  0  0  0  0
  140.1240   76.5360  221.1060 C   0  0  0  0  0  0  0  0  0  0  0  0
  140.9380   75.4440  220.6540 N   0  0  0  0  0  0  0  0  0  0  0  0
  140.8620   74.0960  221.0320 C   0  0  0  0  0  0  0  0  0  0  0  0
  141.6880   73.2750  220.4590 O   0  0  0  0  0  0  0  0  0  0  0  0
  139.9680   73.4610  222.0050 C   0  0  1  0  0  0  0  0  0  0  0  0
  138.6760   74.0640  222.0370 N   0  0  0  0  0  0  0  0  0  0  0  0
  139.8810   71.9560  221.7190 C   0  0  0  0  0  0  0  0  0  0  0  0
  139.9670   71.1780  222.9520 C   0  0  0  0  0  0  0  0  0  0  0  0
  139.2700   69.9630  222.9920 C   0  0  0  0  0  0  0  0  0  0  0  0
  139.2820   69.1630  224.1150 C   0  0  0  0  0  0  0  0  0  0  0  0
  139.9860   69.5330  225.2470 C   0  0  0  0  0  0  0  0  0  0  0  0
  139.9640   68.4810  226.6320 S   0  0  0  0  0  0  0  0  0  0  0  0
  139.6130   69.4620  228.0710 C   0  0  0  0  0  0  0  0  0  0  0  0
  138.9260   67.4180  226.3970 O   0  0  0  0  0  0  0  0  0  0  0  0
  141.3030   67.8390  226.8060 O   0  0  0  0  0  0  0  0  0  0  0  0
  140.6760   70.7330  225.2120 C   0  0  0  0  0  0  0  0  0  0  0  0
  140.6580   71.5240  224.0850 C   0  0  0  0  0  0  0  0  0  0  0  0
  142.0100   75.7970  219.6960 C   0  0  0  0  0  0  0  0  0  0  0  0
  142.4330   77.2050  220.1730 C   0  0  0  0  0  0  0  0  0  0  0  0
  141.0291   82.4854  220.6250 H   0  0  0  0  0  0  0  0  0  0  0  0
  142.1046   83.2106  219.3824 H   0  0  0  0  0  0  0  0  0  0  0  0
  140.3488   83.5898  219.3824 H   0  0  0  0  0  0  0  0  0  0  0  0
  139.8193   81.2508  218.8277 H   0  0  0  0  0  0  0  0  0  0  0  0
  140.9696   81.9491  217.6175 H   0  0  0  0  0  0  0  0  0  0  0  0
  139.2827   80.0532  221.1610 H   0  0  0  0  0  0  0  0  0  0  0  0
  139.0979   80.8484  223.5339 H   0  0  0  0  0  0  0  0  0  0  0  0
  141.1838   81.1673  224.8845 H   0  0  0  0  0  0  0  0  0  0  0  0
  143.4077   80.7043  223.8823 H   0  0  0  0  0  0  0  0  0  0  0  0
  143.5828   79.9159  221.5254 H   0  0  0  0  0  0  0  0  0  0  0  0
  141.3961   78.0912  218.5236 H   0  0  0  0  0  0  0  0  0  0  0  0
  139.3889   78.3986  220.3675 H   0  0  0  0  0  0  0  0  0  0  0  0
  139.5803   77.0825  219.1288 H   0  0  0  0  0  0  0  0  0  0  0  0
  140.5814   76.9901  221.9974 H   0  0  0  0  0  0  0  0  0  0  0  0
  139.1196   76.1653  221.3585 H   0  0  0  0  0  0  0  0  0  0  0  0
  140.3953   73.6122  223.0073 H   0  0  0  0  0  0  0  0  0  0  0  0
  138.4920   74.7490  221.2700 H   0  0  0  0  0  0  0  0  0  0  0  0
  138.5160   74.5040  222.9440 H   0  0  0  0  0  0  0  0  0  0  0  0
  138.9226   71.7396  221.2244 H   0  0  0  0  0  0  0  0  0  0  0  0
  140.7242   71.6754  221.0707 H   0  0  0  0  0  0  0  0  0  0  0  0
  138.7007   69.6403  222.1079 H   0  0  0  0  0  0  0  0  0  0  0  0
  138.7230   68.2156  224.1108 H   0  0  0  0  0  0  0  0  0  0  0  0
  139.8236   68.8735  228.9762 H   0  0  0  0  0  0  0  0  0  0  0  0
  140.2447   70.3625  228.0639 H   0  0  0  0  0  0  0  0  0  0  0  0
  138.5534   69.7574  228.0639 H   0  0  0  0  0  0  0  0  0  0  0  0
  141.2454   71.0583  226.0952 H   0  0  0  0  0  0  0  0  0  0  0  0
  141.2195   72.4699  224.0938 H   0  0  0  0  0  0  0  0  0  0  0  0
  142.8483   75.0875  219.7581 H   0  0  0  0  0  0  0  0  0  0  0  0
  141.6864   75.7684  218.6451 H   0  0  0  0  0  0  0  0  0  0  0  0
  142.4676   77.2541  221.2714 H   0  0  0  0  0  0  0  0  0  0  0  0
  143.4385   77.4896  219.8296 H   0  0  0  0  0  0  0  0  0  0  0  0
  1  2  1  0
  2  3  1  0
  3  4  2  0
  3  5  1  0
  5  6  1  0
  6  7  2  0
  7  8  1  0
  8  9  2  0
  9 10  1  0
 10 11  2  0
  5 12  1  0
 12 13  1  0
 13 14  1  0
 14 15  1  0
 15 16  1  0
 16 17  2  0
 16 18  1  0
 18 19  1  0
 18 20  1  0
 20 21  1  0
 21 22  2  0
 22 23  1  0
 23 24  2  0
 24 25  1  0
 25 26  1  0
 25 27  2  0
 25 28  2  0
 24 29  1  0
 29 30  2  0
 15 31  1  0
 31 32  1  0
 11  6  1  0
 32 12  1  0
 30 21  1  0
  1 33  1  0
  1 34  1  0
  1 35  1  0
  2 36  1  0
  2 37  1  0
  7 38  1  0
  8 39  1  0
  9 40  1  0
 10 41  1  0
 11 42  1  0
 12 43  1  0
 13 44  1  0
 13 45  1  0
 14 46  1  0
 14 47  1  0
 18 48  1  1
 19 49  1  0
 19 50  1  0
 20 51  1  0
 20 52  1  0
 22 53  1  0
 23 54  1  0
 26 55  1  0
 26 56  1  0
 26 57  1  0
 29 58  1  0
 30 59  1  0
 31 60  1  0
 31 61  1  0
 32 62  1  0
 32 63  1  0
M  END
>  <smiles>  (45) 
CCC(=O)N(c1ccccc1)C1CCN(C(=O)[C@@H](N)Cc2ccc(S(C)(=O)=O)cc2)CC1

>  <score_type>  (45) 
oracle

>  <origin>  (45) 
autodockgpu

>  <m_score__min__energy>  (45) 
-8.8800000000000008

>  <m_primary>  (45) 
energy

>  <rmsd>  (45) 
5.280261885929044

>  <m_score__min__rmsd>  (45) 
5.280261885929044

>  <meeko>  (45) 
{"free_energy": -7.82, "intermolecular_energy": -10.5, "internal_energy": -1.67, "cluster_size": 6, "cluster_id": 2, "rank_in_cluster": 4}

>  <energy>  (45) 
-7.32

>  <cluster_rmsd>  (45) 
0.0

>  <cluster>  (45) 
7

$$$$

     RDKit          3D

 63 65  0  0  0  0  0  0  0  0999 V2000
  138.3350   81.4250  222.6960 C   0  0  0  0  0  0  0  0  0  0  0  0
  138.4520   80.3090  223.7270 C   0  0  0  0  0  0  0  0  0  0  0  0
  138.4340   78.9520  223.0690 C   0  0  0  0  0  0  0  0  0  0  0  0
  137.3250   78.3610  223.1100 O   0  0  0  0  0  0  0  0  0  0  0  0
  139.5990   78.4200  222.4600 N   0  0  0  0  0  0  0  0  0  0  0  0
  140.8270   79.1540  222.7120 C   0  0  0  0  0  0  0  0  0  0  0  0
  141.3470   79.1470  223.9710 C   0  0  0  0  0  0  0  0  0  0  0  0
  142.5230   79.8510  224.2100 C   0  0  0  0  0  0  0  0  0  0  0  0
  143.1340   80.5420  223.1540 C   0  0  0  0  0  0  0  0  0  0  0  0
  142.5700   80.5240  221.8830 C   0  0  0  0  0  0  0  0  0  0  0  0
  141.4070   79.8300  221.6410 C   0  0  0  0  0  0  0  0  0  0  0  0
  139.6640   77.2540  221.6460 C   0  0  0  0  0  0  0  0  0  0  0  0
  138.4120   76.4710  221.5680 C   0  0  0  0  0  0  0  0  0  0  0  0
  138.5590   75.0950  222.1700 C   0  0  0  0  0  0  0  0  0  0  0  0
  139.5820   74.3730  221.4690 N   0  0  0  0  0  0  0  0  0  0  0  0
  139.6810   72.9890  221.2710 C   0  0  0  0  0  0  0  0  0  0  0  0
  140.6860   72.5640  220.5680 O   0  0  0  0  0  0  0  0  0  0  0  0
  138.7970   71.9240  221.7550 C   0  0  1  0  0  0  0  0  0  0  0  0
  137.7700   71.5980  220.8210 N   0  0  0  0  0  0  0  0  0  0  0  0
  139.6330   70.6920  222.1270 C   0  0  0  0  0  0  0  0  0  0  0  0
  139.8980   70.6470  223.5630 C   0  0  0  0  0  0  0  0  0  0  0  0
  139.3930   69.5510  224.2740 C   0  0  0  0  0  0  0  0  0  0  0  0
  139.5820   69.4250  225.6340 C   0  0  0  0  0  0  0  0  0  0  0  0
  140.2810   70.3810  226.3480 C   0  0  0  0  0  0  0  0  0  0  0  0
  140.4890   70.1660  228.0610 S   0  0  0  0  0  0  0  0  0  0  0  0
  141.0720   68.5110  228.3480 C   0  0  0  0  0  0  0  0  0  0  0  0
  141.4580   71.2070  228.5510 O   0  0  0  0  0  0  0  0  0  0  0  0
  139.1790   70.3380  228.7600 O   0  0  0  0  0  0  0  0  0  0  0  0
  140.7820   71.4680  225.6490 C   0  0  0  0  0  0  0  0  0  0  0  0
  140.5880   71.5830  224.2920 C   0  0  0  0  0  0  0  0  0  0  0  0
  140.6830   75.1950  220.9180 C   0  0  0  0  0  0  0  0  0  0  0  0
  140.8200   76.3180  221.9720 C   0  0  0  0  0  0  0  0  0  0  0  0
  138.2337   82.3914  223.2116 H   0  0  0  0  0  0  0  0  0  0  0  0
  139.2367   81.4382  222.0661 H   0  0  0  0  0  0  0  0  0  0  0  0
  137.4502   81.2510  222.0661 H   0  0  0  0  0  0  0  0  0  0  0  0
  139.3966   80.4277  224.2781 H   0  0  0  0  0  0  0  0  0  0  0  0
  137.5924   80.3754  224.4101 H   0  0  0  0  0  0  0  0  0  0  0  0
  140.8476   78.5963  224.7817 H   0  0  0  0  0  0  0  0  0  0  0  0
  142.9683   79.8653  225.2158 H   0  0  0  0  0  0  0  0  0  0  0  0
  144.0644   81.1013  223.3319 H   0  0  0  0  0  0  0  0  0  0  0  0
  143.0587   81.0702  221.0628 H   0  0  0  0  0  0  0  0  0  0  0  0
  140.9523   79.8097  220.6396 H   0  0  0  0  0  0  0  0  0  0  0  0
  139.8442   77.6938  220.6540 H   0  0  0  0  0  0  0  0  0  0  0  0
  137.6222   77.0118  222.1100 H   0  0  0  0  0  0  0  0  0  0  0  0
  138.1575   76.3480  220.5049 H   0  0  0  0  0  0  0  0  0  0  0  0
  138.8360   75.1865  223.2306 H   0  0  0  0  0  0  0  0  0  0  0  0
  137.6050   74.5540  222.0855 H   0  0  0  0  0  0  0  0  0  0  0  0
  138.2801   72.2930  222.6532 H   0  0  0  0  0  0  0  0  0  0  0  0
  137.9720   71.8710  219.8330 H   0  0  0  0  0  0  0  0  0  0  0  0
  136.8820   72.0020  221.1200 H   0  0  0  0  0  0  0  0  0  0  0  0
  139.0842   69.7845  221.8348 H   0  0  0  0  0  0  0  0  0  0  0  0
  140.5951   70.7511  221.5971 H   0  0  0  0  0  0  0  0  0  0  0  0
  138.8327   68.7728  223.7350 H   0  0  0  0  0  0  0  0  0  0  0  0
  139.1704   68.5505  226.1592 H   0  0  0  0  0  0  0  0  0  0  0  0
  141.1366   68.3276  229.4307 H   0  0  0  0  0  0  0  0  0  0  0  0
  140.3729   67.7923  227.8954 H   0  0  0  0  0  0  0  0  0  0  0  0
  142.0672   68.3892  227.8954 H   0  0  0  0  0  0  0  0  0  0  0  0
  141.3415   72.2482  226.1859 H   0  0  0  0  0  0  0  0  0  0  0  0
  141.0019   72.4590  223.7711 H   0  0  0  0  0  0  0  0  0  0  0  0
  141.6119   74.6117  220.8352 H   0  0  0  0  0  0  0  0  0  0  0  0
  140.4864   75.5680  219.9020 H   0  0  0  0  0  0  0  0  0  0  0  0
  140.7242   75.9148  222.9909 H   0  0  0  0  0  0  0  0  0  0  0  0
  141.7989   76.8187  221.9400 H   0  0  0  0  0  0  0  0  0  0  0  0
  1  2  1  0
  2  3  1  0
  3  4  2  0
  3  5  1  0
  5  6  1  0
  6  7  2  0
  7  8  1  0
  8  9  2  0
  9 10  1  0
 10 11  2  0
  5 12  1  0
 12 13  1  0
 13 14  1  0
 14 15  1  0
 15 16  1  0
 16 17  2  0
 16 18  1  0
 18 19  1  0
 18 20  1  0
 20 21  1  0
 21 22  2  0
 22 23  1  0
 23 24  2  0
 24 25  1  0
 25 26  1  0
 25 27  2  0
 25 28  2  0
 24 29  1  0
 29 30  2  0
 15 31  1  0
 31 32  1  0
 11  6  1  0
 32 12  1  0
 30 21  1  0
  1 33  1  0
  1 34  1  0
  1 35  1  0
  2 36  1  0
  2 37  1  0
  7 38  1  0
  8 39  1  0
  9 40  1  0
 10 41  1  0
 11 42  1  0
 12 43  1  0
 13 44  1  0
 13 45  1  0
 14 46  1  0
 14 47  1  0
 18 48  1  1
 19 49  1  0
 19 50  1  0
 20 51  1  0
 20 52  1  0
 22 53  1  0
 23 54  1  0
 26 55  1  0
 26 56  1  0
 26 57  1  0
 29 58  1  0
 30 59  1  0
 31 60  1  0
 31 61  1  0
 32 62  1  0
 32 63  1  0
M  END
>  <smiles>  (46) 
CCC(=O)N(c1ccccc1)C1CCN(C(=O)[C@@H](N)Cc2ccc(S(C)(=O)=O)cc2)CC1

>  <score_type>  (46) 
oracle

>  <origin>  (46) 
autodockgpu

>  <m_score__min__energy>  (46) 
-8.8800000000000008

>  <m_primary>  (46) 
energy

>  <rmsd>  (46) 
6.334217776793821

>  <m_score__min__rmsd>  (46) 
6.334217776793821

>  <meeko>  (46) 
{"free_energy": -7.75, "intermolecular_energy": -10.44, "internal_energy": -1.67, "cluster_size": 11, "cluster_id": 4, "rank_in_cluster": 1}

>  <energy>  (46) 
-7.31

>  <cluster_rmsd>  (46) 
0.38

>  <cluster>  (46) 
7

$$$$

     RDKit          3D

 63 65  0  0  0  0  0  0  0  0999 V2000
  139.2510   67.5880  221.6840 C   0  0  0  0  0  0  0  0  0  0  0  0
  138.4740   67.3340  222.9700 C   0  0  0  0  0  0  0  0  0  0  0  0
  139.1100   68.0400  224.1410 C   0  0  0  0  0  0  0  0  0  0  0  0
  139.5480   67.2790  225.0420 O   0  0  0  0  0  0  0  0  0  0  0  0
  139.1900   69.4560  224.1860 N   0  0  0  0  0  0  0  0  0  0  0  0
  139.7710   70.0120  225.3950 C   0  0  0  0  0  0  0  0  0  0  0  0
  139.2870   69.6040  226.6010 C   0  0  0  0  0  0  0  0  0  0  0  0
  139.8440   70.1380  227.7590 C   0  0  0  0  0  0  0  0  0  0  0  0
  140.8820   71.0740  227.6490 C   0  0  0  0  0  0  0  0  0  0  0  0
  141.3480   71.4640  226.3970 C   0  0  0  0  0  0  0  0  0  0  0  0
  140.7990   70.9400  225.2500 C   0  0  0  0  0  0  0  0  0  0  0  0
  138.7610   70.3540  223.1670 C   0  0  0  0  0  0  0  0  0  0  0  0
  139.8360   70.8760  222.2960 C   0  0  0  0  0  0  0  0  0  0  0  0
  140.0110   72.3680  222.4350 C   0  0  0  0  0  0  0  0  0  0  0  0
  138.7870   73.0280  222.0800 N   0  0  0  0  0  0  0  0  0  0  0  0
  138.6240   74.3050  221.5250 C   0  0  0  0  0  0  0  0  0  0  0  0
  137.4110   74.6800  221.2530 O   0  0  0  0  0  0  0  0  0  0  0  0
  139.6450   75.3050  221.1990 C   0  0  1  0  0  0  0  0  0  0  0  0
  140.6760   75.3760  222.1820 N   0  0  0  0  0  0  0  0  0  0  0  0
  140.2150   75.0240  219.8030 C   0  0  0  0  0  0  0  0  0  0  0  0
  141.6090   74.5940  219.8770 C   0  0  0  0  0  0  0  0  0  0  0  0
  141.8600   73.2180  219.8130 C   0  0  0  0  0  0  0  0  0  0  0  0
  143.1410   72.7140  219.8850 C   0  0  0  0  0  0  0  0  0  0  0  0
  144.2310   73.5540  220.0240 C   0  0  0  0  0  0  0  0  0  0  0  0
  145.8230   72.8600  220.1080 S   0  0  0  0  0  0  0  0  0  0  0  0
  146.5500   73.3200  221.6630 C   0  0  0  0  0  0  0  0  0  0  0  0
  145.6930   71.3690  219.9560 O   0  0  0  0  0  0  0  0  0  0  0  0
  146.6750   73.4010  219.0040 O   0  0  0  0  0  0  0  0  0  0  0  0
  143.9880   74.9170  220.0890 C   0  0  0  0  0  0  0  0  0  0  0  0
  142.7050   75.4080  220.0150 C   0  0  0  0  0  0  0  0  0  0  0  0
  137.5460   72.2750  222.3700 C   0  0  0  0  0  0  0  0  0  0  0  0
  137.9110   71.5150  223.6650 C   0  0  0  0  0  0  0  0  0  0  0  0
  140.2699   67.9211  221.9309 H   0  0  0  0  0  0  0  0  0  0  0  0
  139.3011   66.6595  221.0964 H   0  0  0  0  0  0  0  0  0  0  0  0
  138.7430   68.3668  221.0964 H   0  0  0  0  0  0  0  0  0  0  0  0
  137.4447   67.7015  222.8456 H   0  0  0  0  0  0  0  0  0  0  0  0
  138.4786   66.2526  223.1714 H   0  0  0  0  0  0  0  0  0  0  0  0
  138.4722   68.8672  226.6584 H   0  0  0  0  0  0  0  0  0  0  0  0
  139.4746   69.8297  228.7482 H   0  0  0  0  0  0  0  0  0  0  0  0
  141.3306   71.5025  228.5574 H   0  0  0  0  0  0  0  0  0  0  0  0
  142.1635   72.1986  226.3241 H   0  0  0  0  0  0  0  0  0  0  0  0
  141.1585   71.2426  224.2554 H   0  0  0  0  0  0  0  0  0  0  0  0
  138.1256   69.6981  222.5538 H   0  0  0  0  0  0  0  0  0  0  0  0
  140.7812   70.3822  222.5659 H   0  0  0  0  0  0  0  0  0  0  0  0
  139.5565   70.6654  221.2531 H   0  0  0  0  0  0  0  0  0  0  0  0
  140.2704   72.6114  223.4759 H   0  0  0  0  0  0  0  0  0  0  0  0
  140.8172   72.7065  221.7676 H   0  0  0  0  0  0  0  0  0  0  0  0
  139.1627   76.2936  221.1972 H   0  0  0  0  0  0  0  0  0  0  0  0
  140.3510   75.6360  223.1410 H   0  0  0  0  0  0  0  0  0  0  0  0
  141.4090   76.0170  221.8770 H   0  0  0  0  0  0  0  0  0  0  0  0
  139.6201   74.2314  219.3257 H   0  0  0  0  0  0  0  0  0  0  0  0
  140.1682   75.9524  219.2149 H   0  0  0  0  0  0  0  0  0  0  0  0
  141.0149   72.5226  219.7027 H   0  0  0  0  0  0  0  0  0  0  0  0
  143.2988   71.6267  219.8310 H   0  0  0  0  0  0  0  0  0  0  0  0
  145.9331   72.9297  222.4859 H   0  0  0  0  0  0  0  0  0  0  0  0
  147.5637   72.8985  221.7328 H   0  0  0  0  0  0  0  0  0  0  0  0
  146.6032   74.4165  221.7328 H   0  0  0  0  0  0  0  0  0  0  0  0
  144.8311   75.6145  220.2011 H   0  0  0  0  0  0  0  0  0  0  0  0
  142.5517   76.4959  220.0686 H   0  0  0  0  0  0  0  0  0  0  0  0
  136.6974   72.9553  222.5341 H   0  0  0  0  0  0  0  0  0  0  0  0
  137.2312   71.6151  221.5481 H   0  0  0  0  0  0  0  0  0  0  0  0
  138.4846   72.1572  224.3496 H   0  0  0  0  0  0  0  0  0  0  0  0
  137.0280   71.1872  224.2332 H   0  0  0  0  0  0  0  0  0  0  0  0
  1  2  1  0
  2  3  1  0
  3  4  2  0
  3  5  1  0
  5  6  1  0
  6  7  2  0
  7  8  1  0
  8  9  2  0
  9 10  1  0
 10 11  2  0
  5 12  1  0
 12 13  1  0
 13 14  1  0
 14 15  1  0
 15 16  1  0
 16 17  2  0
 16 18  1  0
 18 19  1  0
 18 20  1  0
 20 21  1  0
 21 22  2  0
 22 23  1  0
 23 24  2  0
 24 25  1  0
 25 26  1  0
 25 27  2  0
 25 28  2  0
 24 29  1  0
 29 30  2  0
 15 31  1  0
 31 32  1  0
 11  6  1  0
 32 12  1  0
 30 21  1  0
  1 33  1  0
  1 34  1  0
  1 35  1  0
  2 36  1  0
  2 37  1  0
  7 38  1  0
  8 39  1  0
  9 40  1  0
 10 41  1  0
 11 42  1  0
 12 43  1  0
 13 44  1  0
 13 45  1  0
 14 46  1  0
 14 47  1  0
 18 48  1  6
 19 49  1  0
 19 50  1  0
 20 51  1  0
 20 52  1  0
 22 53  1  0
 23 54  1  0
 26 55  1  0
 26 56  1  0
 26 57  1  0
 29 58  1  0
 30 59  1  0
 31 60  1  0
 31 61  1  0
 32 62  1  0
 32 63  1  0
M  END
>  <smiles>  (47) 
CCC(=O)N(c1ccccc1)C1CCN(C(=O)[C@@H](N)Cc2ccc(S(C)(=O)=O)cc2)CC1

>  <score_type>  (47) 
oracle

>  <origin>  (47) 
autodockgpu

>  <m_score__min__energy>  (47) 
-8.8800000000000008

>  <m_primary>  (47) 
energy

>  <rmsd>  (47) 
7.047079044474208

>  <m_score__min__rmsd>  (47) 
7.047079044474208

>  <meeko>  (47) 
{"free_energy": -8.12, "intermolecular_energy": -10.81, "internal_energy": -1.87, "cluster_size": 5, "cluster_id": 1, "rank_in_cluster": 4}

>  <energy>  (47) 
-7.11

>  <cluster_rmsd>  (47) 
0.61

>  <cluster>  (47) 
7

$$$$

     RDKit          3D

 63 65  0  0  0  0  0  0  0  0999 V2000
  136.8290   81.5920  225.4770 C   0  0  0  0  0  0  0  0  0  0  0  0
  138.0430   80.8700  224.9050 C   0  0  0  0  0  0  0  0  0  0  0  0
  137.7920   80.4140  223.4900 C   0  0  0  0  0  0  0  0  0  0  0  0
  136.7230   80.8380  222.9810 O   0  0  0  0  0  0  0  0  0  0  0  0
  138.7160   79.5720  222.8190 N   0  0  0  0  0  0  0  0  0  0  0  0
  140.1170   79.9010  223.0120 C   0  0  0  0  0  0  0  0  0  0  0  0
  140.6260   80.9940  222.3780 C   0  0  0  0  0  0  0  0  0  0  0  0
  141.9680   81.3090  222.5640 C   0  0  0  0  0  0  0  0  0  0  0  0
  142.7520   80.4950  223.3940 C   0  0  0  0  0  0  0  0  0  0  0  0
  142.1940   79.3870  224.0230 C   0  0  0  0  0  0  0  0  0  0  0  0
  140.8680   79.0720  223.8420 C   0  0  0  0  0  0  0  0  0  0  0  0
  138.3910   78.4560  221.9950 C   0  0  0  0  0  0  0  0  0  0  0  0
  137.6140   77.3880  222.6610 C   0  0  0  0  0  0  0  0  0  0  0  0
  138.3820   76.0920  222.7490 C   0  0  0  0  0  0  0  0  0  0  0  0
  138.7180   75.6450  221.4270 N   0  0  0  0  0  0  0  0  0  0  0  0
  138.8890   74.3270  220.9800 C   0  0  0  0  0  0  0  0  0  0  0  0
  139.1590   74.1620  219.7200 O   0  0  0  0  0  0  0  0  0  0  0  0
  138.8110   73.0770  221.7420 C   0  0  1  0  0  0  0  0  0  0  0  0
  138.2680   72.0030  220.9790 N   0  0  0  0  0  0  0  0  0  0  0  0
  140.1970   72.7280  222.3010 C   0  0  0  0  0  0  0  0  0  0  0  0
  140.1180   71.6330  223.2650 C   0  0  0  0  0  0  0  0  0  0  0  0
  140.6940   71.8450  224.5230 C   0  0  0  0  0  0  0  0  0  0  0  0
  140.6790   70.8680  225.4960 C   0  0  0  0  0  0  0  0  0  0  0  0
  140.0900   69.6380  225.2630 C   0  0  0  0  0  0  0  0  0  0  0  0
  140.1010   68.4470  226.5300 S   0  0  0  0  0  0  0  0  0  0  0  0
  139.6620   69.2510  228.0540 C   0  0  0  0  0  0  0  0  0  0  0  0
  139.1320   67.3580  226.1590 O   0  0  0  0  0  0  0  0  0  0  0  0
  141.4710   67.8670  226.6740 O   0  0  0  0  0  0  0  0  0  0  0  0
  139.5190   69.4240  224.0190 C   0  0  0  0  0  0  0  0  0  0  0  0
  139.5390   70.4070  223.0560 C   0  0  0  0  0  0  0  0  0  0  0  0
  138.9410   76.7120  220.4270 C   0  0  0  0  0  0  0  0  0  0  0  0
  139.5800   77.8350  221.2740 C   0  0  0  0  0  0  0  0  0  0  0  0
  136.8715   81.5667  226.5759 H   0  0  0  0  0  0  0  0  0  0  0  0
  136.8287   82.6372  225.1340 H   0  0  0  0  0  0  0  0  0  0  0  0
  135.9105   81.0933  225.1340 H   0  0  0  0  0  0  0  0  0  0  0  0
  138.9041   81.5545  224.9136 H   0  0  0  0  0  0  0  0  0  0  0  0
  138.2443   79.9840  225.5250 H   0  0  0  0  0  0  0  0  0  0  0  0
  139.9884   81.6152  221.7318 H   0  0  0  0  0  0  0  0  0  0  0  0
  142.4086   82.1855  222.0663 H   0  0  0  0  0  0  0  0  0  0  0  0
  143.8145   80.7341  223.5486 H   0  0  0  0  0  0  0  0  0  0  0  0
  142.8198   78.7565  224.6717 H   0  0  0  0  0  0  0  0  0  0  0  0
  140.4170   78.1978  224.3343 H   0  0  0  0  0  0  0  0  0  0  0  0
  137.7373   78.9245  221.2445 H   0  0  0  0  0  0  0  0  0  0  0  0
  137.3591   77.7181  223.6789 H   0  0  0  0  0  0  0  0  0  0  0  0
  136.7108   77.2042  222.0606 H   0  0  0  0  0  0  0  0  0  0  0  0
  139.3038   76.2505  223.3279 H   0  0  0  0  0  0  0  0  0  0  0  0
  137.7627   75.3315  223.2472 H   0  0  0  0  0  0  0  0  0  0  0  0
  138.1143   73.2326  222.5789 H   0  0  0  0  0  0  0  0  0  0  0  0
  138.8690   71.1500  220.9310 H   0  0  0  0  0  0  0  0  0  0  0  0
  138.0390   72.3220  220.0360 H   0  0  0  0  0  0  0  0  0  0  0  0
  140.8536   72.4284  221.4708 H   0  0  0  0  0  0  0  0  0  0  0  0
  140.5991   73.6145  222.8133 H   0  0  0  0  0  0  0  0  0  0  0  0
  141.1694   72.8129  224.7403 H   0  0  0  0  0  0  0  0  0  0  0  0
  141.1427   71.0698  226.4729 H   0  0  0  0  0  0  0  0  0  0  0  0
  139.9975   68.6366  228.9025 H   0  0  0  0  0  0  0  0  0  0  0  0
  140.1468   70.2373  228.1011 H   0  0  0  0  0  0  0  0  0  0  0  0
  138.5702   69.3765  228.1011 H   0  0  0  0  0  0  0  0  0  0  0  0
  139.0439   68.4567  223.7983 H   0  0  0  0  0  0  0  0  0  0  0  0
  139.0727   70.2017  222.0811 H   0  0  0  0  0  0  0  0  0  0  0  0
  139.6234   76.3759  219.6324 H   0  0  0  0  0  0  0  0  0  0  0  0
  138.0238   77.0235  219.9058 H   0  0  0  0  0  0  0  0  0  0  0  0
  140.3038   77.4225  221.9923 H   0  0  0  0  0  0  0  0  0  0  0  0
  140.1416   78.5618  220.6687 H   0  0  0  0  0  0  0  0  0  0  0  0
  1  2  1  0
  2  3  1  0
  3  4  2  0
  3  5  1  0
  5  6  1  0
  6  7  2  0
  7  8  1  0
  8  9  2  0
  9 10  1  0
 10 11  2  0
  5 12  1  0
 12 13  1  0
 13 14  1  0
 14 15  1  0
 15 16  1  0
 16 17  2  0
 16 18  1  0
 18 19  1  0
 18 20  1  0
 20 21  1  0
 21 22  2  0
 22 23  1  0
 23 24  2  0
 24 25  1  0
 25 26  1  0
 25 27  2  0
 25 28  2  0
 24 29  1  0
 29 30  2  0
 15 31  1  0
 31 32  1  0
 11  6  1  0
 32 12  1  0
 30 21  1  0
  1 33  1  0
  1 34  1  0
  1 35  1  0
  2 36  1  0
  2 37  1  0
  7 38  1  0
  8 39  1  0
  9 40  1  0
 10 41  1  0
 11 42  1  0
 12 43  1  0
 13 44  1  0
 13 45  1  0
 14 46  1  0
 14 47  1  0
 18 48  1  1
 19 49  1  0
 19 50  1  0
 20 51  1  0
 20 52  1  0
 22 53  1  0
 23 54  1  0
 26 55  1  0
 26 56  1  0
 26 57  1  0
 29 58  1  0
 30 59  1  0
 31 60  1  0
 31 61  1  0
 32 62  1  0
 32 63  1  0
M  END
>  <smiles>  (48) 
CCC(=O)N(c1ccccc1)C1CCN(C(=O)[C@@H](N)Cc2ccc(S(C)(=O)=O)cc2)CC1

>  <score_type>  (48) 
oracle

>  <origin>  (48) 
autodockgpu

>  <m_score__min__energy>  (48) 
-8.8800000000000008

>  <m_primary>  (48) 
energy

>  <rmsd>  (48) 
5.556553490082632

>  <m_score__min__rmsd>  (48) 
5.556553490082632

>  <meeko>  (48) 
{"free_energy": -7.6, "intermolecular_energy": -10.28, "internal_energy": -2.18, "cluster_size": 11, "cluster_id": 4, "rank_in_cluster": 3}

>  <energy>  (48) 
-7.18

>  <cluster_rmsd>  (48) 
0.0

>  <cluster>  (48) 
8

$$$$

     RDKit          3D

 63 65  0  0  0  0  0  0  0  0999 V2000
  141.0510   67.7990  227.8120 C   0  0  0  0  0  0  0  0  0  0  0  0
  141.2630   67.6910  226.3070 C   0  0  0  0  0  0  0  0  0  0  0  0
  140.0230   68.0950  225.5490 C   0  0  0  0  0  0  0  0  0  0  0  0
  139.2490   67.1470  225.2600 O   0  0  0  0  0  0  0  0  0  0  0  0
  139.7850   69.4520  225.2080 N   0  0  0  0  0  0  0  0  0  0  0  0
  140.3110   70.4330  226.1410 C   0  0  0  0  0  0  0  0  0  0  0  0
  141.3250   71.2470  225.7330 C   0  0  0  0  0  0  0  0  0  0  0  0
  141.8280   72.1860  226.6280 C   0  0  0  0  0  0  0  0  0  0  0  0
  141.2800   72.2650  227.9160 C   0  0  0  0  0  0  0  0  0  0  0  0
  140.2460   71.4150  228.2940 C   0  0  0  0  0  0  0  0  0  0  0  0
  139.7450   70.4850  227.4120 C   0  0  0  0  0  0  0  0  0  0  0  0
  139.0930   69.9190  224.0550 C   0  0  0  0  0  0  0  0  0  0  0  0
  139.9420   70.1640  222.8690 C   0  0  0  0  0  0  0  0  0  0  0  0
  139.9640   71.6190  222.4710 C   0  0  0  0  0  0  0  0  0  0  0  0
  138.6300   72.0510  222.1640 N   0  0  0  0  0  0  0  0  0  0  0  0
  138.2320   73.0470  221.2620 C   0  0  0  0  0  0  0  0  0  0  0  0
  136.9550   73.2410  221.1230 O   0  0  0  0  0  0  0  0  0  0  0  0
  139.0620   73.9260  220.4330 C   0  0  1  0  0  0  0  0  0  0  0  0
  138.4100   75.1510  220.1090 N   0  0  0  0  0  0  0  0  0  0  0  0
  140.4080   74.1700  221.1300 C   0  0  0  0  0  0  0  0  0  0  0  0
  140.6060   75.5880  221.4160 C   0  0  0  0  0  0  0  0  0  0  0  0
  141.5230   76.2810  220.6160 C   0  0  0  0  0  0  0  0  0  0  0  0
  141.7860   77.6200  220.8150 C   0  0  0  0  0  0  0  0  0  0  0  0
  141.1490   78.3310  221.8160 C   0  0  0  0  0  0  0  0  0  0  0  0
  141.5200   80.0180  222.0160 S   0  0  0  0  0  0  0  0  0  0  0  0
  142.9450   80.1530  223.0710 C   0  0  0  0  0  0  0  0  0  0  0  0
  141.7590   80.6110  220.6550 O   0  0  0  0  0  0  0  0  0  0  0  0
  140.3730   80.7190  222.6710 O   0  0  0  0  0  0  0  0  0  0  0  0
  140.2410   77.6500  222.6100 C   0  0  0  0  0  0  0  0  0  0  0  0
  139.9860   76.3130  222.4020 C   0  0  0  0  0  0  0  0  0  0  0  0
  137.5490   71.3810  222.9210 C   0  0  0  0  0  0  0  0  0  0  0  0
  138.2090   71.1350  224.2970 C   0  0  0  0  0  0  0  0  0  0  0  0
  141.9127   67.3600  228.3361 H   0  0  0  0  0  0  0  0  0  0  0  0
  140.9513   68.8578  228.0932 H   0  0  0  0  0  0  0  0  0  0  0  0
  140.1359   67.2572  228.0932 H   0  0  0  0  0  0  0  0  0  0  0  0
  142.0931   68.3505  226.0137 H   0  0  0  0  0  0  0  0  0  0  0  0
  141.4936   66.6435  226.0629 H   0  0  0  0  0  0  0  0  0  0  0  0
  141.7374   71.1633  224.7167 H   0  0  0  0  0  0  0  0  0  0  0  0
  142.6457   72.8582  226.3287 H   0  0  0  0  0  0  0  0  0  0  0  0
  141.6701   73.0035  228.6318 H   0  0  0  0  0  0  0  0  0  0  0  0
  139.8247   71.4868  229.3076 H   0  0  0  0  0  0  0  0  0  0  0  0
  138.9276   69.8078  227.7005 H   0  0  0  0  0  0  0  0  0  0  0  0
  138.4449   69.0593  223.8293 H   0  0  0  0  0  0  0  0  0  0  0  0
  140.9694   69.8442  223.0974 H   0  0  0  0  0  0  0  0  0  0  0  0
  139.5203   69.5919  222.0294 H   0  0  0  0  0  0  0  0  0  0  0  0
  140.3622   72.2204  223.3015 H   0  0  0  0  0  0  0  0  0  0  0  0
  140.6040   71.7474  221.5856 H   0  0  0  0  0  0  0  0  0  0  0  0
  139.2401   73.4186  219.4734 H   0  0  0  0  0  0  0  0  0  0  0  0
  137.4490   75.2550  220.5050 H   0  0  0  0  0  0  0  0  0  0  0  0
  138.3860   75.2800  219.0970 H   0  0  0  0  0  0  0  0  0  0  0  0
  140.4299   73.6071  222.0748 H   0  0  0  0  0  0  0  0  0  0  0  0
  141.2129   73.8346  220.4595 H   0  0  0  0  0  0  0  0  0  0  0  0
  142.0456   75.7448  219.8102 H   0  0  0  0  0  0  0  0  0  0  0  0
  142.5139   78.1307  220.1674 H   0  0  0  0  0  0  0  0  0  0  0  0
  142.6263   80.1228  224.1234 H   0  0  0  0  0  0  0  0  0  0  0  0
  143.6298   79.3157  222.8711 H   0  0  0  0  0  0  0  0  0  0  0  0
  143.4604   81.1040  222.8711 H   0  0  0  0  0  0  0  0  0  0  0  0
  139.7172   78.1839  223.4166 H   0  0  0  0  0  0  0  0  0  0  0  0
  139.2569   75.8065  223.0515 H   0  0  0  0  0  0  0  0  0  0  0  0
  136.6664   72.0310  223.0137 H   0  0  0  0  0  0  0  0  0  0  0  0
  137.1804   70.4628  222.4404 H   0  0  0  0  0  0  0  0  0  0  0  0
  138.8102   72.0030  224.6055 H   0  0  0  0  0  0  0  0  0  0  0  0
  137.4758   70.9783  225.1019 H   0  0  0  0  0  0  0  0  0  0  0  0
  1  2  1  0
  2  3  1  0
  3  4  2  0
  3  5  1  0
  5  6  1  0
  6  7  2  0
  7  8  1  0
  8  9  2  0
  9 10  1  0
 10 11  2  0
  5 12  1  0
 12 13  1  0
 13 14  1  0
 14 15  1  0
 15 16  1  0
 16 17  2  0
 16 18  1  0
 18 19  1  0
 18 20  1  0
 20 21  1  0
 21 22  2  0
 22 23  1  0
 23 24  2  0
 24 25  1  0
 25 26  1  0
 25 27  2  0
 25 28  2  0
 24 29  1  0
 29 30  2  0
 15 31  1  0
 31 32  1  0
 11  6  1  0
 32 12  1  0
 30 21  1  0
  1 33  1  0
  1 34  1  0
  1 35  1  0
  2 36  1  0
  2 37  1  0
  7 38  1  0
  8 39  1  0
  9 40  1  0
 10 41  1  0
 11 42  1  0
 12 43  1  0
 13 44  1  0
 13 45  1  0
 14 46  1  0
 14 47  1  0
 18 48  1  6
 19 49  1  0
 19 50  1  0
 20 51  1  0
 20 52  1  0
 22 53  1  0
 23 54  1  0
 26 55  1  0
 26 56  1  0
 26 57  1  0
 29 58  1  0
 30 59  1  0
 31 60  1  0
 31 61  1  0
 32 62  1  0
 32 63  1  0
M  END
>  <smiles>  (49) 
CCC(=O)N(c1ccccc1)C1CCN(C(=O)[C@@H](N)Cc2ccc(S(C)(=O)=O)cc2)CC1

>  <score_type>  (49) 
oracle

>  <origin>  (49) 
autodockgpu

>  <m_score__min__energy>  (49) 
-8.8800000000000008

>  <m_primary>  (49) 
energy

>  <rmsd>  (49) 
7.820908338856601

>  <m_score__min__rmsd>  (49) 
7.820908338856601

>  <meeko>  (49) 
{"free_energy": -7.83, "intermolecular_energy": -10.52, "internal_energy": -2.21, "cluster_size": 1, "cluster_id": 3, "rank_in_cluster": 1}

>  <energy>  (49) 
-6.33

>  <cluster_rmsd>  (49) 
0.0

>  <cluster>  (49) 
9

$$$$

     RDKit          3D

 63 65  0  0  0  0  0  0  0  0999 V2000
  143.3460   80.2450  223.2030 C   0  0  0  0  0  0  0  0  0  0  0  0
  142.1160   79.5690  223.7970 C   0  0  0  0  0  0  0  0  0  0  0  0
  140.8560   80.0180  223.1010 C   0  0  0  0  0  0  0  0  0  0  0  0
  140.0200   80.5960  223.8430 O   0  0  0  0  0  0  0  0  0  0  0  0
  140.6660   79.7870  221.7140 N   0  0  0  0  0  0  0  0  0  0  0  0
  140.9100   80.9300  220.8510 C   0  0  0  0  0  0  0  0  0  0  0  0
  141.5750   80.7340  219.6780 C   0  0  0  0  0  0  0  0  0  0  0  0
  141.8090   81.8290  218.8530 C   0  0  0  0  0  0  0  0  0  0  0  0
  141.3560   83.0950  219.2520 C   0  0  0  0  0  0  0  0  0  0  0  0
  140.6810   83.2520  220.4580 C   0  0  0  0  0  0  0  0  0  0  0  0
  140.4480   82.1720  221.2770 C   0  0  0  0  0  0  0  0  0  0  0  0
  140.2680   78.5590  221.1130 C   0  0  0  0  0  0  0  0  0  0  0  0
  139.1640   77.8520  221.7980 C   0  0  0  0  0  0  0  0  0  0  0  0
  139.5990   76.5210  222.3600 C   0  0  0  0  0  0  0  0  0  0  0  0
  140.0740   75.6850  221.2940 N   0  0  0  0  0  0  0  0  0  0  0  0
  140.0360   74.2860  221.2130 C   0  0  0  0  0  0  0  0  0  0  0  0
  140.4980   73.7450  220.1260 O   0  0  0  0  0  0  0  0  0  0  0  0
  139.5430   73.3180  222.1970 C   0  0  1  0  0  0  0  0  0  0  0  0
  138.1240   73.1870  222.1740 N   0  0  0  0  0  0  0  0  0  0  0  0
  140.2380   71.9670  221.9840 C   0  0  0  0  0  0  0  0  0  0  0  0
  140.2160   71.1630  223.2030 C   0  0  0  0  0  0  0  0  0  0  0  0
  139.5280   69.9430  223.1530 C   0  0  0  0  0  0  0  0  0  0  0  0
  139.4410   69.1190  224.2550 C   0  0  0  0  0  0  0  0  0  0  0  0
  140.0350   69.4680  225.4550 C   0  0  0  0  0  0  0  0  0  0  0  0
  139.8930   68.3860  226.8090 S   0  0  0  0  0  0  0  0  0  0  0  0
  139.4700   69.3430  228.2450 C   0  0  0  0  0  0  0  0  0  0  0  0
  138.8470   67.3560  226.4790 O   0  0  0  0  0  0  0  0  0  0  0  0
  141.2010   67.7050  227.0570 O   0  0  0  0  0  0  0  0  0  0  0  0
  140.7160   70.6730  225.5090 C   0  0  0  0  0  0  0  0  0  0  0  0
  140.7960   71.4880  224.4030 C   0  0  0  0  0  0  0  0  0  0  0  0
  140.7110   76.3910  220.1600 C   0  0  0  0  0  0  0  0  0  0  0  0
  141.4070   77.5820  220.8580 C   0  0  0  0  0  0  0  0  0  0  0  0
  143.9961   80.6023  224.0152 H   0  0  0  0  0  0  0  0  0  0  0  0
  143.8974   79.5232  222.5826 H   0  0  0  0  0  0  0  0  0  0  0  0
  143.0322   81.0974  222.5826 H   0  0  0  0  0  0  0  0  0  0  0  0
  142.2175   78.4792  223.6870 H   0  0  0  0  0  0  0  0  0  0  0  0
  142.0449   79.8473  224.8588 H   0  0  0  0  0  0  0  0  0  0  0  0
  141.9198   79.7301  219.3894 H   0  0  0  0  0  0  0  0  0  0  0  0
  142.3428   81.7037  217.8994 H   0  0  0  0  0  0  0  0  0  0  0  0
  141.5355   83.9684  218.6078 H   0  0  0  0  0  0  0  0  0  0  0  0
  140.3300   84.2499  220.7597 H   0  0  0  0  0  0  0  0  0  0  0  0
  139.9163   82.2855  222.2332 H   0  0  0  0  0  0  0  0  0  0  0  0
  139.8871   78.9074  220.1417 H   0  0  0  0  0  0  0  0  0  0  0  0
  138.7981   78.4817  222.6224 H   0  0  0  0  0  0  0  0  0  0  0  0
  138.3739   77.6626  221.0565 H   0  0  0  0  0  0  0  0  0  0  0  0
  140.4060   76.6775  223.0910 H   0  0  0  0  0  0  0  0  0  0  0  0
  138.7455   76.0350  222.8554 H   0  0  0  0  0  0  0  0  0  0  0  0
  139.7931   73.6965  223.1991 H   0  0  0  0  0  0  0  0  0  0  0  0
  137.6400   73.7760  221.4590 H   0  0  0  0  0  0  0  0  0  0  0  0
  137.7370   73.3750  223.1000 H   0  0  0  0  0  0  0  0  0  0  0  0
  139.7193   71.4191  221.1835 H   0  0  0  0  0  0  0  0  0  0  0  0
  141.2866   72.1545  221.7096 H   0  0  0  0  0  0  0  0  0  0  0  0
  139.0464   69.6358  222.2130 H   0  0  0  0  0  0  0  0  0  0  0  0
  138.8909   68.1695  224.1791 H   0  0  0  0  0  0  0  0  0  0  0  0
  139.7216   68.7739  229.1521 H   0  0  0  0  0  0  0  0  0  0  0  0
  140.0348   70.2869  228.2360 H   0  0  0  0  0  0  0  0  0  0  0  0
  138.3918   69.5607  228.2360 H   0  0  0  0  0  0  0  0  0  0  0  0
  141.1989   70.9823  226.4477 H   0  0  0  0  0  0  0  0  0  0  0  0
  141.3464   72.4369  224.4843 H   0  0  0  0  0  0  0  0  0  0  0  0
  141.4420   75.7463  219.6501 H   0  0  0  0  0  0  0  0  0  0  0  0
  140.0006   76.6949  219.3771 H   0  0  0  0  0  0  0  0  0  0  0  0
  141.8732   77.2662  221.8030 H   0  0  0  0  0  0  0  0  0  0  0  0
  142.2182   78.0172  220.2558 H   0  0  0  0  0  0  0  0  0  0  0  0
  1  2  1  0
  2  3  1  0
  3  4  2  0
  3  5  1  0
  5  6  1  0
  6  7  2  0
  7  8  1  0
  8  9  2  0
  9 10  1  0
 10 11  2  0
  5 12  1  0
 12 13  1  0
 13 14  1  0
 14 15  1  0
 15 16  1  0
 16 17  2  0
 16 18  1  0
 18 19  1  0
 18 20  1  0
 20 21  1  0
 21 22  2  0
 22 23  1  0
 23 24  2  0
 24 25  1  0
 25 26  1  0
 25 27  2  0
 25 28  2  0
 24 29  1  0
 29 30  2  0
 15 31  1  0
 31 32  1  0
 11  6  1  0
 32 12  1  0
 30 21  1  0
  1 33  1  0
  1 34  1  0
  1 35  1  0
  2 36  1  0
  2 37  1  0
  7 38  1  0
  8 39  1  0
  9 40  1  0
 10 41  1  0
 11 42  1  0
 12 43  1  0
 13 44  1  0
 13 45  1  0
 14 46  1  0
 14 47  1  0
 18 48  1  1
 19 49  1  0
 19 50  1  0
 20 51  1  0
 20 52  1  0
 22 53  1  0
 23 54  1  0
 26 55  1  0
 26 56  1  0
 26 57  1  0
 29 58  1  0
 30 59  1  0
 31 60  1  0
 31 61  1  0
 32 62  1  0
 32 63  1  0
M  END
>  <smiles>  (50) 
CCC(=O)N(c1ccccc1)C1CCN(C(=O)[C@@H](N)Cc2ccc(S(C)(=O)=O)cc2)CC1

>  <score_type>  (50) 
oracle

>  <origin>  (50) 
autodockgpu

>  <m_score__min__energy>  (50) 
-8.8800000000000008

>  <m_primary>  (50) 
energy

>  <rmsd>  (50) 
5.280250002275105

>  <m_score__min__rmsd>  (50) 
5.280250002275105

>  <meeko>  (50) 
{"free_energy": -7.75, "intermolecular_energy": -10.43, "internal_energy": -1.7, "cluster_size": 6, "cluster_id": 2, "rank_in_cluster": 5}

>  <energy>  (50) 
-6.09

>  <cluster_rmsd>  (50) 
0.0

>  <cluster>  (50) 
10

$$$$
