
     RDKit          3D

 59 62  0  0  0  0  0  0  0  0999 V2000
  133.8320   70.1240  226.4610 O   0  0  0  0  0  0  0  0  0  0  0  0
  134.1270   71.2570  226.0100 C   0  0  0  0  0  0  0  0  0  0  0  0
  135.1270   71.4850  225.0310 N   0  0  0  0  0  0  0  0  0  0  0  0
  135.9020   70.3670  224.4700 C   0  0  0  0  0  0  0  0  0  0  0  0
  137.1350   70.9340  223.8680 C   0  0  0  0  0  0  0  0  0  0  0  0
  137.0530   71.9590  223.1300 O   0  0  0  0  0  0  0  0  0  0  0  0
  138.3970   70.3350  224.1180 N   0  0  0  0  0  0  0  0  0  0  0  0
  138.6350   68.9030  223.9810 C   0  0  0  0  0  0  0  0  0  0  0  0
  138.9650   68.3460  225.3520 C   0  0  0  0  0  0  0  0  0  0  0  0
  139.5040   69.4300  226.2670 C   0  0  0  0  0  0  0  0  0  0  0  0
  140.3790   70.3240  225.4490 C   0  0  0  0  0  0  0  0  0  0  0  0
  139.5230   71.1490  224.5290 C   0  0  1  0  0  0  0  0  0  0  0  0
  140.3640   71.5800  223.3480 C   0  0  0  0  0  0  0  0  0  0  0  0
  139.9720   72.9220  223.0030 N   0  0  0  0  0  0  0  0  0  0  0  0
  140.3580   73.2550  221.6300 C   0  0  0  0  0  0  0  0  0  0  0  0
  140.5720   74.7230  221.5270 C   0  0  0  0  0  0  0  0  0  0  0  0
  141.5320   75.1620  220.6110 C   0  0  0  0  0  0  0  0  0  0  0  0
  141.7550   76.5140  220.4930 C   0  0  0  0  0  0  0  0  0  0  0  0
  141.0670   77.4420  221.2420 C   0  0  0  0  0  0  0  0  0  0  0  0
  140.1140   77.0000  222.1510 C   0  0  0  0  0  0  0  0  0  0  0  0
  139.8770   75.6420  222.2840 C   0  0  0  0  0  0  0  0  0  0  0  0
  133.4050   72.4370  226.5120 C   0  0  0  0  0  0  0  0  0  0  0  0
  132.1750   72.2820  227.1480 C   0  0  0  0  0  0  0  0  0  0  0  0
  131.4690   73.3820  227.6330 C   0  0  0  0  0  0  0  0  0  0  0  0
  131.9880   74.6420  227.4850 C   0  0  0  0  0  0  0  0  0  0  0  0
  131.3280   75.7730  227.9490 C   0  0  0  0  0  0  0  0  0  0  0  0
  131.9270   77.0070  227.7570 C   0  0  0  0  0  0  0  0  0  0  0  0
  131.1450   78.4920  228.3210 Cl  0  0  0  0  0  0  0  0  0  0  0  0
  133.1420   77.1660  227.1290 C   0  0  0  0  0  0  0  0  0  0  0  0
  133.7720   76.0140  226.6800 C   0  0  0  0  0  0  0  0  0  0  0  0
  133.2080   74.7550  226.8510 C   0  0  0  0  0  0  0  0  0  0  0  0
  133.8790   73.6830  226.3880 N   0  0  0  0  0  0  0  0  0  0  0  0
  135.3300   72.4650  224.6920 H   0  0  0  0  0  0  0  0  0  0  0  0
  136.1661   69.6563  225.2670 H   0  0  0  0  0  0  0  0  0  0  0  0
  135.3130   69.8303  223.7117 H   0  0  0  0  0  0  0  0  0  0  0  0
  137.7336   68.4115  223.5862 H   0  0  0  0  0  0  0  0  0  0  0  0
  139.4674   68.7203  223.2855 H   0  0  0  0  0  0  0  0  0  0  0  0
  138.0527   67.9216  225.7965 H   0  0  0  0  0  0  0  0  0  0  0  0
  139.7363   67.5702  225.2374 H   0  0  0  0  0  0  0  0  0  0  0  0
  138.6711   70.0089  226.6927 H   0  0  0  0  0  0  0  0  0  0  0  0
  140.0756   68.9852  227.0949 H   0  0  0  0  0  0  0  0  0  0  0  0
  140.9500   70.9884  226.1142 H   0  0  0  0  0  0  0  0  0  0  0  0
  141.0771   69.7149  224.8560 H   0  0  0  0  0  0  0  0  0  0  0  0
  139.1413   72.0537  225.0248 H   0  0  0  0  0  0  0  0  0  0  0  0
  141.4300   71.5581  223.6184 H   0  0  0  0  0  0  0  0  0  0  0  0
  140.2115   70.9012  222.4960 H   0  0  0  0  0  0  0  0  0  0  0  0
  138.9280   73.0360  223.0770 H   0  0  0  0  0  0  0  0  0  0  0  0
  141.2882   72.7281  221.3708 H   0  0  0  0  0  0  0  0  0  0  0  0
  139.5618   72.9470  220.9363 H   0  0  0  0  0  0  0  0  0  0  0  0
  142.0960   74.4430  219.9987 H   0  0  0  0  0  0  0  0  0  0  0  0
  142.5099   76.8664  219.7747 H   0  0  0  0  0  0  0  0  0  0  0  0
  141.2688   78.5167  221.1225 H   0  0  0  0  0  0  0  0  0  0  0  0
  139.5520   77.7230  222.7604 H   0  0  0  0  0  0  0  0  0  0  0  0
  139.1231   75.2915  223.0043 H   0  0  0  0  0  0  0  0  0  0  0  0
  131.7533   71.2733  227.2696 H   0  0  0  0  0  0  0  0  0  0  0  0
  130.4993   73.2393  228.1324 H   0  0  0  0  0  0  0  0  0  0  0  0
  130.3551   75.6906  228.4557 H   0  0  0  0  0  0  0  0  0  0  0  0
  133.5923   78.1599  226.9897 H   0  0  0  0  0  0  0  0  0  0  0  0
  134.7452   76.0995  226.1745 H   0  0  0  0  0  0  0  0  0  0  0  0
  1  2  2  0
  2  3  1  0
  3  4  1  0
  4  5  1  0
  5  6  2  0
  5  7  1  0
  7  8  1  0
  8  9  1  0
  9 10  1  0
 10 11  1  0
 11 12  1  0
 12 13  1  0
 13 14  1  0
 14 15  1  0
 15 16  1  0
 16 17  2  0
 17 18  1  0
 18 19  2  0
 19 20  1  0
 20 21  2  0
  2 22  1  0
 22 23  2  0
 23 24  1  0
 24 25  2  0
 25 26  1  0
 26 27  2  0
 27 28  1  0
 27 29  1  0
 29 30  2  0
 30 31  1  0
 31 32  2  0
 12  7  1  0
 21 16  1  0
 32 22  1  0
 31 25  1  0
  3 33  1  0
  4 34  1  0
  4 35  1  0
  8 36  1  0
  8 37  1  0
  9 38  1  0
  9 39  1  0
 10 40  1  0
 10 41  1  0
 11 42  1  0
 11 43  1  0
 12 44  1  1
 13 45  1  0
 13 46  1  0
 14 47  1  0
 15 48  1  0
 15 49  1  0
 17 50  1  0
 18 51  1  0
 19 52  1  0
 20 53  1  0
 21 54  1  0
 23 55  1  0
 24 56  1  0
 26 57  1  0
 29 58  1  0
 30 59  1  0
M  END
>  <smiles>  (1) 
O=C(NCC(=O)N1CCCC[C@H]1CNCc1ccccc1)c1ccc2cc(Cl)ccc2n1

>  <score_type>  (1) 
oracle

>  <origin>  (1) 
autodockgpu

>  <m_score__min__energy>  (1) 
-9.4000000000000004

>  <m_primary>  (1) 
energy

>  <rmsd>  (1) 
8.094411842973178

>  <m_score__min__rmsd>  (1) 
8.094411842973178

>  <meeko>  (1) 
{"free_energy": -8.43, "intermolecular_energy": -10.82, "internal_energy": -2.61, "cluster_size": 3, "cluster_id": 5, "rank_in_cluster": 3}

>  <energy>  (1) 
-9.4

>  <cluster_rmsd>  (1) 
0.0

>  <cluster>  (1) 
1

$$$$

     RDKit          3D

 59 62  0  0  0  0  0  0  0  0999 V2000
  140.0420   74.1760  222.1290 O   0  0  0  0  0  0  0  0  0  0  0  0
  140.2040   72.9570  221.8780 C   0  0  0  0  0  0  0  0  0  0  0  0
  140.4470   72.4400  220.5790 N   0  0  0  0  0  0  0  0  0  0  0  0
  140.5230   73.3340  219.4140 C   0  0  0  0  0  0  0  0  0  0  0  0
  141.4960   74.4080  219.7370 C   0  0  0  0  0  0  0  0  0  0  0  0
  142.3990   74.1920  220.5980 O   0  0  0  0  0  0  0  0  0  0  0  0
  141.4180   75.6670  219.0860 N   0  0  0  0  0  0  0  0  0  0  0  0
  140.4220   75.9710  218.0660 C   0  0  0  0  0  0  0  0  0  0  0  0
  141.1460   76.2060  216.7550 C   0  0  0  0  0  0  0  0  0  0  0  0
  142.5850   76.6240  216.9930 C   0  0  0  0  0  0  0  0  0  0  0  0
  142.6060   77.5300  218.1820 C   0  0  0  0  0  0  0  0  0  0  0  0
  142.3520   76.7220  219.4240 C   0  0  1  0  0  0  0  0  0  0  0  0
  141.7980   77.6420  220.4890 C   0  0  0  0  0  0  0  0  0  0  0  0
  141.4540   76.8290  221.6270 N   0  0  0  0  0  0  0  0  0  0  0  0
  140.4030   77.4570  222.4330 C   0  0  0  0  0  0  0  0  0  0  0  0
  140.8910   78.7690  222.9320 C   0  0  0  0  0  0  0  0  0  0  0  0
  139.9730   79.8240  222.9470 C   0  0  0  0  0  0  0  0  0  0  0  0
  140.3940   81.0520  223.4020 C   0  0  0  0  0  0  0  0  0  0  0  0
  141.6810   81.2740  223.8390 C   0  0  0  0  0  0  0  0  0  0  0  0
  142.5890   80.2230  223.8210 C   0  0  0  0  0  0  0  0  0  0  0  0
  142.1830   78.9790  223.3660 C   0  0  0  0  0  0  0  0  0  0  0  0
  140.1450   71.9850  222.9810 C   0  0  0  0  0  0  0  0  0  0  0  0
  139.5780   70.7290  222.7740 C   0  0  0  0  0  0  0  0  0  0  0  0
  139.5090   69.7900  223.8020 C   0  0  0  0  0  0  0  0  0  0  0  0
  140.0070   70.1000  225.0410 C   0  0  0  0  0  0  0  0  0  0  0  0
  139.9640   69.2030  226.1000 C   0  0  0  0  0  0  0  0  0  0  0  0
  140.4910   69.6000  227.3190 C   0  0  0  0  0  0  0  0  0  0  0  0
  140.4720   68.5100  228.7140 Cl  0  0  0  0  0  0  0  0  0  0  0  0
  141.0520   70.8390  227.5280 C   0  0  0  0  0  0  0  0  0  0  0  0
  141.0780   71.7090  226.4470 C   0  0  0  0  0  0  0  0  0  0  0  0
  140.5610   71.3520  225.2070 C   0  0  0  0  0  0  0  0  0  0  0  0
  140.6210   72.2490  224.2050 N   0  0  0  0  0  0  0  0  0  0  0  0
  140.5740   71.4010  220.4330 H   0  0  0  0  0  0  0  0  0  0  0  0
  140.8631   72.7724  218.5314 H   0  0  0  0  0  0  0  0  0  0  0  0
  139.5348   73.7618  219.1894 H   0  0  0  0  0  0  0  0  0  0  0  0
  139.7260   75.1257  217.9611 H   0  0  0  0  0  0  0  0  0  0  0  0
  139.8475   76.8652  218.3493 H   0  0  0  0  0  0  0  0  0  0  0  0
  141.1345   75.2767  216.1666 H   0  0  0  0  0  0  0  0  0  0  0  0
  140.6328   77.0136  216.2123 H   0  0  0  0  0  0  0  0  0  0  0  0
  143.2053   75.7367  217.1875 H   0  0  0  0  0  0  0  0  0  0  0  0
  142.9868   77.1404  216.1088 H   0  0  0  0  0  0  0  0  0  0  0  0
  143.5891   78.0180  218.2553 H   0  0  0  0  0  0  0  0  0  0  0  0
  141.8259   78.2981  218.0750 H   0  0  0  0  0  0  0  0  0  0  0  0
  143.2737   76.2647  219.8130 H   0  0  0  0  0  0  0  0  0  0  0  0
  142.5565   78.3859  220.7743 H   0  0  0  0  0  0  0  0  0  0  0  0
  140.9139   78.1793  220.1152 H   0  0  0  0  0  0  0  0  0  0  0  0
  141.1000   75.8860  221.3190 H   0  0  0  0  0  0  0  0  0  0  0  0
  139.5059   77.6087  221.8148 H   0  0  0  0  0  0  0  0  0  0  0  0
  140.1509   76.8074  223.2842 H   0  0  0  0  0  0  0  0  0  0  0  0
  138.9388   79.6753  222.6031 H   0  0  0  0  0  0  0  0  0  0  0  0
  139.6772   81.8863  223.4173 H   0  0  0  0  0  0  0  0  0  0  0  0
  141.9853   82.2686  224.1969 H   0  0  0  0  0  0  0  0  0  0  0  0
  143.6223   80.3772  224.1653 H   0  0  0  0  0  0  0  0  0  0  0  0
  142.9018   78.1465  223.3507 H   0  0  0  0  0  0  0  0  0  0  0  0
  139.1777   70.4739  221.7817 H   0  0  0  0  0  0  0  0  0  0  0  0
  139.0567   68.8040  223.6197 H   0  0  0  0  0  0  0  0  0  0  0  0
  139.5231   68.2031  225.9748 H   0  0  0  0  0  0  0  0  0  0  0  0
  141.4613   71.1269  228.5076 H   0  0  0  0  0  0  0  0  0  0  0  0
  141.5197   72.7083  226.5749 H   0  0  0  0  0  0  0  0  0  0  0  0
  1  2  2  0
  2  3  1  0
  3  4  1  0
  4  5  1  0
  5  6  2  0
  5  7  1  0
  7  8  1  0
  8  9  1  0
  9 10  1  0
 10 11  1  0
 11 12  1  0
 12 13  1  0
 13 14  1  0
 14 15  1  0
 15 16  1  0
 16 17  2  0
 17 18  1  0
 18 19  2  0
 19 20  1  0
 20 21  2  0
  2 22  1  0
 22 23  2  0
 23 24  1  0
 24 25  2  0
 25 26  1  0
 26 27  2  0
 27 28  1  0
 27 29  1  0
 29 30  2  0
 30 31  1  0
 31 32  2  0
 12  7  1  0
 21 16  1  0
 32 22  1  0
 31 25  1  0
  3 33  1  0
  4 34  1  0
  4 35  1  0
  8 36  1  0
  8 37  1  0
  9 38  1  0
  9 39  1  0
 10 40  1  0
 10 41  1  0
 11 42  1  0
 11 43  1  0
 12 44  1  1
 13 45  1  0
 13 46  1  0
 14 47  1  0
 15 48  1  0
 15 49  1  0
 17 50  1  0
 18 51  1  0
 19 52  1  0
 20 53  1  0
 21 54  1  0
 23 55  1  0
 24 56  1  0
 26 57  1  0
 29 58  1  0
 30 59  1  0
M  END
>  <smiles>  (2) 
O=C(NCC(=O)N1CCCC[C@H]1CNCc1ccccc1)c1ccc2cc(Cl)ccc2n1

>  <score_type>  (2) 
oracle

>  <origin>  (2) 
autodockgpu

>  <m_score__min__energy>  (2) 
-9.4000000000000004

>  <m_primary>  (2) 
energy

>  <rmsd>  (2) 
2.4512388805738334

>  <m_score__min__rmsd>  (2) 
2.4512388805738334

>  <meeko>  (2) 
{"free_energy": -8.53, "intermolecular_energy": -10.92, "internal_energy": -2.74, "cluster_size": 7, "cluster_id": 4, "rank_in_cluster": 4}

>  <energy>  (2) 
-8.47

>  <cluster_rmsd>  (2) 
1.3

>  <cluster>  (2) 
1

$$$$

     RDKit          3D

 59 62  0  0  0  0  0  0  0  0999 V2000
  137.4620   75.9550  221.6010 O   0  0  0  0  0  0  0  0  0  0  0  0
  138.1110   74.8990  221.7990 C   0  0  0  0  0  0  0  0  0  0  0  0
  137.5530   73.7160  222.3460 N   0  0  0  0  0  0  0  0  0  0  0  0
  136.1340   73.6580  222.7280 C   0  0  0  0  0  0  0  0  0  0  0  0
  135.5880   72.3700  222.2300 C   0  0  0  0  0  0  0  0  0  0  0  0
  134.7340   72.3760  221.2950 O   0  0  0  0  0  0  0  0  0  0  0  0
  136.0180   71.1410  222.7950 N   0  0  0  0  0  0  0  0  0  0  0  0
  135.3740   69.8670  222.5030 C   0  0  0  0  0  0  0  0  0  0  0  0
  134.7520   69.3480  223.7850 C   0  0  0  0  0  0  0  0  0  0  0  0
  135.4380   69.9380  225.0030 C   0  0  0  0  0  0  0  0  0  0  0  0
  136.9010   70.0180  224.7080 C   0  0  0  0  0  0  0  0  0  0  0  0
  137.1450   71.1120  223.7060 C   0  0  1  0  0  0  0  0  0  0  0  0
  138.4420   70.8210  222.9840 C   0  0  0  0  0  0  0  0  0  0  0  0
  139.4570   71.6650  223.5610 N   0  0  0  0  0  0  0  0  0  0  0  0
  140.5780   70.8750  224.0770 C   0  0  0  0  0  0  0  0  0  0  0  0
  140.5440   70.8970  225.5630 C   0  0  0  0  0  0  0  0  0  0  0  0
  139.9240   69.8160  226.2000 C   0  0  0  0  0  0  0  0  0  0  0  0
  139.8750   69.8070  227.5750 C   0  0  0  0  0  0  0  0  0  0  0  0
  140.4120   70.8190  228.3380 C   0  0  0  0  0  0  0  0  0  0  0  0
  141.0260   71.8900  227.7010 C   0  0  0  0  0  0  0  0  0  0  0  0
  141.0850   71.9170  226.3170 C   0  0  0  0  0  0  0  0  0  0  0  0
  139.5390   74.8610  221.4470 C   0  0  0  0  0  0  0  0  0  0  0  0
  140.2030   76.0380  221.1040 C   0  0  0  0  0  0  0  0  0  0  0  0
  141.5560   76.0310  220.7670 C   0  0  0  0  0  0  0  0  0  0  0  0
  142.2520   74.8500  220.7710 C   0  0  0  0  0  0  0  0  0  0  0  0
  143.6000   74.7850  220.4440 C   0  0  0  0  0  0  0  0  0  0  0  0
  144.2250   73.5490  220.4740 C   0  0  0  0  0  0  0  0  0  0  0  0
  145.9400   73.3890  220.0700 Cl  0  0  0  0  0  0  0  0  0  0  0  0
  143.5730   72.3850  220.8120 C   0  0  0  0  0  0  0  0  0  0  0  0
  142.2270   72.4870  221.1340 C   0  0  0  0  0  0  0  0  0  0  0  0
  141.5600   73.7070  221.1160 C   0  0  0  0  0  0  0  0  0  0  0  0
  140.2540   73.7290  221.4400 N   0  0  0  0  0  0  0  0  0  0  0  0
  138.1530   72.8580  222.4890 H   0  0  0  0  0  0  0  0  0  0  0  0
  136.0378   73.7082  223.8226 H   0  0  0  0  0  0  0  0  0  0  0  0
  135.5821   74.5052  222.2948 H   0  0  0  0  0  0  0  0  0  0  0  0
  134.5934   70.0099  221.7412 H   0  0  0  0  0  0  0  0  0  0  0  0
  136.1113   69.1468  222.1187 H   0  0  0  0  0  0  0  0  0  0  0  0
  133.6870   69.6225  223.8044 H   0  0  0  0  0  0  0  0  0  0  0  0
  134.8701   68.2547  223.8129 H   0  0  0  0  0  0  0  0  0  0  0  0
  135.0414   70.9438  225.2056 H   0  0  0  0  0  0  0  0  0  0  0  0
  135.2578   69.3100  225.8880 H   0  0  0  0  0  0  0  0  0  0  0  0
  137.4515   70.2384  225.6345 H   0  0  0  0  0  0  0  0  0  0  0  0
  137.2481   69.0579  224.2983 H   0  0  0  0  0  0  0  0  0  0  0  0
  137.2352   72.0972  224.1869 H   0  0  0  0  0  0  0  0  0  0  0  0
  138.7148   69.7632  223.1133 H   0  0  0  0  0  0  0  0  0  0  0  0
  138.3391   71.0194  221.9069 H   0  0  0  0  0  0  0  0  0  0  0  0
  139.8420   72.3310  222.8420 H   0  0  0  0  0  0  0  0  0  0  0  0
  140.4921   69.8375  223.7217 H   0  0  0  0  0  0  0  0  0  0  0  0
  141.5274   71.3017  223.7212 H   0  0  0  0  0  0  0  0  0  0  0  0
  139.4864   68.9933  225.6154 H   0  0  0  0  0  0  0  0  0  0  0  0
  139.3893   68.9607  228.0828 H   0  0  0  0  0  0  0  0  0  0  0  0
  140.3558   70.7802  229.4359 H   0  0  0  0  0  0  0  0  0  0  0  0
  141.4618   72.7100  228.2906 H   0  0  0  0  0  0  0  0  0  0  0  0
  141.5708   72.7649  225.8120 H   0  0  0  0  0  0  0  0  0  0  0  0
  139.6498   76.9888  221.0992 H   0  0  0  0  0  0  0  0  0  0  0  0
  142.0630   76.9697  220.4989 H   0  0  0  0  0  0  0  0  0  0  0  0
  144.1576   75.6922  220.1681 H   0  0  0  0  0  0  0  0  0  0  0  0
  144.0955   71.4171  220.8263 H   0  0  0  0  0  0  0  0  0  0  0  0
  141.6727   71.5781  221.4110 H   0  0  0  0  0  0  0  0  0  0  0  0
  1  2  2  0
  2  3  1  0
  3  4  1  0
  4  5  1  0
  5  6  2  0
  5  7  1  0
  7  8  1  0
  8  9  1  0
  9 10  1  0
 10 11  1  0
 11 12  1  0
 12 13  1  0
 13 14  1  0
 14 15  1  0
 15 16  1  0
 16 17  2  0
 17 18  1  0
 18 19  2  0
 19 20  1  0
 20 21  2  0
  2 22  1  0
 22 23  2  0
 23 24  1  0
 24 25  2  0
 25 26  1  0
 26 27  2  0
 27 28  1  0
 27 29  1  0
 29 30  2  0
 30 31  1  0
 31 32  2  0
 12  7  1  0
 21 16  1  0
 32 22  1  0
 31 25  1  0
  3 33  1  0
  4 34  1  0
  4 35  1  0
  8 36  1  0
  8 37  1  0
  9 38  1  0
  9 39  1  0
 10 40  1  0
 10 41  1  0
 11 42  1  0
 11 43  1  0
 12 44  1  1
 13 45  1  0
 13 46  1  0
 14 47  1  0
 15 48  1  0
 15 49  1  0
 17 50  1  0
 18 51  1  0
 19 52  1  0
 20 53  1  0
 21 54  1  0
 23 55  1  0
 24 56  1  0
 26 57  1  0
 29 58  1  0
 30 59  1  0
M  END
>  <smiles>  (3) 
O=C(NCC(=O)N1CCCC[C@H]1CNCc1ccccc1)c1ccc2cc(Cl)ccc2n1

>  <score_type>  (3) 
oracle

>  <origin>  (3) 
autodockgpu

>  <m_score__min__energy>  (3) 
-9.4000000000000004

>  <m_primary>  (3) 
energy

>  <rmsd>  (3) 
8.796768856924409

>  <m_score__min__rmsd>  (3) 
8.796768856924409

>  <meeko>  (3) 
{"free_energy": -7.11, "intermolecular_energy": -9.5, "internal_energy": -3.62, "cluster_size": 3, "cluster_id": 9, "rank_in_cluster": 2}

>  <energy>  (3) 
-8.36

>  <cluster_rmsd>  (3) 
0.7

>  <cluster>  (3) 
1

$$$$

     RDKit          3D

 59 62  0  0  0  0  0  0  0  0999 V2000
  135.5140   74.2340  221.7600 O   0  0  0  0  0  0  0  0  0  0  0  0
  136.6670   74.2440  222.2550 C   0  0  0  0  0  0  0  0  0  0  0  0
  137.3590   73.0790  222.6750 N   0  0  0  0  0  0  0  0  0  0  0  0
  136.7440   71.7500  222.5500 C   0  0  0  0  0  0  0  0  0  0  0  0
  137.1600   70.9500  223.7300 C   0  0  0  0  0  0  0  0  0  0  0  0
  136.2980   70.6330  224.6010 O   0  0  0  0  0  0  0  0  0  0  0  0
  138.5110   70.5430  223.8810 N   0  0  0  0  0  0  0  0  0  0  0  0
  138.9110   69.1430  223.9670 C   0  0  0  0  0  0  0  0  0  0  0  0
  139.4930   68.9030  225.3460 C   0  0  0  0  0  0  0  0  0  0  0  0
  140.0060   70.1950  225.9550 C   0  0  0  0  0  0  0  0  0  0  0  0
  140.6400   70.9940  224.8620 C   0  0  0  0  0  0  0  0  0  0  0  0
  139.5680   71.5320  223.9560 C   0  0  1  0  0  0  0  0  0  0  0  0
  140.1780   71.8040  222.5990 C   0  0  0  0  0  0  0  0  0  0  0  0
  140.4020   73.2240  222.5030 N   0  0  0  0  0  0  0  0  0  0  0  0
  140.5460   73.6480  221.1070 C   0  0  0  0  0  0  0  0  0  0  0  0
  141.9910   73.7690  220.7830 C   0  0  0  0  0  0  0  0  0  0  0  0
  142.4510   75.0320  220.3940 C   0  0  0  0  0  0  0  0  0  0  0  0
  143.7840   75.1770  220.0860 C   0  0  0  0  0  0  0  0  0  0  0  0
  144.6730   74.1280  220.1480 C   0  0  0  0  0  0  0  0  0  0  0  0
  144.2110   72.8760  220.5350 C   0  0  0  0  0  0  0  0  0  0  0  0
  142.8730   72.7100  220.8490 C   0  0  0  0  0  0  0  0  0  0  0  0
  137.3650   75.5290  222.4190 C   0  0  0  0  0  0  0  0  0  0  0  0
  136.6320   76.7100  222.5290 C   0  0  0  0  0  0  0  0  0  0  0  0
  137.2670   77.9410  222.6860 C   0  0  0  0  0  0  0  0  0  0  0  0
  138.6360   78.0000  222.7320 C   0  0  0  0  0  0  0  0  0  0  0  0
  139.3200   79.1980  222.8860 C   0  0  0  0  0  0  0  0  0  0  0  0
  140.7050   79.1640  222.9220 C   0  0  0  0  0  0  0  0  0  0  0  0
  141.6440   80.6520  223.1160 Cl  0  0  0  0  0  0  0  0  0  0  0  0
  141.4320   78.0010  222.8140 C   0  0  0  0  0  0  0  0  0  0  0  0
  140.7160   76.8230  222.6620 C   0  0  0  0  0  0  0  0  0  0  0  0
  139.3250   76.8100  222.6190 C   0  0  0  0  0  0  0  0  0  0  0  0
  138.6990   75.6280  222.4700 N   0  0  0  0  0  0  0  0  0  0  0  0
  138.3310   73.1540  223.0850 H   0  0  0  0  0  0  0  0  0  0  0  0
  135.6483   71.8443  222.5281 H   0  0  0  0  0  0  0  0  0  0  0  0
  137.0663   71.2612  221.6188 H   0  0  0  0  0  0  0  0  0  0  0  0
  138.0354   68.4950  223.8140 H   0  0  0  0  0  0  0  0  0  0  0  0
  139.6576   68.9119  223.1929 H   0  0  0  0  0  0  0  0  0  0  0  0
  138.7121   68.4839  225.9976 H   0  0  0  0  0  0  0  0  0  0  0  0
  140.3356   68.2021  225.2524 H   0  0  0  0  0  0  0  0  0  0  0  0
  139.1704   70.7592  226.3949 H   0  0  0  0  0  0  0  0  0  0  0  0
  140.7365   69.9823  226.7495 H   0  0  0  0  0  0  0  0  0  0  0  0
  141.2062   71.8300  225.2986 H   0  0  0  0  0  0  0  0  0  0  0  0
  141.3235   70.3535  224.2853 H   0  0  0  0  0  0  0  0  0  0  0  0
  139.1441   72.4737  224.3349 H   0  0  0  0  0  0  0  0  0  0  0  0
  141.1322   71.2656  222.5012 H   0  0  0  0  0  0  0  0  0  0  0  0
  139.5077   71.4619  221.7967 H   0  0  0  0  0  0  0  0  0  0  0  0
  139.5940   73.7580  222.9170 H   0  0  0  0  0  0  0  0  0  0  0  0
  140.0813   72.9020  220.4455 H   0  0  0  0  0  0  0  0  0  0  0  0
  140.0507   74.6193  220.9614 H   0  0  0  0  0  0  0  0  0  0  0  0
  141.7632   75.8885  220.3358 H   0  0  0  0  0  0  0  0  0  0  0  0
  144.1526   76.1669  219.7791 H   0  0  0  0  0  0  0  0  0  0  0  0
  145.7329   74.2785  219.8951 H   0  0  0  0  0  0  0  0  0  0  0  0
  144.9033   72.0231  220.5915 H   0  0  0  0  0  0  0  0  0  0  0  0
  142.5075   71.7189  221.1557 H   0  0  0  0  0  0  0  0  0  0  0  0
  135.5334   76.6696  222.4912 H   0  0  0  0  0  0  0  0  0  0  0  0
  136.6717   78.8619  222.7727 H   0  0  0  0  0  0  0  0  0  0  0  0
  138.7766   80.1501  222.9772 H   0  0  0  0  0  0  0  0  0  0  0  0
  142.5315   78.0053  222.8467 H   0  0  0  0  0  0  0  0  0  0  0  0
  141.2627   75.8726  222.5730 H   0  0  0  0  0  0  0  0  0  0  0  0
  1  2  2  0
  2  3  1  0
  3  4  1  0
  4  5  1  0
  5  6  2  0
  5  7  1  0
  7  8  1  0
  8  9  1  0
  9 10  1  0
 10 11  1  0
 11 12  1  0
 12 13  1  0
 13 14  1  0
 14 15  1  0
 15 16  1  0
 16 17  2  0
 17 18  1  0
 18 19  2  0
 19 20  1  0
 20 21  2  0
  2 22  1  0
 22 23  2  0
 23 24  1  0
 24 25  2  0
 25 26  1  0
 26 27  2  0
 27 28  1  0
 27 29  1  0
 29 30  2  0
 30 31  1  0
 31 32  2  0
 12  7  1  0
 21 16  1  0
 32 22  1  0
 31 25  1  0
  3 33  1  0
  4 34  1  0
  4 35  1  0
  8 36  1  0
  8 37  1  0
  9 38  1  0
  9 39  1  0
 10 40  1  0
 10 41  1  0
 11 42  1  0
 11 43  1  0
 12 44  1  1
 13 45  1  0
 13 46  1  0
 14 47  1  0
 15 48  1  0
 15 49  1  0
 17 50  1  0
 18 51  1  0
 19 52  1  0
 20 53  1  0
 21 54  1  0
 23 55  1  0
 24 56  1  0
 26 57  1  0
 29 58  1  0
 30 59  1  0
M  END
>  <smiles>  (4) 
O=C(NCC(=O)N1CCCC[C@H]1CNCc1ccccc1)c1ccc2cc(Cl)ccc2n1

>  <score_type>  (4) 
oracle

>  <origin>  (4) 
autodockgpu

>  <m_score__min__energy>  (4) 
-9.4000000000000004

>  <m_primary>  (4) 
energy

>  <rmsd>  (4) 
8.05438506431792

>  <m_score__min__rmsd>  (4) 
8.05438506431792

>  <meeko>  (4) 
{"free_energy": -8.11, "intermolecular_energy": -10.5, "internal_energy": -3.64, "cluster_size": 3, "cluster_id": 8, "rank_in_cluster": 1}

>  <energy>  (4) 
-8.28

>  <cluster_rmsd>  (4) 
0.86

>  <cluster>  (4) 
1

$$$$

     RDKit          3D

 59 62  0  0  0  0  0  0  0  0999 V2000
  141.2350   74.2140  221.3170 O   0  0  0  0  0  0  0  0  0  0  0  0
  140.1430   74.2020  221.9360 C   0  0  0  0  0  0  0  0  0  0  0  0
  139.4900   73.0190  222.3680 N   0  0  0  0  0  0  0  0  0  0  0  0
  140.0750   71.6960  222.1060 C   0  0  0  0  0  0  0  0  0  0  0  0
  139.2670   70.6930  222.8440 C   0  0  0  0  0  0  0  0  0  0  0  0
  138.6380   71.0460  223.8850 O   0  0  0  0  0  0  0  0  0  0  0  0
  139.1950   69.3520  222.3890 N   0  0  0  0  0  0  0  0  0  0  0  0
  139.9140   68.8750  221.2130 C   0  0  0  0  0  0  0  0  0  0  0  0
  138.8930   68.4700  220.1680 C   0  0  0  0  0  0  0  0  0  0  0  0
  137.5600   68.1300  220.8090 C   0  0  0  0  0  0  0  0  0  0  0  0
  137.8400   67.4090  222.0880 C   0  0  0  0  0  0  0  0  0  0  0  0
  138.3830   68.3820  223.0970 C   0  0  1  0  0  0  0  0  0  0  0  0
  139.1900   67.6140  224.1190 C   0  0  0  0  0  0  0  0  0  0  0  0
  139.0690   68.3050  225.3760 N   0  0  0  0  0  0  0  0  0  0  0  0
  140.3470   68.3380  226.0930 C   0  0  0  0  0  0  0  0  0  0  0  0
  140.5570   69.7010  226.6480 C   0  0  0  0  0  0  0  0  0  0  0  0
  141.2360   70.6180  225.8390 C   0  0  0  0  0  0  0  0  0  0  0  0
  141.4480   71.8880  226.3240 C   0  0  0  0  0  0  0  0  0  0  0  0
  141.0160   72.2820  227.5700 C   0  0  0  0  0  0  0  0  0  0  0  0
  140.3420   71.3680  228.3700 C   0  0  0  0  0  0  0  0  0  0  0  0
  140.1200   70.0850  227.8990 C   0  0  0  0  0  0  0  0  0  0  0  0
  139.4810   75.4790  222.2450 C   0  0  0  0  0  0  0  0  0  0  0  0
  138.0900   75.5490  222.2930 C   0  0  0  0  0  0  0  0  0  0  0  0
  137.4380   76.7470  222.5840 C   0  0  0  0  0  0  0  0  0  0  0  0
  138.1710   77.8790  222.8290 C   0  0  0  0  0  0  0  0  0  0  0  0
  137.5730   79.0980  223.1230 C   0  0  0  0  0  0  0  0  0  0  0  0
  138.3910   80.1910  223.3560 C   0  0  0  0  0  0  0  0  0  0  0  0
  137.7010   81.7760  223.7370 Cl  0  0  0  0  0  0  0  0  0  0  0  0
  139.7650   80.1260  223.3100 C   0  0  0  0  0  0  0  0  0  0  0  0
  140.3270   78.8930  223.0140 C   0  0  0  0  0  0  0  0  0  0  0  0
  139.5450   77.7690  222.7720 C   0  0  0  0  0  0  0  0  0  0  0  0
  140.1610   76.6060  222.4910 N   0  0  0  0  0  0  0  0  0  0  0  0
  138.5710   73.0750  222.8860 H   0  0  0  0  0  0  0  0  0  0  0  0
  140.0467   71.4804  221.0277 H   0  0  0  0  0  0  0  0  0  0  0  0
  141.1238   71.6654  222.4363 H   0  0  0  0  0  0  0  0  0  0  0  0
  140.5546   69.6768  220.8171 H   0  0  0  0  0  0  0  0  0  0  0  0
  140.5494   68.0168  221.4772 H   0  0  0  0  0  0  0  0  0  0  0  0
  138.7507   69.3025  219.4632 H   0  0  0  0  0  0  0  0  0  0  0  0
  139.2656   67.5781  219.6429 H   0  0  0  0  0  0  0  0  0  0  0  0
  136.9973   69.0525  221.0147 H   0  0  0  0  0  0  0  0  0  0  0  0
  136.9590   67.5006  220.1362 H   0  0  0  0  0  0  0  0  0  0  0  0
  136.9096   66.9638  222.4703 H   0  0  0  0  0  0  0  0  0  0  0  0
  138.5778   66.6130  221.9089 H   0  0  0  0  0  0  0  0  0  0  0  0
  137.5799   68.9149  223.6271 H   0  0  0  0  0  0  0  0  0  0  0  0
  138.7985   66.5905  224.2142 H   0  0  0  0  0  0  0  0  0  0  0  0
  140.2444   67.5517  223.8118 H   0  0  0  0  0  0  0  0  0  0  0  0
  138.7620   69.3010  225.2260 H   0  0  0  0  0  0  0  0  0  0  0  0
  140.3286   67.6050  226.9130 H   0  0  0  0  0  0  0  0  0  0  0  0
  141.1663   68.0881  225.4028 H   0  0  0  0  0  0  0  0  0  0  0  0
  141.5921   70.3306  224.8387 H   0  0  0  0  0  0  0  0  0  0  0  0
  141.9818   72.6143  225.6935 H   0  0  0  0  0  0  0  0  0  0  0  0
  141.2018   73.3057  227.9271 H   0  0  0  0  0  0  0  0  0  0  0  0
  139.9876   71.6610  229.3693 H   0  0  0  0  0  0  0  0  0  0  0  0
  139.5868   69.3605  228.5322 H   0  0  0  0  0  0  0  0  0  0  0  0
  137.4961   74.6439  222.0980 H   0  0  0  0  0  0  0  0  0  0  0  0
  136.3391   76.7833  222.6168 H   0  0  0  0  0  0  0  0  0  0  0  0
  136.4781   79.1926  223.1695 H   0  0  0  0  0  0  0  0  0  0  0  0
  140.3891   81.0118  223.4994 H   0  0  0  0  0  0  0  0  0  0  0  0
  141.4223   78.8017  222.9694 H   0  0  0  0  0  0  0  0  0  0  0  0
  1  2  2  0
  2  3  1  0
  3  4  1  0
  4  5  1  0
  5  6  2  0
  5  7  1  0
  7  8  1  0
  8  9  1  0
  9 10  1  0
 10 11  1  0
 11 12  1  0
 12 13  1  0
 13 14  1  0
 14 15  1  0
 15 16  1  0
 16 17  2  0
 17 18  1  0
 18 19  2  0
 19 20  1  0
 20 21  2  0
  2 22  1  0
 22 23  2  0
 23 24  1  0
 24 25  2  0
 25 26  1  0
 26 27  2  0
 27 28  1  0
 27 29  1  0
 29 30  2  0
 30 31  1  0
 31 32  2  0
 12  7  1  0
 21 16  1  0
 32 22  1  0
 31 25  1  0
  3 33  1  0
  4 34  1  0
  4 35  1  0
  8 36  1  0
  8 37  1  0
  9 38  1  0
  9 39  1  0
 10 40  1  0
 10 41  1  0
 11 42  1  0
 11 43  1  0
 12 44  1  1
 13 45  1  0
 13 46  1  0
 14 47  1  0
 15 48  1  0
 15 49  1  0
 17 50  1  0
 18 51  1  0
 19 52  1  0
 20 53  1  0
 21 54  1  0
 23 55  1  0
 24 56  1  0
 26 57  1  0
 29 58  1  0
 30 59  1  0
M  END
>  <smiles>  (5) 
O=C(NCC(=O)N1CCCC[C@H]1CNCc1ccccc1)c1ccc2cc(Cl)ccc2n1

>  <score_type>  (5) 
oracle

>  <origin>  (5) 
autodockgpu

>  <m_score__min__energy>  (5) 
-9.4000000000000004

>  <m_primary>  (5) 
energy

>  <rmsd>  (5) 
9.413444349086355

>  <m_score__min__rmsd>  (5) 
9.413444349086355

>  <meeko>  (5) 
{"free_energy": -7.83, "intermolecular_energy": -10.22, "internal_energy": -2.96, "cluster_size": 11, "cluster_id": 3, "rank_in_cluster": 11}

>  <energy>  (5) 
-8.22

>  <cluster_rmsd>  (5) 
1.15

>  <cluster>  (5) 
1

$$$$

     RDKit          3D

 59 62  0  0  0  0  0  0  0  0999 V2000
  137.5870   77.5450  221.8640 O   0  0  0  0  0  0  0  0  0  0  0  0
  137.5430   76.4190  222.4170 C   0  0  0  0  0  0  0  0  0  0  0  0
  138.5340   75.4170  222.2550 N   0  0  0  0  0  0  0  0  0  0  0  0
  139.7080   75.6490  221.4000 C   0  0  0  0  0  0  0  0  0  0  0  0
  140.5510   74.4280  221.4560 C   0  0  0  0  0  0  0  0  0  0  0  0
  140.3290   73.5590  222.3500 O   0  0  0  0  0  0  0  0  0  0  0  0
  141.5970   74.2340  220.5180 N   0  0  0  0  0  0  0  0  0  0  0  0
  141.6900   73.0510  219.6700 C   0  0  0  0  0  0  0  0  0  0  0  0
  142.9430   72.2900  220.0590 C   0  0  0  0  0  0  0  0  0  0  0  0
  143.9550   73.2050  220.7210 C   0  0  0  0  0  0  0  0  0  0  0  0
  143.9130   74.5210  220.0120 C   0  0  0  0  0  0  0  0  0  0  0  0
  142.6360   75.2320  220.3650 C   0  0  1  0  0  0  0  0  0  0  0  0
  142.3140   76.2140  219.2610 C   0  0  0  0  0  0  0  0  0  0  0  0
  142.5620   77.5370  219.7710 N   0  0  0  0  0  0  0  0  0  0  0  0
  141.3400   78.1380  220.3150 C   0  0  0  0  0  0  0  0  0  0  0  0
  141.6680   78.8450  221.5810 C   0  0  0  0  0  0  0  0  0  0  0  0
  142.2050   80.1320  221.4690 C   0  0  0  0  0  0  0  0  0  0  0  0
  142.5200   80.8120  222.6220 C   0  0  0  0  0  0  0  0  0  0  0  0
  142.3260   80.2710  223.8730 C   0  0  0  0  0  0  0  0  0  0  0  0
  141.7920   78.9930  223.9790 C   0  0  0  0  0  0  0  0  0  0  0  0
  141.4690   78.2920  222.8290 C   0  0  0  0  0  0  0  0  0  0  0  0
  136.4050   76.0960  223.2920 C   0  0  0  0  0  0  0  0  0  0  0  0
  135.5220   77.1000  223.6840 C   0  0  0  0  0  0  0  0  0  0  0  0
  134.4350   76.8210  224.5130 C   0  0  0  0  0  0  0  0  0  0  0  0
  134.2260   75.5400  224.9530 C   0  0  0  0  0  0  0  0  0  0  0  0
  133.1610   75.2070  225.7800 C   0  0  0  0  0  0  0  0  0  0  0  0
  133.0250   73.8870  226.1760 C   0  0  0  0  0  0  0  0  0  0  0  0
  131.6930   73.3880  227.2290 Cl  0  0  0  0  0  0  0  0  0  0  0  0
  133.8950   72.8920  225.7910 C   0  0  0  0  0  0  0  0  0  0  0  0
  134.9470   73.2610  224.9650 C   0  0  0  0  0  0  0  0  0  0  0  0
  135.1220   74.5750  224.5430 C   0  0  0  0  0  0  0  0  0  0  0  0
  136.1660   74.8570  223.7420 N   0  0  0  0  0  0  0  0  0  0  0  0
  138.4390   74.4870  222.7490 H   0  0  0  0  0  0  0  0  0  0  0  0
  139.3871   75.8364  220.3647 H   0  0  0  0  0  0  0  0  0  0  0  0
  140.2734   76.5257  221.7488 H   0  0  0  0  0  0  0  0  0  0  0  0
  140.8055   72.4144  219.8197 H   0  0  0  0  0  0  0  0  0  0  0  0
  141.7354   73.3440  218.6107 H   0  0  0  0  0  0  0  0  0  0  0  0
  142.6722   71.4869  220.7603 H   0  0  0  0  0  0  0  0  0  0  0  0
  143.3945   71.8717  219.1473 H   0  0  0  0  0  0  0  0  0  0  0  0
  143.6976   73.3428  221.7815 H   0  0  0  0  0  0  0  0  0  0  0  0
  144.9633   72.7690  220.6630 H   0  0  0  0  0  0  0  0  0  0  0  0
  144.7728   75.1333  220.3216 H   0  0  0  0  0  0  0  0  0  0  0  0
  143.9564   74.3569  218.9252 H   0  0  0  0  0  0  0  0  0  0  0  0
  142.7246   75.7935  221.3067 H   0  0  0  0  0  0  0  0  0  0  0  0
  142.9558   76.0216  218.3886 H   0  0  0  0  0  0  0  0  0  0  0  0
  141.2652   76.1113  218.9456 H   0  0  0  0  0  0  0  0  0  0  0  0
  143.2760   77.5110  220.5450 H   0  0  0  0  0  0  0  0  0  0  0  0
  140.9271   78.8542  219.5894 H   0  0  0  0  0  0  0  0  0  0  0  0
  140.5959   77.3520  220.5114 H   0  0  0  0  0  0  0  0  0  0  0  0
  142.3713   80.5890  220.4823 H   0  0  0  0  0  0  0  0  0  0  0  0
  142.9422   81.8246  222.5419 H   0  0  0  0  0  0  0  0  0  0  0  0
  142.5899   80.8423  224.7752 H   0  0  0  0  0  0  0  0  0  0  0  0
  141.6270   78.5414  224.9684 H   0  0  0  0  0  0  0  0  0  0  0  0
  141.0475   77.2793  222.9120 H   0  0  0  0  0  0  0  0  0  0  0  0
  135.6847   78.1301  223.3340 H   0  0  0  0  0  0  0  0  0  0  0  0
  133.7482   77.6264  224.8124 H   0  0  0  0  0  0  0  0  0  0  0  0
  132.4439   75.9722  226.1119 H   0  0  0  0  0  0  0  0  0  0  0  0
  133.7622   71.8518  226.1231 H   0  0  0  0  0  0  0  0  0  0  0  0
  135.6624   72.4934  224.6347 H   0  0  0  0  0  0  0  0  0  0  0  0
  1  2  2  0
  2  3  1  0
  3  4  1  0
  4  5  1  0
  5  6  2  0
  5  7  1  0
  7  8  1  0
  8  9  1  0
  9 10  1  0
 10 11  1  0
 11 12  1  0
 12 13  1  0
 13 14  1  0
 14 15  1  0
 15 16  1  0
 16 17  2  0
 17 18  1  0
 18 19  2  0
 19 20  1  0
 20 21  2  0
  2 22  1  0
 22 23  2  0
 23 24  1  0
 24 25  2  0
 25 26  1  0
 26 27  2  0
 27 28  1  0
 27 29  1  0
 29 30  2  0
 30 31  1  0
 31 32  2  0
 12  7  1  0
 21 16  1  0
 32 22  1  0
 31 25  1  0
  3 33  1  0
  4 34  1  0
  4 35  1  0
  8 36  1  0
  8 37  1  0
  9 38  1  0
  9 39  1  0
 10 40  1  0
 10 41  1  0
 11 42  1  0
 11 43  1  0
 12 44  1  1
 13 45  1  0
 13 46  1  0
 14 47  1  0
 15 48  1  0
 15 49  1  0
 17 50  1  0
 18 51  1  0
 19 52  1  0
 20 53  1  0
 21 54  1  0
 23 55  1  0
 24 56  1  0
 26 57  1  0
 29 58  1  0
 30 59  1  0
M  END
>  <smiles>  (6) 
O=C(NCC(=O)N1CCCC[C@H]1CNCc1ccccc1)c1ccc2cc(Cl)ccc2n1

>  <score_type>  (6) 
oracle

>  <origin>  (6) 
autodockgpu

>  <m_score__min__energy>  (6) 
-9.4000000000000004

>  <m_primary>  (6) 
energy

>  <rmsd>  (6) 
5.698092732914712

>  <m_score__min__rmsd>  (6) 
5.698092732914712

>  <meeko>  (6) 
{"free_energy": -8.41, "intermolecular_energy": -10.8, "internal_energy": -2.65, "cluster_size": 5, "cluster_id": 6, "rank_in_cluster": 3}

>  <energy>  (6) 
-7.74

>  <cluster_rmsd>  (6) 
1.24

>  <cluster>  (6) 
1

$$$$

     RDKit          3D

 59 62  0  0  0  0  0  0  0  0999 V2000
  140.2060   74.2270  222.3300 O   0  0  0  0  0  0  0  0  0  0  0  0
  140.2830   73.0100  222.0300 C   0  0  0  0  0  0  0  0  0  0  0  0
  140.4210   72.5280  220.7040 N   0  0  0  0  0  0  0  0  0  0  0  0
  140.4840   73.4580  219.5660 C   0  0  0  0  0  0  0  0  0  0  0  0
  141.6220   73.0410  218.7090 C   0  0  0  0  0  0  0  0  0  0  0  0
  141.4570   72.1140  217.8630 O   0  0  0  0  0  0  0  0  0  0  0  0
  142.8850   73.6770  218.8320 N   0  0  0  0  0  0  0  0  0  0  0  0
  144.0870   73.1840  218.1710 C   0  0  0  0  0  0  0  0  0  0  0  0
  145.0680   72.7460  219.2410 C   0  0  0  0  0  0  0  0  0  0  0  0
  144.7900   73.4490  220.5570 C   0  0  0  0  0  0  0  0  0  0  0  0
  144.4010   74.8590  220.2480 C   0  0  0  0  0  0  0  0  0  0  0  0
  143.0250   74.8700  219.6420 C   0  0  1  0  0  0  0  0  0  0  0  0
  142.8750   76.1290  218.8170 C   0  0  0  0  0  0  0  0  0  0  0  0
  142.5550   77.2040  219.7200 N   0  0  0  0  0  0  0  0  0  0  0  0
  141.5430   76.7960  220.6980 C   0  0  0  0  0  0  0  0  0  0  0  0
  141.3210   77.9070  221.6600 C   0  0  0  0  0  0  0  0  0  0  0  0
  140.1540   77.8580  222.4290 C   0  0  0  0  0  0  0  0  0  0  0  0
  139.9180   78.8720  223.3280 C   0  0  0  0  0  0  0  0  0  0  0  0
  140.7890   79.9260  223.4940 C   0  0  0  0  0  0  0  0  0  0  0  0
  141.9470   79.9710  222.7280 C   0  0  0  0  0  0  0  0  0  0  0  0
  142.2000   78.9580  221.8170 C   0  0  0  0  0  0  0  0  0  0  0  0
  140.2310   72.0050  223.1030 C   0  0  0  0  0  0  0  0  0  0  0  0
  139.6860   70.7460  222.8520 C   0  0  0  0  0  0  0  0  0  0  0  0
  139.6250   69.7750  223.8500 C   0  0  0  0  0  0  0  0  0  0  0  0
  140.1060   70.0540  225.1030 C   0  0  0  0  0  0  0  0  0  0  0  0
  140.0700   69.1250  226.1340 C   0  0  0  0  0  0  0  0  0  0  0  0
  140.5780   69.4930  227.3680 C   0  0  0  0  0  0  0  0  0  0  0  0
  140.5660   68.3610  228.7290 Cl  0  0  0  0  0  0  0  0  0  0  0  0
  141.1170   70.7340  227.6210 C   0  0  0  0  0  0  0  0  0  0  0  0
  141.1370   71.6370  226.5680 C   0  0  0  0  0  0  0  0  0  0  0  0
  140.6370   71.3100  225.3120 C   0  0  0  0  0  0  0  0  0  0  0  0
  140.6910   72.2390  224.3390 N   0  0  0  0  0  0  0  0  0  0  0  0
  140.4810   71.4900  220.5160 H   0  0  0  0  0  0  0  0  0  0  0  0
  139.5464   73.4133  218.9926 H   0  0  0  0  0  0  0  0  0  0  0  0
  140.6232   74.4908  219.9180 H   0  0  0  0  0  0  0  0  0  0  0  0
  143.8338   72.3301  217.5255 H   0  0  0  0  0  0  0  0  0  0  0  0
  144.5307   73.9749  217.5484 H   0  0  0  0  0  0  0  0  0  0  0  0
  144.9781   71.6596  219.3879 H   0  0  0  0  0  0  0  0  0  0  0  0
  146.0843   73.0086  218.9122 H   0  0  0  0  0  0  0  0  0  0  0  0
  143.9698   72.9419  221.0863 H   0  0  0  0  0  0  0  0  0  0  0  0
  145.6824   73.4284  221.1999 H   0  0  0  0  0  0  0  0  0  0  0  0
  144.3999   75.4519  221.1745 H   0  0  0  0  0  0  0  0  0  0  0  0
  145.1208   75.2944  219.5392 H   0  0  0  0  0  0  0  0  0  0  0  0
  142.2374   74.8683  220.4099 H   0  0  0  0  0  0  0  0  0  0  0  0
  143.8163   76.3478  218.2915 H   0  0  0  0  0  0  0  0  0  0  0  0
  142.0818   76.0065  218.0648 H   0  0  0  0  0  0  0  0  0  0  0  0
  143.4100   77.5100  220.2550 H   0  0  0  0  0  0  0  0  0  0  0  0
  140.6012   76.5645  220.1789 H   0  0  0  0  0  0  0  0  0  0  0  0
  141.8883   75.9018  221.2376 H   0  0  0  0  0  0  0  0  0  0  0  0
  139.4412   77.0277  222.3175 H   0  0  0  0  0  0  0  0  0  0  0  0
  139.0016   78.8400  223.9356 H   0  0  0  0  0  0  0  0  0  0  0  0
  140.5708   80.7207  224.2226 H   0  0  0  0  0  0  0  0  0  0  0  0
  142.6568   80.8034  222.8436 H   0  0  0  0  0  0  0  0  0  0  0  0
  143.1164   78.9927  221.2095 H   0  0  0  0  0  0  0  0  0  0  0  0
  139.2976   70.5154  221.8490 H   0  0  0  0  0  0  0  0  0  0  0  0
  139.1920   68.7874  223.6328 H   0  0  0  0  0  0  0  0  0  0  0  0
  139.6484   68.1216  225.9743 H   0  0  0  0  0  0  0  0  0  0  0  0
  141.5137   70.9976  228.6125 H   0  0  0  0  0  0  0  0  0  0  0  0
  141.5600   72.6393  226.7309 H   0  0  0  0  0  0  0  0  0  0  0  0
  1  2  2  0
  2  3  1  0
  3  4  1  0
  4  5  1  0
  5  6  2  0
  5  7  1  0
  7  8  1  0
  8  9  1  0
  9 10  1  0
 10 11  1  0
 11 12  1  0
 12 13  1  0
 13 14  1  0
 14 15  1  0
 15 16  1  0
 16 17  2  0
 17 18  1  0
 18 19  2  0
 19 20  1  0
 20 21  2  0
  2 22  1  0
 22 23  2  0
 23 24  1  0
 24 25  2  0
 25 26  1  0
 26 27  2  0
 27 28  1  0
 27 29  1  0
 29 30  2  0
 30 31  1  0
 31 32  2  0
 12  7  1  0
 21 16  1  0
 32 22  1  0
 31 25  1  0
  3 33  1  0
  4 34  1  0
  4 35  1  0
  8 36  1  0
  8 37  1  0
  9 38  1  0
  9 39  1  0
 10 40  1  0
 10 41  1  0
 11 42  1  0
 11 43  1  0
 12 44  1  1
 13 45  1  0
 13 46  1  0
 14 47  1  0
 15 48  1  0
 15 49  1  0
 17 50  1  0
 18 51  1  0
 19 52  1  0
 20 53  1  0
 21 54  1  0
 23 55  1  0
 24 56  1  0
 26 57  1  0
 29 58  1  0
 30 59  1  0
M  END
>  <smiles>  (7) 
O=C(NCC(=O)N1CCCC[C@H]1CNCc1ccccc1)c1ccc2cc(Cl)ccc2n1

>  <score_type>  (7) 
oracle

>  <origin>  (7) 
autodockgpu

>  <m_score__min__energy>  (7) 
-9.4000000000000004

>  <m_primary>  (7) 
energy

>  <rmsd>  (7) 
3.4346698837422576

>  <m_score__min__rmsd>  (7) 
3.4346698837422576

>  <meeko>  (7) 
{"free_energy": -8.96, "intermolecular_energy": -11.35, "internal_energy": -1.93, "cluster_size": 7, "cluster_id": 4, "rank_in_cluster": 1}

>  <energy>  (7) 
-8.96

>  <cluster_rmsd>  (7) 
0.0

>  <cluster>  (7) 
2

$$$$

     RDKit          3D

 59 62  0  0  0  0  0  0  0  0999 V2000
  133.9740   70.0820  226.4520 O   0  0  0  0  0  0  0  0  0  0  0  0
  134.2430   71.2150  225.9850 C   0  0  0  0  0  0  0  0  0  0  0  0
  135.2260   71.4500  224.9910 N   0  0  0  0  0  0  0  0  0  0  0  0
  136.0140   70.3410  224.4320 C   0  0  0  0  0  0  0  0  0  0  0  0
  137.2670   70.9150  223.8800 C   0  0  0  0  0  0  0  0  0  0  0  0
  137.2060   71.9170  223.1080 O   0  0  0  0  0  0  0  0  0  0  0  0
  138.5250   70.3480  224.2140 N   0  0  0  0  0  0  0  0  0  0  0  0
  138.7680   68.9110  224.2260 C   0  0  0  0  0  0  0  0  0  0  0  0
  139.0710   68.4960  225.6530 C   0  0  0  0  0  0  0  0  0  0  0  0
  139.5890   69.6680  226.4650 C   0  0  0  0  0  0  0  0  0  0  0  0
  140.4800   70.4780  225.5780 C   0  0  0  0  0  0  0  0  0  0  0  0
  139.6410   71.2040  224.5640 C   0  0  1  0  0  0  0  0  0  0  0  0
  140.5050   71.5170  223.3630 C   0  0  0  0  0  0  0  0  0  0  0  0
  140.0910   72.7990  222.8540 N   0  0  0  0  0  0  0  0  0  0  0  0
  140.2050   72.8560  221.3940 C   0  0  0  0  0  0  0  0  0  0  0  0
  141.6090   73.1830  221.0280 C   0  0  0  0  0  0  0  0  0  0  0  0
  141.9100   74.5310  220.8100 C   0  0  0  0  0  0  0  0  0  0  0  0
  143.2000   74.8660  220.4690 C   0  0  0  0  0  0  0  0  0  0  0  0
  144.1960   73.9250  220.3380 C   0  0  0  0  0  0  0  0  0  0  0  0
  143.8910   72.5870  220.5560 C   0  0  0  0  0  0  0  0  0  0  0  0
  142.5980   72.2300  220.8990 C   0  0  0  0  0  0  0  0  0  0  0  0
  133.5050   72.3870  226.4830 C   0  0  0  0  0  0  0  0  0  0  0  0
  132.2800   72.2170  227.1250 C   0  0  0  0  0  0  0  0  0  0  0  0
  131.5600   73.3100  227.6070 C   0  0  0  0  0  0  0  0  0  0  0  0
  132.0590   74.5760  227.4500 C   0  0  0  0  0  0  0  0  0  0  0  0
  131.3850   75.7000  227.9090 C   0  0  0  0  0  0  0  0  0  0  0  0
  131.9640   76.9420  227.7080 C   0  0  0  0  0  0  0  0  0  0  0  0
  131.1620   78.4180  228.2660 Cl  0  0  0  0  0  0  0  0  0  0  0  0
  133.1730   77.1150  227.0740 C   0  0  0  0  0  0  0  0  0  0  0  0
  133.8190   75.9700  226.6290 C   0  0  0  0  0  0  0  0  0  0  0  0
  133.2750   74.7030  226.8090 C   0  0  0  0  0  0  0  0  0  0  0  0
  133.9590   73.6390  226.3500 N   0  0  0  0  0  0  0  0  0  0  0  0
  135.4060   72.4300  224.6380 H   0  0  0  0  0  0  0  0  0  0  0  0
  136.2509   69.6134  225.2222 H   0  0  0  0  0  0  0  0  0  0  0  0
  135.4470   69.8221  223.6451 H   0  0  0  0  0  0  0  0  0  0  0  0
  137.8757   68.3790  223.8645 H   0  0  0  0  0  0  0  0  0  0  0  0
  139.6145   68.6623  223.5690 H   0  0  0  0  0  0  0  0  0  0  0  0
  138.1505   68.1149  226.1193 H   0  0  0  0  0  0  0  0  0  0  0  0
  139.8461   67.7157  225.6325 H   0  0  0  0  0  0  0  0  0  0  0  0
  138.7467   70.2840  226.8129 H   0  0  0  0  0  0  0  0  0  0  0  0
  140.1435   69.3113  227.3455 H   0  0  0  0  0  0  0  0  0  0  0  0
  141.0376   71.2073  226.1840 H   0  0  0  0  0  0  0  0  0  0  0  0
  141.1902   69.8145  225.0628 H   0  0  0  0  0  0  0  0  0  0  0  0
  139.2476   72.1523  224.9590 H   0  0  0  0  0  0  0  0  0  0  0  0
  141.5631   71.5553  223.6613 H   0  0  0  0  0  0  0  0  0  0  0  0
  140.3934   70.7399  222.5925 H   0  0  0  0  0  0  0  0  0  0  0  0
  139.0860   72.9930  223.1030 H   0  0  0  0  0  0  0  0  0  0  0  0
  139.9299   71.8813  220.9647 H   0  0  0  0  0  0  0  0  0  0  0  0
  139.5294   73.6292  220.9994 H   0  0  0  0  0  0  0  0  0  0  0  0
  141.1343   75.3047  220.9087 H   0  0  0  0  0  0  0  0  0  0  0  0
  143.4444   75.9243  220.2947 H   0  0  0  0  0  0  0  0  0  0  0  0
  145.2177   74.2276  220.0649 H   0  0  0  0  0  0  0  0  0  0  0  0
  144.6707   71.8174  220.4568 H   0  0  0  0  0  0  0  0  0  0  0  0
  142.3558   71.1709  221.0712 H   0  0  0  0  0  0  0  0  0  0  0  0
  131.8737   71.2030  227.2539 H   0  0  0  0  0  0  0  0  0  0  0  0
  130.5947   73.1559  228.1115 H   0  0  0  0  0  0  0  0  0  0  0  0
  130.4152   75.6062  228.4196 H   0  0  0  0  0  0  0  0  0  0  0  0
  133.6075   78.1148  226.9267 H   0  0  0  0  0  0  0  0  0  0  0  0
  134.7889   76.0676  226.1194 H   0  0  0  0  0  0  0  0  0  0  0  0
  1  2  2  0
  2  3  1  0
  3  4  1  0
  4  5  1  0
  5  6  2  0
  5  7  1  0
  7  8  1  0
  8  9  1  0
  9 10  1  0
 10 11  1  0
 11 12  1  0
 12 13  1  0
 13 14  1  0
 14 15  1  0
 15 16  1  0
 16 17  2  0
 17 18  1  0
 18 19  2  0
 19 20  1  0
 20 21  2  0
  2 22  1  0
 22 23  2  0
 23 24  1  0
 24 25  2  0
 25 26  1  0
 26 27  2  0
 27 28  1  0
 27 29  1  0
 29 30  2  0
 30 31  1  0
 31 32  2  0
 12  7  1  0
 21 16  1  0
 32 22  1  0
 31 25  1  0
  3 33  1  0
  4 34  1  0
  4 35  1  0
  8 36  1  0
  8 37  1  0
  9 38  1  0
  9 39  1  0
 10 40  1  0
 10 41  1  0
 11 42  1  0
 11 43  1  0
 12 44  1  1
 13 45  1  0
 13 46  1  0
 14 47  1  0
 15 48  1  0
 15 49  1  0
 17 50  1  0
 18 51  1  0
 19 52  1  0
 20 53  1  0
 21 54  1  0
 23 55  1  0
 24 56  1  0
 26 57  1  0
 29 58  1  0
 30 59  1  0
M  END
>  <smiles>  (8) 
O=C(NCC(=O)N1CCCC[C@H]1CNCc1ccccc1)c1ccc2cc(Cl)ccc2n1

>  <score_type>  (8) 
oracle

>  <origin>  (8) 
autodockgpu

>  <m_score__min__energy>  (8) 
-9.4000000000000004

>  <m_primary>  (8) 
energy

>  <rmsd>  (8) 
8.605670547477091

>  <m_score__min__rmsd>  (8) 
8.605670547477091

>  <meeko>  (8) 
{"free_energy": -8.52, "intermolecular_energy": -10.91, "internal_energy": -2.62, "cluster_size": 3, "cluster_id": 5, "rank_in_cluster": 1}

>  <energy>  (8) 
-8.96

>  <cluster_rmsd>  (8) 
0.0

>  <cluster>  (8) 
3

$$$$

     RDKit          3D

 59 62  0  0  0  0  0  0  0  0999 V2000
  138.0260   71.2920  221.2660 O   0  0  0  0  0  0  0  0  0  0  0  0
  138.6420   71.7990  222.2350 C   0  0  0  0  0  0  0  0  0  0  0  0
  138.9910   73.1710  222.3220 N   0  0  0  0  0  0  0  0  0  0  0  0
  138.6410   74.1080  221.2440 C   0  0  0  0  0  0  0  0  0  0  0  0
  139.0010   75.4740  221.7030 C   0  0  0  0  0  0  0  0  0  0  0  0
  139.9880   75.6280  222.4820 O   0  0  0  0  0  0  0  0  0  0  0  0
  138.2500   76.5970  221.2720 N   0  0  0  0  0  0  0  0  0  0  0  0
  137.2250   77.2280  222.0960 C   0  0  0  0  0  0  0  0  0  0  0  0
  135.8860   77.0410  221.4080 C   0  0  0  0  0  0  0  0  0  0  0  0
  136.0640   76.8200  219.9180 C   0  0  0  0  0  0  0  0  0  0  0  0
  137.1730   77.7090  219.4540 C   0  0  0  0  0  0  0  0  0  0  0  0
  138.4830   77.1730  219.9630 C   0  0  1  0  0  0  0  0  0  0  0  0
  139.4760   78.3120  220.0200 C   0  0  0  0  0  0  0  0  0  0  0  0
  140.7540   77.7540  220.3830 N   0  0  0  0  0  0  0  0  0  0  0  0
  141.8170   78.7590  220.3040 C   0  0  0  0  0  0  0  0  0  0  0  0
  141.8400   79.5430  221.5670 C   0  0  0  0  0  0  0  0  0  0  0  0
  141.5250   80.9020  221.4760 C   0  0  0  0  0  0  0  0  0  0  0  0
  141.5390   81.6560  222.6270 C   0  0  0  0  0  0  0  0  0  0  0  0
  141.8500   81.1180  223.8560 C   0  0  0  0  0  0  0  0  0  0  0  0
  142.1620   79.7670  223.9410 C   0  0  0  0  0  0  0  0  0  0  0  0
  142.1540   78.9930  222.7920 C   0  0  0  0  0  0  0  0  0  0  0  0
  139.0330   70.9390  223.3630 C   0  0  0  0  0  0  0  0  0  0  0  0
  138.7650   69.5720  223.3210 C   0  0  0  0  0  0  0  0  0  0  0  0
  139.1260   68.7340  224.3750 C   0  0  0  0  0  0  0  0  0  0  0  0
  139.7560   69.2560  225.4750 C   0  0  0  0  0  0  0  0  0  0  0  0
  140.1370   68.4670  226.5530 C   0  0  0  0  0  0  0  0  0  0  0  0
  140.7690   69.0790  227.6230 C   0  0  0  0  0  0  0  0  0  0  0  0
  141.2840   68.1380  229.0310 Cl  0  0  0  0  0  0  0  0  0  0  0  0
  141.0370   70.4280  227.6680 C   0  0  0  0  0  0  0  0  0  0  0  0
  140.6430   71.1850  226.5740 C   0  0  0  0  0  0  0  0  0  0  0  0
  140.0050   70.6130  225.4780 C   0  0  0  0  0  0  0  0  0  0  0  0
  139.6510   71.4100  224.4530 N   0  0  0  0  0  0  0  0  0  0  0  0
  139.5110   73.5370  223.1660 H   0  0  0  0  0  0  0  0  0  0  0  0
  139.2034   73.8581  220.3323 H   0  0  0  0  0  0  0  0  0  0  0  0
  137.5672   74.0481  221.0131 H   0  0  0  0  0  0  0  0  0  0  0  0
  137.2028   76.7564  223.0895 H   0  0  0  0  0  0  0  0  0  0  0  0
  137.4428   78.2989  222.2213 H   0  0  0  0  0  0  0  0  0  0  0  0
  135.3776   76.1677  221.8426 H   0  0  0  0  0  0  0  0  0  0  0  0
  135.2864   77.9511  221.5571 H   0  0  0  0  0  0  0  0  0  0  0  0
  136.3211   75.7683  219.7237 H   0  0  0  0  0  0  0  0  0  0  0  0
  135.1331   77.0541  219.3807 H   0  0  0  0  0  0  0  0  0  0  0  0
  137.1884   77.7346  218.3544 H   0  0  0  0  0  0  0  0  0  0  0  0
  137.0159   78.7273  219.8392 H   0  0  0  0  0  0  0  0  0  0  0  0
  138.8933   76.3940  219.3036 H   0  0  0  0  0  0  0  0  0  0  0  0
  139.5448   78.8000  219.0366 H   0  0  0  0  0  0  0  0  0  0  0  0
  139.1592   79.0660  220.7556 H   0  0  0  0  0  0  0  0  0  0  0  0
  140.7340   77.3880  221.3710 H   0  0  0  0  0  0  0  0  0  0  0  0
  142.7867   78.2592  220.1630 H   0  0  0  0  0  0  0  0  0  0  0  0
  141.6290   79.4313  219.4539 H   0  0  0  0  0  0  0  0  0  0  0  0
  141.2720   81.3577  220.5073 H   0  0  0  0  0  0  0  0  0  0  0  0
  141.2931   82.7263  222.5632 H   0  0  0  0  0  0  0  0  0  0  0  0
  141.8513   81.7488  224.7571 H   0  0  0  0  0  0  0  0  0  0  0  0
  142.4132   79.3157  224.9122 H   0  0  0  0  0  0  0  0  0  0  0  0
  142.4019   77.9233  222.8579 H   0  0  0  0  0  0  0  0  0  0  0  0
  138.2599   69.1470  222.4411 H   0  0  0  0  0  0  0  0  0  0  0  0
  138.9061   67.6574  224.3242 H   0  0  0  0  0  0  0  0  0  0  0  0
  139.9419   67.3844  226.5568 H   0  0  0  0  0  0  0  0  0  0  0  0
  141.5408   70.8855  228.5322 H   0  0  0  0  0  0  0  0  0  0  0  0
  140.8405   72.2671  226.5733 H   0  0  0  0  0  0  0  0  0  0  0  0
  1  2  2  0
  2  3  1  0
  3  4  1  0
  4  5  1  0
  5  6  2  0
  5  7  1  0
  7  8  1  0
  8  9  1  0
  9 10  1  0
 10 11  1  0
 11 12  1  0
 12 13  1  0
 13 14  1  0
 14 15  1  0
 15 16  1  0
 16 17  2  0
 17 18  1  0
 18 19  2  0
 19 20  1  0
 20 21  2  0
  2 22  1  0
 22 23  2  0
 23 24  1  0
 24 25  2  0
 25 26  1  0
 26 27  2  0
 27 28  1  0
 27 29  1  0
 29 30  2  0
 30 31  1  0
 31 32  2  0
 12  7  1  0
 21 16  1  0
 32 22  1  0
 31 25  1  0
  3 33  1  0
  4 34  1  0
  4 35  1  0
  8 36  1  0
  8 37  1  0
  9 38  1  0
  9 39  1  0
 10 40  1  0
 10 41  1  0
 11 42  1  0
 11 43  1  0
 12 44  1  6
 13 45  1  0
 13 46  1  0
 14 47  1  0
 15 48  1  0
 15 49  1  0
 17 50  1  0
 18 51  1  0
 19 52  1  0
 20 53  1  0
 21 54  1  0
 23 55  1  0
 24 56  1  0
 26 57  1  0
 29 58  1  0
 30 59  1  0
M  END
>  <smiles>  (9) 
O=C(NCC(=O)N1CCCC[C@H]1CNCc1ccccc1)c1ccc2cc(Cl)ccc2n1

>  <score_type>  (9) 
oracle

>  <origin>  (9) 
autodockgpu

>  <m_score__min__energy>  (9) 
-9.4000000000000004

>  <m_primary>  (9) 
energy

>  <rmsd>  (9) 
3.059569448378639

>  <m_score__min__rmsd>  (9) 
3.059569448378639

>  <meeko>  (9) 
{"free_energy": -7.81, "intermolecular_energy": -10.19, "internal_energy": -3.0, "cluster_size": 5, "cluster_id": 7, "rank_in_cluster": 5}

>  <energy>  (9) 
-8.93

>  <cluster_rmsd>  (9) 
1.71

>  <cluster>  (9) 
3

$$$$

     RDKit          3D

 59 62  0  0  0  0  0  0  0  0999 V2000
  138.4950   71.7250  220.9930 O   0  0  0  0  0  0  0  0  0  0  0  0
  138.9480   72.1890  222.0670 C   0  0  0  0  0  0  0  0  0  0  0  0
  139.1820   73.5690  222.2980 N   0  0  0  0  0  0  0  0  0  0  0  0
  138.8980   74.5670  221.2560 C   0  0  0  0  0  0  0  0  0  0  0  0
  140.1730   75.2580  220.9380 C   0  0  0  0  0  0  0  0  0  0  0  0
  140.7500   75.9420  221.8340 O   0  0  0  0  0  0  0  0  0  0  0  0
  140.7430   75.1530  219.6430 N   0  0  0  0  0  0  0  0  0  0  0  0
  139.9450   75.1720  218.4230 C   0  0  0  0  0  0  0  0  0  0  0  0
  140.0820   73.8200  217.7490 C   0  0  0  0  0  0  0  0  0  0  0  0
  141.3650   73.1280  218.1700 C   0  0  0  0  0  0  0  0  0  0  0  0
  142.4330   74.1690  218.2730 C   0  0  0  0  0  0  0  0  0  0  0  0
  142.1780   75.0200  219.4860 C   0  0  1  0  0  0  0  0  0  0  0  0
  142.8450   76.3620  219.2780 C   0  0  0  0  0  0  0  0  0  0  0  0
  142.6330   77.1400  220.4710 N   0  0  0  0  0  0  0  0  0  0  0  0
  141.7210   78.2610  220.2220 C   0  0  0  0  0  0  0  0  0  0  0  0
  141.5300   79.0210  221.4850 C   0  0  0  0  0  0  0  0  0  0  0  0
  140.2810   78.9160  222.1060 C   0  0  0  0  0  0  0  0  0  0  0  0
  140.0710   79.6090  223.2760 C   0  0  0  0  0  0  0  0  0  0  0  0
  141.0440   80.3950  223.8510 C   0  0  0  0  0  0  0  0  0  0  0  0
  142.2830   80.4960  223.2300 C   0  0  0  0  0  0  0  0  0  0  0  0
  142.5120   79.8060  222.0510 C   0  0  0  0  0  0  0  0  0  0  0  0
  139.2610   71.2660  223.1690 C   0  0  0  0  0  0  0  0  0  0  0  0
  138.9620   69.9110  223.0480 C   0  0  0  0  0  0  0  0  0  0  0  0
  139.2490   69.0140  224.0770 C   0  0  0  0  0  0  0  0  0  0  0  0
  139.8350   69.4660  225.2300 C   0  0  0  0  0  0  0  0  0  0  0  0
  140.1420   68.6180  226.2860 C   0  0  0  0  0  0  0  0  0  0  0  0
  140.7340   69.1610  227.4140 C   0  0  0  0  0  0  0  0  0  0  0  0
  141.1540   68.1410  228.7990 Cl  0  0  0  0  0  0  0  0  0  0  0  0
  141.0310   70.4990  227.5380 C   0  0  0  0  0  0  0  0  0  0  0  0
  140.7110   71.3170  226.4640 C   0  0  0  0  0  0  0  0  0  0  0  0
  140.1160   70.8150  225.3120 C   0  0  0  0  0  0  0  0  0  0  0  0
  139.8340   71.6690  224.3110 N   0  0  0  0  0  0  0  0  0  0  0  0
  139.5650   73.8980  223.2270 H   0  0  0  0  0  0  0  0  0  0  0  0
  138.5064   74.0694  220.3565 H   0  0  0  0  0  0  0  0  0  0  0  0
  138.1444   75.2878  221.6061 H   0  0  0  0  0  0  0  0  0  0  0  0
  138.8898   75.3599  218.6706 H   0  0  0  0  0  0  0  0  0  0  0  0
  140.2948   75.9698  217.7513 H   0  0  0  0  0  0  0  0  0  0  0  0
  139.2251   73.1900  218.0297 H   0  0  0  0  0  0  0  0  0  0  0  0
  140.1085   73.9732  216.6600 H   0  0  0  0  0  0  0  0  0  0  0  0
  141.2238   72.6390  219.1451 H   0  0  0  0  0  0  0  0  0  0  0  0
  141.6466   72.3600  217.4345 H   0  0  0  0  0  0  0  0  0  0  0  0
  143.4146   73.6812  218.3654 H   0  0  0  0  0  0  0  0  0  0  0  0
  142.4238   74.7986  217.3711 H   0  0  0  0  0  0  0  0  0  0  0  0
  142.5926   74.5689  220.3996 H   0  0  0  0  0  0  0  0  0  0  0  0
  143.9227   76.2233  219.1066 H   0  0  0  0  0  0  0  0  0  0  0  0
  142.4212   76.8736  218.4013 H   0  0  0  0  0  0  0  0  0  0  0  0
  142.2090   76.5490  221.2330 H   0  0  0  0  0  0  0  0  0  0  0  0
  142.1507   78.9224  219.4553 H   0  0  0  0  0  0  0  0  0  0  0  0
  140.7518   77.8793  219.8685 H   0  0  0  0  0  0  0  0  0  0  0  0
  139.4856   78.2942  221.6694 H   0  0  0  0  0  0  0  0  0  0  0  0
  139.0909   79.5323  223.7694 H   0  0  0  0  0  0  0  0  0  0  0  0
  140.8437   80.9351  224.7881 H   0  0  0  0  0  0  0  0  0  0  0  0
  143.0753   81.1187  223.6710 H   0  0  0  0  0  0  0  0  0  0  0  0
  143.4924   79.8856  221.5587 H   0  0  0  0  0  0  0  0  0  0  0  0
  138.4913   69.5418  222.1249 H   0  0  0  0  0  0  0  0  0  0  0  0
  139.0056   67.9473  223.9631 H   0  0  0  0  0  0  0  0  0  0  0  0
  139.9205   67.5421  226.2279 H   0  0  0  0  0  0  0  0  0  0  0  0
  141.5009   70.9017  228.4474 H   0  0  0  0  0  0  0  0  0  0  0  0
  140.9342   72.3924  226.5256 H   0  0  0  0  0  0  0  0  0  0  0  0
  1  2  2  0
  2  3  1  0
  3  4  1  0
  4  5  1  0
  5  6  2  0
  5  7  1  0
  7  8  1  0
  8  9  1  0
  9 10  1  0
 10 11  1  0
 11 12  1  0
 12 13  1  0
 13 14  1  0
 14 15  1  0
 15 16  1  0
 16 17  2  0
 17 18  1  0
 18 19  2  0
 19 20  1  0
 20 21  2  0
  2 22  1  0
 22 23  2  0
 23 24  1  0
 24 25  2  0
 25 26  1  0
 26 27  2  0
 27 28  1  0
 27 29  1  0
 29 30  2  0
 30 31  1  0
 31 32  2  0
 12  7  1  0
 21 16  1  0
 32 22  1  0
 31 25  1  0
  3 33  1  0
  4 34  1  0
  4 35  1  0
  8 36  1  0
  8 37  1  0
  9 38  1  0
  9 39  1  0
 10 40  1  0
 10 41  1  0
 11 42  1  0
 11 43  1  0
 12 44  1  1
 13 45  1  0
 13 46  1  0
 14 47  1  0
 15 48  1  0
 15 49  1  0
 17 50  1  0
 18 51  1  0
 19 52  1  0
 20 53  1  0
 21 54  1  0
 23 55  1  0
 24 56  1  0
 26 57  1  0
 29 58  1  0
 30 59  1  0
M  END
>  <smiles>  (10) 
O=C(NCC(=O)N1CCCC[C@H]1CNCc1ccccc1)c1ccc2cc(Cl)ccc2n1

>  <score_type>  (10) 
oracle

>  <origin>  (10) 
autodockgpu

>  <m_score__min__energy>  (10) 
-9.4000000000000004

>  <m_primary>  (10) 
energy

>  <rmsd>  (10) 
2.256382235650265

>  <m_score__min__rmsd>  (10) 
2.256382235650265

>  <meeko>  (10) 
{"free_energy": -7.96, "intermolecular_energy": -10.35, "internal_energy": -2.8, "cluster_size": 7, "cluster_id": 4, "rank_in_cluster": 7}

>  <energy>  (10) 
-8.93

>  <cluster_rmsd>  (10) 
1.31

>  <cluster>  (10) 
3

$$$$

     RDKit          3D

 59 62  0  0  0  0  0  0  0  0999 V2000
  140.4450   72.3320  220.5990 O   0  0  0  0  0  0  0  0  0  0  0  0
  140.1720   72.7720  221.7420 C   0  0  0  0  0  0  0  0  0  0  0  0
  139.9130   74.1380  222.0240 N   0  0  0  0  0  0  0  0  0  0  0  0
  139.9510   75.1490  220.9560 C   0  0  0  0  0  0  0  0  0  0  0  0
  140.6730   76.3330  221.4860 C   0  0  0  0  0  0  0  0  0  0  0  0
  140.5420   76.6470  222.7060 O   0  0  0  0  0  0  0  0  0  0  0  0
  141.5040   77.1080  220.6370 N   0  0  0  0  0  0  0  0  0  0  0  0
  141.8240   78.5050  220.9010 C   0  0  0  0  0  0  0  0  0  0  0  0
  141.2210   79.3450  219.7910 C   0  0  0  0  0  0  0  0  0  0  0  0
  141.0150   78.5210  218.5340 C   0  0  0  0  0  0  0  0  0  0  0  0
  142.1800   77.5940  218.3990 C   0  0  0  0  0  0  0  0  0  0  0  0
  142.0800   76.5180  219.4440 C   0  0  1  0  0  0  0  0  0  0  0  0
  143.4660   75.9710  219.7030 C   0  0  0  0  0  0  0  0  0  0  0  0
  143.3250   74.8230  220.5610 N   0  0  0  0  0  0  0  0  0  0  0  0
  144.6120   74.1560  220.7760 C   0  0  0  0  0  0  0  0  0  0  0  0
  144.5060   72.7410  220.3310 C   0  0  0  0  0  0  0  0  0  0  0  0
  145.6180   72.1940  219.6830 C   0  0  0  0  0  0  0  0  0  0  0  0
  145.5520   70.8880  219.2580 C   0  0  0  0  0  0  0  0  0  0  0  0
  144.4340   70.1070  219.4500 C   0  0  0  0  0  0  0  0  0  0  0  0
  143.3330   70.6540  220.0940 C   0  0  0  0  0  0  0  0  0  0  0  0
  143.3810   71.9680  220.5290 C   0  0  0  0  0  0  0  0  0  0  0  0
  140.1100   71.8340  222.8740 C   0  0  0  0  0  0  0  0  0  0  0  0
  139.5350   70.5760  222.7050 C   0  0  0  0  0  0  0  0  0  0  0  0
  139.4630   69.6680  223.7600 C   0  0  0  0  0  0  0  0  0  0  0  0
  139.9650   70.0110  224.9890 C   0  0  0  0  0  0  0  0  0  0  0  0
  139.9200   69.1460  226.0740 C   0  0  0  0  0  0  0  0  0  0  0  0
  140.4510   69.5760  227.2790 C   0  0  0  0  0  0  0  0  0  0  0  0
  140.4300   68.5280  228.7060 Cl  0  0  0  0  0  0  0  0  0  0  0  0
  141.0200   70.8170  227.4510 C   0  0  0  0  0  0  0  0  0  0  0  0
  141.0490   71.6550  226.3450 C   0  0  0  0  0  0  0  0  0  0  0  0
  140.5270   71.2650  225.1160 C   0  0  0  0  0  0  0  0  0  0  0  0
  140.5900   72.1320  224.0880 N   0  0  0  0  0  0  0  0  0  0  0  0
  139.6880   74.4470  223.0090 H   0  0  0  0  0  0  0  0  0  0  0  0
  140.4801   74.7485  220.0787 H   0  0  0  0  0  0  0  0  0  0  0  0
  138.9317   75.4238  220.6470 H   0  0  0  0  0  0  0  0  0  0  0  0
  141.4002   78.8078  221.8699 H   0  0  0  0  0  0  0  0  0  0  0  0
  142.9144   78.6460  220.9359 H   0  0  0  0  0  0  0  0  0  0  0  0
  140.2500   79.7391  220.1255 H   0  0  0  0  0  0  0  0  0  0  0  0
  141.9131   80.1682  219.5600 H   0  0  0  0  0  0  0  0  0  0  0  0
  140.0833   77.9418  218.6148 H   0  0  0  0  0  0  0  0  0  0  0  0
  140.9411   79.1758  217.6532 H   0  0  0  0  0  0  0  0  0  0  0  0
  142.1723   77.1369  217.3985 H   0  0  0  0  0  0  0  0  0  0  0  0
  143.1162   78.1552  218.5352 H   0  0  0  0  0  0  0  0  0  0  0  0
  141.4393   75.6857  219.1172 H   0  0  0  0  0  0  0  0  0  0  0  0
  143.9363   75.6749  218.7537 H   0  0  0  0  0  0  0  0  0  0  0  0
  144.1010   76.7336  220.1775 H   0  0  0  0  0  0  0  0  0  0  0  0
  142.9510   75.1040  221.5040 H   0  0  0  0  0  0  0  0  0  0  0  0
  145.3937   74.6674  220.1951 H   0  0  0  0  0  0  0  0  0  0  0  0
  144.8739   74.1905  221.8438 H   0  0  0  0  0  0  0  0  0  0  0  0
  146.5245   72.7946  219.5171 H   0  0  0  0  0  0  0  0  0  0  0  0
  146.4227   70.4517  218.7467 H   0  0  0  0  0  0  0  0  0  0  0  0
  144.4140   69.0650  219.0981 H   0  0  0  0  0  0  0  0  0  0  0  0
  142.4293   70.0486  220.2576 H   0  0  0  0  0  0  0  0  0  0  0  0
  142.5088   72.4017  221.0401 H   0  0  0  0  0  0  0  0  0  0  0  0
  139.1307   70.2945  221.7215 H   0  0  0  0  0  0  0  0  0  0  0  0
  139.0050   68.6796  223.6072 H   0  0  0  0  0  0  0  0  0  0  0  0
  139.4741   68.1449  225.9792 H   0  0  0  0  0  0  0  0  0  0  0  0
  141.4331   71.1307  228.4210 H   0  0  0  0  0  0  0  0  0  0  0  0
  141.4970   72.6549  226.4430 H   0  0  0  0  0  0  0  0  0  0  0  0
  1  2  2  0
  2  3  1  0
  3  4  1  0
  4  5  1  0
  5  6  2  0
  5  7  1  0
  7  8  1  0
  8  9  1  0
  9 10  1  0
 10 11  1  0
 11 12  1  0
 12 13  1  0
 13 14  1  0
 14 15  1  0
 15 16  1  0
 16 17  2  0
 17 18  1  0
 18 19  2  0
 19 20  1  0
 20 21  2  0
  2 22  1  0
 22 23  2  0
 23 24  1  0
 24 25  2  0
 25 26  1  0
 26 27  2  0
 27 28  1  0
 27 29  1  0
 29 30  2  0
 30 31  1  0
 31 32  2  0
 12  7  1  0
 21 16  1  0
 32 22  1  0
 31 25  1  0
  3 33  1  0
  4 34  1  0
  4 35  1  0
  8 36  1  0
  8 37  1  0
  9 38  1  0
  9 39  1  0
 10 40  1  0
 10 41  1  0
 11 42  1  0
 11 43  1  0
 12 44  1  6
 13 45  1  0
 13 46  1  0
 14 47  1  0
 15 48  1  0
 15 49  1  0
 17 50  1  0
 18 51  1  0
 19 52  1  0
 20 53  1  0
 21 54  1  0
 23 55  1  0
 24 56  1  0
 26 57  1  0
 29 58  1  0
 30 59  1  0
M  END
>  <smiles>  (11) 
O=C(NCC(=O)N1CCCC[C@H]1CNCc1ccccc1)c1ccc2cc(Cl)ccc2n1

>  <score_type>  (11) 
oracle

>  <origin>  (11) 
autodockgpu

>  <m_score__min__energy>  (11) 
-9.4000000000000004

>  <m_primary>  (11) 
energy

>  <rmsd>  (11) 
5.780372286485533

>  <m_score__min__rmsd>  (11) 
5.780372286485533

>  <meeko>  (11) 
{"free_energy": -8.47, "intermolecular_energy": -10.85, "internal_energy": -2.63, "cluster_size": 6, "cluster_id": 1, "rank_in_cluster": 2}

>  <energy>  (11) 
-8.93

>  <cluster_rmsd>  (11) 
1.62

>  <cluster>  (11) 
3

$$$$

     RDKit          3D

 59 62  0  0  0  0  0  0  0  0999 V2000
  138.3790   73.2160  221.6050 O   0  0  0  0  0  0  0  0  0  0  0  0
  137.9350   74.3320  221.9660 C   0  0  0  0  0  0  0  0  0  0  0  0
  136.5700   74.5860  222.2570 N   0  0  0  0  0  0  0  0  0  0  0  0
  135.5640   73.5190  222.1460 C   0  0  0  0  0  0  0  0  0  0  0  0
  135.6310   72.7100  223.3890 C   0  0  0  0  0  0  0  0  0  0  0  0
  135.5430   73.2870  224.5130 O   0  0  0  0  0  0  0  0  0  0  0  0
  135.7890   71.3010  223.3210 N   0  0  0  0  0  0  0  0  0  0  0  0
  135.0920   70.4720  222.3460 C   0  0  0  0  0  0  0  0  0  0  0  0
  134.1470   69.5540  223.0970 C   0  0  0  0  0  0  0  0  0  0  0  0
  134.6050   69.3530  224.5300 C   0  0  0  0  0  0  0  0  0  0  0  0
  136.0970   69.2610  224.5230 C   0  0  0  0  0  0  0  0  0  0  0  0
  136.6750   70.6210  224.2450 C   0  0  1  0  0  0  0  0  0  0  0  0
  138.0610   70.4440  223.6650 C   0  0  0  0  0  0  0  0  0  0  0  0
  138.8710   71.5370  224.1380 N   0  0  0  0  0  0  0  0  0  0  0  0
  140.2750   71.1410  224.2730 C   0  0  0  0  0  0  0  0  0  0  0  0
  140.5400   70.7600  225.6850 C   0  0  0  0  0  0  0  0  0  0  0  0
  140.4800   69.3980  225.9970 C   0  0  0  0  0  0  0  0  0  0  0  0
  140.7190   69.0130  227.2960 C   0  0  0  0  0  0  0  0  0  0  0  0
  141.0120   69.9190  228.2910 C   0  0  0  0  0  0  0  0  0  0  0  0
  141.0700   71.2700  227.9760 C   0  0  0  0  0  0  0  0  0  0  0  0
  140.8320   71.6770  226.6730 C   0  0  0  0  0  0  0  0  0  0  0  0
  138.8680   75.4620  222.1060 C   0  0  0  0  0  0  0  0  0  0  0  0
  140.1920   75.3260  221.6950 C   0  0  0  0  0  0  0  0  0  0  0  0
  141.0970   76.3800  221.8160 C   0  0  0  0  0  0  0  0  0  0  0  0
  140.6840   77.5740  222.3470 C   0  0  0  0  0  0  0  0  0  0  0  0
  141.5420   78.6560  222.4900 C   0  0  0  0  0  0  0  0  0  0  0  0
  141.0390   79.8250  223.0370 C   0  0  0  0  0  0  0  0  0  0  0  0
  142.0730   81.2460  223.2510 Cl  0  0  0  0  0  0  0  0  0  0  0  0
  139.7320   79.9640  223.4440 C   0  0  0  0  0  0  0  0  0  0  0  0
  138.9030   78.8630  223.2850 C   0  0  0  0  0  0  0  0  0  0  0  0
  139.3650   77.6690  222.7420 C   0  0  0  0  0  0  0  0  0  0  0  0
  138.5020   76.6440  222.6190 N   0  0  0  0  0  0  0  0  0  0  0  0
  136.2580   75.5500  222.5570 H   0  0  0  0  0  0  0  0  0  0  0  0
  134.5613   73.9582  222.0376 H   0  0  0  0  0  0  0  0  0  0  0  0
  135.7614   72.8912  221.2646 H   0  0  0  0  0  0  0  0  0  0  0  0
  134.5214   71.1096  221.6547 H   0  0  0  0  0  0  0  0  0  0  0  0
  135.8139   69.8811  221.7631 H   0  0  0  0  0  0  0  0  0  0  0  0
  133.1409   69.9988  223.1003 H   0  0  0  0  0  0  0  0  0  0  0  0
  134.1355   68.5762  222.5932 H   0  0  0  0  0  0  0  0  0  0  0  0
  134.2853   70.2048  225.1482 H   0  0  0  0  0  0  0  0  0  0  0  0
  134.1650   68.4363  224.9495 H   0  0  0  0  0  0  0  0  0  0  0  0
  136.4483   68.9053  225.5028 H   0  0  0  0  0  0  0  0  0  0  0  0
  136.4201   68.5557  223.7431 H   0  0  0  0  0  0  0  0  0  0  0  0
  136.7620   71.2255  225.1599 H   0  0  0  0  0  0  0  0  0  0  0  0
  138.4887   69.4874  223.9994 H   0  0  0  0  0  0  0  0  0  0  0  0
  138.0230   70.4373  222.5657 H   0  0  0  0  0  0  0  0  0  0  0  0
  138.8310   72.3480  223.4680 H   0  0  0  0  0  0  0  0  0  0  0  0
  140.4806   70.2835  223.6154 H   0  0  0  0  0  0  0  0  0  0  0  0
  140.9257   71.9808  223.9877 H   0  0  0  0  0  0  0  0  0  0  0  0
  140.2473   68.6525  225.2224 H   0  0  0  0  0  0  0  0  0  0  0  0
  140.6745   67.9434  227.5489 H   0  0  0  0  0  0  0  0  0  0  0  0
  141.1973   69.5774  229.3200 H   0  0  0  0  0  0  0  0  0  0  0  0
  141.3030   72.0113  228.7546 H   0  0  0  0  0  0  0  0  0  0  0  0
  140.8766   72.7473  226.4229 H   0  0  0  0  0  0  0  0  0  0  0  0
  140.5296   74.3703  221.2675 H   0  0  0  0  0  0  0  0  0  0  0  0
  142.1388   76.2535  221.4864 H   0  0  0  0  0  0  0  0  0  0  0  0
  142.5943   78.5868  222.1770 H   0  0  0  0  0  0  0  0  0  0  0  0
  139.3613   80.9053  223.8758 H   0  0  0  0  0  0  0  0  0  0  0  0
  137.8508   78.9365  223.5972 H   0  0  0  0  0  0  0  0  0  0  0  0
  1  2  2  0
  2  3  1  0
  3  4  1  0
  4  5  1  0
  5  6  2  0
  5  7  1  0
  7  8  1  0
  8  9  1  0
  9 10  1  0
 10 11  1  0
 11 12  1  0
 12 13  1  0
 13 14  1  0
 14 15  1  0
 15 16  1  0
 16 17  2  0
 17 18  1  0
 18 19  2  0
 19 20  1  0
 20 21  2  0
  2 22  1  0
 22 23  2  0
 23 24  1  0
 24 25  2  0
 25 26  1  0
 26 27  2  0
 27 28  1  0
 27 29  1  0
 29 30  2  0
 30 31  1  0
 31 32  2  0
 12  7  1  0
 21 16  1  0
 32 22  1  0
 31 25  1  0
  3 33  1  0
  4 34  1  0
  4 35  1  0
  8 36  1  0
  8 37  1  0
  9 38  1  0
  9 39  1  0
 10 40  1  0
 10 41  1  0
 11 42  1  0
 11 43  1  0
 12 44  1  1
 13 45  1  0
 13 46  1  0
 14 47  1  0
 15 48  1  0
 15 49  1  0
 17 50  1  0
 18 51  1  0
 19 52  1  0
 20 53  1  0
 21 54  1  0
 23 55  1  0
 24 56  1  0
 26 57  1  0
 29 58  1  0
 30 59  1  0
M  END
>  <smiles>  (12) 
O=C(NCC(=O)N1CCCC[C@H]1CNCc1ccccc1)c1ccc2cc(Cl)ccc2n1

>  <score_type>  (12) 
oracle

>  <origin>  (12) 
autodockgpu

>  <m_score__min__energy>  (12) 
-9.4000000000000004

>  <m_primary>  (12) 
energy

>  <rmsd>  (12) 
9.350731664059381

>  <m_score__min__rmsd>  (12) 
9.350731664059381

>  <meeko>  (12) 
{"free_energy": -7.85, "intermolecular_energy": -10.24, "internal_energy": -2.87, "cluster_size": 11, "cluster_id": 3, "rank_in_cluster": 10}

>  <energy>  (12) 
-8.86

>  <cluster_rmsd>  (12) 
0.24

>  <cluster>  (12) 
3

$$$$

     RDKit          3D

 59 62  0  0  0  0  0  0  0  0999 V2000
  142.5840   79.5460  217.7170 O   0  0  0  0  0  0  0  0  0  0  0  0
  142.1740   78.6260  218.4660 C   0  0  0  0  0  0  0  0  0  0  0  0
  141.1260   78.7810  219.4090 N   0  0  0  0  0  0  0  0  0  0  0  0
  140.4400   80.0720  219.5700 C   0  0  0  0  0  0  0  0  0  0  0  0
  141.2130   80.8710  220.5540 C   0  0  0  0  0  0  0  0  0  0  0  0
  141.7890   81.9340  220.1770 O   0  0  0  0  0  0  0  0  0  0  0  0
  141.3050   80.4520  221.9060 N   0  0  0  0  0  0  0  0  0  0  0  0
  140.9320   81.3060  223.0280 C   0  0  0  0  0  0  0  0  0  0  0  0
  142.1810   81.5900  223.8390 C   0  0  0  0  0  0  0  0  0  0  0  0
  143.2280   80.5140  223.6250 C   0  0  0  0  0  0  0  0  0  0  0  0
  142.5210   79.2000  223.5360 C   0  0  0  0  0  0  0  0  0  0  0  0
  141.7850   79.1220  222.2270 C   0  0  1  0  0  0  0  0  0  0  0  0
  140.6480   78.1360  222.3740 C   0  0  0  0  0  0  0  0  0  0  0  0
  141.1110   76.8650  221.8790 N   0  0  0  0  0  0  0  0  0  0  0  0
  140.0780   76.1930  221.0860 C   0  0  0  0  0  0  0  0  0  0  0  0
  140.4880   74.7830  220.8490 C   0  0  0  0  0  0  0  0  0  0  0  0
  140.5650   74.3600  219.5190 C   0  0  0  0  0  0  0  0  0  0  0  0
  140.9400   73.0610  219.2660 C   0  0  0  0  0  0  0  0  0  0  0  0
  141.2400   72.1710  220.2730 C   0  0  0  0  0  0  0  0  0  0  0  0
  141.1610   72.5970  221.5930 C   0  0  0  0  0  0  0  0  0  0  0  0
  140.7850   73.9010  221.8670 C   0  0  0  0  0  0  0  0  0  0  0  0
  142.7990   77.2980  218.3760 C   0  0  0  0  0  0  0  0  0  0  0  0
  143.0980   76.7510  217.1290 C   0  0  0  0  0  0  0  0  0  0  0  0
  143.6920   75.4950  217.0160 C   0  0  0  0  0  0  0  0  0  0  0  0
  143.9900   74.7780  218.1460 C   0  0  0  0  0  0  0  0  0  0  0  0
  144.5800   73.5230  218.0910 C   0  0  0  0  0  0  0  0  0  0  0  0
  144.8460   72.8700  219.2830 C   0  0  0  0  0  0  0  0  0  0  0  0
  145.5980   71.2670  219.2920 Cl  0  0  0  0  0  0  0  0  0  0  0  0
  144.5530   73.4050  220.5170 C   0  0  0  0  0  0  0  0  0  0  0  0
  143.9640   74.6610  220.5330 C   0  0  0  0  0  0  0  0  0  0  0  0
  143.6790   75.3530  219.3610 C   0  0  0  0  0  0  0  0  0  0  0  0
  143.1070   76.5680  219.4560 N   0  0  0  0  0  0  0  0  0  0  0  0
  140.8260   77.9670  220.0120 H   0  0  0  0  0  0  0  0  0  0  0  0
  140.4020   80.5995  218.6055 H   0  0  0  0  0  0  0  0  0  0  0  0
  139.4084   79.9204  219.9204 H   0  0  0  0  0  0  0  0  0  0  0  0
  140.5079   82.2494  222.6537 H   0  0  0  0  0  0  0  0  0  0  0  0
  140.1772   80.8063  223.6529 H   0  0  0  0  0  0  0  0  0  0  0  0
  142.5959   82.5611  223.5313 H   0  0  0  0  0  0  0  0  0  0  0  0
  141.9092   81.6056  224.9048 H   0  0  0  0  0  0  0  0  0  0  0  0
  143.7778   80.7071  222.6920 H   0  0  0  0  0  0  0  0  0  0  0  0
  143.9479   80.5075  224.4567 H   0  0  0  0  0  0  0  0  0  0  0  0
  143.2549   78.3827  223.5947 H   0  0  0  0  0  0  0  0  0  0  0  0
  141.8068   79.1076  224.3675 H   0  0  0  0  0  0  0  0  0  0  0  0
  142.4347   78.7749  221.4101 H   0  0  0  0  0  0  0  0  0  0  0  0
  140.3635   78.0458  223.4327 H   0  0  0  0  0  0  0  0  0  0  0  0
  139.7664   78.4740  221.8096 H   0  0  0  0  0  0  0  0  0  0  0  0
  141.9550   76.9890  221.2630 H   0  0  0  0  0  0  0  0  0  0  0  0
  139.1234   76.2123  221.6322 H   0  0  0  0  0  0  0  0  0  0  0  0
  139.9544   76.7103  220.1231 H   0  0  0  0  0  0  0  0  0  0  0  0
  140.3313   75.0495  218.6944 H   0  0  0  0  0  0  0  0  0  0  0  0
  141.0025   72.7209  218.2218 H   0  0  0  0  0  0  0  0  0  0  0  0
  141.5376   71.1389  220.0360 H   0  0  0  0  0  0  0  0  0  0  0  0
  141.3954   71.9036  222.4141 H   0  0  0  0  0  0  0  0  0  0  0  0
  140.7222   74.2386  222.9120 H   0  0  0  0  0  0  0  0  0  0  0  0
  142.8610   77.3205  216.2183 H   0  0  0  0  0  0  0  0  0  0  0  0
  143.9210   75.0804  216.0232 H   0  0  0  0  0  0  0  0  0  0  0  0
  144.8299   73.0589  217.1255 H   0  0  0  0  0  0  0  0  0  0  0  0
  144.7755   72.8618  221.4473 H   0  0  0  0  0  0  0  0  0  0  0  0
  143.7154   75.1225  221.5001 H   0  0  0  0  0  0  0  0  0  0  0  0
  1  2  2  0
  2  3  1  0
  3  4  1  0
  4  5  1  0
  5  6  2  0
  5  7  1  0
  7  8  1  0
  8  9  1  0
  9 10  1  0
 10 11  1  0
 11 12  1  0
 12 13  1  0
 13 14  1  0
 14 15  1  0
 15 16  1  0
 16 17  2  0
 17 18  1  0
 18 19  2  0
 19 20  1  0
 20 21  2  0
  2 22  1  0
 22 23  2  0
 23 24  1  0
 24 25  2  0
 25 26  1  0
 26 27  2  0
 27 28  1  0
 27 29  1  0
 29 30  2  0
 30 31  1  0
 31 32  2  0
 12  7  1  0
 21 16  1  0
 32 22  1  0
 31 25  1  0
  3 33  1  0
  4 34  1  0
  4 35  1  0
  8 36  1  0
  8 37  1  0
  9 38  1  0
  9 39  1  0
 10 40  1  0
 10 41  1  0
 11 42  1  0
 11 43  1  0
 12 44  1  6
 13 45  1  0
 13 46  1  0
 14 47  1  0
 15 48  1  0
 15 49  1  0
 17 50  1  0
 18 51  1  0
 19 52  1  0
 20 53  1  0
 21 54  1  0
 23 55  1  0
 24 56  1  0
 26 57  1  0
 29 58  1  0
 30 59  1  0
M  END
>  <smiles>  (13) 
O=C(NCC(=O)N1CCCC[C@H]1CNCc1ccccc1)c1ccc2cc(Cl)ccc2n1

>  <score_type>  (13) 
oracle

>  <origin>  (13) 
autodockgpu

>  <m_score__min__energy>  (13) 
-9.4000000000000004

>  <m_primary>  (13) 
energy

>  <rmsd>  (13) 
8.231094515057066

>  <m_score__min__rmsd>  (13) 
8.231094515057066

>  <meeko>  (13) 
{"free_energy": -6.3, "intermolecular_energy": -8.69, "internal_energy": -4.56, "cluster_size": 1, "cluster_id": 12, "rank_in_cluster": 1}

>  <energy>  (13) 
-8.42

>  <cluster_rmsd>  (13) 
1.15

>  <cluster>  (13) 
3

$$$$

     RDKit          3D

 59 62  0  0  0  0  0  0  0  0999 V2000
  141.5040   72.8100  221.1510 O   0  0  0  0  0  0  0  0  0  0  0  0
  140.7120   73.6420  221.6570 C   0  0  0  0  0  0  0  0  0  0  0  0
  139.5420   73.2880  222.3750 N   0  0  0  0  0  0  0  0  0  0  0  0
  139.1760   71.8780  222.5720 C   0  0  0  0  0  0  0  0  0  0  0  0
  137.7190   71.8270  222.8520 C   0  0  0  0  0  0  0  0  0  0  0  0
  137.0240   72.8780  222.7240 O   0  0  0  0  0  0  0  0  0  0  0  0
  137.1060   70.6130  223.2570 N   0  0  0  0  0  0  0  0  0  0  0  0
  136.0200   69.9860  222.5120 C   0  0  0  0  0  0  0  0  0  0  0  0
  134.7800   70.0030  223.3850 C   0  0  0  0  0  0  0  0  0  0  0  0
  135.1470   70.0950  224.8540 C   0  0  0  0  0  0  0  0  0  0  0  0
  136.3640   69.2540  225.0740 C   0  0  0  0  0  0  0  0  0  0  0  0
  137.5540   69.9340  224.4570 C   0  0  1  0  0  0  0  0  0  0  0  0
  138.6000   68.8860  224.1520 C   0  0  0  0  0  0  0  0  0  0  0  0
  138.8390   68.1470  225.3650 N   0  0  0  0  0  0  0  0  0  0  0  0
  140.2340   68.2680  225.7980 C   0  0  0  0  0  0  0  0  0  0  0  0
  140.4290   69.5930  226.4440 C   0  0  0  0  0  0  0  0  0  0  0  0
  139.8620   69.7710  227.7090 C   0  0  0  0  0  0  0  0  0  0  0  0
  140.0230   70.9870  228.3340 C   0  0  0  0  0  0  0  0  0  0  0  0
  140.7200   72.0250  227.7570 C   0  0  0  0  0  0  0  0  0  0  0  0
  141.2810   71.8420  226.4990 C   0  0  0  0  0  0  0  0  0  0  0  0
  141.1290   70.6260  225.8550 C   0  0  0  0  0  0  0  0  0  0  0  0
  140.9960   75.0790  221.5120 C   0  0  0  0  0  0  0  0  0  0  0  0
  141.8280   75.5240  220.4860 C   0  0  0  0  0  0  0  0  0  0  0  0
  142.1130   76.8790  220.3250 C   0  0  0  0  0  0  0  0  0  0  0  0
  141.5690   77.7960  221.1870 C   0  0  0  0  0  0  0  0  0  0  0  0
  141.8200   79.1570  221.0740 C   0  0  0  0  0  0  0  0  0  0  0  0
  141.2280   80.0130  221.9890 C   0  0  0  0  0  0  0  0  0  0  0  0
  141.5010   81.7600  221.9060 Cl  0  0  0  0  0  0  0  0  0  0  0  0
  140.4060   79.5780  223.0030 C   0  0  0  0  0  0  0  0  0  0  0  0
  140.1770   78.2120  223.0860 C   0  0  0  0  0  0  0  0  0  0  0  0
  140.7510   77.3160  222.1890 C   0  0  0  0  0  0  0  0  0  0  0  0
  140.4840   76.0050  222.3320 N   0  0  0  0  0  0  0  0  0  0  0  0
  138.9140   74.0370  222.7770 H   0  0  0  0  0  0  0  0  0  0  0  0
  139.4037   71.3010  221.6636 H   0  0  0  0  0  0  0  0  0  0  0  0
  139.7452   71.4444  223.4075 H   0  0  0  0  0  0  0  0  0  0  0  0
  135.8312   70.5469  221.5848 H   0  0  0  0  0  0  0  0  0  0  0  0
  136.2861   68.9520  222.2473 H   0  0  0  0  0  0  0  0  0  0  0  0
  134.1619   70.8717  223.1141 H   0  0  0  0  0  0  0  0  0  0  0  0
  134.2251   69.0674  223.2216 H   0  0  0  0  0  0  0  0  0  0  0  0
  135.3610   71.1403  225.1216 H   0  0  0  0  0  0  0  0  0  0  0  0
  134.3158   69.7400  225.4810 H   0  0  0  0  0  0  0  0  0  0  0  0
  136.5323   69.1260  226.1535 H   0  0  0  0  0  0  0  0  0  0  0  0
  136.2201   68.2677  224.6088 H   0  0  0  0  0  0  0  0  0  0  0  0
  138.0017   70.6757  225.1349 H   0  0  0  0  0  0  0  0  0  0  0  0
  138.2352   68.2090  223.3655 H   0  0  0  0  0  0  0  0  0  0  0  0
  139.5281   69.3571  223.7961 H   0  0  0  0  0  0  0  0  0  0  0  0
  138.2310   68.5050  226.1460 H   0  0  0  0  0  0  0  0  0  0  0  0
  140.4670   67.4693  226.5176 H   0  0  0  0  0  0  0  0  0  0  0  0
  140.9015   68.1775  224.9283 H   0  0  0  0  0  0  0  0  0  0  0  0
  139.3004   68.9588  228.1937 H   0  0  0  0  0  0  0  0  0  0  0  0
  139.5791   71.1347  229.3296 H   0  0  0  0  0  0  0  0  0  0  0  0
  140.8310   72.9842  228.2838 H   0  0  0  0  0  0  0  0  0  0  0  0
  141.8417   72.6573  226.0184 H   0  0  0  0  0  0  0  0  0  0  0  0
  141.5728   70.4811  224.8590 H   0  0  0  0  0  0  0  0  0  0  0  0
  142.2674   74.7931  219.7912 H   0  0  0  0  0  0  0  0  0  0  0  0
  142.7720   77.2113  219.5093 H   0  0  0  0  0  0  0  0  0  0  0  0
  142.4723   79.5459  220.2783 H   0  0  0  0  0  0  0  0  0  0  0  0
  139.9509   80.2815  223.7158 H   0  0  0  0  0  0  0  0  0  0  0  0
  139.5238   77.8266  223.8827 H   0  0  0  0  0  0  0  0  0  0  0  0
  1  2  2  0
  2  3  1  0
  3  4  1  0
  4  5  1  0
  5  6  2  0
  5  7  1  0
  7  8  1  0
  8  9  1  0
  9 10  1  0
 10 11  1  0
 11 12  1  0
 12 13  1  0
 13 14  1  0
 14 15  1  0
 15 16  1  0
 16 17  2  0
 17 18  1  0
 18 19  2  0
 19 20  1  0
 20 21  2  0
  2 22  1  0
 22 23  2  0
 23 24  1  0
 24 25  2  0
 25 26  1  0
 26 27  2  0
 27 28  1  0
 27 29  1  0
 29 30  2  0
 30 31  1  0
 31 32  2  0
 12  7  1  0
 21 16  1  0
 32 22  1  0
 31 25  1  0
  3 33  1  0
  4 34  1  0
  4 35  1  0
  8 36  1  0
  8 37  1  0
  9 38  1  0
  9 39  1  0
 10 40  1  0
 10 41  1  0
 11 42  1  0
 11 43  1  0
 12 44  1  1
 13 45  1  0
 13 46  1  0
 14 47  1  0
 15 48  1  0
 15 49  1  0
 17 50  1  0
 18 51  1  0
 19 52  1  0
 20 53  1  0
 21 54  1  0
 23 55  1  0
 24 56  1  0
 26 57  1  0
 29 58  1  0
 30 59  1  0
M  END
>  <smiles>  (14) 
O=C(NCC(=O)N1CCCC[C@H]1CNCc1ccccc1)c1ccc2cc(Cl)ccc2n1

>  <score_type>  (14) 
oracle

>  <origin>  (14) 
autodockgpu

>  <m_score__min__energy>  (14) 
-9.4000000000000004

>  <m_primary>  (14) 
energy

>  <rmsd>  (14) 
9.563224070586985

>  <m_score__min__rmsd>  (14) 
9.563224070586985

>  <meeko>  (14) 
{"free_energy": -8.96, "intermolecular_energy": -11.35, "internal_energy": -2.54, "cluster_size": 11, "cluster_id": 3, "rank_in_cluster": 1}

>  <energy>  (14) 
-8.41

>  <cluster_rmsd>  (14) 
1.49

>  <cluster>  (14) 
3

$$$$

     RDKit          3D

 59 62  0  0  0  0  0  0  0  0999 V2000
  135.5740   74.0060  222.0180 O   0  0  0  0  0  0  0  0  0  0  0  0
  136.7880   74.0540  222.3330 C   0  0  0  0  0  0  0  0  0  0  0  0
  137.5940   72.9100  222.5630 N   0  0  0  0  0  0  0  0  0  0  0  0
  137.0330   71.5560  222.4420 C   0  0  0  0  0  0  0  0  0  0  0  0
  137.3480   70.8260  223.6960 C   0  0  0  0  0  0  0  0  0  0  0  0
  136.4090   70.5130  224.4860 O   0  0  0  0  0  0  0  0  0  0  0  0
  138.6880   70.4800  224.0090 N   0  0  0  0  0  0  0  0  0  0  0  0
  139.1200   69.1050  224.2280 C   0  0  0  0  0  0  0  0  0  0  0  0
  139.5650   68.9760  225.6720 C   0  0  0  0  0  0  0  0  0  0  0  0
  139.9730   70.3220  226.2410 C   0  0  0  0  0  0  0  0  0  0  0  0
  140.6910   71.0720  225.1660 C   0  0  0  0  0  0  0  0  0  0  0  0
  139.7010   71.5110  224.1230 C   0  0  1  0  0  0  0  0  0  0  0  0
  140.4380   71.7190  222.8190 C   0  0  0  0  0  0  0  0  0  0  0  0
  140.5850   73.1390  222.6260 N   0  0  0  0  0  0  0  0  0  0  0  0
  140.6810   73.4770  221.2030 C   0  0  0  0  0  0  0  0  0  0  0  0
  142.1150   73.6140  220.8330 C   0  0  0  0  0  0  0  0  0  0  0  0
  142.5520   74.8860  220.4510 C   0  0  0  0  0  0  0  0  0  0  0  0
  143.8730   75.0460  220.1000 C   0  0  0  0  0  0  0  0  0  0  0  0
  144.7710   74.0020  220.1140 C   0  0  0  0  0  0  0  0  0  0  0  0
  144.3310   72.7400  220.4950 C   0  0  0  0  0  0  0  0  0  0  0  0
  143.0040   72.5600  220.8500 C   0  0  0  0  0  0  0  0  0  0  0  0
  137.4380   75.3670  222.4770 C   0  0  0  0  0  0  0  0  0  0  0  0
  136.6620   76.5210  222.5740 C   0  0  0  0  0  0  0  0  0  0  0  0
  137.2510   77.7770  222.7120 C   0  0  0  0  0  0  0  0  0  0  0  0
  138.6170   77.8870  222.7540 C   0  0  0  0  0  0  0  0  0  0  0  0
  139.2560   79.1120  222.8890 C   0  0  0  0  0  0  0  0  0  0  0  0
  140.6410   79.1300  222.9220 C   0  0  0  0  0  0  0  0  0  0  0  0
  141.5250   80.6540  223.0930 Cl  0  0  0  0  0  0  0  0  0  0  0  0
  141.4110   77.9930  222.8280 C   0  0  0  0  0  0  0  0  0  0  0  0
  140.7390   76.7870  222.6940 C   0  0  0  0  0  0  0  0  0  0  0  0
  139.3500   76.7220  222.6550 C   0  0  0  0  0  0  0  0  0  0  0  0
  138.7680   75.5160  222.5230 N   0  0  0  0  0  0  0  0  0  0  0  0
  138.6120   73.0170  222.8260 H   0  0  0  0  0  0  0  0  0  0  0  0
  135.9431   71.6124  222.3045 H   0  0  0  0  0  0  0  0  0  0  0  0
  137.4632   71.0357  221.5735 H   0  0  0  0  0  0  0  0  0  0  0  0
  138.2851   68.4161  224.0320 H   0  0  0  0  0  0  0  0  0  0  0  0
  139.9484   68.8529  223.5497 H   0  0  0  0  0  0  0  0  0  0  0  0
  138.7347   68.5706  226.2688 H   0  0  0  0  0  0  0  0  0  0  0  0
  140.4341   68.3028  225.7106 H   0  0  0  0  0  0  0  0  0  0  0  0
  139.0799   70.8818  226.5557 H   0  0  0  0  0  0  0  0  0  0  0  0
  140.6241   70.1880  227.1174 H   0  0  0  0  0  0  0  0  0  0  0  0
  141.1841   71.9545  225.5997 H   0  0  0  0  0  0  0  0  0  0  0  0
  141.4491   70.4217  224.7051 H   0  0  0  0  0  0  0  0  0  0  0  0
  139.2117   72.4583  224.3936 H   0  0  0  0  0  0  0  0  0  0  0  0
  141.4281   71.2421  222.8670 H   0  0  0  0  0  0  0  0  0  0  0  0
  139.8809   71.2702  221.9834 H   0  0  0  0  0  0  0  0  0  0  0  0
  139.7580   73.6570  223.0220 H   0  0  0  0  0  0  0  0  0  0  0  0
  140.2199   72.6790  220.6026 H   0  0  0  0  0  0  0  0  0  0  0  0
  140.1555   74.4239  221.0099 H   0  0  0  0  0  0  0  0  0  0  0  0
  141.8568   75.7382  220.4315 H   0  0  0  0  0  0  0  0  0  0  0  0
  144.2242   76.0435  219.7974 H   0  0  0  0  0  0  0  0  0  0  0  0
  145.8206   74.1645  219.8279 H   0  0  0  0  0  0  0  0  0  0  0  0
  145.0304   71.8912  220.5145 H   0  0  0  0  0  0  0  0  0  0  0  0
  142.6542   71.5612  221.1500 H   0  0  0  0  0  0  0  0  0  0  0  0
  135.5655   76.4391  222.5411 H   0  0  0  0  0  0  0  0  0  0  0  0
  136.6222   78.6764  222.7869 H   0  0  0  0  0  0  0  0  0  0  0  0
  138.6776   80.0444  222.9678 H   0  0  0  0  0  0  0  0  0  0  0  0
  142.5096   78.0387  222.8578 H   0  0  0  0  0  0  0  0  0  0  0  0
  141.3204   75.8564  222.6164 H   0  0  0  0  0  0  0  0  0  0  0  0
  1  2  2  0
  2  3  1  0
  3  4  1  0
  4  5  1  0
  5  6  2  0
  5  7  1  0
  7  8  1  0
  8  9  1  0
  9 10  1  0
 10 11  1  0
 11 12  1  0
 12 13  1  0
 13 14  1  0
 14 15  1  0
 15 16  1  0
 16 17  2  0
 17 18  1  0
 18 19  2  0
 19 20  1  0
 20 21  2  0
  2 22  1  0
 22 23  2  0
 23 24  1  0
 24 25  2  0
 25 26  1  0
 26 27  2  0
 27 28  1  0
 27 29  1  0
 29 30  2  0
 30 31  1  0
 31 32  2  0
 12  7  1  0
 21 16  1  0
 32 22  1  0
 31 25  1  0
  3 33  1  0
  4 34  1  0
  4 35  1  0
  8 36  1  0
  8 37  1  0
  9 38  1  0
  9 39  1  0
 10 40  1  0
 10 41  1  0
 11 42  1  0
 11 43  1  0
 12 44  1  1
 13 45  1  0
 13 46  1  0
 14 47  1  0
 15 48  1  0
 15 49  1  0
 17 50  1  0
 18 51  1  0
 19 52  1  0
 20 53  1  0
 21 54  1  0
 23 55  1  0
 24 56  1  0
 26 57  1  0
 29 58  1  0
 30 59  1  0
M  END
>  <smiles>  (15) 
O=C(NCC(=O)N1CCCC[C@H]1CNCc1ccccc1)c1ccc2cc(Cl)ccc2n1

>  <score_type>  (15) 
oracle

>  <origin>  (15) 
autodockgpu

>  <m_score__min__energy>  (15) 
-9.4000000000000004

>  <m_primary>  (15) 
energy

>  <rmsd>  (15) 
8.100328879454734

>  <m_score__min__rmsd>  (15) 
8.100328879454734

>  <meeko>  (15) 
{"free_energy": -8.01, "intermolecular_energy": -10.39, "internal_energy": -3.65, "cluster_size": 3, "cluster_id": 8, "rank_in_cluster": 2}

>  <energy>  (15) 
-8.23

>  <cluster_rmsd>  (15) 
1.06

>  <cluster>  (15) 
3

$$$$

     RDKit          3D

 59 62  0  0  0  0  0  0  0  0999 V2000
  136.4930   75.1460  221.1810 O   0  0  0  0  0  0  0  0  0  0  0  0
  137.5730   75.1400  221.8210 C   0  0  0  0  0  0  0  0  0  0  0  0
  138.2620   73.9600  222.2010 N   0  0  0  0  0  0  0  0  0  0  0  0
  137.7320   72.6320  221.8560 C   0  0  0  0  0  0  0  0  0  0  0  0
  138.1120   71.7010  222.9480 C   0  0  0  0  0  0  0  0  0  0  0  0
  139.1840   71.9010  223.5910 O   0  0  0  0  0  0  0  0  0  0  0  0
  137.2820   70.5960  223.2710 N   0  0  0  0  0  0  0  0  0  0  0  0
  136.0590   70.2840  222.5410 C   0  0  0  0  0  0  0  0  0  0  0  0
  134.8880   70.4520  223.4900 C   0  0  0  0  0  0  0  0  0  0  0  0
  135.3300   70.3080  224.9350 C   0  0  0  0  0  0  0  0  0  0  0  0
  136.3570   69.2230  224.9910 C   0  0  0  0  0  0  0  0  0  0  0  0
  137.6330   69.7160  224.3680 C   0  0  1  0  0  0  0  0  0  0  0  0
  138.4280   68.5190  223.8940 C   0  0  0  0  0  0  0  0  0  0  0  0
  139.5360   68.3510  224.7990 N   0  0  0  0  0  0  0  0  0  0  0  0
  139.1620   68.6970  226.1720 C   0  0  0  0  0  0  0  0  0  0  0  0
  139.9280   69.8980  226.5970 C   0  0  0  0  0  0  0  0  0  0  0  0
  140.7100   70.5280  225.6230 C   0  0  0  0  0  0  0  0  0  0  0  0
  141.4330   71.6420  225.9840 C   0  0  0  0  0  0  0  0  0  0  0  0
  141.4090   72.1530  227.2620 C   0  0  0  0  0  0  0  0  0  0  0  0
  140.6310   71.5240  228.2250 C   0  0  0  0  0  0  0  0  0  0  0  0
  139.8970   70.4010  227.8810 C   0  0  0  0  0  0  0  0  0  0  0  0
  138.1810   76.4220  222.2090 C   0  0  0  0  0  0  0  0  0  0  0  0
  137.3700   77.5160  222.5050 C   0  0  0  0  0  0  0  0  0  0  0  0
  137.9200   78.7420  222.8760 C   0  0  0  0  0  0  0  0  0  0  0  0
  139.2820   78.8820  222.9540 C   0  0  0  0  0  0  0  0  0  0  0  0
  139.8830   80.0800  223.3170 C   0  0  0  0  0  0  0  0  0  0  0  0
  141.2660   80.1310  223.3690 C   0  0  0  0  0  0  0  0  0  0  0  0
  142.1020   81.6230  223.8250 Cl  0  0  0  0  0  0  0  0  0  0  0  0
  142.0710   79.0530  223.0780 C   0  0  0  0  0  0  0  0  0  0  0  0
  141.4360   77.8730  222.7190 C   0  0  0  0  0  0  0  0  0  0  0  0
  140.0500   77.7760  222.6530 C   0  0  0  0  0  0  0  0  0  0  0  0
  139.5060   76.5980  222.2970 N   0  0  0  0  0  0  0  0  0  0  0  0
  139.1700   74.0210  222.7390 H   0  0  0  0  0  0  0  0  0  0  0  0
  136.6367   72.6770  221.7653 H   0  0  0  0  0  0  0  0  0  0  0  0
  138.1428   72.2892  220.8949 H   0  0  0  0  0  0  0  0  0  0  0  0
  135.9488   70.9695  221.6878 H   0  0  0  0  0  0  0  0  0  0  0  0
  136.0954   69.2529  222.1595 H   0  0  0  0  0  0  0  0  0  0  0  0
  134.4497   71.4506  223.3463 H   0  0  0  0  0  0  0  0  0  0  0  0
  134.1467   69.6691  223.2719 H   0  0  0  0  0  0  0  0  0  0  0  0
  135.7650   71.2541  225.2896 H   0  0  0  0  0  0  0  0  0  0  0  0
  134.4721   70.0595  225.5770 H   0  0  0  0  0  0  0  0  0  0  0  0
  136.5426   68.9462  226.0393 H   0  0  0  0  0  0  0  0  0  0  0  0
  135.9939   68.3424  224.4409 H   0  0  0  0  0  0  0  0  0  0  0  0
  138.2515   70.2758  225.0849 H   0  0  0  0  0  0  0  0  0  0  0  0
  137.7949   67.6195  223.9039 H   0  0  0  0  0  0  0  0  0  0  0  0
  138.7868   68.6740  222.8658 H   0  0  0  0  0  0  0  0  0  0  0  0
  139.8680   67.3510  224.8010 H   0  0  0  0  0  0  0  0  0  0  0  0
  138.0843   68.9126  226.2170 H   0  0  0  0  0  0  0  0  0  0  0  0
  139.3913   67.8551  226.8418 H   0  0  0  0  0  0  0  0  0  0  0  0
  140.7462   70.1423  224.5935 H   0  0  0  0  0  0  0  0  0  0  0  0
  142.0520   72.1418  225.2244 H   0  0  0  0  0  0  0  0  0  0  0  0
  141.9976   73.0467  227.5167 H   0  0  0  0  0  0  0  0  0  0  0  0
  140.5979   71.9145  229.2528 H   0  0  0  0  0  0  0  0  0  0  0  0
  139.2800   69.9027  228.6432 H   0  0  0  0  0  0  0  0  0  0  0  0
  136.2767   77.4102  222.4448 H   0  0  0  0  0  0  0  0  0  0  0  0
  137.2637   79.5944  223.1055 H   0  0  0  0  0  0  0  0  0  0  0  0
  139.2763   80.9656  223.5571 H   0  0  0  0  0  0  0  0  0  0  0  0
  143.1676   79.1240  223.1278 H   0  0  0  0  0  0  0  0  0  0  0  0
  142.0457   76.9892  222.4798 H   0  0  0  0  0  0  0  0  0  0  0  0
  1  2  2  0
  2  3  1  0
  3  4  1  0
  4  5  1  0
  5  6  2  0
  5  7  1  0
  7  8  1  0
  8  9  1  0
  9 10  1  0
 10 11  1  0
 11 12  1  0
 12 13  1  0
 13 14  1  0
 14 15  1  0
 15 16  1  0
 16 17  2  0
 17 18  1  0
 18 19  2  0
 19 20  1  0
 20 21  2  0
  2 22  1  0
 22 23  2  0
 23 24  1  0
 24 25  2  0
 25 26  1  0
 26 27  2  0
 27 28  1  0
 27 29  1  0
 29 30  2  0
 30 31  1  0
 31 32  2  0
 12  7  1  0
 21 16  1  0
 32 22  1  0
 31 25  1  0
  3 33  1  0
  4 34  1  0
  4 35  1  0
  8 36  1  0
  8 37  1  0
  9 38  1  0
  9 39  1  0
 10 40  1  0
 10 41  1  0
 11 42  1  0
 11 43  1  0
 12 44  1  1
 13 45  1  0
 13 46  1  0
 14 47  1  0
 15 48  1  0
 15 49  1  0
 17 50  1  0
 18 51  1  0
 19 52  1  0
 20 53  1  0
 21 54  1  0
 23 55  1  0
 24 56  1  0
 26 57  1  0
 29 58  1  0
 30 59  1  0
M  END
>  <smiles>  (16) 
O=C(NCC(=O)N1CCCC[C@H]1CNCc1ccccc1)c1ccc2cc(Cl)ccc2n1

>  <score_type>  (16) 
oracle

>  <origin>  (16) 
autodockgpu

>  <m_score__min__energy>  (16) 
-9.4000000000000004

>  <m_primary>  (16) 
energy

>  <rmsd>  (16) 
9.63986284974219

>  <m_score__min__rmsd>  (16) 
9.63986284974219

>  <meeko>  (16) 
{"free_energy": -8.41, "intermolecular_energy": -10.8, "internal_energy": -2.36, "cluster_size": 11, "cluster_id": 3, "rank_in_cluster": 7}

>  <energy>  (16) 
-8.01

>  <cluster_rmsd>  (16) 
1.79

>  <cluster>  (16) 
3

$$$$

     RDKit          3D

 59 62  0  0  0  0  0  0  0  0999 V2000
  137.5300   77.5500  221.9670 O   0  0  0  0  0  0  0  0  0  0  0  0
  137.5090   76.4110  222.4930 C   0  0  0  0  0  0  0  0  0  0  0  0
  138.5130   75.4290  222.2980 N   0  0  0  0  0  0  0  0  0  0  0  0
  139.6760   75.7000  221.4400 C   0  0  0  0  0  0  0  0  0  0  0  0
  140.5490   74.4990  221.4750 C   0  0  0  0  0  0  0  0  0  0  0  0
  140.3350   73.6000  222.3410 O   0  0  0  0  0  0  0  0  0  0  0  0
  141.6140   74.3570  220.5480 N   0  0  0  0  0  0  0  0  0  0  0  0
  141.8090   73.1570  219.7440 C   0  0  0  0  0  0  0  0  0  0  0  0
  143.1160   72.5150  220.1650 C   0  0  0  0  0  0  0  0  0  0  0  0
  144.0460   73.5330  220.7970 C   0  0  0  0  0  0  0  0  0  0  0  0
  143.9020   74.8140  220.0410 C   0  0  0  0  0  0  0  0  0  0  0  0
  142.5690   75.4310  220.3630 C   0  0  1  0  0  0  0  0  0  0  0  0
  142.1750   76.3430  219.2230 C   0  0  0  0  0  0  0  0  0  0  0  0
  142.5670   77.6810  219.5830 N   0  0  0  0  0  0  0  0  0  0  0  0
  141.4150   78.4780  220.0150 C   0  0  0  0  0  0  0  0  0  0  0  0
  141.6690   78.9940  221.3860 C   0  0  0  0  0  0  0  0  0  0  0  0
  142.1830   80.2900  221.4910 C   0  0  0  0  0  0  0  0  0  0  0  0
  142.4290   80.7960  222.7460 C   0  0  0  0  0  0  0  0  0  0  0  0
  142.1880   80.0740  223.8920 C   0  0  0  0  0  0  0  0  0  0  0  0
  141.6770   78.7870  223.7830 C   0  0  0  0  0  0  0  0  0  0  0  0
  141.4230   78.2600  222.5270 C   0  0  0  0  0  0  0  0  0  0  0  0
  136.3840   76.0490  223.3700 C   0  0  0  0  0  0  0  0  0  0  0  0
  135.4860   77.0280  223.7900 C   0  0  0  0  0  0  0  0  0  0  0  0
  134.4110   76.7120  224.6210 C   0  0  0  0  0  0  0  0  0  0  0  0
  134.2280   75.4190  225.0360 C   0  0  0  0  0  0  0  0  0  0  0  0
  133.1760   75.0490  225.8630 C   0  0  0  0  0  0  0  0  0  0  0  0
  133.0680   73.7180  226.2330 C   0  0  0  0  0  0  0  0  0  0  0  0
  131.7530   73.1730  227.2850 Cl  0  0  0  0  0  0  0  0  0  0  0  0
  133.9530   72.7480  225.8210 C   0  0  0  0  0  0  0  0  0  0  0  0
  134.9910   73.1540  224.9950 C   0  0  0  0  0  0  0  0  0  0  0  0
  135.1390   74.4790  224.5980 C   0  0  0  0  0  0  0  0  0  0  0  0
  136.1710   74.7970  223.7960 N   0  0  0  0  0  0  0  0  0  0  0  0
  138.4380   74.4860  222.7700 H   0  0  0  0  0  0  0  0  0  0  0  0
  139.3447   75.8931  220.4090 H   0  0  0  0  0  0  0  0  0  0  0  0
  140.2222   76.5853  221.7976 H   0  0  0  0  0  0  0  0  0  0  0  0
  140.9781   72.4562  219.9126 H   0  0  0  0  0  0  0  0  0  0  0  0
  141.8383   73.4152  218.6751 H   0  0  0  0  0  0  0  0  0  0  0  0
  142.9065   71.7185  220.8942 H   0  0  0  0  0  0  0  0  0  0  0  0
  143.6061   72.1018  219.2711 H   0  0  0  0  0  0  0  0  0  0  0  0
  143.7712   73.6874  221.8509 H   0  0  0  0  0  0  0  0  0  0  0  0
  145.0867   73.1789  220.7585 H   0  0  0  0  0  0  0  0  0  0  0  0
  144.7070   75.5051  220.3314 H   0  0  0  0  0  0  0  0  0  0  0  0
  143.9659   74.6150  218.9610 H   0  0  0  0  0  0  0  0  0  0  0  0
  142.6053   76.0318  221.2837 H   0  0  0  0  0  0  0  0  0  0  0  0
  142.6906   76.0359  218.3011 H   0  0  0  0  0  0  0  0  0  0  0  0
  141.0909   76.2922  219.0435 H   0  0  0  0  0  0  0  0  0  0  0  0
  143.2600   77.6670  220.3750 H   0  0  0  0  0  0  0  0  0  0  0  0
  141.2708   79.3219  219.3243 H   0  0  0  0  0  0  0  0  0  0  0  0
  140.5101   77.8526  220.0155 H   0  0  0  0  0  0  0  0  0  0  0  0
  142.3857   80.8903  220.5918 H   0  0  0  0  0  0  0  0  0  0  0  0
  142.8331   81.8150  222.8367 H   0  0  0  0  0  0  0  0  0  0  0  0
  142.3969   80.5096  224.8802 H   0  0  0  0  0  0  0  0  0  0  0  0
  141.4758   78.1915  224.6857 H   0  0  0  0  0  0  0  0  0  0  0  0
  141.0190   77.2407  222.4388 H   0  0  0  0  0  0  0  0  0  0  0  0
  135.6271   78.0680  223.4606 H   0  0  0  0  0  0  0  0  0  0  0  0
  133.7123   77.4985  224.9422 H   0  0  0  0  0  0  0  0  0  0  0  0
  132.4469   75.7934  226.2155 H   0  0  0  0  0  0  0  0  0  0  0  0
  133.8424   71.6988  226.1324 H   0  0  0  0  0  0  0  0  0  0  0  0
  135.7179   72.4067  224.6439 H   0  0  0  0  0  0  0  0  0  0  0  0
  1  2  2  0
  2  3  1  0
  3  4  1  0
  4  5  1  0
  5  6  2  0
  5  7  1  0
  7  8  1  0
  8  9  1  0
  9 10  1  0
 10 11  1  0
 11 12  1  0
 12 13  1  0
 13 14  1  0
 14 15  1  0
 15 16  1  0
 16 17  2  0
 17 18  1  0
 18 19  2  0
 19 20  1  0
 20 21  2  0
  2 22  1  0
 22 23  2  0
 23 24  1  0
 24 25  2  0
 25 26  1  0
 26 27  2  0
 27 28  1  0
 27 29  1  0
 29 30  2  0
 30 31  1  0
 31 32  2  0
 12  7  1  0
 21 16  1  0
 32 22  1  0
 31 25  1  0
  3 33  1  0
  4 34  1  0
  4 35  1  0
  8 36  1  0
  8 37  1  0
  9 38  1  0
  9 39  1  0
 10 40  1  0
 10 41  1  0
 11 42  1  0
 11 43  1  0
 12 44  1  1
 13 45  1  0
 13 46  1  0
 14 47  1  0
 15 48  1  0
 15 49  1  0
 17 50  1  0
 18 51  1  0
 19 52  1  0
 20 53  1  0
 21 54  1  0
 23 55  1  0
 24 56  1  0
 26 57  1  0
 29 58  1  0
 30 59  1  0
M  END
>  <smiles>  (17) 
O=C(NCC(=O)N1CCCC[C@H]1CNCc1ccccc1)c1ccc2cc(Cl)ccc2n1

>  <score_type>  (17) 
oracle

>  <origin>  (17) 
autodockgpu

>  <m_score__min__energy>  (17) 
-9.4000000000000004

>  <m_primary>  (17) 
energy

>  <rmsd>  (17) 
5.647895226500826

>  <m_score__min__rmsd>  (17) 
5.647895226500826

>  <meeko>  (17) 
{"free_energy": -8.39, "intermolecular_energy": -10.77, "internal_energy": -2.71, "cluster_size": 5, "cluster_id": 6, "rank_in_cluster": 4}

>  <energy>  (17) 
-7.85

>  <cluster_rmsd>  (17) 
1.74

>  <cluster>  (17) 
3

$$$$

     RDKit          3D

 59 62  0  0  0  0  0  0  0  0999 V2000
  133.8940   69.3090  226.5140 O   0  0  0  0  0  0  0  0  0  0  0  0
  133.8710   70.3110  225.7580 C   0  0  0  0  0  0  0  0  0  0  0  0
  134.3250   70.3000  224.4150 N   0  0  0  0  0  0  0  0  0  0  0  0
  134.8670   69.0740  223.8110 C   0  0  0  0  0  0  0  0  0  0  0  0
  135.9820   69.4700  222.9140 C   0  0  0  0  0  0  0  0  0  0  0  0
  135.8420   69.3540  221.6610 O   0  0  0  0  0  0  0  0  0  0  0  0
  137.1930   69.9760  223.4520 N   0  0  0  0  0  0  0  0  0  0  0  0
  137.4740   71.4020  223.5660 C   0  0  0  0  0  0  0  0  0  0  0  0
  138.6440   71.7260  222.6580 C   0  0  0  0  0  0  0  0  0  0  0  0
  139.4900   70.4940  222.3960 C   0  0  0  0  0  0  0  0  0  0  0  0
  139.5550   69.7070  223.6650 C   0  0  0  0  0  0  0  0  0  0  0  0
  138.2200   69.0670  223.9210 C   0  0  1  0  0  0  0  0  0  0  0  0
  138.0940   68.7950  225.4030 C   0  0  0  0  0  0  0  0  0  0  0  0
  139.1630   67.9030  225.7720 N   0  0  0  0  0  0  0  0  0  0  0  0
  139.6300   68.1650  227.1370 C   0  0  0  0  0  0  0  0  0  0  0  0
  140.1630   69.5500  227.2110 C   0  0  0  0  0  0  0  0  0  0  0  0
  139.7660   70.3260  228.3040 C   0  0  0  0  0  0  0  0  0  0  0  0
  140.2420   71.6130  228.4010 C   0  0  0  0  0  0  0  0  0  0  0  0
  141.0900   72.1580  227.4640 C   0  0  0  0  0  0  0  0  0  0  0  0
  141.4820   71.3830  226.3790 C   0  0  0  0  0  0  0  0  0  0  0  0
  141.0120   70.0850  226.2640 C   0  0  0  0  0  0  0  0  0  0  0  0
  133.3450   71.5840  226.2740 C   0  0  0  0  0  0  0  0  0  0  0  0
  132.2110   71.5920  227.0840 C   0  0  0  0  0  0  0  0  0  0  0  0
  131.6910   72.7840  227.5870 C   0  0  0  0  0  0  0  0  0  0  0  0
  132.3010   73.9730  227.2840 C   0  0  0  0  0  0  0  0  0  0  0  0
  131.8260   75.1900  227.7570 C   0  0  0  0  0  0  0  0  0  0  0  0
  132.5050   76.3430  227.4000 C   0  0  0  0  0  0  0  0  0  0  0  0
  131.9590   77.9290  227.9650 Cl  0  0  0  0  0  0  0  0  0  0  0  0
  133.6250   76.3410  226.6000 C   0  0  0  0  0  0  0  0  0  0  0  0
  134.0720   75.1080  226.1470 C   0  0  0  0  0  0  0  0  0  0  0  0
  133.4210   73.9240  226.4790 C   0  0  0  0  0  0  0  0  0  0  0  0
  133.9120   72.7660  226.0010 N   0  0  0  0  0  0  0  0  0  0  0  0
  134.2800   71.1780  223.8290 H   0  0  0  0  0  0  0  0  0  0  0  0
  135.2394   68.4013  224.5977 H   0  0  0  0  0  0  0  0  0  0  0  0
  134.0861   68.5442  223.2457 H   0  0  0  0  0  0  0  0  0  0  0  0
  136.5914   71.9817  223.2579 H   0  0  0  0  0  0  0  0  0  0  0  0
  137.7170   71.6603  224.6073 H   0  0  0  0  0  0  0  0  0  0  0  0
  138.2605   72.1086  221.7007 H   0  0  0  0  0  0  0  0  0  0  0  0
  139.2715   72.4817  223.1531 H   0  0  0  0  0  0  0  0  0  0  0  0
  139.0310   69.8867  221.6020 H   0  0  0  0  0  0  0  0  0  0  0  0
  140.5002   70.7833  222.0707 H   0  0  0  0  0  0  0  0  0  0  0  0
  140.3252   68.9269  223.5746 H   0  0  0  0  0  0  0  0  0  0  0  0
  139.8096   70.3755  224.5007 H   0  0  0  0  0  0  0  0  0  0  0  0
  138.1141   68.1104  223.3884 H   0  0  0  0  0  0  0  0  0  0  0  0
  138.1789   69.7361  225.9661 H   0  0  0  0  0  0  0  0  0  0  0  0
  137.1170   68.3446  225.6325 H   0  0  0  0  0  0  0  0  0  0  0  0
  138.8450   66.9000  225.7310 H   0  0  0  0  0  0  0  0  0  0  0  0
  138.7917   68.0548  227.8406 H   0  0  0  0  0  0  0  0  0  0  0  0
  140.4216   67.4486  227.4018 H   0  0  0  0  0  0  0  0  0  0  0  0
  139.0890   69.9171  229.0685 H   0  0  0  0  0  0  0  0  0  0  0  0
  139.9336   72.2289  229.2587 H   0  0  0  0  0  0  0  0  0  0  0  0
  141.4519   73.1911  227.5722 H   0  0  0  0  0  0  0  0  0  0  0  0
  142.1598   71.7969  225.6179 H   0  0  0  0  0  0  0  0  0  0  0  0
  141.3203   69.4715  225.4046 H   0  0  0  0  0  0  0  0  0  0  0  0
  131.7171   70.6406  227.3310 H   0  0  0  0  0  0  0  0  0  0  0  0
  130.7947   72.7699  228.2245 H   0  0  0  0  0  0  0  0  0  0  0  0
  130.9336   75.2365  228.3985 H   0  0  0  0  0  0  0  0  0  0  0  0
  134.1421   77.2742  226.3320 H   0  0  0  0  0  0  0  0  0  0  0  0
  134.9660   75.0654  225.5075 H   0  0  0  0  0  0  0  0  0  0  0  0
  1  2  2  0
  2  3  1  0
  3  4  1  0
  4  5  1  0
  5  6  2  0
  5  7  1  0
  7  8  1  0
  8  9  1  0
  9 10  1  0
 10 11  1  0
 11 12  1  0
 12 13  1  0
 13 14  1  0
 14 15  1  0
 15 16  1  0
 16 17  2  0
 17 18  1  0
 18 19  2  0
 19 20  1  0
 20 21  2  0
  2 22  1  0
 22 23  2  0
 23 24  1  0
 24 25  2  0
 25 26  1  0
 26 27  2  0
 27 28  1  0
 27 29  1  0
 29 30  2  0
 30 31  1  0
 31 32  2  0
 12  7  1  0
 21 16  1  0
 32 22  1  0
 31 25  1  0
  3 33  1  0
  4 34  1  0
  4 35  1  0
  8 36  1  0
  8 37  1  0
  9 38  1  0
  9 39  1  0
 10 40  1  0
 10 41  1  0
 11 42  1  0
 11 43  1  0
 12 44  1  6
 13 45  1  0
 13 46  1  0
 14 47  1  0
 15 48  1  0
 15 49  1  0
 17 50  1  0
 18 51  1  0
 19 52  1  0
 20 53  1  0
 21 54  1  0
 23 55  1  0
 24 56  1  0
 26 57  1  0
 29 58  1  0
 30 59  1  0
M  END
>  <smiles>  (18) 
O=C(NCC(=O)N1CCCC[C@H]1CNCc1ccccc1)c1ccc2cc(Cl)ccc2n1

>  <score_type>  (18) 
oracle

>  <origin>  (18) 
autodockgpu

>  <m_score__min__energy>  (18) 
-9.4000000000000004

>  <m_primary>  (18) 
energy

>  <rmsd>  (18) 
9.492804133184368

>  <m_score__min__rmsd>  (18) 
9.492804133184368

>  <meeko>  (18) 
{"free_energy": -8.96, "intermolecular_energy": -11.35, "internal_energy": -1.98, "cluster_size": 1, "cluster_id": 2, "rank_in_cluster": 1}

>  <energy>  (18) 
-7.83

>  <cluster_rmsd>  (18) 
1.94

>  <cluster>  (18) 
3

$$$$

     RDKit          3D

 59 62  0  0  0  0  0  0  0  0999 V2000
  137.5310   77.4670  221.7580 O   0  0  0  0  0  0  0  0  0  0  0  0
  137.5360   76.3730  222.3740 C   0  0  0  0  0  0  0  0  0  0  0  0
  138.5690   75.4070  222.2650 N   0  0  0  0  0  0  0  0  0  0  0  0
  139.7300   75.6400  221.3930 C   0  0  0  0  0  0  0  0  0  0  0  0
  140.5870   74.4290  221.4550 C   0  0  0  0  0  0  0  0  0  0  0  0
  140.3480   73.5420  222.3270 O   0  0  0  0  0  0  0  0  0  0  0  0
  141.6630   74.2630  220.5460 N   0  0  0  0  0  0  0  0  0  0  0  0
  141.8470   73.0570  219.7470 C   0  0  0  0  0  0  0  0  0  0  0  0
  143.1330   72.3890  220.1900 C   0  0  0  0  0  0  0  0  0  0  0  0
  144.0740   73.3890  220.8370 C   0  0  0  0  0  0  0  0  0  0  0  0
  143.9680   74.6720  220.0760 C   0  0  0  0  0  0  0  0  0  0  0  0
  142.6440   75.3170  220.3760 C   0  0  1  0  0  0  0  0  0  0  0  0
  142.2880   76.2340  219.2270 C   0  0  0  0  0  0  0  0  0  0  0  0
  142.5340   77.5860  219.6600 N   0  0  0  0  0  0  0  0  0  0  0  0
  141.3270   78.1950  220.2240 C   0  0  0  0  0  0  0  0  0  0  0  0
  141.6840   78.9110  221.4770 C   0  0  0  0  0  0  0  0  0  0  0  0
  141.4390   78.2430  222.6810 C   0  0  0  0  0  0  0  0  0  0  0  0
  141.7570   78.8790  223.8590 C   0  0  0  0  0  0  0  0  0  0  0  0
  142.3050   80.1410  223.8900 C   0  0  0  0  0  0  0  0  0  0  0  0
  142.5460   80.8000  222.6910 C   0  0  0  0  0  0  0  0  0  0  0  0
  142.2320   80.1760  221.4950 C   0  0  0  0  0  0  0  0  0  0  0  0
  136.4150   76.0520  223.2710 C   0  0  0  0  0  0  0  0  0  0  0  0
  135.5540   77.0610  223.6980 C   0  0  0  0  0  0  0  0  0  0  0  0
  134.4830   76.7850  224.5470 C   0  0  0  0  0  0  0  0  0  0  0  0
  134.2680   75.5010  224.9750 C   0  0  0  0  0  0  0  0  0  0  0  0
  133.2180   75.1690  225.8220 C   0  0  0  0  0  0  0  0  0  0  0  0
  133.0760   73.8450  226.2040 C   0  0  0  0  0  0  0  0  0  0  0  0
  131.7610   73.3480  227.2800 Cl  0  0  0  0  0  0  0  0  0  0  0  0
  133.9240   72.8460  225.7850 C   0  0  0  0  0  0  0  0  0  0  0  0
  134.9610   73.2130  224.9400 C   0  0  0  0  0  0  0  0  0  0  0  0
  135.1420   74.5300  224.5310 C   0  0  0  0  0  0  0  0  0  0  0  0
  136.1710   74.8110  223.7100 N   0  0  0  0  0  0  0  0  0  0  0  0
  138.5150   74.5040  222.8100 H   0  0  0  0  0  0  0  0  0  0  0  0
  139.3948   75.8100  220.3592 H   0  0  0  0  0  0  0  0  0  0  0  0
  140.2899   76.5273  221.7234 H   0  0  0  0  0  0  0  0  0  0  0  0
  140.9992   72.3737  219.9030 H   0  0  0  0  0  0  0  0  0  0  0  0
  141.8995   73.3127  218.6784 H   0  0  0  0  0  0  0  0  0  0  0  0
  142.8951   71.5978  220.9162 H   0  0  0  0  0  0  0  0  0  0  0  0
  143.6292   71.9649  219.3046 H   0  0  0  0  0  0  0  0  0  0  0  0
  143.7851   73.5507  221.8860 H   0  0  0  0  0  0  0  0  0  0  0  0
  145.1078   73.0137  220.8169 H   0  0  0  0  0  0  0  0  0  0  0  0
  144.7827   75.3469  220.3775 H   0  0  0  0  0  0  0  0  0  0  0  0
  144.0442   74.4692  218.9975 H   0  0  0  0  0  0  0  0  0  0  0  0
  142.6780   75.9182  221.2966 H   0  0  0  0  0  0  0  0  0  0  0  0
  142.9127   76.0002  218.3524 H   0  0  0  0  0  0  0  0  0  0  0  0
  141.2339   76.1047  218.9402 H   0  0  0  0  0  0  0  0  0  0  0  0
  143.2800   77.6090  220.4030 H   0  0  0  0  0  0  0  0  0  0  0  0
  140.9013   78.9068  219.5014 H   0  0  0  0  0  0  0  0  0  0  0  0
  140.5845   77.4133  220.4423 H   0  0  0  0  0  0  0  0  0  0  0  0
  141.0025   77.2333  222.6861 H   0  0  0  0  0  0  0  0  0  0  0  0
  141.5664   78.3601  224.8100 H   0  0  0  0  0  0  0  0  0  0  0  0
  142.5485   80.6206  224.8495 H   0  0  0  0  0  0  0  0  0  0  0  0
  142.9828   81.8095  222.6915 H   0  0  0  0  0  0  0  0  0  0  0  0
  142.4227   80.6975  220.5454 H   0  0  0  0  0  0  0  0  0  0  0  0
  135.7223   78.0939  223.3592 H   0  0  0  0  0  0  0  0  0  0  0  0
  133.8132   77.5948  224.8720 H   0  0  0  0  0  0  0  0  0  0  0  0
  132.5174   75.9377  226.1801 H   0  0  0  0  0  0  0  0  0  0  0  0
  133.7859   71.8029  226.1057 H   0  0  0  0  0  0  0  0  0  0  0  0
  135.6593   72.4414  224.5836 H   0  0  0  0  0  0  0  0  0  0  0  0
  1  2  2  0
  2  3  1  0
  3  4  1  0
  4  5  1  0
  5  6  2  0
  5  7  1  0
  7  8  1  0
  8  9  1  0
  9 10  1  0
 10 11  1  0
 11 12  1  0
 12 13  1  0
 13 14  1  0
 14 15  1  0
 15 16  1  0
 16 17  2  0
 17 18  1  0
 18 19  2  0
 19 20  1  0
 20 21  2  0
  2 22  1  0
 22 23  2  0
 23 24  1  0
 24 25  2  0
 25 26  1  0
 26 27  2  0
 27 28  1  0
 27 29  1  0
 29 30  2  0
 30 31  1  0
 31 32  2  0
 12  7  1  0
 21 16  1  0
 32 22  1  0
 31 25  1  0
  3 33  1  0
  4 34  1  0
  4 35  1  0
  8 36  1  0
  8 37  1  0
  9 38  1  0
  9 39  1  0
 10 40  1  0
 10 41  1  0
 11 42  1  0
 11 43  1  0
 12 44  1  1
 13 45  1  0
 13 46  1  0
 14 47  1  0
 15 48  1  0
 15 49  1  0
 17 50  1  0
 18 51  1  0
 19 52  1  0
 20 53  1  0
 21 54  1  0
 23 55  1  0
 24 56  1  0
 26 57  1  0
 29 58  1  0
 30 59  1  0
M  END
>  <smiles>  (19) 
O=C(NCC(=O)N1CCCC[C@H]1CNCc1ccccc1)c1ccc2cc(Cl)ccc2n1

>  <score_type>  (19) 
oracle

>  <origin>  (19) 
autodockgpu

>  <m_score__min__energy>  (19) 
-9.4000000000000004

>  <m_primary>  (19) 
energy

>  <rmsd>  (19) 
5.58476538527828

>  <m_score__min__rmsd>  (19) 
5.58476538527828

>  <meeko>  (19) 
{"free_energy": -8.43, "intermolecular_energy": -10.81, "internal_energy": -2.65, "cluster_size": 5, "cluster_id": 6, "rank_in_cluster": 1}

>  <energy>  (19) 
-8.96

>  <cluster_rmsd>  (19) 
0.0

>  <cluster>  (19) 
4

$$$$

     RDKit          3D

 59 62  0  0  0  0  0  0  0  0999 V2000
  137.4820   77.5580  221.9600 O   0  0  0  0  0  0  0  0  0  0  0  0
  137.4690   76.4240  222.4970 C   0  0  0  0  0  0  0  0  0  0  0  0
  138.4880   75.4530  222.3220 N   0  0  0  0  0  0  0  0  0  0  0  0
  139.6560   75.7290  221.4720 C   0  0  0  0  0  0  0  0  0  0  0  0
  140.5230   74.5240  221.4950 C   0  0  0  0  0  0  0  0  0  0  0  0
  140.3000   73.6140  222.3470 O   0  0  0  0  0  0  0  0  0  0  0  0
  141.5920   74.3910  220.5720 N   0  0  0  0  0  0  0  0  0  0  0  0
  141.8090   73.1850  219.7810 C   0  0  0  0  0  0  0  0  0  0  0  0
  143.1270   72.5700  220.2120 C   0  0  0  0  0  0  0  0  0  0  0  0
  144.0380   73.6100  220.8360 C   0  0  0  0  0  0  0  0  0  0  0  0
  143.8730   74.8810  220.0660 C   0  0  0  0  0  0  0  0  0  0  0  0
  142.5300   75.4790  220.3780 C   0  0  1  0  0  0  0  0  0  0  0  0
  142.1230   76.3710  219.2270 C   0  0  0  0  0  0  0  0  0  0  0  0
  142.4420   77.7270  219.5970 N   0  0  0  0  0  0  0  0  0  0  0  0
  141.2750   78.4160  220.1550 C   0  0  0  0  0  0  0  0  0  0  0  0
  141.6520   79.0330  221.4550 C   0  0  0  0  0  0  0  0  0  0  0  0
  141.4410   78.2660  222.6050 C   0  0  0  0  0  0  0  0  0  0  0  0
  141.7780   78.8080  223.8240 C   0  0  0  0  0  0  0  0  0  0  0  0
  142.3120   80.0710  223.9460 C   0  0  0  0  0  0  0  0  0  0  0  0
  142.5180   80.8290  222.8000 C   0  0  0  0  0  0  0  0  0  0  0  0
  142.1850   80.3000  221.5640 C   0  0  0  0  0  0  0  0  0  0  0  0
  136.3410   76.0560  223.3670 C   0  0  0  0  0  0  0  0  0  0  0  0
  135.4420   77.0340  223.7910 C   0  0  0  0  0  0  0  0  0  0  0  0
  134.3640   76.7130  224.6150 C   0  0  0  0  0  0  0  0  0  0  0  0
  134.1770   75.4160  225.0180 C   0  0  0  0  0  0  0  0  0  0  0  0
  133.1210   75.0420  225.8390 C   0  0  0  0  0  0  0  0  0  0  0  0
  133.0100   73.7080  226.1970 C   0  0  0  0  0  0  0  0  0  0  0  0
  131.6890   73.1570  227.2400 Cl  0  0  0  0  0  0  0  0  0  0  0  0
  133.8940   72.7400  225.7800 C   0  0  0  0  0  0  0  0  0  0  0  0
  134.9360   73.1500  224.9610 C   0  0  0  0  0  0  0  0  0  0  0  0
  135.0880   74.4780  224.5770 C   0  0  0  0  0  0  0  0  0  0  0  0
  136.1240   74.8020  223.7810 N   0  0  0  0  0  0  0  0  0  0  0  0
  138.4200   74.5140  222.8030 H   0  0  0  0  0  0  0  0  0  0  0  0
  139.3298   75.9367  220.4422 H   0  0  0  0  0  0  0  0  0  0  0  0
  140.2050   76.6069  221.8432 H   0  0  0  0  0  0  0  0  0  0  0  0
  140.9899   72.4719  219.9559 H   0  0  0  0  0  0  0  0  0  0  0  0
  141.8357   73.4316  218.7093 H   0  0  0  0  0  0  0  0  0  0  0  0
  142.9295   71.7773  220.9487 H   0  0  0  0  0  0  0  0  0  0  0  0
  143.6264   72.1569  219.3232 H   0  0  0  0  0  0  0  0  0  0  0  0
  143.7582   73.7703  221.8877 H   0  0  0  0  0  0  0  0  0  0  0  0
  145.0848   73.2737  220.8038 H   0  0  0  0  0  0  0  0  0  0  0  0
  144.6656   75.5887  220.3505 H   0  0  0  0  0  0  0  0  0  0  0  0
  143.9419   74.6710  218.9884 H   0  0  0  0  0  0  0  0  0  0  0  0
  142.5548   76.0904  221.2921 H   0  0  0  0  0  0  0  0  0  0  0  0
  142.6766   76.0891  218.3192 H   0  0  0  0  0  0  0  0  0  0  0  0
  141.0478   76.2687  219.0185 H   0  0  0  0  0  0  0  0  0  0  0  0
  143.2020   77.7460  220.3250 H   0  0  0  0  0  0  0  0  0  0  0  0
  140.9411   79.1990  219.4583 H   0  0  0  0  0  0  0  0  0  0  0  0
  140.4572   77.6965  220.3086 H   0  0  0  0  0  0  0  0  0  0  0  0
  141.0159   77.2538  222.5368 H   0  0  0  0  0  0  0  0  0  0  0  0
  141.6149   78.2109  224.7333 H   0  0  0  0  0  0  0  0  0  0  0  0
  142.5717   80.4740  224.9360 H   0  0  0  0  0  0  0  0  0  0  0  0
  142.9422   81.8412  222.8737 H   0  0  0  0  0  0  0  0  0  0  0  0
  142.3481   80.8993  220.6562 H   0  0  0  0  0  0  0  0  0  0  0  0
  135.5857   78.0763  223.4700 H   0  0  0  0  0  0  0  0  0  0  0  0
  133.6657   77.4980  224.9407 H   0  0  0  0  0  0  0  0  0  0  0  0
  132.3923   75.7849  226.1955 H   0  0  0  0  0  0  0  0  0  0  0  0
  133.7798   71.6885  226.0822 H   0  0  0  0  0  0  0  0  0  0  0  0
  135.6621   72.4041  224.6055 H   0  0  0  0  0  0  0  0  0  0  0  0
  1  2  2  0
  2  3  1  0
  3  4  1  0
  4  5  1  0
  5  6  2  0
  5  7  1  0
  7  8  1  0
  8  9  1  0
  9 10  1  0
 10 11  1  0
 11 12  1  0
 12 13  1  0
 13 14  1  0
 14 15  1  0
 15 16  1  0
 16 17  2  0
 17 18  1  0
 18 19  2  0
 19 20  1  0
 20 21  2  0
  2 22  1  0
 22 23  2  0
 23 24  1  0
 24 25  2  0
 25 26  1  0
 26 27  2  0
 27 28  1  0
 27 29  1  0
 29 30  2  0
 30 31  1  0
 31 32  2  0
 12  7  1  0
 21 16  1  0
 32 22  1  0
 31 25  1  0
  3 33  1  0
  4 34  1  0
  4 35  1  0
  8 36  1  0
  8 37  1  0
  9 38  1  0
  9 39  1  0
 10 40  1  0
 10 41  1  0
 11 42  1  0
 11 43  1  0
 12 44  1  1
 13 45  1  0
 13 46  1  0
 14 47  1  0
 15 48  1  0
 15 49  1  0
 17 50  1  0
 18 51  1  0
 19 52  1  0
 20 53  1  0
 21 54  1  0
 23 55  1  0
 24 56  1  0
 26 57  1  0
 29 58  1  0
 30 59  1  0
M  END
>  <smiles>  (20) 
O=C(NCC(=O)N1CCCC[C@H]1CNCc1ccccc1)c1ccc2cc(Cl)ccc2n1

>  <score_type>  (20) 
oracle

>  <origin>  (20) 
autodockgpu

>  <m_score__min__energy>  (20) 
-9.4000000000000004

>  <m_primary>  (20) 
energy

>  <rmsd>  (20) 
5.5731071359073585

>  <m_score__min__rmsd>  (20) 
5.5731071359073585

>  <meeko>  (20) 
{"free_energy": -8.42, "intermolecular_energy": -10.8, "internal_energy": -2.7, "cluster_size": 5, "cluster_id": 6, "rank_in_cluster": 2}

>  <energy>  (20) 
-8.95

>  <cluster_rmsd>  (20) 
1.69

>  <cluster>  (20) 
4

$$$$

     RDKit          3D

 59 62  0  0  0  0  0  0  0  0999 V2000
  134.6840   73.5840  222.3350 O   0  0  0  0  0  0  0  0  0  0  0  0
  135.8400   73.5120  222.8200 C   0  0  0  0  0  0  0  0  0  0  0  0
  136.3450   72.3740  223.4980 N   0  0  0  0  0  0  0  0  0  0  0  0
  135.5160   71.1730  223.6780 C   0  0  0  0  0  0  0  0  0  0  0  0
  136.4220   69.9970  223.6720 C   0  0  0  0  0  0  0  0  0  0  0  0
  136.4600   69.2370  224.6840 O   0  0  0  0  0  0  0  0  0  0  0  0
  137.2380   69.7240  222.5440 N   0  0  0  0  0  0  0  0  0  0  0  0
  136.6920   69.4210  221.2270 C   0  0  0  0  0  0  0  0  0  0  0  0
  137.0700   67.9940  220.8770 C   0  0  0  0  0  0  0  0  0  0  0  0
  138.3010   67.5510  221.6450 C   0  0  0  0  0  0  0  0  0  0  0  0
  139.2370   68.7140  221.7170 C   0  0  0  0  0  0  0  0  0  0  0  0
  138.6820   69.7390  222.6670 C   0  0  1  0  0  0  0  0  0  0  0  0
  139.2620   71.0890  222.3080 C   0  0  0  0  0  0  0  0  0  0  0  0
  139.2700   71.8890  223.5060 N   0  0  0  0  0  0  0  0  0  0  0  0
  140.5760   71.8450  224.1690 C   0  0  0  0  0  0  0  0  0  0  0  0
  140.4150   71.2540  225.5230 C   0  0  0  0  0  0  0  0  0  0  0  0
  141.0230   71.9280  226.5870 C   0  0  0  0  0  0  0  0  0  0  0  0
  140.8930   71.4060  227.8530 C   0  0  0  0  0  0  0  0  0  0  0  0
  140.1890   70.2500  228.1040 C   0  0  0  0  0  0  0  0  0  0  0  0
  139.5870   69.5840  227.0440 C   0  0  0  0  0  0  0  0  0  0  0  0
  139.7070   70.0940  225.7630 C   0  0  0  0  0  0  0  0  0  0  0  0
  136.7440   74.6660  222.6880 C   0  0  0  0  0  0  0  0  0  0  0  0
  136.2690   75.9540  222.9270 C   0  0  0  0  0  0  0  0  0  0  0  0
  137.1040   77.0640  222.8100 C   0  0  0  0  0  0  0  0  0  0  0  0
  138.4160   76.8940  222.4530 C   0  0  0  0  0  0  0  0  0  0  0  0
  139.2910   77.9640  222.3210 C   0  0  0  0  0  0  0  0  0  0  0  0
  140.6010   77.7000  221.9570 C   0  0  0  0  0  0  0  0  0  0  0  0
  141.7740   79.0130  221.7690 Cl  0  0  0  0  0  0  0  0  0  0  0  0
  141.0750   76.4300  221.7190 C   0  0  0  0  0  0  0  0  0  0  0  0
  140.1730   75.3850  221.8610 C   0  0  0  0  0  0  0  0  0  0  0  0
  138.8490   75.6040  222.2250 C   0  0  0  0  0  0  0  0  0  0  0  0
  138.0310   74.5410  222.3420 N   0  0  0  0  0  0  0  0  0  0  0  0
  137.3290   72.3760  223.8840 H   0  0  0  0  0  0  0  0  0  0  0  0
  134.9792   71.2280  224.6365 H   0  0  0  0  0  0  0  0  0  0  0  0
  134.7728   71.0922  222.8710 H   0  0  0  0  0  0  0  0  0  0  0  0
  135.5969   69.5229  221.2449 H   0  0  0  0  0  0  0  0  0  0  0  0
  137.0964   70.1171  220.4774 H   0  0  0  0  0  0  0  0  0  0  0  0
  136.2311   67.3283  221.1280 H   0  0  0  0  0  0  0  0  0  0  0  0
  137.2934   67.9457  219.8010 H   0  0  0  0  0  0  0  0  0  0  0  0
  138.0160   67.2366  222.6598 H   0  0  0  0  0  0  0  0  0  0  0  0
  138.7830   66.7002  221.1411 H   0  0  0  0  0  0  0  0  0  0  0  0
  140.2194   68.3736  222.0762 H   0  0  0  0  0  0  0  0  0  0  0  0
  139.3493   69.1597  220.7176 H   0  0  0  0  0  0  0  0  0  0  0  0
  138.9489   69.5195  223.7113 H   0  0  0  0  0  0  0  0  0  0  0  0
  140.2879   70.9685  221.9299 H   0  0  0  0  0  0  0  0  0  0  0  0
  138.6617   71.5724  221.5232 H   0  0  0  0  0  0  0  0  0  0  0  0
  139.0580   72.8960  223.2840 H   0  0  0  0  0  0  0  0  0  0  0  0
  141.2685   71.2278  223.5778 H   0  0  0  0  0  0  0  0  0  0  0  0
  140.9819   72.8637  224.2555 H   0  0  0  0  0  0  0  0  0  0  0  0
  141.5918   72.8538  226.4155 H   0  0  0  0  0  0  0  0  0  0  0  0
  141.3685   71.9309  228.6947 H   0  0  0  0  0  0  0  0  0  0  0  0
  140.1044   69.8594  229.1288 H   0  0  0  0  0  0  0  0  0  0  0  0
  139.0194   68.6586  227.2213 H   0  0  0  0  0  0  0  0  0  0  0  0
  139.2307   69.5666  224.9233 H   0  0  0  0  0  0  0  0  0  0  0  0
  135.2166   76.0973  223.2130 H   0  0  0  0  0  0  0  0  0  0  0  0
  136.7111   78.0730  223.0036 H   0  0  0  0  0  0  0  0  0  0  0  0
  138.9524   78.9950  222.5009 H   0  0  0  0  0  0  0  0  0  0  0  0
  142.1211   76.2514  221.4294 H   0  0  0  0  0  0  0  0  0  0  0  0
  140.5148   74.3551  221.6806 H   0  0  0  0  0  0  0  0  0  0  0  0
  1  2  2  0
  2  3  1  0
  3  4  1  0
  4  5  1  0
  5  6  2  0
  5  7  1  0
  7  8  1  0
  8  9  1  0
  9 10  1  0
 10 11  1  0
 11 12  1  0
 12 13  1  0
 13 14  1  0
 14 15  1  0
 15 16  1  0
 16 17  2  0
 17 18  1  0
 18 19  2  0
 19 20  1  0
 20 21  2  0
  2 22  1  0
 22 23  2  0
 23 24  1  0
 24 25  2  0
 25 26  1  0
 26 27  2  0
 27 28  1  0
 27 29  1  0
 29 30  2  0
 30 31  1  0
 31 32  2  0
 12  7  1  0
 21 16  1  0
 32 22  1  0
 31 25  1  0
  3 33  1  0
  4 34  1  0
  4 35  1  0
  8 36  1  0
  8 37  1  0
  9 38  1  0
  9 39  1  0
 10 40  1  0
 10 41  1  0
 11 42  1  0
 11 43  1  0
 12 44  1  1
 13 45  1  0
 13 46  1  0
 14 47  1  0
 15 48  1  0
 15 49  1  0
 17 50  1  0
 18 51  1  0
 19 52  1  0
 20 53  1  0
 21 54  1  0
 23 55  1  0
 24 56  1  0
 26 57  1  0
 29 58  1  0
 30 59  1  0
M  END
>  <smiles>  (21) 
O=C(NCC(=O)N1CCCC[C@H]1CNCc1ccccc1)c1ccc2cc(Cl)ccc2n1

>  <score_type>  (21) 
oracle

>  <origin>  (21) 
autodockgpu

>  <m_score__min__energy>  (21) 
-9.4000000000000004

>  <m_primary>  (21) 
energy

>  <rmsd>  (21) 
8.852804051581705

>  <m_score__min__rmsd>  (21) 
8.852804051581705

>  <meeko>  (21) 
{"free_energy": -7.11, "intermolecular_energy": -9.49, "internal_energy": -3.84, "cluster_size": 1, "cluster_id": 10, "rank_in_cluster": 1}

>  <energy>  (21) 
-8.78

>  <cluster_rmsd>  (21) 
0.89

>  <cluster>  (21) 
4

$$$$

     RDKit          3D

 59 62  0  0  0  0  0  0  0  0999 V2000
  135.6470   75.3140  221.8740 O   0  0  0  0  0  0  0  0  0  0  0  0
  136.8470   75.2140  222.2300 C   0  0  0  0  0  0  0  0  0  0  0  0
  137.5180   73.9780  222.4140 N   0  0  0  0  0  0  0  0  0  0  0  0
  136.8230   72.7020  222.1920 C   0  0  0  0  0  0  0  0  0  0  0  0
  137.0610   71.8480  223.3840 C   0  0  0  0  0  0  0  0  0  0  0  0
  136.2060   71.8330  224.3180 O   0  0  0  0  0  0  0  0  0  0  0  0
  138.2330   71.0550  223.4770 N   0  0  0  0  0  0  0  0  0  0  0  0
  139.5700   71.5870  223.2420 C   0  0  0  0  0  0  0  0  0  0  0  0
  140.1390   70.9060  222.0120 C   0  0  0  0  0  0  0  0  0  0  0  0
  139.4710   69.5650  221.7710 C   0  0  0  0  0  0  0  0  0  0  0  0
  139.2440   68.9240  223.1020 C   0  0  0  0  0  0  0  0  0  0  0  0
  138.1390   69.6500  223.8180 C   0  0  1  0  0  0  0  0  0  0  0  0
  138.3000   69.4220  225.3050 C   0  0  0  0  0  0  0  0  0  0  0  0
  138.8290   68.0940  225.4850 N   0  0  0  0  0  0  0  0  0  0  0  0
  140.1620   68.1280  226.0920 C   0  0  0  0  0  0  0  0  0  0  0  0
  140.4090   69.4850  226.6460 C   0  0  0  0  0  0  0  0  0  0  0  0
  141.1870   70.3540  225.8750 C   0  0  0  0  0  0  0  0  0  0  0  0
  141.4350   71.6170  226.3610 C   0  0  0  0  0  0  0  0  0  0  0  0
  140.9450   72.0490  227.5730 C   0  0  0  0  0  0  0  0  0  0  0  0
  140.1720   71.1820  228.3350 C   0  0  0  0  0  0  0  0  0  0  0  0
  139.9130   69.9070  227.8620 C   0  0  0  0  0  0  0  0  0  0  0  0
  137.6250   76.4380  222.4750 C   0  0  0  0  0  0  0  0  0  0  0  0
  136.9690   77.6520  222.6740 C   0  0  0  0  0  0  0  0  0  0  0  0
  137.6810   78.8270  222.9090 C   0  0  0  0  0  0  0  0  0  0  0  0
  139.0510   78.7970  222.9470 C   0  0  0  0  0  0  0  0  0  0  0  0
  139.8100   79.9360  223.1760 C   0  0  0  0  0  0  0  0  0  0  0  0
  141.1900   79.8130  223.1970 C   0  0  0  0  0  0  0  0  0  0  0  0
  142.2220   81.2230  223.4840 Cl  0  0  0  0  0  0  0  0  0  0  0  0
  141.8420   78.6170  223.0010 C   0  0  0  0  0  0  0  0  0  0  0  0
  141.0520   77.5000  222.7760 C   0  0  0  0  0  0  0  0  0  0  0  0
  139.6630   77.5770  222.7450 C   0  0  0  0  0  0  0  0  0  0  0  0
  138.9630   76.4500  222.5200 N   0  0  0  0  0  0  0  0  0  0  0  0
  138.5310   73.9600  222.7160 H   0  0  0  0  0  0  0  0  0  0  0  0
  135.7446   72.8790  222.0666 H   0  0  0  0  0  0  0  0  0  0  0  0
  137.1991   72.2101  221.2828 H   0  0  0  0  0  0  0  0  0  0  0  0
  139.5151   72.6729  223.0751 H   0  0  0  0  0  0  0  0  0  0  0  0
  140.2137   71.3985  224.1139 H   0  0  0  0  0  0  0  0  0  0  0  0
  139.9755   71.5512  221.1363 H   0  0  0  0  0  0  0  0  0  0  0  0
  141.2140   70.7367  222.1725 H   0  0  0  0  0  0  0  0  0  0  0  0
  138.5095   69.7125  221.2575 H   0  0  0  0  0  0  0  0  0  0  0  0
  140.1061   68.9264  221.1394 H   0  0  0  0  0  0  0  0  0  0  0  0
  138.9604   67.8708  222.9596 H   0  0  0  0  0  0  0  0  0  0  0  0
  140.1667   68.9742  223.6987 H   0  0  0  0  0  0  0  0  0  0  0  0
  137.1461   69.2816  223.5207 H   0  0  0  0  0  0  0  0  0  0  0  0
  138.9954   70.1634  225.7255 H   0  0  0  0  0  0  0  0  0  0  0  0
  137.3336   69.5270  225.8198 H   0  0  0  0  0  0  0  0  0  0  0  0
  138.2060   67.5260  226.1160 H   0  0  0  0  0  0  0  0  0  0  0  0
  140.2178   67.3842  226.9005 H   0  0  0  0  0  0  0  0  0  0  0  0
  140.9218   67.8939  225.3318 H   0  0  0  0  0  0  0  0  0  0  0  0
  141.5912   70.0354  224.9028 H   0  0  0  0  0  0  0  0  0  0  0  0
  142.0464   72.3061  225.7599 H   0  0  0  0  0  0  0  0  0  0  0  0
  141.1624   73.0656  227.9326 H   0  0  0  0  0  0  0  0  0  0  0  0
  139.7691   71.5059  229.3060 H   0  0  0  0  0  0  0  0  0  0  0  0
  139.3020   69.2195  228.4654 H   0  0  0  0  0  0  0  0  0  0  0  0
  135.8698   77.6831  222.6450 H   0  0  0  0  0  0  0  0  0  0  0  0
  137.1453   79.7753  223.0635 H   0  0  0  0  0  0  0  0  0  0  0  0
  139.3283   80.9118  223.3368 H   0  0  0  0  0  0  0  0  0  0  0  0
  142.9398   78.5503  223.0219 H   0  0  0  0  0  0  0  0  0  0  0  0
  141.5370   76.5255  222.6175 H   0  0  0  0  0  0  0  0  0  0  0  0
  1  2  2  0
  2  3  1  0
  3  4  1  0
  4  5  1  0
  5  6  2  0
  5  7  1  0
  7  8  1  0
  8  9  1  0
  9 10  1  0
 10 11  1  0
 11 12  1  0
 12 13  1  0
 13 14  1  0
 14 15  1  0
 15 16  1  0
 16 17  2  0
 17 18  1  0
 18 19  2  0
 19 20  1  0
 20 21  2  0
  2 22  1  0
 22 23  2  0
 23 24  1  0
 24 25  2  0
 25 26  1  0
 26 27  2  0
 27 28  1  0
 27 29  1  0
 29 30  2  0
 30 31  1  0
 31 32  2  0
 12  7  1  0
 21 16  1  0
 32 22  1  0
 31 25  1  0
  3 33  1  0
  4 34  1  0
  4 35  1  0
  8 36  1  0
  8 37  1  0
  9 38  1  0
  9 39  1  0
 10 40  1  0
 10 41  1  0
 11 42  1  0
 11 43  1  0
 12 44  1  6
 13 45  1  0
 13 46  1  0
 14 47  1  0
 15 48  1  0
 15 49  1  0
 17 50  1  0
 18 51  1  0
 19 52  1  0
 20 53  1  0
 21 54  1  0
 23 55  1  0
 24 56  1  0
 26 57  1  0
 29 58  1  0
 30 59  1  0
M  END
>  <smiles>  (22) 
O=C(NCC(=O)N1CCCC[C@H]1CNCc1ccccc1)c1ccc2cc(Cl)ccc2n1

>  <score_type>  (22) 
oracle

>  <origin>  (22) 
autodockgpu

>  <m_score__min__energy>  (22) 
-9.4000000000000004

>  <m_primary>  (22) 
energy

>  <rmsd>  (22) 
9.472702569740457

>  <m_score__min__rmsd>  (22) 
9.472702569740457

>  <meeko>  (22) 
{"free_energy": -8.93, "intermolecular_energy": -11.31, "internal_energy": -2.03, "cluster_size": 11, "cluster_id": 3, "rank_in_cluster": 4}

>  <energy>  (22) 
-8.53

>  <cluster_rmsd>  (22) 
1.4

>  <cluster>  (22) 
4

$$$$

     RDKit          3D

 59 62  0  0  0  0  0  0  0  0999 V2000
  137.8560   71.3960  221.4240 O   0  0  0  0  0  0  0  0  0  0  0  0
  138.5980   71.8660  222.3210 C   0  0  0  0  0  0  0  0  0  0  0  0
  139.0640   73.2050  222.3440 N   0  0  0  0  0  0  0  0  0  0  0  0
  138.6930   74.1510  221.2810 C   0  0  0  0  0  0  0  0  0  0  0  0
  138.5310   75.4880  221.9060 C   0  0  0  0  0  0  0  0  0  0  0  0
  139.5530   76.1010  222.3340 O   0  0  0  0  0  0  0  0  0  0  0  0
  137.2450   76.0750  222.0230 N   0  0  0  0  0  0  0  0  0  0  0  0
  136.1440   75.4380  222.7350 C   0  0  0  0  0  0  0  0  0  0  0  0
  135.0560   75.1150  221.7290 C   0  0  0  0  0  0  0  0  0  0  0  0
  135.1550   76.0140  220.5110 C   0  0  0  0  0  0  0  0  0  0  0  0
  135.5380   77.3800  220.9810 C   0  0  0  0  0  0  0  0  0  0  0  0
  136.9760   77.3660  221.4220 C   0  0  1  0  0  0  0  0  0  0  0  0
  137.1860   78.4970  222.4040 C   0  0  0  0  0  0  0  0  0  0  0  0
  138.5300   78.3860  222.9100 N   0  0  0  0  0  0  0  0  0  0  0  0
  138.9220   79.5870  223.6530 C   0  0  0  0  0  0  0  0  0  0  0  0
  140.3720   79.8370  223.4430 C   0  0  0  0  0  0  0  0  0  0  0  0
  140.7950   81.1700  223.4530 C   0  0  0  0  0  0  0  0  0  0  0  0
  142.1310   81.4340  223.2610 C   0  0  0  0  0  0  0  0  0  0  0  0
  143.0580   80.4360  223.0600 C   0  0  0  0  0  0  0  0  0  0  0  0
  142.6330   79.1140  223.0500 C   0  0  0  0  0  0  0  0  0  0  0  0
  141.2920   78.8280  223.2420 C   0  0  0  0  0  0  0  0  0  0  0  0
  139.0220   70.9940  223.4280 C   0  0  0  0  0  0  0  0  0  0  0  0
  138.7980   69.6200  223.3570 C   0  0  0  0  0  0  0  0  0  0  0  0
  139.1890   68.7710  224.3920 C   0  0  0  0  0  0  0  0  0  0  0  0
  139.8060   69.2890  225.5010 C   0  0  0  0  0  0  0  0  0  0  0  0
  140.2160   68.4900  226.5600 C   0  0  0  0  0  0  0  0  0  0  0  0
  140.8310   69.0980  227.6420 C   0  0  0  0  0  0  0  0  0  0  0  0
  141.3810   68.1440  229.0280 Cl  0  0  0  0  0  0  0  0  0  0  0  0
  141.0550   70.4540  227.7160 C   0  0  0  0  0  0  0  0  0  0  0  0
  140.6320   71.2210  226.6400 C   0  0  0  0  0  0  0  0  0  0  0  0
  140.0100   70.6530  225.5340 C   0  0  0  0  0  0  0  0  0  0  0  0
  139.6270   71.4610  224.5280 N   0  0  0  0  0  0  0  0  0  0  0  0
  139.6870   73.5410  223.1290 H   0  0  0  0  0  0  0  0  0  0  0  0
  139.4845   74.1871  220.5180 H   0  0  0  0  0  0  0  0  0  0  0  0
  137.7584   73.8368  220.7933 H   0  0  0  0  0  0  0  0  0  0  0  0
  136.4957   74.5123  223.2139 H   0  0  0  0  0  0  0  0  0  0  0  0
  135.7550   76.1098  223.5143 H   0  0  0  0  0  0  0  0  0  0  0  0
  135.1597   74.0669  221.4115 H   0  0  0  0  0  0  0  0  0  0  0  0
  134.0786   75.2791  222.2062 H   0  0  0  0  0  0  0  0  0  0  0  0
  135.9201   75.6273  219.8217 H   0  0  0  0  0  0  0  0  0  0  0  0
  134.1930   76.0467  219.9785 H   0  0  0  0  0  0  0  0  0  0  0  0
  135.4121   78.1005  220.1594 H   0  0  0  0  0  0  0  0  0  0  0  0
  134.8957   77.6744  221.8241 H   0  0  0  0  0  0  0  0  0  0  0  0
  137.6670   77.5123  220.5787 H   0  0  0  0  0  0  0  0  0  0  0  0
  137.0541   79.4642  221.8969 H   0  0  0  0  0  0  0  0  0  0  0  0
  136.4564   78.4381  223.2251 H   0  0  0  0  0  0  0  0  0  0  0  0
  138.6160   77.5650  223.5640 H   0  0  0  0  0  0  0  0  0  0  0  0
  138.3432   80.4495  223.2908 H   0  0  0  0  0  0  0  0  0  0  0  0
  138.7224   79.4413  224.7249 H   0  0  0  0  0  0  0  0  0  0  0  0
  140.0763   81.9877  223.6107 H   0  0  0  0  0  0  0  0  0  0  0  0
  142.4712   82.4800  223.2683 H   0  0  0  0  0  0  0  0  0  0  0  0
  144.1195   80.6822  222.9096 H   0  0  0  0  0  0  0  0  0  0  0  0
  143.3560   78.3005  222.8908 H   0  0  0  0  0  0  0  0  0  0  0  0
  140.9548   77.7810  223.2342 H   0  0  0  0  0  0  0  0  0  0  0  0
  138.3043   69.1981  222.4692 H   0  0  0  0  0  0  0  0  0  0  0  0
  139.0029   67.6893  224.3186 H   0  0  0  0  0  0  0  0  0  0  0  0
  140.0565   67.4018  226.5402 H   0  0  0  0  0  0  0  0  0  0  0  0
  141.5469   70.9089  228.5884 H   0  0  0  0  0  0  0  0  0  0  0  0
  140.7933   72.3089  226.6627 H   0  0  0  0  0  0  0  0  0  0  0  0
  1  2  2  0
  2  3  1  0
  3  4  1  0
  4  5  1  0
  5  6  2  0
  5  7  1  0
  7  8  1  0
  8  9  1  0
  9 10  1  0
 10 11  1  0
 11 12  1  0
 12 13  1  0
 13 14  1  0
 14 15  1  0
 15 16  1  0
 16 17  2  0
 17 18  1  0
 18 19  2  0
 19 20  1  0
 20 21  2  0
  2 22  1  0
 22 23  2  0
 23 24  1  0
 24 25  2  0
 25 26  1  0
 26 27  2  0
 27 28  1  0
 27 29  1  0
 29 30  2  0
 30 31  1  0
 31 32  2  0
 12  7  1  0
 21 16  1  0
 32 22  1  0
 31 25  1  0
  3 33  1  0
  4 34  1  0
  4 35  1  0
  8 36  1  0
  8 37  1  0
  9 38  1  0
  9 39  1  0
 10 40  1  0
 10 41  1  0
 11 42  1  0
 11 43  1  0
 12 44  1  6
 13 45  1  0
 13 46  1  0
 14 47  1  0
 15 48  1  0
 15 49  1  0
 17 50  1  0
 18 51  1  0
 19 52  1  0
 20 53  1  0
 21 54  1  0
 23 55  1  0
 24 56  1  0
 26 57  1  0
 29 58  1  0
 30 59  1  0
M  END
>  <smiles>  (23) 
O=C(NCC(=O)N1CCCC[C@H]1CNCc1ccccc1)c1ccc2cc(Cl)ccc2n1

>  <score_type>  (23) 
oracle

>  <origin>  (23) 
autodockgpu

>  <m_score__min__energy>  (23) 
-9.4000000000000004

>  <m_primary>  (23) 
energy

>  <rmsd>  (23) 
3.6256338858215487

>  <m_score__min__rmsd>  (23) 
3.6256338858215487

>  <meeko>  (23) 
{"free_energy": -8.01, "intermolecular_energy": -10.39, "internal_energy": -2.48, "cluster_size": 5, "cluster_id": 7, "rank_in_cluster": 2}

>  <energy>  (23) 
-8.47

>  <cluster_rmsd>  (23) 
1.52

>  <cluster>  (23) 
4

$$$$

     RDKit          3D

 59 62  0  0  0  0  0  0  0  0999 V2000
  138.1580   71.5450  221.3340 O   0  0  0  0  0  0  0  0  0  0  0  0
  138.8500   71.9930  222.2800 C   0  0  0  0  0  0  0  0  0  0  0  0
  139.3390   73.3230  222.3430 N   0  0  0  0  0  0  0  0  0  0  0  0
  139.0520   74.2840  221.2670 C   0  0  0  0  0  0  0  0  0  0  0  0
  140.0540   75.3760  221.3620 C   0  0  0  0  0  0  0  0  0  0  0  0
  140.8660   75.3920  222.3340 O   0  0  0  0  0  0  0  0  0  0  0  0
  140.1060   76.3920  220.3730 N   0  0  0  0  0  0  0  0  0  0  0  0
  140.2620   76.1060  218.9520 C   0  0  0  0  0  0  0  0  0  0  0  0
  141.5940   76.6750  218.5010 C   0  0  0  0  0  0  0  0  0  0  0  0
  142.0470   77.7970  219.4160 C   0  0  0  0  0  0  0  0  0  0  0  0
  140.8380   78.5900  219.7980 C   0  0  0  0  0  0  0  0  0  0  0  0
  140.0010   77.7860  220.7530 C   0  0  1  0  0  0  0  0  0  0  0  0
  138.5740   78.2830  220.6750 C   0  0  0  0  0  0  0  0  0  0  0  0
  138.4960   79.4970  221.4460 N   0  0  0  0  0  0  0  0  0  0  0  0
  138.8600   79.2650  222.8460 C   0  0  0  0  0  0  0  0  0  0  0  0
  140.2390   79.7690  223.0790 C   0  0  0  0  0  0  0  0  0  0  0  0
  140.4520   81.1400  222.9030 C   0  0  0  0  0  0  0  0  0  0  0  0
  141.7170   81.6390  223.1100 C   0  0  0  0  0  0  0  0  0  0  0  0
  142.7730   80.8370  223.4820 C   0  0  0  0  0  0  0  0  0  0  0  0
  142.5560   79.4760  223.6570 C   0  0  0  0  0  0  0  0  0  0  0  0
  141.2890   78.9560  223.4520 C   0  0  0  0  0  0  0  0  0  0  0  0
  139.1880   71.1050  223.4030 C   0  0  0  0  0  0  0  0  0  0  0  0
  138.8770   69.7480  223.3360 C   0  0  0  0  0  0  0  0  0  0  0  0
  139.1850   68.8840  224.3860 C   0  0  0  0  0  0  0  0  0  0  0  0
  139.8050   69.3710  225.5070 C   0  0  0  0  0  0  0  0  0  0  0  0
  140.1350   68.5560  226.5820 C   0  0  0  0  0  0  0  0  0  0  0  0
  140.7610   69.1320  227.6760 C   0  0  0  0  0  0  0  0  0  0  0  0
  141.2110   68.1560  229.0820 Cl  0  0  0  0  0  0  0  0  0  0  0  0
  141.0700   70.4710  227.7470 C   0  0  0  0  0  0  0  0  0  0  0  0
  140.7260   71.2550  226.6550 C   0  0  0  0  0  0  0  0  0  0  0  0
  140.0970   70.7190  225.5360 C   0  0  0  0  0  0  0  0  0  0  0  0
  139.7940   71.5410  224.5150 N   0  0  0  0  0  0  0  0  0  0  0  0
  139.9180   73.6410  223.1680 H   0  0  0  0  0  0  0  0  0  0  0  0
  139.1306   73.7867  220.2890 H   0  0  0  0  0  0  0  0  0  0  0  0
  138.0326   74.6848  221.3684 H   0  0  0  0  0  0  0  0  0  0  0  0
  140.2456   75.0187  218.7864 H   0  0  0  0  0  0  0  0  0  0  0  0
  139.4398   76.5597  218.3791 H   0  0  0  0  0  0  0  0  0  0  0  0
  142.3488   75.8750  218.5128 H   0  0  0  0  0  0  0  0  0  0  0  0
  141.4749   77.0795  217.4850 H   0  0  0  0  0  0  0  0  0  0  0  0
  142.5198   77.3780  220.3165 H   0  0  0  0  0  0  0  0  0  0  0  0
  142.7814   78.4371  218.9053 H   0  0  0  0  0  0  0  0  0  0  0  0
  141.1505   79.5271  220.2818 H   0  0  0  0  0  0  0  0  0  0  0  0
  140.2501   78.8240  218.8982 H   0  0  0  0  0  0  0  0  0  0  0  0
  140.3445   77.8943  221.7924 H   0  0  0  0  0  0  0  0  0  0  0  0
  138.3032   78.4848  219.6281 H   0  0  0  0  0  0  0  0  0  0  0  0
  137.8784   77.5278  221.0698 H   0  0  0  0  0  0  0  0  0  0  0  0
  139.1520   80.2260  221.0620 H   0  0  0  0  0  0  0  0  0  0  0  0
  138.1569   79.7981  223.5028 H   0  0  0  0  0  0  0  0  0  0  0  0
  138.8162   78.1884  223.0672 H   0  0  0  0  0  0  0  0  0  0  0  0
  139.6269   81.8040  222.6059 H   0  0  0  0  0  0  0  0  0  0  0  0
  141.8913   82.7165  222.9736 H   0  0  0  0  0  0  0  0  0  0  0  0
  143.7731   81.2675  223.6382 H   0  0  0  0  0  0  0  0  0  0  0  0
  143.3841   78.8166  223.9561 H   0  0  0  0  0  0  0  0  0  0  0  0
  141.1173   77.8781  223.5887 H   0  0  0  0  0  0  0  0  0  0  0  0
  138.3796   69.3516  222.4385 H   0  0  0  0  0  0  0  0  0  0  0  0
  138.9314   67.8160  224.3150 H   0  0  0  0  0  0  0  0  0  0  0  0
  139.9053   67.4804  226.5655 H   0  0  0  0  0  0  0  0  0  0  0  0
  141.5671   70.9004  228.6293 H   0  0  0  0  0  0  0  0  0  0  0  0
  140.9571   72.3303  226.6747 H   0  0  0  0  0  0  0  0  0  0  0  0
  1  2  2  0
  2  3  1  0
  3  4  1  0
  4  5  1  0
  5  6  2  0
  5  7  1  0
  7  8  1  0
  8  9  1  0
  9 10  1  0
 10 11  1  0
 11 12  1  0
 12 13  1  0
 13 14  1  0
 14 15  1  0
 15 16  1  0
 16 17  2  0
 17 18  1  0
 18 19  2  0
 19 20  1  0
 20 21  2  0
  2 22  1  0
 22 23  2  0
 23 24  1  0
 24 25  2  0
 25 26  1  0
 26 27  2  0
 27 28  1  0
 27 29  1  0
 29 30  2  0
 30 31  1  0
 31 32  2  0
 12  7  1  0
 21 16  1  0
 32 22  1  0
 31 25  1  0
  3 33  1  0
  4 34  1  0
  4 35  1  0
  8 36  1  0
  8 37  1  0
  9 38  1  0
  9 39  1  0
 10 40  1  0
 10 41  1  0
 11 42  1  0
 11 43  1  0
 12 44  1  1
 13 45  1  0
 13 46  1  0
 14 47  1  0
 15 48  1  0
 15 49  1  0
 17 50  1  0
 18 51  1  0
 19 52  1  0
 20 53  1  0
 21 54  1  0
 23 55  1  0
 24 56  1  0
 26 57  1  0
 29 58  1  0
 30 59  1  0
M  END
>  <smiles>  (24) 
O=C(NCC(=O)N1CCCC[C@H]1CNCc1ccccc1)c1ccc2cc(Cl)ccc2n1

>  <score_type>  (24) 
oracle

>  <origin>  (24) 
autodockgpu

>  <m_score__min__energy>  (24) 
-9.4000000000000004

>  <m_primary>  (24) 
energy

>  <rmsd>  (24) 
2.395894204574043

>  <m_score__min__rmsd>  (24) 
2.395894204574043

>  <meeko>  (24) 
{"free_energy": -8.24, "intermolecular_energy": -10.63, "internal_energy": -2.62, "cluster_size": 5, "cluster_id": 7, "rank_in_cluster": 1}

>  <energy>  (24) 
-8.29

>  <cluster_rmsd>  (24) 
1.6

>  <cluster>  (24) 
4

$$$$

     RDKit          3D

 59 62  0  0  0  0  0  0  0  0999 V2000
  139.7670   72.6290  220.5870 O   0  0  0  0  0  0  0  0  0  0  0  0
  139.7140   73.0040  221.7840 C   0  0  0  0  0  0  0  0  0  0  0  0
  139.5670   74.3570  222.1840 N   0  0  0  0  0  0  0  0  0  0  0  0
  139.4660   75.4320  221.1860 C   0  0  0  0  0  0  0  0  0  0  0  0
  139.3790   76.7190  221.9210 C   0  0  0  0  0  0  0  0  0  0  0  0
  138.3040   77.0230  222.5190 O   0  0  0  0  0  0  0  0  0  0  0  0
  140.4880   77.6030  221.9570 N   0  0  0  0  0  0  0  0  0  0  0  0
  141.4090   77.6730  223.0850 C   0  0  0  0  0  0  0  0  0  0  0  0
  141.2800   79.0460  223.7150 C   0  0  0  0  0  0  0  0  0  0  0  0
  140.7410   80.0560  222.7180 C   0  0  0  0  0  0  0  0  0  0  0  0
  141.3530   79.7540  221.3880 C   0  0  0  0  0  0  0  0  0  0  0  0
  140.7510   78.4900  220.8410 C   0  0  1  0  0  0  0  0  0  0  0  0
  141.7270   77.8810  219.8580 C   0  0  0  0  0  0  0  0  0  0  0  0
  142.2400   76.6720  220.4510 N   0  0  0  0  0  0  0  0  0  0  0  0
  143.4420   76.2050  219.7540 C   0  0  0  0  0  0  0  0  0  0  0  0
  143.7310   74.8070  220.1680 C   0  0  0  0  0  0  0  0  0  0  0  0
  142.6410   73.9380  220.2720 C   0  0  0  0  0  0  0  0  0  0  0  0
  142.8740   72.6370  220.6550 C   0  0  0  0  0  0  0  0  0  0  0  0
  144.1380   72.1680  220.9360 C   0  0  0  0  0  0  0  0  0  0  0  0
  145.2180   73.0360  220.8320 C   0  0  0  0  0  0  0  0  0  0  0  0
  145.0010   74.3490  220.4480 C   0  0  0  0  0  0  0  0  0  0  0  0
  139.8060   71.9990  222.8540 C   0  0  0  0  0  0  0  0  0  0  0  0
  139.3300   70.7070  222.6380 C   0  0  0  0  0  0  0  0  0  0  0  0
  139.4060   69.7340  223.6340 C   0  0  0  0  0  0  0  0  0  0  0  0
  139.9560   70.0460  224.8500 C   0  0  0  0  0  0  0  0  0  0  0  0
  140.0560   69.1170  225.8770 C   0  0  0  0  0  0  0  0  0  0  0  0
  140.6260   69.5200  227.0740 C   0  0  0  0  0  0  0  0  0  0  0  0
  140.7870   68.3910  228.4280 Cl  0  0  0  0  0  0  0  0  0  0  0  0
  141.0980   70.7950  227.2920 C   0  0  0  0  0  0  0  0  0  0  0  0
  140.9820   71.6960  226.2430 C   0  0  0  0  0  0  0  0  0  0  0  0
  140.4160   71.3350  225.0250 C   0  0  0  0  0  0  0  0  0  0  0  0
  140.3380   72.2640  224.0540 N   0  0  0  0  0  0  0  0  0  0  0  0
  139.5290   74.6090  223.2100 H   0  0  0  0  0  0  0  0  0  0  0  0
  140.3559   75.4286  220.5394 H   0  0  0  0  0  0  0  0  0  0  0  0
  138.5791   75.2884  220.5514 H   0  0  0  0  0  0  0  0  0  0  0  0
  141.1535   76.8987  223.8233 H   0  0  0  0  0  0  0  0  0  0  0  0
  142.4415   77.5058  222.7444 H   0  0  0  0  0  0  0  0  0  0  0  0
  140.5929   78.9851  224.5718 H   0  0  0  0  0  0  0  0  0  0  0  0
  142.2772   79.3756  224.0420 H   0  0  0  0  0  0  0  0  0  0  0  0
  139.6461   79.9717  222.6543 H   0  0  0  0  0  0  0  0  0  0  0  0
  140.9914   81.0796  223.0335 H   0  0  0  0  0  0  0  0  0  0  0  0
  141.1554   80.5852  220.6951 H   0  0  0  0  0  0  0  0  0  0  0  0
  142.4395   79.6259  221.5023 H   0  0  0  0  0  0  0  0  0  0  0  0
  139.8058   78.6797  220.3114 H   0  0  0  0  0  0  0  0  0  0  0  0
  141.2130   77.6477  218.9139 H   0  0  0  0  0  0  0  0  0  0  0  0
  142.5452   78.5828  219.6386 H   0  0  0  0  0  0  0  0  0  0  0  0
  142.4980   76.8310  221.4590 H   0  0  0  0  0  0  0  0  0  0  0  0
  143.2750   76.2405  218.6673 H   0  0  0  0  0  0  0  0  0  0  0  0
  144.2942   76.8515  220.0104 H   0  0  0  0  0  0  0  0  0  0  0  0
  141.6208   74.2861  220.0528 H   0  0  0  0  0  0  0  0  0  0  0  0
  142.0210   71.9477  220.7397 H   0  0  0  0  0  0  0  0  0  0  0  0
  144.2904   71.1214  221.2384 H   0  0  0  0  0  0  0  0  0  0  0  0
  146.2364   72.6835  221.0527 H   0  0  0  0  0  0  0  0  0  0  0  0
  145.8552   75.0371  220.3651 H   0  0  0  0  0  0  0  0  0  0  0  0
  138.8865   70.4503  221.6646 H   0  0  0  0  0  0  0  0  0  0  0  0
  139.0258   68.7194  223.4444 H   0  0  0  0  0  0  0  0  0  0  0  0
  139.6921   68.0875  225.7438 H   0  0  0  0  0  0  0  0  0  0  0  0
  141.5464   71.0860  228.2534 H   0  0  0  0  0  0  0  0  0  0  0  0
  141.3479   72.7244  226.3786 H   0  0  0  0  0  0  0  0  0  0  0  0
  1  2  2  0
  2  3  1  0
  3  4  1  0
  4  5  1  0
  5  6  2  0
  5  7  1  0
  7  8  1  0
  8  9  1  0
  9 10  1  0
 10 11  1  0
 11 12  1  0
 12 13  1  0
 13 14  1  0
 14 15  1  0
 15 16  1  0
 16 17  2  0
 17 18  1  0
 18 19  2  0
 19 20  1  0
 20 21  2  0
  2 22  1  0
 22 23  2  0
 23 24  1  0
 24 25  2  0
 25 26  1  0
 26 27  2  0
 27 28  1  0
 27 29  1  0
 29 30  2  0
 30 31  1  0
 31 32  2  0
 12  7  1  0
 21 16  1  0
 32 22  1  0
 31 25  1  0
  3 33  1  0
  4 34  1  0
  4 35  1  0
  8 36  1  0
  8 37  1  0
  9 38  1  0
  9 39  1  0
 10 40  1  0
 10 41  1  0
 11 42  1  0
 11 43  1  0
 12 44  1  6
 13 45  1  0
 13 46  1  0
 14 47  1  0
 15 48  1  0
 15 49  1  0
 17 50  1  0
 18 51  1  0
 19 52  1  0
 20 53  1  0
 21 54  1  0
 23 55  1  0
 24 56  1  0
 26 57  1  0
 29 58  1  0
 30 59  1  0
M  END
>  <smiles>  (25) 
O=C(NCC(=O)N1CCCC[C@H]1CNCc1ccccc1)c1ccc2cc(Cl)ccc2n1

>  <score_type>  (25) 
oracle

>  <origin>  (25) 
autodockgpu

>  <m_score__min__energy>  (25) 
-9.4000000000000004

>  <m_primary>  (25) 
energy

>  <rmsd>  (25) 
5.219817659144825

>  <m_score__min__rmsd>  (25) 
5.219817659144825

>  <meeko>  (25) 
{"free_energy": -9.4, "intermolecular_energy": -11.79, "internal_energy": -2.38, "cluster_size": 6, "cluster_id": 1, "rank_in_cluster": 1}

>  <energy>  (25) 
-7.96

>  <cluster_rmsd>  (25) 
1.54

>  <cluster>  (25) 
4

$$$$

     RDKit          3D

 59 62  0  0  0  0  0  0  0  0999 V2000
  139.4190   74.5670  222.1980 O   0  0  0  0  0  0  0  0  0  0  0  0
  140.5930   74.8560  221.8620 C   0  0  0  0  0  0  0  0  0  0  0  0
  141.1610   76.1480  221.9990 N   0  0  0  0  0  0  0  0  0  0  0  0
  140.3800   77.2600  222.5620 C   0  0  0  0  0  0  0  0  0  0  0  0
  140.2020   78.2710  221.4900 C   0  0  0  0  0  0  0  0  0  0  0  0
  139.2260   78.1650  220.6900 O   0  0  0  0  0  0  0  0  0  0  0  0
  141.1150   79.3500  221.3610 N   0  0  0  0  0  0  0  0  0  0  0  0
  142.1650   79.6200  222.3370 C   0  0  0  0  0  0  0  0  0  0  0  0
  141.8720   80.9580  222.9860 C   0  0  0  0  0  0  0  0  0  0  0  0
  141.0060   81.8230  222.0890 C   0  0  0  0  0  0  0  0  0  0  0  0
  141.4580   81.6120  220.6800 C   0  0  0  0  0  0  0  0  0  0  0  0
  141.0330   80.2440  220.2240 C   0  0  1  0  0  0  0  0  0  0  0  0
  141.9470   79.8080  219.1010 C   0  0  0  0  0  0  0  0  0  0  0  0
  141.6090   78.4470  218.7710 N   0  0  0  0  0  0  0  0  0  0  0  0
  142.5760   77.5040  219.3390 C   0  0  0  0  0  0  0  0  0  0  0  0
  142.5310   76.2360  218.5640 C   0  0  0  0  0  0  0  0  0  0  0  0
  141.2860   75.6090  218.4450 C   0  0  0  0  0  0  0  0  0  0  0  0
  141.2110   74.4330  217.7350 C   0  0  0  0  0  0  0  0  0  0  0  0
  142.3120   73.8580  217.1430 C   0  0  0  0  0  0  0  0  0  0  0  0
  143.5460   74.4850  217.2640 C   0  0  0  0  0  0  0  0  0  0  0  0
  143.6420   75.6690  217.9760 C   0  0  0  0  0  0  0  0  0  0  0  0
  141.4510   73.8080  221.2890 C   0  0  0  0  0  0  0  0  0  0  0  0
  140.9200   72.5510  221.0040 C   0  0  0  0  0  0  0  0  0  0  0  0
  141.7110   71.5400  220.4600 C   0  0  0  0  0  0  0  0  0  0  0  0
  143.0360   71.7780  220.1980 C   0  0  0  0  0  0  0  0  0  0  0  0
  143.8690   70.8070  219.6580 C   0  0  0  0  0  0  0  0  0  0  0  0
  145.1940   71.1350  219.4250 C   0  0  0  0  0  0  0  0  0  0  0  0
  146.3150   69.9500  218.7380 Cl  0  0  0  0  0  0  0  0  0  0  0  0
  145.7230   72.3750  219.7050 C   0  0  0  0  0  0  0  0  0  0  0  0
  144.8620   73.3200  220.2430 C   0  0  0  0  0  0  0  0  0  0  0  0
  143.5240   73.0340  220.4940 C   0  0  0  0  0  0  0  0  0  0  0  0
  142.7480   74.0020  221.0170 N   0  0  0  0  0  0  0  0  0  0  0  0
  142.1570   76.3290  221.6960 H   0  0  0  0  0  0  0  0  0  0  0  0
  139.3989   76.8957  222.9007 H   0  0  0  0  0  0  0  0  0  0  0  0
  140.9008   77.6998  223.4253 H   0  0  0  0  0  0  0  0  0  0  0  0
  142.1757   78.8292  223.1015 H   0  0  0  0  0  0  0  0  0  0  0  0
  143.1476   79.6431  221.8431 H   0  0  0  0  0  0  0  0  0  0  0  0
  141.3465   80.7883  223.9373 H   0  0  0  0  0  0  0  0  0  0  0  0
  142.8255   81.4787  223.1582 H   0  0  0  0  0  0  0  0  0  0  0  0
  139.9507   81.5301  222.1917 H   0  0  0  0  0  0  0  0  0  0  0  0
  141.0996   82.8827  222.3689 H   0  0  0  0  0  0  0  0  0  0  0  0
  141.0036   82.3741  220.0298 H   0  0  0  0  0  0  0  0  0  0  0  0
  142.5535   81.6954  220.6270 H   0  0  0  0  0  0  0  0  0  0  0  0
  140.0001   80.2390  219.8458 H   0  0  0  0  0  0  0  0  0  0  0  0
  141.7991   80.4550  218.2238 H   0  0  0  0  0  0  0  0  0  0  0  0
  143.0006   79.8818  219.4083 H   0  0  0  0  0  0  0  0  0  0  0  0
  140.6590   78.1960  219.1490 H   0  0  0  0  0  0  0  0  0  0  0  0
  143.5868   77.9343  219.2831 H   0  0  0  0  0  0  0  0  0  0  0  0
  142.3253   77.3045  220.3913 H   0  0  0  0  0  0  0  0  0  0  0  0
  140.3888   76.0457  218.9079 H   0  0  0  0  0  0  0  0  0  0  0  0
  140.2355   73.9343  217.6370 H   0  0  0  0  0  0  0  0  0  0  0  0
  142.2167   72.9163  216.5825 H   0  0  0  0  0  0  0  0  0  0  0  0
  144.4397   74.0444  216.7979 H   0  0  0  0  0  0  0  0  0  0  0  0
  144.6192   76.1646  218.0739 H   0  0  0  0  0  0  0  0  0  0  0  0
  139.8581   72.3533  221.2120 H   0  0  0  0  0  0  0  0  0  0  0  0
  141.2737   70.5545  220.2416 H   0  0  0  0  0  0  0  0  0  0  0  0
  143.4862   69.8032  219.4215 H   0  0  0  0  0  0  0  0  0  0  0  0
  146.7808   72.6058  219.5108 H   0  0  0  0  0  0  0  0  0  0  0  0
  145.2478   74.3231  220.4776 H   0  0  0  0  0  0  0  0  0  0  0  0
  1  2  2  0
  2  3  1  0
  3  4  1  0
  4  5  1  0
  5  6  2  0
  5  7  1  0
  7  8  1  0
  8  9  1  0
  9 10  1  0
 10 11  1  0
 11 12  1  0
 12 13  1  0
 13 14  1  0
 14 15  1  0
 15 16  1  0
 16 17  2  0
 17 18  1  0
 18 19  2  0
 19 20  1  0
 20 21  2  0
  2 22  1  0
 22 23  2  0
 23 24  1  0
 24 25  2  0
 25 26  1  0
 26 27  2  0
 27 28  1  0
 27 29  1  0
 29 30  2  0
 30 31  1  0
 31 32  2  0
 12  7  1  0
 21 16  1  0
 32 22  1  0
 31 25  1  0
  3 33  1  0
  4 34  1  0
  4 35  1  0
  8 36  1  0
  8 37  1  0
  9 38  1  0
  9 39  1  0
 10 40  1  0
 10 41  1  0
 11 42  1  0
 11 43  1  0
 12 44  1  6
 13 45  1  0
 13 46  1  0
 14 47  1  0
 15 48  1  0
 15 49  1  0
 17 50  1  0
 18 51  1  0
 19 52  1  0
 20 53  1  0
 21 54  1  0
 23 55  1  0
 24 56  1  0
 26 57  1  0
 29 58  1  0
 30 59  1  0
M  END
>  <smiles>  (26) 
O=C(NCC(=O)N1CCCC[C@H]1CNCc1ccccc1)c1ccc2cc(Cl)ccc2n1

>  <score_type>  (26) 
oracle

>  <origin>  (26) 
autodockgpu

>  <m_score__min__energy>  (26) 
-9.4000000000000004

>  <m_primary>  (26) 
energy

>  <rmsd>  (26) 
6.558485605800479

>  <m_score__min__rmsd>  (26) 
6.558485605800479

>  <meeko>  (26) 
{"free_energy": -5.86, "intermolecular_energy": -8.25, "internal_energy": -4.23, "cluster_size": 1, "cluster_id": 15, "rank_in_cluster": 1}

>  <energy>  (26) 
-8.52

>  <cluster_rmsd>  (26) 
0.0

>  <cluster>  (26) 
5

$$$$

     RDKit          3D

 59 62  0  0  0  0  0  0  0  0999 V2000
  142.0560   72.8230  220.0910 O   0  0  0  0  0  0  0  0  0  0  0  0
  141.4160   73.4590  220.9630 C   0  0  0  0  0  0  0  0  0  0  0  0
  140.6020   72.8480  221.9510 N   0  0  0  0  0  0  0  0  0  0  0  0
  140.4570   71.3860  222.0110 C   0  0  0  0  0  0  0  0  0  0  0  0
  139.5530   71.0710  223.1450 C   0  0  0  0  0  0  0  0  0  0  0  0
  139.4690   71.8790  224.1170 O   0  0  0  0  0  0  0  0  0  0  0  0
  138.7870   69.8760  223.1430 N   0  0  0  0  0  0  0  0  0  0  0  0
  139.0690   68.7560  222.2530 C   0  0  0  0  0  0  0  0  0  0  0  0
  137.8930   68.5970  221.3090 C   0  0  0  0  0  0  0  0  0  0  0  0
  136.6290   69.1890  221.9050 C   0  0  0  0  0  0  0  0  0  0  0  0
  136.6280   68.8820  223.3680 C   0  0  0  0  0  0  0  0  0  0  0  0
  137.6680   69.7250  224.0520 C   0  0  1  0  0  0  0  0  0  0  0  0
  138.0770   69.0350  225.3350 C   0  0  0  0  0  0  0  0  0  0  0  0
  139.1740   68.1560  225.0230 N   0  0  0  0  0  0  0  0  0  0  0  0
  140.1260   68.0760  226.1340 C   0  0  0  0  0  0  0  0  0  0  0  0
  140.4220   69.4490  226.6200 C   0  0  0  0  0  0  0  0  0  0  0  0
  139.8750   69.8170  227.8540 C   0  0  0  0  0  0  0  0  0  0  0  0
  140.1290   71.0820  228.3310 C   0  0  0  0  0  0  0  0  0  0  0  0
  140.8990   71.9900  227.6390 C   0  0  0  0  0  0  0  0  0  0  0  0
  141.4400   71.6190  226.4150 C   0  0  0  0  0  0  0  0  0  0  0  0
  141.1950   70.3500  225.9180 C   0  0  0  0  0  0  0  0  0  0  0  0
  141.5000   74.9270  220.9830 C   0  0  0  0  0  0  0  0  0  0  0  0
  142.1310   75.6030  219.9410 C   0  0  0  0  0  0  0  0  0  0  0  0
  142.2250   76.9940  219.9340 C   0  0  0  0  0  0  0  0  0  0  0  0
  141.6890   77.7170  220.9690 C   0  0  0  0  0  0  0  0  0  0  0  0
  141.7540   79.1030  221.0140 C   0  0  0  0  0  0  0  0  0  0  0  0
  141.1860   79.7530  222.0970 C   0  0  0  0  0  0  0  0  0  0  0  0
  141.2300   81.5180  222.2230 Cl  0  0  0  0  0  0  0  0  0  0  0  0
  140.5610   79.0900  223.1290 C   0  0  0  0  0  0  0  0  0  0  0  0
  140.5150   77.7050  223.0500 C   0  0  0  0  0  0  0  0  0  0  0  0
  141.0730   77.0120  221.9820 C   0  0  0  0  0  0  0  0  0  0  0  0
  140.9890   75.6690  221.9740 N   0  0  0  0  0  0  0  0  0  0  0  0
  140.0870   73.4400  222.6600 H   0  0  0  0  0  0  0  0  0  0  0  0
  140.0238   71.0131  221.0712 H   0  0  0  0  0  0  0  0  0  0  0  0
  141.4366   70.9061  222.1530 H   0  0  0  0  0  0  0  0  0  0  0  0
  139.9844   68.9583  221.6776 H   0  0  0  0  0  0  0  0  0  0  0  0
  139.2177   67.8346  222.8352 H   0  0  0  0  0  0  0  0  0  0  0  0
  138.1194   69.1116  220.3635 H   0  0  0  0  0  0  0  0  0  0  0  0
  137.7274   67.5235  221.1354 H   0  0  0  0  0  0  0  0  0  0  0  0
  136.6168   70.2781  221.7509 H   0  0  0  0  0  0  0  0  0  0  0  0
  135.7385   68.7610  221.4214 H   0  0  0  0  0  0  0  0  0  0  0  0
  135.6372   69.1062  223.7900 H   0  0  0  0  0  0  0  0  0  0  0  0
  136.8567   67.8171  223.5217 H   0  0  0  0  0  0  0  0  0  0  0  0
  137.2845   70.7236  224.3082 H   0  0  0  0  0  0  0  0  0  0  0  0
  138.3935   69.7814  226.0784 H   0  0  0  0  0  0  0  0  0  0  0  0
  137.2336   68.4678  225.7557 H   0  0  0  0  0  0  0  0  0  0  0  0
  138.8280   67.1810  224.8290 H   0  0  0  0  0  0  0  0  0  0  0  0
  139.6900   67.4821  226.9508 H   0  0  0  0  0  0  0  0  0  0  0  0
  141.0546   67.5952  225.7927 H   0  0  0  0  0  0  0  0  0  0  0  0
  139.2568   69.1118  228.4289 H   0  0  0  0  0  0  0  0  0  0  0  0
  139.7016   71.3789  229.3001 H   0  0  0  0  0  0  0  0  0  0  0  0
  141.0828   72.9939  228.0495 H   0  0  0  0  0  0  0  0  0  0  0  0
  142.0584   72.3278  225.8447 H   0  0  0  0  0  0  0  0  0  0  0  0
  141.6235   70.0560  224.9485 H   0  0  0  0  0  0  0  0  0  0  0  0
  142.5631   75.0286  219.1083 H   0  0  0  0  0  0  0  0  0  0  0  0
  142.7269   77.5095  219.1019 H   0  0  0  0  0  0  0  0  0  0  0  0
  142.2444   79.6708  220.2096 H   0  0  0  0  0  0  0  0  0  0  0  0
  140.1184   79.6329  223.9772 H   0  0  0  0  0  0  0  0  0  0  0  0
  140.0231   77.1398  223.8553 H   0  0  0  0  0  0  0  0  0  0  0  0
  1  2  2  0
  2  3  1  0
  3  4  1  0
  4  5  1  0
  5  6  2  0
  5  7  1  0
  7  8  1  0
  8  9  1  0
  9 10  1  0
 10 11  1  0
 11 12  1  0
 12 13  1  0
 13 14  1  0
 14 15  1  0
 15 16  1  0
 16 17  2  0
 17 18  1  0
 18 19  2  0
 19 20  1  0
 20 21  2  0
  2 22  1  0
 22 23  2  0
 23 24  1  0
 24 25  2  0
 25 26  1  0
 26 27  2  0
 27 28  1  0
 27 29  1  0
 29 30  2  0
 30 31  1  0
 31 32  2  0
 12  7  1  0
 21 16  1  0
 32 22  1  0
 31 25  1  0
  3 33  1  0
  4 34  1  0
  4 35  1  0
  8 36  1  0
  8 37  1  0
  9 38  1  0
  9 39  1  0
 10 40  1  0
 10 41  1  0
 11 42  1  0
 11 43  1  0
 12 44  1  1
 13 45  1  0
 13 46  1  0
 14 47  1  0
 15 48  1  0
 15 49  1  0
 17 50  1  0
 18 51  1  0
 19 52  1  0
 20 53  1  0
 21 54  1  0
 23 55  1  0
 24 56  1  0
 26 57  1  0
 29 58  1  0
 30 59  1  0
M  END
>  <smiles>  (27) 
O=C(NCC(=O)N1CCCC[C@H]1CNCc1ccccc1)c1ccc2cc(Cl)ccc2n1

>  <score_type>  (27) 
oracle

>  <origin>  (27) 
autodockgpu

>  <m_score__min__energy>  (27) 
-9.4000000000000004

>  <m_primary>  (27) 
energy

>  <rmsd>  (27) 
9.48184873647088

>  <m_score__min__rmsd>  (27) 
9.48184873647088

>  <meeko>  (27) 
{"free_energy": -8.42, "intermolecular_energy": -10.81, "internal_energy": -2.71, "cluster_size": 11, "cluster_id": 3, "rank_in_cluster": 6}

>  <energy>  (27) 
-8.48

>  <cluster_rmsd>  (27) 
0.12

>  <cluster>  (27) 
5

$$$$

     RDKit          3D

 59 62  0  0  0  0  0  0  0  0999 V2000
  133.9390   70.1250  226.4060 O   0  0  0  0  0  0  0  0  0  0  0  0
  134.2120   71.2660  225.9600 C   0  0  0  0  0  0  0  0  0  0  0  0
  135.2070   71.5170  224.9820 N   0  0  0  0  0  0  0  0  0  0  0  0
  136.0030   70.4180  224.4160 C   0  0  0  0  0  0  0  0  0  0  0  0
  137.2630   71.0020  223.8880 C   0  0  0  0  0  0  0  0  0  0  0  0
  137.2130   72.0490  223.1780 O   0  0  0  0  0  0  0  0  0  0  0  0
  138.5120   70.3940  224.1770 N   0  0  0  0  0  0  0  0  0  0  0  0
  138.7060   68.9490  224.1930 C   0  0  0  0  0  0  0  0  0  0  0  0
  139.0510   68.5350  225.6100 C   0  0  0  0  0  0  0  0  0  0  0  0
  139.6420   69.6950  226.3890 C   0  0  0  0  0  0  0  0  0  0  0  0
  140.5240   70.4660  225.4610 C   0  0  0  0  0  0  0  0  0  0  0  0
  139.6710   71.2130  224.4740 C   0  0  1  0  0  0  0  0  0  0  0  0
  140.4960   71.4860  223.2360 C   0  0  0  0  0  0  0  0  0  0  0  0
  140.1470   72.8010  222.7640 N   0  0  0  0  0  0  0  0  0  0  0  0
  140.2860   72.9010  221.3090 C   0  0  0  0  0  0  0  0  0  0  0  0
  141.7000   73.2200  220.9760 C   0  0  0  0  0  0  0  0  0  0  0  0
  142.5940   72.1470  220.9080 C   0  0  0  0  0  0  0  0  0  0  0  0
  143.9090   72.4100  220.6040 C   0  0  0  0  0  0  0  0  0  0  0  0
  144.3700   73.6850  220.3660 C   0  0  0  0  0  0  0  0  0  0  0  0
  143.4780   74.7480  220.4360 C   0  0  0  0  0  0  0  0  0  0  0  0
  142.1500   74.5030  220.7410 C   0  0  0  0  0  0  0  0  0  0  0  0
  133.4670   72.4280  226.4670 C   0  0  0  0  0  0  0  0  0  0  0  0
  132.2430   72.2450  227.1090 C   0  0  0  0  0  0  0  0  0  0  0  0
  131.5160   73.3290  227.5990 C   0  0  0  0  0  0  0  0  0  0  0  0
  132.0070   74.6010  227.4510 C   0  0  0  0  0  0  0  0  0  0  0  0
  131.3250   75.7160  227.9200 C   0  0  0  0  0  0  0  0  0  0  0  0
  131.8950   76.9640  227.7270 C   0  0  0  0  0  0  0  0  0  0  0  0
  131.0840   78.4300  228.2970 Cl  0  0  0  0  0  0  0  0  0  0  0  0
  133.1030   77.1490  227.0940 C   0  0  0  0  0  0  0  0  0  0  0  0
  133.7570   76.0130  226.6400 C   0  0  0  0  0  0  0  0  0  0  0  0
  133.2210   74.7410  226.8110 C   0  0  0  0  0  0  0  0  0  0  0  0
  133.9130   73.6850  226.3430 N   0  0  0  0  0  0  0  0  0  0  0  0
  135.3900   72.5030  224.6470 H   0  0  0  0  0  0  0  0  0  0  0  0
  136.2310   69.6786  225.1978 H   0  0  0  0  0  0  0  0  0  0  0  0
  135.4464   69.9108  223.6142 H   0  0  0  0  0  0  0  0  0  0  0  0
  137.7823   68.4453  223.8720 H   0  0  0  0  0  0  0  0  0  0  0  0
  139.5168   68.6660  223.5055 H   0  0  0  0  0  0  0  0  0  0  0  0
  138.1372   68.1906  226.1163 H   0  0  0  0  0  0  0  0  0  0  0  0
  139.7965   67.7273  225.5665 H   0  0  0  0  0  0  0  0  0  0  0  0
  138.8362   70.3430  226.7642 H   0  0  0  0  0  0  0  0  0  0  0  0
  140.2191   69.3257  227.2496 H   0  0  0  0  0  0  0  0  0  0  0  0
  141.1300   71.1801  226.0379 H   0  0  0  0  0  0  0  0  0  0  0  0
  141.1900   69.7742  224.9244 H   0  0  0  0  0  0  0  0  0  0  0  0
  139.3278   72.1779  224.8755 H   0  0  0  0  0  0  0  0  0  0  0  0
  141.5673   71.4477  223.4827 H   0  0  0  0  0  0  0  0  0  0  0  0
  140.2945   70.7307  222.4621 H   0  0  0  0  0  0  0  0  0  0  0  0
  139.1480   73.0320  223.0050 H   0  0  0  0  0  0  0  0  0  0  0  0
  140.0054   71.9437  220.8455 H   0  0  0  0  0  0  0  0  0  0  0  0
  139.6272   73.6950  220.9275 H   0  0  0  0  0  0  0  0  0  0  0  0
  142.2536   71.1175  221.0932 H   0  0  0  0  0  0  0  0  0  0  0  0
  144.6183   71.5710  220.5490 H   0  0  0  0  0  0  0  0  0  0  0  0
  145.4287   73.8597  220.1240 H   0  0  0  0  0  0  0  0  0  0  0  0
  143.8241   75.7756  220.2507 H   0  0  0  0  0  0  0  0  0  0  0  0
  141.4429   75.3438  220.7968 H   0  0  0  0  0  0  0  0  0  0  0  0
  131.8438   71.2273  227.2311 H   0  0  0  0  0  0  0  0  0  0  0  0
  130.5519   73.1646  228.1026 H   0  0  0  0  0  0  0  0  0  0  0  0
  130.3569   75.6111  228.4317 H   0  0  0  0  0  0  0  0  0  0  0  0
  133.5307   78.1528  226.9543 H   0  0  0  0  0  0  0  0  0  0  0  0
  134.7260   76.1211  226.1308 H   0  0  0  0  0  0  0  0  0  0  0  0
  1  2  2  0
  2  3  1  0
  3  4  1  0
  4  5  1  0
  5  6  2  0
  5  7  1  0
  7  8  1  0
  8  9  1  0
  9 10  1  0
 10 11  1  0
 11 12  1  0
 12 13  1  0
 13 14  1  0
 14 15  1  0
 15 16  1  0
 16 17  2  0
 17 18  1  0
 18 19  2  0
 19 20  1  0
 20 21  2  0
  2 22  1  0
 22 23  2  0
 23 24  1  0
 24 25  2  0
 25 26  1  0
 26 27  2  0
 27 28  1  0
 27 29  1  0
 29 30  2  0
 30 31  1  0
 31 32  2  0
 12  7  1  0
 21 16  1  0
 32 22  1  0
 31 25  1  0
  3 33  1  0
  4 34  1  0
  4 35  1  0
  8 36  1  0
  8 37  1  0
  9 38  1  0
  9 39  1  0
 10 40  1  0
 10 41  1  0
 11 42  1  0
 11 43  1  0
 12 44  1  1
 13 45  1  0
 13 46  1  0
 14 47  1  0
 15 48  1  0
 15 49  1  0
 17 50  1  0
 18 51  1  0
 19 52  1  0
 20 53  1  0
 21 54  1  0
 23 55  1  0
 24 56  1  0
 26 57  1  0
 29 58  1  0
 30 59  1  0
M  END
>  <smiles>  (28) 
O=C(NCC(=O)N1CCCC[C@H]1CNCc1ccccc1)c1ccc2cc(Cl)ccc2n1

>  <score_type>  (28) 
oracle

>  <origin>  (28) 
autodockgpu

>  <m_score__min__energy>  (28) 
-9.4000000000000004

>  <m_primary>  (28) 
energy

>  <rmsd>  (28) 
8.562558835156189

>  <m_score__min__rmsd>  (28) 
8.562558835156189

>  <meeko>  (28) 
{"free_energy": -8.48, "intermolecular_energy": -10.86, "internal_energy": -2.64, "cluster_size": 3, "cluster_id": 5, "rank_in_cluster": 2}

>  <energy>  (28) 
-8.43

>  <cluster_rmsd>  (28) 
1.03

>  <cluster>  (28) 
5

$$$$

     RDKit          3D

 59 62  0  0  0  0  0  0  0  0999 V2000
  139.9920   73.9370  221.9730 O   0  0  0  0  0  0  0  0  0  0  0  0
  140.4080   75.1060  221.7860 C   0  0  0  0  0  0  0  0  0  0  0  0
  141.6860   75.4180  221.2550 N   0  0  0  0  0  0  0  0  0  0  0  0
  142.6270   74.3520  220.8820 C   0  0  0  0  0  0  0  0  0  0  0  0
  143.5210   74.8910  219.8260 C   0  0  0  0  0  0  0  0  0  0  0  0
  144.7760   74.8390  219.9860 O   0  0  0  0  0  0  0  0  0  0  0  0
  142.9760   75.4600  218.6460 N   0  0  0  0  0  0  0  0  0  0  0  0
  142.5100   74.6570  217.5220 C   0  0  0  0  0  0  0  0  0  0  0  0
  143.3980   74.9550  216.3300 C   0  0  0  0  0  0  0  0  0  0  0  0
  144.0540   76.3160  216.4640 C   0  0  0  0  0  0  0  0  0  0  0  0
  143.0520   77.2480  217.0660 C   0  0  0  0  0  0  0  0  0  0  0  0
  142.8600   76.8990  218.5150 C   0  0  1  0  0  0  0  0  0  0  0  0
  141.4990   77.3940  218.9510 C   0  0  0  0  0  0  0  0  0  0  0  0
  141.6620   78.0400  220.2280 N   0  0  0  0  0  0  0  0  0  0  0  0
  141.7290   79.4970  220.0850 C   0  0  0  0  0  0  0  0  0  0  0  0
  141.9950   80.1040  221.4160 C   0  0  0  0  0  0  0  0  0  0  0  0
  141.5160   81.4000  221.6290 C   0  0  0  0  0  0  0  0  0  0  0  0
  141.7470   81.9900  222.8500 C   0  0  0  0  0  0  0  0  0  0  0  0
  142.4290   81.3510  223.8610 C   0  0  0  0  0  0  0  0  0  0  0  0
  142.9020   80.0630  223.6440 C   0  0  0  0  0  0  0  0  0  0  0  0
  142.6800   79.4530  222.4210 C   0  0  0  0  0  0  0  0  0  0  0  0
  139.5340   76.2400  222.1290 C   0  0  0  0  0  0  0  0  0  0  0  0
  138.1840   76.2070  221.7850 C   0  0  0  0  0  0  0  0  0  0  0  0
  137.3340   77.2670  222.0980 C   0  0  0  0  0  0  0  0  0  0  0  0
  137.8280   78.3640  222.7560 C   0  0  0  0  0  0  0  0  0  0  0  0
  137.0260   79.4470  223.0920 C   0  0  0  0  0  0  0  0  0  0  0  0
  137.6090   80.5140  223.7570 C   0  0  0  0  0  0  0  0  0  0  0  0
  136.6500   81.9290  224.2170 Cl  0  0  0  0  0  0  0  0  0  0  0  0
  138.9410   80.5500  224.0990 C   0  0  0  0  0  0  0  0  0  0  0  0
  139.7110   79.4510  223.7480 C   0  0  0  0  0  0  0  0  0  0  0  0
  139.1690   78.3580  223.0790 C   0  0  0  0  0  0  0  0  0  0  0  0
  139.9780   77.3280  222.7720 N   0  0  0  0  0  0  0  0  0  0  0  0
  141.9780   76.4240  221.1210 H   0  0  0  0  0  0  0  0  0  0  0  0
  143.2202   74.0519  221.7584 H   0  0  0  0  0  0  0  0  0  0  0  0
  142.0840   73.4688  220.5145 H   0  0  0  0  0  0  0  0  0  0  0  0
  142.5727   73.5885  217.7758 H   0  0  0  0  0  0  0  0  0  0  0  0
  141.4632   74.9006  217.2877 H   0  0  0  0  0  0  0  0  0  0  0  0
  144.1800   74.1843  216.2631 H   0  0  0  0  0  0  0  0  0  0  0  0
  142.7762   74.9549  215.4226 H   0  0  0  0  0  0  0  0  0  0  0  0
  144.9369   76.2435  217.1161 H   0  0  0  0  0  0  0  0  0  0  0  0
  144.3795   76.6846  215.4801 H   0  0  0  0  0  0  0  0  0  0  0  0
  143.4153   78.2829  216.9819 H   0  0  0  0  0  0  0  0  0  0  0  0
  142.0940   77.1545  216.5335 H   0  0  0  0  0  0  0  0  0  0  0  0
  143.6177   77.3732  219.1561 H   0  0  0  0  0  0  0  0  0  0  0  0
  141.1065   78.1109  218.2148 H   0  0  0  0  0  0  0  0  0  0  0  0
  140.7888   76.5575  219.0278 H   0  0  0  0  0  0  0  0  0  0  0  0
  140.8520   77.8190  220.8640 H   0  0  0  0  0  0  0  0  0  0  0  0
  142.5397   79.7622  219.3904 H   0  0  0  0  0  0  0  0  0  0  0  0
  140.7750   79.8751  219.6889 H   0  0  0  0  0  0  0  0  0  0  0  0
  140.9678   81.9349  220.8395 H   0  0  0  0  0  0  0  0  0  0  0  0
  141.3731   83.0096  223.0250 H   0  0  0  0  0  0  0  0  0  0  0  0
  142.5967   81.8525  224.8255 H   0  0  0  0  0  0  0  0  0  0  0  0
  143.4485   79.5320  224.4374 H   0  0  0  0  0  0  0  0  0  0  0  0
  143.0556   78.4337  222.2481 H   0  0  0  0  0  0  0  0  0  0  0  0
  137.7820   75.3295  221.2574 H   0  0  0  0  0  0  0  0  0  0  0  0
  136.2711   77.2234  221.8182 H   0  0  0  0  0  0  0  0  0  0  0  0
  135.9560   79.4576  222.8369 H   0  0  0  0  0  0  0  0  0  0  0  0
  139.3758   81.4115  224.6270 H   0  0  0  0  0  0  0  0  0  0  0  0
  140.7803   79.4433  224.0058 H   0  0  0  0  0  0  0  0  0  0  0  0
  1  2  2  0
  2  3  1  0
  3  4  1  0
  4  5  1  0
  5  6  2  0
  5  7  1  0
  7  8  1  0
  8  9  1  0
  9 10  1  0
 10 11  1  0
 11 12  1  0
 12 13  1  0
 13 14  1  0
 14 15  1  0
 15 16  1  0
 16 17  2  0
 17 18  1  0
 18 19  2  0
 19 20  1  0
 20 21  2  0
  2 22  1  0
 22 23  2  0
 23 24  1  0
 24 25  2  0
 25 26  1  0
 26 27  2  0
 27 28  1  0
 27 29  1  0
 29 30  2  0
 30 31  1  0
 31 32  2  0
 12  7  1  0
 21 16  1  0
 32 22  1  0
 31 25  1  0
  3 33  1  0
  4 34  1  0
  4 35  1  0
  8 36  1  0
  8 37  1  0
  9 38  1  0
  9 39  1  0
 10 40  1  0
 10 41  1  0
 11 42  1  0
 11 43  1  0
 12 44  1  1
 13 45  1  0
 13 46  1  0
 14 47  1  0
 15 48  1  0
 15 49  1  0
 17 50  1  0
 18 51  1  0
 19 52  1  0
 20 53  1  0
 21 54  1  0
 23 55  1  0
 24 56  1  0
 26 57  1  0
 29 58  1  0
 30 59  1  0
M  END
>  <smiles>  (29) 
O=C(NCC(=O)N1CCCC[C@H]1CNCc1ccccc1)c1ccc2cc(Cl)ccc2n1

>  <score_type>  (29) 
oracle

>  <origin>  (29) 
autodockgpu

>  <m_score__min__energy>  (29) 
-9.4000000000000004

>  <m_primary>  (29) 
energy

>  <rmsd>  (29) 
6.109921025536759

>  <m_score__min__rmsd>  (29) 
6.109921025536759

>  <meeko>  (29) 
{"free_energy": -6.97, "intermolecular_energy": -9.36, "internal_energy": -4.25, "cluster_size": 1, "cluster_id": 11, "rank_in_cluster": 1}

>  <energy>  (29) 
-8.43

>  <cluster_rmsd>  (29) 
0.0

>  <cluster>  (29) 
6

$$$$

     RDKit          3D

 59 62  0  0  0  0  0  0  0  0999 V2000
  141.7850   77.4560  217.4960 O   0  0  0  0  0  0  0  0  0  0  0  0
  141.9210   77.7600  218.7060 C   0  0  0  0  0  0  0  0  0  0  0  0
  142.8290   77.1190  219.5870 N   0  0  0  0  0  0  0  0  0  0  0  0
  143.6920   76.0260  219.1160 C   0  0  0  0  0  0  0  0  0  0  0  0
  143.7060   74.9800  220.1700 C   0  0  0  0  0  0  0  0  0  0  0  0
  144.7620   74.7890  220.8420 O   0  0  0  0  0  0  0  0  0  0  0  0
  142.5480   74.2010  220.4250 N   0  0  0  0  0  0  0  0  0  0  0  0
  142.6080   72.8020  220.8300 C   0  0  0  0  0  0  0  0  0  0  0  0
  141.9850   71.9650  219.7290 C   0  0  0  0  0  0  0  0  0  0  0  0
  141.0230   72.7890  218.8940 C   0  0  0  0  0  0  0  0  0  0  0  0
  140.2920   73.7100  219.8170 C   0  0  0  0  0  0  0  0  0  0  0  0
  141.2290   74.7870  220.2880 C   0  0  1  0  0  0  0  0  0  0  0  0
  140.7170   75.3270  221.6040 C   0  0  0  0  0  0  0  0  0  0  0  0
  141.2230   76.6680  221.7490 N   0  0  0  0  0  0  0  0  0  0  0  0
  140.3490   77.4800  222.5990 C   0  0  0  0  0  0  0  0  0  0  0  0
  141.0270   78.7680  222.9040 C   0  0  0  0  0  0  0  0  0  0  0  0
  140.2630   79.7530  223.5380 C   0  0  0  0  0  0  0  0  0  0  0  0
  140.8620   80.9560  223.8330 C   0  0  0  0  0  0  0  0  0  0  0  0
  142.1780   81.2190  223.5260 C   0  0  0  0  0  0  0  0  0  0  0  0
  142.9320   80.2370  222.8960 C   0  0  0  0  0  0  0  0  0  0  0  0
  142.3470   79.0200  222.5910 C   0  0  0  0  0  0  0  0  0  0  0  0
  141.1000   78.8440  219.2680 C   0  0  0  0  0  0  0  0  0  0  0  0
  139.7490   78.6280  219.5360 C   0  0  0  0  0  0  0  0  0  0  0  0
  138.9490   79.6370  220.0690 C   0  0  0  0  0  0  0  0  0  0  0  0
  139.4920   80.8670  220.3370 C   0  0  0  0  0  0  0  0  0  0  0  0
  138.7410   81.9080  220.8670 C   0  0  0  0  0  0  0  0  0  0  0  0
  139.3730   83.1170  221.1060 C   0  0  0  0  0  0  0  0  0  0  0  0
  138.4800   84.4890  221.7800 Cl  0  0  0  0  0  0  0  0  0  0  0  0
  140.7060   83.3360  220.8430 C   0  0  0  0  0  0  0  0  0  0  0  0
  141.4250   82.2730  220.3140 C   0  0  0  0  0  0  0  0  0  0  0  0
  140.8320   81.0420  220.0570 C   0  0  0  0  0  0  0  0  0  0  0  0
  141.5930   80.0580  219.5440 N   0  0  0  0  0  0  0  0  0  0  0  0
  142.8970   77.4210  220.5970 H   0  0  0  0  0  0  0  0  0  0  0  0
  143.2927   75.6096  218.1794 H   0  0  0  0  0  0  0  0  0  0  0  0
  144.7106   76.3936  218.9225 H   0  0  0  0  0  0  0  0  0  0  0  0
  143.6557   72.5017  220.9790 H   0  0  0  0  0  0  0  0  0  0  0  0
  142.0635   72.6552  221.7744 H   0  0  0  0  0  0  0  0  0  0  0  0
  142.7824   71.5757  219.0789 H   0  0  0  0  0  0  0  0  0  0  0  0
  141.4259   71.1388  220.1924 H   0  0  0  0  0  0  0  0  0  0  0  0
  141.5809   73.3727  218.1470 H   0  0  0  0  0  0  0  0  0  0  0  0
  140.3156   72.1343  218.3639 H   0  0  0  0  0  0  0  0  0  0  0  0
  139.4445   74.1669  219.2851 H   0  0  0  0  0  0  0  0  0  0  0  0
  139.9166   73.1436  220.6820 H   0  0  0  0  0  0  0  0  0  0  0  0
  141.2861   75.6225  219.5748 H   0  0  0  0  0  0  0  0  0  0  0  0
  139.6171   75.3389  221.6025 H   0  0  0  0  0  0  0  0  0  0  0  0
  141.0526   74.6943  222.4389 H   0  0  0  0  0  0  0  0  0  0  0  0
  142.1790   76.6610  222.1890 H   0  0  0  0  0  0  0  0  0  0  0  0
  139.4032   77.6771  222.0731 H   0  0  0  0  0  0  0  0  0  0  0  0
  140.1377   76.9417  223.5347 H   0  0  0  0  0  0  0  0  0  0  0  0
  139.2090   79.5704  223.7945 H   0  0  0  0  0  0  0  0  0  0  0  0
  140.2680   81.7357  224.3321 H   0  0  0  0  0  0  0  0  0  0  0  0
  142.6257   82.1922  223.7758 H   0  0  0  0  0  0  0  0  0  0  0  0
  143.9855   80.4250  222.6415 H   0  0  0  0  0  0  0  0  0  0  0  0
  142.9434   78.2422  222.0916 H   0  0  0  0  0  0  0  0  0  0  0  0
  139.3066   77.6437  219.3229 H   0  0  0  0  0  0  0  0  0  0  0  0
  137.8851   79.4471  220.2741 H   0  0  0  0  0  0  0  0  0  0  0  0
  137.6722   81.7758  221.0911 H   0  0  0  0  0  0  0  0  0  0  0  0
  141.1797   84.3084  221.0428 H   0  0  0  0  0  0  0  0  0  0  0  0
  142.4938   82.4083  220.0919 H   0  0  0  0  0  0  0  0  0  0  0  0
  1  2  2  0
  2  3  1  0
  3  4  1  0
  4  5  1  0
  5  6  2  0
  5  7  1  0
  7  8  1  0
  8  9  1  0
  9 10  1  0
 10 11  1  0
 11 12  1  0
 12 13  1  0
 13 14  1  0
 14 15  1  0
 15 16  1  0
 16 17  2  0
 17 18  1  0
 18 19  2  0
 19 20  1  0
 20 21  2  0
  2 22  1  0
 22 23  2  0
 23 24  1  0
 24 25  2  0
 25 26  1  0
 26 27  2  0
 27 28  1  0
 27 29  1  0
 29 30  2  0
 30 31  1  0
 31 32  2  0
 12  7  1  0
 21 16  1  0
 32 22  1  0
 31 25  1  0
  3 33  1  0
  4 34  1  0
  4 35  1  0
  8 36  1  0
  8 37  1  0
  9 38  1  0
  9 39  1  0
 10 40  1  0
 10 41  1  0
 11 42  1  0
 11 43  1  0
 12 44  1  6
 13 45  1  0
 13 46  1  0
 14 47  1  0
 15 48  1  0
 15 49  1  0
 17 50  1  0
 18 51  1  0
 19 52  1  0
 20 53  1  0
 21 54  1  0
 23 55  1  0
 24 56  1  0
 26 57  1  0
 29 58  1  0
 30 59  1  0
M  END
>  <smiles>  (30) 
O=C(NCC(=O)N1CCCC[C@H]1CNCc1ccccc1)c1ccc2cc(Cl)ccc2n1

>  <score_type>  (30) 
oracle

>  <origin>  (30) 
autodockgpu

>  <m_score__min__energy>  (30) 
-9.4000000000000004

>  <m_primary>  (30) 
energy

>  <rmsd>  (30) 
7.980136459839788

>  <m_score__min__rmsd>  (30) 
7.980136459839788

>  <meeko>  (30) 
{"free_energy": -6.14, "intermolecular_energy": -8.52, "internal_energy": -4.21, "cluster_size": 1, "cluster_id": 14, "rank_in_cluster": 1}

>  <energy>  (30) 
-8.42

>  <cluster_rmsd>  (30) 
0.15

>  <cluster>  (30) 
6

$$$$

     RDKit          3D

 59 62  0  0  0  0  0  0  0  0999 V2000
  135.2740   74.4500  222.2400 O   0  0  0  0  0  0  0  0  0  0  0  0
  136.5130   74.4110  222.4350 C   0  0  0  0  0  0  0  0  0  0  0  0
  137.2590   73.2120  222.5570 N   0  0  0  0  0  0  0  0  0  0  0  0
  136.6010   71.9010  222.4600 C   0  0  0  0  0  0  0  0  0  0  0  0
  137.6160   70.9220  221.9950 C   0  0  0  0  0  0  0  0  0  0  0  0
  137.5400   70.4570  220.8200 O   0  0  0  0  0  0  0  0  0  0  0  0
  138.6650   70.5110  222.8570 N   0  0  0  0  0  0  0  0  0  0  0  0
  139.0950   69.1230  222.9760 C   0  0  0  0  0  0  0  0  0  0  0  0
  138.7930   68.6550  224.3870 C   0  0  0  0  0  0  0  0  0  0  0  0
  138.7110   69.8280  225.3460 C   0  0  0  0  0  0  0  0  0  0  0  0
  139.7670   70.8110  224.9540 C   0  0  0  0  0  0  0  0  0  0  0  0
  139.3650   71.4850  223.6720 C   0  0  1  0  0  0  0  0  0  0  0  0
  140.6130   71.9950  222.9860 C   0  0  0  0  0  0  0  0  0  0  0  0
  140.3940   73.3820  222.6640 N   0  0  0  0  0  0  0  0  0  0  0  0
  140.4130   73.6030  221.2160 C   0  0  0  0  0  0  0  0  0  0  0  0
  141.7920   73.9680  220.7980 C   0  0  0  0  0  0  0  0  0  0  0  0
  142.7600   72.9600  220.8540 C   0  0  0  0  0  0  0  0  0  0  0  0
  144.0470   73.2670  220.4750 C   0  0  0  0  0  0  0  0  0  0  0  0
  144.4090   74.5240  220.0470 C   0  0  0  0  0  0  0  0  0  0  0  0
  143.4440   75.5220  219.9940 C   0  0  0  0  0  0  0  0  0  0  0  0
  142.1430   75.2320  220.3710 C   0  0  0  0  0  0  0  0  0  0  0  0
  137.2590   75.6750  222.5460 C   0  0  0  0  0  0  0  0  0  0  0  0
  136.5710   76.8850  222.6190 C   0  0  0  0  0  0  0  0  0  0  0  0
  137.2530   78.0970  222.7250 C   0  0  0  0  0  0  0  0  0  0  0  0
  138.6240   78.1060  222.7590 C   0  0  0  0  0  0  0  0  0  0  0  0
  139.3530   79.2830  222.8630 C   0  0  0  0  0  0  0  0  0  0  0  0
  140.7350   79.1990  222.8900 C   0  0  0  0  0  0  0  0  0  0  0  0
  141.7310   80.6560  223.0210 Cl  0  0  0  0  0  0  0  0  0  0  0  0
  141.4180   78.0060  222.8180 C   0  0  0  0  0  0  0  0  0  0  0  0
  140.6570   76.8500  222.7150 C   0  0  0  0  0  0  0  0  0  0  0  0
  139.2670   76.8880  222.6840 C   0  0  0  0  0  0  0  0  0  0  0  0
  138.5960   75.7260  222.5830 N   0  0  0  0  0  0  0  0  0  0  0  0
  138.3030   73.2460  222.7220 H   0  0  0  0  0  0  0  0  0  0  0  0
  136.2149   71.6014  223.4455 H   0  0  0  0  0  0  0  0  0  0  0  0
  135.7559   71.9442  221.7573 H   0  0  0  0  0  0  0  0  0  0  0  0
  138.5493   68.5003  222.2519 H   0  0  0  0  0  0  0  0  0  0  0  0
  140.1721   69.0388  222.7691 H   0  0  0  0  0  0  0  0  0  0  0  0
  137.8316   68.1205  224.3901 H   0  0  0  0  0  0  0  0  0  0  0  0
  139.6057   67.9909  224.7162 H   0  0  0  0  0  0  0  0  0  0  0  0
  137.7186   70.2978  225.2791 H   0  0  0  0  0  0  0  0  0  0  0  0
  138.8647   69.4902  226.3815 H   0  0  0  0  0  0  0  0  0  0  0  0
  139.8794   71.5655  225.7465 H   0  0  0  0  0  0  0  0  0  0  0  0
  140.7239   70.2875  224.8115 H   0  0  0  0  0  0  0  0  0  0  0  0
  138.6980   72.3414  223.8499 H   0  0  0  0  0  0  0  0  0  0  0  0
  141.4778   71.8976  223.6587 H   0  0  0  0  0  0  0  0  0  0  0  0
  140.8195   71.4137  222.0752 H   0  0  0  0  0  0  0  0  0  0  0  0
  139.4580   73.7060  223.0240 H   0  0  0  0  0  0  0  0  0  0  0  0
  140.1026   72.6831  220.6988 H   0  0  0  0  0  0  0  0  0  0  0  0
  139.7194   74.4162  220.9560 H   0  0  0  0  0  0  0  0  0  0  0  0
  142.4990   71.9465  221.1927 H   0  0  0  0  0  0  0  0  0  0  0  0
  144.8139   72.4794  220.5156 H   0  0  0  0  0  0  0  0  0  0  0  0
  145.4472   74.7353  219.7512 H   0  0  0  0  0  0  0  0  0  0  0  0
  143.7108   76.5340  219.6555 H   0  0  0  0  0  0  0  0  0  0  0  0
  141.3782   76.0215  220.3293 H   0  0  0  0  0  0  0  0  0  0  0  0
  135.4713   76.8840  222.5926 H   0  0  0  0  0  0  0  0  0  0  0  0
  136.6933   79.0423  222.7811 H   0  0  0  0  0  0  0  0  0  0  0  0
  138.8458   80.2573  222.9224 H   0  0  0  0  0  0  0  0  0  0  0  0
  142.5172   77.9705  222.8410 H   0  0  0  0  0  0  0  0  0  0  0  0
  141.1670   75.8772  222.6563 H   0  0  0  0  0  0  0  0  0  0  0  0
  1  2  2  0
  2  3  1  0
  3  4  1  0
  4  5  1  0
  5  6  2  0
  5  7  1  0
  7  8  1  0
  8  9  1  0
  9 10  1  0
 10 11  1  0
 11 12  1  0
 12 13  1  0
 13 14  1  0
 14 15  1  0
 15 16  1  0
 16 17  2  0
 17 18  1  0
 18 19  2  0
 19 20  1  0
 20 21  2  0
  2 22  1  0
 22 23  2  0
 23 24  1  0
 24 25  2  0
 25 26  1  0
 26 27  2  0
 27 28  1  0
 27 29  1  0
 29 30  2  0
 30 31  1  0
 31 32  2  0
 12  7  1  0
 21 16  1  0
 32 22  1  0
 31 25  1  0
  3 33  1  0
  4 34  1  0
  4 35  1  0
  8 36  1  0
  8 37  1  0
  9 38  1  0
  9 39  1  0
 10 40  1  0
 10 41  1  0
 11 42  1  0
 11 43  1  0
 12 44  1  1
 13 45  1  0
 13 46  1  0
 14 47  1  0
 15 48  1  0
 15 49  1  0
 17 50  1  0
 18 51  1  0
 19 52  1  0
 20 53  1  0
 21 54  1  0
 23 55  1  0
 24 56  1  0
 26 57  1  0
 29 58  1  0
 30 59  1  0
M  END
>  <smiles>  (31) 
O=C(NCC(=O)N1CCCC[C@H]1CNCc1ccccc1)c1ccc2cc(Cl)ccc2n1

>  <score_type>  (31) 
oracle

>  <origin>  (31) 
autodockgpu

>  <m_score__min__energy>  (31) 
-9.4000000000000004

>  <m_primary>  (31) 
energy

>  <rmsd>  (31) 
7.86435100792057

>  <m_score__min__rmsd>  (31) 
7.86435100792057

>  <meeko>  (31) 
{"free_energy": -7.37, "intermolecular_energy": -9.76, "internal_energy": -3.76, "cluster_size": 3, "cluster_id": 8, "rank_in_cluster": 3}

>  <energy>  (31) 
-8.41

>  <cluster_rmsd>  (31) 
0.11

>  <cluster>  (31) 
6

$$$$

     RDKit          3D

 59 62  0  0  0  0  0  0  0  0999 V2000
  139.2100   71.5780  220.9050 O   0  0  0  0  0  0  0  0  0  0  0  0
  139.3780   72.0740  222.0460 C   0  0  0  0  0  0  0  0  0  0  0  0
  139.3990   73.4670  222.3100 N   0  0  0  0  0  0  0  0  0  0  0  0
  139.2200   74.4430  221.2240 C   0  0  0  0  0  0  0  0  0  0  0  0
  140.5700   74.8830  220.7900 C   0  0  0  0  0  0  0  0  0  0  0  0
  141.4560   75.1230  221.6620 O   0  0  0  0  0  0  0  0  0  0  0  0
  140.8680   75.0340  219.4110 N   0  0  0  0  0  0  0  0  0  0  0  0
  139.8750   74.8390  218.3610 C   0  0  0  0  0  0  0  0  0  0  0  0
  140.2970   73.6430  217.5290 C   0  0  0  0  0  0  0  0  0  0  0  0
  141.7910   73.4020  217.6380 C   0  0  0  0  0  0  0  0  0  0  0  0
  142.4680   74.7350  217.6640 C   0  0  0  0  0  0  0  0  0  0  0  0
  142.2060   75.3960  218.9890 C   0  0  1  0  0  0  0  0  0  0  0  0
  142.3530   76.8920  218.8150 C   0  0  0  0  0  0  0  0  0  0  0  0
  142.5380   77.4640  220.1230 N   0  0  0  0  0  0  0  0  0  0  0  0
  141.3870   78.2820  220.5160 C   0  0  0  0  0  0  0  0  0  0  0  0
  141.7120   79.0030  221.7750 C   0  0  0  0  0  0  0  0  0  0  0  0
  141.4650   78.3280  222.9750 C   0  0  0  0  0  0  0  0  0  0  0  0
  141.7540   78.9690  224.1580 C   0  0  0  0  0  0  0  0  0  0  0  0
  142.2730   80.2430  224.1980 C   0  0  0  0  0  0  0  0  0  0  0  0
  142.5150   80.9100  223.0030 C   0  0  0  0  0  0  0  0  0  0  0  0
  142.2310   80.2810  221.8030 C   0  0  0  0  0  0  0  0  0  0  0  0
  139.5640   71.1750  223.1960 C   0  0  0  0  0  0  0  0  0  0  0  0
  139.1530   69.8460  223.1150 C   0  0  0  0  0  0  0  0  0  0  0  0
  139.3180   68.9730  224.1890 C   0  0  0  0  0  0  0  0  0  0  0  0
  139.8950   69.4220  225.3490 C   0  0  0  0  0  0  0  0  0  0  0  0
  140.0830   68.5960  226.4490 C   0  0  0  0  0  0  0  0  0  0  0  0
  140.6750   69.1340  227.5800 C   0  0  0  0  0  0  0  0  0  0  0  0
  140.9470   68.1420  229.0210 Cl  0  0  0  0  0  0  0  0  0  0  0  0
  141.0830   70.4450  227.6650 C   0  0  0  0  0  0  0  0  0  0  0  0
  140.8790   71.2410  226.5470 C   0  0  0  0  0  0  0  0  0  0  0  0
  140.2890   70.7430  225.3900 C   0  0  0  0  0  0  0  0  0  0  0  0
  140.1240   71.5750  224.3450 N   0  0  0  0  0  0  0  0  0  0  0  0
  139.5450   73.8230  223.2940 H   0  0  0  0  0  0  0  0  0  0  0  0
  138.6894   73.9744  220.3821 H   0  0  0  0  0  0  0  0  0  0  0  0
  138.6260   75.3018  221.5699 H   0  0  0  0  0  0  0  0  0  0  0  0
  138.8889   74.6510  218.8107 H   0  0  0  0  0  0  0  0  0  0  0  0
  139.8068   75.7372  217.7297 H   0  0  0  0  0  0  0  0  0  0  0  0
  139.7621   72.7504  217.8857 H   0  0  0  0  0  0  0  0  0  0  0  0
  140.0515   73.8456  216.4761 H   0  0  0  0  0  0  0  0  0  0  0  0
  142.0146   72.8506  218.5632 H   0  0  0  0  0  0  0  0  0  0  0  0
  142.1475   72.8064  216.7847 H   0  0  0  0  0  0  0  0  0  0  0  0
  143.5512   74.6004  217.5277 H   0  0  0  0  0  0  0  0  0  0  0  0
  142.0755   75.3651  216.8523 H   0  0  0  0  0  0  0  0  0  0  0  0
  142.9192   75.0688  219.7599 H   0  0  0  0  0  0  0  0  0  0  0  0
  143.2251   77.1125  218.1820 H   0  0  0  0  0  0  0  0  0  0  0  0
  141.4609   77.3150  218.3300 H   0  0  0  0  0  0  0  0  0  0  0  0
  142.6540   76.7090  220.8480 H   0  0  0  0  0  0  0  0  0  0  0  0
  141.1633   79.0094  219.7218 H   0  0  0  0  0  0  0  0  0  0  0  0
  140.5096   77.6374  220.6731 H   0  0  0  0  0  0  0  0  0  0  0  0
  141.0498   77.3094  222.9731 H   0  0  0  0  0  0  0  0  0  0  0  0
  141.5633   78.4442  225.1057 H   0  0  0  0  0  0  0  0  0  0  0  0
  142.4930   80.7261  225.1614 H   0  0  0  0  0  0  0  0  0  0  0  0
  142.9287   81.9292  223.0107 H   0  0  0  0  0  0  0  0  0  0  0  0
  142.4222   80.8085  220.8568 H   0  0  0  0  0  0  0  0  0  0  0  0
  138.6901   69.4793  222.1870 H   0  0  0  0  0  0  0  0  0  0  0  0
  138.9864   67.9274  224.1063 H   0  0  0  0  0  0  0  0  0  0  0  0
  139.7700   67.5418  226.4231 H   0  0  0  0  0  0  0  0  0  0  0  0
  141.5497   70.8440  228.5777 H   0  0  0  0  0  0  0  0  0  0  0  0
  141.1925   72.2950  226.5765 H   0  0  0  0  0  0  0  0  0  0  0  0
  1  2  2  0
  2  3  1  0
  3  4  1  0
  4  5  1  0
  5  6  2  0
  5  7  1  0
  7  8  1  0
  8  9  1  0
  9 10  1  0
 10 11  1  0
 11 12  1  0
 12 13  1  0
 13 14  1  0
 14 15  1  0
 15 16  1  0
 16 17  2  0
 17 18  1  0
 18 19  2  0
 19 20  1  0
 20 21  2  0
  2 22  1  0
 22 23  2  0
 23 24  1  0
 24 25  2  0
 25 26  1  0
 26 27  2  0
 27 28  1  0
 27 29  1  0
 29 30  2  0
 30 31  1  0
 31 32  2  0
 12  7  1  0
 21 16  1  0
 32 22  1  0
 31 25  1  0
  3 33  1  0
  4 34  1  0
  4 35  1  0
  8 36  1  0
  8 37  1  0
  9 38  1  0
  9 39  1  0
 10 40  1  0
 10 41  1  0
 11 42  1  0
 11 43  1  0
 12 44  1  1
 13 45  1  0
 13 46  1  0
 14 47  1  0
 15 48  1  0
 15 49  1  0
 17 50  1  0
 18 51  1  0
 19 52  1  0
 20 53  1  0
 21 54  1  0
 23 55  1  0
 24 56  1  0
 26 57  1  0
 29 58  1  0
 30 59  1  0
M  END
>  <smiles>  (32) 
O=C(NCC(=O)N1CCCC[C@H]1CNCc1ccccc1)c1ccc2cc(Cl)ccc2n1

>  <score_type>  (32) 
oracle

>  <origin>  (32) 
autodockgpu

>  <m_score__min__energy>  (32) 
-9.4000000000000004

>  <m_primary>  (32) 
energy

>  <rmsd>  (32) 
2.356010012490464

>  <m_score__min__rmsd>  (32) 
2.356010012490464

>  <meeko>  (32) 
{"free_energy": -8.47, "intermolecular_energy": -10.86, "internal_energy": -2.71, "cluster_size": 7, "cluster_id": 4, "rank_in_cluster": 5}

>  <energy>  (32) 
-8.39

>  <cluster_rmsd>  (32) 
0.14

>  <cluster>  (32) 
6

$$$$

     RDKit          3D

 59 62  0  0  0  0  0  0  0  0999 V2000
  141.6810   79.0630  217.1580 O   0  0  0  0  0  0  0  0  0  0  0  0
  142.1790   78.5920  218.2090 C   0  0  0  0  0  0  0  0  0  0  0  0
  142.1950   79.2740  219.4530 N   0  0  0  0  0  0  0  0  0  0  0  0
  141.6100   80.6170  219.5840 C   0  0  0  0  0  0  0  0  0  0  0  0
  140.2750   80.4650  220.2150 C   0  0  0  0  0  0  0  0  0  0  0  0
  139.8870   81.3210  221.0640 O   0  0  0  0  0  0  0  0  0  0  0  0
  139.4380   79.3710  219.8720 N   0  0  0  0  0  0  0  0  0  0  0  0
  138.7550   79.2700  218.5880 C   0  0  0  0  0  0  0  0  0  0  0  0
  137.2610   79.3340  218.8420 C   0  0  0  0  0  0  0  0  0  0  0  0
  136.9300   78.9050  220.2590 C   0  0  0  0  0  0  0  0  0  0  0  0
  137.8330   77.7680  220.6150 C   0  0  0  0  0  0  0  0  0  0  0  0
  139.2290   78.2880  220.8120 C   0  0  1  0  0  0  0  0  0  0  0  0
  140.2010   77.1520  220.5820 C   0  0  0  0  0  0  0  0  0  0  0  0
  141.4000   77.4510  221.3230 N   0  0  0  0  0  0  0  0  0  0  0  0
  141.1180   77.6120  222.7520 C   0  0  0  0  0  0  0  0  0  0  0  0
  141.4500   79.0040  223.1570 C   0  0  0  0  0  0  0  0  0  0  0  0
  142.7940   79.3830  223.0840 C   0  0  0  0  0  0  0  0  0  0  0  0
  143.1340   80.6640  223.4530 C   0  0  0  0  0  0  0  0  0  0  0  0
  142.2000   81.5770  223.8900 C   0  0  0  0  0  0  0  0  0  0  0  0
  140.8660   81.1950  223.9610 C   0  0  0  0  0  0  0  0  0  0  0  0
  140.5050   79.9100  223.5930 C   0  0  0  0  0  0  0  0  0  0  0  0
  142.7870   77.2530  218.1750 C   0  0  0  0  0  0  0  0  0  0  0  0
  143.0440   76.6360  216.9530 C   0  0  0  0  0  0  0  0  0  0  0  0
  143.6200   75.3680  216.8910 C   0  0  0  0  0  0  0  0  0  0  0  0
  143.9430   74.7100  218.0500 C   0  0  0  0  0  0  0  0  0  0  0  0
  144.5180   73.4460  218.0480 C   0  0  0  0  0  0  0  0  0  0  0  0
  144.8110   72.8560  219.2660 C   0  0  0  0  0  0  0  0  0  0  0  0
  145.5450   71.2470  219.3420 Cl  0  0  0  0  0  0  0  0  0  0  0  0
  144.5590   73.4610  220.4760 C   0  0  0  0  0  0  0  0  0  0  0  0
  143.9850   74.7240  220.4400 C   0  0  0  0  0  0  0  0  0  0  0  0
  143.6730   75.3540  219.2400 C   0  0  0  0  0  0  0  0  0  0  0  0
  143.1170   76.5790  219.2840 N   0  0  0  0  0  0  0  0  0  0  0  0
  142.6310   78.8230  220.3040 H   0  0  0  0  0  0  0  0  0  0  0  0
  142.2539   81.2467  220.2155 H   0  0  0  0  0  0  0  0  0  0  0  0
  141.5192   81.0968  218.5983 H   0  0  0  0  0  0  0  0  0  0  0  0
  139.0586   80.1036  217.9377 H   0  0  0  0  0  0  0  0  0  0  0  0
  139.0166   78.3243  218.0908 H   0  0  0  0  0  0  0  0  0  0  0  0
  136.9143   80.3666  218.6888 H   0  0  0  0  0  0  0  0  0  0  0  0
  136.7577   78.6500  218.1429 H   0  0  0  0  0  0  0  0  0  0  0  0
  137.0935   79.7437  220.9517 H   0  0  0  0  0  0  0  0  0  0  0  0
  135.8767   78.5961  220.3308 H   0  0  0  0  0  0  0  0  0  0  0  0
  137.4816   77.2964  221.5446 H   0  0  0  0  0  0  0  0  0  0  0  0
  137.8269   77.0239  219.8049 H   0  0  0  0  0  0  0  0  0  0  0  0
  139.3846   78.6707  221.8315 H   0  0  0  0  0  0  0  0  0  0  0  0
  139.7652   76.2069  220.9383 H   0  0  0  0  0  0  0  0  0  0  0  0
  140.4246   77.0445  219.5103 H   0  0  0  0  0  0  0  0  0  0  0  0
  142.1040   76.6740  221.2220 H   0  0  0  0  0  0  0  0  0  0  0  0
  140.0522   77.4169  222.9419 H   0  0  0  0  0  0  0  0  0  0  0  0
  141.7241   76.9013  223.3329 H   0  0  0  0  0  0  0  0  0  0  0  0
  143.5612   78.6738  222.7397 H   0  0  0  0  0  0  0  0  0  0  0  0
  144.1891   80.9699  223.3970 H   0  0  0  0  0  0  0  0  0  0  0  0
  142.5056   82.5935  224.1785 H   0  0  0  0  0  0  0  0  0  0  0  0
  140.1028   81.9077  224.3068 H   0  0  0  0  0  0  0  0  0  0  0  0
  139.4491   79.6068  223.6491 H   0  0  0  0  0  0  0  0  0  0  0  0
  142.7878   77.1588  216.0197 H   0  0  0  0  0  0  0  0  0  0  0  0
  143.8146   74.8971  215.9161 H   0  0  0  0  0  0  0  0  0  0  0  0
  144.7352   72.9267  217.1030 H   0  0  0  0  0  0  0  0  0  0  0  0
  144.8014   72.9662  221.4281 H   0  0  0  0  0  0  0  0  0  0  0  0
  143.7708   75.2412  221.3869 H   0  0  0  0  0  0  0  0  0  0  0  0
  1  2  2  0
  2  3  1  0
  3  4  1  0
  4  5  1  0
  5  6  2  0
  5  7  1  0
  7  8  1  0
  8  9  1  0
  9 10  1  0
 10 11  1  0
 11 12  1  0
 12 13  1  0
 13 14  1  0
 14 15  1  0
 15 16  1  0
 16 17  2  0
 17 18  1  0
 18 19  2  0
 19 20  1  0
 20 21  2  0
  2 22  1  0
 22 23  2  0
 23 24  1  0
 24 25  2  0
 25 26  1  0
 26 27  2  0
 27 28  1  0
 27 29  1  0
 29 30  2  0
 30 31  1  0
 31 32  2  0
 12  7  1  0
 21 16  1  0
 32 22  1  0
 31 25  1  0
  3 33  1  0
  4 34  1  0
  4 35  1  0
  8 36  1  0
  8 37  1  0
  9 38  1  0
  9 39  1  0
 10 40  1  0
 10 41  1  0
 11 42  1  0
 11 43  1  0
 12 44  1  1
 13 45  1  0
 13 46  1  0
 14 47  1  0
 15 48  1  0
 15 49  1  0
 17 50  1  0
 18 51  1  0
 19 52  1  0
 20 53  1  0
 21 54  1  0
 23 55  1  0
 24 56  1  0
 26 57  1  0
 29 58  1  0
 30 59  1  0
M  END
>  <smiles>  (33) 
O=C(NCC(=O)N1CCCC[C@H]1CNCc1ccccc1)c1ccc2cc(Cl)ccc2n1

>  <score_type>  (33) 
oracle

>  <origin>  (33) 
autodockgpu

>  <m_score__min__energy>  (33) 
-9.4000000000000004

>  <m_primary>  (33) 
energy

>  <rmsd>  (33) 
7.059220851428093

>  <m_score__min__rmsd>  (33) 
7.059220851428093

>  <meeko>  (33) 
{"free_energy": -6.22, "intermolecular_energy": -8.61, "internal_energy": -4.49, "cluster_size": 1, "cluster_id": 13, "rank_in_cluster": 1}

>  <energy>  (33) 
-8.34

>  <cluster_rmsd>  (33) 
0.26

>  <cluster>  (33) 
6

$$$$

     RDKit          3D

 59 62  0  0  0  0  0  0  0  0999 V2000
  141.3950   74.3710  221.3480 O   0  0  0  0  0  0  0  0  0  0  0  0
  140.3210   74.6280  221.9450 C   0  0  0  0  0  0  0  0  0  0  0  0
  139.3740   73.6450  222.3300 N   0  0  0  0  0  0  0  0  0  0  0  0
  139.6040   72.2210  222.0420 C   0  0  0  0  0  0  0  0  0  0  0  0
  138.5010   71.4520  222.6720 C   0  0  0  0  0  0  0  0  0  0  0  0
  137.5210   72.0720  223.1790 O   0  0  0  0  0  0  0  0  0  0  0  0
  138.5430   70.0340  222.7060 N   0  0  0  0  0  0  0  0  0  0  0  0
  139.5630   69.2550  222.0150 C   0  0  0  0  0  0  0  0  0  0  0  0
  138.8810   68.4380  220.9340 C   0  0  0  0  0  0  0  0  0  0  0  0
  137.4150   68.2210  221.2570 C   0  0  0  0  0  0  0  0  0  0  0  0
  137.3010   67.9950  222.7300 C   0  0  0  0  0  0  0  0  0  0  0  0
  137.5440   69.2920  223.4500 C   0  0  1  0  0  0  0  0  0  0  0  0
  138.0090   68.9810  224.8550 C   0  0  0  0  0  0  0  0  0  0  0  0
  139.1500   68.1080  224.7500 N   0  0  0  0  0  0  0  0  0  0  0  0
  139.8600   68.0010  226.0280 C   0  0  0  0  0  0  0  0  0  0  0  0
  140.2490   69.3620  226.4820 C   0  0  0  0  0  0  0  0  0  0  0  0
  140.9420   70.1620  225.5680 C   0  0  0  0  0  0  0  0  0  0  0  0
  141.3180   71.4270  225.9580 C   0  0  0  0  0  0  0  0  0  0  0  0
  141.0360   71.9250  227.2090 C   0  0  0  0  0  0  0  0  0  0  0  0
  140.3480   71.1270  228.1140 C   0  0  0  0  0  0  0  0  0  0  0  0
  139.9620   69.8510  227.7390 C   0  0  0  0  0  0  0  0  0  0  0  0
  140.0040   76.0250  222.2770 C   0  0  0  0  0  0  0  0  0  0  0  0
  141.0320   76.9480  222.4600 C   0  0  0  0  0  0  0  0  0  0  0  0
  140.7600   78.2790  222.7750 C   0  0  0  0  0  0  0  0  0  0  0  0
  139.4610   78.6940  222.9080 C   0  0  0  0  0  0  0  0  0  0  0  0
  139.1330   80.0070  223.2210 C   0  0  0  0  0  0  0  0  0  0  0  0
  137.7930   80.3400  223.3370 C   0  0  0  0  0  0  0  0  0  0  0  0
  137.2990   81.9930  223.7330 Cl  0  0  0  0  0  0  0  0  0  0  0  0
  136.7740   79.4320  223.1570 C   0  0  0  0  0  0  0  0  0  0  0  0
  137.1390   78.1300  222.8450 C   0  0  0  0  0  0  0  0  0  0  0  0
  138.4710   77.7520  222.7200 C   0  0  0  0  0  0  0  0  0  0  0  0
  138.7490   76.4700  222.4150 N   0  0  0  0  0  0  0  0  0  0  0  0
  138.4860   73.9250  222.8310 H   0  0  0  0  0  0  0  0  0  0  0  0
  139.6049   72.0535  220.9548 H   0  0  0  0  0  0  0  0  0  0  0  0
  140.5770   71.8983  222.4409 H   0  0  0  0  0  0  0  0  0  0  0  0
  140.3035   69.9299  221.5609 H   0  0  0  0  0  0  0  0  0  0  0  0
  140.0810   68.5921  222.7236 H   0  0  0  0  0  0  0  0  0  0  0  0
  138.9626   68.9712  219.9753 H   0  0  0  0  0  0  0  0  0  0  0  0
  139.3746   67.4568  220.8738 H   0  0  0  0  0  0  0  0  0  0  0  0
  136.8327   69.1085  220.9683 H   0  0  0  0  0  0  0  0  0  0  0  0
  137.0235   67.3547  220.7036 H   0  0  0  0  0  0  0  0  0  0  0  0
  136.2928   67.6253  222.9684 H   0  0  0  0  0  0  0  0  0  0  0  0
  138.0459   67.2508  223.0482 H   0  0  0  0  0  0  0  0  0  0  0  0
  136.6306   69.9011  223.5190 H   0  0  0  0  0  0  0  0  0  0  0  0
  138.2931   69.9101  225.3709 H   0  0  0  0  0  0  0  0  0  0  0  0
  137.2051   68.5003  225.4317 H   0  0  0  0  0  0  0  0  0  0  0  0
  138.8530   67.1370  224.4690 H   0  0  0  0  0  0  0  0  0  0  0  0
  139.2023   67.5364  226.7773 H   0  0  0  0  0  0  0  0  0  0  0  0
  140.7595   67.3804  225.9022 H   0  0  0  0  0  0  0  0  0  0  0  0
  141.1809   69.7889  224.5611 H   0  0  0  0  0  0  0  0  0  0  0  0
  141.8632   72.0623  225.2444 H   0  0  0  0  0  0  0  0  0  0  0  0
  141.3510   72.9411  227.4887 H   0  0  0  0  0  0  0  0  0  0  0  0
  140.1119   71.5052  229.1196 H   0  0  0  0  0  0  0  0  0  0  0  0
  139.4179   69.2176  228.4551 H   0  0  0  0  0  0  0  0  0  0  0  0
  142.0768   76.6207  222.3541 H   0  0  0  0  0  0  0  0  0  0  0  0
  141.5850   78.9928  222.9161 H   0  0  0  0  0  0  0  0  0  0  0  0
  139.9172   80.7633  223.3729 H   0  0  0  0  0  0  0  0  0  0  0  0
  135.7184   79.7252  223.2560 H   0  0  0  0  0  0  0  0  0  0  0  0
  136.3526   77.3761  222.6924 H   0  0  0  0  0  0  0  0  0  0  0  0
  1  2  2  0
  2  3  1  0
  3  4  1  0
  4  5  1  0
  5  6  2  0
  5  7  1  0
  7  8  1  0
  8  9  1  0
  9 10  1  0
 10 11  1  0
 11 12  1  0
 12 13  1  0
 13 14  1  0
 14 15  1  0
 15 16  1  0
 16 17  2  0
 17 18  1  0
 18 19  2  0
 19 20  1  0
 20 21  2  0
  2 22  1  0
 22 23  2  0
 23 24  1  0
 24 25  2  0
 25 26  1  0
 26 27  2  0
 27 28  1  0
 27 29  1  0
 29 30  2  0
 30 31  1  0
 31 32  2  0
 12  7  1  0
 21 16  1  0
 32 22  1  0
 31 25  1  0
  3 33  1  0
  4 34  1  0
  4 35  1  0
  8 36  1  0
  8 37  1  0
  9 38  1  0
  9 39  1  0
 10 40  1  0
 10 41  1  0
 11 42  1  0
 11 43  1  0
 12 44  1  1
 13 45  1  0
 13 46  1  0
 14 47  1  0
 15 48  1  0
 15 49  1  0
 17 50  1  0
 18 51  1  0
 19 52  1  0
 20 53  1  0
 21 54  1  0
 23 55  1  0
 24 56  1  0
 26 57  1  0
 29 58  1  0
 30 59  1  0
M  END
>  <smiles>  (34) 
O=C(NCC(=O)N1CCCC[C@H]1CNCc1ccccc1)c1ccc2cc(Cl)ccc2n1

>  <score_type>  (34) 
oracle

>  <origin>  (34) 
autodockgpu

>  <m_score__min__energy>  (34) 
-9.4000000000000004

>  <m_primary>  (34) 
energy

>  <rmsd>  (34) 
9.693062619864456

>  <m_score__min__rmsd>  (34) 
9.693062619864456

>  <meeko>  (34) 
{"free_energy": -8.01, "intermolecular_energy": -10.4, "internal_energy": -2.67, "cluster_size": 11, "cluster_id": 3, "rank_in_cluster": 9}

>  <energy>  (34) 
-8.24

>  <cluster_rmsd>  (34) 
0.0

>  <cluster>  (34) 
7

$$$$

     RDKit          3D

 59 62  0  0  0  0  0  0  0  0999 V2000
  137.4180   77.5460  221.9200 O   0  0  0  0  0  0  0  0  0  0  0  0
  137.4470   76.4180  222.4700 C   0  0  0  0  0  0  0  0  0  0  0  0
  138.4910   75.4750  222.2920 N   0  0  0  0  0  0  0  0  0  0  0  0
  139.6380   75.7760  221.4220 C   0  0  0  0  0  0  0  0  0  0  0  0
  140.5250   74.5850  221.4220 C   0  0  0  0  0  0  0  0  0  0  0  0
  140.3090   73.6480  222.2460 O   0  0  0  0  0  0  0  0  0  0  0  0
  141.6050   74.4940  220.5060 N   0  0  0  0  0  0  0  0  0  0  0  0
  141.8910   73.2900  219.7360 C   0  0  0  0  0  0  0  0  0  0  0  0
  143.2360   72.7510  220.1830 C   0  0  0  0  0  0  0  0  0  0  0  0
  144.0870   73.8480  220.7950 C   0  0  0  0  0  0  0  0  0  0  0  0
  143.8600   75.0970  220.0050 C   0  0  0  0  0  0  0  0  0  0  0  0
  142.4850   75.6270  220.3010 C   0  0  1  0  0  0  0  0  0  0  0  0
  142.0390   76.4790  219.1330 C   0  0  0  0  0  0  0  0  0  0  0  0
  142.3890   77.8430  219.4350 N   0  0  0  0  0  0  0  0  0  0  0  0
  141.2520   78.5730  220.0030 C   0  0  0  0  0  0  0  0  0  0  0  0
  141.6330   79.1000  221.3400 C   0  0  0  0  0  0  0  0  0  0  0  0
  141.4170   78.2620  222.4380 C   0  0  0  0  0  0  0  0  0  0  0  0
  141.7580   78.7200  223.6900 C   0  0  0  0  0  0  0  0  0  0  0  0
  142.3020   79.9680  223.8940 C   0  0  0  0  0  0  0  0  0  0  0  0
  142.5150   80.7970  222.8000 C   0  0  0  0  0  0  0  0  0  0  0  0
  142.1770   80.3530  221.5320 C   0  0  0  0  0  0  0  0  0  0  0  0
  136.3410   76.0280  223.3600 C   0  0  0  0  0  0  0  0  0  0  0  0
  135.4470   76.9910  223.8220 C   0  0  0  0  0  0  0  0  0  0  0  0
  134.3900   76.6500  224.6650 C   0  0  0  0  0  0  0  0  0  0  0  0
  134.2220   75.3450  225.0510 C   0  0  0  0  0  0  0  0  0  0  0  0
  133.1880   74.9490  225.8890 C   0  0  0  0  0  0  0  0  0  0  0  0
  133.0940   73.6090  226.2280 C   0  0  0  0  0  0  0  0  0  0  0  0
  131.8030   73.0300  227.2920 Cl  0  0  0  0  0  0  0  0  0  0  0  0
  133.9760   72.6540  225.7740 C   0  0  0  0  0  0  0  0  0  0  0  0
  134.9950   73.0860  224.9380 C   0  0  0  0  0  0  0  0  0  0  0  0
  135.1280   74.4210  224.5730 C   0  0  0  0  0  0  0  0  0  0  0  0
  136.1430   74.7650  223.7580 N   0  0  0  0  0  0  0  0  0  0  0  0
  138.4570   74.5400  222.7840 H   0  0  0  0  0  0  0  0  0  0  0  0
  139.2892   75.9841  220.3997 H   0  0  0  0  0  0  0  0  0  0  0  0
  140.1790   76.6612  221.7878 H   0  0  0  0  0  0  0  0  0  0  0  0
  141.1093   72.5376  219.9171 H   0  0  0  0  0  0  0  0  0  0  0  0
  141.9126   73.5223  218.6610 H   0  0  0  0  0  0  0  0  0  0  0  0
  143.0758   71.9607  220.9312 H   0  0  0  0  0  0  0  0  0  0  0  0
  143.7617   72.3498  219.3040 H   0  0  0  0  0  0  0  0  0  0  0  0
  143.7929   74.0092  221.8426 H   0  0  0  0  0  0  0  0  0  0  0  0
  145.1503   73.5671  220.7726 H   0  0  0  0  0  0  0  0  0  0  0  0
  144.6121   75.8499  220.2833 H   0  0  0  0  0  0  0  0  0  0  0  0
  143.9470   74.8755  218.9311 H   0  0  0  0  0  0  0  0  0  0  0  0
  142.4710   76.2519  221.2061 H   0  0  0  0  0  0  0  0  0  0  0  0
  142.5499   76.1545  218.2145 H   0  0  0  0  0  0  0  0  0  0  0  0
  140.9548   76.3828  218.9743 H   0  0  0  0  0  0  0  0  0  0  0  0
  143.1750   77.8820  220.1350 H   0  0  0  0  0  0  0  0  0  0  0  0
  140.9824   79.4087  219.3405 H   0  0  0  0  0  0  0  0  0  0  0  0
  140.3894   77.8976  220.1022 H   0  0  0  0  0  0  0  0  0  0  0  0
  140.9844   77.2595  222.3042 H   0  0  0  0  0  0  0  0  0  0  0  0
  141.5900   78.0659  224.5583 H   0  0  0  0  0  0  0  0  0  0  0  0
  142.5641   80.3037  224.9082 H   0  0  0  0  0  0  0  0  0  0  0  0
  142.9487   81.7982  222.9394 H   0  0  0  0  0  0  0  0  0  0  0  0
  142.3449   81.0094  220.6654 H   0  0  0  0  0  0  0  0  0  0  0  0
  135.5772   78.0396  223.5163 H   0  0  0  0  0  0  0  0  0  0  0  0
  133.6938   77.4246  225.0189 H   0  0  0  0  0  0  0  0  0  0  0  0
  132.4622   75.6805  226.2738 H   0  0  0  0  0  0  0  0  0  0  0  0
  133.8770   71.5968  226.0612 H   0  0  0  0  0  0  0  0  0  0  0  0
  135.7181   72.3519  224.5530 H   0  0  0  0  0  0  0  0  0  0  0  0
  1  2  2  0
  2  3  1  0
  3  4  1  0
  4  5  1  0
  5  6  2  0
  5  7  1  0
  7  8  1  0
  8  9  1  0
  9 10  1  0
 10 11  1  0
 11 12  1  0
 12 13  1  0
 13 14  1  0
 14 15  1  0
 15 16  1  0
 16 17  2  0
 17 18  1  0
 18 19  2  0
 19 20  1  0
 20 21  2  0
  2 22  1  0
 22 23  2  0
 23 24  1  0
 24 25  2  0
 25 26  1  0
 26 27  2  0
 27 28  1  0
 27 29  1  0
 29 30  2  0
 30 31  1  0
 31 32  2  0
 12  7  1  0
 21 16  1  0
 32 22  1  0
 31 25  1  0
  3 33  1  0
  4 34  1  0
  4 35  1  0
  8 36  1  0
  8 37  1  0
  9 38  1  0
  9 39  1  0
 10 40  1  0
 10 41  1  0
 11 42  1  0
 11 43  1  0
 12 44  1  1
 13 45  1  0
 13 46  1  0
 14 47  1  0
 15 48  1  0
 15 49  1  0
 17 50  1  0
 18 51  1  0
 19 52  1  0
 20 53  1  0
 21 54  1  0
 23 55  1  0
 24 56  1  0
 26 57  1  0
 29 58  1  0
 30 59  1  0
M  END
>  <smiles>  (35) 
O=C(NCC(=O)N1CCCC[C@H]1CNCc1ccccc1)c1ccc2cc(Cl)ccc2n1

>  <score_type>  (35) 
oracle

>  <origin>  (35) 
autodockgpu

>  <m_score__min__energy>  (35) 
-9.4000000000000004

>  <m_primary>  (35) 
energy

>  <rmsd>  (35) 
5.531482361401182

>  <m_score__min__rmsd>  (35) 
5.531482361401182

>  <meeko>  (35) 
{"free_energy": -8.34, "intermolecular_energy": -10.72, "internal_energy": -2.71, "cluster_size": 5, "cluster_id": 6, "rank_in_cluster": 5}

>  <energy>  (35) 
-8.01

>  <cluster_rmsd>  (35) 
1.71

>  <cluster>  (35) 
7

$$$$

     RDKit          3D

 59 62  0  0  0  0  0  0  0  0999 V2000
  139.6850   72.1390  220.7520 O   0  0  0  0  0  0  0  0  0  0  0  0
  139.6080   72.5500  221.9360 C   0  0  0  0  0  0  0  0  0  0  0  0
  139.3790   73.9030  222.2920 N   0  0  0  0  0  0  0  0  0  0  0  0
  139.2150   74.9370  221.2600 C   0  0  0  0  0  0  0  0  0  0  0  0
  140.4620   75.7420  221.2290 C   0  0  0  0  0  0  0  0  0  0  0  0
  140.6590   76.6200  222.1200 O   0  0  0  0  0  0  0  0  0  0  0  0
  141.4280   75.5310  220.2110 N   0  0  0  0  0  0  0  0  0  0  0  0
  141.3440   74.4330  219.2550 C   0  0  0  0  0  0  0  0  0  0  0  0
  142.5230   73.5100  219.4920 C   0  0  0  0  0  0  0  0  0  0  0  0
  143.6650   74.2450  220.1690 C   0  0  0  0  0  0  0  0  0  0  0  0
  143.7310   75.6210  219.5870 C   0  0  0  0  0  0  0  0  0  0  0  0
  142.5620   76.4250  220.0840 C   0  0  1  0  0  0  0  0  0  0  0  0
  142.2910   77.5370  219.0960 C   0  0  0  0  0  0  0  0  0  0  0  0
  141.2710   78.3820  219.6640 N   0  0  0  0  0  0  0  0  0  0  0  0
  141.7270   79.7700  219.7720 C   0  0  0  0  0  0  0  0  0  0  0  0
  141.8690   80.1240  221.2090 C   0  0  0  0  0  0  0  0  0  0  0  0
  142.2160   79.0910  222.0860 C   0  0  0  0  0  0  0  0  0  0  0  0
  142.3540   79.3860  223.4220 C   0  0  0  0  0  0  0  0  0  0  0  0
  142.1640   80.6550  223.9200 C   0  0  0  0  0  0  0  0  0  0  0  0
  141.8200   81.6780  223.0450 C   0  0  0  0  0  0  0  0  0  0  0  0
  141.6760   81.4000  221.6960 C   0  0  0  0  0  0  0  0  0  0  0  0
  139.7600   71.5870  223.0380 C   0  0  0  0  0  0  0  0  0  0  0  0
  139.3870   70.2560  222.8560 C   0  0  0  0  0  0  0  0  0  0  0  0
  139.5200   69.3230  223.8830 C   0  0  0  0  0  0  0  0  0  0  0  0
  140.0260   69.7130  225.0960 C   0  0  0  0  0  0  0  0  0  0  0  0
  140.1800   68.8250  226.1530 C   0  0  0  0  0  0  0  0  0  0  0  0
  140.7000   69.3060  227.3430 C   0  0  0  0  0  0  0  0  0  0  0  0
  140.9260   68.2340  228.7340 Cl  0  0  0  0  0  0  0  0  0  0  0  0
  141.0700   70.6190  227.5280 C   0  0  0  0  0  0  0  0  0  0  0  0
  140.9030   71.4770  226.4500 C   0  0  0  0  0  0  0  0  0  0  0  0
  140.3840   71.0380  225.2370 C   0  0  0  0  0  0  0  0  0  0  0  0
  140.2510   71.9280  224.2360 N   0  0  0  0  0  0  0  0  0  0  0  0
  139.3250   74.1860  223.3090 H   0  0  0  0  0  0  0  0  0  0  0  0
  139.0483   74.4658  220.2801 H   0  0  0  0  0  0  0  0  0  0  0  0
  138.3485   75.5755  221.4871 H   0  0  0  0  0  0  0  0  0  0  0  0
  140.4036   73.8817  219.4023 H   0  0  0  0  0  0  0  0  0  0  0  0
  141.3653   74.8215  218.2261 H   0  0  0  0  0  0  0  0  0  0  0  0
  142.2027   72.6755  220.1331 H   0  0  0  0  0  0  0  0  0  0  0  0
  142.8757   73.1370  218.5191 H   0  0  0  0  0  0  0  0  0  0  0  0
  143.4817   74.3050  221.2520 H   0  0  0  0  0  0  0  0  0  0  0  0
  144.6142   73.7131  220.0072 H   0  0  0  0  0  0  0  0  0  0  0  0
  144.6688   76.1062  219.8954 H   0  0  0  0  0  0  0  0  0  0  0  0
  143.6972   75.5598  218.4892 H   0  0  0  0  0  0  0  0  0  0  0  0
  142.7632   76.8803  221.0649 H   0  0  0  0  0  0  0  0  0  0  0  0
  143.2085   78.1191  218.9247 H   0  0  0  0  0  0  0  0  0  0  0  0
  141.9603   77.1257  218.1309 H   0  0  0  0  0  0  0  0  0  0  0  0
  140.4050   78.3760  219.0650 H   0  0  0  0  0  0  0  0  0  0  0  0
  142.6986   79.8790  219.2679 H   0  0  0  0  0  0  0  0  0  0  0  0
  140.9952   80.4390  219.2957 H   0  0  0  0  0  0  0  0  0  0  0  0
  142.3747   78.0674  221.7159 H   0  0  0  0  0  0  0  0  0  0  0  0
  142.6261   78.5787  224.1178 H   0  0  0  0  0  0  0  0  0  0  0  0
  142.2827   80.8563  224.9949 H   0  0  0  0  0  0  0  0  0  0  0  0
  141.6634   82.7000  223.4206 H   0  0  0  0  0  0  0  0  0  0  0  0
  141.4035   82.2091  221.0023 H   0  0  0  0  0  0  0  0  0  0  0  0
  138.9806   69.9366  221.8850 H   0  0  0  0  0  0  0  0  0  0  0  0
  139.2200   68.2772  223.7207 H   0  0  0  0  0  0  0  0  0  0  0  0
  139.8963   67.7674  226.0476 H   0  0  0  0  0  0  0  0  0  0  0  0
  141.4792   70.9719  228.4861 H   0  0  0  0  0  0  0  0  0  0  0  0
  141.1891   72.5336  226.5582 H   0  0  0  0  0  0  0  0  0  0  0  0
  1  2  2  0
  2  3  1  0
  3  4  1  0
  4  5  1  0
  5  6  2  0
  5  7  1  0
  7  8  1  0
  8  9  1  0
  9 10  1  0
 10 11  1  0
 11 12  1  0
 12 13  1  0
 13 14  1  0
 14 15  1  0
 15 16  1  0
 16 17  2  0
 17 18  1  0
 18 19  2  0
 19 20  1  0
 20 21  2  0
  2 22  1  0
 22 23  2  0
 23 24  1  0
 24 25  2  0
 25 26  1  0
 26 27  2  0
 27 28  1  0
 27 29  1  0
 29 30  2  0
 30 31  1  0
 31 32  2  0
 12  7  1  0
 21 16  1  0
 32 22  1  0
 31 25  1  0
  3 33  1  0
  4 34  1  0
  4 35  1  0
  8 36  1  0
  8 37  1  0
  9 38  1  0
  9 39  1  0
 10 40  1  0
 10 41  1  0
 11 42  1  0
 11 43  1  0
 12 44  1  1
 13 45  1  0
 13 46  1  0
 14 47  1  0
 15 48  1  0
 15 49  1  0
 17 50  1  0
 18 51  1  0
 19 52  1  0
 20 53  1  0
 21 54  1  0
 23 55  1  0
 24 56  1  0
 26 57  1  0
 29 58  1  0
 30 59  1  0
M  END
>  <smiles>  (36) 
O=C(NCC(=O)N1CCCC[C@H]1CNCc1ccccc1)c1ccc2cc(Cl)ccc2n1

>  <score_type>  (36) 
oracle

>  <origin>  (36) 
autodockgpu

>  <m_score__min__energy>  (36) 
-9.4000000000000004

>  <m_primary>  (36) 
energy

>  <rmsd>  (36) 
2.6628254911014952

>  <m_score__min__rmsd>  (36) 
2.6628254911014952

>  <meeko>  (36) 
{"free_energy": -8.95, "intermolecular_energy": -11.34, "internal_energy": -2.17, "cluster_size": 7, "cluster_id": 4, "rank_in_cluster": 2}

>  <energy>  (36) 
-7.96

>  <cluster_rmsd>  (36) 
1.53

>  <cluster>  (36) 
7

$$$$

     RDKit          3D

 59 62  0  0  0  0  0  0  0  0999 V2000
  142.3140   72.9680  220.5960 O   0  0  0  0  0  0  0  0  0  0  0  0
  141.4850   73.6420  221.2540 C   0  0  0  0  0  0  0  0  0  0  0  0
  140.4810   73.0750  222.0810 N   0  0  0  0  0  0  0  0  0  0  0  0
  140.3510   71.6170  222.2160 C   0  0  0  0  0  0  0  0  0  0  0  0
  138.9480   71.3260  222.6060 C   0  0  0  0  0  0  0  0  0  0  0  0
  138.1290   72.2830  222.7420 O   0  0  0  0  0  0  0  0  0  0  0  0
  138.5250   69.9890  222.8220 N   0  0  0  0  0  0  0  0  0  0  0  0
  139.1530   68.8450  222.1730 C   0  0  0  0  0  0  0  0  0  0  0  0
  138.1300   68.2030  221.2550 C   0  0  0  0  0  0  0  0  0  0  0  0
  136.7170   68.5290  221.7000 C   0  0  0  0  0  0  0  0  0  0  0  0
  136.6920   68.5050  223.1940 C   0  0  0  0  0  0  0  0  0  0  0  0
  137.4230   69.7090  223.7210 C   0  0  1  0  0  0  0  0  0  0  0  0
  137.9060   69.4010  225.1210 C   0  0  0  0  0  0  0  0  0  0  0  0
  138.9410   68.4060  225.0130 N   0  0  0  0  0  0  0  0  0  0  0  0
  139.6800   68.2660  226.2710 C   0  0  0  0  0  0  0  0  0  0  0  0
  140.1830   69.6010  226.6890 C   0  0  0  0  0  0  0  0  0  0  0  0
  140.9250   70.3230  225.7500 C   0  0  0  0  0  0  0  0  0  0  0  0
  141.4060   71.5620  226.1070 C   0  0  0  0  0  0  0  0  0  0  0  0
  141.1800   72.1090  227.3500 C   0  0  0  0  0  0  0  0  0  0  0  0
  140.4410   71.3880  228.2790 C   0  0  0  0  0  0  0  0  0  0  0  0
  139.9500   70.1390  227.9380 C   0  0  0  0  0  0  0  0  0  0  0  0
  141.5380   75.1110  221.1820 C   0  0  0  0  0  0  0  0  0  0  0  0
  142.1530   75.7330  220.0980 C   0  0  0  0  0  0  0  0  0  0  0  0
  142.2170   77.1220  220.0040 C   0  0  0  0  0  0  0  0  0  0  0  0
  141.6670   77.8970  220.9920 C   0  0  0  0  0  0  0  0  0  0  0  0
  141.7030   79.2850  220.9500 C   0  0  0  0  0  0  0  0  0  0  0  0
  141.1220   79.9890  221.9920 C   0  0  0  0  0  0  0  0  0  0  0  0
  141.1290   81.7590  222.0070 Cl  0  0  0  0  0  0  0  0  0  0  0  0
  140.5140   79.3790  223.0650 C   0  0  0  0  0  0  0  0  0  0  0  0
  140.4960   77.9910  223.0740 C   0  0  0  0  0  0  0  0  0  0  0  0
  141.0680   77.2440  222.0490 C   0  0  0  0  0  0  0  0  0  0  0  0
  141.0120   75.9020  222.1260 N   0  0  0  0  0  0  0  0  0  0  0  0
  139.8110   73.6970  222.6110 H   0  0  0  0  0  0  0  0  0  0  0  0
  140.5829   71.1293  221.2577 H   0  0  0  0  0  0  0  0  0  0  0  0
  141.0501   71.2352  222.9746 H   0  0  0  0  0  0  0  0  0  0  0  0
  140.0217   69.1795  221.5870 H   0  0  0  0  0  0  0  0  0  0  0  0
  139.4962   68.1207  222.9265 H   0  0  0  0  0  0  0  0  0  0  0  0
  138.2800   68.5779  220.2318 H   0  0  0  0  0  0  0  0  0  0  0  0
  138.2647   67.1118  221.2903 H   0  0  0  0  0  0  0  0  0  0  0  0
  136.4312   69.5272  221.3369 H   0  0  0  0  0  0  0  0  0  0  0  0
  136.0065   67.7951  221.2918 H   0  0  0  0  0  0  0  0  0  0  0  0
  135.6496   68.5250  223.5447 H   0  0  0  0  0  0  0  0  0  0  0  0
  137.1803   67.5885  223.5568 H   0  0  0  0  0  0  0  0  0  0  0  0
  136.7740   70.5958  223.7703 H   0  0  0  0  0  0  0  0  0  0  0  0
  138.3082   70.3119  225.5884 H   0  0  0  0  0  0  0  0  0  0  0  0
  137.0778   69.0323  225.7440 H   0  0  0  0  0  0  0  0  0  0  0  0
  138.5310   67.4650  224.7780 H   0  0  0  0  0  0  0  0  0  0  0  0
  139.0129   67.8637  227.0476 H   0  0  0  0  0  0  0  0  0  0  0  0
  140.5265   67.5779  226.1297 H   0  0  0  0  0  0  0  0  0  0  0  0
  141.1199   69.9105  224.7491 H   0  0  0  0  0  0  0  0  0  0  0  0
  141.9916   72.1354  225.3734 H   0  0  0  0  0  0  0  0  0  0  0  0
  141.5788   73.1023  227.6036 H   0  0  0  0  0  0  0  0  0  0  0  0
  140.2473   71.8059  229.2779 H   0  0  0  0  0  0  0  0  0  0  0  0
  139.3655   69.5672  228.6738 H   0  0  0  0  0  0  0  0  0  0  0  0
  142.5961   75.1168  219.3018 H   0  0  0  0  0  0  0  0  0  0  0  0
  142.7071   77.5948  219.1401 H   0  0  0  0  0  0  0  0  0  0  0  0
  142.1807   79.8117  220.1107 H   0  0  0  0  0  0  0  0  0  0  0  0
  140.0625   79.9649  223.8792 H   0  0  0  0  0  0  0  0  0  0  0  0
  140.0165   77.4675  223.9143 H   0  0  0  0  0  0  0  0  0  0  0  0
  1  2  2  0
  2  3  1  0
  3  4  1  0
  4  5  1  0
  5  6  2  0
  5  7  1  0
  7  8  1  0
  8  9  1  0
  9 10  1  0
 10 11  1  0
 11 12  1  0
 12 13  1  0
 13 14  1  0
 14 15  1  0
 15 16  1  0
 16 17  2  0
 17 18  1  0
 18 19  2  0
 19 20  1  0
 20 21  2  0
  2 22  1  0
 22 23  2  0
 23 24  1  0
 24 25  2  0
 25 26  1  0
 26 27  2  0
 27 28  1  0
 27 29  1  0
 29 30  2  0
 30 31  1  0
 31 32  2  0
 12  7  1  0
 21 16  1  0
 32 22  1  0
 31 25  1  0
  3 33  1  0
  4 34  1  0
  4 35  1  0
  8 36  1  0
  8 37  1  0
  9 38  1  0
  9 39  1  0
 10 40  1  0
 10 41  1  0
 11 42  1  0
 11 43  1  0
 12 44  1  1
 13 45  1  0
 13 46  1  0
 14 47  1  0
 15 48  1  0
 15 49  1  0
 17 50  1  0
 18 51  1  0
 19 52  1  0
 20 53  1  0
 21 54  1  0
 23 55  1  0
 24 56  1  0
 26 57  1  0
 29 58  1  0
 30 59  1  0
M  END
>  <smiles>  (37) 
O=C(NCC(=O)N1CCCC[C@H]1CNCc1ccccc1)c1ccc2cc(Cl)ccc2n1

>  <score_type>  (37) 
oracle

>  <origin>  (37) 
autodockgpu

>  <m_score__min__energy>  (37) 
-9.4000000000000004

>  <m_primary>  (37) 
energy

>  <rmsd>  (37) 
9.61448982123635

>  <m_score__min__rmsd>  (37) 
9.61448982123635

>  <meeko>  (37) 
{"free_energy": -8.23, "intermolecular_energy": -10.62, "internal_energy": -2.63, "cluster_size": 11, "cluster_id": 3, "rank_in_cluster": 8}

>  <energy>  (37) 
-7.87

>  <cluster_rmsd>  (37) 
1.33

>  <cluster>  (37) 
7

$$$$

     RDKit          3D

 59 62  0  0  0  0  0  0  0  0999 V2000
  137.9370   71.4100  221.4530 O   0  0  0  0  0  0  0  0  0  0  0  0
  138.6990   71.8570  222.3450 C   0  0  0  0  0  0  0  0  0  0  0  0
  139.2240   73.1740  222.3520 N   0  0  0  0  0  0  0  0  0  0  0  0
  138.8950   74.1230  221.2780 C   0  0  0  0  0  0  0  0  0  0  0  0
  140.1400   74.8500  220.9250 C   0  0  0  0  0  0  0  0  0  0  0  0
  140.8220   75.3970  221.8410 O   0  0  0  0  0  0  0  0  0  0  0  0
  140.5660   74.9320  219.5740 N   0  0  0  0  0  0  0  0  0  0  0  0
  139.6540   74.7820  218.4460 C   0  0  0  0  0  0  0  0  0  0  0  0
  140.0470   73.5300  217.6850 C   0  0  0  0  0  0  0  0  0  0  0  0
  141.5010   73.1750  217.9310 C   0  0  0  0  0  0  0  0  0  0  0  0
  142.2800   74.4510  217.9820 C   0  0  0  0  0  0  0  0  0  0  0  0
  141.9600   75.1740  219.2610 C   0  0  1  0  0  0  0  0  0  0  0  0
  142.2430   76.6460  219.0630 C   0  0  0  0  0  0  0  0  0  0  0  0
  142.3920   77.2380  220.3670 N   0  0  0  0  0  0  0  0  0  0  0  0
  141.3910   78.2830  220.5970 C   0  0  0  0  0  0  0  0  0  0  0  0
  141.6950   78.9750  221.8780 C   0  0  0  0  0  0  0  0  0  0  0  0
  142.2190   80.2680  221.7900 C   0  0  0  0  0  0  0  0  0  0  0  0
  142.5130   80.9350  222.9570 C   0  0  0  0  0  0  0  0  0  0  0  0
  142.3100   80.3740  224.1980 C   0  0  0  0  0  0  0  0  0  0  0  0
  141.7890   79.0890  224.2790 C   0  0  0  0  0  0  0  0  0  0  0  0
  141.4880   78.4020  223.1150 C   0  0  0  0  0  0  0  0  0  0  0  0
  139.0840   70.9800  223.4620 C   0  0  0  0  0  0  0  0  0  0  0  0
  138.8050   69.6150  223.4040 C   0  0  0  0  0  0  0  0  0  0  0  0
  139.1590   68.7620  224.4480 C   0  0  0  0  0  0  0  0  0  0  0  0
  139.7920   69.2650  225.5540 C   0  0  0  0  0  0  0  0  0  0  0  0
  140.1670   68.4610  226.6220 C   0  0  0  0  0  0  0  0  0  0  0  0
  140.8030   69.0550  227.7000 C   0  0  0  0  0  0  0  0  0  0  0  0
  141.3090   68.0930  229.0970 Cl  0  0  0  0  0  0  0  0  0  0  0  0
  141.0800   70.4010  227.7620 C   0  0  0  0  0  0  0  0  0  0  0  0
  140.6930   71.1740  226.6760 C   0  0  0  0  0  0  0  0  0  0  0  0
  140.0510   70.6200  225.5740 C   0  0  0  0  0  0  0  0  0  0  0  0
  139.7040   71.4330  224.5580 N   0  0  0  0  0  0  0  0  0  0  0  0
  139.8620   73.4910  223.1330 H   0  0  0  0  0  0  0  0  0  0  0  0
  138.5163   73.5793  220.4000 H   0  0  0  0  0  0  0  0  0  0  0  0
  138.1171   74.8268  221.6090 H   0  0  0  0  0  0  0  0  0  0  0  0
  138.6210   74.6870  218.8119 H   0  0  0  0  0  0  0  0  0  0  0  0
  139.7135   75.6618  217.7885 H   0  0  0  0  0  0  0  0  0  0  0  0
  139.4124   72.6946  218.0156 H   0  0  0  0  0  0  0  0  0  0  0  0
  139.9103   73.7175  216.6097 H   0  0  0  0  0  0  0  0  0  0  0  0
  141.5989   72.6382  218.8861 H   0  0  0  0  0  0  0  0  0  0  0  0
  141.8794   72.5252  217.1281 H   0  0  0  0  0  0  0  0  0  0  0  0
  143.3563   74.2268  217.9453 H   0  0  0  0  0  0  0  0  0  0  0  0
  142.0113   75.0830  217.1227 H   0  0  0  0  0  0  0  0  0  0  0  0
  142.5758   74.8171  220.0997 H   0  0  0  0  0  0  0  0  0  0  0  0
  143.1691   76.7757  218.4838 H   0  0  0  0  0  0  0  0  0  0  0  0
  141.4222   77.1272  218.5109 H   0  0  0  0  0  0  0  0  0  0  0  0
  142.2760   76.5130  221.1220 H   0  0  0  0  0  0  0  0  0  0  0  0
  141.4195   79.0085  219.7707 H   0  0  0  0  0  0  0  0  0  0  0  0
  140.3892   77.8316  220.6484 H   0  0  0  0  0  0  0  0  0  0  0  0
  142.3920   80.7406  220.8119 H   0  0  0  0  0  0  0  0  0  0  0  0
  142.9251   81.9531  222.8964 H   0  0  0  0  0  0  0  0  0  0  0  0
  142.5567   80.9350  225.1114 H   0  0  0  0  0  0  0  0  0  0  0  0
  141.6170   78.6210  225.2595 H   0  0  0  0  0  0  0  0  0  0  0  0
  141.0774   77.3834  223.1781 H   0  0  0  0  0  0  0  0  0  0  0  0
  138.2968   69.2043  222.5191 H   0  0  0  0  0  0  0  0  0  0  0  0
  138.9307   67.6878  224.3840 H   0  0  0  0  0  0  0  0  0  0  0  0
  139.9643   67.3799  226.6125 H   0  0  0  0  0  0  0  0  0  0  0  0
  141.5852   70.8446  228.6326 H   0  0  0  0  0  0  0  0  0  0  0  0
  140.8998   72.2543  226.6875 H   0  0  0  0  0  0  0  0  0  0  0  0
  1  2  2  0
  2  3  1  0
  3  4  1  0
  4  5  1  0
  5  6  2  0
  5  7  1  0
  7  8  1  0
  8  9  1  0
  9 10  1  0
 10 11  1  0
 11 12  1  0
 12 13  1  0
 13 14  1  0
 14 15  1  0
 15 16  1  0
 16 17  2  0
 17 18  1  0
 18 19  2  0
 19 20  1  0
 20 21  2  0
  2 22  1  0
 22 23  2  0
 23 24  1  0
 24 25  2  0
 25 26  1  0
 26 27  2  0
 27 28  1  0
 27 29  1  0
 29 30  2  0
 30 31  1  0
 31 32  2  0
 12  7  1  0
 21 16  1  0
 32 22  1  0
 31 25  1  0
  3 33  1  0
  4 34  1  0
  4 35  1  0
  8 36  1  0
  8 37  1  0
  9 38  1  0
  9 39  1  0
 10 40  1  0
 10 41  1  0
 11 42  1  0
 11 43  1  0
 12 44  1  1
 13 45  1  0
 13 46  1  0
 14 47  1  0
 15 48  1  0
 15 49  1  0
 17 50  1  0
 18 51  1  0
 19 52  1  0
 20 53  1  0
 21 54  1  0
 23 55  1  0
 24 56  1  0
 26 57  1  0
 29 58  1  0
 30 59  1  0
M  END
>  <smiles>  (38) 
O=C(NCC(=O)N1CCCC[C@H]1CNCc1ccccc1)c1ccc2cc(Cl)ccc2n1

>  <score_type>  (38) 
oracle

>  <origin>  (38) 
autodockgpu

>  <m_score__min__energy>  (38) 
-9.4000000000000004

>  <m_primary>  (38) 
energy

>  <rmsd>  (38) 
2.5742800772245045

>  <m_score__min__rmsd>  (38) 
2.5742800772245045

>  <meeko>  (38) 
{"free_energy": -8.29, "intermolecular_energy": -10.68, "internal_energy": -2.76, "cluster_size": 7, "cluster_id": 4, "rank_in_cluster": 6}

>  <energy>  (38) 
-7.81

>  <cluster_rmsd>  (38) 
1.42

>  <cluster>  (38) 
7

$$$$

     RDKit          3D

 59 62  0  0  0  0  0  0  0  0999 V2000
  137.8110   77.5140  222.8110 O   0  0  0  0  0  0  0  0  0  0  0  0
  137.9630   76.2720  222.7090 C   0  0  0  0  0  0  0  0  0  0  0  0
  136.9690   75.3220  223.0560 N   0  0  0  0  0  0  0  0  0  0  0  0
  135.6610   75.7520  223.5720 C   0  0  0  0  0  0  0  0  0  0  0  0
  135.2990   74.8430  224.6890 C   0  0  0  0  0  0  0  0  0  0  0  0
  135.4710   75.2270  225.8830 O   0  0  0  0  0  0  0  0  0  0  0  0
  134.7630   73.5560  224.4240 N   0  0  0  0  0  0  0  0  0  0  0  0
  133.3920   73.3460  223.9750 C   0  0  0  0  0  0  0  0  0  0  0  0
  132.6540   72.5810  225.0560 C   0  0  0  0  0  0  0  0  0  0  0  0
  133.6190   71.7990  225.9270 C   0  0  0  0  0  0  0  0  0  0  0  0
  134.6920   71.2510  225.0420 C   0  0  0  0  0  0  0  0  0  0  0  0
  135.5850   72.3740  224.5940 C   0  0  1  0  0  0  0  0  0  0  0  0
  136.2560   71.9670  223.3020 C   0  0  0  0  0  0  0  0  0  0  0  0
  137.6620   72.2470  223.4360 N   0  0  0  0  0  0  0  0  0  0  0  0
  138.4710   71.0470  223.2070 C   0  0  0  0  0  0  0  0  0  0  0  0
  139.2160   70.7180  224.4520 C   0  0  0  0  0  0  0  0  0  0  0  0
  140.3260   71.5130  224.7550 C   0  0  0  0  0  0  0  0  0  0  0  0
  141.0370   71.2340  225.8990 C   0  0  0  0  0  0  0  0  0  0  0  0
  140.6940   70.2060  226.7480 C   0  0  0  0  0  0  0  0  0  0  0  0
  139.5900   69.4200  226.4420 C   0  0  0  0  0  0  0  0  0  0  0  0
  138.8620   69.6850  225.2940 C   0  0  0  0  0  0  0  0  0  0  0  0
  139.2390   75.7470  222.2000 C   0  0  0  0  0  0  0  0  0  0  0  0
  140.1960   76.6200  221.6870 C   0  0  0  0  0  0  0  0  0  0  0  0
  141.4150   76.1490  221.1990 C   0  0  0  0  0  0  0  0  0  0  0  0
  141.6830   74.8050  221.2210 C   0  0  0  0  0  0  0  0  0  0  0  0
  142.8790   74.2820  220.7480 C   0  0  0  0  0  0  0  0  0  0  0  0
  143.0660   72.9110  220.8090 C   0  0  0  0  0  0  0  0  0  0  0  0
  144.5650   72.1720  220.2250 Cl  0  0  0  0  0  0  0  0  0  0  0  0
  142.1240   72.0450  221.3150 C   0  0  0  0  0  0  0  0  0  0  0  0
  140.9410   72.6030  221.7800 C   0  0  0  0  0  0  0  0  0  0  0  0
  140.7110   73.9740  221.7370 C   0  0  0  0  0  0  0  0  0  0  0  0
  139.5390   74.4420  222.2060 N   0  0  0  0  0  0  0  0  0  0  0  0
  137.1580   74.2870  222.9470 H   0  0  0  0  0  0  0  0  0  0  0  0
  135.7235   76.7880  223.9365 H   0  0  0  0  0  0  0  0  0  0  0  0
  134.9001   75.7117  222.7786 H   0  0  0  0  0  0  0  0  0  0  0  0
  132.9027   74.3164  223.8048 H   0  0  0  0  0  0  0  0  0  0  0  0
  133.3824   72.7786  223.0327 H   0  0  0  0  0  0  0  0  0  0  0  0
  132.0987   73.2928  225.6845 H   0  0  0  0  0  0  0  0  0  0  0  0
  131.9650   71.8718  224.5739 H   0  0  0  0  0  0  0  0  0  0  0  0
  134.0614   72.4627  226.6845 H   0  0  0  0  0  0  0  0  0  0  0  0
  133.0941   70.9829  226.4451 H   0  0  0  0  0  0  0  0  0  0  0  0
  135.2844   70.5094  225.5980 H   0  0  0  0  0  0  0  0  0  0  0  0
  134.2366   70.7686  224.1646 H   0  0  0  0  0  0  0  0  0  0  0  0
  136.3705   72.5942  225.3320 H   0  0  0  0  0  0  0  0  0  0  0  0
  136.1028   70.8928  223.1217 H   0  0  0  0  0  0  0  0  0  0  0  0
  135.8302   72.5223  222.4533 H   0  0  0  0  0  0  0  0  0  0  0  0
  137.9670   72.9750  222.7380 H   0  0  0  0  0  0  0  0  0  0  0  0
  137.8149   70.2063  222.9371 H   0  0  0  0  0  0  0  0  0  0  0  0
  139.1812   71.2295  222.3871 H   0  0  0  0  0  0  0  0  0  0  0  0
  140.6232   72.3411  224.0947 H   0  0  0  0  0  0  0  0  0  0  0  0
  141.9113   71.8548  226.1444 H   0  0  0  0  0  0  0  0  0  0  0  0
  141.2850   70.0099  227.6548 H   0  0  0  0  0  0  0  0  0  0  0  0
  139.2965   68.5938  227.1062 H   0  0  0  0  0  0  0  0  0  0  0  0
  137.9886   69.0623  225.0503 H   0  0  0  0  0  0  0  0  0  0  0  0
  139.9866   77.6997  221.6664 H   0  0  0  0  0  0  0  0  0  0  0  0
  142.1584   76.8536  220.7980 H   0  0  0  0  0  0  0  0  0  0  0  0
  143.6582   74.9397  220.3353 H   0  0  0  0  0  0  0  0  0  0  0  0
  142.3003   70.9598  221.3495 H   0  0  0  0  0  0  0  0  0  0  0  0
  140.1644   71.9429  222.1937 H   0  0  0  0  0  0  0  0  0  0  0  0
  1  2  2  0
  2  3  1  0
  3  4  1  0
  4  5  1  0
  5  6  2  0
  5  7  1  0
  7  8  1  0
  8  9  1  0
  9 10  1  0
 10 11  1  0
 11 12  1  0
 12 13  1  0
 13 14  1  0
 14 15  1  0
 15 16  1  0
 16 17  2  0
 17 18  1  0
 18 19  2  0
 19 20  1  0
 20 21  2  0
  2 22  1  0
 22 23  2  0
 23 24  1  0
 24 25  2  0
 25 26  1  0
 26 27  2  0
 27 28  1  0
 27 29  1  0
 29 30  2  0
 30 31  1  0
 31 32  2  0
 12  7  1  0
 21 16  1  0
 32 22  1  0
 31 25  1  0
  3 33  1  0
  4 34  1  0
  4 35  1  0
  8 36  1  0
  8 37  1  0
  9 38  1  0
  9 39  1  0
 10 40  1  0
 10 41  1  0
 11 42  1  0
 11 43  1  0
 12 44  1  1
 13 45  1  0
 13 46  1  0
 14 47  1  0
 15 48  1  0
 15 49  1  0
 17 50  1  0
 18 51  1  0
 19 52  1  0
 20 53  1  0
 21 54  1  0
 23 55  1  0
 24 56  1  0
 26 57  1  0
 29 58  1  0
 30 59  1  0
M  END
>  <smiles>  (39) 
O=C(NCC(=O)N1CCCC[C@H]1CNCc1ccccc1)c1ccc2cc(Cl)ccc2n1

>  <score_type>  (39) 
oracle

>  <origin>  (39) 
autodockgpu

>  <m_score__min__energy>  (39) 
-9.4000000000000004

>  <m_primary>  (39) 
energy

>  <rmsd>  (39) 
9.047464666182284

>  <m_score__min__rmsd>  (39) 
9.047464666182284

>  <meeko>  (39) 
{"free_energy": -7.04, "intermolecular_energy": -9.42, "internal_energy": -3.86, "cluster_size": 3, "cluster_id": 9, "rank_in_cluster": 3}

>  <energy>  (39) 
-8.11

>  <cluster_rmsd>  (39) 
0.0

>  <cluster>  (39) 
8

$$$$

     RDKit          3D

 59 62  0  0  0  0  0  0  0  0999 V2000
  139.0720   72.0100  220.7240 O   0  0  0  0  0  0  0  0  0  0  0  0
  139.3710   72.4680  221.8540 C   0  0  0  0  0  0  0  0  0  0  0  0
  139.5610   73.8470  222.1250 N   0  0  0  0  0  0  0  0  0  0  0  0
  139.4130   74.8520  221.0620 C   0  0  0  0  0  0  0  0  0  0  0  0
  140.2490   76.0220  221.4320 C   0  0  0  0  0  0  0  0  0  0  0  0
  140.7130   76.1090  222.6070 O   0  0  0  0  0  0  0  0  0  0  0  0
  140.5300   77.0350  220.4790 N   0  0  0  0  0  0  0  0  0  0  0  0
  139.5800   77.4370  219.4480 C   0  0  0  0  0  0  0  0  0  0  0  0
  140.1710   77.0810  218.0970 C   0  0  0  0  0  0  0  0  0  0  0  0
  141.6840   76.9870  218.1710 C   0  0  0  0  0  0  0  0  0  0  0  0
  142.1640   78.0720  219.0810 C   0  0  0  0  0  0  0  0  0  0  0  0
  141.8050   77.7240  220.4980 C   0  0  1  0  0  0  0  0  0  0  0  0
  141.7390   79.0020  221.3040 C   0  0  0  0  0  0  0  0  0  0  0  0
  142.2870   78.7220  222.6060 N   0  0  0  0  0  0  0  0  0  0  0  0
  141.7140   79.6030  223.6270 C   0  0  0  0  0  0  0  0  0  0  0  0
  140.2630   79.7810  223.3570 C   0  0  0  0  0  0  0  0  0  0  0  0
  139.8180   81.0830  223.1100 C   0  0  0  0  0  0  0  0  0  0  0  0
  138.4810   81.2810  222.8570 C   0  0  0  0  0  0  0  0  0  0  0  0
  137.5730   80.2460  222.8390 C   0  0  0  0  0  0  0  0  0  0  0  0
  138.0200   78.9540  223.0850 C   0  0  0  0  0  0  0  0  0  0  0  0
  139.3630   78.7350  223.3420 C   0  0  0  0  0  0  0  0  0  0  0  0
  139.5390   71.5370  222.9810 C   0  0  0  0  0  0  0  0  0  0  0  0
  139.1020   70.2190  222.8670 C   0  0  0  0  0  0  0  0  0  0  0  0
  139.2500   69.3160  223.9190 C   0  0  0  0  0  0  0  0  0  0  0  0
  139.8340   69.7250  225.0900 C   0  0  0  0  0  0  0  0  0  0  0  0
  140.0060   68.8690  226.1690 C   0  0  0  0  0  0  0  0  0  0  0  0
  140.6060   69.3670  227.3140 C   0  0  0  0  0  0  0  0  0  0  0  0
  140.8580   68.3340  228.7290 Cl  0  0  0  0  0  0  0  0  0  0  0  0
  141.0390   70.6680  227.4310 C   0  0  0  0  0  0  0  0  0  0  0  0
  140.8520   71.4950  226.3330 C   0  0  0  0  0  0  0  0  0  0  0  0
  140.2540   71.0370  225.1640 C   0  0  0  0  0  0  0  0  0  0  0  0
  140.1060   71.8980  224.1400 N   0  0  0  0  0  0  0  0  0  0  0  0
  139.8130   74.1700  223.1000 H   0  0  0  0  0  0  0  0  0  0  0  0
  139.7534   74.4360  220.1023 H   0  0  0  0  0  0  0  0  0  0  0  0
  138.3592   75.1484  220.9541 H   0  0  0  0  0  0  0  0  0  0  0  0
  138.6280   76.9046  219.5904 H   0  0  0  0  0  0  0  0  0  0  0  0
  139.3891   78.5187  219.5070 H   0  0  0  0  0  0  0  0  0  0  0  0
  139.7661   76.1113  217.7719 H   0  0  0  0  0  0  0  0  0  0  0  0
  139.9044   77.8710  217.3795 H   0  0  0  0  0  0  0  0  0  0  0  0
  141.9791   76.0055  218.5704 H   0  0  0  0  0  0  0  0  0  0  0  0
  142.1260   77.1006  217.1701 H   0  0  0  0  0  0  0  0  0  0  0  0
  143.2559   78.1706  218.9918 H   0  0  0  0  0  0  0  0  0  0  0  0
  141.6890   79.0244  218.8029 H   0  0  0  0  0  0  0  0  0  0  0  0
  142.5545   77.0656  220.9614 H   0  0  0  0  0  0  0  0  0  0  0  0
  142.3283   79.7884  220.8098 H   0  0  0  0  0  0  0  0  0  0  0  0
  140.7000   79.3532  221.3886 H   0  0  0  0  0  0  0  0  0  0  0  0
  142.0840   77.7290  222.8910 H   0  0  0  0  0  0  0  0  0  0  0  0
  141.8512   79.1527  224.6212 H   0  0  0  0  0  0  0  0  0  0  0  0
  142.2188   80.5800  223.5992 H   0  0  0  0  0  0  0  0  0  0  0  0
  140.5208   81.9292  223.1179 H   0  0  0  0  0  0  0  0  0  0  0  0
  138.1240   82.3030  222.6619 H   0  0  0  0  0  0  0  0  0  0  0  0
  136.5099   80.4393  222.6330 H   0  0  0  0  0  0  0  0  0  0  0  0
  137.3128   78.1115  223.0757 H   0  0  0  0  0  0  0  0  0  0  0  0
  139.7176   77.7122  223.5371 H   0  0  0  0  0  0  0  0  0  0  0  0
  138.6319   69.8849  221.9304 H   0  0  0  0  0  0  0  0  0  0  0  0
  138.8994   68.2791  223.8098 H   0  0  0  0  0  0  0  0  0  0  0  0
  139.6742   67.8216  226.1163 H   0  0  0  0  0  0  0  0  0  0  0  0
  141.5120   71.0356  228.3535 H   0  0  0  0  0  0  0  0  0  0  0  0
  141.1859   72.5416  226.3885 H   0  0  0  0  0  0  0  0  0  0  0  0
  1  2  2  0
  2  3  1  0
  3  4  1  0
  4  5  1  0
  5  6  2  0
  5  7  1  0
  7  8  1  0
  8  9  1  0
  9 10  1  0
 10 11  1  0
 11 12  1  0
 12 13  1  0
 13 14  1  0
 14 15  1  0
 15 16  1  0
 16 17  2  0
 17 18  1  0
 18 19  2  0
 19 20  1  0
 20 21  2  0
  2 22  1  0
 22 23  2  0
 23 24  1  0
 24 25  2  0
 25 26  1  0
 26 27  2  0
 27 28  1  0
 27 29  1  0
 29 30  2  0
 30 31  1  0
 31 32  2  0
 12  7  1  0
 21 16  1  0
 32 22  1  0
 31 25  1  0
  3 33  1  0
  4 34  1  0
  4 35  1  0
  8 36  1  0
  8 37  1  0
  9 38  1  0
  9 39  1  0
 10 40  1  0
 10 41  1  0
 11 42  1  0
 11 43  1  0
 12 44  1  1
 13 45  1  0
 13 46  1  0
 14 47  1  0
 15 48  1  0
 15 49  1  0
 17 50  1  0
 18 51  1  0
 19 52  1  0
 20 53  1  0
 21 54  1  0
 23 55  1  0
 24 56  1  0
 26 57  1  0
 29 58  1  0
 30 59  1  0
M  END
>  <smiles>  (40) 
O=C(NCC(=O)N1CCCC[C@H]1CNCc1ccccc1)c1ccc2cc(Cl)ccc2n1

>  <score_type>  (40) 
oracle

>  <origin>  (40) 
autodockgpu

>  <m_score__min__energy>  (40) 
-9.4000000000000004

>  <m_primary>  (40) 
energy

>  <rmsd>  (40) 
2.2219245846665014

>  <m_score__min__rmsd>  (40) 
2.2219245846665014

>  <meeko>  (40) 
{"free_energy": -7.96, "intermolecular_energy": -10.35, "internal_energy": -3.35, "cluster_size": 5, "cluster_id": 7, "rank_in_cluster": 3}

>  <energy>  (40) 
-8.01

>  <cluster_rmsd>  (40) 
0.23

>  <cluster>  (40) 
8

$$$$

     RDKit          3D

 59 62  0  0  0  0  0  0  0  0999 V2000
  136.8940   77.0670  222.6970 O   0  0  0  0  0  0  0  0  0  0  0  0
  137.2660   75.8730  222.8050 C   0  0  0  0  0  0  0  0  0  0  0  0
  136.4730   74.8450  223.3760 N   0  0  0  0  0  0  0  0  0  0  0  0
  135.1260   75.1300  223.8920 C   0  0  0  0  0  0  0  0  0  0  0  0
  134.7870   74.0680  224.8720 C   0  0  0  0  0  0  0  0  0  0  0  0
  134.7030   74.3590  226.1010 O   0  0  0  0  0  0  0  0  0  0  0  0
  134.5570   72.7360  224.4380 N   0  0  0  0  0  0  0  0  0  0  0  0
  133.2920   72.2990  223.8610 C   0  0  0  0  0  0  0  0  0  0  0  0
  132.6730   71.2800  224.7980 C   0  0  0  0  0  0  0  0  0  0  0  0
  133.7310   70.6200  225.6630 C   0  0  0  0  0  0  0  0  0  0  0  0
  134.9460   70.4120  224.8180 C   0  0  0  0  0  0  0  0  0  0  0  0
  135.6020   71.7390  224.5570 C   0  0  1  0  0  0  0  0  0  0  0  0
  136.4190   71.6290  223.2890 C   0  0  0  0  0  0  0  0  0  0  0  0
  137.7940   71.8780  223.6380 N   0  0  0  0  0  0  0  0  0  0  0  0
  138.5890   70.6470  223.5890 C   0  0  0  0  0  0  0  0  0  0  0  0
  139.4250   70.5600  224.8150 C   0  0  0  0  0  0  0  0  0  0  0  0
  139.2140   69.4590  225.6510 C   0  0  0  0  0  0  0  0  0  0  0  0
  139.9710   69.3500  226.7940 C   0  0  0  0  0  0  0  0  0  0  0  0
  140.9220   70.2830  227.1390 C   0  0  0  0  0  0  0  0  0  0  0  0
  141.1280   71.3750  226.3060 C   0  0  0  0  0  0  0  0  0  0  0  0
  140.3750   71.5020  225.1510 C   0  0  0  0  0  0  0  0  0  0  0  0
  138.6000   75.4930  222.3160 C   0  0  0  0  0  0  0  0  0  0  0  0
  139.4850   76.4740  221.8720 C   0  0  0  0  0  0  0  0  0  0  0  0
  140.7560   76.1410  221.4040 C   0  0  0  0  0  0  0  0  0  0  0  0
  141.1480   74.8280  221.3760 C   0  0  0  0  0  0  0  0  0  0  0  0
  142.4010   74.4400  220.9200 C   0  0  0  0  0  0  0  0  0  0  0  0
  142.7140   73.0900  220.9270 C   0  0  0  0  0  0  0  0  0  0  0  0
  144.2910   72.5220  220.3600 Cl  0  0  0  0  0  0  0  0  0  0  0  0
  141.8430   72.1180  221.3640 C   0  0  0  0  0  0  0  0  0  0  0  0
  140.6010   72.5420  221.8140 C   0  0  0  0  0  0  0  0  0  0  0  0
  140.2440   73.8860  221.8240 C   0  0  0  0  0  0  0  0  0  0  0  0
  139.0210   74.2220  222.2740 N   0  0  0  0  0  0  0  0  0  0  0  0
  136.8440   73.8570  223.4390 H   0  0  0  0  0  0  0  0  0  0  0  0
  135.1134   76.1132  224.3850 H   0  0  0  0  0  0  0  0  0  0  0  0
  134.3935   75.1467  223.0715 H   0  0  0  0  0  0  0  0  0  0  0  0
  132.6167   73.1599  223.7480 H   0  0  0  0  0  0  0  0  0  0  0  0
  133.4597   71.8524  222.8698 H   0  0  0  0  0  0  0  0  0  0  0  0
  131.9426   71.7856  225.4468 H   0  0  0  0  0  0  0  0  0  0  0  0
  132.1810   70.5034  224.1940 H   0  0  0  0  0  0  0  0  0  0  0  0
  133.9753   71.2694  226.5165 H   0  0  0  0  0  0  0  0  0  0  0  0
  133.3645   69.6589  226.0528 H   0  0  0  0  0  0  0  0  0  0  0  0
  135.6505   69.7508  225.3437 H   0  0  0  0  0  0  0  0  0  0  0  0
  134.6561   69.9498  223.8628 H   0  0  0  0  0  0  0  0  0  0  0  0
  136.2775   72.0318  225.3743 H   0  0  0  0  0  0  0  0  0  0  0  0
  136.3164   70.6204  222.8622 H   0  0  0  0  0  0  0  0  0  0  0  0
  136.0715   72.3553  222.5395 H   0  0  0  0  0  0  0  0  0  0  0  0
  138.2310   72.5650  222.9690 H   0  0  0  0  0  0  0  0  0  0  0  0
  137.9181   69.7768  223.5379 H   0  0  0  0  0  0  0  0  0  0  0  0
  139.2355   70.6580  222.6991 H   0  0  0  0  0  0  0  0  0  0  0  0
  138.4603   68.6980  225.4003 H   0  0  0  0  0  0  0  0  0  0  0  0
  139.8106   68.4863  227.4561 H   0  0  0  0  0  0  0  0  0  0  0  0
  141.5103   70.1656  228.0610 H   0  0  0  0  0  0  0  0  0  0  0  0
  141.8832   72.1328  226.5617 H   0  0  0  0  0  0  0  0  0  0  0  0
  140.5368   72.3672  224.4913 H   0  0  0  0  0  0  0  0  0  0  0  0
  139.1756   77.5294  221.8910 H   0  0  0  0  0  0  0  0  0  0  0  0
  141.4412   76.9292  221.0587 H   0  0  0  0  0  0  0  0  0  0  0  0
  143.1267   75.1853  220.5623 H   0  0  0  0  0  0  0  0  0  0  0  0
  142.1191   71.0532  221.3568 H   0  0  0  0  0  0  0  0  0  0  0  0
  139.8785   71.7942  222.1729 H   0  0  0  0  0  0  0  0  0  0  0  0
  1  2  2  0
  2  3  1  0
  3  4  1  0
  4  5  1  0
  5  6  2  0
  5  7  1  0
  7  8  1  0
  8  9  1  0
  9 10  1  0
 10 11  1  0
 11 12  1  0
 12 13  1  0
 13 14  1  0
 14 15  1  0
 15 16  1  0
 16 17  2  0
 17 18  1  0
 18 19  2  0
 19 20  1  0
 20 21  2  0
  2 22  1  0
 22 23  2  0
 23 24  1  0
 24 25  2  0
 25 26  1  0
 26 27  2  0
 27 28  1  0
 27 29  1  0
 29 30  2  0
 30 31  1  0
 31 32  2  0
 12  7  1  0
 21 16  1  0
 32 22  1  0
 31 25  1  0
  3 33  1  0
  4 34  1  0
  4 35  1  0
  8 36  1  0
  8 37  1  0
  9 38  1  0
  9 39  1  0
 10 40  1  0
 10 41  1  0
 11 42  1  0
 11 43  1  0
 12 44  1  1
 13 45  1  0
 13 46  1  0
 14 47  1  0
 15 48  1  0
 15 49  1  0
 17 50  1  0
 18 51  1  0
 19 52  1  0
 20 53  1  0
 21 54  1  0
 23 55  1  0
 24 56  1  0
 26 57  1  0
 29 58  1  0
 30 59  1  0
M  END
>  <smiles>  (41) 
O=C(NCC(=O)N1CCCC[C@H]1CNCc1ccccc1)c1ccc2cc(Cl)ccc2n1

>  <score_type>  (41) 
oracle

>  <origin>  (41) 
autodockgpu

>  <m_score__min__energy>  (41) 
-9.4000000000000004

>  <m_primary>  (41) 
energy

>  <rmsd>  (41) 
9.027372360409897

>  <m_score__min__rmsd>  (41) 
9.027372360409897

>  <meeko>  (41) 
{"free_energy": -7.28, "intermolecular_energy": -9.67, "internal_energy": -3.89, "cluster_size": 3, "cluster_id": 9, "rank_in_cluster": 1}

>  <energy>  (41) 
-7.37

>  <cluster_rmsd>  (41) 
0.85

>  <cluster>  (41) 
8

$$$$

     RDKit          3D

 59 62  0  0  0  0  0  0  0  0999 V2000
  139.8010   73.6500  220.1120 O   0  0  0  0  0  0  0  0  0  0  0  0
  139.8040   73.8310  221.3540 C   0  0  0  0  0  0  0  0  0  0  0  0
  139.9000   75.1060  221.9690 N   0  0  0  0  0  0  0  0  0  0  0  0
  140.0070   76.3280  221.1580 C   0  0  0  0  0  0  0  0  0  0  0  0
  140.8680   77.2840  221.8990 C   0  0  0  0  0  0  0  0  0  0  0  0
  141.1200   77.0750  223.1220 O   0  0  0  0  0  0  0  0  0  0  0  0
  141.4050   78.4220  221.2450 N   0  0  0  0  0  0  0  0  0  0  0  0
  142.1890   79.4380  221.9380 C   0  0  0  0  0  0  0  0  0  0  0  0
  141.4140   80.7410  221.8980 C   0  0  0  0  0  0  0  0  0  0  0  0
  140.4390   80.7600  220.7350 C   0  0  0  0  0  0  0  0  0  0  0  0
  141.1040   80.0980  219.5710 C   0  0  0  0  0  0  0  0  0  0  0  0
  141.1890   78.6190  219.8250 C   0  0  1  0  0  0  0  0  0  0  0  0
  142.3250   78.0560  219.0010 C   0  0  0  0  0  0  0  0  0  0  0  0
  142.8910   76.9560  219.7400 N   0  0  0  0  0  0  0  0  0  0  0  0
  142.7370   75.6910  219.0160 C   0  0  0  0  0  0  0  0  0  0  0  0
  143.4320   74.6130  219.7690 C   0  0  0  0  0  0  0  0  0  0  0  0
  144.7350   74.8800  220.2010 C   0  0  0  0  0  0  0  0  0  0  0  0
  145.4050   73.9020  220.8990 C   0  0  0  0  0  0  0  0  0  0  0  0
  144.8390   72.6800  221.1840 C   0  0  0  0  0  0  0  0  0  0  0  0
  143.5440   72.4210  220.7530 C   0  0  0  0  0  0  0  0  0  0  0  0
  142.8540   73.3930  220.0480 C   0  0  0  0  0  0  0  0  0  0  0  0
  139.6990   72.6670  222.2480 C   0  0  0  0  0  0  0  0  0  0  0  0
  138.9250   71.5700  221.8750 C   0  0  0  0  0  0  0  0  0  0  0  0
  138.8090   70.4530  222.7020 C   0  0  0  0  0  0  0  0  0  0  0  0
  139.4660   70.4260  223.9040 C   0  0  0  0  0  0  0  0  0  0  0  0
  139.3860   69.3410  224.7670 C   0  0  0  0  0  0  0  0  0  0  0  0
  140.0830   69.3990  225.9620 C   0  0  0  0  0  0  0  0  0  0  0  0
  140.0290   68.0530  227.1110 Cl  0  0  0  0  0  0  0  0  0  0  0  0
  140.8500   70.4800  226.3350 C   0  0  0  0  0  0  0  0  0  0  0  0
  140.9070   71.5460  225.4490 C   0  0  0  0  0  0  0  0  0  0  0  0
  140.2230   71.5310  224.2380 C   0  0  0  0  0  0  0  0  0  0  0  0
  140.3260   72.6020  223.4290 N   0  0  0  0  0  0  0  0  0  0  0  0
  139.8970   75.1930  223.0220 H   0  0  0  0  0  0  0  0  0  0  0  0
  140.4597   76.0930  220.1834 H   0  0  0  0  0  0  0  0  0  0  0  0
  139.0121   76.7620  220.9798 H   0  0  0  0  0  0  0  0  0  0  0  0
  142.3532   79.1340  222.9823 H   0  0  0  0  0  0  0  0  0  0  0  0
  143.1674   79.5619  221.4508 H   0  0  0  0  0  0  0  0  0  0  0  0
  140.8544   80.8554  222.8381 H   0  0  0  0  0  0  0  0  0  0  0  0
  142.1273   81.5686  221.7701 H   0  0  0  0  0  0  0  0  0  0  0  0
  139.5240   80.2121  221.0046 H   0  0  0  0  0  0  0  0  0  0  0  0
  140.1619   81.7941  220.4824 H   0  0  0  0  0  0  0  0  0  0  0  0
  140.5170   80.2814  218.6589 H   0  0  0  0  0  0  0  0  0  0  0  0
  142.1160   80.5091  219.4410 H   0  0  0  0  0  0  0  0  0  0  0  0
  140.2649   78.0979  219.5342 H   0  0  0  0  0  0  0  0  0  0  0  0
  141.9460   77.7016  218.0311 H   0  0  0  0  0  0  0  0  0  0  0  0
  143.0856   78.8275  218.8106 H   0  0  0  0  0  0  0  0  0  0  0  0
  143.9210   77.1070  219.9030 H   0  0  0  0  0  0  0  0  0  0  0  0
  141.6684   75.4465  218.9243 H   0  0  0  0  0  0  0  0  0  0  0  0
  143.1744   75.7830  218.0109 H   0  0  0  0  0  0  0  0  0  0  0  0
  145.2123   75.8479  219.9880 H   0  0  0  0  0  0  0  0  0  0  0  0
  146.4305   74.1039  221.2419 H   0  0  0  0  0  0  0  0  0  0  0  0
  145.4035   71.9202  221.7444 H   0  0  0  0  0  0  0  0  0  0  0  0
  143.0706   71.4520  220.9699 H   0  0  0  0  0  0  0  0  0  0  0  0
  141.8289   73.1884  219.7054 H   0  0  0  0  0  0  0  0  0  0  0  0
  138.3959   71.5853  220.9108 H   0  0  0  0  0  0  0  0  0  0  0  0
  138.1924   69.5970  222.3904 H   0  0  0  0  0  0  0  0  0  0  0  0
  138.7840   68.4576  224.5077 H   0  0  0  0  0  0  0  0  0  0  0  0
  141.3927   70.4975  227.2917 H   0  0  0  0  0  0  0  0  0  0  0  0
  141.5100   72.4277  225.7116 H   0  0  0  0  0  0  0  0  0  0  0  0
  1  2  2  0
  2  3  1  0
  3  4  1  0
  4  5  1  0
  5  6  2  0
  5  7  1  0
  7  8  1  0
  8  9  1  0
  9 10  1  0
 10 11  1  0
 11 12  1  0
 12 13  1  0
 13 14  1  0
 14 15  1  0
 15 16  1  0
 16 17  2  0
 17 18  1  0
 18 19  2  0
 19 20  1  0
 20 21  2  0
  2 22  1  0
 22 23  2  0
 23 24  1  0
 24 25  2  0
 25 26  1  0
 26 27  2  0
 27 28  1  0
 27 29  1  0
 29 30  2  0
 30 31  1  0
 31 32  2  0
 12  7  1  0
 21 16  1  0
 32 22  1  0
 31 25  1  0
  3 33  1  0
  4 34  1  0
  4 35  1  0
  8 36  1  0
  8 37  1  0
  9 38  1  0
  9 39  1  0
 10 40  1  0
 10 41  1  0
 11 42  1  0
 11 43  1  0
 12 44  1  6
 13 45  1  0
 13 46  1  0
 14 47  1  0
 15 48  1  0
 15 49  1  0
 17 50  1  0
 18 51  1  0
 19 52  1  0
 20 53  1  0
 21 54  1  0
 23 55  1  0
 24 56  1  0
 26 57  1  0
 29 58  1  0
 30 59  1  0
M  END
>  <smiles>  (42) 
O=C(NCC(=O)N1CCCC[C@H]1CNCc1ccccc1)c1ccc2cc(Cl)ccc2n1

>  <score_type>  (42) 
oracle

>  <origin>  (42) 
autodockgpu

>  <m_score__min__energy>  (42) 
-9.4000000000000004

>  <m_primary>  (42) 
energy

>  <rmsd>  (42) 
5.437768603703477

>  <m_score__min__rmsd>  (42) 
5.437768603703477

>  <meeko>  (42) 
{"free_energy": -8.22, "intermolecular_energy": -10.61, "internal_energy": -2.97, "cluster_size": 6, "cluster_id": 1, "rank_in_cluster": 5}

>  <energy>  (42) 
-7.28

>  <cluster_rmsd>  (42) 
0.0

>  <cluster>  (42) 
9

$$$$

     RDKit          3D

 59 62  0  0  0  0  0  0  0  0999 V2000
  140.3170   73.1470  220.5000 O   0  0  0  0  0  0  0  0  0  0  0  0
  139.8840   73.3570  221.6590 C   0  0  0  0  0  0  0  0  0  0  0  0
  139.3680   74.6020  222.0990 N   0  0  0  0  0  0  0  0  0  0  0  0
  139.3110   75.7580  221.1910 C   0  0  0  0  0  0  0  0  0  0  0  0
  139.6440   76.9680  221.9840 C   0  0  0  0  0  0  0  0  0  0  0  0
  138.9240   77.2770  222.9800 O   0  0  0  0  0  0  0  0  0  0  0  0
  140.7590   77.7720  221.6340 N   0  0  0  0  0  0  0  0  0  0  0  0
  141.5100   78.5530  222.6100 C   0  0  0  0  0  0  0  0  0  0  0  0
  141.3270   80.0220  222.2800 C   0  0  0  0  0  0  0  0  0  0  0  0
  140.9620   80.2130  220.8200 C   0  0  0  0  0  0  0  0  0  0  0  0
  141.7500   79.2260  220.0200 C   0  0  0  0  0  0  0  0  0  0  0  0
  141.2010   77.8470  220.2560 C   0  0  1  0  0  0  0  0  0  0  0  0
  142.2910   76.8400  219.9610 C   0  0  0  0  0  0  0  0  0  0  0  0
  141.6510   75.6200  219.5390 N   0  0  0  0  0  0  0  0  0  0  0  0
  142.5430   74.8120  218.7030 C   0  0  0  0  0  0  0  0  0  0  0  0
  143.5170   74.1050  219.5740 C   0  0  0  0  0  0  0  0  0  0  0  0
  143.2580   72.7590  219.8550 C   0  0  0  0  0  0  0  0  0  0  0  0
  144.1410   72.0770  220.6600 C   0  0  0  0  0  0  0  0  0  0  0  0
  145.2620   72.6710  221.1930 C   0  0  0  0  0  0  0  0  0  0  0  0
  145.5150   74.0070  220.9120 C   0  0  0  0  0  0  0  0  0  0  0  0
  144.6380   74.7110  220.1040 C   0  0  0  0  0  0  0  0  0  0  0  0
  139.9000   72.2580  222.6380 C   0  0  0  0  0  0  0  0  0  0  0  0
  139.3730   71.0140  222.2970 C   0  0  0  0  0  0  0  0  0  0  0  0
  139.3760   69.9560  223.2050 C   0  0  0  0  0  0  0  0  0  0  0  0
  139.9040   70.1350  224.4570 C   0  0  0  0  0  0  0  0  0  0  0  0
  139.9330   69.1170  225.4010 C   0  0  0  0  0  0  0  0  0  0  0  0
  140.4860   69.3870  226.6420 C   0  0  0  0  0  0  0  0  0  0  0  0
  140.5570   68.1380  227.8950 Cl  0  0  0  0  0  0  0  0  0  0  0  0
  141.0070   70.6140  226.9830 C   0  0  0  0  0  0  0  0  0  0  0  0
  140.9620   71.6070  226.0160 C   0  0  0  0  0  0  0  0  0  0  0  0
  140.4160   71.3810  224.7570 C   0  0  0  0  0  0  0  0  0  0  0  0
  140.4070   72.3930  223.8700 N   0  0  0  0  0  0  0  0  0  0  0  0
  139.0180   74.7160  223.0900 H   0  0  0  0  0  0  0  0  0  0  0  0
  140.0391   75.6313  220.3762 H   0  0  0  0  0  0  0  0  0  0  0  0
  138.3093   75.8510  220.7462 H   0  0  0  0  0  0  0  0  0  0  0  0
  141.1312   78.3483  223.6222 H   0  0  0  0  0  0  0  0  0  0  0  0
  142.5761   78.2844  222.5737 H   0  0  0  0  0  0  0  0  0  0  0  0
  140.5232   80.4338  222.9080 H   0  0  0  0  0  0  0  0  0  0  0  0
  142.2755   80.5442  222.4740 H   0  0  0  0  0  0  0  0  0  0  0  0
  139.8857   80.0366  220.6770 H   0  0  0  0  0  0  0  0  0  0  0  0
  141.1906   81.2395  220.4975 H   0  0  0  0  0  0  0  0  0  0  0  0
  141.6737   79.4743  218.9511 H   0  0  0  0  0  0  0  0  0  0  0  0
  142.8057   79.2607  220.3269 H   0  0  0  0  0  0  0  0  0  0  0  0
  140.3458   77.6277  219.5999 H   0  0  0  0  0  0  0  0  0  0  0  0
  142.9445   77.2175  219.1607 H   0  0  0  0  0  0  0  0  0  0  0  0
  142.9084   76.6646  220.8543 H   0  0  0  0  0  0  0  0  0  0  0  0
  141.3770   75.0350  220.3710 H   0  0  0  0  0  0  0  0  0  0  0  0
  141.9521   74.0760  218.1380 H   0  0  0  0  0  0  0  0  0  0  0  0
  143.0806   75.4628  217.9978 H   0  0  0  0  0  0  0  0  0  0  0  0
  142.3698   72.2582  219.4422 H   0  0  0  0  0  0  0  0  0  0  0  0
  143.9438   71.0186  220.8857 H   0  0  0  0  0  0  0  0  0  0  0  0
  145.9477   72.0957  221.8324 H   0  0  0  0  0  0  0  0  0  0  0  0
  146.4049   74.5022  221.3279 H   0  0  0  0  0  0  0  0  0  0  0  0
  144.8379   75.7695  219.8812 H   0  0  0  0  0  0  0  0  0  0  0  0
  138.9472   70.8641  221.2939 H   0  0  0  0  0  0  0  0  0  0  0  0
  138.9560   68.9808  222.9175 H   0  0  0  0  0  0  0  0  0  0  0  0
  139.5271   68.1213  225.1691 H   0  0  0  0  0  0  0  0  0  0  0  0
  141.4395   70.7988  227.9774 H   0  0  0  0  0  0  0  0  0  0  0  0
  141.3696   72.6012  226.2513 H   0  0  0  0  0  0  0  0  0  0  0  0
  1  2  2  0
  2  3  1  0
  3  4  1  0
  4  5  1  0
  5  6  2  0
  5  7  1  0
  7  8  1  0
  8  9  1  0
  9 10  1  0
 10 11  1  0
 11 12  1  0
 12 13  1  0
 13 14  1  0
 14 15  1  0
 15 16  1  0
 16 17  2  0
 17 18  1  0
 18 19  2  0
 19 20  1  0
 20 21  2  0
  2 22  1  0
 22 23  2  0
 23 24  1  0
 24 25  2  0
 25 26  1  0
 26 27  2  0
 27 28  1  0
 27 29  1  0
 29 30  2  0
 30 31  1  0
 31 32  2  0
 12  7  1  0
 21 16  1  0
 32 22  1  0
 31 25  1  0
  3 33  1  0
  4 34  1  0
  4 35  1  0
  8 36  1  0
  8 37  1  0
  9 38  1  0
  9 39  1  0
 10 40  1  0
 10 41  1  0
 11 42  1  0
 11 43  1  0
 12 44  1  6
 13 45  1  0
 13 46  1  0
 14 47  1  0
 15 48  1  0
 15 49  1  0
 17 50  1  0
 18 51  1  0
 19 52  1  0
 20 53  1  0
 21 54  1  0
 23 55  1  0
 24 56  1  0
 26 57  1  0
 29 58  1  0
 30 59  1  0
M  END
>  <smiles>  (43) 
O=C(NCC(=O)N1CCCC[C@H]1CNCc1ccccc1)c1ccc2cc(Cl)ccc2n1

>  <score_type>  (43) 
oracle

>  <origin>  (43) 
autodockgpu

>  <m_score__min__energy>  (43) 
-9.4000000000000004

>  <m_primary>  (43) 
energy

>  <rmsd>  (43) 
5.309813538818556

>  <m_score__min__rmsd>  (43) 
5.309813538818556

>  <meeko>  (43) 
{"free_energy": -8.28, "intermolecular_energy": -10.67, "internal_energy": -2.89, "cluster_size": 6, "cluster_id": 1, "rank_in_cluster": 4}

>  <energy>  (43) 
-7.11

>  <cluster_rmsd>  (43) 
1.68

>  <cluster>  (43) 
9

$$$$

     RDKit          3D

 59 62  0  0  0  0  0  0  0  0999 V2000
  138.5030   71.8830  220.9810 O   0  0  0  0  0  0  0  0  0  0  0  0
  138.9690   72.3290  222.0580 C   0  0  0  0  0  0  0  0  0  0  0  0
  139.2310   73.7010  222.3000 N   0  0  0  0  0  0  0  0  0  0  0  0
  138.9640   74.7130  221.2670 C   0  0  0  0  0  0  0  0  0  0  0  0
  139.5290   76.0010  221.7440 C   0  0  0  0  0  0  0  0  0  0  0  0
  140.6650   76.0120  222.3040 O   0  0  0  0  0  0  0  0  0  0  0  0
  138.8060   77.2100  221.5750 N   0  0  0  0  0  0  0  0  0  0  0  0
  138.3800   78.0420  222.6940 C   0  0  0  0  0  0  0  0  0  0  0  0
  136.8650   78.0440  222.7310 C   0  0  0  0  0  0  0  0  0  0  0  0
  136.2840   77.7200  221.3670 C   0  0  0  0  0  0  0  0  0  0  0  0
  137.1380   78.3880  220.3380 C   0  0  0  0  0  0  0  0  0  0  0  0
  138.4560   77.6710  220.2460 C   0  0  1  0  0  0  0  0  0  0  0  0
  139.4870   78.6320  219.6970 C   0  0  0  0  0  0  0  0  0  0  0  0
  140.7710   77.9860  219.7850 N   0  0  0  0  0  0  0  0  0  0  0  0
  141.8550   78.9650  219.9020 C   0  0  0  0  0  0  0  0  0  0  0  0
  141.7980   79.5940  221.2480 C   0  0  0  0  0  0  0  0  0  0  0  0
  141.9250   78.7450  222.3510 C   0  0  0  0  0  0  0  0  0  0  0  0
  141.8750   79.2960  223.6110 C   0  0  0  0  0  0  0  0  0  0  0  0
  141.7050   80.6460  223.8180 C   0  0  0  0  0  0  0  0  0  0  0  0
  141.5790   81.4860  222.7180 C   0  0  0  0  0  0  0  0  0  0  0  0
  141.6270   80.9490  221.4420 C   0  0  0  0  0  0  0  0  0  0  0  0
  139.2670   71.3900  223.1520 C   0  0  0  0  0  0  0  0  0  0  0  0
  138.9320   70.0440  223.0240 C   0  0  0  0  0  0  0  0  0  0  0  0
  139.2030   69.1330  224.0440 C   0  0  0  0  0  0  0  0  0  0  0  0
  139.8100   69.5620  225.1960 C   0  0  0  0  0  0  0  0  0  0  0  0
  140.1030   68.6990  226.2440 C   0  0  0  0  0  0  0  0  0  0  0  0
  140.7170   69.2190  227.3710 C   0  0  0  0  0  0  0  0  0  0  0  0
  141.1210   68.1790  228.7460 Cl  0  0  0  0  0  0  0  0  0  0  0  0
  141.0500   70.5480  227.5010 C   0  0  0  0  0  0  0  0  0  0  0  0
  140.7430   71.3810  226.4350 C   0  0  0  0  0  0  0  0  0  0  0  0
  140.1260   70.9020  225.2840 C   0  0  0  0  0  0  0  0  0  0  0  0
  139.8590   71.7700  224.2910 N   0  0  0  0  0  0  0  0  0  0  0  0
  139.6230   74.0150  223.2300 H   0  0  0  0  0  0  0  0  0  0  0  0
  139.4441   74.4199  220.3217 H   0  0  0  0  0  0  0  0  0  0  0  0
  137.8826   74.8076  221.0891 H   0  0  0  0  0  0  0  0  0  0  0  0
  138.7752   77.6317  223.6350 H   0  0  0  0  0  0  0  0  0  0  0  0
  138.7590   79.0674  222.5717 H   0  0  0  0  0  0  0  0  0  0  0  0
  136.5225   77.2904  223.4555 H   0  0  0  0  0  0  0  0  0  0  0  0
  136.5244   79.0474  223.0261 H   0  0  0  0  0  0  0  0  0  0  0  0
  136.2875   76.6316  221.2074 H   0  0  0  0  0  0  0  0  0  0  0  0
  135.2459   78.0768  221.2962 H   0  0  0  0  0  0  0  0  0  0  0  0
  136.6320   78.3538  219.3619 H   0  0  0  0  0  0  0  0  0  0  0  0
  137.3077   79.4366  220.6237 H   0  0  0  0  0  0  0  0  0  0  0  0
  138.4054   76.8022  219.5732 H   0  0  0  0  0  0  0  0  0  0  0  0
  139.2575   78.8701  218.6479 H   0  0  0  0  0  0  0  0  0  0  0  0
  139.4855   79.5708  220.2702 H   0  0  0  0  0  0  0  0  0  0  0  0
  140.8160   77.3580  220.6290 H   0  0  0  0  0  0  0  0  0  0  0  0
  142.8234   78.4598  219.7720 H   0  0  0  0  0  0  0  0  0  0  0  0
  141.7428   79.7371  219.1266 H   0  0  0  0  0  0  0  0  0  0  0  0
  142.0617   77.6620  222.2151 H   0  0  0  0  0  0  0  0  0  0  0  0
  141.9744   78.6339  224.4838 H   0  0  0  0  0  0  0  0  0  0  0  0
  141.6694   81.0540  224.8389 H   0  0  0  0  0  0  0  0  0  0  0  0
  141.4423   82.5683  222.8594 H   0  0  0  0  0  0  0  0  0  0  0  0
  141.5273   81.6129  220.5706 H   0  0  0  0  0  0  0  0  0  0  0  0
  138.4451   69.6937  222.1019 H   0  0  0  0  0  0  0  0  0  0  0  0
  138.9308   68.0739  223.9249 H   0  0  0  0  0  0  0  0  0  0  0  0
  139.8536   67.6295  226.1804 H   0  0  0  0  0  0  0  0  0  0  0  0
  141.5375   70.9323  228.4091 H   0  0  0  0  0  0  0  0  0  0  0  0
  140.9944   72.4498  226.5018 H   0  0  0  0  0  0  0  0  0  0  0  0
  1  2  2  0
  2  3  1  0
  3  4  1  0
  4  5  1  0
  5  6  2  0
  5  7  1  0
  7  8  1  0
  8  9  1  0
  9 10  1  0
 10 11  1  0
 11 12  1  0
 12 13  1  0
 13 14  1  0
 14 15  1  0
 15 16  1  0
 16 17  2  0
 17 18  1  0
 18 19  2  0
 19 20  1  0
 20 21  2  0
  2 22  1  0
 22 23  2  0
 23 24  1  0
 24 25  2  0
 25 26  1  0
 26 27  2  0
 27 28  1  0
 27 29  1  0
 29 30  2  0
 30 31  1  0
 31 32  2  0
 12  7  1  0
 21 16  1  0
 32 22  1  0
 31 25  1  0
  3 33  1  0
  4 34  1  0
  4 35  1  0
  8 36  1  0
  8 37  1  0
  9 38  1  0
  9 39  1  0
 10 40  1  0
 10 41  1  0
 11 42  1  0
 11 43  1  0
 12 44  1  6
 13 45  1  0
 13 46  1  0
 14 47  1  0
 15 48  1  0
 15 49  1  0
 17 50  1  0
 18 51  1  0
 19 52  1  0
 20 53  1  0
 21 54  1  0
 23 55  1  0
 24 56  1  0
 26 57  1  0
 29 58  1  0
 30 59  1  0
M  END
>  <smiles>  (44) 
O=C(NCC(=O)N1CCCC[C@H]1CNCc1ccccc1)c1ccc2cc(Cl)ccc2n1

>  <score_type>  (44) 
oracle

>  <origin>  (44) 
autodockgpu

>  <m_score__min__energy>  (44) 
-9.4000000000000004

>  <m_primary>  (44) 
energy

>  <rmsd>  (44) 
3.2404060861836235

>  <m_score__min__rmsd>  (44) 
3.2404060861836235

>  <meeko>  (44) 
{"free_energy": -7.87, "intermolecular_energy": -10.25, "internal_energy": -3.19, "cluster_size": 5, "cluster_id": 7, "rank_in_cluster": 4}

>  <energy>  (44) 
-7.04

>  <cluster_rmsd>  (44) 
0.72

>  <cluster>  (44) 
9

$$$$

     RDKit          3D

 59 62  0  0  0  0  0  0  0  0999 V2000
  139.0730   71.8390  220.6060 O   0  0  0  0  0  0  0  0  0  0  0  0
  139.2360   72.3450  221.7430 C   0  0  0  0  0  0  0  0  0  0  0  0
  139.2110   73.7400  222.0000 N   0  0  0  0  0  0  0  0  0  0  0  0
  138.9860   74.7030  220.9120 C   0  0  0  0  0  0  0  0  0  0  0  0
  139.7230   75.9460  221.2540 C   0  0  0  0  0  0  0  0  0  0  0  0
  140.3440   76.0180  222.3550 O   0  0  0  0  0  0  0  0  0  0  0  0
  139.7340   77.0450  220.3570 N   0  0  0  0  0  0  0  0  0  0  0  0
  139.0210   78.2890  220.6200 C   0  0  0  0  0  0  0  0  0  0  0  0
  137.9330   78.4400  219.5740 C   0  0  0  0  0  0  0  0  0  0  0  0
  138.2660   77.6500  218.3220 C   0  0  0  0  0  0  0  0  0  0  0  0
  139.7370   77.7730  218.0830 C   0  0  0  0  0  0  0  0  0  0  0  0
  140.4750   76.9660  219.1140 C   0  0  1  0  0  0  0  0  0  0  0  0
  141.8710   77.5310  219.2570 C   0  0  0  0  0  0  0  0  0  0  0  0
  142.5610   76.7380  220.2410 N   0  0  0  0  0  0  0  0  0  0  0  0
  143.7130   76.0460  219.6570 C   0  0  0  0  0  0  0  0  0  0  0  0
  143.6910   74.6210  220.0820 C   0  0  0  0  0  0  0  0  0  0  0  0
  144.9250   73.9690  220.1780 C   0  0  0  0  0  0  0  0  0  0  0  0
  144.9390   72.6500  220.5680 C   0  0  0  0  0  0  0  0  0  0  0  0
  143.7860   71.9570  220.8640 C   0  0  0  0  0  0  0  0  0  0  0  0
  142.5640   72.6100  220.7670 C   0  0  0  0  0  0  0  0  0  0  0  0
  142.5300   73.9380  220.3760 C   0  0  0  0  0  0  0  0  0  0  0  0
  139.4670   71.4590  222.8940 C   0  0  0  0  0  0  0  0  0  0  0  0
  139.0740   70.1230  222.8350 C   0  0  0  0  0  0  0  0  0  0  0  0
  139.2810   69.2610  223.9110 C   0  0  0  0  0  0  0  0  0  0  0  0
  139.8820   69.7290  225.0510 C   0  0  0  0  0  0  0  0  0  0  0  0
  140.1130   68.9150  226.1530 C   0  0  0  0  0  0  0  0  0  0  0  0
  140.7260   69.4710  227.2630 C   0  0  0  0  0  0  0  0  0  0  0  0
  141.0520   68.4950  228.7040 Cl  0  0  0  0  0  0  0  0  0  0  0  0
  141.1170   70.7890  227.3260 C   0  0  0  0  0  0  0  0  0  0  0  0
  140.8710   71.5730  226.2080 C   0  0  0  0  0  0  0  0  0  0  0  0
  140.2570   71.0560  225.0710 C   0  0  0  0  0  0  0  0  0  0  0  0
  140.0520   71.8770  224.0240 N   0  0  0  0  0  0  0  0  0  0  0  0
  139.3560   74.1050  222.9810 H   0  0  0  0  0  0  0  0  0  0  0  0
  139.3626   74.2924  219.9636 H   0  0  0  0  0  0  0  0  0  0  0  0
  137.9120   74.9101  220.7950 H   0  0  0  0  0  0  0  0  0  0  0  0
  138.5713   78.2558  221.6233 H   0  0  0  0  0  0  0  0  0  0  0  0
  139.7141   79.1420  220.5742 H   0  0  0  0  0  0  0  0  0  0  0  0
  136.9826   78.0727  219.9885 H   0  0  0  0  0  0  0  0  0  0  0  0
  137.8519   79.5035  219.3050 H   0  0  0  0  0  0  0  0  0  0  0  0
  137.9968   76.5929  218.4637 H   0  0  0  0  0  0  0  0  0  0  0  0
  137.7025   78.0384  217.4608 H   0  0  0  0  0  0  0  0  0  0  0  0
  139.9792   77.3960  217.0784 H   0  0  0  0  0  0  0  0  0  0  0  0
  140.0361   78.8290  218.1570 H   0  0  0  0  0  0  0  0  0  0  0  0
  140.5621   75.9090  218.8224 H   0  0  0  0  0  0  0  0  0  0  0  0
  142.3987   77.4762  218.2934 H   0  0  0  0  0  0  0  0  0  0  0  0
  141.8319   78.5854  219.5678 H   0  0  0  0  0  0  0  0  0  0  0  0
  142.9160   77.3430  221.0260 H   0  0  0  0  0  0  0  0  0  0  0  0
  143.6602   76.1041  218.5598 H   0  0  0  0  0  0  0  0  0  0  0  0
  144.6439   76.5209  220.0003 H   0  0  0  0  0  0  0  0  0  0  0  0
  145.8613   74.4982  219.9472 H   0  0  0  0  0  0  0  0  0  0  0  0
  145.9053   72.1302  220.6463 H   0  0  0  0  0  0  0  0  0  0  0  0
  143.8323   70.9022  221.1726 H   0  0  0  0  0  0  0  0  0  0  0  0
  141.6305   72.0764  220.9990 H   0  0  0  0  0  0  0  0  0  0  0  0
  141.5625   74.4556  220.2989 H   0  0  0  0  0  0  0  0  0  0  0  0
  138.5917   69.7418  221.9228 H   0  0  0  0  0  0  0  0  0  0  0  0
  138.9635   68.2099  223.8456 H   0  0  0  0  0  0  0  0  0  0  0  0
  139.8164   67.8558  226.1438 H   0  0  0  0  0  0  0  0  0  0  0  0
  141.6027   71.2023  228.2223 H   0  0  0  0  0  0  0  0  0  0  0  0
  141.1693   72.6317  226.2206 H   0  0  0  0  0  0  0  0  0  0  0  0
  1  2  2  0
  2  3  1  0
  3  4  1  0
  4  5  1  0
  5  6  2  0
  5  7  1  0
  7  8  1  0
  8  9  1  0
  9 10  1  0
 10 11  1  0
 11 12  1  0
 12 13  1  0
 13 14  1  0
 14 15  1  0
 15 16  1  0
 16 17  2  0
 17 18  1  0
 18 19  2  0
 19 20  1  0
 20 21  2  0
  2 22  1  0
 22 23  2  0
 23 24  1  0
 24 25  2  0
 25 26  1  0
 26 27  2  0
 27 28  1  0
 27 29  1  0
 29 30  2  0
 30 31  1  0
 31 32  2  0
 12  7  1  0
 21 16  1  0
 32 22  1  0
 31 25  1  0
  3 33  1  0
  4 34  1  0
  4 35  1  0
  8 36  1  0
  8 37  1  0
  9 38  1  0
  9 39  1  0
 10 40  1  0
 10 41  1  0
 11 42  1  0
 11 43  1  0
 12 44  1  6
 13 45  1  0
 13 46  1  0
 14 47  1  0
 15 48  1  0
 15 49  1  0
 17 50  1  0
 18 51  1  0
 19 52  1  0
 20 53  1  0
 21 54  1  0
 23 55  1  0
 24 56  1  0
 26 57  1  0
 29 58  1  0
 30 59  1  0
M  END
>  <smiles>  (45) 
O=C(NCC(=O)N1CCCC[C@H]1CNCc1ccccc1)c1ccc2cc(Cl)ccc2n1

>  <score_type>  (45) 
oracle

>  <origin>  (45) 
autodockgpu

>  <m_score__min__energy>  (45) 
-9.4000000000000004

>  <m_primary>  (45) 
energy

>  <rmsd>  (45) 
4.793904647534958

>  <m_score__min__rmsd>  (45) 
4.793904647534958

>  <meeko>  (45) 
{"free_energy": -7.74, "intermolecular_energy": -10.13, "internal_energy": -2.98, "cluster_size": 6, "cluster_id": 1, "rank_in_cluster": 6}

>  <energy>  (45) 
-7.11

>  <cluster_rmsd>  (45) 
0.0

>  <cluster>  (45) 
10

$$$$

     RDKit          3D

 59 62  0  0  0  0  0  0  0  0999 V2000
  137.7170   73.6920  220.5610 O   0  0  0  0  0  0  0  0  0  0  0  0
  137.4890   74.1510  221.7070 C   0  0  0  0  0  0  0  0  0  0  0  0
  136.7750   73.4520  222.7130 N   0  0  0  0  0  0  0  0  0  0  0  0
  136.2420   72.1050  222.4610 C   0  0  0  0  0  0  0  0  0  0  0  0
  136.6190   71.2510  223.6160 C   0  0  0  0  0  0  0  0  0  0  0  0
  135.8120   71.1210  224.5830 O   0  0  0  0  0  0  0  0  0  0  0  0
  137.8720   70.5850  223.6390 N   0  0  0  0  0  0  0  0  0  0  0  0
  139.1380   71.2720  223.4160 C   0  0  0  0  0  0  0  0  0  0  0  0
  139.7480   70.7340  222.1360 C   0  0  0  0  0  0  0  0  0  0  0  0
  139.2220   69.3460  221.8220 C   0  0  0  0  0  0  0  0  0  0  0  0
  139.0950   68.6030  223.1130 C   0  0  0  0  0  0  0  0  0  0  0  0
  137.9360   69.1590  223.8930 C   0  0  1  0  0  0  0  0  0  0  0  0
  138.1560   68.8600  225.3590 C   0  0  0  0  0  0  0  0  0  0  0  0
  139.2270   67.9010  225.4490 N   0  0  0  0  0  0  0  0  0  0  0  0
  139.9810   68.0580  226.6950 C   0  0  0  0  0  0  0  0  0  0  0  0
  140.3820   69.4820  226.8440 C   0  0  0  0  0  0  0  0  0  0  0  0
  139.9830   70.1340  228.0150 C   0  0  0  0  0  0  0  0  0  0  0  0
  140.3370   71.4530  228.1830 C   0  0  0  0  0  0  0  0  0  0  0  0
  141.0660   72.1450  227.2420 C   0  0  0  0  0  0  0  0  0  0  0  0
  141.4600   71.4930  226.0810 C   0  0  0  0  0  0  0  0  0  0  0  0
  141.1120   70.1650  225.8940 C   0  0  0  0  0  0  0  0  0  0  0  0
  137.9840   75.4940  222.0510 C   0  0  0  0  0  0  0  0  0  0  0  0
  137.0810   76.5220  222.3160 C   0  0  0  0  0  0  0  0  0  0  0  0
  137.5230   77.8020  222.6460 C   0  0  0  0  0  0  0  0  0  0  0  0
  138.8670   78.0630  222.7110 C   0  0  0  0  0  0  0  0  0  0  0  0
  139.3620   79.3200  223.0340 C   0  0  0  0  0  0  0  0  0  0  0  0
  140.7360   79.4930  223.0770 C   0  0  0  0  0  0  0  0  0  0  0  0
  141.4390   81.0670  223.4810 Cl  0  0  0  0  0  0  0  0  0  0  0  0
  141.6310   78.4810  222.8160 C   0  0  0  0  0  0  0  0  0  0  0  0
  141.1010   77.2390  222.4970 C   0  0  0  0  0  0  0  0  0  0  0  0
  139.7280   77.0200  222.4420 C   0  0  0  0  0  0  0  0  0  0  0  0
  139.2880   75.7870  222.1260 N   0  0  0  0  0  0  0  0  0  0  0  0
  136.6150   73.8940  223.6590 H   0  0  0  0  0  0  0  0  0  0  0  0
  135.1469   72.1463  222.3664 H   0  0  0  0  0  0  0  0  0  0  0  0
  136.6526   71.6951  221.5265 H   0  0  0  0  0  0  0  0  0  0  0  0
  138.9631   72.3537  223.3195 H   0  0  0  0  0  0  0  0  0  0  0  0
  139.8184   71.1009  224.2632 H   0  0  0  0  0  0  0  0  0  0  0  0
  139.4957   71.4102  221.3058 H   0  0  0  0  0  0  0  0  0  0  0  0
  140.8385   70.6732  222.2671 H   0  0  0  0  0  0  0  0  0  0  0  0
  138.2388   69.4198  221.3344 H   0  0  0  0  0  0  0  0  0  0  0  0
  139.9077   68.8199  221.1416 H   0  0  0  0  0  0  0  0  0  0  0  0
  138.9221   67.5362  222.9078 H   0  0  0  0  0  0  0  0  0  0  0  0
  140.0206   68.7161  223.6965 H   0  0  0  0  0  0  0  0  0  0  0  0
  136.9812   68.7035  223.5914 H   0  0  0  0  0  0  0  0  0  0  0  0
  138.4310   69.7814  225.8931 H   0  0  0  0  0  0  0  0  0  0  0  0
  137.2383   68.4600  225.8149 H   0  0  0  0  0  0  0  0  0  0  0  0
  138.8500   66.9170  225.4260 H   0  0  0  0  0  0  0  0  0  0  0  0
  139.3512   67.7615  227.5467 H   0  0  0  0  0  0  0  0  0  0  0  0
  140.8774   67.4210  226.6689 H   0  0  0  0  0  0  0  0  0  0  0  0
  139.4001   69.6051  228.7834 H   0  0  0  0  0  0  0  0  0  0  0  0
  140.0267   71.9729  229.1014 H   0  0  0  0  0  0  0  0  0  0  0  0
  141.3325   73.1993  227.4076 H   0  0  0  0  0  0  0  0  0  0  0  0
  142.0435   72.0264  225.3162 H   0  0  0  0  0  0  0  0  0  0  0  0
  141.4226   69.6478  224.9742 H   0  0  0  0  0  0  0  0  0  0  0  0
  136.0010   76.3197  222.2638 H   0  0  0  0  0  0  0  0  0  0  0  0
  136.7954   78.6004  222.8537 H   0  0  0  0  0  0  0  0  0  0  0  0
  138.6809   80.1563  223.2500 H   0  0  0  0  0  0  0  0  0  0  0  0
  142.7173   78.6490  222.8583 H   0  0  0  0  0  0  0  0  0  0  0  0
  141.7849   76.4048  222.2817 H   0  0  0  0  0  0  0  0  0  0  0  0
  1  2  2  0
  2  3  1  0
  3  4  1  0
  4  5  1  0
  5  6  2  0
  5  7  1  0
  7  8  1  0
  8  9  1  0
  9 10  1  0
 10 11  1  0
 11 12  1  0
 12 13  1  0
 13 14  1  0
 14 15  1  0
 15 16  1  0
 16 17  2  0
 17 18  1  0
 18 19  2  0
 19 20  1  0
 20 21  2  0
  2 22  1  0
 22 23  2  0
 23 24  1  0
 24 25  2  0
 25 26  1  0
 26 27  2  0
 27 28  1  0
 27 29  1  0
 29 30  2  0
 30 31  1  0
 31 32  2  0
 12  7  1  0
 21 16  1  0
 32 22  1  0
 31 25  1  0
  3 33  1  0
  4 34  1  0
  4 35  1  0
  8 36  1  0
  8 37  1  0
  9 38  1  0
  9 39  1  0
 10 40  1  0
 10 41  1  0
 11 42  1  0
 11 43  1  0
 12 44  1  6
 13 45  1  0
 13 46  1  0
 14 47  1  0
 15 48  1  0
 15 49  1  0
 17 50  1  0
 18 51  1  0
 19 52  1  0
 20 53  1  0
 21 54  1  0
 23 55  1  0
 24 56  1  0
 26 57  1  0
 29 58  1  0
 30 59  1  0
M  END
>  <smiles>  (46) 
O=C(NCC(=O)N1CCCC[C@H]1CNCc1ccccc1)c1ccc2cc(Cl)ccc2n1

>  <score_type>  (46) 
oracle

>  <origin>  (46) 
autodockgpu

>  <m_score__min__energy>  (46) 
-9.4000000000000004

>  <m_primary>  (46) 
energy

>  <rmsd>  (46) 
9.24856943515144

>  <m_score__min__rmsd>  (46) 
9.24856943515144

>  <meeko>  (46) 
{"free_energy": -8.93, "intermolecular_energy": -11.32, "internal_energy": -2.15, "cluster_size": 11, "cluster_id": 3, "rank_in_cluster": 2}

>  <energy>  (46) 
-6.97

>  <cluster_rmsd>  (46) 
0.0

>  <cluster>  (46) 
11

$$$$

     RDKit          3D

 59 62  0  0  0  0  0  0  0  0999 V2000
  141.3630   72.7240  220.9430 O   0  0  0  0  0  0  0  0  0  0  0  0
  140.6110   73.5370  221.5330 C   0  0  0  0  0  0  0  0  0  0  0  0
  139.4600   73.1600  222.2710 N   0  0  0  0  0  0  0  0  0  0  0  0
  139.0690   71.7470  222.3890 C   0  0  0  0  0  0  0  0  0  0  0  0
  137.6530   71.7090  222.8330 C   0  0  0  0  0  0  0  0  0  0  0  0
  136.9390   72.7500  222.7250 O   0  0  0  0  0  0  0  0  0  0  0  0
  137.1010   70.5190  223.3720 N   0  0  0  0  0  0  0  0  0  0  0  0
  136.0060   69.7950  222.7370 C   0  0  0  0  0  0  0  0  0  0  0  0
  134.8040   69.8520  223.6590 C   0  0  0  0  0  0  0  0  0  0  0  0
  135.2290   70.0890  225.0960 C   0  0  0  0  0  0  0  0  0  0  0  0
  136.4820   69.3100  225.3360 C   0  0  0  0  0  0  0  0  0  0  0  0
  137.6210   69.9670  224.6070 C   0  0  1  0  0  0  0  0  0  0  0  0
  138.6900   68.9280  224.3510 C   0  0  0  0  0  0  0  0  0  0  0  0
  138.8790   68.1910  225.5740 N   0  0  0  0  0  0  0  0  0  0  0  0
  140.2650   68.2830  226.0430 C   0  0  0  0  0  0  0  0  0  0  0  0
  140.4980   69.6380  226.6070 C   0  0  0  0  0  0  0  0  0  0  0  0
  141.1970   70.5480  225.8070 C   0  0  0  0  0  0  0  0  0  0  0  0
  141.4300   71.8100  226.3010 C   0  0  0  0  0  0  0  0  0  0  0  0
  141.0010   72.2040  227.5480 C   0  0  0  0  0  0  0  0  0  0  0  0
  140.3070   71.2970  228.3390 C   0  0  0  0  0  0  0  0  0  0  0  0
  140.0630   70.0210  227.8590 C   0  0  0  0  0  0  0  0  0  0  0  0
  140.9230   74.9740  221.4720 C   0  0  0  0  0  0  0  0  0  0  0  0
  141.8480   75.4470  220.5440 C   0  0  0  0  0  0  0  0  0  0  0  0
  142.1610   76.8030  220.4640 C   0  0  0  0  0  0  0  0  0  0  0  0
  141.5530   77.6930  221.3100 C   0  0  0  0  0  0  0  0  0  0  0  0
  141.8280   79.0540  221.2750 C   0  0  0  0  0  0  0  0  0  0  0  0
  141.1660   79.8810  222.1680 C   0  0  0  0  0  0  0  0  0  0  0  0
  141.4650   81.6260  222.1810 Cl  0  0  0  0  0  0  0  0  0  0  0  0
  140.2520   79.4180  223.0870 C   0  0  0  0  0  0  0  0  0  0  0  0
  140.0020   78.0540  223.0930 C   0  0  0  0  0  0  0  0  0  0  0  0
  140.6430   77.1860  222.2150 C   0  0  0  0  0  0  0  0  0  0  0  0
  140.3490   75.8740  222.2810 N   0  0  0  0  0  0  0  0  0  0  0  0
  138.8660   73.8940  222.7460 H   0  0  0  0  0  0  0  0  0  0  0  0
  139.1701   71.2471  221.4144 H   0  0  0  0  0  0  0  0  0  0  0  0
  139.7147   71.2264  223.1116 H   0  0  0  0  0  0  0  0  0  0  0  0
  135.7588   70.2640  221.7732 H   0  0  0  0  0  0  0  0  0  0  0  0
  136.2963   68.7498  222.5548 H   0  0  0  0  0  0  0  0  0  0  0  0
  134.1446   70.6724  223.3394 H   0  0  0  0  0  0  0  0  0  0  0  0
  134.2761   68.8884  223.6050 H   0  0  0  0  0  0  0  0  0  0  0  0
  135.4175   71.1604  225.2587 H   0  0  0  0  0  0  0  0  0  0  0  0
  134.4376   69.7671  225.7889 H   0  0  0  0  0  0  0  0  0  0  0  0
  136.6999   69.2869  226.4140 H   0  0  0  0  0  0  0  0  0  0  0  0
  136.3531   68.2812  224.9687 H   0  0  0  0  0  0  0  0  0  0  0  0
  138.0699   70.7812  225.1949 H   0  0  0  0  0  0  0  0  0  0  0  0
  138.3682   68.2479  223.5485 H   0  0  0  0  0  0  0  0  0  0  0  0
  139.6294   69.4074  224.0384 H   0  0  0  0  0  0  0  0  0  0  0  0
  138.2590   68.5680  226.3370 H   0  0  0  0  0  0  0  0  0  0  0  0
  140.4421   67.5250  226.8202 H   0  0  0  0  0  0  0  0  0  0  0  0
  140.9531   68.1076  225.2029 H   0  0  0  0  0  0  0  0  0  0  0  0
  141.5520   70.2608  224.8062 H   0  0  0  0  0  0  0  0  0  0  0  0
  141.9790   72.5306  225.6770 H   0  0  0  0  0  0  0  0  0  0  0  0
  141.2046   73.2216  227.9128 H   0  0  0  0  0  0  0  0  0  0  0  0
  139.9540   71.5900  229.3388 H   0  0  0  0  0  0  0  0  0  0  0  0
  139.5142   69.3022  228.4853 H   0  0  0  0  0  0  0  0  0  0  0  0
  142.3402   74.7378  219.8622 H   0  0  0  0  0  0  0  0  0  0  0  0
  142.8937   77.1574  219.7241 H   0  0  0  0  0  0  0  0  0  0  0  0
  142.5528   79.4648  220.5567 H   0  0  0  0  0  0  0  0  0  0  0  0
  139.7430   80.0990  223.7850 H   0  0  0  0  0  0  0  0  0  0  0  0
  139.2763   77.6469  223.8124 H   0  0  0  0  0  0  0  0  0  0  0  0
  1  2  2  0
  2  3  1  0
  3  4  1  0
  4  5  1  0
  5  6  2  0
  5  7  1  0
  7  8  1  0
  8  9  1  0
  9 10  1  0
 10 11  1  0
 11 12  1  0
 12 13  1  0
 13 14  1  0
 14 15  1  0
 15 16  1  0
 16 17  2  0
 17 18  1  0
 18 19  2  0
 19 20  1  0
 20 21  2  0
  2 22  1  0
 22 23  2  0
 23 24  1  0
 24 25  2  0
 25 26  1  0
 26 27  2  0
 27 28  1  0
 27 29  1  0
 29 30  2  0
 30 31  1  0
 31 32  2  0
 12  7  1  0
 21 16  1  0
 32 22  1  0
 31 25  1  0
  3 33  1  0
  4 34  1  0
  4 35  1  0
  8 36  1  0
  8 37  1  0
  9 38  1  0
  9 39  1  0
 10 40  1  0
 10 41  1  0
 11 42  1  0
 11 43  1  0
 12 44  1  1
 13 45  1  0
 13 46  1  0
 14 47  1  0
 15 48  1  0
 15 49  1  0
 17 50  1  0
 18 51  1  0
 19 52  1  0
 20 53  1  0
 21 54  1  0
 23 55  1  0
 24 56  1  0
 26 57  1  0
 29 58  1  0
 30 59  1  0
M  END
>  <smiles>  (47) 
O=C(NCC(=O)N1CCCC[C@H]1CNCc1ccccc1)c1ccc2cc(Cl)ccc2n1

>  <score_type>  (47) 
oracle

>  <origin>  (47) 
autodockgpu

>  <m_score__min__energy>  (47) 
-9.4000000000000004

>  <m_primary>  (47) 
energy

>  <rmsd>  (47) 
9.674328385869222

>  <m_score__min__rmsd>  (47) 
9.674328385869222

>  <meeko>  (47) 
{"free_energy": -8.86, "intermolecular_energy": -11.24, "internal_energy": -2.5, "cluster_size": 11, "cluster_id": 3, "rank_in_cluster": 5}

>  <energy>  (47) 
-6.3

>  <cluster_rmsd>  (47) 
0.0

>  <cluster>  (47) 
12

$$$$

     RDKit          3D

 59 62  0  0  0  0  0  0  0  0999 V2000
  139.9980   72.6070  220.5370 O   0  0  0  0  0  0  0  0  0  0  0  0
  139.8630   73.0000  221.7210 C   0  0  0  0  0  0  0  0  0  0  0  0
  139.6800   74.3570  222.0900 N   0  0  0  0  0  0  0  0  0  0  0  0
  139.6390   75.4170  221.0710 C   0  0  0  0  0  0  0  0  0  0  0  0
  139.8780   76.7100  221.7590 C   0  0  0  0  0  0  0  0  0  0  0  0
  139.5310   76.8450  222.9700 O   0  0  0  0  0  0  0  0  0  0  0  0
  140.4920   77.7880  221.0700 N   0  0  0  0  0  0  0  0  0  0  0  0
  141.1580   78.8900  221.7550 C   0  0  0  0  0  0  0  0  0  0  0  0
  140.3830   80.1610  221.4670 C   0  0  0  0  0  0  0  0  0  0  0  0
  139.5840   80.0350  220.1830 C   0  0  0  0  0  0  0  0  0  0  0  0
  140.4150   79.2730  219.2020 C   0  0  0  0  0  0  0  0  0  0  0  0
  140.4780   77.8300  219.6210 C   0  0  1  0  0  0  0  0  0  0  0  0
  141.7260   77.2130  219.0300 C   0  0  0  0  0  0  0  0  0  0  0  0
  142.4130   76.5250  220.0920 N   0  0  0  0  0  0  0  0  0  0  0  0
  143.7380   76.0660  219.6630 C   0  0  0  0  0  0  0  0  0  0  0  0
  143.9250   74.6550  220.0900 C   0  0  0  0  0  0  0  0  0  0  0  0
  142.8110   73.8140  220.0100 C   0  0  0  0  0  0  0  0  0  0  0  0
  142.9510   72.5020  220.4000 C   0  0  0  0  0  0  0  0  0  0  0  0
  144.1450   71.9950  220.8620 C   0  0  0  0  0  0  0  0  0  0  0  0
  145.2490   72.8340  220.9390 C   0  0  0  0  0  0  0  0  0  0  0  0
  145.1260   74.1580  220.5520 C   0  0  0  0  0  0  0  0  0  0  0  0
  139.8900   72.0110  222.8100 C   0  0  0  0  0  0  0  0  0  0  0  0
  139.3350   70.7480  222.6170 C   0  0  0  0  0  0  0  0  0  0  0  0
  139.3480   69.7910  223.6320 C   0  0  0  0  0  0  0  0  0  0  0  0
  139.9160   70.0920  224.8430 C   0  0  0  0  0  0  0  0  0  0  0  0
  139.9560   69.1780  225.8880 C   0  0  0  0  0  0  0  0  0  0  0  0
  140.5490   69.5670  227.0780 C   0  0  0  0  0  0  0  0  0  0  0  0
  140.6370   68.4560  228.4530 Cl  0  0  0  0  0  0  0  0  0  0  0  0
  141.0980   70.8130  227.2730 C   0  0  0  0  0  0  0  0  0  0  0  0
  141.0410   71.7000  226.2070 C   0  0  0  0  0  0  0  0  0  0  0  0
  140.4540   71.3530  224.9950 C   0  0  0  0  0  0  0  0  0  0  0  0
  140.4360   72.2660  224.0060 N   0  0  0  0  0  0  0  0  0  0  0  0
  139.5730   74.6250  223.1070 H   0  0  0  0  0  0  0  0  0  0  0  0
  140.4209   75.2431  220.3171 H   0  0  0  0  0  0  0  0  0  0  0  0
  138.6645   75.4251  220.5608 H   0  0  0  0  0  0  0  0  0  0  0  0
  141.1739   78.7004  222.8384 H   0  0  0  0  0  0  0  0  0  0  0  0
  142.1950   78.9876  221.4012 H   0  0  0  0  0  0  0  0  0  0  0  0
  139.6936   80.3582  222.3012 H   0  0  0  0  0  0  0  0  0  0  0  0
  141.0989   80.9883  221.3531 H   0  0  0  0  0  0  0  0  0  0  0  0
  138.6454   79.4953  220.3775 H   0  0  0  0  0  0  0  0  0  0  0  0
  139.3353   81.0301  219.7855 H   0  0  0  0  0  0  0  0  0  0  0  0
  139.9627   79.3461  218.2020 H   0  0  0  0  0  0  0  0  0  0  0  0
  141.4310   79.6937  219.1736 H   0  0  0  0  0  0  0  0  0  0  0  0
  139.6105   77.2583  219.2598 H   0  0  0  0  0  0  0  0  0  0  0  0
  141.4537   76.5018  218.2362 H   0  0  0  0  0  0  0  0  0  0  0  0
  142.3705   77.9882  218.5899 H   0  0  0  0  0  0  0  0  0  0  0  0
  142.5500   77.1590  220.9220 H   0  0  0  0  0  0  0  0  0  0  0  0
  143.8142   76.1327  218.5677 H   0  0  0  0  0  0  0  0  0  0  0  0
  144.5148   76.6975  220.1190 H   0  0  0  0  0  0  0  0  0  0  0  0
  141.8452   74.1924  219.6438 H   0  0  0  0  0  0  0  0  0  0  0  0
  142.0785   71.8347  220.3406 H   0  0  0  0  0  0  0  0  0  0  0  0
  144.2232   70.9407  221.1657 H   0  0  0  0  0  0  0  0  0  0  0  0
  146.2130   72.4502  221.3043 H   0  0  0  0  0  0  0  0  0  0  0  0
  145.9996   74.8236  220.6140 H   0  0  0  0  0  0  0  0  0  0  0  0
  138.8785   70.5009  221.6472 H   0  0  0  0  0  0  0  0  0  0  0  0
  138.9044   68.7990  223.4614 H   0  0  0  0  0  0  0  0  0  0  0  0
  139.5278   68.1712  225.7737 H   0  0  0  0  0  0  0  0  0  0  0  0
  141.5612   71.0937  228.2304 H   0  0  0  0  0  0  0  0  0  0  0  0
  141.4720   72.7052  226.3241 H   0  0  0  0  0  0  0  0  0  0  0  0
  1  2  2  0
  2  3  1  0
  3  4  1  0
  4  5  1  0
  5  6  2  0
  5  7  1  0
  7  8  1  0
  8  9  1  0
  9 10  1  0
 10 11  1  0
 11 12  1  0
 12 13  1  0
 13 14  1  0
 14 15  1  0
 15 16  1  0
 16 17  2  0
 17 18  1  0
 18 19  2  0
 19 20  1  0
 20 21  2  0
  2 22  1  0
 22 23  2  0
 23 24  1  0
 24 25  2  0
 25 26  1  0
 26 27  2  0
 27 28  1  0
 27 29  1  0
 29 30  2  0
 30 31  1  0
 31 32  2  0
 12  7  1  0
 21 16  1  0
 32 22  1  0
 31 25  1  0
  3 33  1  0
  4 34  1  0
  4 35  1  0
  8 36  1  0
  8 37  1  0
  9 38  1  0
  9 39  1  0
 10 40  1  0
 10 41  1  0
 11 42  1  0
 11 43  1  0
 12 44  1  6
 13 45  1  0
 13 46  1  0
 14 47  1  0
 15 48  1  0
 15 49  1  0
 17 50  1  0
 18 51  1  0
 19 52  1  0
 20 53  1  0
 21 54  1  0
 23 55  1  0
 24 56  1  0
 26 57  1  0
 29 58  1  0
 30 59  1  0
M  END
>  <smiles>  (48) 
O=C(NCC(=O)N1CCCC[C@H]1CNCc1ccccc1)c1ccc2cc(Cl)ccc2n1

>  <score_type>  (48) 
oracle

>  <origin>  (48) 
autodockgpu

>  <m_score__min__energy>  (48) 
-9.4000000000000004

>  <m_primary>  (48) 
energy

>  <rmsd>  (48) 
5.1171989556465975

>  <m_score__min__rmsd>  (48) 
5.1171989556465975

>  <meeko>  (48) 
{"free_energy": -8.36, "intermolecular_energy": -10.75, "internal_energy": -2.85, "cluster_size": 6, "cluster_id": 1, "rank_in_cluster": 3}

>  <energy>  (48) 
-6.22

>  <cluster_rmsd>  (48) 
0.0

>  <cluster>  (48) 
13

$$$$

     RDKit          3D

 59 62  0  0  0  0  0  0  0  0999 V2000
  140.4540   74.1460  222.1790 O   0  0  0  0  0  0  0  0  0  0  0  0
  140.3240   72.9280  221.9060 C   0  0  0  0  0  0  0  0  0  0  0  0
  140.2570   72.4160  220.5850 N   0  0  0  0  0  0  0  0  0  0  0  0
  140.3380   73.3120  219.4230 C   0  0  0  0  0  0  0  0  0  0  0  0
  141.5780   72.9740  218.6800 C   0  0  0  0  0  0  0  0  0  0  0  0
  141.5990   71.9480  217.9380 O   0  0  0  0  0  0  0  0  0  0  0  0
  142.7320   73.7920  218.7970 N   0  0  0  0  0  0  0  0  0  0  0  0
  143.7850   73.8250  217.7890 C   0  0  0  0  0  0  0  0  0  0  0  0
  145.0540   73.2820  218.4160 C   0  0  0  0  0  0  0  0  0  0  0  0
  145.0230   73.4250  219.9260 C   0  0  0  0  0  0  0  0  0  0  0  0
  144.3780   74.7350  220.2460 C   0  0  0  0  0  0  0  0  0  0  0  0
  142.9060   74.6460  219.9550 C   0  0  1  0  0  0  0  0  0  0  0  0
  142.3820   76.0430  219.7050 C   0  0  0  0  0  0  0  0  0  0  0  0
  141.5410   76.3950  220.8200 N   0  0  0  0  0  0  0  0  0  0  0  0
  140.9900   77.7450  220.6680 C   0  0  0  0  0  0  0  0  0  0  0  0
  141.4710   78.5950  221.7890 C   0  0  0  0  0  0  0  0  0  0  0  0
  142.0670   79.8140  221.4500 C   0  0  0  0  0  0  0  0  0  0  0  0
  142.5240   80.6240  222.4640 C   0  0  0  0  0  0  0  0  0  0  0  0
  142.4140   80.2750  223.7910 C   0  0  0  0  0  0  0  0  0  0  0  0
  141.8220   79.0630  224.1220 C   0  0  0  0  0  0  0  0  0  0  0  0
  141.3560   78.2350  223.1150 C   0  0  0  0  0  0  0  0  0  0  0  0
  140.2360   71.9540  223.0050 C   0  0  0  0  0  0  0  0  0  0  0  0
  139.6610   70.7040  222.7820 C   0  0  0  0  0  0  0  0  0  0  0  0
  139.5650   69.7620  223.8050 C   0  0  0  0  0  0  0  0  0  0  0  0
  140.0420   70.0630  225.0550 C   0  0  0  0  0  0  0  0  0  0  0  0
  139.9720   69.1630  226.1100 C   0  0  0  0  0  0  0  0  0  0  0  0
  140.4790   69.5510  227.3390 C   0  0  0  0  0  0  0  0  0  0  0  0
  140.4250   68.4570  228.7300 Cl  0  0  0  0  0  0  0  0  0  0  0  0
  141.0480   70.7840  227.5630 C   0  0  0  0  0  0  0  0  0  0  0  0
  141.1020   71.6570  226.4860 C   0  0  0  0  0  0  0  0  0  0  0  0
  140.6040   71.3100  225.2350 C   0  0  0  0  0  0  0  0  0  0  0  0
  140.6910   72.2100  224.2380 N   0  0  0  0  0  0  0  0  0  0  0  0
  140.1470   71.3770  220.4200 H   0  0  0  0  0  0  0  0  0  0  0  0
  139.4611   73.1660  218.7751 H   0  0  0  0  0  0  0  0  0  0  0  0
  140.3564   74.3631  219.7467 H   0  0  0  0  0  0  0  0  0  0  0  0
  143.4978   73.2020  216.9292 H   0  0  0  0  0  0  0  0  0  0  0  0
  143.9441   74.8551  217.4375 H   0  0  0  0  0  0  0  0  0  0  0  0
  145.1548   72.2174  218.1582 H   0  0  0  0  0  0  0  0  0  0  0  0
  145.9081   73.8568  218.0286 H   0  0  0  0  0  0  0  0  0  0  0  0
  144.4409   72.6030  220.3682 H   0  0  0  0  0  0  0  0  0  0  0  0
  146.0425   73.3872  220.3373 H   0  0  0  0  0  0  0  0  0  0  0  0
  144.5291   74.9691  221.3101 H   0  0  0  0  0  0  0  0  0  0  0  0
  144.8286   75.5284  219.6316 H   0  0  0  0  0  0  0  0  0  0  0  0
  142.3451   74.2158  220.7978 H   0  0  0  0  0  0  0  0  0  0  0  0
  143.2206   76.7508  219.6287 H   0  0  0  0  0  0  0  0  0  0  0  0
  141.8142   76.0815  218.7637 H   0  0  0  0  0  0  0  0  0  0  0  0
  140.7310   75.7280  220.9030 H   0  0  0  0  0  0  0  0  0  0  0  0
  141.3234   78.1735  219.7113 H   0  0  0  0  0  0  0  0  0  0  0  0
  139.8910   77.7007  220.6812 H   0  0  0  0  0  0  0  0  0  0  0  0
  142.1680   80.1180  220.3977 H   0  0  0  0  0  0  0  0  0  0  0  0
  142.9938   81.5843  222.2051 H   0  0  0  0  0  0  0  0  0  0  0  0
  142.7894   80.9461  224.5776 H   0  0  0  0  0  0  0  0  0  0  0  0
  141.7242   78.7633  225.1759 H   0  0  0  0  0  0  0  0  0  0  0  0
  140.8868   77.2752  223.3768 H   0  0  0  0  0  0  0  0  0  0  0  0
  139.2764   70.4566  221.7816 H   0  0  0  0  0  0  0  0  0  0  0  0
  139.1082   68.7805  223.6103 H   0  0  0  0  0  0  0  0  0  0  0  0
  139.5252   68.1672  225.9731 H   0  0  0  0  0  0  0  0  0  0  0  0
  141.4420   71.0646  228.5509 H   0  0  0  0  0  0  0  0  0  0  0  0
  141.5513   72.6513  226.6257 H   0  0  0  0  0  0  0  0  0  0  0  0
  1  2  2  0
  2  3  1  0
  3  4  1  0
  4  5  1  0
  5  6  2  0
  5  7  1  0
  7  8  1  0
  8  9  1  0
  9 10  1  0
 10 11  1  0
 11 12  1  0
 12 13  1  0
 13 14  1  0
 14 15  1  0
 15 16  1  0
 16 17  2  0
 17 18  1  0
 18 19  2  0
 19 20  1  0
 20 21  2  0
  2 22  1  0
 22 23  2  0
 23 24  1  0
 24 25  2  0
 25 26  1  0
 26 27  2  0
 27 28  1  0
 27 29  1  0
 29 30  2  0
 30 31  1  0
 31 32  2  0
 12  7  1  0
 21 16  1  0
 32 22  1  0
 31 25  1  0
  3 33  1  0
  4 34  1  0
  4 35  1  0
  8 36  1  0
  8 37  1  0
  9 38  1  0
  9 39  1  0
 10 40  1  0
 10 41  1  0
 11 42  1  0
 11 43  1  0
 12 44  1  1
 13 45  1  0
 13 46  1  0
 14 47  1  0
 15 48  1  0
 15 49  1  0
 17 50  1  0
 18 51  1  0
 19 52  1  0
 20 53  1  0
 21 54  1  0
 23 55  1  0
 24 56  1  0
 26 57  1  0
 29 58  1  0
 30 59  1  0
M  END
>  <smiles>  (49) 
O=C(NCC(=O)N1CCCC[C@H]1CNCc1ccccc1)c1ccc2cc(Cl)ccc2n1

>  <score_type>  (49) 
oracle

>  <origin>  (49) 
autodockgpu

>  <m_score__min__energy>  (49) 
-9.4000000000000004

>  <m_primary>  (49) 
energy

>  <rmsd>  (49) 
3.5941922766154044

>  <m_score__min__rmsd>  (49) 
3.5941922766154044

>  <meeko>  (49) 
{"free_energy": -8.78, "intermolecular_energy": -11.17, "internal_energy": -2.4, "cluster_size": 7, "cluster_id": 4, "rank_in_cluster": 3}

>  <energy>  (49) 
-6.14

>  <cluster_rmsd>  (49) 
0.0

>  <cluster>  (49) 
14

$$$$

     RDKit          3D

 59 62  0  0  0  0  0  0  0  0999 V2000
  136.6830   75.2120  221.3730 O   0  0  0  0  0  0  0  0  0  0  0  0
  137.7650   74.9050  221.9320 C   0  0  0  0  0  0  0  0  0  0  0  0
  138.1110   73.5850  222.3170 N   0  0  0  0  0  0  0  0  0  0  0  0
  137.1920   72.4630  222.0760 C   0  0  0  0  0  0  0  0  0  0  0  0
  137.9260   71.2090  222.3780 C   0  0  0  0  0  0  0  0  0  0  0  0
  139.1510   71.1150  222.0680 O   0  0  0  0  0  0  0  0  0  0  0  0
  137.2660   70.1240  223.0100 N   0  0  0  0  0  0  0  0  0  0  0  0
  136.1880   69.3740  222.3740 C   0  0  0  0  0  0  0  0  0  0  0  0
  134.9190   69.6050  223.1730 C   0  0  0  0  0  0  0  0  0  0  0  0
  135.2380   70.0040  224.6010 C   0  0  0  0  0  0  0  0  0  0  0  0
  136.4210   69.2050  225.0450 C   0  0  0  0  0  0  0  0  0  0  0  0
  137.6510   69.7110  224.3450 C   0  0  1  0  0  0  0  0  0  0  0  0
  138.6770   68.6000  224.3140 C   0  0  0  0  0  0  0  0  0  0  0  0
  138.8440   68.1280  225.6650 N   0  0  0  0  0  0  0  0  0  0  0  0
  140.2420   68.2190  226.0930 C   0  0  0  0  0  0  0  0  0  0  0  0
  140.5110   69.5960  226.5860 C   0  0  0  0  0  0  0  0  0  0  0  0
  140.0340   69.9180  227.8610 C   0  0  0  0  0  0  0  0  0  0  0  0
  140.2650   71.1850  228.3450 C   0  0  0  0  0  0  0  0  0  0  0  0
  140.9450   72.1380  227.6210 C   0  0  0  0  0  0  0  0  0  0  0  0
  141.4160   71.8130  226.3550 C   0  0  0  0  0  0  0  0  0  0  0  0
  141.1930   70.5430  225.8500 C   0  0  0  0  0  0  0  0  0  0  0  0
  138.7490   75.9620  222.2130 C   0  0  0  0  0  0  0  0  0  0  0  0
  140.1020   75.7360  221.9690 C   0  0  0  0  0  0  0  0  0  0  0  0
  141.0560   76.7200  222.2250 C   0  0  0  0  0  0  0  0  0  0  0  0
  140.6640   77.9340  222.7260 C   0  0  0  0  0  0  0  0  0  0  0  0
  141.5710   78.9490  223.0010 C   0  0  0  0  0  0  0  0  0  0  0  0
  141.0860   80.1440  223.5060 C   0  0  0  0  0  0  0  0  0  0  0  0
  142.1820   81.4830  223.8790 Cl  0  0  0  0  0  0  0  0  0  0  0  0
  139.7500   80.3720  223.7490 C   0  0  0  0  0  0  0  0  0  0  0  0
  138.8730   79.3360  223.4620 C   0  0  0  0  0  0  0  0  0  0  0  0
  139.3160   78.1190  222.9550 C   0  0  0  0  0  0  0  0  0  0  0  0
  138.4060   77.1610  222.7010 N   0  0  0  0  0  0  0  0  0  0  0  0
  139.0390   73.3910  222.7840 H   0  0  0  0  0  0  0  0  0  0  0  0
  136.3132   72.5504  222.7318 H   0  0  0  0  0  0  0  0  0  0  0  0
  136.8446   72.4655  221.0323 H   0  0  0  0  0  0  0  0  0  0  0  0
  136.0477   69.7257  221.3412 H   0  0  0  0  0  0  0  0  0  0  0  0
  136.4328   68.3019  222.3483 H   0  0  0  0  0  0  0  0  0  0  0  0
  134.3361   70.4075  222.6974 H   0  0  0  0  0  0  0  0  0  0  0  0
  134.3429   68.6681  223.1924 H   0  0  0  0  0  0  0  0  0  0  0  0
  135.4733   71.0776  224.6459 H   0  0  0  0  0  0  0  0  0  0  0  0
  134.3757   69.8104  225.2559 H   0  0  0  0  0  0  0  0  0  0  0  0
  136.5478   69.3091  226.1327 H   0  0  0  0  0  0  0  0  0  0  0  0
  136.2647   68.1448  224.7968 H   0  0  0  0  0  0  0  0  0  0  0  0
  138.0952   70.5719  224.8660 H   0  0  0  0  0  0  0  0  0  0  0  0
  138.3241   67.7805  223.6706 H   0  0  0  0  0  0  0  0  0  0  0  0
  139.6326   68.9658  223.9101 H   0  0  0  0  0  0  0  0  0  0  0  0
  138.2670   68.7010  226.3350 H   0  0  0  0  0  0  0  0  0  0  0  0
  140.4279   67.4957  226.9006 H   0  0  0  0  0  0  0  0  0  0  0  0
  140.9049   67.9928  225.2448 H   0  0  0  0  0  0  0  0  0  0  0  0
  139.4875   69.1763  228.4620 H   0  0  0  0  0  0  0  0  0  0  0  0
  139.8928   71.4458  229.3467 H   0  0  0  0  0  0  0  0  0  0  0  0
  141.1130   73.1417  228.0385 H   0  0  0  0  0  0  0  0  0  0  0  0
  141.9618   72.5587  225.7584 H   0  0  0  0  0  0  0  0  0  0  0  0
  141.5650   70.2854  224.8474 H   0  0  0  0  0  0  0  0  0  0  0  0
  140.4233   74.7637  221.5671 H   0  0  0  0  0  0  0  0  0  0  0  0
  142.1196   76.5227  222.0256 H   0  0  0  0  0  0  0  0  0  0  0  0
  142.6471   78.8075  222.8223 H   0  0  0  0  0  0  0  0  0  0  0  0
  139.3943   81.3316  224.1522 H   0  0  0  0  0  0  0  0  0  0  0  0
  137.7973   79.4812  223.6404 H   0  0  0  0  0  0  0  0  0  0  0  0
  1  2  2  0
  2  3  1  0
  3  4  1  0
  4  5  1  0
  5  6  2  0
  5  7  1  0
  7  8  1  0
  8  9  1  0
  9 10  1  0
 10 11  1  0
 11 12  1  0
 12 13  1  0
 13 14  1  0
 14 15  1  0
 15 16  1  0
 16 17  2  0
 17 18  1  0
 18 19  2  0
 19 20  1  0
 20 21  2  0
  2 22  1  0
 22 23  2  0
 23 24  1  0
 24 25  2  0
 25 26  1  0
 26 27  2  0
 27 28  1  0
 27 29  1  0
 29 30  2  0
 30 31  1  0
 31 32  2  0
 12  7  1  0
 21 16  1  0
 32 22  1  0
 31 25  1  0
  3 33  1  0
  4 34  1  0
  4 35  1  0
  8 36  1  0
  8 37  1  0
  9 38  1  0
  9 39  1  0
 10 40  1  0
 10 41  1  0
 11 42  1  0
 11 43  1  0
 12 44  1  1
 13 45  1  0
 13 46  1  0
 14 47  1  0
 15 48  1  0
 15 49  1  0
 17 50  1  0
 18 51  1  0
 19 52  1  0
 20 53  1  0
 21 54  1  0
 23 55  1  0
 24 56  1  0
 26 57  1  0
 29 58  1  0
 30 59  1  0
M  END
>  <smiles>  (50) 
O=C(NCC(=O)N1CCCC[C@H]1CNCc1ccccc1)c1ccc2cc(Cl)ccc2n1

>  <score_type>  (50) 
oracle

>  <origin>  (50) 
autodockgpu

>  <m_score__min__energy>  (50) 
-9.4000000000000004

>  <m_primary>  (50) 
energy

>  <rmsd>  (50) 
9.514198844786344

>  <m_score__min__rmsd>  (50) 
9.514198844786344

>  <meeko>  (50) 
{"free_energy": -8.93, "intermolecular_energy": -11.31, "internal_energy": -1.97, "cluster_size": 11, "cluster_id": 3, "rank_in_cluster": 3}

>  <energy>  (50) 
-5.86

>  <cluster_rmsd>  (50) 
0.0

>  <cluster>  (50) 
15

$$$$
