
     RDKit          3D

 54 58  0  0  0  0  0  0  0  0999 V2000
  138.8830   67.3740  224.0580 O   0  0  0  0  0  0  0  0  0  0  0  0
  139.0940   68.6060  224.0040 C   0  0  0  0  0  0  0  0  0  0  0  0
  138.6550   69.3330  222.7780 C   0  0  0  0  0  0  0  0  0  0  0  0
  138.9730   70.7770  222.8590 C   0  0  0  0  0  0  0  0  0  0  0  0
  138.6020   71.6120  221.7220 C   0  0  0  0  0  0  0  0  0  0  0  0
  138.5560   71.0220  220.4610 C   0  0  0  0  0  0  0  0  0  0  0  0
  138.2050   71.7800  219.3530 C   0  0  0  0  0  0  0  0  0  0  0  0
  137.8960   73.1250  219.4800 C   0  0  0  0  0  0  0  0  0  0  0  0
  137.9440   73.7110  220.7460 C   0  0  0  0  0  0  0  0  0  0  0  0
  137.6360   75.1080  220.9670 C   0  0  0  0  0  0  0  0  0  0  0  0
  136.5690   75.5920  220.4720 O   0  0  0  0  0  0  0  0  0  0  0  0
  138.4500   76.0010  221.7100 N   0  0  0  0  0  0  0  0  0  0  0  0
  137.9930   77.3740  221.8350 C   0  0  0  0  0  0  0  0  0  0  0  0
  139.0930   78.2830  221.2910 C   0  0  0  0  0  0  0  0  0  0  0  0
  140.2740   78.0570  222.0960 N   0  0  0  0  0  0  0  0  0  0  0  0
  141.0610   79.1350  222.6300 C   0  0  0  0  0  0  0  0  0  0  0  0
  142.4380   79.1490  222.5720 C   0  0  0  0  0  0  0  0  0  0  0  0
  143.1770   80.1900  223.1020 C   0  0  0  0  0  0  0  0  0  0  0  0
  142.5800   81.2660  223.7150 C   0  0  0  0  0  0  0  0  0  0  0  0
  141.2050   81.2700  223.7830 C   0  0  0  0  0  0  0  0  0  0  0  0
  140.4620   80.2200  223.2470 C   0  0  0  0  0  0  0  0  0  0  0  0
  140.7170   76.7220  222.4090 C   0  0  0  0  0  0  0  0  0  0  0  0
  139.6840   75.6550  222.3450 C   0  0  0  0  0  0  0  0  0  0  0  0
  138.2940   72.9400  221.8280 C   0  0  0  0  0  0  0  0  0  0  0  0
  139.5550   71.3310  223.8670 N   0  0  0  0  0  0  0  0  0  0  0  0
  139.9780   70.6670  225.0390 C   0  0  0  0  0  0  0  0  0  0  0  0
  140.5950   71.3560  226.0660 C   0  0  0  0  0  0  0  0  0  0  0  0
  140.9850   70.6560  227.1810 C   0  0  0  0  0  0  0  0  0  0  0  0
  140.7820   69.2800  227.3120 C   0  0  0  0  0  0  0  0  0  0  0  0
  141.2880   68.4050  228.7430 Cl  0  0  0  0  0  0  0  0  0  0  0  0
  140.1560   68.6270  226.2510 C   0  0  0  0  0  0  0  0  0  0  0  0
  139.7480   69.2890  225.1140 C   0  0  0  0  0  0  0  0  0  0  0  0
  139.1674   68.9028  221.9048 H   0  0  0  0  0  0  0  0  0  0  0  0
  137.5643   69.2249  222.6852 H   0  0  0  0  0  0  0  0  0  0  0  0
  138.7979   69.9554  220.3436 H   0  0  0  0  0  0  0  0  0  0  0  0
  138.1716   71.3070  218.3605 H   0  0  0  0  0  0  0  0  0  0  0  0
  137.6176   73.7207  218.5981 H   0  0  0  0  0  0  0  0  0  0  0  0
  137.0694   77.5154  221.2545 H   0  0  0  0  0  0  0  0  0  0  0  0
  137.7811   77.6143  222.8873 H   0  0  0  0  0  0  0  0  0  0  0  0
  139.3008   78.0351  220.2396 H   0  0  0  0  0  0  0  0  0  0  0  0
  138.7854   79.3381  221.3377 H   0  0  0  0  0  0  0  0  0  0  0  0
  142.9625   78.3100  222.0915 H   0  0  0  0  0  0  0  0  0  0  0  0
  144.2742   80.1565  223.0313 H   0  0  0  0  0  0  0  0  0  0  0  0
  143.1764   82.0899  224.1339 H   0  0  0  0  0  0  0  0  0  0  0  0
  140.6869   82.1116  224.2660 H   0  0  0  0  0  0  0  0  0  0  0  0
  139.3647   80.2543  223.3163 H   0  0  0  0  0  0  0  0  0  0  0  0
  141.5156   76.4587  221.6999 H   0  0  0  0  0  0  0  0  0  0  0  0
  141.0381   76.7577  223.4605 H   0  0  0  0  0  0  0  0  0  0  0  0
  140.1152   74.8043  221.7970 H   0  0  0  0  0  0  0  0  0  0  0  0
  139.4231   75.4381  223.3914 H   0  0  0  0  0  0  0  0  0  0  0  0
  138.3279   73.4109  222.8215 H   0  0  0  0  0  0  0  0  0  0  0  0
  140.7695   72.4395  225.9919 H   0  0  0  0  0  0  0  0  0  0  0  0
  141.4758   71.1991  228.0021 H   0  0  0  0  0  0  0  0  0  0  0  0
  139.9815   67.5434  226.3246 H   0  0  0  0  0  0  0  0  0  0  0  0
  1  2  2  0
  2  3  1  0
  3  4  1  0
  4  5  1  0
  5  6  2  0
  6  7  1  0
  7  8  2  0
  8  9  1  0
  9 10  1  0
 10 11  2  0
 10 12  1  0
 12 13  1  0
 13 14  1  0
 14 15  1  0
 15 16  1  0
 16 17  2  0
 17 18  1  0
 18 19  2  0
 19 20  1  0
 20 21  2  0
 15 22  1  0
 22 23  1  0
  9 24  2  0
  4 25  2  0
 25 26  1  0
 26 27  2  0
 27 28  1  0
 28 29  2  0
 29 30  1  0
 29 31  1  0
 31 32  2  0
 32  2  1  0
 24  5  1  0
 32 26  1  0
 23 12  1  0
 21 16  1  0
  3 33  1  0
  3 34  1  0
  6 35  1  0
  7 36  1  0
  8 37  1  0
 13 38  1  0
 13 39  1  0
 14 40  1  0
 14 41  1  0
 17 42  1  0
 18 43  1  0
 19 44  1  0
 20 45  1  0
 21 46  1  0
 22 47  1  0
 22 48  1  0
 23 49  1  0
 23 50  1  0
 24 51  1  0
 27 52  1  0
 28 53  1  0
 31 54  1  0
M  END
>  <smiles>  (1) 
O=C1CC(c2cccc(C(=O)N3CCN(c4ccccc4)CC3)c2)=Nc2ccc(Cl)cc21

>  <score_type>  (1) 
oracle

>  <origin>  (1) 
autodockgpu

>  <m_score__min__energy>  (1) 
-9.1099999999999994

>  <m_primary>  (1) 
energy

>  <rmsd>  (1) 
4.942043561668726

>  <m_score__min__rmsd>  (1) 
4.942043561668726

>  <meeko>  (1) 
{"free_energy": -8.96, "intermolecular_energy": -9.85, "internal_energy": -0.92, "cluster_size": 44, "cluster_id": 1, "rank_in_cluster": 20}

>  <energy>  (1) 
-9.11

>  <cluster_rmsd>  (1) 
0.0

>  <cluster>  (1) 
1

$$$$

     RDKit          3D

 54 58  0  0  0  0  0  0  0  0999 V2000
  138.9830   67.2400  224.1720 O   0  0  0  0  0  0  0  0  0  0  0  0
  139.1930   68.4730  224.1490 C   0  0  0  0  0  0  0  0  0  0  0  0
  138.7790   69.2260  222.9290 C   0  0  0  0  0  0  0  0  0  0  0  0
  139.0930   70.6690  223.0480 C   0  0  0  0  0  0  0  0  0  0  0  0
  138.7440   71.5260  221.9220 C   0  0  0  0  0  0  0  0  0  0  0  0
  138.8210   70.9910  220.6390 C   0  0  0  0  0  0  0  0  0  0  0  0
  138.4960   71.7720  219.5400 C   0  0  0  0  0  0  0  0  0  0  0  0
  138.0920   73.0890  219.6980 C   0  0  0  0  0  0  0  0  0  0  0  0
  138.0160   73.6210  220.9860 C   0  0  0  0  0  0  0  0  0  0  0  0
  137.6030   74.9850  221.2400 C   0  0  0  0  0  0  0  0  0  0  0  0
  136.4490   75.3620  220.8620 O   0  0  0  0  0  0  0  0  0  0  0  0
  138.4030   75.9580  221.8930 N   0  0  0  0  0  0  0  0  0  0  0  0
  137.8350   77.2820  222.0660 C   0  0  0  0  0  0  0  0  0  0  0  0
  138.7800   78.2860  221.4090 C   0  0  0  0  0  0  0  0  0  0  0  0
  140.0560   78.1790  222.0830 N   0  0  0  0  0  0  0  0  0  0  0  0
  140.7900   79.3310  222.5310 C   0  0  0  0  0  0  0  0  0  0  0  0
  141.8330   79.2450  223.4280 C   0  0  0  0  0  0  0  0  0  0  0  0
  142.5190   80.3660  223.8550 C   0  0  0  0  0  0  0  0  0  0  0  0
  142.1990   81.6270  223.4100 C   0  0  0  0  0  0  0  0  0  0  0  0
  141.1590   81.7330  222.5130 C   0  0  0  0  0  0  0  0  0  0  0  0
  140.4700   80.6010  222.0840 C   0  0  0  0  0  0  0  0  0  0  0  0
  140.6530   76.8940  222.3460 C   0  0  0  0  0  0  0  0  0  0  0  0
  139.7250   75.7350  222.3930 C   0  0  0  0  0  0  0  0  0  0  0  0
  138.3430   72.8270  222.0590 C   0  0  0  0  0  0  0  0  0  0  0  0
  139.6520   71.2010  224.0800 N   0  0  0  0  0  0  0  0  0  0  0  0
  140.0510   70.5130  225.2470 C   0  0  0  0  0  0  0  0  0  0  0  0
  140.6450   71.1800  226.3010 C   0  0  0  0  0  0  0  0  0  0  0  0
  141.0130   70.4560  227.4090 C   0  0  0  0  0  0  0  0  0  0  0  0
  140.8090   69.0770  227.5060 C   0  0  0  0  0  0  0  0  0  0  0  0
  141.2860   68.1720  228.9280 Cl  0  0  0  0  0  0  0  0  0  0  0  0
  140.2070   68.4470  226.4180 C   0  0  0  0  0  0  0  0  0  0  0  0
  139.8220   69.1320  225.2870 C   0  0  0  0  0  0  0  0  0  0  0  0
  139.3108   68.8153  222.0580 H   0  0  0  0  0  0  0  0  0  0  0  0
  137.6907   69.1186  222.8103 H   0  0  0  0  0  0  0  0  0  0  0  0
  139.1399   69.9479  220.4968 H   0  0  0  0  0  0  0  0  0  0  0  0
  138.5596   71.3411  218.5299 H   0  0  0  0  0  0  0  0  0  0  0  0
  137.8357   73.7041  218.8228 H   0  0  0  0  0  0  0  0  0  0  0  0
  136.8461   77.3303  221.5868 H   0  0  0  0  0  0  0  0  0  0  0  0
  137.7144   77.5112  223.1351 H   0  0  0  0  0  0  0  0  0  0  0  0
  138.8972   78.0498  220.3411 H   0  0  0  0  0  0  0  0  0  0  0  0
  138.3808   79.3078  221.4899 H   0  0  0  0  0  0  0  0  0  0  0  0
  142.1271   78.2579  223.8142 H   0  0  0  0  0  0  0  0  0  0  0  0
  143.3449   80.2460  224.5716 H   0  0  0  0  0  0  0  0  0  0  0  0
  142.7503   82.5139  223.7558 H   0  0  0  0  0  0  0  0  0  0  0  0
  140.8693   82.7230  222.1311 H   0  0  0  0  0  0  0  0  0  0  0  0
  139.6447   80.7204  221.3666 H   0  0  0  0  0  0  0  0  0  0  0  0
  141.3923   76.6996  221.5550 H   0  0  0  0  0  0  0  0  0  0  0  0
  141.0794   76.9698  223.3571 H   0  0  0  0  0  0  0  0  0  0  0  0
  140.1737   74.9228  221.8022 H   0  0  0  0  0  0  0  0  0  0  0  0
  139.5985   75.5050  223.4612 H   0  0  0  0  0  0  0  0  0  0  0  0
  138.2797   73.2553  223.0702 H   0  0  0  0  0  0  0  0  0  0  0  0
  140.8192   72.2651  226.2541 H   0  0  0  0  0  0  0  0  0  0  0  0
  141.4861   70.9816  228.2516 H   0  0  0  0  0  0  0  0  0  0  0  0
  140.0329   67.3619  226.4645 H   0  0  0  0  0  0  0  0  0  0  0  0
  1  2  2  0
  2  3  1  0
  3  4  1  0
  4  5  1  0
  5  6  2  0
  6  7  1  0
  7  8  2  0
  8  9  1  0
  9 10  1  0
 10 11  2  0
 10 12  1  0
 12 13  1  0
 13 14  1  0
 14 15  1  0
 15 16  1  0
 16 17  2  0
 17 18  1  0
 18 19  2  0
 19 20  1  0
 20 21  2  0
 15 22  1  0
 22 23  1  0
  9 24  2  0
  4 25  2  0
 25 26  1  0
 26 27  2  0
 27 28  1  0
 28 29  2  0
 29 30  1  0
 29 31  1  0
 31 32  2  0
 32  2  1  0
 24  5  1  0
 32 26  1  0
 23 12  1  0
 21 16  1  0
  3 33  1  0
  3 34  1  0
  6 35  1  0
  7 36  1  0
  8 37  1  0
 13 38  1  0
 13 39  1  0
 14 40  1  0
 14 41  1  0
 17 42  1  0
 18 43  1  0
 19 44  1  0
 20 45  1  0
 21 46  1  0
 22 47  1  0
 22 48  1  0
 23 49  1  0
 23 50  1  0
 24 51  1  0
 27 52  1  0
 28 53  1  0
 31 54  1  0
M  END
>  <smiles>  (2) 
O=C1CC(c2cccc(C(=O)N3CCN(c4ccccc4)CC3)c2)=Nc2ccc(Cl)cc21

>  <score_type>  (2) 
oracle

>  <origin>  (2) 
autodockgpu

>  <m_score__min__energy>  (2) 
-9.1099999999999994

>  <m_primary>  (2) 
energy

>  <rmsd>  (2) 
4.727991376983954

>  <m_score__min__rmsd>  (2) 
4.727991376983954

>  <meeko>  (2) 
{"free_energy": -8.92, "intermolecular_energy": -9.81, "internal_energy": -0.95, "cluster_size": 44, "cluster_id": 1, "rank_in_cluster": 35}

>  <energy>  (2) 
-9.11

>  <cluster_rmsd>  (2) 
0.23

>  <cluster>  (2) 
1

$$$$

     RDKit          3D

 54 58  0  0  0  0  0  0  0  0999 V2000
  139.2960   67.0690  224.7590 O   0  0  0  0  0  0  0  0  0  0  0  0
  139.3200   68.3120  224.8880 C   0  0  0  0  0  0  0  0  0  0  0  0
  138.7120   69.1350  223.8020 C   0  0  0  0  0  0  0  0  0  0  0  0
  138.8180   70.5840  224.0930 C   0  0  0  0  0  0  0  0  0  0  0  0
  138.2650   71.5080  223.1100 C   0  0  0  0  0  0  0  0  0  0  0  0
  136.8910   71.4880  222.8880 C   0  0  0  0  0  0  0  0  0  0  0  0
  136.3240   72.3520  221.9630 C   0  0  0  0  0  0  0  0  0  0  0  0
  137.1090   73.2450  221.2500 C   0  0  0  0  0  0  0  0  0  0  0  0
  138.4860   73.2610  221.4760 C   0  0  0  0  0  0  0  0  0  0  0  0
  139.3770   74.1620  220.7750 C   0  0  0  0  0  0  0  0  0  0  0  0
  140.1080   73.7060  219.8400 O   0  0  0  0  0  0  0  0  0  0  0  0
  139.5020   75.5470  221.0570 N   0  0  0  0  0  0  0  0  0  0  0  0
  140.4450   76.3080  220.2580 C   0  0  0  0  0  0  0  0  0  0  0  0
  141.4400   76.9660  221.2120 C   0  0  0  0  0  0  0  0  0  0  0  0
  140.6850   77.8360  222.0870 N   0  0  0  0  0  0  0  0  0  0  0  0
  141.0880   79.1880  222.3650 C   0  0  0  0  0  0  0  0  0  0  0  0
  141.8250   79.5290  223.4790 C   0  0  0  0  0  0  0  0  0  0  0  0
  142.1920   80.8370  223.7340 C   0  0  0  0  0  0  0  0  0  0  0  0
  141.8430   81.8670  222.8940 C   0  0  0  0  0  0  0  0  0  0  0  0
  141.1050   81.5460  221.7760 C   0  0  0  0  0  0  0  0  0  0  0  0
  140.7370   80.2270  221.5210 C   0  0  0  0  0  0  0  0  0  0  0  0
  139.4740   77.3830  222.7230 C   0  0  0  0  0  0  0  0  0  0  0  0
  138.7710   76.2510  222.0650 C   0  0  0  0  0  0  0  0  0  0  0  0
  139.0240   72.3960  222.3970 C   0  0  0  0  0  0  0  0  0  0  0  0
  139.3670   71.0670  225.1540 N   0  0  0  0  0  0  0  0  0  0  0  0
  139.9470   70.3110  226.1960 C   0  0  0  0  0  0  0  0  0  0  0  0
  140.5120   70.9290  227.2960 C   0  0  0  0  0  0  0  0  0  0  0  0
  141.0620   70.1410  228.2770 C   0  0  0  0  0  0  0  0  0  0  0  0
  141.0710   68.7460  228.2030 C   0  0  0  0  0  0  0  0  0  0  0  0
  141.7780   67.7590  229.4650 Cl  0  0  0  0  0  0  0  0  0  0  0  0
  140.4900   68.1670  227.0750 C   0  0  0  0  0  0  0  0  0  0  0  0
  139.9270   68.9180  226.0670 C   0  0  0  0  0  0  0  0  0  0  0  0
  139.2335   68.9213  222.8573 H   0  0  0  0  0  0  0  0  0  0  0  0
  137.6456   68.8753  223.7288 H   0  0  0  0  0  0  0  0  0  0  0  0
  136.2543   70.7863  223.4467 H   0  0  0  0  0  0  0  0  0  0  0  0
  135.2375   72.3284  221.7929 H   0  0  0  0  0  0  0  0  0  0  0  0
  136.6542   73.9293  220.5186 H   0  0  0  0  0  0  0  0  0  0  0  0
  140.9766   75.6375  219.5668 H   0  0  0  0  0  0  0  0  0  0  0  0
  139.9189   77.0707  219.6650 H   0  0  0  0  0  0  0  0  0  0  0  0
  141.9602   76.1974  221.8025 H   0  0  0  0  0  0  0  0  0  0  0  0
  142.1967   77.5365  220.6534 H   0  0  0  0  0  0  0  0  0  0  0  0
  142.1287   78.7401  224.1829 H   0  0  0  0  0  0  0  0  0  0  0  0
  142.7808   81.0600  224.6360 H   0  0  0  0  0  0  0  0  0  0  0  0
  142.1406   82.9046  223.1055 H   0  0  0  0  0  0  0  0  0  0  0  0
  140.8030   82.3399  221.0771 H   0  0  0  0  0  0  0  0  0  0  0  0
  140.1481   80.0039  220.6191 H   0  0  0  0  0  0  0  0  0  0  0  0
  139.7291   77.0703  223.7463 H   0  0  0  0  0  0  0  0  0  0  0  0
  138.7777   78.2329  222.6694 H   0  0  0  0  0  0  0  0  0  0  0  0
  138.4975   75.5272  222.8469 H   0  0  0  0  0  0  0  0  0  0  0  0
  137.9150   76.7031  221.5426 H   0  0  0  0  0  0  0  0  0  0  0  0
  140.1103   72.4178  222.5688 H   0  0  0  0  0  0  0  0  0  0  0  0
  140.5208   72.0255  227.3834 H   0  0  0  0  0  0  0  0  0  0  0  0
  141.5128   70.6269  229.1548 H   0  0  0  0  0  0  0  0  0  0  0  0
  140.4811   67.0705  226.9872 H   0  0  0  0  0  0  0  0  0  0  0  0
  1  2  2  0
  2  3  1  0
  3  4  1  0
  4  5  1  0
  5  6  2  0
  6  7  1  0
  7  8  2  0
  8  9  1  0
  9 10  1  0
 10 11  2  0
 10 12  1  0
 12 13  1  0
 13 14  1  0
 14 15  1  0
 15 16  1  0
 16 17  2  0
 17 18  1  0
 18 19  2  0
 19 20  1  0
 20 21  2  0
 15 22  1  0
 22 23  1  0
  9 24  2  0
  4 25  2  0
 25 26  1  0
 26 27  2  0
 27 28  1  0
 28 29  2  0
 29 30  1  0
 29 31  1  0
 31 32  2  0
 32  2  1  0
 24  5  1  0
 32 26  1  0
 23 12  1  0
 21 16  1  0
  3 33  1  0
  3 34  1  0
  6 35  1  0
  7 36  1  0
  8 37  1  0
 13 38  1  0
 13 39  1  0
 14 40  1  0
 14 41  1  0
 17 42  1  0
 18 43  1  0
 19 44  1  0
 20 45  1  0
 21 46  1  0
 22 47  1  0
 22 48  1  0
 23 49  1  0
 23 50  1  0
 24 51  1  0
 27 52  1  0
 28 53  1  0
 31 54  1  0
M  END
>  <smiles>  (3) 
O=C1CC(c2cccc(C(=O)N3CCN(c4ccccc4)CC3)c2)=Nc2ccc(Cl)cc21

>  <score_type>  (3) 
oracle

>  <origin>  (3) 
autodockgpu

>  <m_score__min__energy>  (3) 
-9.1099999999999994

>  <m_primary>  (3) 
energy

>  <rmsd>  (3) 
4.335290816628174

>  <m_score__min__rmsd>  (3) 
4.335290816628174

>  <meeko>  (3) 
{"free_energy": -9.11, "intermolecular_energy": -10.0, "internal_energy": -0.94, "cluster_size": 44, "cluster_id": 1, "rank_in_cluster": 1}

>  <energy>  (3) 
-9.09

>  <cluster_rmsd>  (3) 
0.22

>  <cluster>  (3) 
1

$$$$

     RDKit          3D

 54 58  0  0  0  0  0  0  0  0999 V2000
  139.1730   67.1670  224.3270 O   0  0  0  0  0  0  0  0  0  0  0  0
  139.2010   68.4160  224.3820 C   0  0  0  0  0  0  0  0  0  0  0  0
  138.6400   69.1760  223.2270 C   0  0  0  0  0  0  0  0  0  0  0  0
  138.7450   70.6390  223.4350 C   0  0  0  0  0  0  0  0  0  0  0  0
  138.2370   71.5050  222.3790 C   0  0  0  0  0  0  0  0  0  0  0  0
  136.9220   71.3260  221.9570 C   0  0  0  0  0  0  0  0  0  0  0  0
  136.3980   72.1300  220.9560 C   0  0  0  0  0  0  0  0  0  0  0  0
  137.1660   73.1200  220.3630 C   0  0  0  0  0  0  0  0  0  0  0  0
  138.4840   73.2960  220.7900 C   0  0  0  0  0  0  0  0  0  0  0  0
  139.3540   74.3060  220.2250 C   0  0  0  0  0  0  0  0  0  0  0  0
  140.0320   74.0280  219.1870 O   0  0  0  0  0  0  0  0  0  0  0  0
  139.5140   75.6130  220.7540 N   0  0  0  0  0  0  0  0  0  0  0  0
  140.4290   76.5040  220.0650 C   0  0  0  0  0  0  0  0  0  0  0  0
  141.4790   76.9660  221.0730 C   0  0  0  0  0  0  0  0  0  0  0  0
  140.7810   77.6620  222.1310 N   0  0  0  0  0  0  0  0  0  0  0  0
  141.2180   78.9350  222.6360 C   0  0  0  0  0  0  0  0  0  0  0  0
  140.3390   79.9340  222.9940 C   0  0  0  0  0  0  0  0  0  0  0  0
  140.7800   81.1560  223.4660 C   0  0  0  0  0  0  0  0  0  0  0  0
  142.1180   81.4410  223.6050 C   0  0  0  0  0  0  0  0  0  0  0  0
  143.0120   80.4550  223.2530 C   0  0  0  0  0  0  0  0  0  0  0  0
  142.5650   79.2250  222.7770 C   0  0  0  0  0  0  0  0  0  0  0  0
  139.5950   77.1060  222.7320 C   0  0  0  0  0  0  0  0  0  0  0  0
  138.8430   76.1210  221.9110 C   0  0  0  0  0  0  0  0  0  0  0  0
  138.9800   72.4870  221.7830 C   0  0  0  0  0  0  0  0  0  0  0  0
  139.2570   71.1810  224.4860 N   0  0  0  0  0  0  0  0  0  0  0  0
  139.7930   70.4870  225.5920 C   0  0  0  0  0  0  0  0  0  0  0  0
  140.3210   71.1660  226.6740 C   0  0  0  0  0  0  0  0  0  0  0  0
  140.8280   70.4350  227.7200 C   0  0  0  0  0  0  0  0  0  0  0  0
  140.8300   69.0390  227.7290 C   0  0  0  0  0  0  0  0  0  0  0  0
  141.4820   68.1260  229.0740 Cl  0  0  0  0  0  0  0  0  0  0  0  0
  140.2870   68.3960  226.6170 C   0  0  0  0  0  0  0  0  0  0  0  0
  139.7680   69.0880  225.5450 C   0  0  0  0  0  0  0  0  0  0  0  0
  139.1950   68.9039  222.3171 H   0  0  0  0  0  0  0  0  0  0  0  0
  137.5752   68.9176  223.1293 H   0  0  0  0  0  0  0  0  0  0  0  0
  136.2983   70.5460  222.4182 H   0  0  0  0  0  0  0  0  0  0  0  0
  135.3588   71.9801  220.6281 H   0  0  0  0  0  0  0  0  0  0  0  0
  136.7448   73.7557  219.5702 H   0  0  0  0  0  0  0  0  0  0  0  0
  140.9161   75.9713  219.2350 H   0  0  0  0  0  0  0  0  0  0  0  0
  139.8866   77.3674  219.6524 H   0  0  0  0  0  0  0  0  0  0  0  0
  142.0150   76.0975  221.4833 H   0  0  0  0  0  0  0  0  0  0  0  0
  142.2167   77.6257  220.5928 H   0  0  0  0  0  0  0  0  0  0  0  0
  139.2577   79.7542  222.9017 H   0  0  0  0  0  0  0  0  0  0  0  0
  140.0394   81.9224  223.7382 H   0  0  0  0  0  0  0  0  0  0  0  0
  142.4598   82.4163  223.9818 H   0  0  0  0  0  0  0  0  0  0  0  0
  144.0919   80.6409  223.3489 H   0  0  0  0  0  0  0  0  0  0  0  0
  143.3057   78.4589  222.5041 H   0  0  0  0  0  0  0  0  0  0  0  0
  139.8944   76.6062  223.6650 H   0  0  0  0  0  0  0  0  0  0  0  0
  138.9105   77.9555  222.8727 H   0  0  0  0  0  0  0  0  0  0  0  0
  138.5962   75.2657  222.5572 H   0  0  0  0  0  0  0  0  0  0  0  0
  137.9697   76.6678  221.5258 H   0  0  0  0  0  0  0  0  0  0  0  0
  140.0188   72.6350  222.1131 H   0  0  0  0  0  0  0  0  0  0  0  0
  140.3347   72.2657  226.6966 H   0  0  0  0  0  0  0  0  0  0  0  0
  141.2488   70.9700  228.5841 H   0  0  0  0  0  0  0  0  0  0  0  0
  140.2726   67.2963  226.5952 H   0  0  0  0  0  0  0  0  0  0  0  0
  1  2  2  0
  2  3  1  0
  3  4  1  0
  4  5  1  0
  5  6  2  0
  6  7  1  0
  7  8  2  0
  8  9  1  0
  9 10  1  0
 10 11  2  0
 10 12  1  0
 12 13  1  0
 13 14  1  0
 14 15  1  0
 15 16  1  0
 16 17  2  0
 17 18  1  0
 18 19  2  0
 19 20  1  0
 20 21  2  0
 15 22  1  0
 22 23  1  0
  9 24  2  0
  4 25  2  0
 25 26  1  0
 26 27  2  0
 27 28  1  0
 28 29  2  0
 29 30  1  0
 29 31  1  0
 31 32  2  0
 32  2  1  0
 24  5  1  0
 32 26  1  0
 23 12  1  0
 21 16  1  0
  3 33  1  0
  3 34  1  0
  6 35  1  0
  7 36  1  0
  8 37  1  0
 13 38  1  0
 13 39  1  0
 14 40  1  0
 14 41  1  0
 17 42  1  0
 18 43  1  0
 19 44  1  0
 20 45  1  0
 21 46  1  0
 22 47  1  0
 22 48  1  0
 23 49  1  0
 23 50  1  0
 24 51  1  0
 27 52  1  0
 28 53  1  0
 31 54  1  0
M  END
>  <smiles>  (4) 
O=C1CC(c2cccc(C(=O)N3CCN(c4ccccc4)CC3)c2)=Nc2ccc(Cl)cc21

>  <score_type>  (4) 
oracle

>  <origin>  (4) 
autodockgpu

>  <m_score__min__energy>  (4) 
-9.1099999999999994

>  <m_primary>  (4) 
energy

>  <rmsd>  (4) 
4.675001152097824

>  <m_score__min__rmsd>  (4) 
4.675001152097824

>  <meeko>  (4) 
{"free_energy": -9.07, "intermolecular_energy": -9.96, "internal_energy": -0.96, "cluster_size": 44, "cluster_id": 1, "rank_in_cluster": 9}

>  <energy>  (4) 
-9.08

>  <cluster_rmsd>  (4) 
0.52

>  <cluster>  (4) 
1

$$$$

     RDKit          3D

 54 58  0  0  0  0  0  0  0  0999 V2000
  139.3410   67.0450  224.7650 O   0  0  0  0  0  0  0  0  0  0  0  0
  139.3320   68.2900  224.8860 C   0  0  0  0  0  0  0  0  0  0  0  0
  138.7040   69.0900  223.7940 C   0  0  0  0  0  0  0  0  0  0  0  0
  138.7720   70.5420  224.0760 C   0  0  0  0  0  0  0  0  0  0  0  0
  138.1970   71.4460  223.0860 C   0  0  0  0  0  0  0  0  0  0  0  0
  136.8190   71.4110  222.8860 C   0  0  0  0  0  0  0  0  0  0  0  0
  136.2320   72.2560  221.9560 C   0  0  0  0  0  0  0  0  0  0  0  0
  136.9980   73.1420  221.2150 C   0  0  0  0  0  0  0  0  0  0  0  0
  138.3790   73.1720  221.4200 C   0  0  0  0  0  0  0  0  0  0  0  0
  139.2520   74.0670  220.6900 C   0  0  0  0  0  0  0  0  0  0  0  0
  139.8980   73.6230  219.6900 O   0  0  0  0  0  0  0  0  0  0  0  0
  139.4470   75.4360  221.0110 N   0  0  0  0  0  0  0  0  0  0  0  0
  140.3600   76.1940  220.1750 C   0  0  0  0  0  0  0  0  0  0  0  0
  141.4430   76.7800  221.0780 C   0  0  0  0  0  0  0  0  0  0  0  0
  140.7840   77.6410  222.0350 N   0  0  0  0  0  0  0  0  0  0  0  0
  141.2560   78.9660  222.3320 C   0  0  0  0  0  0  0  0  0  0  0  0
  141.7840   79.3100  223.5580 C   0  0  0  0  0  0  0  0  0  0  0  0
  142.2210   80.5930  223.8270 C   0  0  0  0  0  0  0  0  0  0  0  0
  142.1520   81.5960  222.8890 C   0  0  0  0  0  0  0  0  0  0  0  0
  141.6270   81.2720  221.6580 C   0  0  0  0  0  0  0  0  0  0  0  0
  141.1880   79.9780  221.3890 C   0  0  0  0  0  0  0  0  0  0  0  0
  139.6050   77.2070  222.7390 C   0  0  0  0  0  0  0  0  0  0  0  0
  138.8150   76.1250  222.0930 C   0  0  0  0  0  0  0  0  0  0  0  0
  138.9370   72.3270  222.3470 C   0  0  0  0  0  0  0  0  0  0  0  0
  139.3060   71.0460  225.1350 N   0  0  0  0  0  0  0  0  0  0  0  0
  139.9040   70.3130  226.1830 C   0  0  0  0  0  0  0  0  0  0  0  0
  140.4500   70.9520  227.2800 C   0  0  0  0  0  0  0  0  0  0  0  0
  141.0190   70.1850  228.2670 C   0  0  0  0  0  0  0  0  0  0  0  0
  141.0650   68.7900  228.2010 C   0  0  0  0  0  0  0  0  0  0  0  0
  141.7950   67.8300  229.4710 Cl  0  0  0  0  0  0  0  0  0  0  0  0
  140.5010   68.1890  227.0760 C   0  0  0  0  0  0  0  0  0  0  0  0
  139.9210   68.9180  226.0620 C   0  0  0  0  0  0  0  0  0  0  0  0
  139.2320   68.8840  222.8512 H   0  0  0  0  0  0  0  0  0  0  0  0
  137.6448   68.8022  223.7211 H   0  0  0  0  0  0  0  0  0  0  0  0
  136.1965   70.7134  223.4655 H   0  0  0  0  0  0  0  0  0  0  0  0
  135.1430   72.2225  221.8043 H   0  0  0  0  0  0  0  0  0  0  0  0
  136.5266   73.8095  220.4787 H   0  0  0  0  0  0  0  0  0  0  0  0
  140.8166   75.5324  219.4241 H   0  0  0  0  0  0  0  0  0  0  0  0
  139.8225   76.9968  219.6491 H   0  0  0  0  0  0  0  0  0  0  0  0
  141.9745   75.9719  221.6019 H   0  0  0  0  0  0  0  0  0  0  0  0
  142.1793   77.3450  220.4876 H   0  0  0  0  0  0  0  0  0  0  0  0
  141.8594   78.5430  224.3428 H   0  0  0  0  0  0  0  0  0  0  0  0
  142.6361   80.8185  224.8204 H   0  0  0  0  0  0  0  0  0  0  0  0
  142.5016   82.6147  223.1127 H   0  0  0  0  0  0  0  0  0  0  0  0
  141.5535   82.0442  220.8780 H   0  0  0  0  0  0  0  0  0  0  0  0
  140.7738   79.7524  220.3953 H   0  0  0  0  0  0  0  0  0  0  0  0
  139.9192   76.8472  223.7299 H   0  0  0  0  0  0  0  0  0  0  0  0
  138.9390   78.0821  222.7650 H   0  0  0  0  0  0  0  0  0  0  0  0
  138.5708   75.3816  222.8661 H   0  0  0  0  0  0  0  0  0  0  0  0
  137.9412   76.6254  221.6503 H   0  0  0  0  0  0  0  0  0  0  0  0
  140.0255   72.3601  222.5019 H   0  0  0  0  0  0  0  0  0  0  0  0
  140.4293   72.0488  227.3607 H   0  0  0  0  0  0  0  0  0  0  0  0
  141.4551   70.6879  229.1427 H   0  0  0  0  0  0  0  0  0  0  0  0
  140.5202   67.0921  226.9957 H   0  0  0  0  0  0  0  0  0  0  0  0
  1  2  2  0
  2  3  1  0
  3  4  1  0
  4  5  1  0
  5  6  2  0
  6  7  1  0
  7  8  2  0
  8  9  1  0
  9 10  1  0
 10 11  2  0
 10 12  1  0
 12 13  1  0
 13 14  1  0
 14 15  1  0
 15 16  1  0
 16 17  2  0
 17 18  1  0
 18 19  2  0
 19 20  1  0
 20 21  2  0
 15 22  1  0
 22 23  1  0
  9 24  2  0
  4 25  2  0
 25 26  1  0
 26 27  2  0
 27 28  1  0
 28 29  2  0
 29 30  1  0
 29 31  1  0
 31 32  2  0
 32  2  1  0
 24  5  1  0
 32 26  1  0
 23 12  1  0
 21 16  1  0
  3 33  1  0
  3 34  1  0
  6 35  1  0
  7 36  1  0
  8 37  1  0
 13 38  1  0
 13 39  1  0
 14 40  1  0
 14 41  1  0
 17 42  1  0
 18 43  1  0
 19 44  1  0
 20 45  1  0
 21 46  1  0
 22 47  1  0
 22 48  1  0
 23 49  1  0
 23 50  1  0
 24 51  1  0
 27 52  1  0
 28 53  1  0
 31 54  1  0
M  END
>  <smiles>  (5) 
O=C1CC(c2cccc(C(=O)N3CCN(c4ccccc4)CC3)c2)=Nc2ccc(Cl)cc21

>  <score_type>  (5) 
oracle

>  <origin>  (5) 
autodockgpu

>  <m_score__min__energy>  (5) 
-9.1099999999999994

>  <m_primary>  (5) 
energy

>  <rmsd>  (5) 
4.237487360888895

>  <m_score__min__rmsd>  (5) 
4.237487360888895

>  <meeko>  (5) 
{"free_energy": -9.04, "intermolecular_energy": -9.94, "internal_energy": -0.94, "cluster_size": 44, "cluster_id": 1, "rank_in_cluster": 14}

>  <energy>  (5) 
-9.08

>  <cluster_rmsd>  (5) 
0.7

>  <cluster>  (5) 
1

$$$$

     RDKit          3D

 54 58  0  0  0  0  0  0  0  0999 V2000
  139.1820   67.2350  224.3650 O   0  0  0  0  0  0  0  0  0  0  0  0
  139.2200   68.4840  224.4260 C   0  0  0  0  0  0  0  0  0  0  0  0
  138.6460   69.2540  223.2850 C   0  0  0  0  0  0  0  0  0  0  0  0
  138.7660   70.7150  223.4990 C   0  0  0  0  0  0  0  0  0  0  0  0
  138.2460   71.5910  222.4560 C   0  0  0  0  0  0  0  0  0  0  0  0
  136.9160   71.4400  222.0720 C   0  0  0  0  0  0  0  0  0  0  0  0
  136.3820   72.2540  221.0850 C   0  0  0  0  0  0  0  0  0  0  0  0
  137.1550   73.2260  220.4680 C   0  0  0  0  0  0  0  0  0  0  0  0
  138.4870   73.3740  220.8570 C   0  0  0  0  0  0  0  0  0  0  0  0
  139.3630   74.3630  220.2660 C   0  0  0  0  0  0  0  0  0  0  0  0
  140.0340   74.0570  219.2310 O   0  0  0  0  0  0  0  0  0  0  0  0
  139.5360   75.6810  220.7640 N   0  0  0  0  0  0  0  0  0  0  0  0
  140.4560   76.5490  220.0510 C   0  0  0  0  0  0  0  0  0  0  0  0
  141.5140   77.0240  221.0440 C   0  0  0  0  0  0  0  0  0  0  0  0
  140.8260   77.7490  222.0900 N   0  0  0  0  0  0  0  0  0  0  0  0
  141.2760   79.0300  222.5640 C   0  0  0  0  0  0  0  0  0  0  0  0
  142.3730   79.1750  223.3860 C   0  0  0  0  0  0  0  0  0  0  0  0
  142.7810   80.4150  223.8410 C   0  0  0  0  0  0  0  0  0  0  0  0
  142.1180   81.5690  223.4990 C   0  0  0  0  0  0  0  0  0  0  0  0
  141.0190   81.4440  222.6780 C   0  0  0  0  0  0  0  0  0  0  0  0
  140.6090   80.1940  222.2210 C   0  0  0  0  0  0  0  0  0  0  0  0
  139.6390   77.2170  222.7080 C   0  0  0  0  0  0  0  0  0  0  0  0
  138.8750   76.2200  221.9130 C   0  0  0  0  0  0  0  0  0  0  0  0
  138.9940   72.5550  221.8370 C   0  0  0  0  0  0  0  0  0  0  0  0
  139.2990   71.2480  224.5440 N   0  0  0  0  0  0  0  0  0  0  0  0
  139.8470   70.5430  225.6380 C   0  0  0  0  0  0  0  0  0  0  0  0
  140.3970   71.2130  226.7150 C   0  0  0  0  0  0  0  0  0  0  0  0
  140.9160   70.4730  227.7490 C   0  0  0  0  0  0  0  0  0  0  0  0
  140.9070   69.0760  227.7510 C   0  0  0  0  0  0  0  0  0  0  0  0
  141.5750   68.1500  229.0800 Cl  0  0  0  0  0  0  0  0  0  0  0  0
  140.3430   68.4430  226.6430 C   0  0  0  0  0  0  0  0  0  0  0  0
  139.8110   69.1450  225.5840 C   0  0  0  0  0  0  0  0  0  0  0  0
  139.1836   68.9825  222.3645 H   0  0  0  0  0  0  0  0  0  0  0  0
  137.5778   69.0044  223.2037 H   0  0  0  0  0  0  0  0  0  0  0  0
  136.2888   70.6744  222.5521 H   0  0  0  0  0  0  0  0  0  0  0  0
  135.3307   72.1271  220.7872 H   0  0  0  0  0  0  0  0  0  0  0  0
  136.7257   73.8691  219.6856 H   0  0  0  0  0  0  0  0  0  0  0  0
  140.9349   75.9938  219.2310 H   0  0  0  0  0  0  0  0  0  0  0  0
  139.9193   77.4077  219.6213 H   0  0  0  0  0  0  0  0  0  0  0  0
  142.0447   76.1602  221.4709 H   0  0  0  0  0  0  0  0  0  0  0  0
  142.2550   77.6669  220.5465 H   0  0  0  0  0  0  0  0  0  0  0  0
  142.9384   78.2809  223.6877 H   0  0  0  0  0  0  0  0  0  0  0  0
  143.6623   80.4798  224.4961 H   0  0  0  0  0  0  0  0  0  0  0  0
  142.4509   82.5513  223.8654 H   0  0  0  0  0  0  0  0  0  0  0  0
  140.4585   82.3423  222.3798 H   0  0  0  0  0  0  0  0  0  0  0  0
  139.7271   80.1293  221.5667 H   0  0  0  0  0  0  0  0  0  0  0  0
  139.9385   76.7359  223.6508 H   0  0  0  0  0  0  0  0  0  0  0  0
  138.9622   78.0752  222.8321 H   0  0  0  0  0  0  0  0  0  0  0  0
  138.6249   75.3813  222.5794 H   0  0  0  0  0  0  0  0  0  0  0  0
  138.0040   76.7650  221.5201 H   0  0  0  0  0  0  0  0  0  0  0  0
  140.0451   72.6796  222.1364 H   0  0  0  0  0  0  0  0  0  0  0  0
  140.4184   72.3124  226.7431 H   0  0  0  0  0  0  0  0  0  0  0  0
  141.3556   71.0004  228.6084 H   0  0  0  0  0  0  0  0  0  0  0  0
  140.3224   67.3436  226.6141 H   0  0  0  0  0  0  0  0  0  0  0  0
  1  2  2  0
  2  3  1  0
  3  4  1  0
  4  5  1  0
  5  6  2  0
  6  7  1  0
  7  8  2  0
  8  9  1  0
  9 10  1  0
 10 11  2  0
 10 12  1  0
 12 13  1  0
 13 14  1  0
 14 15  1  0
 15 16  1  0
 16 17  2  0
 17 18  1  0
 18 19  2  0
 19 20  1  0
 20 21  2  0
 15 22  1  0
 22 23  1  0
  9 24  2  0
  4 25  2  0
 25 26  1  0
 26 27  2  0
 27 28  1  0
 28 29  2  0
 29 30  1  0
 29 31  1  0
 31 32  2  0
 32  2  1  0
 24  5  1  0
 32 26  1  0
 23 12  1  0
 21 16  1  0
  3 33  1  0
  3 34  1  0
  6 35  1  0
  7 36  1  0
  8 37  1  0
 13 38  1  0
 13 39  1  0
 14 40  1  0
 14 41  1  0
 17 42  1  0
 18 43  1  0
 19 44  1  0
 20 45  1  0
 21 46  1  0
 22 47  1  0
 22 48  1  0
 23 49  1  0
 23 50  1  0
 24 51  1  0
 27 52  1  0
 28 53  1  0
 31 54  1  0
M  END
>  <smiles>  (6) 
O=C1CC(c2cccc(C(=O)N3CCN(c4ccccc4)CC3)c2)=Nc2ccc(Cl)cc21

>  <score_type>  (6) 
oracle

>  <origin>  (6) 
autodockgpu

>  <m_score__min__energy>  (6) 
-9.1099999999999994

>  <m_primary>  (6) 
energy

>  <rmsd>  (6) 
4.58343362660715

>  <m_score__min__rmsd>  (6) 
4.58343362660715

>  <meeko>  (6) 
{"free_energy": -9.03, "intermolecular_energy": -9.92, "internal_energy": -0.96, "cluster_size": 44, "cluster_id": 1, "rank_in_cluster": 15}

>  <energy>  (6) 
-9.08

>  <cluster_rmsd>  (6) 
0.57

>  <cluster>  (6) 
1

$$$$

     RDKit          3D

 54 58  0  0  0  0  0  0  0  0999 V2000
  139.1120   67.1950  224.2100 O   0  0  0  0  0  0  0  0  0  0  0  0
  139.2060   68.4420  224.2290 C   0  0  0  0  0  0  0  0  0  0  0  0
  138.7140   69.1950  223.0390 C   0  0  0  0  0  0  0  0  0  0  0  0
  138.8920   70.6560  223.2070 C   0  0  0  0  0  0  0  0  0  0  0  0
  138.4560   71.5160  222.1140 C   0  0  0  0  0  0  0  0  0  0  0  0
  138.4020   70.9740  220.8320 C   0  0  0  0  0  0  0  0  0  0  0  0
  137.9900   71.7570  219.7640 C   0  0  0  0  0  0  0  0  0  0  0  0
  137.6270   73.0820  219.9510 C   0  0  0  0  0  0  0  0  0  0  0  0
  137.6830   73.6200  221.2380 C   0  0  0  0  0  0  0  0  0  0  0  0
  137.3210   74.9930  221.5220 C   0  0  0  0  0  0  0  0  0  0  0  0
  136.1570   75.4010  221.2180 O   0  0  0  0  0  0  0  0  0  0  0  0
  138.1850   75.9420  222.1270 N   0  0  0  0  0  0  0  0  0  0  0  0
  137.6630   77.2790  222.3400 C   0  0  0  0  0  0  0  0  0  0  0  0
  138.5920   78.2620  221.6290 C   0  0  0  0  0  0  0  0  0  0  0  0
  139.9030   78.1190  222.2230 N   0  0  0  0  0  0  0  0  0  0  0  0
  140.6930   79.2500  222.6280 C   0  0  0  0  0  0  0  0  0  0  0  0
  141.7990   79.1310  223.4420 C   0  0  0  0  0  0  0  0  0  0  0  0
  142.5380   80.2320  223.8300 C   0  0  0  0  0  0  0  0  0  0  0  0
  142.2110   81.5050  223.4270 C   0  0  0  0  0  0  0  0  0  0  0  0
  141.1090   81.6450  222.6130 C   0  0  0  0  0  0  0  0  0  0  0  0
  140.3660   80.5330  222.2230 C   0  0  0  0  0  0  0  0  0  0  0  0
  140.4830   76.8190  222.4440 C   0  0  0  0  0  0  0  0  0  0  0  0
  139.5290   75.6830  222.5440 C   0  0  0  0  0  0  0  0  0  0  0  0
  138.0940   72.8250  222.2800 C   0  0  0  0  0  0  0  0  0  0  0  0
  139.4080   71.2020  224.2550 N   0  0  0  0  0  0  0  0  0  0  0  0
  139.8790   70.5140  225.3940 C   0  0  0  0  0  0  0  0  0  0  0  0
  140.4170   71.1970  226.4680 C   0  0  0  0  0  0  0  0  0  0  0  0
  140.8590   70.4720  227.5480 C   0  0  0  0  0  0  0  0  0  0  0  0
  140.7860   69.0780  227.5980 C   0  0  0  0  0  0  0  0  0  0  0  0
  141.3570   68.1730  228.9840 Cl  0  0  0  0  0  0  0  0  0  0  0  0
  140.2360   68.4320  226.4910 C   0  0  0  0  0  0  0  0  0  0  0  0
  139.7800   69.1180  225.3870 C   0  0  0  0  0  0  0  0  0  0  0  0
  139.2751   68.8666  222.1517 H   0  0  0  0  0  0  0  0  0  0  0  0
  137.6396   68.9903  222.9221 H   0  0  0  0  0  0  0  0  0  0  0  0
  138.6863   69.9243  220.6666 H   0  0  0  0  0  0  0  0  0  0  0  0
  137.9507   71.3209  218.7549 H   0  0  0  0  0  0  0  0  0  0  0  0
  137.3007   73.6984  219.1004 H   0  0  0  0  0  0  0  0  0  0  0  0
  136.6479   77.3552  221.9231 H   0  0  0  0  0  0  0  0  0  0  0  0
  137.6143   77.5056  223.4153 H   0  0  0  0  0  0  0  0  0  0  0  0
  138.6374   78.0279  220.5552 H   0  0  0  0  0  0  0  0  0  0  0  0
  138.2251   79.2933  221.7372 H   0  0  0  0  0  0  0  0  0  0  0  0
  142.1013   78.1329  223.7920 H   0  0  0  0  0  0  0  0  0  0  0  0
  143.4132   80.0858  224.4801 H   0  0  0  0  0  0  0  0  0  0  0  0
  142.8050   82.3757  223.7417 H   0  0  0  0  0  0  0  0  0  0  0  0
  140.8121   82.6460  222.2669 H   0  0  0  0  0  0  0  0  0  0  0  0
  139.4912   80.6790  221.5723 H   0  0  0  0  0  0  0  0  0  0  0  0
  141.1671   76.6102  221.6083 H   0  0  0  0  0  0  0  0  0  0  0  0
  140.9737   76.8787  223.4267 H   0  0  0  0  0  0  0  0  0  0  0  0
  139.9195   74.8625  221.9240 H   0  0  0  0  0  0  0  0  0  0  0  0
  139.4623   75.4512  223.6172 H   0  0  0  0  0  0  0  0  0  0  0  0
  138.1338   73.2588  223.2901 H   0  0  0  0  0  0  0  0  0  0  0  0
  140.4896   72.2946  226.4585 H   0  0  0  0  0  0  0  0  0  0  0  0
  141.2870   71.0101  228.4066 H   0  0  0  0  0  0  0  0  0  0  0  0
  140.1637   67.3344  226.4999 H   0  0  0  0  0  0  0  0  0  0  0  0
  1  2  2  0
  2  3  1  0
  3  4  1  0
  4  5  1  0
  5  6  2  0
  6  7  1  0
  7  8  2  0
  8  9  1  0
  9 10  1  0
 10 11  2  0
 10 12  1  0
 12 13  1  0
 13 14  1  0
 14 15  1  0
 15 16  1  0
 16 17  2  0
 17 18  1  0
 18 19  2  0
 19 20  1  0
 20 21  2  0
 15 22  1  0
 22 23  1  0
  9 24  2  0
  4 25  2  0
 25 26  1  0
 26 27  2  0
 27 28  1  0
 28 29  2  0
 29 30  1  0
 29 31  1  0
 31 32  2  0
 32  2  1  0
 24  5  1  0
 32 26  1  0
 23 12  1  0
 21 16  1  0
  3 33  1  0
  3 34  1  0
  6 35  1  0
  7 36  1  0
  8 37  1  0
 13 38  1  0
 13 39  1  0
 14 40  1  0
 14 41  1  0
 17 42  1  0
 18 43  1  0
 19 44  1  0
 20 45  1  0
 21 46  1  0
 22 47  1  0
 22 48  1  0
 23 49  1  0
 23 50  1  0
 24 51  1  0
 27 52  1  0
 28 53  1  0
 31 54  1  0
M  END
>  <smiles>  (7) 
O=C1CC(c2cccc(C(=O)N3CCN(c4ccccc4)CC3)c2)=Nc2ccc(Cl)cc21

>  <score_type>  (7) 
oracle

>  <origin>  (7) 
autodockgpu

>  <m_score__min__energy>  (7) 
-9.1099999999999994

>  <m_primary>  (7) 
energy

>  <rmsd>  (7) 
4.741718860154032

>  <m_score__min__rmsd>  (7) 
4.741718860154032

>  <meeko>  (7) 
{"free_energy": -8.89, "intermolecular_energy": -9.79, "internal_energy": -0.94, "cluster_size": 44, "cluster_id": 1, "rank_in_cluster": 37}

>  <energy>  (7) 
-9.07

>  <cluster_rmsd>  (7) 
0.48

>  <cluster>  (7) 
1

$$$$

     RDKit          3D

 54 58  0  0  0  0  0  0  0  0999 V2000
  138.9120   67.2680  224.1270 O   0  0  0  0  0  0  0  0  0  0  0  0
  139.1840   68.4890  224.0950 C   0  0  0  0  0  0  0  0  0  0  0  0
  138.8380   69.2460  222.8560 C   0  0  0  0  0  0  0  0  0  0  0  0
  139.2200   70.6730  222.9660 C   0  0  0  0  0  0  0  0  0  0  0  0
  138.9430   71.5320  221.8220 C   0  0  0  0  0  0  0  0  0  0  0  0
  139.1250   71.0070  220.5450 C   0  0  0  0  0  0  0  0  0  0  0  0
  138.8700   71.7910  219.4300 C   0  0  0  0  0  0  0  0  0  0  0  0
  138.4320   73.0990  219.5640 C   0  0  0  0  0  0  0  0  0  0  0  0
  138.2520   73.6210  220.8460 C   0  0  0  0  0  0  0  0  0  0  0  0
  137.7970   74.9760  221.0760 C   0  0  0  0  0  0  0  0  0  0  0  0
  136.6580   75.3290  220.6350 O   0  0  0  0  0  0  0  0  0  0  0  0
  138.5400   75.9650  221.7710 N   0  0  0  0  0  0  0  0  0  0  0  0
  137.9370   77.2770  221.9120 C   0  0  0  0  0  0  0  0  0  0  0  0
  138.8960   78.3000  221.3070 C   0  0  0  0  0  0  0  0  0  0  0  0
  140.1350   78.2190  222.0490 N   0  0  0  0  0  0  0  0  0  0  0  0
  140.8200   79.3860  222.5360 C   0  0  0  0  0  0  0  0  0  0  0  0
  140.4730   80.6640  222.1550 C   0  0  0  0  0  0  0  0  0  0  0  0
  141.1530   81.7720  222.6250 C   0  0  0  0  0  0  0  0  0  0  0  0
  142.2100   81.6600  223.4970 C   0  0  0  0  0  0  0  0  0  0  0  0
  142.5710   80.3900  223.8890 C   0  0  0  0  0  0  0  0  0  0  0  0
  141.8850   79.2760  223.4140 C   0  0  0  0  0  0  0  0  0  0  0  0
  140.7430   76.9470  222.3460 C   0  0  0  0  0  0  0  0  0  0  0  0
  139.8370   75.7690  222.3420 C   0  0  0  0  0  0  0  0  0  0  0  0
  138.5100   72.8250  221.9360 C   0  0  0  0  0  0  0  0  0  0  0  0
  139.7800   71.1900  224.0060 N   0  0  0  0  0  0  0  0  0  0  0  0
  140.1160   70.4970  225.1900 C   0  0  0  0  0  0  0  0  0  0  0  0
  140.7170   71.1470  226.2500 C   0  0  0  0  0  0  0  0  0  0  0  0
  141.0210   70.4200  227.3750 C   0  0  0  0  0  0  0  0  0  0  0  0
  140.7460   69.0550  227.4840 C   0  0  0  0  0  0  0  0  0  0  0  0
  141.1420   68.1450  228.9270 Cl  0  0  0  0  0  0  0  0  0  0  0  0
  140.1400   68.4410  226.3880 C   0  0  0  0  0  0  0  0  0  0  0  0
  139.8170   69.1310  225.2400 C   0  0  0  0  0  0  0  0  0  0  0  0
  139.3700   68.7984  222.0036 H   0  0  0  0  0  0  0  0  0  0  0  0
  137.7490   69.1909  222.7112 H   0  0  0  0  0  0  0  0  0  0  0  0
  139.4711   69.9703  220.4208 H   0  0  0  0  0  0  0  0  0  0  0  0
  139.0174   71.3688  218.4250 H   0  0  0  0  0  0  0  0  0  0  0  0
  138.2297   73.7151  218.6755 H   0  0  0  0  0  0  0  0  0  0  0  0
  136.9749   77.3056  221.3795 H   0  0  0  0  0  0  0  0  0  0  0  0
  137.7536   77.5032  222.9728 H   0  0  0  0  0  0  0  0  0  0  0  0
  139.0759   78.0666  220.2472 H   0  0  0  0  0  0  0  0  0  0  0  0
  138.4723   79.3134  221.3657 H   0  0  0  0  0  0  0  0  0  0  0  0
  139.6332   80.8062  221.4589 H   0  0  0  0  0  0  0  0  0  0  0  0
  140.8393   82.7722  222.2917 H   0  0  0  0  0  0  0  0  0  0  0  0
  142.7449   82.5475  223.8661 H   0  0  0  0  0  0  0  0  0  0  0  0
  143.4114   80.2545  224.5857 H   0  0  0  0  0  0  0  0  0  0  0  0
  142.1991   78.2757  223.7469 H   0  0  0  0  0  0  0  0  0  0  0  0
  141.5292   76.7681  221.5977 H   0  0  0  0  0  0  0  0  0  0  0  0
  141.1113   77.0312  223.3791 H   0  0  0  0  0  0  0  0  0  0  0  0
  140.3337   74.9669  221.7764 H   0  0  0  0  0  0  0  0  0  0  0  0
  139.6571   75.5357  223.4018 H   0  0  0  0  0  0  0  0  0  0  0  0
  138.3623   73.2447  222.9420 H   0  0  0  0  0  0  0  0  0  0  0  0
  140.9467   72.2213  226.1946 H   0  0  0  0  0  0  0  0  0  0  0  0
  141.4994   70.9325  228.2226 H   0  0  0  0  0  0  0  0  0  0  0  0
  139.9115   67.3664  226.4422 H   0  0  0  0  0  0  0  0  0  0  0  0
  1  2  2  0
  2  3  1  0
  3  4  1  0
  4  5  1  0
  5  6  2  0
  6  7  1  0
  7  8  2  0
  8  9  1  0
  9 10  1  0
 10 11  2  0
 10 12  1  0
 12 13  1  0
 13 14  1  0
 14 15  1  0
 15 16  1  0
 16 17  2  0
 17 18  1  0
 18 19  2  0
 19 20  1  0
 20 21  2  0
 15 22  1  0
 22 23  1  0
  9 24  2  0
  4 25  2  0
 25 26  1  0
 26 27  2  0
 27 28  1  0
 28 29  2  0
 29 30  1  0
 29 31  1  0
 31 32  2  0
 32  2  1  0
 24  5  1  0
 32 26  1  0
 23 12  1  0
 21 16  1  0
  3 33  1  0
  3 34  1  0
  6 35  1  0
  7 36  1  0
  8 37  1  0
 13 38  1  0
 13 39  1  0
 14 40  1  0
 14 41  1  0
 17 42  1  0
 18 43  1  0
 19 44  1  0
 20 45  1  0
 21 46  1  0
 22 47  1  0
 22 48  1  0
 23 49  1  0
 23 50  1  0
 24 51  1  0
 27 52  1  0
 28 53  1  0
 31 54  1  0
M  END
>  <smiles>  (8) 
O=C1CC(c2cccc(C(=O)N3CCN(c4ccccc4)CC3)c2)=Nc2ccc(Cl)cc21

>  <score_type>  (8) 
oracle

>  <origin>  (8) 
autodockgpu

>  <m_score__min__energy>  (8) 
-9.1099999999999994

>  <m_primary>  (8) 
energy

>  <rmsd>  (8) 
4.900624495123999

>  <m_score__min__rmsd>  (8) 
4.900624495123999

>  <meeko>  (8) 
{"free_energy": -8.93, "intermolecular_energy": -9.82, "internal_energy": -0.94, "cluster_size": 44, "cluster_id": 1, "rank_in_cluster": 29}

>  <energy>  (8) 
-9.07

>  <cluster_rmsd>  (8) 
0.61

>  <cluster>  (8) 
1

$$$$

     RDKit          3D

 54 58  0  0  0  0  0  0  0  0999 V2000
  139.1160   67.2630  224.3430 O   0  0  0  0  0  0  0  0  0  0  0  0
  139.1540   68.5110  224.4210 C   0  0  0  0  0  0  0  0  0  0  0  0
  138.5800   69.2960  223.2900 C   0  0  0  0  0  0  0  0  0  0  0  0
  138.6990   70.7530  223.5230 C   0  0  0  0  0  0  0  0  0  0  0  0
  138.1800   71.6430  222.4920 C   0  0  0  0  0  0  0  0  0  0  0  0
  136.8420   71.5170  222.1270 C   0  0  0  0  0  0  0  0  0  0  0  0
  136.3080   72.3450  221.1510 C   0  0  0  0  0  0  0  0  0  0  0  0
  137.0880   73.3060  220.5270 C   0  0  0  0  0  0  0  0  0  0  0  0
  138.4290   73.4280  220.8970 C   0  0  0  0  0  0  0  0  0  0  0  0
  139.3130   74.4050  220.2970 C   0  0  0  0  0  0  0  0  0  0  0  0
  139.9940   74.0790  219.2750 O   0  0  0  0  0  0  0  0  0  0  0  0
  139.4840   75.7310  220.7730 N   0  0  0  0  0  0  0  0  0  0  0  0
  140.4130   76.5840  220.0540 C   0  0  0  0  0  0  0  0  0  0  0  0
  141.4630   77.0750  221.0490 C   0  0  0  0  0  0  0  0  0  0  0  0
  140.7660   77.8210  222.0740 N   0  0  0  0  0  0  0  0  0  0  0  0
  141.2130   79.1090  222.5300 C   0  0  0  0  0  0  0  0  0  0  0  0
  140.7150   80.2900  222.0240 C   0  0  0  0  0  0  0  0  0  0  0  0
  141.1680   81.5190  222.4680 C   0  0  0  0  0  0  0  0  0  0  0  0
  142.1380   81.6290  223.4350 C   0  0  0  0  0  0  0  0  0  0  0  0
  142.6490   80.4600  223.9520 C   0  0  0  0  0  0  0  0  0  0  0  0
  142.1910   79.2230  223.5040 C   0  0  0  0  0  0  0  0  0  0  0  0
  139.5710   77.3020  222.6890 C   0  0  0  0  0  0  0  0  0  0  0  0
  138.8130   76.2930  221.9050 C   0  0  0  0  0  0  0  0  0  0  0  0
  138.9350   72.5970  221.8660 C   0  0  0  0  0  0  0  0  0  0  0  0
  139.2320   71.2730  224.5760 N   0  0  0  0  0  0  0  0  0  0  0  0
  139.7800   70.5540  225.6610 C   0  0  0  0  0  0  0  0  0  0  0  0
  140.3300   71.2090  226.7460 C   0  0  0  0  0  0  0  0  0  0  0  0
  140.8480   70.4560  227.7700 C   0  0  0  0  0  0  0  0  0  0  0  0
  140.8400   69.0590  227.7530 C   0  0  0  0  0  0  0  0  0  0  0  0
  141.5070   68.1160  229.0700 Cl  0  0  0  0  0  0  0  0  0  0  0  0
  140.2760   68.4410  226.6380 C   0  0  0  0  0  0  0  0  0  0  0  0
  139.7440   69.1570  225.5880 C   0  0  0  0  0  0  0  0  0  0  0  0
  139.1181   69.0370  222.3662 H   0  0  0  0  0  0  0  0  0  0  0  0
  137.5119   69.0470  223.2051 H   0  0  0  0  0  0  0  0  0  0  0  0
  136.2084   70.7604  222.6130 H   0  0  0  0  0  0  0  0  0  0  0  0
  135.2505   72.2376  220.8681 H   0  0  0  0  0  0  0  0  0  0  0  0
  136.6585   73.9606  219.7544 H   0  0  0  0  0  0  0  0  0  0  0  0
  140.8987   76.0131  219.2489 H   0  0  0  0  0  0  0  0  0  0  0  0
  139.8824   77.4360  219.6040 H   0  0  0  0  0  0  0  0  0  0  0  0
  141.9871   76.2180  221.4973 H   0  0  0  0  0  0  0  0  0  0  0  0
  142.2110   77.7065  220.5472 H   0  0  0  0  0  0  0  0  0  0  0  0
  139.9372   80.2544  221.2470 H   0  0  0  0  0  0  0  0  0  0  0  0
  140.7395   82.4347  222.0346 H   0  0  0  0  0  0  0  0  0  0  0  0
  142.4918   82.6111  223.7818 H   0  0  0  0  0  0  0  0  0  0  0  0
  143.4278   80.5031  224.7276 H   0  0  0  0  0  0  0  0  0  0  0  0
  142.6198   78.3076  223.9377 H   0  0  0  0  0  0  0  0  0  0  0  0
  139.8597   76.8373  223.6433 H   0  0  0  0  0  0  0  0  0  0  0  0
  138.8948   78.1637  222.7901 H   0  0  0  0  0  0  0  0  0  0  0  0
  138.5538   75.4674  222.5841 H   0  0  0  0  0  0  0  0  0  0  0  0
  137.9478   76.8331  221.4931 H   0  0  0  0  0  0  0  0  0  0  0  0
  139.9921   72.7028  222.1510 H   0  0  0  0  0  0  0  0  0  0  0  0
  140.3522   72.3080  226.7882 H   0  0  0  0  0  0  0  0  0  0  0  0
  141.2861   70.9721  228.6370 H   0  0  0  0  0  0  0  0  0  0  0  0
  140.2549   67.3420  226.5949 H   0  0  0  0  0  0  0  0  0  0  0  0
  1  2  2  0
  2  3  1  0
  3  4  1  0
  4  5  1  0
  5  6  2  0
  6  7  1  0
  7  8  2  0
  8  9  1  0
  9 10  1  0
 10 11  2  0
 10 12  1  0
 12 13  1  0
 13 14  1  0
 14 15  1  0
 15 16  1  0
 16 17  2  0
 17 18  1  0
 18 19  2  0
 19 20  1  0
 20 21  2  0
 15 22  1  0
 22 23  1  0
  9 24  2  0
  4 25  2  0
 25 26  1  0
 26 27  2  0
 27 28  1  0
 28 29  2  0
 29 30  1  0
 29 31  1  0
 31 32  2  0
 32  2  1  0
 24  5  1  0
 32 26  1  0
 23 12  1  0
 21 16  1  0
  3 33  1  0
  3 34  1  0
  6 35  1  0
  7 36  1  0
  8 37  1  0
 13 38  1  0
 13 39  1  0
 14 40  1  0
 14 41  1  0
 17 42  1  0
 18 43  1  0
 19 44  1  0
 20 45  1  0
 21 46  1  0
 22 47  1  0
 22 48  1  0
 23 49  1  0
 23 50  1  0
 24 51  1  0
 27 52  1  0
 28 53  1  0
 31 54  1  0
M  END
>  <smiles>  (9) 
O=C1CC(c2cccc(C(=O)N3CCN(c4ccccc4)CC3)c2)=Nc2ccc(Cl)cc21

>  <score_type>  (9) 
oracle

>  <origin>  (9) 
autodockgpu

>  <m_score__min__energy>  (9) 
-9.1099999999999994

>  <m_primary>  (9) 
energy

>  <rmsd>  (9) 
4.822835986563825

>  <m_score__min__rmsd>  (9) 
4.822835986563825

>  <meeko>  (9) 
{"free_energy": -9.06, "intermolecular_energy": -9.95, "internal_energy": -0.95, "cluster_size": 44, "cluster_id": 1, "rank_in_cluster": 10}

>  <energy>  (9) 
-9.07

>  <cluster_rmsd>  (9) 
0.71

>  <cluster>  (9) 
1

$$$$

     RDKit          3D

 54 58  0  0  0  0  0  0  0  0999 V2000
  139.1970   67.2310  224.4690 O   0  0  0  0  0  0  0  0  0  0  0  0
  139.2410   68.4800  224.5270 C   0  0  0  0  0  0  0  0  0  0  0  0
  138.6380   69.2500  223.4000 C   0  0  0  0  0  0  0  0  0  0  0  0
  138.7680   70.7110  223.6080 C   0  0  0  0  0  0  0  0  0  0  0  0
  138.2220   71.5870  222.5790 C   0  0  0  0  0  0  0  0  0  0  0  0
  136.8780   71.4480  222.2420 C   0  0  0  0  0  0  0  0  0  0  0  0
  136.3190   72.2630  221.2690 C   0  0  0  0  0  0  0  0  0  0  0  0
  137.0800   73.2230  220.6210 C   0  0  0  0  0  0  0  0  0  0  0  0
  138.4270   73.3580  220.9620 C   0  0  0  0  0  0  0  0  0  0  0  0
  139.2930   74.3350  220.3360 C   0  0  0  0  0  0  0  0  0  0  0  0
  139.9450   74.0070  219.2960 O   0  0  0  0  0  0  0  0  0  0  0  0
  139.4740   75.6620  220.8030 N   0  0  0  0  0  0  0  0  0  0  0  0
  140.3810   76.5150  220.0560 C   0  0  0  0  0  0  0  0  0  0  0  0
  141.4560   77.0110  221.0200 C   0  0  0  0  0  0  0  0  0  0  0  0
  140.7870   77.7580  222.0620 N   0  0  0  0  0  0  0  0  0  0  0  0
  141.2450   79.0480  222.5020 C   0  0  0  0  0  0  0  0  0  0  0  0
  142.1430   79.2060  223.5350 C   0  0  0  0  0  0  0  0  0  0  0  0
  142.5620   80.4560  223.9490 C   0  0  0  0  0  0  0  0  0  0  0  0
  142.1050   81.6090  223.3560 C   0  0  0  0  0  0  0  0  0  0  0  0
  141.2060   81.4720  222.3220 C   0  0  0  0  0  0  0  0  0  0  0  0
  140.7860   80.2110  221.9060 C   0  0  0  0  0  0  0  0  0  0  0  0
  139.6100   77.2390  222.7120 C   0  0  0  0  0  0  0  0  0  0  0  0
  138.8330   76.2260  221.9510 C   0  0  0  0  0  0  0  0  0  0  0  0
  138.9580   72.5390  221.9290 C   0  0  0  0  0  0  0  0  0  0  0  0
  139.3320   71.2440  224.6370 N   0  0  0  0  0  0  0  0  0  0  0  0
  139.9090   70.5390  225.7170 C   0  0  0  0  0  0  0  0  0  0  0  0
  140.4910   71.2090  226.7760 C   0  0  0  0  0  0  0  0  0  0  0  0
  141.0370   70.4680  227.7960 C   0  0  0  0  0  0  0  0  0  0  0  0
  141.0240   69.0720  227.8000 C   0  0  0  0  0  0  0  0  0  0  0  0
  141.7260   68.1460  229.1120 Cl  0  0  0  0  0  0  0  0  0  0  0  0
  140.4260   68.4390  226.7110 C   0  0  0  0  0  0  0  0  0  0  0  0
  139.8660   69.1410  225.6660 C   0  0  0  0  0  0  0  0  0  0  0  0
  139.1495   68.9753  222.4657 H   0  0  0  0  0  0  0  0  0  0  0  0
  137.5673   69.0033  223.3482 H   0  0  0  0  0  0  0  0  0  0  0  0
  136.2597   70.6917  222.7476 H   0  0  0  0  0  0  0  0  0  0  0  0
  135.2569   72.1458  221.0080 H   0  0  0  0  0  0  0  0  0  0  0  0
  136.6304   73.8675  219.8513 H   0  0  0  0  0  0  0  0  0  0  0  0
  140.8458   75.9427  219.2396 H   0  0  0  0  0  0  0  0  0  0  0  0
  139.8363   77.3644  219.6180 H   0  0  0  0  0  0  0  0  0  0  0  0
  141.9943   76.1564  221.4557 H   0  0  0  0  0  0  0  0  0  0  0  0
  142.1877   77.6433  220.4958 H   0  0  0  0  0  0  0  0  0  0  0  0
  142.5368   78.3136  224.0435 H   0  0  0  0  0  0  0  0  0  0  0  0
  143.2821   80.5307  224.7771 H   0  0  0  0  0  0  0  0  0  0  0  0
  142.4434   82.5998  223.6935 H   0  0  0  0  0  0  0  0  0  0  0  0
  140.8151   82.3687  221.8189 H   0  0  0  0  0  0  0  0  0  0  0  0
  140.0665   80.1362  221.0773 H   0  0  0  0  0  0  0  0  0  0  0  0
  139.9257   76.7776  223.6594 H   0  0  0  0  0  0  0  0  0  0  0  0
  138.9353   78.0997  222.8302 H   0  0  0  0  0  0  0  0  0  0  0  0
  138.5937   75.4018  222.6391 H   0  0  0  0  0  0  0  0  0  0  0  0
  137.9562   76.7636  221.5609 H   0  0  0  0  0  0  0  0  0  0  0  0
  140.0200   72.6539  222.1915 H   0  0  0  0  0  0  0  0  0  0  0  0
  140.5166   72.3084  226.8018 H   0  0  0  0  0  0  0  0  0  0  0  0
  141.5023   70.9950  228.6421 H   0  0  0  0  0  0  0  0  0  0  0  0
  140.4004   67.3396  226.6852 H   0  0  0  0  0  0  0  0  0  0  0  0
  1  2  2  0
  2  3  1  0
  3  4  1  0
  4  5  1  0
  5  6  2  0
  6  7  1  0
  7  8  2  0
  8  9  1  0
  9 10  1  0
 10 11  2  0
 10 12  1  0
 12 13  1  0
 13 14  1  0
 14 15  1  0
 15 16  1  0
 16 17  2  0
 17 18  1  0
 18 19  2  0
 19 20  1  0
 20 21  2  0
 15 22  1  0
 22 23  1  0
  9 24  2  0
  4 25  2  0
 25 26  1  0
 26 27  2  0
 27 28  1  0
 28 29  2  0
 29 30  1  0
 29 31  1  0
 31 32  2  0
 32  2  1  0
 24  5  1  0
 32 26  1  0
 23 12  1  0
 21 16  1  0
  3 33  1  0
  3 34  1  0
  6 35  1  0
  7 36  1  0
  8 37  1  0
 13 38  1  0
 13 39  1  0
 14 40  1  0
 14 41  1  0
 17 42  1  0
 18 43  1  0
 19 44  1  0
 20 45  1  0
 21 46  1  0
 22 47  1  0
 22 48  1  0
 23 49  1  0
 23 50  1  0
 24 51  1  0
 27 52  1  0
 28 53  1  0
 31 54  1  0
M  END
>  <smiles>  (10) 
O=C1CC(c2cccc(C(=O)N3CCN(c4ccccc4)CC3)c2)=Nc2ccc(Cl)cc21

>  <score_type>  (10) 
oracle

>  <origin>  (10) 
autodockgpu

>  <m_score__min__energy>  (10) 
-9.1099999999999994

>  <m_primary>  (10) 
energy

>  <rmsd>  (10) 
4.499200662711014

>  <m_score__min__rmsd>  (10) 
4.499200662711014

>  <meeko>  (10) 
{"free_energy": -9.07, "intermolecular_energy": -9.96, "internal_energy": -0.95, "cluster_size": 44, "cluster_id": 1, "rank_in_cluster": 7}

>  <energy>  (10) 
-9.06

>  <cluster_rmsd>  (10) 
0.56

>  <cluster>  (10) 
1

$$$$

     RDKit          3D

 54 58  0  0  0  0  0  0  0  0999 V2000
  138.9560   67.2520  224.1730 O   0  0  0  0  0  0  0  0  0  0  0  0
  139.2010   68.4790  224.1420 C   0  0  0  0  0  0  0  0  0  0  0  0
  138.8270   69.2310  222.9090 C   0  0  0  0  0  0  0  0  0  0  0  0
  139.1790   70.6650  223.0200 C   0  0  0  0  0  0  0  0  0  0  0  0
  138.8720   71.5220  221.8810 C   0  0  0  0  0  0  0  0  0  0  0  0
  139.0160   70.9920  220.6010 C   0  0  0  0  0  0  0  0  0  0  0  0
  138.7320   71.7720  219.4900 C   0  0  0  0  0  0  0  0  0  0  0  0
  138.3030   73.0820  219.6320 C   0  0  0  0  0  0  0  0  0  0  0  0
  138.1600   73.6090  220.9170 C   0  0  0  0  0  0  0  0  0  0  0  0
  137.7160   74.9660  221.1540 C   0  0  0  0  0  0  0  0  0  0  0  0
  136.5660   75.3220  220.7460 O   0  0  0  0  0  0  0  0  0  0  0  0
  138.4830   75.9560  221.8220 N   0  0  0  0  0  0  0  0  0  0  0  0
  137.8880   77.2710  221.9760 C   0  0  0  0  0  0  0  0  0  0  0  0
  138.8310   78.2880  221.3380 C   0  0  0  0  0  0  0  0  0  0  0  0
  140.0910   78.2060  222.0450 N   0  0  0  0  0  0  0  0  0  0  0  0
  140.7940   79.3730  222.5060 C   0  0  0  0  0  0  0  0  0  0  0  0
  140.4800   80.6460  222.0800 C   0  0  0  0  0  0  0  0  0  0  0  0
  141.1760   81.7530  222.5270 C   0  0  0  0  0  0  0  0  0  0  0  0
  142.2170   81.6460  223.4180 C   0  0  0  0  0  0  0  0  0  0  0  0
  142.5460   80.3820  223.8550 C   0  0  0  0  0  0  0  0  0  0  0  0
  141.8430   79.2680  223.4030 C   0  0  0  0  0  0  0  0  0  0  0  0
  140.7040   76.9340  222.3280 C   0  0  0  0  0  0  0  0  0  0  0  0
  139.7950   75.7580  222.3560 C   0  0  0  0  0  0  0  0  0  0  0  0
  138.4460   72.8170  222.0010 C   0  0  0  0  0  0  0  0  0  0  0  0
  139.7370   71.1920  224.0550 N   0  0  0  0  0  0  0  0  0  0  0  0
  140.0990   70.5040  225.2340 C   0  0  0  0  0  0  0  0  0  0  0  0
  140.6950   71.1650  226.2910 C   0  0  0  0  0  0  0  0  0  0  0  0
  141.0250   70.4410  227.4110 C   0  0  0  0  0  0  0  0  0  0  0  0
  140.7820   69.0700  227.5180 C   0  0  0  0  0  0  0  0  0  0  0  0
  141.2110   68.1660  228.9550 Cl  0  0  0  0  0  0  0  0  0  0  0  0
  140.1790   68.4460  226.4260 C   0  0  0  0  0  0  0  0  0  0  0  0
  139.8310   69.1310  225.2830 C   0  0  0  0  0  0  0  0  0  0  0  0
  139.3605   68.7975  222.0503 H   0  0  0  0  0  0  0  0  0  0  0  0
  137.7382   69.1524  222.7739 H   0  0  0  0  0  0  0  0  0  0  0  0
  139.3553   69.9537  220.4712 H   0  0  0  0  0  0  0  0  0  0  0  0
  138.8488   71.3452  218.4829 H   0  0  0  0  0  0  0  0  0  0  0  0
  138.0789   73.6962  218.7474 H   0  0  0  0  0  0  0  0  0  0  0  0
  136.9102   77.3005  221.4729 H   0  0  0  0  0  0  0  0  0  0  0  0
  137.7375   77.5021  223.0409 H   0  0  0  0  0  0  0  0  0  0  0  0
  138.9793   78.0490  220.2746 H   0  0  0  0  0  0  0  0  0  0  0  0
  138.4122   79.3031  221.4031 H   0  0  0  0  0  0  0  0  0  0  0  0
  139.6545   80.7841  221.3662 H   0  0  0  0  0  0  0  0  0  0  0  0
  140.8885   82.7489  222.1589 H   0  0  0  0  0  0  0  0  0  0  0  0
  142.7649   82.5334  223.7677 H   0  0  0  0  0  0  0  0  0  0  0  0
  143.3728   80.2510  224.5686 H   0  0  0  0  0  0  0  0  0  0  0  0
  142.1308   78.2721  223.7709 H   0  0  0  0  0  0  0  0  0  0  0  0
  141.4666   76.7502  221.5568 H   0  0  0  0  0  0  0  0  0  0  0  0
  141.1036   77.0210  223.3492 H   0  0  0  0  0  0  0  0  0  0  0  0
  140.2727   74.9518  221.7799 H   0  0  0  0  0  0  0  0  0  0  0  0
  139.6456   75.5293  223.4215 H   0  0  0  0  0  0  0  0  0  0  0  0
  138.3278   73.2412  223.0090 H   0  0  0  0  0  0  0  0  0  0  0  0
  140.9002   72.2443  226.2370 H   0  0  0  0  0  0  0  0  0  0  0  0
  141.4990   70.9614  228.2562 H   0  0  0  0  0  0  0  0  0  0  0  0
  139.9738   67.3666  226.4797 H   0  0  0  0  0  0  0  0  0  0  0  0
  1  2  2  0
  2  3  1  0
  3  4  1  0
  4  5  1  0
  5  6  2  0
  6  7  1  0
  7  8  2  0
  8  9  1  0
  9 10  1  0
 10 11  2  0
 10 12  1  0
 12 13  1  0
 13 14  1  0
 14 15  1  0
 15 16  1  0
 16 17  2  0
 17 18  1  0
 18 19  2  0
 19 20  1  0
 20 21  2  0
 15 22  1  0
 22 23  1  0
  9 24  2  0
  4 25  2  0
 25 26  1  0
 26 27  2  0
 27 28  1  0
 28 29  2  0
 29 30  1  0
 29 31  1  0
 31 32  2  0
 32  2  1  0
 24  5  1  0
 32 26  1  0
 23 12  1  0
 21 16  1  0
  3 33  1  0
  3 34  1  0
  6 35  1  0
  7 36  1  0
  8 37  1  0
 13 38  1  0
 13 39  1  0
 14 40  1  0
 14 41  1  0
 17 42  1  0
 18 43  1  0
 19 44  1  0
 20 45  1  0
 21 46  1  0
 22 47  1  0
 22 48  1  0
 23 49  1  0
 23 50  1  0
 24 51  1  0
 27 52  1  0
 28 53  1  0
 31 54  1  0
M  END
>  <smiles>  (11) 
O=C1CC(c2cccc(C(=O)N3CCN(c4ccccc4)CC3)c2)=Nc2ccc(Cl)cc21

>  <score_type>  (11) 
oracle

>  <origin>  (11) 
autodockgpu

>  <m_score__min__energy>  (11) 
-9.1099999999999994

>  <m_primary>  (11) 
energy

>  <rmsd>  (11) 
4.880222955115974

>  <m_score__min__rmsd>  (11) 
4.880222955115974

>  <meeko>  (11) 
{"free_energy": -8.94, "intermolecular_energy": -9.83, "internal_energy": -0.95, "cluster_size": 44, "cluster_id": 1, "rank_in_cluster": 24}

>  <energy>  (11) 
-9.06

>  <cluster_rmsd>  (11) 
0.6

>  <cluster>  (11) 
1

$$$$

     RDKit          3D

 54 58  0  0  0  0  0  0  0  0999 V2000
  139.1730   67.1770  224.3450 O   0  0  0  0  0  0  0  0  0  0  0  0
  139.2100   68.4270  224.3940 C   0  0  0  0  0  0  0  0  0  0  0  0
  138.6550   69.1840  223.2350 C   0  0  0  0  0  0  0  0  0  0  0  0
  138.7700   70.6470  223.4370 C   0  0  0  0  0  0  0  0  0  0  0  0
  138.2680   71.5130  222.3760 C   0  0  0  0  0  0  0  0  0  0  0  0
  136.9540   71.3350  221.9500 C   0  0  0  0  0  0  0  0  0  0  0  0
  136.4360   72.1390  220.9450 C   0  0  0  0  0  0  0  0  0  0  0  0
  137.2090   73.1250  220.3530 C   0  0  0  0  0  0  0  0  0  0  0  0
  138.5260   73.2990  220.7840 C   0  0  0  0  0  0  0  0  0  0  0  0
  139.4010   74.3050  220.2200 C   0  0  0  0  0  0  0  0  0  0  0  0
  140.0860   74.0210  219.1880 O   0  0  0  0  0  0  0  0  0  0  0  0
  139.5570   75.6150  220.7420 N   0  0  0  0  0  0  0  0  0  0  0  0
  140.4780   76.5020  220.0540 C   0  0  0  0  0  0  0  0  0  0  0  0
  141.5210   76.9690  221.0680 C   0  0  0  0  0  0  0  0  0  0  0  0
  140.8150   77.6710  222.1170 N   0  0  0  0  0  0  0  0  0  0  0  0
  141.2480   78.9480  222.6180 C   0  0  0  0  0  0  0  0  0  0  0  0
  142.5760   79.2500  222.8320 C   0  0  0  0  0  0  0  0  0  0  0  0
  142.9710   80.4790  223.3250 C   0  0  0  0  0  0  0  0  0  0  0  0
  142.0630   81.4660  223.6290 C   0  0  0  0  0  0  0  0  0  0  0  0
  140.7310   81.1820  223.4220 C   0  0  0  0  0  0  0  0  0  0  0  0
  140.3360   79.9430  222.9250 C   0  0  0  0  0  0  0  0  0  0  0  0
  139.6240   77.1200  222.7110 C   0  0  0  0  0  0  0  0  0  0  0  0
  138.8780   76.1300  221.8910 C   0  0  0  0  0  0  0  0  0  0  0  0
  139.0160   72.4910  221.7810 C   0  0  0  0  0  0  0  0  0  0  0  0
  139.2860   71.1920  224.4850 N   0  0  0  0  0  0  0  0  0  0  0  0
  139.8160   70.4980  225.5950 C   0  0  0  0  0  0  0  0  0  0  0  0
  140.3480   71.1790  226.6740 C   0  0  0  0  0  0  0  0  0  0  0  0
  140.8500   70.4500  227.7240 C   0  0  0  0  0  0  0  0  0  0  0  0
  140.8420   69.0530  227.7390 C   0  0  0  0  0  0  0  0  0  0  0  0
  141.4880   68.1410  229.0890 Cl  0  0  0  0  0  0  0  0  0  0  0  0
  140.2960   68.4090  226.6300 C   0  0  0  0  0  0  0  0  0  0  0  0
  139.7810   69.1000  225.5540 C   0  0  0  0  0  0  0  0  0  0  0  0
  139.2089   68.9039  222.3268 H   0  0  0  0  0  0  0  0  0  0  0  0
  137.5888   68.9319  223.1367 H   0  0  0  0  0  0  0  0  0  0  0  0
  136.3270   70.5571  222.4103 H   0  0  0  0  0  0  0  0  0  0  0  0
  135.3975   71.9918  220.6136 H   0  0  0  0  0  0  0  0  0  0  0  0
  136.7924   73.7599  219.5571 H   0  0  0  0  0  0  0  0  0  0  0  0
  140.9709   75.9643  219.2307 H   0  0  0  0  0  0  0  0  0  0  0  0
  139.9394   77.3633  219.6320 H   0  0  0  0  0  0  0  0  0  0  0  0
  142.0534   76.1024  221.4870 H   0  0  0  0  0  0  0  0  0  0  0  0
  142.2628   77.6258  220.5901 H   0  0  0  0  0  0  0  0  0  0  0  0
  143.3410   78.4930  222.6044 H   0  0  0  0  0  0  0  0  0  0  0  0
  144.0427   80.6734  223.4787 H   0  0  0  0  0  0  0  0  0  0  0  0
  142.3867   82.4414  224.0210 H   0  0  0  0  0  0  0  0  0  0  0  0
  139.9707   81.9430  223.6521 H   0  0  0  0  0  0  0  0  0  0  0  0
  139.2643   79.7484  222.7713 H   0  0  0  0  0  0  0  0  0  0  0  0
  139.9150   76.6265  223.6500 H   0  0  0  0  0  0  0  0  0  0  0  0
  138.9389   77.9710  222.8394 H   0  0  0  0  0  0  0  0  0  0  0  0
  138.6268   75.2787  222.5408 H   0  0  0  0  0  0  0  0  0  0  0  0
  138.0074   76.6743  221.4963 H   0  0  0  0  0  0  0  0  0  0  0  0
  140.0539   72.6368  222.1149 H   0  0  0  0  0  0  0  0  0  0  0  0
  140.3688   72.2787  226.6911 H   0  0  0  0  0  0  0  0  0  0  0  0
  141.2744   70.9862  228.5856 H   0  0  0  0  0  0  0  0  0  0  0  0
  140.2753   67.3093  226.6127 H   0  0  0  0  0  0  0  0  0  0  0  0
  1  2  2  0
  2  3  1  0
  3  4  1  0
  4  5  1  0
  5  6  2  0
  6  7  1  0
  7  8  2  0
  8  9  1  0
  9 10  1  0
 10 11  2  0
 10 12  1  0
 12 13  1  0
 13 14  1  0
 14 15  1  0
 15 16  1  0
 16 17  2  0
 17 18  1  0
 18 19  2  0
 19 20  1  0
 20 21  2  0
 15 22  1  0
 22 23  1  0
  9 24  2  0
  4 25  2  0
 25 26  1  0
 26 27  2  0
 27 28  1  0
 28 29  2  0
 29 30  1  0
 29 31  1  0
 31 32  2  0
 32  2  1  0
 24  5  1  0
 32 26  1  0
 23 12  1  0
 21 16  1  0
  3 33  1  0
  3 34  1  0
  6 35  1  0
  7 36  1  0
  8 37  1  0
 13 38  1  0
 13 39  1  0
 14 40  1  0
 14 41  1  0
 17 42  1  0
 18 43  1  0
 19 44  1  0
 20 45  1  0
 21 46  1  0
 22 47  1  0
 22 48  1  0
 23 49  1  0
 23 50  1  0
 24 51  1  0
 27 52  1  0
 28 53  1  0
 31 54  1  0
M  END
>  <smiles>  (12) 
O=C1CC(c2cccc(C(=O)N3CCN(c4ccccc4)CC3)c2)=Nc2ccc(Cl)cc21

>  <score_type>  (12) 
oracle

>  <origin>  (12) 
autodockgpu

>  <m_score__min__energy>  (12) 
-9.1099999999999994

>  <m_primary>  (12) 
energy

>  <rmsd>  (12) 
4.673559573479561

>  <m_score__min__rmsd>  (12) 
4.673559573479561

>  <meeko>  (12) 
{"free_energy": -9.08, "intermolecular_energy": -9.97, "internal_energy": -0.96, "cluster_size": 44, "cluster_id": 1, "rank_in_cluster": 5}

>  <energy>  (12) 
-9.05

>  <cluster_rmsd>  (12) 
0.54

>  <cluster>  (12) 
1

$$$$

     RDKit          3D

 54 58  0  0  0  0  0  0  0  0999 V2000
  141.3780   72.3270  226.6370 O   0  0  0  0  0  0  0  0  0  0  0  0
  140.8700   71.4990  225.8500 C   0  0  0  0  0  0  0  0  0  0  0  0
  140.4430   71.9880  224.5060 C   0  0  0  0  0  0  0  0  0  0  0  0
  139.8600   70.8980  223.6910 C   0  0  0  0  0  0  0  0  0  0  0  0
  139.3950   71.2360  222.3510 C   0  0  0  0  0  0  0  0  0  0  0  0
  138.4400   70.4140  221.7590 C   0  0  0  0  0  0  0  0  0  0  0  0
  137.9690   70.7020  220.4870 C   0  0  0  0  0  0  0  0  0  0  0  0
  138.4360   71.8030  219.7870 C   0  0  0  0  0  0  0  0  0  0  0  0
  139.3950   72.6240  220.3850 C   0  0  0  0  0  0  0  0  0  0  0  0
  139.9350   73.7940  219.7250 C   0  0  0  0  0  0  0  0  0  0  0  0
  140.3970   73.6810  218.5460 O   0  0  0  0  0  0  0  0  0  0  0  0
  139.9910   75.0880  220.3040 N   0  0  0  0  0  0  0  0  0  0  0  0
  140.5660   76.1530  219.5040 C   0  0  0  0  0  0  0  0  0  0  0  0
  141.7260   76.7570  220.2940 C   0  0  0  0  0  0  0  0  0  0  0  0
  141.1790   77.2760  221.5290 N   0  0  0  0  0  0  0  0  0  0  0  0
  141.5020   78.5870  222.0240 C   0  0  0  0  0  0  0  0  0  0  0  0
  141.5120   79.7040  221.2170 C   0  0  0  0  0  0  0  0  0  0  0  0
  141.8370   80.9540  221.7100 C   0  0  0  0  0  0  0  0  0  0  0  0
  142.1670   81.1510  223.0300 C   0  0  0  0  0  0  0  0  0  0  0  0
  142.1630   80.0460  223.8520 C   0  0  0  0  0  0  0  0  0  0  0  0
  141.8350   78.7880  223.3530 C   0  0  0  0  0  0  0  0  0  0  0  0
  140.2690   76.4950  222.3270 C   0  0  0  0  0  0  0  0  0  0  0  0
  139.5250   75.4230  221.6150 C   0  0  0  0  0  0  0  0  0  0  0  0
  139.8450   72.3190  221.6460 C   0  0  0  0  0  0  0  0  0  0  0  0
  139.7410   69.6800  224.0960 N   0  0  0  0  0  0  0  0  0  0  0  0
  140.1380   69.1910  225.3600 C   0  0  0  0  0  0  0  0  0  0  0  0
  139.9660   67.8620  225.6960 C   0  0  0  0  0  0  0  0  0  0  0  0
  140.3710   67.4460  226.9410 C   0  0  0  0  0  0  0  0  0  0  0  0
  140.9480   68.3130  227.8720 C   0  0  0  0  0  0  0  0  0  0  0  0
  141.4570   67.7620  229.4550 Cl  0  0  0  0  0  0  0  0  0  0  0  0
  141.1010   69.6450  227.4880 C   0  0  0  0  0  0  0  0  0  0  0  0
  140.7090   70.1070  226.2510 C   0  0  0  0  0  0  0  0  0  0  0  0
  139.6896   72.7788  224.6363 H   0  0  0  0  0  0  0  0  0  0  0  0
  141.3298   72.3739  223.9818 H   0  0  0  0  0  0  0  0  0  0  0  0
  138.0589   69.5357  222.3006 H   0  0  0  0  0  0  0  0  0  0  0  0
  137.2141   70.0473  220.0272 H   0  0  0  0  0  0  0  0  0  0  0  0
  138.0582   72.0265  218.7784 H   0  0  0  0  0  0  0  0  0  0  0  0
  140.9341   75.7474  218.5501 H   0  0  0  0  0  0  0  0  0  0  0  0
  139.8091   76.9208  219.2856 H   0  0  0  0  0  0  0  0  0  0  0  0
  142.4776   75.9835  220.5105 H   0  0  0  0  0  0  0  0  0  0  0  0
  142.2162   77.5558  219.7182 H   0  0  0  0  0  0  0  0  0  0  0  0
  141.2546   79.5983  220.1528 H   0  0  0  0  0  0  0  0  0  0  0  0
  141.8314   81.8158  221.0265 H   0  0  0  0  0  0  0  0  0  0  0  0
  142.4235   82.1495  223.4136 H   0  0  0  0  0  0  0  0  0  0  0  0
  142.4219   80.1585  224.9152 H   0  0  0  0  0  0  0  0  0  0  0  0
  141.8406   77.9262  224.0365 H   0  0  0  0  0  0  0  0  0  0  0  0
  140.8501   76.0220  223.1324 H   0  0  0  0  0  0  0  0  0  0  0  0
  139.5027   77.2025  222.6765 H   0  0  0  0  0  0  0  0  0  0  0  0
  139.5772   74.5134  222.2313 H   0  0  0  0  0  0  0  0  0  0  0  0
  138.5086   75.8184  221.4717 H   0  0  0  0  0  0  0  0  0  0  0  0
  140.5989   72.9728  222.1088 H   0  0  0  0  0  0  0  0  0  0  0  0
  139.5159   67.1544  224.9842 H   0  0  0  0  0  0  0  0  0  0  0  0
  140.2357   66.3894  227.2154 H   0  0  0  0  0  0  0  0  0  0  0  0
  141.5514   70.3529  228.1994 H   0  0  0  0  0  0  0  0  0  0  0  0
  1  2  2  0
  2  3  1  0
  3  4  1  0
  4  5  1  0
  5  6  2  0
  6  7  1  0
  7  8  2  0
  8  9  1  0
  9 10  1  0
 10 11  2  0
 10 12  1  0
 12 13  1  0
 13 14  1  0
 14 15  1  0
 15 16  1  0
 16 17  2  0
 17 18  1  0
 18 19  2  0
 19 20  1  0
 20 21  2  0
 15 22  1  0
 22 23  1  0
  9 24  2  0
  4 25  2  0
 25 26  1  0
 26 27  2  0
 27 28  1  0
 28 29  2  0
 29 30  1  0
 29 31  1  0
 31 32  2  0
 32  2  1  0
 24  5  1  0
 32 26  1  0
 23 12  1  0
 21 16  1  0
  3 33  1  0
  3 34  1  0
  6 35  1  0
  7 36  1  0
  8 37  1  0
 13 38  1  0
 13 39  1  0
 14 40  1  0
 14 41  1  0
 17 42  1  0
 18 43  1  0
 19 44  1  0
 20 45  1  0
 21 46  1  0
 22 47  1  0
 22 48  1  0
 23 49  1  0
 23 50  1  0
 24 51  1  0
 27 52  1  0
 28 53  1  0
 31 54  1  0
M  END
>  <smiles>  (13) 
O=C1CC(c2cccc(C(=O)N3CCN(c4ccccc4)CC3)c2)=Nc2ccc(Cl)cc21

>  <score_type>  (13) 
oracle

>  <origin>  (13) 
autodockgpu

>  <m_score__min__energy>  (13) 
-9.1099999999999994

>  <m_primary>  (13) 
energy

>  <rmsd>  (13) 
4.606927925974902

>  <m_score__min__rmsd>  (13) 
4.606927925974902

>  <meeko>  (13) 
{"free_energy": -8.54, "intermolecular_energy": -9.44, "internal_energy": -0.97, "cluster_size": 44, "cluster_id": 1, "rank_in_cluster": 43}

>  <energy>  (13) 
-9.04

>  <cluster_rmsd>  (13) 
0.57

>  <cluster>  (13) 
1

$$$$

     RDKit          3D

 54 58  0  0  0  0  0  0  0  0999 V2000
  138.8790   67.5030  224.1360 O   0  0  0  0  0  0  0  0  0  0  0  0
  139.0770   68.7360  224.0630 C   0  0  0  0  0  0  0  0  0  0  0  0
  138.5900   69.4480  222.8450 C   0  0  0  0  0  0  0  0  0  0  0  0
  138.8970   70.8950  222.9020 C   0  0  0  0  0  0  0  0  0  0  0  0
  138.4800   71.7150  221.7710 C   0  0  0  0  0  0  0  0  0  0  0  0
  137.2510   71.4410  221.1780 C   0  0  0  0  0  0  0  0  0  0  0  0
  136.8150   72.1990  220.1010 C   0  0  0  0  0  0  0  0  0  0  0  0
  137.5890   73.2340  219.6000 C   0  0  0  0  0  0  0  0  0  0  0  0
  138.8210   73.5050  220.1980 C   0  0  0  0  0  0  0  0  0  0  0  0
  139.6890   74.5670  219.7390 C   0  0  0  0  0  0  0  0  0  0  0  0
  140.3930   74.3840  218.6960 O   0  0  0  0  0  0  0  0  0  0  0  0
  139.8200   75.8290  220.3760 N   0  0  0  0  0  0  0  0  0  0  0  0
  140.7390   76.7840  219.7830 C   0  0  0  0  0  0  0  0  0  0  0  0
  141.7600   77.1730  220.8500 C   0  0  0  0  0  0  0  0  0  0  0  0
  141.0300   77.7710  221.9450 N   0  0  0  0  0  0  0  0  0  0  0  0
  141.4380   79.0040  222.5630 C   0  0  0  0  0  0  0  0  0  0  0  0
  142.7610   79.3690  222.6880 C   0  0  0  0  0  0  0  0  0  0  0  0
  143.1340   80.5540  223.2960 C   0  0  0  0  0  0  0  0  0  0  0  0
  142.2070   81.4300  223.8090 C   0  0  0  0  0  0  0  0  0  0  0  0
  140.8800   81.0810  223.6940 C   0  0  0  0  0  0  0  0  0  0  0  0
  140.5070   79.8880  223.0800 C   0  0  0  0  0  0  0  0  0  0  0  0
  139.8390   77.1540  222.4710 C   0  0  0  0  0  0  0  0  0  0  0  0
  139.1180   76.2320  221.5550 C   0  0  0  0  0  0  0  0  0  0  0  0
  139.2300   72.7410  221.2640 C   0  0  0  0  0  0  0  0  0  0  0  0
  139.5080   71.4640  223.8850 N   0  0  0  0  0  0  0  0  0  0  0  0
  139.9760   70.8150  225.0490 C   0  0  0  0  0  0  0  0  0  0  0  0
  140.6210   71.5190  226.0470 C   0  0  0  0  0  0  0  0  0  0  0  0
  141.0550   70.8320  227.1550 C   0  0  0  0  0  0  0  0  0  0  0  0
  140.8690   69.4560  227.3060 C   0  0  0  0  0  0  0  0  0  0  0  0
  141.4300   68.5990  228.7270 Cl  0  0  0  0  0  0  0  0  0  0  0  0
  140.2130   68.7880  226.2730 C   0  0  0  0  0  0  0  0  0  0  0  0
  139.7610   69.4350  225.1440 C   0  0  0  0  0  0  0  0  0  0  0  0
  139.0767   69.0142  221.9591 H   0  0  0  0  0  0  0  0  0  0  0  0
  137.4978   69.3293  222.7900 H   0  0  0  0  0  0  0  0  0  0  0  0
  136.6250   70.6228  221.5636 H   0  0  0  0  0  0  0  0  0  0  0  0
  135.8422   71.9757  219.6385 H   0  0  0  0  0  0  0  0  0  0  0  0
  137.2384   73.8317  218.7457 H   0  0  0  0  0  0  0  0  0  0  0  0
  141.2514   76.3265  218.9238 H   0  0  0  0  0  0  0  0  0  0  0  0
  140.1951   77.6723  219.4294 H   0  0  0  0  0  0  0  0  0  0  0  0
  142.2982   76.2796  221.1996 H   0  0  0  0  0  0  0  0  0  0  0  0
  142.4992   77.8786  220.4431 H   0  0  0  0  0  0  0  0  0  0  0  0
  143.5407   78.7005  222.2940 H   0  0  0  0  0  0  0  0  0  0  0  0
  144.2029   80.8026  223.3712 H   0  0  0  0  0  0  0  0  0  0  0  0
  142.5125   82.3703  224.2911 H   0  0  0  0  0  0  0  0  0  0  0  0
  140.1051   81.7527  224.0919 H   0  0  0  0  0  0  0  0  0  0  0  0
  139.4380   79.6403  223.0035 H   0  0  0  0  0  0  0  0  0  0  0  0
  140.1247   76.5821  223.3662 H   0  0  0  0  0  0  0  0  0  0  0  0
  139.1405   77.9812  222.6657 H   0  0  0  0  0  0  0  0  0  0  0  0
  138.8685   75.3236  222.1228 H   0  0  0  0  0  0  0  0  0  0  0  0
  138.2463   76.7990  221.1964 H   0  0  0  0  0  0  0  0  0  0  0  0
  140.2014   72.9635  221.7296 H   0  0  0  0  0  0  0  0  0  0  0  0
  140.7833   72.6032  225.9570 H   0  0  0  0  0  0  0  0  0  0  0  0
  141.5686   71.3870  227.9538 H   0  0  0  0  0  0  0  0  0  0  0  0
  140.0503   67.7038  226.3629 H   0  0  0  0  0  0  0  0  0  0  0  0
  1  2  2  0
  2  3  1  0
  3  4  1  0
  4  5  1  0
  5  6  2  0
  6  7  1  0
  7  8  2  0
  8  9  1  0
  9 10  1  0
 10 11  2  0
 10 12  1  0
 12 13  1  0
 13 14  1  0
 14 15  1  0
 15 16  1  0
 16 17  2  0
 17 18  1  0
 18 19  2  0
 19 20  1  0
 20 21  2  0
 15 22  1  0
 22 23  1  0
  9 24  2  0
  4 25  2  0
 25 26  1  0
 26 27  2  0
 27 28  1  0
 28 29  2  0
 29 30  1  0
 29 31  1  0
 31 32  2  0
 32  2  1  0
 24  5  1  0
 32 26  1  0
 23 12  1  0
 21 16  1  0
  3 33  1  0
  3 34  1  0
  6 35  1  0
  7 36  1  0
  8 37  1  0
 13 38  1  0
 13 39  1  0
 14 40  1  0
 14 41  1  0
 17 42  1  0
 18 43  1  0
 19 44  1  0
 20 45  1  0
 21 46  1  0
 22 47  1  0
 22 48  1  0
 23 49  1  0
 23 50  1  0
 24 51  1  0
 27 52  1  0
 28 53  1  0
 31 54  1  0
M  END
>  <smiles>  (14) 
O=C1CC(c2cccc(C(=O)N3CCN(c4ccccc4)CC3)c2)=Nc2ccc(Cl)cc21

>  <score_type>  (14) 
oracle

>  <origin>  (14) 
autodockgpu

>  <m_score__min__energy>  (14) 
-9.1099999999999994

>  <m_primary>  (14) 
energy

>  <rmsd>  (14) 
4.875729917435503

>  <m_score__min__rmsd>  (14) 
4.875729917435503

>  <meeko>  (14) 
{"free_energy": -8.79, "intermolecular_energy": -9.69, "internal_energy": -0.98, "cluster_size": 44, "cluster_id": 1, "rank_in_cluster": 40}

>  <energy>  (14) 
-9.04

>  <cluster_rmsd>  (14) 
0.21

>  <cluster>  (14) 
1

$$$$

     RDKit          3D

 54 58  0  0  0  0  0  0  0  0999 V2000
  138.9620   67.2750  224.1530 O   0  0  0  0  0  0  0  0  0  0  0  0
  139.1940   68.5030  224.1140 C   0  0  0  0  0  0  0  0  0  0  0  0
  138.7960   69.2470  222.8840 C   0  0  0  0  0  0  0  0  0  0  0  0
  139.1350   70.6850  222.9840 C   0  0  0  0  0  0  0  0  0  0  0  0
  138.8030   71.5350  221.8470 C   0  0  0  0  0  0  0  0  0  0  0  0
  138.9120   70.9930  220.5680 C   0  0  0  0  0  0  0  0  0  0  0  0
  138.6040   71.7660  219.4590 C   0  0  0  0  0  0  0  0  0  0  0  0
  138.1860   73.0800  219.6000 C   0  0  0  0  0  0  0  0  0  0  0  0
  138.0780   73.6180  220.8840 C   0  0  0  0  0  0  0  0  0  0  0  0
  137.6480   74.9800  221.1220 C   0  0  0  0  0  0  0  0  0  0  0  0
  136.5060   75.3500  220.7030 O   0  0  0  0  0  0  0  0  0  0  0  0
  138.4190   75.9580  221.8020 N   0  0  0  0  0  0  0  0  0  0  0  0
  137.8380   77.2790  221.9540 C   0  0  0  0  0  0  0  0  0  0  0  0
  138.8000   78.2870  221.3300 C   0  0  0  0  0  0  0  0  0  0  0  0
  140.0510   78.1880  222.0490 N   0  0  0  0  0  0  0  0  0  0  0  0
  140.7620   79.3450  222.5220 C   0  0  0  0  0  0  0  0  0  0  0  0
  140.4270   80.6280  222.1480 C   0  0  0  0  0  0  0  0  0  0  0  0
  141.1310   81.7260  222.6040 C   0  0  0  0  0  0  0  0  0  0  0  0
  142.2040   81.5990  223.4550 C   0  0  0  0  0  0  0  0  0  0  0  0
  142.5540   80.3240  223.8400 C   0  0  0  0  0  0  0  0  0  0  0  0
  141.8430   79.2190  223.3790 C   0  0  0  0  0  0  0  0  0  0  0  0
  140.6460   76.9080  222.3340 C   0  0  0  0  0  0  0  0  0  0  0  0
  139.7240   75.7430  222.3490 C   0  0  0  0  0  0  0  0  0  0  0  0
  138.3880   72.8330  221.9670 C   0  0  0  0  0  0  0  0  0  0  0  0
  139.7020   71.2220  224.0100 N   0  0  0  0  0  0  0  0  0  0  0  0
  140.0880   70.5410  225.1860 C   0  0  0  0  0  0  0  0  0  0  0  0
  140.6910   71.2120  226.2320 C   0  0  0  0  0  0  0  0  0  0  0  0
  141.0450   70.4960  227.3500 C   0  0  0  0  0  0  0  0  0  0  0  0
  140.8160   69.1220  227.4650 C   0  0  0  0  0  0  0  0  0  0  0  0
  141.2750   68.2280  228.9000 Cl  0  0  0  0  0  0  0  0  0  0  0  0
  140.2040   68.4880  226.3840 C   0  0  0  0  0  0  0  0  0  0  0  0
  139.8330   69.1660  225.2440 C   0  0  0  0  0  0  0  0  0  0  0  0
  139.3220   68.8154  222.0197 H   0  0  0  0  0  0  0  0  0  0  0  0
  137.7061   69.1576  222.7649 H   0  0  0  0  0  0  0  0  0  0  0  0
  139.2424   69.9519  220.4382 H   0  0  0  0  0  0  0  0  0  0  0  0
  138.6926   71.3303  218.4529 H   0  0  0  0  0  0  0  0  0  0  0  0
  137.9437   73.6882  218.7161 H   0  0  0  0  0  0  0  0  0  0  0  0
  136.8663   77.3217  221.4402 H   0  0  0  0  0  0  0  0  0  0  0  0
  137.6784   77.5083  223.0179 H   0  0  0  0  0  0  0  0  0  0  0  0
  138.9566   78.0501  220.2673 H   0  0  0  0  0  0  0  0  0  0  0  0
  138.3925   79.3067  221.3951 H   0  0  0  0  0  0  0  0  0  0  0  0
  139.5762   80.7824  221.4681 H   0  0  0  0  0  0  0  0  0  0  0  0
  140.8245   82.7306  222.2770 H   0  0  0  0  0  0  0  0  0  0  0  0
  142.7591   82.4786  223.8129 H   0  0  0  0  0  0  0  0  0  0  0  0
  143.4058   80.1766  224.5202 H   0  0  0  0  0  0  0  0  0  0  0  0
  142.1494   78.2143  223.7057 H   0  0  0  0  0  0  0  0  0  0  0  0
  141.4142   76.7178  221.5700 H   0  0  0  0  0  0  0  0  0  0  0  0
  141.0358   76.9872  223.3596 H   0  0  0  0  0  0  0  0  0  0  0  0
  140.1983   74.9332  221.7751 H   0  0  0  0  0  0  0  0  0  0  0  0
  139.5612   75.5125  223.4122 H   0  0  0  0  0  0  0  0  0  0  0  0
  138.2989   73.2663  222.9741 H   0  0  0  0  0  0  0  0  0  0  0  0
  140.8831   72.2934  226.1714 H   0  0  0  0  0  0  0  0  0  0  0  0
  141.5268   71.0241  228.1861 H   0  0  0  0  0  0  0  0  0  0  0  0
  140.0105   67.4068  226.4441 H   0  0  0  0  0  0  0  0  0  0  0  0
  1  2  2  0
  2  3  1  0
  3  4  1  0
  4  5  1  0
  5  6  2  0
  6  7  1  0
  7  8  2  0
  8  9  1  0
  9 10  1  0
 10 11  2  0
 10 12  1  0
 12 13  1  0
 13 14  1  0
 14 15  1  0
 15 16  1  0
 16 17  2  0
 17 18  1  0
 18 19  2  0
 19 20  1  0
 20 21  2  0
 15 22  1  0
 22 23  1  0
  9 24  2  0
  4 25  2  0
 25 26  1  0
 26 27  2  0
 27 28  1  0
 28 29  2  0
 29 30  1  0
 29 31  1  0
 31 32  2  0
 32  2  1  0
 24  5  1  0
 32 26  1  0
 23 12  1  0
 21 16  1  0
  3 33  1  0
  3 34  1  0
  6 35  1  0
  7 36  1  0
  8 37  1  0
 13 38  1  0
 13 39  1  0
 14 40  1  0
 14 41  1  0
 17 42  1  0
 18 43  1  0
 19 44  1  0
 20 45  1  0
 21 46  1  0
 22 47  1  0
 22 48  1  0
 23 49  1  0
 23 50  1  0
 24 51  1  0
 27 52  1  0
 28 53  1  0
 31 54  1  0
M  END
>  <smiles>  (15) 
O=C1CC(c2cccc(C(=O)N3CCN(c4ccccc4)CC3)c2)=Nc2ccc(Cl)cc21

>  <score_type>  (15) 
oracle

>  <origin>  (15) 
autodockgpu

>  <m_score__min__energy>  (15) 
-9.1099999999999994

>  <m_primary>  (15) 
energy

>  <rmsd>  (15) 
4.876471465380241

>  <m_score__min__rmsd>  (15) 
4.876471465380241

>  <meeko>  (15) 
{"free_energy": -8.93, "intermolecular_energy": -9.82, "internal_energy": -0.94, "cluster_size": 44, "cluster_id": 1, "rank_in_cluster": 30}

>  <energy>  (15) 
-9.03

>  <cluster_rmsd>  (15) 
0.6

>  <cluster>  (15) 
1

$$$$

     RDKit          3D

 54 58  0  0  0  0  0  0  0  0999 V2000
  139.2850   67.0160  224.7530 O   0  0  0  0  0  0  0  0  0  0  0  0
  139.3130   68.2610  224.8600 C   0  0  0  0  0  0  0  0  0  0  0  0
  138.7100   69.0670  223.7580 C   0  0  0  0  0  0  0  0  0  0  0  0
  138.8210   70.5200  224.0240 C   0  0  0  0  0  0  0  0  0  0  0  0
  138.2730   71.4290  223.0240 C   0  0  0  0  0  0  0  0  0  0  0  0
  136.9050   71.3790  222.7690 C   0  0  0  0  0  0  0  0  0  0  0  0
  136.3440   72.2280  221.8270 C   0  0  0  0  0  0  0  0  0  0  0  0
  137.1270   73.1350  221.1290 C   0  0  0  0  0  0  0  0  0  0  0  0
  138.4980   73.1810  221.3890 C   0  0  0  0  0  0  0  0  0  0  0  0
  139.3860   74.0980  220.7070 C   0  0  0  0  0  0  0  0  0  0  0  0
  140.1190   73.6630  219.7640 O   0  0  0  0  0  0  0  0  0  0  0  0
  139.5070   75.4770  221.0160 N   0  0  0  0  0  0  0  0  0  0  0  0
  140.4480   76.2570  220.2340 C   0  0  0  0  0  0  0  0  0  0  0  0
  141.4410   76.8990  221.2010 C   0  0  0  0  0  0  0  0  0  0  0  0
  140.6820   77.7490  222.0920 N   0  0  0  0  0  0  0  0  0  0  0  0
  141.0810   79.0960  222.3980 C   0  0  0  0  0  0  0  0  0  0  0  0
  142.2130   79.3890  223.1270 C   0  0  0  0  0  0  0  0  0  0  0  0
  142.5720   80.6920  223.4200 C   0  0  0  0  0  0  0  0  0  0  0  0
  141.8210   81.7640  223.0010 C   0  0  0  0  0  0  0  0  0  0  0  0
  140.6860   81.4910  222.2700 C   0  0  0  0  0  0  0  0  0  0  0  0
  140.3270   80.1780  221.9760 C   0  0  0  0  0  0  0  0  0  0  0  0
  139.4720   77.2800  222.7180 C   0  0  0  0  0  0  0  0  0  0  0  0
  138.7730   76.1590  222.0380 C   0  0  0  0  0  0  0  0  0  0  0  0
  139.0300   72.3300  222.3270 C   0  0  0  0  0  0  0  0  0  0  0  0
  139.3690   71.0200  225.0780 N   0  0  0  0  0  0  0  0  0  0  0  0
  139.9450   70.2810  226.1350 C   0  0  0  0  0  0  0  0  0  0  0  0
  140.5100   70.9150  227.2240 C   0  0  0  0  0  0  0  0  0  0  0  0
  141.0550   70.1430  228.2210 C   0  0  0  0  0  0  0  0  0  0  0  0
  141.0590   68.7470  228.1710 C   0  0  0  0  0  0  0  0  0  0  0  0
  141.7610   67.7800  229.4520 Cl  0  0  0  0  0  0  0  0  0  0  0  0
  140.4790   68.1500  227.0520 C   0  0  0  0  0  0  0  0  0  0  0  0
  139.9200   68.8850  226.0290 C   0  0  0  0  0  0  0  0  0  0  0  0
  139.2325   68.8348  222.8183 H   0  0  0  0  0  0  0  0  0  0  0  0
  137.6428   68.8099  223.6868 H   0  0  0  0  0  0  0  0  0  0  0  0
  136.2694   70.6661  223.3147 H   0  0  0  0  0  0  0  0  0  0  0  0
  135.2627   72.1813  221.6307 H   0  0  0  0  0  0  0  0  0  0  0  0
  136.6759   73.8064  220.3836 H   0  0  0  0  0  0  0  0  0  0  0  0
  140.9820   75.6023  219.5295 H   0  0  0  0  0  0  0  0  0  0  0  0
  139.9195   77.0302  219.6571 H   0  0  0  0  0  0  0  0  0  0  0  0
  141.9633   76.1207  221.7767 H   0  0  0  0  0  0  0  0  0  0  0  0
  142.1967   77.4823  220.6545 H   0  0  0  0  0  0  0  0  0  0  0  0
  142.8476   78.5650  223.4852 H   0  0  0  0  0  0  0  0  0  0  0  0
  143.4851   80.8757  224.0053 H   0  0  0  0  0  0  0  0  0  0  0  0
  142.1141   82.7970  223.2395 H   0  0  0  0  0  0  0  0  0  0  0  0
  140.0559   82.3196  221.9144 H   0  0  0  0  0  0  0  0  0  0  0  0
  139.4147   79.9944  221.3894 H   0  0  0  0  0  0  0  0  0  0  0  0
  139.7273   76.9484  223.7353 H   0  0  0  0  0  0  0  0  0  0  0  0
  138.7732   78.1286  222.6801 H   0  0  0  0  0  0  0  0  0  0  0  0
  138.5018   75.4191  222.8055 H   0  0  0  0  0  0  0  0  0  0  0  0
  137.9155   76.6183  221.5244 H   0  0  0  0  0  0  0  0  0  0  0  0
  140.1109   72.3751  222.5260 H   0  0  0  0  0  0  0  0  0  0  0  0
  140.5233   72.0128  227.2915 H   0  0  0  0  0  0  0  0  0  0  0  0
  141.5051   70.6428  229.0914 H   0  0  0  0  0  0  0  0  0  0  0  0
  140.4673   67.0522  226.9834 H   0  0  0  0  0  0  0  0  0  0  0  0
  1  2  2  0
  2  3  1  0
  3  4  1  0
  4  5  1  0
  5  6  2  0
  6  7  1  0
  7  8  2  0
  8  9  1  0
  9 10  1  0
 10 11  2  0
 10 12  1  0
 12 13  1  0
 13 14  1  0
 14 15  1  0
 15 16  1  0
 16 17  2  0
 17 18  1  0
 18 19  2  0
 19 20  1  0
 20 21  2  0
 15 22  1  0
 22 23  1  0
  9 24  2  0
  4 25  2  0
 25 26  1  0
 26 27  2  0
 27 28  1  0
 28 29  2  0
 29 30  1  0
 29 31  1  0
 31 32  2  0
 32  2  1  0
 24  5  1  0
 32 26  1  0
 23 12  1  0
 21 16  1  0
  3 33  1  0
  3 34  1  0
  6 35  1  0
  7 36  1  0
  8 37  1  0
 13 38  1  0
 13 39  1  0
 14 40  1  0
 14 41  1  0
 17 42  1  0
 18 43  1  0
 19 44  1  0
 20 45  1  0
 21 46  1  0
 22 47  1  0
 22 48  1  0
 23 49  1  0
 23 50  1  0
 24 51  1  0
 27 52  1  0
 28 53  1  0
 31 54  1  0
M  END
>  <smiles>  (16) 
O=C1CC(c2cccc(C(=O)N3CCN(c4ccccc4)CC3)c2)=Nc2ccc(Cl)cc21

>  <score_type>  (16) 
oracle

>  <origin>  (16) 
autodockgpu

>  <m_score__min__energy>  (16) 
-9.1099999999999994

>  <m_primary>  (16) 
energy

>  <rmsd>  (16) 
4.381279793698913

>  <m_score__min__rmsd>  (16) 
4.381279793698913

>  <meeko>  (16) 
{"free_energy": -9.11, "intermolecular_energy": -10.0, "internal_energy": -0.94, "cluster_size": 44, "cluster_id": 1, "rank_in_cluster": 2}

>  <energy>  (16) 
-9.01

>  <cluster_rmsd>  (16) 
0.7

>  <cluster>  (16) 
1

$$$$

     RDKit          3D

 54 58  0  0  0  0  0  0  0  0999 V2000
  138.8960   67.2480  224.1360 O   0  0  0  0  0  0  0  0  0  0  0  0
  139.1610   68.4700  224.1040 C   0  0  0  0  0  0  0  0  0  0  0  0
  138.8140   69.2240  222.8640 C   0  0  0  0  0  0  0  0  0  0  0  0
  139.1880   70.6530  222.9740 C   0  0  0  0  0  0  0  0  0  0  0  0
  138.9090   71.5100  221.8290 C   0  0  0  0  0  0  0  0  0  0  0  0
  139.0730   70.9770  220.5530 C   0  0  0  0  0  0  0  0  0  0  0  0
  138.8160   71.7580  219.4360 C   0  0  0  0  0  0  0  0  0  0  0  0
  138.3940   73.0720  219.5680 C   0  0  0  0  0  0  0  0  0  0  0  0
  138.2300   73.6010  220.8490 C   0  0  0  0  0  0  0  0  0  0  0  0
  137.7920   74.9620  221.0760 C   0  0  0  0  0  0  0  0  0  0  0  0
  136.6590   75.3290  220.6330 O   0  0  0  0  0  0  0  0  0  0  0  0
  138.5460   75.9420  221.7720 N   0  0  0  0  0  0  0  0  0  0  0  0
  137.9590   77.2620  221.9110 C   0  0  0  0  0  0  0  0  0  0  0  0
  138.9320   78.2720  221.3070 C   0  0  0  0  0  0  0  0  0  0  0  0
  140.1670   78.1770  222.0520 N   0  0  0  0  0  0  0  0  0  0  0  0
  140.8660   79.3350  222.5390 C   0  0  0  0  0  0  0  0  0  0  0  0
  141.9260   79.2500  223.4160 C   0  0  0  0  0  0  0  0  0  0  0  0
  142.5760   80.3770  223.8820 C   0  0  0  0  0  0  0  0  0  0  0  0
  142.2020   81.6430  223.4960 C   0  0  0  0  0  0  0  0  0  0  0  0
  141.1450   81.7480  222.6200 C   0  0  0  0  0  0  0  0  0  0  0  0
  140.4910   80.6110  222.1530 C   0  0  0  0  0  0  0  0  0  0  0  0
  140.7590   76.8980  222.3510 C   0  0  0  0  0  0  0  0  0  0  0  0
  139.8390   75.7310  222.3470 C   0  0  0  0  0  0  0  0  0  0  0  0
  138.4910   72.8080  221.9400 C   0  0  0  0  0  0  0  0  0  0  0  0
  139.7420   71.1740  224.0150 N   0  0  0  0  0  0  0  0  0  0  0  0
  140.0790   70.4840  225.2000 C   0  0  0  0  0  0  0  0  0  0  0  0
  140.6730   71.1390  226.2620 C   0  0  0  0  0  0  0  0  0  0  0  0
  140.9780   70.4140  227.3890 C   0  0  0  0  0  0  0  0  0  0  0  0
  140.7110   69.0470  227.4970 C   0  0  0  0  0  0  0  0  0  0  0  0
  141.1080   68.1420  228.9430 Cl  0  0  0  0  0  0  0  0  0  0  0  0
  140.1110   68.4290  226.4000 C   0  0  0  0  0  0  0  0  0  0  0  0
  139.7880   69.1160  225.2510 C   0  0  0  0  0  0  0  0  0  0  0  0
  139.3505   68.7787  222.0132 H   0  0  0  0  0  0  0  0  0  0  0  0
  137.7256   69.1629  222.7165 H   0  0  0  0  0  0  0  0  0  0  0  0
  139.4066   69.9359  220.4309 H   0  0  0  0  0  0  0  0  0  0  0  0
  138.9488   71.3291  218.4318 H   0  0  0  0  0  0  0  0  0  0  0  0
  138.1920   73.6869  218.6786 H   0  0  0  0  0  0  0  0  0  0  0  0
  136.9983   77.3024  221.3767 H   0  0  0  0  0  0  0  0  0  0  0  0
  137.7763   77.4914  222.9712 H   0  0  0  0  0  0  0  0  0  0  0  0
  139.1119   78.0347  220.2481 H   0  0  0  0  0  0  0  0  0  0  0  0
  138.5207   79.2907  221.3629 H   0  0  0  0  0  0  0  0  0  0  0  0
  142.2634   78.2590  223.7538 H   0  0  0  0  0  0  0  0  0  0  0  0
  143.4165   80.2581  224.5816 H   0  0  0  0  0  0  0  0  0  0  0  0
  142.7256   82.5345  223.8715 H   0  0  0  0  0  0  0  0  0  0  0  0
  140.8133   82.7419  222.2851 H   0  0  0  0  0  0  0  0  0  0  0  0
  139.6493   80.7301  221.4549 H   0  0  0  0  0  0  0  0  0  0  0  0
  141.5439   76.7089  221.6039 H   0  0  0  0  0  0  0  0  0  0  0  0
  141.1267   76.9788  223.3846 H   0  0  0  0  0  0  0  0  0  0  0  0
  140.3274   74.9218  221.7843 H   0  0  0  0  0  0  0  0  0  0  0  0
  139.6535   75.5016  223.4067 H   0  0  0  0  0  0  0  0  0  0  0  0
  138.3583   73.2346  222.9452 H   0  0  0  0  0  0  0  0  0  0  0  0
  140.8963   72.2147  226.2066 H   0  0  0  0  0  0  0  0  0  0  0  0
  141.4502   70.9296  228.2382 H   0  0  0  0  0  0  0  0  0  0  0  0
  139.8876   67.3533  226.4546 H   0  0  0  0  0  0  0  0  0  0  0  0
  1  2  2  0
  2  3  1  0
  3  4  1  0
  4  5  1  0
  5  6  2  0
  6  7  1  0
  7  8  2  0
  8  9  1  0
  9 10  1  0
 10 11  2  0
 10 12  1  0
 12 13  1  0
 13 14  1  0
 14 15  1  0
 15 16  1  0
 16 17  2  0
 17 18  1  0
 18 19  2  0
 19 20  1  0
 20 21  2  0
 15 22  1  0
 22 23  1  0
  9 24  2  0
  4 25  2  0
 25 26  1  0
 26 27  2  0
 27 28  1  0
 28 29  2  0
 29 30  1  0
 29 31  1  0
 31 32  2  0
 32  2  1  0
 24  5  1  0
 32 26  1  0
 23 12  1  0
 21 16  1  0
  3 33  1  0
  3 34  1  0
  6 35  1  0
  7 36  1  0
  8 37  1  0
 13 38  1  0
 13 39  1  0
 14 40  1  0
 14 41  1  0
 17 42  1  0
 18 43  1  0
 19 44  1  0
 20 45  1  0
 21 46  1  0
 22 47  1  0
 22 48  1  0
 23 49  1  0
 23 50  1  0
 24 51  1  0
 27 52  1  0
 28 53  1  0
 31 54  1  0
M  END
>  <smiles>  (17) 
O=C1CC(c2cccc(C(=O)N3CCN(c4ccccc4)CC3)c2)=Nc2ccc(Cl)cc21

>  <score_type>  (17) 
oracle

>  <origin>  (17) 
autodockgpu

>  <m_score__min__energy>  (17) 
-9.1099999999999994

>  <m_primary>  (17) 
energy

>  <rmsd>  (17) 
4.744212474752947

>  <m_score__min__rmsd>  (17) 
4.744212474752947

>  <meeko>  (17) 
{"free_energy": -8.93, "intermolecular_energy": -9.83, "internal_energy": -0.94, "cluster_size": 44, "cluster_id": 1, "rank_in_cluster": 26}

>  <energy>  (17) 
-9.01

>  <cluster_rmsd>  (17) 
0.64

>  <cluster>  (17) 
1

$$$$

     RDKit          3D

 54 58  0  0  0  0  0  0  0  0999 V2000
  138.8920   67.3840  224.1730 O   0  0  0  0  0  0  0  0  0  0  0  0
  139.1090   68.6140  224.1140 C   0  0  0  0  0  0  0  0  0  0  0  0
  138.6520   69.3430  222.8950 C   0  0  0  0  0  0  0  0  0  0  0  0
  138.9790   70.7850  222.9680 C   0  0  0  0  0  0  0  0  0  0  0  0
  138.5920   71.6200  221.8380 C   0  0  0  0  0  0  0  0  0  0  0  0
  138.5990   71.0510  220.5670 C   0  0  0  0  0  0  0  0  0  0  0  0
  138.2350   71.8100  219.4640 C   0  0  0  0  0  0  0  0  0  0  0  0
  137.8600   73.1370  219.6060 C   0  0  0  0  0  0  0  0  0  0  0  0
  137.8550   73.7030  220.8830 C   0  0  0  0  0  0  0  0  0  0  0  0
  137.4760   75.0800  221.1200 C   0  0  0  0  0  0  0  0  0  0  0  0
  136.3510   75.4940  220.6960 O   0  0  0  0  0  0  0  0  0  0  0  0
  138.2810   76.0270  221.8040 N   0  0  0  0  0  0  0  0  0  0  0  0
  137.7500   77.3690  221.9550 C   0  0  0  0  0  0  0  0  0  0  0  0
  138.7530   78.3410  221.3350 C   0  0  0  0  0  0  0  0  0  0  0  0
  139.9970   78.1930  222.0600 N   0  0  0  0  0  0  0  0  0  0  0  0
  140.7500   79.3210  222.5360 C   0  0  0  0  0  0  0  0  0  0  0  0
  141.8220   79.1910  223.3920 C   0  0  0  0  0  0  0  0  0  0  0  0
  142.5250   80.2900  223.8480 C   0  0  0  0  0  0  0  0  0  0  0  0
  142.1950   81.5710  223.4740 C   0  0  0  0  0  0  0  0  0  0  0  0
  141.1260   81.7210  222.6190 C   0  0  0  0  0  0  0  0  0  0  0  0
  140.4190   80.6120  222.1610 C   0  0  0  0  0  0  0  0  0  0  0  0
  140.5410   76.8910  222.3460 C   0  0  0  0  0  0  0  0  0  0  0  0
  139.5740   75.7620  222.3560 C   0  0  0  0  0  0  0  0  0  0  0  0
  138.2190   72.9310  221.9590 C   0  0  0  0  0  0  0  0  0  0  0  0
  139.5830   71.3370  223.9650 N   0  0  0  0  0  0  0  0  0  0  0  0
  140.0240   70.6710  225.1300 C   0  0  0  0  0  0  0  0  0  0  0  0
  140.6630   71.3580  226.1440 C   0  0  0  0  0  0  0  0  0  0  0  0
  141.0700   70.6560  227.2530 C   0  0  0  0  0  0  0  0  0  0  0  0
  140.8610   69.2810  227.3890 C   0  0  0  0  0  0  0  0  0  0  0  0
  141.3880   68.4050  228.8110 Cl  0  0  0  0  0  0  0  0  0  0  0  0
  140.2120   68.6310  226.3400 C   0  0  0  0  0  0  0  0  0  0  0  0
  139.7870   69.2940  225.2100 C   0  0  0  0  0  0  0  0  0  0  0  0
  139.1461   68.9091  222.0132 H   0  0  0  0  0  0  0  0  0  0  0  0
  137.5591   69.2412  222.8226 H   0  0  0  0  0  0  0  0  0  0  0  0
  138.8933   69.9991  220.4374 H   0  0  0  0  0  0  0  0  0  0  0  0
  138.2441   71.3527  218.4636 H   0  0  0  0  0  0  0  0  0  0  0  0
  137.5714   73.7339  218.7283 H   0  0  0  0  0  0  0  0  0  0  0  0
  136.7826   77.4490  221.4376 H   0  0  0  0  0  0  0  0  0  0  0  0
  137.5950   77.6034  223.0185 H   0  0  0  0  0  0  0  0  0  0  0  0
  138.9049   78.0992  220.2727 H   0  0  0  0  0  0  0  0  0  0  0  0
  138.3847   79.3755  221.3988 H   0  0  0  0  0  0  0  0  0  0  0  0
  142.1261   78.1864  223.7209 H   0  0  0  0  0  0  0  0  0  0  0  0
  143.3737   80.1351  224.5304 H   0  0  0  0  0  0  0  0  0  0  0  0
  142.7609   82.4395  223.8421 H   0  0  0  0  0  0  0  0  0  0  0  0
  140.8270   82.7285  222.2940 H   0  0  0  0  0  0  0  0  0  0  0  0
  139.5699   80.7668  221.4790 H   0  0  0  0  0  0  0  0  0  0  0  0
  141.3044   76.6720  221.5849 H   0  0  0  0  0  0  0  0  0  0  0  0
  140.9296   76.9541  223.3731 H   0  0  0  0  0  0  0  0  0  0  0  0
  140.0192   74.9350  221.7835 H   0  0  0  0  0  0  0  0  0  0  0  0
  139.3978   75.5376  223.4184 H   0  0  0  0  0  0  0  0  0  0  0  0
  138.2103   73.3858  222.9605 H   0  0  0  0  0  0  0  0  0  0  0  0
  140.8416   72.4406  226.0656 H   0  0  0  0  0  0  0  0  0  0  0  0
  141.5795   71.1967  228.0642 H   0  0  0  0  0  0  0  0  0  0  0  0
  140.0328   67.5485  226.4178 H   0  0  0  0  0  0  0  0  0  0  0  0
  1  2  2  0
  2  3  1  0
  3  4  1  0
  4  5  1  0
  5  6  2  0
  6  7  1  0
  7  8  2  0
  8  9  1  0
  9 10  1  0
 10 11  2  0
 10 12  1  0
 12 13  1  0
 13 14  1  0
 14 15  1  0
 15 16  1  0
 16 17  2  0
 17 18  1  0
 18 19  2  0
 19 20  1  0
 20 21  2  0
 15 22  1  0
 22 23  1  0
  9 24  2  0
  4 25  2  0
 25 26  1  0
 26 27  2  0
 27 28  1  0
 28 29  2  0
 29 30  1  0
 29 31  1  0
 31 32  2  0
 32  2  1  0
 24  5  1  0
 32 26  1  0
 23 12  1  0
 21 16  1  0
  3 33  1  0
  3 34  1  0
  6 35  1  0
  7 36  1  0
  8 37  1  0
 13 38  1  0
 13 39  1  0
 14 40  1  0
 14 41  1  0
 17 42  1  0
 18 43  1  0
 19 44  1  0
 20 45  1  0
 21 46  1  0
 22 47  1  0
 22 48  1  0
 23 49  1  0
 23 50  1  0
 24 51  1  0
 27 52  1  0
 28 53  1  0
 31 54  1  0
M  END
>  <smiles>  (18) 
O=C1CC(c2cccc(C(=O)N3CCN(c4ccccc4)CC3)c2)=Nc2ccc(Cl)cc21

>  <score_type>  (18) 
oracle

>  <origin>  (18) 
autodockgpu

>  <m_score__min__energy>  (18) 
-9.1099999999999994

>  <m_primary>  (18) 
energy

>  <rmsd>  (18) 
4.778529649050657

>  <m_score__min__rmsd>  (18) 
4.778529649050657

>  <meeko>  (18) 
{"free_energy": -8.9, "intermolecular_energy": -9.79, "internal_energy": -0.93, "cluster_size": 44, "cluster_id": 1, "rank_in_cluster": 36}

>  <energy>  (18) 
-8.99

>  <cluster_rmsd>  (18) 
0.78

>  <cluster>  (18) 
1

$$$$

     RDKit          3D

 54 58  0  0  0  0  0  0  0  0999 V2000
  141.7930   72.0660  226.3010 O   0  0  0  0  0  0  0  0  0  0  0  0
  140.9720   71.3480  225.6890 C   0  0  0  0  0  0  0  0  0  0  0  0
  140.4010   71.8750  224.4160 C   0  0  0  0  0  0  0  0  0  0  0  0
  139.4470   70.9180  223.8100 C   0  0  0  0  0  0  0  0  0  0  0  0
  138.8080   71.3080  222.5590 C   0  0  0  0  0  0  0  0  0  0  0  0
  137.7560   70.5270  222.0860 C   0  0  0  0  0  0  0  0  0  0  0  0
  137.1190   70.8640  220.9010 C   0  0  0  0  0  0  0  0  0  0  0  0
  137.5140   71.9740  220.1710 C   0  0  0  0  0  0  0  0  0  0  0  0
  138.5690   72.7530  220.6490 C   0  0  0  0  0  0  0  0  0  0  0  0
  139.0440   73.9290  219.9510 C   0  0  0  0  0  0  0  0  0  0  0  0
  139.2430   73.8660  218.6970 O   0  0  0  0  0  0  0  0  0  0  0  0
  139.3110   75.1770  220.5710 N   0  0  0  0  0  0  0  0  0  0  0  0
  139.7830   76.2560  219.7230 C   0  0  0  0  0  0  0  0  0  0  0  0
  141.1210   76.7380  220.2810 C   0  0  0  0  0  0  0  0  0  0  0  0
  140.8790   77.2080  221.6270 N   0  0  0  0  0  0  0  0  0  0  0  0
  141.3900   78.4630  222.1090 C   0  0  0  0  0  0  0  0  0  0  0  0
  141.6280   79.5360  221.2780 C   0  0  0  0  0  0  0  0  0  0  0  0
  142.1310   80.7300  221.7600 C   0  0  0  0  0  0  0  0  0  0  0  0
  142.4200   80.9130  223.0920 C   0  0  0  0  0  0  0  0  0  0  0  0
  142.1880   79.8510  223.9370 C   0  0  0  0  0  0  0  0  0  0  0  0
  141.6820   78.6490  223.4500 C   0  0  0  0  0  0  0  0  0  0  0  0
  140.1000   76.4320  222.5580 C   0  0  0  0  0  0  0  0  0  0  0  0
  139.1500   75.4550  221.9650 C   0  0  0  0  0  0  0  0  0  0  0  0
  139.1840   72.4000  221.8260 C   0  0  0  0  0  0  0  0  0  0  0  0
  139.1520   69.7730  224.3230 N   0  0  0  0  0  0  0  0  0  0  0  0
  139.6790   69.2500  225.5240 C   0  0  0  0  0  0  0  0  0  0  0  0
  139.2950   68.0060  225.9890 C   0  0  0  0  0  0  0  0  0  0  0  0
  139.8420   67.5510  227.1640 C   0  0  0  0  0  0  0  0  0  0  0  0
  140.7650   68.2970  227.9010 C   0  0  0  0  0  0  0  0  0  0  0  0
  141.4500   67.6980  229.3980 Cl  0  0  0  0  0  0  0  0  0  0  0  0
  141.1220   69.5460  227.3940 C   0  0  0  0  0  0  0  0  0  0  0  0
  140.5990   70.0420  226.2190 C   0  0  0  0  0  0  0  0  0  0  0  0
  139.8762   72.8192  224.6238 H   0  0  0  0  0  0  0  0  0  0  0  0
  141.2273   72.0331  223.7073 H   0  0  0  0  0  0  0  0  0  0  0  0
  137.4302   69.6423  222.6528 H   0  0  0  0  0  0  0  0  0  0  0  0
  136.2888   70.2417  220.5355 H   0  0  0  0  0  0  0  0  0  0  0  0
  137.0052   72.2364  219.2317 H   0  0  0  0  0  0  0  0  0  0  0  0
  139.9163   75.8919  218.6936 H   0  0  0  0  0  0  0  0  0  0  0  0
  139.0540   77.0796  219.7081 H   0  0  0  0  0  0  0  0  0  0  0  0
  141.8438   75.9089  220.2956 H   0  0  0  0  0  0  0  0  0  0  0  0
  141.5379   77.5415  219.6560 H   0  0  0  0  0  0  0  0  0  0  0  0
  141.4123   79.4401  220.2036 H   0  0  0  0  0  0  0  0  0  0  0  0
  142.3052   81.5582  221.0573 H   0  0  0  0  0  0  0  0  0  0  0  0
  142.8195   81.8671  223.4663 H   0  0  0  0  0  0  0  0  0  0  0  0
  142.4052   79.9536  225.0104 H   0  0  0  0  0  0  0  0  0  0  0  0
  141.5086   77.8206  224.1526 H   0  0  0  0  0  0  0  0  0  0  0  0
  140.7997   75.8738  223.1974 H   0  0  0  0  0  0  0  0  0  0  0  0
  139.4754   77.1596  223.0970 H   0  0  0  0  0  0  0  0  0  0  0  0
  139.2616   74.5063  222.5105 H   0  0  0  0  0  0  0  0  0  0  0  0
  138.1573   75.9197  222.0575 H   0  0  0  0  0  0  0  0  0  0  0  0
  140.0135   73.0216  222.1942 H   0  0  0  0  0  0  0  0  0  0  0  0
  138.5692   67.3955  225.4317 H   0  0  0  0  0  0  0  0  0  0  0  0
  139.5418   66.5614  227.5390 H   0  0  0  0  0  0  0  0  0  0  0  0
  141.8468   70.1573  227.9516 H   0  0  0  0  0  0  0  0  0  0  0  0
  1  2  2  0
  2  3  1  0
  3  4  1  0
  4  5  1  0
  5  6  2  0
  6  7  1  0
  7  8  2  0
  8  9  1  0
  9 10  1  0
 10 11  2  0
 10 12  1  0
 12 13  1  0
 13 14  1  0
 14 15  1  0
 15 16  1  0
 16 17  2  0
 17 18  1  0
 18 19  2  0
 19 20  1  0
 20 21  2  0
 15 22  1  0
 22 23  1  0
  9 24  2  0
  4 25  2  0
 25 26  1  0
 26 27  2  0
 27 28  1  0
 28 29  2  0
 29 30  1  0
 29 31  1  0
 31 32  2  0
 32  2  1  0
 24  5  1  0
 32 26  1  0
 23 12  1  0
 21 16  1  0
  3 33  1  0
  3 34  1  0
  6 35  1  0
  7 36  1  0
  8 37  1  0
 13 38  1  0
 13 39  1  0
 14 40  1  0
 14 41  1  0
 17 42  1  0
 18 43  1  0
 19 44  1  0
 20 45  1  0
 21 46  1  0
 22 47  1  0
 22 48  1  0
 23 49  1  0
 23 50  1  0
 24 51  1  0
 27 52  1  0
 28 53  1  0
 31 54  1  0
M  END
>  <smiles>  (19) 
O=C1CC(c2cccc(C(=O)N3CCN(c4ccccc4)CC3)c2)=Nc2ccc(Cl)cc21

>  <score_type>  (19) 
oracle

>  <origin>  (19) 
autodockgpu

>  <m_score__min__energy>  (19) 
-9.1099999999999994

>  <m_primary>  (19) 
energy

>  <rmsd>  (19) 
4.537460010961338

>  <m_score__min__rmsd>  (19) 
4.537460010961338

>  <meeko>  (19) 
{"free_energy": -8.33, "intermolecular_energy": -9.23, "internal_energy": -0.95, "cluster_size": 44, "cluster_id": 1, "rank_in_cluster": 44}

>  <energy>  (19) 
-8.99

>  <cluster_rmsd>  (19) 
0.62

>  <cluster>  (19) 
1

$$$$

     RDKit          3D

 54 58  0  0  0  0  0  0  0  0999 V2000
  141.2780   80.2410  223.9180 O   0  0  0  0  0  0  0  0  0  0  0  0
  140.3730   79.5030  223.4690 C   0  0  0  0  0  0  0  0  0  0  0  0
  140.7820   78.2980  222.6900 C   0  0  0  0  0  0  0  0  0  0  0  0
  139.6070   77.5270  222.2240 C   0  0  0  0  0  0  0  0  0  0  0  0
  139.8600   76.3210  221.4450 C   0  0  0  0  0  0  0  0  0  0  0  0
  140.6910   76.4210  220.3310 C   0  0  0  0  0  0  0  0  0  0  0  0
  140.9600   75.2980  219.5630 C   0  0  0  0  0  0  0  0  0  0  0  0
  140.4120   74.0660  219.8870 C   0  0  0  0  0  0  0  0  0  0  0  0
  139.5800   73.9720  221.0040 C   0  0  0  0  0  0  0  0  0  0  0  0
  138.9680   72.7250  221.4130 C   0  0  0  0  0  0  0  0  0  0  0  0
  137.8930   72.3490  220.8490 O   0  0  0  0  0  0  0  0  0  0  0  0
  139.4870   71.8690  222.4180 N   0  0  0  0  0  0  0  0  0  0  0  0
  138.7480   70.6540  222.7070 C   0  0  0  0  0  0  0  0  0  0  0  0
  138.3960   70.6630  224.1940 C   0  0  0  0  0  0  0  0  0  0  0  0
  139.6420   70.6960  224.9290 N   0  0  0  0  0  0  0  0  0  0  0  0
  139.9030   69.8260  226.0430 C   0  0  0  0  0  0  0  0  0  0  0  0
  139.6730   68.4680  225.9950 C   0  0  0  0  0  0  0  0  0  0  0  0
  139.9190   67.6500  227.0820 C   0  0  0  0  0  0  0  0  0  0  0  0
  140.4070   68.1450  228.2680 C   0  0  0  0  0  0  0  0  0  0  0  0
  140.6430   69.5000  228.3350 C   0  0  0  0  0  0  0  0  0  0  0  0
  140.3940   70.3220  227.2390 C   0  0  0  0  0  0  0  0  0  0  0  0
  140.6940   71.6110  224.5690 C   0  0  0  0  0  0  0  0  0  0  0  0
  140.6810   72.1090  223.1690 C   0  0  0  0  0  0  0  0  0  0  0  0
  139.3290   75.0980  221.7490 C   0  0  0  0  0  0  0  0  0  0  0  0
  138.3850   77.8600  222.4660 N   0  0  0  0  0  0  0  0  0  0  0  0
  137.9710   78.9920  223.2010 C   0  0  0  0  0  0  0  0  0  0  0  0
  136.6310   79.2610  223.4040 C   0  0  0  0  0  0  0  0  0  0  0  0
  136.2910   80.3780  224.1260 C   0  0  0  0  0  0  0  0  0  0  0  0
  137.2450   81.2480  224.6590 C   0  0  0  0  0  0  0  0  0  0  0  0
  136.7900   82.6680  225.5770 Cl  0  0  0  0  0  0  0  0  0  0  0  0
  138.5850   80.9370  224.4290 C   0  0  0  0  0  0  0  0  0  0  0  0
  138.9730   79.8270  223.7100 C   0  0  0  0  0  0  0  0  0  0  0  0
  141.3677   78.6194  221.8162 H   0  0  0  0  0  0  0  0  0  0  0  0
  141.3809   77.6500  223.3468 H   0  0  0  0  0  0  0  0  0  0  0  0
  141.1338   77.3910  220.0606 H   0  0  0  0  0  0  0  0  0  0  0  0
  141.6169   75.3857  218.6851 H   0  0  0  0  0  0  0  0  0  0  0  0
  140.6291   73.1784  219.2746 H   0  0  0  0  0  0  0  0  0  0  0  0
  137.8279   70.6237  222.1050 H   0  0  0  0  0  0  0  0  0  0  0  0
  139.3531   69.7689  222.4611 H   0  0  0  0  0  0  0  0  0  0  0  0
  137.7938   71.5519  224.4333 H   0  0  0  0  0  0  0  0  0  0  0  0
  137.8086   69.7722  224.4614 H   0  0  0  0  0  0  0  0  0  0  0  0
  139.2834   68.0233  225.0674 H   0  0  0  0  0  0  0  0  0  0  0  0
  139.7185   66.5719  226.9954 H   0  0  0  0  0  0  0  0  0  0  0  0
  140.6008   67.4863  229.1274 H   0  0  0  0  0  0  0  0  0  0  0  0
  141.0329   69.9383  229.2655 H   0  0  0  0  0  0  0  0  0  0  0  0
  140.5938   71.4002  227.3261 H   0  0  0  0  0  0  0  0  0  0  0  0
  140.6230   72.4829  225.2359 H   0  0  0  0  0  0  0  0  0  0  0  0
  141.6282   71.0388  224.6688 H   0  0  0  0  0  0  0  0  0  0  0  0
  140.8440   73.1964  223.1994 H   0  0  0  0  0  0  0  0  0  0  0  0
  141.4697   71.5436  222.6511 H   0  0  0  0  0  0  0  0  0  0  0  0
  138.6728   75.0125  222.6277 H   0  0  0  0  0  0  0  0  0  0  0  0
  135.8552   78.5960  222.9968 H   0  0  0  0  0  0  0  0  0  0  0  0
  135.2256   80.5964  224.2913 H   0  0  0  0  0  0  0  0  0  0  0  0
  139.3607   81.6021  224.8364 H   0  0  0  0  0  0  0  0  0  0  0  0
  1  2  2  0
  2  3  1  0
  3  4  1  0
  4  5  1  0
  5  6  2  0
  6  7  1  0
  7  8  2  0
  8  9  1  0
  9 10  1  0
 10 11  2  0
 10 12  1  0
 12 13  1  0
 13 14  1  0
 14 15  1  0
 15 16  1  0
 16 17  2  0
 17 18  1  0
 18 19  2  0
 19 20  1  0
 20 21  2  0
 15 22  1  0
 22 23  1  0
  9 24  2  0
  4 25  2  0
 25 26  1  0
 26 27  2  0
 27 28  1  0
 28 29  2  0
 29 30  1  0
 29 31  1  0
 31 32  2  0
 32  2  1  0
 24  5  1  0
 32 26  1  0
 23 12  1  0
 21 16  1  0
  3 33  1  0
  3 34  1  0
  6 35  1  0
  7 36  1  0
  8 37  1  0
 13 38  1  0
 13 39  1  0
 14 40  1  0
 14 41  1  0
 17 42  1  0
 18 43  1  0
 19 44  1  0
 20 45  1  0
 21 46  1  0
 22 47  1  0
 22 48  1  0
 23 49  1  0
 23 50  1  0
 24 51  1  0
 27 52  1  0
 28 53  1  0
 31 54  1  0
M  END
>  <smiles>  (20) 
O=C1CC(c2cccc(C(=O)N3CCN(c4ccccc4)CC3)c2)=Nc2ccc(Cl)cc21

>  <score_type>  (20) 
oracle

>  <origin>  (20) 
autodockgpu

>  <m_score__min__energy>  (20) 
-9.1099999999999994

>  <m_primary>  (20) 
energy

>  <rmsd>  (20) 
8.766381189062475

>  <m_score__min__rmsd>  (20) 
8.766381189062475

>  <meeko>  (20) 
{"free_energy": -8.53, "intermolecular_energy": -9.42, "internal_energy": -0.95, "cluster_size": 5, "cluster_id": 2, "rank_in_cluster": 4}

>  <energy>  (20) 
-8.96

>  <cluster_rmsd>  (20) 
1.47

>  <cluster>  (20) 
1

$$$$

     RDKit          3D

 54 58  0  0  0  0  0  0  0  0999 V2000
  139.1370   67.2910  224.3730 O   0  0  0  0  0  0  0  0  0  0  0  0
  139.1770   68.5400  224.4400 C   0  0  0  0  0  0  0  0  0  0  0  0
  138.6050   69.3150  223.3010 C   0  0  0  0  0  0  0  0  0  0  0  0
  138.7260   70.7750  223.5210 C   0  0  0  0  0  0  0  0  0  0  0  0
  138.2090   71.6560  222.4820 C   0  0  0  0  0  0  0  0  0  0  0  0
  136.8760   71.5150  222.1040 C   0  0  0  0  0  0  0  0  0  0  0  0
  136.3430   72.3350  221.1200 C   0  0  0  0  0  0  0  0  0  0  0  0
  137.1200   73.3010  220.5010 C   0  0  0  0  0  0  0  0  0  0  0  0
  138.4560   73.4380  220.8830 C   0  0  0  0  0  0  0  0  0  0  0  0
  139.3370   74.4210  220.2890 C   0  0  0  0  0  0  0  0  0  0  0  0
  140.0080   74.1070  219.2560 O   0  0  0  0  0  0  0  0  0  0  0  0
  139.5140   75.7410  220.7810 N   0  0  0  0  0  0  0  0  0  0  0  0
  140.4380   76.6010  220.0650 C   0  0  0  0  0  0  0  0  0  0  0  0
  141.4970   77.0780  221.0570 C   0  0  0  0  0  0  0  0  0  0  0  0
  140.8100   77.8100  222.0980 N   0  0  0  0  0  0  0  0  0  0  0  0
  141.2640   79.0920  222.5670 C   0  0  0  0  0  0  0  0  0  0  0  0
  142.1800   79.2280  223.5880 C   0  0  0  0  0  0  0  0  0  0  0  0
  142.5950   80.4690  224.0320 C   0  0  0  0  0  0  0  0  0  0  0  0
  142.1170   81.6350  223.4810 C   0  0  0  0  0  0  0  0  0  0  0  0
  141.2000   81.5190  222.4600 C   0  0  0  0  0  0  0  0  0  0  0  0
  140.7840   80.2670  222.0140 C   0  0  0  0  0  0  0  0  0  0  0  0
  139.6200   77.2850  222.7170 C   0  0  0  0  0  0  0  0  0  0  0  0
  138.8530   76.2880  221.9260 C   0  0  0  0  0  0  0  0  0  0  0  0
  138.9610   72.6150  221.8600 C   0  0  0  0  0  0  0  0  0  0  0  0
  139.2590   71.3030  224.5690 N   0  0  0  0  0  0  0  0  0  0  0  0
  139.8060   70.5930  225.6610 C   0  0  0  0  0  0  0  0  0  0  0  0
  140.3560   71.2570  226.7400 C   0  0  0  0  0  0  0  0  0  0  0  0
  140.8730   70.5120  227.7720 C   0  0  0  0  0  0  0  0  0  0  0  0
  140.8630   69.1150  227.7680 C   0  0  0  0  0  0  0  0  0  0  0  0
  141.5280   68.1840  229.0930 Cl  0  0  0  0  0  0  0  0  0  0  0  0
  140.2980   68.4880  226.6570 C   0  0  0  0  0  0  0  0  0  0  0  0
  139.7680   69.1950  225.6000 C   0  0  0  0  0  0  0  0  0  0  0  0
  139.1436   69.0467  222.3802 H   0  0  0  0  0  0  0  0  0  0  0  0
  137.5367   69.0665  223.2171 H   0  0  0  0  0  0  0  0  0  0  0  0
  136.2455   70.7532  222.5858 H   0  0  0  0  0  0  0  0  0  0  0  0
  135.2893   72.2167  220.8272 H   0  0  0  0  0  0  0  0  0  0  0  0
  136.6916   73.9488  219.7220 H   0  0  0  0  0  0  0  0  0  0  0  0
  140.9159   76.0393  219.2489 H   0  0  0  0  0  0  0  0  0  0  0  0
  139.9051   77.4593  219.6299 H   0  0  0  0  0  0  0  0  0  0  0  0
  142.0247   76.2148  221.4888 H   0  0  0  0  0  0  0  0  0  0  0  0
  142.2406   77.7160  220.5571 H   0  0  0  0  0  0  0  0  0  0  0  0
  142.5915   78.3247  224.0619 H   0  0  0  0  0  0  0  0  0  0  0  0
  143.3287   80.5260  224.8496 H   0  0  0  0  0  0  0  0  0  0  0  0
  142.4530   82.6188  223.8406 H   0  0  0  0  0  0  0  0  0  0  0  0
  140.7912   82.4262  221.9911 H   0  0  0  0  0  0  0  0  0  0  0  0
  140.0506   80.2098  221.1962 H   0  0  0  0  0  0  0  0  0  0  0  0
  139.9166   76.8068  223.6622 H   0  0  0  0  0  0  0  0  0  0  0  0
  138.9464   78.1464  222.8365 H   0  0  0  0  0  0  0  0  0  0  0  0
  138.5981   75.4536  222.5959 H   0  0  0  0  0  0  0  0  0  0  0  0
  137.9848   76.8346  221.5293 H   0  0  0  0  0  0  0  0  0  0  0  0
  140.0143   72.7319  222.1547 H   0  0  0  0  0  0  0  0  0  0  0  0
  140.3795   72.3563  226.7723 H   0  0  0  0  0  0  0  0  0  0  0  0
  141.3116   71.0354  228.6344 H   0  0  0  0  0  0  0  0  0  0  0  0
  140.2749   67.3887  226.6238 H   0  0  0  0  0  0  0  0  0  0  0  0
  1  2  2  0
  2  3  1  0
  3  4  1  0
  4  5  1  0
  5  6  2  0
  6  7  1  0
  7  8  2  0
  8  9  1  0
  9 10  1  0
 10 11  2  0
 10 12  1  0
 12 13  1  0
 13 14  1  0
 14 15  1  0
 15 16  1  0
 16 17  2  0
 17 18  1  0
 18 19  2  0
 19 20  1  0
 20 21  2  0
 15 22  1  0
 22 23  1  0
  9 24  2  0
  4 25  2  0
 25 26  1  0
 26 27  2  0
 27 28  1  0
 28 29  2  0
 29 30  1  0
 29 31  1  0
 31 32  2  0
 32  2  1  0
 24  5  1  0
 32 26  1  0
 23 12  1  0
 21 16  1  0
  3 33  1  0
  3 34  1  0
  6 35  1  0
  7 36  1  0
  8 37  1  0
 13 38  1  0
 13 39  1  0
 14 40  1  0
 14 41  1  0
 17 42  1  0
 18 43  1  0
 19 44  1  0
 20 45  1  0
 21 46  1  0
 22 47  1  0
 22 48  1  0
 23 49  1  0
 23 50  1  0
 24 51  1  0
 27 52  1  0
 28 53  1  0
 31 54  1  0
M  END
>  <smiles>  (21) 
O=C1CC(c2cccc(C(=O)N3CCN(c4ccccc4)CC3)c2)=Nc2ccc(Cl)cc21

>  <score_type>  (21) 
oracle

>  <origin>  (21) 
autodockgpu

>  <m_score__min__energy>  (21) 
-9.1099999999999994

>  <m_primary>  (21) 
energy

>  <rmsd>  (21) 
4.580301743132198

>  <m_score__min__rmsd>  (21) 
4.580301743132198

>  <meeko>  (21) 
{"free_energy": -9.04, "intermolecular_energy": -9.94, "internal_energy": -0.95, "cluster_size": 44, "cluster_id": 1, "rank_in_cluster": 13}

>  <energy>  (21) 
-8.95

>  <cluster_rmsd>  (21) 
1.47

>  <cluster>  (21) 
1

$$$$

     RDKit          3D

 54 58  0  0  0  0  0  0  0  0999 V2000
  141.2640   80.2100  223.9410 O   0  0  0  0  0  0  0  0  0  0  0  0
  140.3640   79.4700  223.4860 C   0  0  0  0  0  0  0  0  0  0  0  0
  140.7820   78.2700  222.7030 C   0  0  0  0  0  0  0  0  0  0  0  0
  139.6110   77.4950  222.2300 C   0  0  0  0  0  0  0  0  0  0  0  0
  139.8730   76.2950  221.4460 C   0  0  0  0  0  0  0  0  0  0  0  0
  140.7040   76.4040  220.3340 C   0  0  0  0  0  0  0  0  0  0  0  0
  140.9810   75.2860  219.5620 C   0  0  0  0  0  0  0  0  0  0  0  0
  140.4400   74.0490  219.8800 C   0  0  0  0  0  0  0  0  0  0  0  0
  139.6080   73.9460  220.9960 C   0  0  0  0  0  0  0  0  0  0  0  0
  139.0040   72.6930  221.3990 C   0  0  0  0  0  0  0  0  0  0  0  0
  137.9410   72.3040  220.8210 O   0  0  0  0  0  0  0  0  0  0  0  0
  139.5180   71.8450  222.4140 N   0  0  0  0  0  0  0  0  0  0  0  0
  138.7870   70.6230  222.6960 C   0  0  0  0  0  0  0  0  0  0  0  0
  138.4150   70.6320  224.1770 C   0  0  0  0  0  0  0  0  0  0  0  0
  139.6500   70.6800  224.9290 N   0  0  0  0  0  0  0  0  0  0  0  0
  139.9040   69.8150  226.0490 C   0  0  0  0  0  0  0  0  0  0  0  0
  139.5860   68.4740  226.0400 C   0  0  0  0  0  0  0  0  0  0  0  0
  139.8290   67.6620  227.1320 C   0  0  0  0  0  0  0  0  0  0  0  0
  140.3990   68.1460  228.2850 C   0  0  0  0  0  0  0  0  0  0  0  0
  140.7240   69.4840  228.3130 C   0  0  0  0  0  0  0  0  0  0  0  0
  140.4790   70.3000  227.2120 C   0  0  0  0  0  0  0  0  0  0  0  0
  140.6970   71.6060  224.5820 C   0  0  0  0  0  0  0  0  0  0  0  0
  140.6990   72.1000  223.1800 C   0  0  0  0  0  0  0  0  0  0  0  0
  139.3490   75.0670  221.7450 C   0  0  0  0  0  0  0  0  0  0  0  0
  138.3870   77.8210  222.4700 N   0  0  0  0  0  0  0  0  0  0  0  0
  137.9660   78.9490  223.2090 C   0  0  0  0  0  0  0  0  0  0  0  0
  136.6240   79.2090  223.4090 C   0  0  0  0  0  0  0  0  0  0  0  0
  136.2750   80.3220  224.1350 C   0  0  0  0  0  0  0  0  0  0  0  0
  137.2240   81.1940  224.6740 C   0  0  0  0  0  0  0  0  0  0  0  0
  136.7590   82.6080  225.5970 Cl  0  0  0  0  0  0  0  0  0  0  0  0
  138.5660   80.8910  224.4470 C   0  0  0  0  0  0  0  0  0  0  0  0
  138.9610   79.7860  223.7240 C   0  0  0  0  0  0  0  0  0  0  0  0
  141.3689   78.5980  221.8324 H   0  0  0  0  0  0  0  0  0  0  0  0
  141.3825   77.6222  223.3586 H   0  0  0  0  0  0  0  0  0  0  0  0
  141.1410   77.3777  220.0678 H   0  0  0  0  0  0  0  0  0  0  0  0
  141.6387   75.3814  218.6855 H   0  0  0  0  0  0  0  0  0  0  0  0
  140.6626   73.1653  219.2639 H   0  0  0  0  0  0  0  0  0  0  0  0
  137.8755   70.5821  222.0816 H   0  0  0  0  0  0  0  0  0  0  0  0
  139.4041   69.7434  222.4605 H   0  0  0  0  0  0  0  0  0  0  0  0
  137.8002   71.5150  224.4056 H   0  0  0  0  0  0  0  0  0  0  0  0
  137.8336   69.7356  224.4386 H   0  0  0  0  0  0  0  0  0  0  0  0
  139.1268   68.0385  225.1403 H   0  0  0  0  0  0  0  0  0  0  0  0
  139.5582   66.5973  227.0764 H   0  0  0  0  0  0  0  0  0  0  0  0
  140.5877   67.4922  229.1492 H   0  0  0  0  0  0  0  0  0  0  0  0
  141.1826   69.9131  229.2161 H   0  0  0  0  0  0  0  0  0  0  0  0
  140.7509   71.3644  227.2675 H   0  0  0  0  0  0  0  0  0  0  0  0
  140.6062   72.4789  225.2451 H   0  0  0  0  0  0  0  0  0  0  0  0
  141.6361   71.0449  224.6975 H   0  0  0  0  0  0  0  0  0  0  0  0
  140.8503   73.1892  223.2092 H   0  0  0  0  0  0  0  0  0  0  0  0
  141.5011   71.5420  222.6747 H   0  0  0  0  0  0  0  0  0  0  0  0
  138.6924   74.9740  222.6226 H   0  0  0  0  0  0  0  0  0  0  0  0
  135.8534   78.5410  222.9969 H   0  0  0  0  0  0  0  0  0  0  0  0
  135.2081   80.5345  224.2980 H   0  0  0  0  0  0  0  0  0  0  0  0
  139.3372   81.5579  224.8598 H   0  0  0  0  0  0  0  0  0  0  0  0
  1  2  2  0
  2  3  1  0
  3  4  1  0
  4  5  1  0
  5  6  2  0
  6  7  1  0
  7  8  2  0
  8  9  1  0
  9 10  1  0
 10 11  2  0
 10 12  1  0
 12 13  1  0
 13 14  1  0
 14 15  1  0
 15 16  1  0
 16 17  2  0
 17 18  1  0
 18 19  2  0
 19 20  1  0
 20 21  2  0
 15 22  1  0
 22 23  1  0
  9 24  2  0
  4 25  2  0
 25 26  1  0
 26 27  2  0
 27 28  1  0
 28 29  2  0
 29 30  1  0
 29 31  1  0
 31 32  2  0
 32  2  1  0
 24  5  1  0
 32 26  1  0
 23 12  1  0
 21 16  1  0
  3 33  1  0
  3 34  1  0
  6 35  1  0
  7 36  1  0
  8 37  1  0
 13 38  1  0
 13 39  1  0
 14 40  1  0
 14 41  1  0
 17 42  1  0
 18 43  1  0
 19 44  1  0
 20 45  1  0
 21 46  1  0
 22 47  1  0
 22 48  1  0
 23 49  1  0
 23 50  1  0
 24 51  1  0
 27 52  1  0
 28 53  1  0
 31 54  1  0
M  END
>  <smiles>  (22) 
O=C1CC(c2cccc(C(=O)N3CCN(c4ccccc4)CC3)c2)=Nc2ccc(Cl)cc21

>  <score_type>  (22) 
oracle

>  <origin>  (22) 
autodockgpu

>  <m_score__min__energy>  (22) 
-9.1099999999999994

>  <m_primary>  (22) 
energy

>  <rmsd>  (22) 
8.755243853567094

>  <m_score__min__rmsd>  (22) 
8.755243853567094

>  <meeko>  (22) 
{"free_energy": -8.53, "intermolecular_energy": -9.42, "internal_energy": -0.95, "cluster_size": 5, "cluster_id": 2, "rank_in_cluster": 5}

>  <energy>  (22) 
-8.94

>  <cluster_rmsd>  (22) 
0.65

>  <cluster>  (22) 
1

$$$$

     RDKit          3D

 54 58  0  0  0  0  0  0  0  0999 V2000
  139.2030   67.1330  224.3880 O   0  0  0  0  0  0  0  0  0  0  0  0
  139.2020   68.3830  224.4510 C   0  0  0  0  0  0  0  0  0  0  0  0
  138.5960   69.1350  223.3140 C   0  0  0  0  0  0  0  0  0  0  0  0
  138.6700   70.5980  223.5290 C   0  0  0  0  0  0  0  0  0  0  0  0
  138.1170   71.4590  222.4900 C   0  0  0  0  0  0  0  0  0  0  0  0
  136.7690   71.3190  222.1700 C   0  0  0  0  0  0  0  0  0  0  0  0
  136.2020   72.1200  221.1890 C   0  0  0  0  0  0  0  0  0  0  0  0
  136.9600   73.0650  220.5160 C   0  0  0  0  0  0  0  0  0  0  0  0
  138.3110   73.2000  220.8410 C   0  0  0  0  0  0  0  0  0  0  0  0
  139.1730   74.1630  220.1880 C   0  0  0  0  0  0  0  0  0  0  0  0
  139.7430   73.8430  219.0980 O   0  0  0  0  0  0  0  0  0  0  0  0
  139.4380   75.4670  220.6810 N   0  0  0  0  0  0  0  0  0  0  0  0
  140.3280   76.3070  219.9010 C   0  0  0  0  0  0  0  0  0  0  0  0
  141.4830   76.7300  220.8070 C   0  0  0  0  0  0  0  0  0  0  0  0
  140.9120   77.4690  221.9120 N   0  0  0  0  0  0  0  0  0  0  0  0
  141.4490   78.7260  222.3580 C   0  0  0  0  0  0  0  0  0  0  0  0
  141.6220   79.8020  221.5140 C   0  0  0  0  0  0  0  0  0  0  0  0
  142.1510   80.9980  221.9610 C   0  0  0  0  0  0  0  0  0  0  0  0
  142.5340   81.1800  223.2690 C   0  0  0  0  0  0  0  0  0  0  0  0
  142.3680   80.1160  224.1270 C   0  0  0  0  0  0  0  0  0  0  0  0
  141.8350   78.9120  223.6750 C   0  0  0  0  0  0  0  0  0  0  0  0
  139.7600   76.9750  222.6220 C   0  0  0  0  0  0  0  0  0  0  0  0
  138.8950   76.0170  221.8840 C   0  0  0  0  0  0  0  0  0  0  0  0
  138.8490   72.3970  221.8160 C   0  0  0  0  0  0  0  0  0  0  0  0
  139.1920   71.1470  224.5720 N   0  0  0  0  0  0  0  0  0  0  0  0
  139.7700   70.4600  225.6620 C   0  0  0  0  0  0  0  0  0  0  0  0
  140.3040   71.1450  226.7350 C   0  0  0  0  0  0  0  0  0  0  0  0
  140.8530   70.4210  227.7660 C   0  0  0  0  0  0  0  0  0  0  0  0
  140.8900   69.0250  227.7650 C   0  0  0  0  0  0  0  0  0  0  0  0
  141.5940   68.1200  229.0890 Cl  0  0  0  0  0  0  0  0  0  0  0  0
  140.3380   68.3760  226.6610 C   0  0  0  0  0  0  0  0  0  0  0  0
  139.7780   69.0610  225.6060 C   0  0  0  0  0  0  0  0  0  0  0  0
  139.1363   68.8819  222.3899 H   0  0  0  0  0  0  0  0  0  0  0  0
  137.5360   68.8508  223.2387 H   0  0  0  0  0  0  0  0  0  0  0  0
  136.1537   70.5734  222.6949 H   0  0  0  0  0  0  0  0  0  0  0  0
  135.1364   72.0033  220.9422 H   0  0  0  0  0  0  0  0  0  0  0  0
  136.5052   73.6976  219.7395 H   0  0  0  0  0  0  0  0  0  0  0  0
  140.7152   75.7434  219.0394 H   0  0  0  0  0  0  0  0  0  0  0  0
  139.7913   77.1903  219.5244 H   0  0  0  0  0  0  0  0  0  0  0  0
  142.0129   75.8418  221.1815 H   0  0  0  0  0  0  0  0  0  0  0  0
  142.2054   77.3493  220.2551 H   0  0  0  0  0  0  0  0  0  0  0  0
  141.3315   79.7063  220.4574 H   0  0  0  0  0  0  0  0  0  0  0  0
  142.2691   81.8286  221.2496 H   0  0  0  0  0  0  0  0  0  0  0  0
  142.9552   82.1353  223.6153 H   0  0  0  0  0  0  0  0  0  0  0  0
  142.6601   80.2186  225.1825 H   0  0  0  0  0  0  0  0  0  0  0  0
  141.7166   78.0817  224.3868 H   0  0  0  0  0  0  0  0  0  0  0  0
  140.1173   76.4718  223.5325 H   0  0  0  0  0  0  0  0  0  0  0  0
  139.1295   77.8566  222.8096 H   0  0  0  0  0  0  0  0  0  0  0  0
  138.6678   75.1808  222.5616 H   0  0  0  0  0  0  0  0  0  0  0  0
  138.0167   76.5993  221.5687 H   0  0  0  0  0  0  0  0  0  0  0  0
  139.9140   72.5131  222.0656 H   0  0  0  0  0  0  0  0  0  0  0  0
  140.2904   72.2445  226.7641 H   0  0  0  0  0  0  0  0  0  0  0  0
  141.2792   70.9613  228.6241 H   0  0  0  0  0  0  0  0  0  0  0  0
  140.3504   67.2765  226.6319 H   0  0  0  0  0  0  0  0  0  0  0  0
  1  2  2  0
  2  3  1  0
  3  4  1  0
  4  5  1  0
  5  6  2  0
  6  7  1  0
  7  8  2  0
  8  9  1  0
  9 10  1  0
 10 11  2  0
 10 12  1  0
 12 13  1  0
 13 14  1  0
 14 15  1  0
 15 16  1  0
 16 17  2  0
 17 18  1  0
 18 19  2  0
 19 20  1  0
 20 21  2  0
 15 22  1  0
 22 23  1  0
  9 24  2  0
  4 25  2  0
 25 26  1  0
 26 27  2  0
 27 28  1  0
 28 29  2  0
 29 30  1  0
 29 31  1  0
 31 32  2  0
 32  2  1  0
 24  5  1  0
 32 26  1  0
 23 12  1  0
 21 16  1  0
  3 33  1  0
  3 34  1  0
  6 35  1  0
  7 36  1  0
  8 37  1  0
 13 38  1  0
 13 39  1  0
 14 40  1  0
 14 41  1  0
 17 42  1  0
 18 43  1  0
 19 44  1  0
 20 45  1  0
 21 46  1  0
 22 47  1  0
 22 48  1  0
 23 49  1  0
 23 50  1  0
 24 51  1  0
 27 52  1  0
 28 53  1  0
 31 54  1  0
M  END
>  <smiles>  (23) 
O=C1CC(c2cccc(C(=O)N3CCN(c4ccccc4)CC3)c2)=Nc2ccc(Cl)cc21

>  <score_type>  (23) 
oracle

>  <origin>  (23) 
autodockgpu

>  <m_score__min__energy>  (23) 
-9.1099999999999994

>  <m_primary>  (23) 
energy

>  <rmsd>  (23) 
4.6888388697343775

>  <m_score__min__rmsd>  (23) 
4.6888388697343775

>  <meeko>  (23) 
{"free_energy": -9.01, "intermolecular_energy": -9.9, "internal_energy": -0.96, "cluster_size": 44, "cluster_id": 1, "rank_in_cluster": 17}

>  <energy>  (23) 
-8.94

>  <cluster_rmsd>  (23) 
1.37

>  <cluster>  (23) 
1

$$$$

     RDKit          3D

 54 58  0  0  0  0  0  0  0  0999 V2000
  138.9140   67.4450  224.1310 O   0  0  0  0  0  0  0  0  0  0  0  0
  139.0780   68.6840  224.0790 C   0  0  0  0  0  0  0  0  0  0  0  0
  138.5750   69.4010  222.8710 C   0  0  0  0  0  0  0  0  0  0  0  0
  138.8430   70.8560  222.9520 C   0  0  0  0  0  0  0  0  0  0  0  0
  138.4060   71.6820  221.8330 C   0  0  0  0  0  0  0  0  0  0  0  0
  137.1660   71.4100  221.2600 C   0  0  0  0  0  0  0  0  0  0  0  0
  136.7110   72.1730  220.1950 C   0  0  0  0  0  0  0  0  0  0  0  0
  137.4750   73.2130  219.6860 C   0  0  0  0  0  0  0  0  0  0  0  0
  138.7170   73.4810  220.2650 C   0  0  0  0  0  0  0  0  0  0  0  0
  139.5770   74.5470  219.7970 C   0  0  0  0  0  0  0  0  0  0  0  0
  140.2560   74.3740  218.7360 O   0  0  0  0  0  0  0  0  0  0  0  0
  139.7250   75.8010  220.4440 N   0  0  0  0  0  0  0  0  0  0  0  0
  140.6310   76.7620  219.8400 C   0  0  0  0  0  0  0  0  0  0  0  0
  141.6770   77.1380  220.8870 C   0  0  0  0  0  0  0  0  0  0  0  0
  140.9730   77.7260  222.0060 N   0  0  0  0  0  0  0  0  0  0  0  0
  141.3980   78.9510  222.6270 C   0  0  0  0  0  0  0  0  0  0  0  0
  142.7260   79.2970  222.7560 C   0  0  0  0  0  0  0  0  0  0  0  0
  143.1140   80.4740  223.3680 C   0  0  0  0  0  0  0  0  0  0  0  0
  142.1980   81.3630  223.8790 C   0  0  0  0  0  0  0  0  0  0  0  0
  140.8670   81.0340  223.7600 C   0  0  0  0  0  0  0  0  0  0  0  0
  140.4780   79.8480  223.1430 C   0  0  0  0  0  0  0  0  0  0  0  0
  139.7930   77.1050  222.5520 C   0  0  0  0  0  0  0  0  0  0  0  0
  139.0500   76.1930  221.6430 C   0  0  0  0  0  0  0  0  0  0  0  0
  139.1450   72.7110  221.3190 C   0  0  0  0  0  0  0  0  0  0  0  0
  139.4360   71.4250  223.9450 N   0  0  0  0  0  0  0  0  0  0  0  0
  139.9200   70.7710  225.0990 C   0  0  0  0  0  0  0  0  0  0  0  0
  140.5430   71.4760  226.1100 C   0  0  0  0  0  0  0  0  0  0  0  0
  140.9940   70.7840  227.2080 C   0  0  0  0  0  0  0  0  0  0  0  0
  140.8450   69.4010  227.3360 C   0  0  0  0  0  0  0  0  0  0  0  0
  141.4270   68.5370  228.7450 Cl  0  0  0  0  0  0  0  0  0  0  0  0
  140.2100   68.7310  226.2910 C   0  0  0  0  0  0  0  0  0  0  0  0
  139.7420   69.3840  225.1720 C   0  0  0  0  0  0  0  0  0  0  0  0
  139.0755   68.9945  221.9798 H   0  0  0  0  0  0  0  0  0  0  0  0
  137.4866   69.2535  222.8105 H   0  0  0  0  0  0  0  0  0  0  0  0
  136.5472   70.5896  221.6524 H   0  0  0  0  0  0  0  0  0  0  0  0
  135.7309   71.9505  219.7478 H   0  0  0  0  0  0  0  0  0  0  0  0
  137.1090   73.8156  218.8416 H   0  0  0  0  0  0  0  0  0  0  0  0
  141.1225   76.3137  218.9640 H   0  0  0  0  0  0  0  0  0  0  0  0
  140.0800   77.6547  219.5090 H   0  0  0  0  0  0  0  0  0  0  0  0
  142.2215   76.2401  221.2145 H   0  0  0  0  0  0  0  0  0  0  0  0
  142.4079   77.8468  220.4705 H   0  0  0  0  0  0  0  0  0  0  0  0
  143.4970   78.6188  222.3616 H   0  0  0  0  0  0  0  0  0  0  0  0
  144.1862   80.7061  223.4485 H   0  0  0  0  0  0  0  0  0  0  0  0
  142.5158   82.2983  224.3628 H   0  0  0  0  0  0  0  0  0  0  0  0
  140.1011   81.7164  224.1572 H   0  0  0  0  0  0  0  0  0  0  0  0
  139.4057   79.6162  223.0629 H   0  0  0  0  0  0  0  0  0  0  0  0
  140.0977   76.5237  223.4347 H   0  0  0  0  0  0  0  0  0  0  0  0
  139.1002   77.9311  222.7703 H   0  0  0  0  0  0  0  0  0  0  0  0
  138.8120   75.2791  222.2071 H   0  0  0  0  0  0  0  0  0  0  0  0
  138.1712   76.7647  221.3100 H   0  0  0  0  0  0  0  0  0  0  0  0
  140.1243   72.9318  221.7687 H   0  0  0  0  0  0  0  0  0  0  0  0
  140.6750   72.5657  226.0379 H   0  0  0  0  0  0  0  0  0  0  0  0
  141.4911   71.3399  228.0166 H   0  0  0  0  0  0  0  0  0  0  0  0
  140.0780   67.6413  226.3628 H   0  0  0  0  0  0  0  0  0  0  0  0
  1  2  2  0
  2  3  1  0
  3  4  1  0
  4  5  1  0
  5  6  2  0
  6  7  1  0
  7  8  2  0
  8  9  1  0
  9 10  1  0
 10 11  2  0
 10 12  1  0
 12 13  1  0
 13 14  1  0
 14 15  1  0
 15 16  1  0
 16 17  2  0
 17 18  1  0
 18 19  2  0
 19 20  1  0
 20 21  2  0
 15 22  1  0
 22 23  1  0
  9 24  2  0
  4 25  2  0
 25 26  1  0
 26 27  2  0
 27 28  1  0
 28 29  2  0
 29 30  1  0
 29 31  1  0
 31 32  2  0
 32  2  1  0
 24  5  1  0
 32 26  1  0
 23 12  1  0
 21 16  1  0
  3 33  1  0
  3 34  1  0
  6 35  1  0
  7 36  1  0
  8 37  1  0
 13 38  1  0
 13 39  1  0
 14 40  1  0
 14 41  1  0
 17 42  1  0
 18 43  1  0
 19 44  1  0
 20 45  1  0
 21 46  1  0
 22 47  1  0
 22 48  1  0
 23 49  1  0
 23 50  1  0
 24 51  1  0
 27 52  1  0
 28 53  1  0
 31 54  1  0
M  END
>  <smiles>  (24) 
O=C1CC(c2cccc(C(=O)N3CCN(c4ccccc4)CC3)c2)=Nc2ccc(Cl)cc21

>  <score_type>  (24) 
oracle

>  <origin>  (24) 
autodockgpu

>  <m_score__min__energy>  (24) 
-9.1099999999999994

>  <m_primary>  (24) 
energy

>  <rmsd>  (24) 
4.860462061930742

>  <m_score__min__rmsd>  (24) 
4.860462061930742

>  <meeko>  (24) 
{"free_energy": -8.78, "intermolecular_energy": -9.68, "internal_energy": -0.98, "cluster_size": 44, "cluster_id": 1, "rank_in_cluster": 41}

>  <energy>  (24) 
-8.94

>  <cluster_rmsd>  (24) 
1.35

>  <cluster>  (24) 
1

$$$$

     RDKit          3D

 54 58  0  0  0  0  0  0  0  0999 V2000
  139.0880   67.3140  224.3630 O   0  0  0  0  0  0  0  0  0  0  0  0
  139.1370   68.5620  224.4200 C   0  0  0  0  0  0  0  0  0  0  0  0
  138.5800   69.3330  223.2700 C   0  0  0  0  0  0  0  0  0  0  0  0
  138.7110   70.7930  223.4800 C   0  0  0  0  0  0  0  0  0  0  0  0
  138.2080   71.6700  222.4290 C   0  0  0  0  0  0  0  0  0  0  0  0
  136.8840   71.5210  222.0250 C   0  0  0  0  0  0  0  0  0  0  0  0
  136.3660   72.3360  221.0300 C   0  0  0  0  0  0  0  0  0  0  0  0
  137.1490   73.3070  220.4250 C   0  0  0  0  0  0  0  0  0  0  0  0
  138.4760   73.4520  220.8350 C   0  0  0  0  0  0  0  0  0  0  0  0
  139.3620   74.4410  220.2570 C   0  0  0  0  0  0  0  0  0  0  0  0
  140.0450   74.1350  219.2290 O   0  0  0  0  0  0  0  0  0  0  0  0
  139.5320   75.7570  220.7590 N   0  0  0  0  0  0  0  0  0  0  0  0
  140.4630   76.6240  220.0600 C   0  0  0  0  0  0  0  0  0  0  0  0
  141.5100   77.0940  221.0670 C   0  0  0  0  0  0  0  0  0  0  0  0
  140.8110   77.8190  222.1060 N   0  0  0  0  0  0  0  0  0  0  0  0
  141.2580   79.0980  222.5880 C   0  0  0  0  0  0  0  0  0  0  0  0
  140.8130   80.2890  222.0580 C   0  0  0  0  0  0  0  0  0  0  0  0
  141.2640   81.5080  222.5290 C   0  0  0  0  0  0  0  0  0  0  0  0
  142.1810   81.5980  223.5500 C   0  0  0  0  0  0  0  0  0  0  0  0
  142.6380   80.4180  224.0920 C   0  0  0  0  0  0  0  0  0  0  0  0
  142.1810   79.1910  223.6160 C   0  0  0  0  0  0  0  0  0  0  0  0
  139.6140   77.2890  222.7070 C   0  0  0  0  0  0  0  0  0  0  0  0
  138.8580   76.2960  221.9010 C   0  0  0  0  0  0  0  0  0  0  0  0
  138.9660   72.6330  221.8220 C   0  0  0  0  0  0  0  0  0  0  0  0
  139.2400   71.3260  224.5280 N   0  0  0  0  0  0  0  0  0  0  0  0
  139.7720   70.6200  225.6290 C   0  0  0  0  0  0  0  0  0  0  0  0
  140.3190   71.2890  226.7080 C   0  0  0  0  0  0  0  0  0  0  0  0
  140.8220   70.5480  227.7490 C   0  0  0  0  0  0  0  0  0  0  0  0
  140.8010   69.1510  227.7560 C   0  0  0  0  0  0  0  0  0  0  0  0
  141.4490   68.2250  229.0940 Cl  0  0  0  0  0  0  0  0  0  0  0  0
  140.2400   68.5200  226.6460 C   0  0  0  0  0  0  0  0  0  0  0  0
  139.7230   69.2220  225.5800 C   0  0  0  0  0  0  0  0  0  0  0  0
  139.1237   69.0534  222.3556 H   0  0  0  0  0  0  0  0  0  0  0  0
  137.5105   69.0923  223.1793 H   0  0  0  0  0  0  0  0  0  0  0  0
  136.2485   70.7563  222.4954 H   0  0  0  0  0  0  0  0  0  0  0  0
  135.3192   72.2104  220.7163 H   0  0  0  0  0  0  0  0  0  0  0  0
  136.7327   73.9513  219.6366 H   0  0  0  0  0  0  0  0  0  0  0  0
  140.9506   76.0694  219.2447 H   0  0  0  0  0  0  0  0  0  0  0  0
  139.9339   77.4852  219.6260 H   0  0  0  0  0  0  0  0  0  0  0  0
  142.0329   76.2278  221.4987 H   0  0  0  0  0  0  0  0  0  0  0  0
  142.2589   77.7358  220.5800 H   0  0  0  0  0  0  0  0  0  0  0  0
  140.0795   80.2697  221.2385 H   0  0  0  0  0  0  0  0  0  0  0  0
  140.8784   82.4324  222.0742 H   0  0  0  0  0  0  0  0  0  0  0  0
  142.5346   82.5724  223.9182 H   0  0  0  0  0  0  0  0  0  0  0  0
  143.3725   80.4442  224.9104 H   0  0  0  0  0  0  0  0  0  0  0  0
  142.5657   78.2665  224.0714 H   0  0  0  0  0  0  0  0  0  0  0  0
  139.8995   76.8056  223.6529 H   0  0  0  0  0  0  0  0  0  0  0  0
  138.9380   78.1490  222.8230 H   0  0  0  0  0  0  0  0  0  0  0  0
  138.5974   75.4568  222.5627 H   0  0  0  0  0  0  0  0  0  0  0  0
  137.9936   76.8442  221.4981 H   0  0  0  0  0  0  0  0  0  0  0  0
  140.0124   72.7566  222.1379 H   0  0  0  0  0  0  0  0  0  0  0  0
  140.3506   72.3883  226.7321 H   0  0  0  0  0  0  0  0  0  0  0  0
  141.2583   71.0746  228.6106 H   0  0  0  0  0  0  0  0  0  0  0  0
  140.2094   67.4207  226.6211 H   0  0  0  0  0  0  0  0  0  0  0  0
  1  2  2  0
  2  3  1  0
  3  4  1  0
  4  5  1  0
  5  6  2  0
  6  7  1  0
  7  8  2  0
  8  9  1  0
  9 10  1  0
 10 11  2  0
 10 12  1  0
 12 13  1  0
 13 14  1  0
 14 15  1  0
 15 16  1  0
 16 17  2  0
 17 18  1  0
 18 19  2  0
 19 20  1  0
 20 21  2  0
 15 22  1  0
 22 23  1  0
  9 24  2  0
  4 25  2  0
 25 26  1  0
 26 27  2  0
 27 28  1  0
 28 29  2  0
 29 30  1  0
 29 31  1  0
 31 32  2  0
 32  2  1  0
 24  5  1  0
 32 26  1  0
 23 12  1  0
 21 16  1  0
  3 33  1  0
  3 34  1  0
  6 35  1  0
  7 36  1  0
  8 37  1  0
 13 38  1  0
 13 39  1  0
 14 40  1  0
 14 41  1  0
 17 42  1  0
 18 43  1  0
 19 44  1  0
 20 45  1  0
 21 46  1  0
 22 47  1  0
 22 48  1  0
 23 49  1  0
 23 50  1  0
 24 51  1  0
 27 52  1  0
 28 53  1  0
 31 54  1  0
M  END
>  <smiles>  (25) 
O=C1CC(c2cccc(C(=O)N3CCN(c4ccccc4)CC3)c2)=Nc2ccc(Cl)cc21

>  <score_type>  (25) 
oracle

>  <origin>  (25) 
autodockgpu

>  <m_score__min__energy>  (25) 
-9.1099999999999994

>  <m_primary>  (25) 
energy

>  <rmsd>  (25) 
4.865813913498278

>  <m_score__min__rmsd>  (25) 
4.865813913498278

>  <meeko>  (25) 
{"free_energy": -8.99, "intermolecular_energy": -9.89, "internal_energy": -0.95, "cluster_size": 44, "cluster_id": 1, "rank_in_cluster": 19}

>  <energy>  (25) 
-8.94

>  <cluster_rmsd>  (25) 
1.47

>  <cluster>  (25) 
1

$$$$

     RDKit          3D

 54 58  0  0  0  0  0  0  0  0999 V2000
  139.1910   67.1550  224.2510 O   0  0  0  0  0  0  0  0  0  0  0  0
  139.2290   68.4040  224.2930 C   0  0  0  0  0  0  0  0  0  0  0  0
  138.6860   69.1550  223.1240 C   0  0  0  0  0  0  0  0  0  0  0  0
  138.8010   70.6190  223.3170 C   0  0  0  0  0  0  0  0  0  0  0  0
  138.3110   71.4790  222.2460 C   0  0  0  0  0  0  0  0  0  0  0  0
  137.0170   71.2710  221.7760 C   0  0  0  0  0  0  0  0  0  0  0  0
  136.5110   72.0670  220.7600 C   0  0  0  0  0  0  0  0  0  0  0  0
  137.2770   73.0770  220.1990 C   0  0  0  0  0  0  0  0  0  0  0  0
  138.5740   73.2820  220.6740 C   0  0  0  0  0  0  0  0  0  0  0  0
  139.4400   74.3140  220.1450 C   0  0  0  0  0  0  0  0  0  0  0  0
  140.1320   74.0700  219.1070 O   0  0  0  0  0  0  0  0  0  0  0  0
  139.5820   75.6080  220.7090 N   0  0  0  0  0  0  0  0  0  0  0  0
  140.4960   76.5260  220.0530 C   0  0  0  0  0  0  0  0  0  0  0  0
  141.5320   76.9700  221.0840 C   0  0  0  0  0  0  0  0  0  0  0  0
  140.8160   77.6320  222.1530 N   0  0  0  0  0  0  0  0  0  0  0  0
  141.2350   78.8960  222.6950 C   0  0  0  0  0  0  0  0  0  0  0  0
  140.3460   79.8230  223.1930 C   0  0  0  0  0  0  0  0  0  0  0  0
  140.7690   81.0370  223.6990 C   0  0  0  0  0  0  0  0  0  0  0  0
  142.0980   81.3870  223.7340 C   0  0  0  0  0  0  0  0  0  0  0  0
  143.0020   80.4730  223.2410 C   0  0  0  0  0  0  0  0  0  0  0  0
  142.5740   79.2500  222.7310 C   0  0  0  0  0  0  0  0  0  0  0  0
  139.6290   77.0500  222.7260 C   0  0  0  0  0  0  0  0  0  0  0  0
  138.8950   76.0800  221.8720 C   0  0  0  0  0  0  0  0  0  0  0  0
  139.0520   72.4800  221.6820 C   0  0  0  0  0  0  0  0  0  0  0  0
  139.3050   71.1700  224.3680 N   0  0  0  0  0  0  0  0  0  0  0  0
  139.8230   70.4830  225.4880 C   0  0  0  0  0  0  0  0  0  0  0  0
  140.3430   71.1700  226.5680 C   0  0  0  0  0  0  0  0  0  0  0  0
  140.8330   70.4460  227.6280 C   0  0  0  0  0  0  0  0  0  0  0  0
  140.8240   69.0490  227.6520 C   0  0  0  0  0  0  0  0  0  0  0  0
  141.4540   68.1460  229.0140 Cl  0  0  0  0  0  0  0  0  0  0  0  0
  140.2890   68.3990  226.5400 C   0  0  0  0  0  0  0  0  0  0  0  0
  139.7870   69.0840  225.4550 C   0  0  0  0  0  0  0  0  0  0  0  0
  139.2480   68.8682  222.2229 H   0  0  0  0  0  0  0  0  0  0  0  0
  137.6203   68.9040  223.0180 H   0  0  0  0  0  0  0  0  0  0  0  0
  136.3957   70.4744  222.2112 H   0  0  0  0  0  0  0  0  0  0  0  0
  135.4880   71.8948  220.3941 H   0  0  0  0  0  0  0  0  0  0  0  0
  136.8701   73.7061  219.3936 H   0  0  0  0  0  0  0  0  0  0  0  0
  140.9961   76.0203  219.2139 H   0  0  0  0  0  0  0  0  0  0  0  0
  139.9498   77.3954  219.6582 H   0  0  0  0  0  0  0  0  0  0  0  0
  142.0714   76.0955  221.4768 H   0  0  0  0  0  0  0  0  0  0  0  0
  142.2691   77.6482  220.6294 H   0  0  0  0  0  0  0  0  0  0  0  0
  139.2709   79.5905  223.1876 H   0  0  0  0  0  0  0  0  0  0  0  0
  140.0204   81.7444  224.0853 H   0  0  0  0  0  0  0  0  0  0  0  0
  142.4253   82.3561  224.1387 H   0  0  0  0  0  0  0  0  0  0  0  0
  144.0757   80.7119  223.2501 H   0  0  0  0  0  0  0  0  0  0  0  0
  143.3226   78.5427  222.3445 H   0  0  0  0  0  0  0  0  0  0  0  0
  139.9229   76.5289  223.6491 H   0  0  0  0  0  0  0  0  0  0  0  0
  138.9351   77.8894  222.8807 H   0  0  0  0  0  0  0  0  0  0  0  0
  138.6497   75.2061  222.4933 H   0  0  0  0  0  0  0  0  0  0  0  0
  138.0209   76.6290  221.4918 H   0  0  0  0  0  0  0  0  0  0  0  0
  140.0742   72.6505  222.0509 H   0  0  0  0  0  0  0  0  0  0  0  0
  140.3642   72.2697  226.5790 H   0  0  0  0  0  0  0  0  0  0  0  0
  141.2483   70.9870  228.4910 H   0  0  0  0  0  0  0  0  0  0  0  0
  140.2670   67.2993  226.5288 H   0  0  0  0  0  0  0  0  0  0  0  0
  1  2  2  0
  2  3  1  0
  3  4  1  0
  4  5  1  0
  5  6  2  0
  6  7  1  0
  7  8  2  0
  8  9  1  0
  9 10  1  0
 10 11  2  0
 10 12  1  0
 12 13  1  0
 13 14  1  0
 14 15  1  0
 15 16  1  0
 16 17  2  0
 17 18  1  0
 18 19  2  0
 19 20  1  0
 20 21  2  0
 15 22  1  0
 22 23  1  0
  9 24  2  0
  4 25  2  0
 25 26  1  0
 26 27  2  0
 27 28  1  0
 28 29  2  0
 29 30  1  0
 29 31  1  0
 31 32  2  0
 32  2  1  0
 24  5  1  0
 32 26  1  0
 23 12  1  0
 21 16  1  0
  3 33  1  0
  3 34  1  0
  6 35  1  0
  7 36  1  0
  8 37  1  0
 13 38  1  0
 13 39  1  0
 14 40  1  0
 14 41  1  0
 17 42  1  0
 18 43  1  0
 19 44  1  0
 20 45  1  0
 21 46  1  0
 22 47  1  0
 22 48  1  0
 23 49  1  0
 23 50  1  0
 24 51  1  0
 27 52  1  0
 28 53  1  0
 31 54  1  0
M  END
>  <smiles>  (26) 
O=C1CC(c2cccc(C(=O)N3CCN(c4ccccc4)CC3)c2)=Nc2ccc(Cl)cc21

>  <score_type>  (26) 
oracle

>  <origin>  (26) 
autodockgpu

>  <m_score__min__energy>  (26) 
-9.1099999999999994

>  <m_primary>  (26) 
energy

>  <rmsd>  (26) 
4.692831267524599

>  <m_score__min__rmsd>  (26) 
4.692831267524599

>  <meeko>  (26) 
{"free_energy": -8.99, "intermolecular_energy": -9.89, "internal_energy": -0.96, "cluster_size": 44, "cluster_id": 1, "rank_in_cluster": 18}

>  <energy>  (26) 
-8.93

>  <cluster_rmsd>  (26) 
1.36

>  <cluster>  (26) 
1

$$$$

     RDKit          3D

 54 58  0  0  0  0  0  0  0  0999 V2000
  139.1130   67.2820  224.3700 O   0  0  0  0  0  0  0  0  0  0  0  0
  139.1610   68.5300  224.4390 C   0  0  0  0  0  0  0  0  0  0  0  0
  138.5940   69.3110  223.3010 C   0  0  0  0  0  0  0  0  0  0  0  0
  138.7240   70.7690  223.5240 C   0  0  0  0  0  0  0  0  0  0  0  0
  138.2130   71.6560  222.4860 C   0  0  0  0  0  0  0  0  0  0  0  0
  136.8800   71.5250  222.1070 C   0  0  0  0  0  0  0  0  0  0  0  0
  136.3530   72.3500  221.1240 C   0  0  0  0  0  0  0  0  0  0  0  0
  137.1370   73.3120  220.5070 C   0  0  0  0  0  0  0  0  0  0  0  0
  138.4730   73.4390  220.8910 C   0  0  0  0  0  0  0  0  0  0  0  0
  139.3610   74.4180  220.2990 C   0  0  0  0  0  0  0  0  0  0  0  0
  140.0410   74.0970  219.2740 O   0  0  0  0  0  0  0  0  0  0  0  0
  139.5350   75.7400  220.7840 N   0  0  0  0  0  0  0  0  0  0  0  0
  140.4670   76.5950  220.0720 C   0  0  0  0  0  0  0  0  0  0  0  0
  141.5170   77.0760  221.0710 C   0  0  0  0  0  0  0  0  0  0  0  0
  140.8220   77.8160  222.1020 N   0  0  0  0  0  0  0  0  0  0  0  0
  141.2740   79.0990  222.5670 C   0  0  0  0  0  0  0  0  0  0  0  0
  142.4980   79.2820  223.1730 C   0  0  0  0  0  0  0  0  0  0  0  0
  142.9080   80.5220  223.6240 C   0  0  0  0  0  0  0  0  0  0  0  0
  142.1190   81.6400  223.4940 C   0  0  0  0  0  0  0  0  0  0  0  0
  140.8910   81.4770  222.8920 C   0  0  0  0  0  0  0  0  0  0  0  0
  140.4800   80.2260  222.4380 C   0  0  0  0  0  0  0  0  0  0  0  0
  139.6250   77.2960  222.7130 C   0  0  0  0  0  0  0  0  0  0  0  0
  138.8650   76.2950  221.9200 C   0  0  0  0  0  0  0  0  0  0  0  0
  138.9720   72.6110  221.8660 C   0  0  0  0  0  0  0  0  0  0  0  0
  139.2600   71.2920  224.5730 N   0  0  0  0  0  0  0  0  0  0  0  0
  139.8010   70.5770  225.6640 C   0  0  0  0  0  0  0  0  0  0  0  0
  140.3550   71.2360  226.7450 C   0  0  0  0  0  0  0  0  0  0  0  0
  140.8660   70.4850  227.7760 C   0  0  0  0  0  0  0  0  0  0  0  0
  140.8470   69.0890  227.7690 C   0  0  0  0  0  0  0  0  0  0  0  0
  141.5060   68.1500  229.0930 Cl  0  0  0  0  0  0  0  0  0  0  0  0
  140.2790   68.4670  226.6570 C   0  0  0  0  0  0  0  0  0  0  0  0
  139.7540   69.1790  225.6010 C   0  0  0  0  0  0  0  0  0  0  0  0
  139.1312   69.0412  222.3798 H   0  0  0  0  0  0  0  0  0  0  0  0
  137.5242   69.0693  223.2162 H   0  0  0  0  0  0  0  0  0  0  0  0
  136.2440   70.7668  222.5873 H   0  0  0  0  0  0  0  0  0  0  0  0
  135.2987   72.2391  220.8303 H   0  0  0  0  0  0  0  0  0  0  0  0
  136.7139   73.9639  219.7285 H   0  0  0  0  0  0  0  0  0  0  0  0
  140.9518   76.0282  219.2635 H   0  0  0  0  0  0  0  0  0  0  0  0
  139.9393   77.4516  219.6273 H   0  0  0  0  0  0  0  0  0  0  0  0
  142.0389   76.2144  221.5128 H   0  0  0  0  0  0  0  0  0  0  0  0
  142.2661   77.7099  220.5741 H   0  0  0  0  0  0  0  0  0  0  0  0
  143.1665   78.4179  223.3011 H   0  0  0  0  0  0  0  0  0  0  0  0
  143.8946   80.6173  224.1010 H   0  0  0  0  0  0  0  0  0  0  0  0
  142.4542   82.6233  223.8555 H   0  0  0  0  0  0  0  0  0  0  0  0
  140.2269   82.3451  222.7683 H   0  0  0  0  0  0  0  0  0  0  0  0
  139.4931   80.1303  221.9618 H   0  0  0  0  0  0  0  0  0  0  0  0
  139.9118   76.8231  223.6639 H   0  0  0  0  0  0  0  0  0  0  0  0
  138.9512   78.1587  222.8213 H   0  0  0  0  0  0  0  0  0  0  0  0
  138.6031   75.4647  222.5924 H   0  0  0  0  0  0  0  0  0  0  0  0
  138.0019   76.8410  221.5115 H   0  0  0  0  0  0  0  0  0  0  0  0
  140.0261   72.7199  222.1611 H   0  0  0  0  0  0  0  0  0  0  0  0
  140.3861   72.3350  226.7793 H   0  0  0  0  0  0  0  0  0  0  0  0
  141.3070   71.0036  228.6401 H   0  0  0  0  0  0  0  0  0  0  0  0
  140.2493   67.3680  226.6221 H   0  0  0  0  0  0  0  0  0  0  0  0
  1  2  2  0
  2  3  1  0
  3  4  1  0
  4  5  1  0
  5  6  2  0
  6  7  1  0
  7  8  2  0
  8  9  1  0
  9 10  1  0
 10 11  2  0
 10 12  1  0
 12 13  1  0
 13 14  1  0
 14 15  1  0
 15 16  1  0
 16 17  2  0
 17 18  1  0
 18 19  2  0
 19 20  1  0
 20 21  2  0
 15 22  1  0
 22 23  1  0
  9 24  2  0
  4 25  2  0
 25 26  1  0
 26 27  2  0
 27 28  1  0
 28 29  2  0
 29 30  1  0
 29 31  1  0
 31 32  2  0
 32  2  1  0
 24  5  1  0
 32 26  1  0
 23 12  1  0
 21 16  1  0
  3 33  1  0
  3 34  1  0
  6 35  1  0
  7 36  1  0
  8 37  1  0
 13 38  1  0
 13 39  1  0
 14 40  1  0
 14 41  1  0
 17 42  1  0
 18 43  1  0
 19 44  1  0
 20 45  1  0
 21 46  1  0
 22 47  1  0
 22 48  1  0
 23 49  1  0
 23 50  1  0
 24 51  1  0
 27 52  1  0
 28 53  1  0
 31 54  1  0
M  END
>  <smiles>  (27) 
O=C1CC(c2cccc(C(=O)N3CCN(c4ccccc4)CC3)c2)=Nc2ccc(Cl)cc21

>  <score_type>  (27) 
oracle

>  <origin>  (27) 
autodockgpu

>  <m_score__min__energy>  (27) 
-9.1099999999999994

>  <m_primary>  (27) 
energy

>  <rmsd>  (27) 
4.648680967001545

>  <m_score__min__rmsd>  (27) 
4.648680967001545

>  <meeko>  (27) 
{"free_energy": -9.07, "intermolecular_energy": -9.96, "internal_energy": -0.96, "cluster_size": 44, "cluster_id": 1, "rank_in_cluster": 8}

>  <energy>  (27) 
-8.93

>  <cluster_rmsd>  (27) 
0.7

>  <cluster>  (27) 
1

$$$$

     RDKit          3D

 54 58  0  0  0  0  0  0  0  0999 V2000
  139.1650   67.2640  224.3760 O   0  0  0  0  0  0  0  0  0  0  0  0
  139.2040   68.5120  224.4480 C   0  0  0  0  0  0  0  0  0  0  0  0
  138.6380   69.2920  223.3090 C   0  0  0  0  0  0  0  0  0  0  0  0
  138.7570   70.7510  223.5360 C   0  0  0  0  0  0  0  0  0  0  0  0
  138.2440   71.6360  222.4960 C   0  0  0  0  0  0  0  0  0  0  0  0
  136.9130   71.4980  222.1120 C   0  0  0  0  0  0  0  0  0  0  0  0
  136.3850   72.3210  221.1290 C   0  0  0  0  0  0  0  0  0  0  0  0
  137.1660   73.2890  220.5160 C   0  0  0  0  0  0  0  0  0  0  0  0
  138.5010   73.4230  220.9050 C   0  0  0  0  0  0  0  0  0  0  0  0
  139.3850   74.4070  220.3180 C   0  0  0  0  0  0  0  0  0  0  0  0
  140.0760   74.0890  219.2990 O   0  0  0  0  0  0  0  0  0  0  0  0
  139.5440   75.7320  220.8010 N   0  0  0  0  0  0  0  0  0  0  0  0
  140.4750   76.5930  220.0940 C   0  0  0  0  0  0  0  0  0  0  0  0
  141.5130   77.0850  221.1000 C   0  0  0  0  0  0  0  0  0  0  0  0
  140.8030   77.8220  222.1230 N   0  0  0  0  0  0  0  0  0  0  0  0
  141.2390   79.1100  222.5880 C   0  0  0  0  0  0  0  0  0  0  0  0
  140.6130   80.2830  222.2260 C   0  0  0  0  0  0  0  0  0  0  0  0
  141.0560   81.5130  222.6760 C   0  0  0  0  0  0  0  0  0  0  0  0
  142.1440   81.6340  223.5060 C   0  0  0  0  0  0  0  0  0  0  0  0
  142.7840   80.4730  223.8790 C   0  0  0  0  0  0  0  0  0  0  0  0
  142.3360   79.2350  223.4250 C   0  0  0  0  0  0  0  0  0  0  0  0
  139.6050   77.2940  222.7250 C   0  0  0  0  0  0  0  0  0  0  0  0
  138.8600   76.2840  221.9290 C   0  0  0  0  0  0  0  0  0  0  0  0
  139.0000   72.5960  221.8810 C   0  0  0  0  0  0  0  0  0  0  0  0
  139.2830   71.2750  224.5890 N   0  0  0  0  0  0  0  0  0  0  0  0
  139.8240   70.5610  225.6800 C   0  0  0  0  0  0  0  0  0  0  0  0
  140.3680   71.2220  226.7660 C   0  0  0  0  0  0  0  0  0  0  0  0
  140.8790   70.4730  227.7970 C   0  0  0  0  0  0  0  0  0  0  0  0
  140.8700   69.0760  227.7870 C   0  0  0  0  0  0  0  0  0  0  0  0
  141.5290   68.1390  229.1130 Cl  0  0  0  0  0  0  0  0  0  0  0  0
  140.3120   68.4530  226.6710 C   0  0  0  0  0  0  0  0  0  0  0  0
  139.7870   69.1630  225.6140 C   0  0  0  0  0  0  0  0  0  0  0  0
  139.1819   69.0280  222.3901 H   0  0  0  0  0  0  0  0  0  0  0  0
  137.5703   69.0435  223.2181 H   0  0  0  0  0  0  0  0  0  0  0  0
  136.2797   70.7354  222.5888 H   0  0  0  0  0  0  0  0  0  0  0  0
  135.3324   72.2045  220.8314 H   0  0  0  0  0  0  0  0  0  0  0  0
  136.7419   73.9399  219.7372 H   0  0  0  0  0  0  0  0  0  0  0  0
  140.9709   76.0281  219.2909 H   0  0  0  0  0  0  0  0  0  0  0  0
  139.9440   77.4442  219.6429 H   0  0  0  0  0  0  0  0  0  0  0  0
  142.0383   76.2289  221.5485 H   0  0  0  0  0  0  0  0  0  0  0  0
  142.2614   77.7234  220.6077 H   0  0  0  0  0  0  0  0  0  0  0  0
  139.7376   80.2396  221.5613 H   0  0  0  0  0  0  0  0  0  0  0  0
  140.5217   82.4212  222.3602 H   0  0  0  0  0  0  0  0  0  0  0  0
  142.4896   82.6172  223.8580 H   0  0  0  0  0  0  0  0  0  0  0  0
  143.6593   80.5241  224.5433 H   0  0  0  0  0  0  0  0  0  0  0  0
  142.8704   78.3270  223.7412 H   0  0  0  0  0  0  0  0  0  0  0  0
  139.8873   76.8267  223.6800 H   0  0  0  0  0  0  0  0  0  0  0  0
  138.9232   78.1515  222.8240 H   0  0  0  0  0  0  0  0  0  0  0  0
  138.5998   75.4535  222.6017 H   0  0  0  0  0  0  0  0  0  0  0  0
  137.9953   76.8210  221.5119 H   0  0  0  0  0  0  0  0  0  0  0  0
  140.0521   72.7103  222.1810 H   0  0  0  0  0  0  0  0  0  0  0  0
  140.3908   72.3211  226.8030 H   0  0  0  0  0  0  0  0  0  0  0  0
  141.3122   70.9929  228.6642 H   0  0  0  0  0  0  0  0  0  0  0  0
  140.2904   67.3539  226.6336 H   0  0  0  0  0  0  0  0  0  0  0  0
  1  2  2  0
  2  3  1  0
  3  4  1  0
  4  5  1  0
  5  6  2  0
  6  7  1  0
  7  8  2  0
  8  9  1  0
  9 10  1  0
 10 11  2  0
 10 12  1  0
 12 13  1  0
 13 14  1  0
 14 15  1  0
 15 16  1  0
 16 17  2  0
 17 18  1  0
 18 19  2  0
 19 20  1  0
 20 21  2  0
 15 22  1  0
 22 23  1  0
  9 24  2  0
  4 25  2  0
 25 26  1  0
 26 27  2  0
 27 28  1  0
 28 29  2  0
 29 30  1  0
 29 31  1  0
 31 32  2  0
 32  2  1  0
 24  5  1  0
 32 26  1  0
 23 12  1  0
 21 16  1  0
  3 33  1  0
  3 34  1  0
  6 35  1  0
  7 36  1  0
  8 37  1  0
 13 38  1  0
 13 39  1  0
 14 40  1  0
 14 41  1  0
 17 42  1  0
 18 43  1  0
 19 44  1  0
 20 45  1  0
 21 46  1  0
 22 47  1  0
 22 48  1  0
 23 49  1  0
 23 50  1  0
 24 51  1  0
 27 52  1  0
 28 53  1  0
 31 54  1  0
M  END
>  <smiles>  (28) 
O=C1CC(c2cccc(C(=O)N3CCN(c4ccccc4)CC3)c2)=Nc2ccc(Cl)cc21

>  <score_type>  (28) 
oracle

>  <origin>  (28) 
autodockgpu

>  <m_score__min__energy>  (28) 
-9.1099999999999994

>  <m_primary>  (28) 
energy

>  <rmsd>  (28) 
4.824890354750451

>  <m_score__min__rmsd>  (28) 
4.824890354750451

>  <meeko>  (28) 
{"free_energy": -9.08, "intermolecular_energy": -9.97, "internal_energy": -0.95, "cluster_size": 44, "cluster_id": 1, "rank_in_cluster": 6}

>  <energy>  (28) 
-8.93

>  <cluster_rmsd>  (28) 
1.45

>  <cluster>  (28) 
1

$$$$

     RDKit          3D

 54 58  0  0  0  0  0  0  0  0999 V2000
  141.1710   80.5030  223.8790 O   0  0  0  0  0  0  0  0  0  0  0  0
  140.2930   79.7200  223.4530 C   0  0  0  0  0  0  0  0  0  0  0  0
  140.7420   78.5230  222.6840 C   0  0  0  0  0  0  0  0  0  0  0  0
  139.5940   77.6960  222.2460 C   0  0  0  0  0  0  0  0  0  0  0  0
  139.8880   76.4920  221.4790 C   0  0  0  0  0  0  0  0  0  0  0  0
  140.7670   76.5950  220.4040 C   0  0  0  0  0  0  0  0  0  0  0  0
  141.0760   75.4730  219.6490 C   0  0  0  0  0  0  0  0  0  0  0  0
  140.5210   74.2390  219.9480 C   0  0  0  0  0  0  0  0  0  0  0  0
  139.6400   74.1410  221.0280 C   0  0  0  0  0  0  0  0  0  0  0  0
  139.0180   72.8910  221.4090 C   0  0  0  0  0  0  0  0  0  0  0  0
  137.9520   72.5260  220.8210 O   0  0  0  0  0  0  0  0  0  0  0  0
  139.5160   72.0200  222.4130 N   0  0  0  0  0  0  0  0  0  0  0  0
  138.7680   70.8040  222.6730 C   0  0  0  0  0  0  0  0  0  0  0  0
  138.3900   70.7950  224.1530 C   0  0  0  0  0  0  0  0  0  0  0  0
  139.6220   70.8150  224.9100 N   0  0  0  0  0  0  0  0  0  0  0  0
  139.8600   69.9300  226.0180 C   0  0  0  0  0  0  0  0  0  0  0  0
  140.2060   70.3840  227.2720 C   0  0  0  0  0  0  0  0  0  0  0  0
  140.4430   69.5150  228.3200 C   0  0  0  0  0  0  0  0  0  0  0  0
  140.3470   68.1520  228.1700 C   0  0  0  0  0  0  0  0  0  0  0  0
  140.0030   67.6790  226.9240 C   0  0  0  0  0  0  0  0  0  0  0  0
  139.7650   68.5560  225.8690 C   0  0  0  0  0  0  0  0  0  0  0  0
  140.6840   71.7310  224.5810 C   0  0  0  0  0  0  0  0  0  0  0  0
  140.6970   72.2470  223.1870 C   0  0  0  0  0  0  0  0  0  0  0  0
  139.3510   75.2660  221.7600 C   0  0  0  0  0  0  0  0  0  0  0  0
  138.3630   77.9790  222.5020 N   0  0  0  0  0  0  0  0  0  0  0  0
  137.9110   79.1040  223.2280 C   0  0  0  0  0  0  0  0  0  0  0  0
  136.5640   79.3170  223.4470 C   0  0  0  0  0  0  0  0  0  0  0  0
  136.1860   80.4290  224.1590 C   0  0  0  0  0  0  0  0  0  0  0  0
  137.1100   81.3460  224.6660 C   0  0  0  0  0  0  0  0  0  0  0  0
  136.6060   82.7580  225.5720 Cl  0  0  0  0  0  0  0  0  0  0  0  0
  138.4580   81.0900  224.4200 C   0  0  0  0  0  0  0  0  0  0  0  0
  138.8830   79.9880  223.7110 C   0  0  0  0  0  0  0  0  0  0  0  0
  141.3006   78.8570  221.7972 H   0  0  0  0  0  0  0  0  0  0  0  0
  141.3777   77.9103  223.3401 H   0  0  0  0  0  0  0  0  0  0  0  0
  141.2168   77.5670  220.1532 H   0  0  0  0  0  0  0  0  0  0  0  0
  141.7711   75.5641  218.8014 H   0  0  0  0  0  0  0  0  0  0  0  0
  140.7695   73.3526  219.3459 H   0  0  0  0  0  0  0  0  0  0  0  0
  137.8586   70.7848  222.0545 H   0  0  0  0  0  0  0  0  0  0  0  0
  139.3744   69.9200  222.4262 H   0  0  0  0  0  0  0  0  0  0  0  0
  137.7860   71.6824  224.3929 H   0  0  0  0  0  0  0  0  0  0  0  0
  137.7958   69.9025  224.3984 H   0  0  0  0  0  0  0  0  0  0  0  0
  140.2960   71.4668  227.4435 H   0  0  0  0  0  0  0  0  0  0  0  0
  140.7165   69.9260  229.3030 H   0  0  0  0  0  0  0  0  0  0  0  0
  140.5371   67.4681  229.0103 H   0  0  0  0  0  0  0  0  0  0  0  0
  139.9150   66.5949  226.7597 H   0  0  0  0  0  0  0  0  0  0  0  0
  139.4928   68.1447  224.8858 H   0  0  0  0  0  0  0  0  0  0  0  0
  140.6042   72.5945  225.2578 H   0  0  0  0  0  0  0  0  0  0  0  0
  141.6145   71.1546  224.6903 H   0  0  0  0  0  0  0  0  0  0  0  0
  140.8624   73.3335  223.2340 H   0  0  0  0  0  0  0  0  0  0  0  0
  141.4933   71.6862  222.6757 H   0  0  0  0  0  0  0  0  0  0  0  0
  138.6575   75.1774  222.6092 H   0  0  0  0  0  0  0  0  0  0  0  0
  135.8122   78.6131  223.0606 H   0  0  0  0  0  0  0  0  0  0  0  0
  135.1147   80.6043  224.3368 H   0  0  0  0  0  0  0  0  0  0  0  0
  139.2100   81.7938  224.8062 H   0  0  0  0  0  0  0  0  0  0  0  0
  1  2  2  0
  2  3  1  0
  3  4  1  0
  4  5  1  0
  5  6  2  0
  6  7  1  0
  7  8  2  0
  8  9  1  0
  9 10  1  0
 10 11  2  0
 10 12  1  0
 12 13  1  0
 13 14  1  0
 14 15  1  0
 15 16  1  0
 16 17  2  0
 17 18  1  0
 18 19  2  0
 19 20  1  0
 20 21  2  0
 15 22  1  0
 22 23  1  0
  9 24  2  0
  4 25  2  0
 25 26  1  0
 26 27  2  0
 27 28  1  0
 28 29  2  0
 29 30  1  0
 29 31  1  0
 31 32  2  0
 32  2  1  0
 24  5  1  0
 32 26  1  0
 23 12  1  0
 21 16  1  0
  3 33  1  0
  3 34  1  0
  6 35  1  0
  7 36  1  0
  8 37  1  0
 13 38  1  0
 13 39  1  0
 14 40  1  0
 14 41  1  0
 17 42  1  0
 18 43  1  0
 19 44  1  0
 20 45  1  0
 21 46  1  0
 22 47  1  0
 22 48  1  0
 23 49  1  0
 23 50  1  0
 24 51  1  0
 27 52  1  0
 28 53  1  0
 31 54  1  0
M  END
>  <smiles>  (29) 
O=C1CC(c2cccc(C(=O)N3CCN(c4ccccc4)CC3)c2)=Nc2ccc(Cl)cc21

>  <score_type>  (29) 
oracle

>  <origin>  (29) 
autodockgpu

>  <m_score__min__energy>  (29) 
-9.1099999999999994

>  <m_primary>  (29) 
energy

>  <rmsd>  (29) 
8.804218287416065

>  <m_score__min__rmsd>  (29) 
8.804218287416065

>  <meeko>  (29) 
{"free_energy": -8.54, "intermolecular_energy": -9.44, "internal_energy": -0.95, "cluster_size": 5, "cluster_id": 2, "rank_in_cluster": 2}

>  <energy>  (29) 
-8.93

>  <cluster_rmsd>  (29) 
1.36

>  <cluster>  (29) 
1

$$$$

     RDKit          3D

 54 58  0  0  0  0  0  0  0  0999 V2000
  139.1630   67.2220  224.3250 O   0  0  0  0  0  0  0  0  0  0  0  0
  139.1990   68.4710  224.3850 C   0  0  0  0  0  0  0  0  0  0  0  0
  138.6370   69.2380  223.2360 C   0  0  0  0  0  0  0  0  0  0  0  0
  138.7520   70.7000  223.4490 C   0  0  0  0  0  0  0  0  0  0  0  0
  138.2430   71.5740  222.3990 C   0  0  0  0  0  0  0  0  0  0  0  0
  136.9240   71.4070  221.9860 C   0  0  0  0  0  0  0  0  0  0  0  0
  136.3990   72.2190  220.9920 C   0  0  0  0  0  0  0  0  0  0  0  0
  137.1720   73.2030  220.3950 C   0  0  0  0  0  0  0  0  0  0  0  0
  138.4950   73.3660  220.8120 C   0  0  0  0  0  0  0  0  0  0  0  0
  139.3700   74.3690  220.2440 C   0  0  0  0  0  0  0  0  0  0  0  0
  140.0380   74.0870  219.2000 O   0  0  0  0  0  0  0  0  0  0  0  0
  139.5440   75.6740  220.7730 N   0  0  0  0  0  0  0  0  0  0  0  0
  140.4620   76.5590  220.0790 C   0  0  0  0  0  0  0  0  0  0  0  0
  141.5230   77.0100  221.0800 C   0  0  0  0  0  0  0  0  0  0  0  0
  140.8380   77.7100  222.1450 N   0  0  0  0  0  0  0  0  0  0  0  0
  141.2890   78.9780  222.6490 C   0  0  0  0  0  0  0  0  0  0  0  0
  142.6220   79.2680  222.8480 C   0  0  0  0  0  0  0  0  0  0  0  0
  143.0340   80.4900  223.3450 C   0  0  0  0  0  0  0  0  0  0  0  0
  142.1390   81.4820  223.6670 C   0  0  0  0  0  0  0  0  0  0  0  0
  140.8020   81.2120  223.4750 C   0  0  0  0  0  0  0  0  0  0  0  0
  140.3900   79.9800  222.9740 C   0  0  0  0  0  0  0  0  0  0  0  0
  139.6520   77.1630  222.7520 C   0  0  0  0  0  0  0  0  0  0  0  0
  138.8860   76.1860  221.9350 C   0  0  0  0  0  0  0  0  0  0  0  0
  138.9910   72.5500  221.7990 C   0  0  0  0  0  0  0  0  0  0  0  0
  139.2730   71.2350  224.4990 N   0  0  0  0  0  0  0  0  0  0  0  0
  139.8110   70.5330  225.6000 C   0  0  0  0  0  0  0  0  0  0  0  0
  140.3480   71.2050  226.6810 C   0  0  0  0  0  0  0  0  0  0  0  0
  140.8570   70.4670  227.7220 C   0  0  0  0  0  0  0  0  0  0  0  0
  140.8500   69.0700  227.7260 C   0  0  0  0  0  0  0  0  0  0  0  0
  141.5030   68.1480  229.0640 Cl  0  0  0  0  0  0  0  0  0  0  0  0
  140.2970   68.4350  226.6140 C   0  0  0  0  0  0  0  0  0  0  0  0
  139.7760   69.1350  225.5480 C   0  0  0  0  0  0  0  0  0  0  0  0
  139.1858   68.9659  222.3223 H   0  0  0  0  0  0  0  0  0  0  0  0
  137.5703   68.9863  223.1425 H   0  0  0  0  0  0  0  0  0  0  0  0
  136.2976   70.6301  222.4486 H   0  0  0  0  0  0  0  0  0  0  0  0
  135.3554   72.0806  220.6730 H   0  0  0  0  0  0  0  0  0  0  0  0
  136.7507   73.8442  219.6067 H   0  0  0  0  0  0  0  0  0  0  0  0
  140.9386   76.0239  219.2444 H   0  0  0  0  0  0  0  0  0  0  0  0
  139.9240   77.4279  219.6721 H   0  0  0  0  0  0  0  0  0  0  0  0
  142.0547   76.1362  221.4846 H   0  0  0  0  0  0  0  0  0  0  0  0
  142.2628   77.6645  220.5958 H   0  0  0  0  0  0  0  0  0  0  0  0
  143.3777   78.5066  222.6048 H   0  0  0  0  0  0  0  0  0  0  0  0
  144.1092   80.6739  223.4869 H   0  0  0  0  0  0  0  0  0  0  0  0
  142.4765   82.4517  224.0618 H   0  0  0  0  0  0  0  0  0  0  0  0
  140.0516   81.9780  223.7202 H   0  0  0  0  0  0  0  0  0  0  0  0
  139.3148   79.7965  222.8316 H   0  0  0  0  0  0  0  0  0  0  0  0
  139.9533   76.6590  223.6822 H   0  0  0  0  0  0  0  0  0  0  0  0
  138.9756   78.0181  222.8979 H   0  0  0  0  0  0  0  0  0  0  0  0
  138.6363   75.3319  222.5817 H   0  0  0  0  0  0  0  0  0  0  0  0
  138.0150   76.7411  221.5566 H   0  0  0  0  0  0  0  0  0  0  0  0
  140.0339   72.6869  222.1208 H   0  0  0  0  0  0  0  0  0  0  0  0
  140.3676   72.3045  226.7076 H   0  0  0  0  0  0  0  0  0  0  0  0
  141.2865   70.9963  228.5854 H   0  0  0  0  0  0  0  0  0  0  0  0
  140.2761   67.3355  226.5873 H   0  0  0  0  0  0  0  0  0  0  0  0
  1  2  2  0
  2  3  1  0
  3  4  1  0
  4  5  1  0
  5  6  2  0
  6  7  1  0
  7  8  2  0
  8  9  1  0
  9 10  1  0
 10 11  2  0
 10 12  1  0
 12 13  1  0
 13 14  1  0
 14 15  1  0
 15 16  1  0
 16 17  2  0
 17 18  1  0
 18 19  2  0
 19 20  1  0
 20 21  2  0
 15 22  1  0
 22 23  1  0
  9 24  2  0
  4 25  2  0
 25 26  1  0
 26 27  2  0
 27 28  1  0
 28 29  2  0
 29 30  1  0
 29 31  1  0
 31 32  2  0
 32  2  1  0
 24  5  1  0
 32 26  1  0
 23 12  1  0
 21 16  1  0
  3 33  1  0
  3 34  1  0
  6 35  1  0
  7 36  1  0
  8 37  1  0
 13 38  1  0
 13 39  1  0
 14 40  1  0
 14 41  1  0
 17 42  1  0
 18 43  1  0
 19 44  1  0
 20 45  1  0
 21 46  1  0
 22 47  1  0
 22 48  1  0
 23 49  1  0
 23 50  1  0
 24 51  1  0
 27 52  1  0
 28 53  1  0
 31 54  1  0
M  END
>  <smiles>  (30) 
O=C1CC(c2cccc(C(=O)N3CCN(c4ccccc4)CC3)c2)=Nc2ccc(Cl)cc21

>  <score_type>  (30) 
oracle

>  <origin>  (30) 
autodockgpu

>  <m_score__min__energy>  (30) 
-9.1099999999999994

>  <m_primary>  (30) 
energy

>  <rmsd>  (30) 
4.712069088934164

>  <m_score__min__rmsd>  (30) 
4.712069088934164

>  <meeko>  (30) 
{"free_energy": -9.01, "intermolecular_energy": -9.91, "internal_energy": -0.96, "cluster_size": 44, "cluster_id": 1, "rank_in_cluster": 16}

>  <energy>  (30) 
-8.93

>  <cluster_rmsd>  (30) 
1.38

>  <cluster>  (30) 
1

$$$$

     RDKit          3D

 54 58  0  0  0  0  0  0  0  0999 V2000
  138.9020   67.4080  224.0550 O   0  0  0  0  0  0  0  0  0  0  0  0
  139.0790   68.6460  224.0120 C   0  0  0  0  0  0  0  0  0  0  0  0
  138.6100   69.3730  222.7970 C   0  0  0  0  0  0  0  0  0  0  0  0
  138.8880   70.8250  222.8910 C   0  0  0  0  0  0  0  0  0  0  0  0
  138.4850   71.6600  221.7660 C   0  0  0  0  0  0  0  0  0  0  0  0
  138.3900   71.0690  220.5090 C   0  0  0  0  0  0  0  0  0  0  0  0
  138.0080   71.8280  219.4120 C   0  0  0  0  0  0  0  0  0  0  0  0
  137.7150   73.1760  219.5470 C   0  0  0  0  0  0  0  0  0  0  0  0
  137.8110   73.7630  220.8100 C   0  0  0  0  0  0  0  0  0  0  0  0
  137.5220   75.1630  221.0380 C   0  0  0  0  0  0  0  0  0  0  0  0
  136.4530   75.6600  220.5630 O   0  0  0  0  0  0  0  0  0  0  0  0
  138.3590   76.0460  221.7690 N   0  0  0  0  0  0  0  0  0  0  0  0
  137.9200   77.4230  221.9040 C   0  0  0  0  0  0  0  0  0  0  0  0
  139.0210   78.3210  221.3430 C   0  0  0  0  0  0  0  0  0  0  0  0
  140.2120   78.0800  222.1260 N   0  0  0  0  0  0  0  0  0  0  0  0
  141.0210   79.1490  222.6490 C   0  0  0  0  0  0  0  0  0  0  0  0
  142.3940   79.1640  222.5380 C   0  0  0  0  0  0  0  0  0  0  0  0
  143.1540   80.1950  223.0580 C   0  0  0  0  0  0  0  0  0  0  0  0
  142.5830   81.2600  223.7130 C   0  0  0  0  0  0  0  0  0  0  0  0
  141.2110   81.2620  223.8340 C   0  0  0  0  0  0  0  0  0  0  0  0
  140.4480   80.2220  223.3090 C   0  0  0  0  0  0  0  0  0  0  0  0
  140.6460   76.7400  222.4290 C   0  0  0  0  0  0  0  0  0  0  0  0
  139.6000   75.6850  222.3820 C   0  0  0  0  0  0  0  0  0  0  0  0
  138.1920   72.9910  221.8800 C   0  0  0  0  0  0  0  0  0  0  0  0
  139.4620   71.3840  223.9010 N   0  0  0  0  0  0  0  0  0  0  0  0
  139.9130   70.7200  225.0620 C   0  0  0  0  0  0  0  0  0  0  0  0
  140.5180   71.4150  226.0920 C   0  0  0  0  0  0  0  0  0  0  0  0
  140.9360   70.7140  227.1970 C   0  0  0  0  0  0  0  0  0  0  0  0
  140.7730   69.3310  227.3150 C   0  0  0  0  0  0  0  0  0  0  0  0
  141.3130   68.4560  228.7320 Cl  0  0  0  0  0  0  0  0  0  0  0  0
  140.1570   68.6720  226.2510 C   0  0  0  0  0  0  0  0  0  0  0  0
  139.7220   69.3350  225.1240 C   0  0  0  0  0  0  0  0  0  0  0  0
  139.1274   68.9665  221.9155 H   0  0  0  0  0  0  0  0  0  0  0  0
  137.5221   69.2351  222.7112 H   0  0  0  0  0  0  0  0  0  0  0  0
  138.6179   70.0000  220.3854 H   0  0  0  0  0  0  0  0  0  0  0  0
  137.9368   71.3536  218.4221 H   0  0  0  0  0  0  0  0  0  0  0  0
  137.4121   73.7729  218.6741 H   0  0  0  0  0  0  0  0  0  0  0  0
  136.9884   77.5759  221.3394 H   0  0  0  0  0  0  0  0  0  0  0  0
  137.7287   77.6636  222.9602 H   0  0  0  0  0  0  0  0  0  0  0  0
  139.2077   78.0733  220.2876 H   0  0  0  0  0  0  0  0  0  0  0  0
  138.7263   79.3794  221.3976 H   0  0  0  0  0  0  0  0  0  0  0  0
  142.8988   78.3339  222.0221 H   0  0  0  0  0  0  0  0  0  0  0  0
  144.2476   80.1621  222.9443 H   0  0  0  0  0  0  0  0  0  0  0  0
  143.1958   82.0762  224.1232 H   0  0  0  0  0  0  0  0  0  0  0  0
  140.7121   82.0948  224.3513 H   0  0  0  0  0  0  0  0  0  0  0  0
  139.3544   80.2544  223.4226 H   0  0  0  0  0  0  0  0  0  0  0  0
  141.4287   76.4690  221.7052 H   0  0  0  0  0  0  0  0  0  0  0  0
  140.9868   76.7703  223.4744 H   0  0  0  0  0  0  0  0  0  0  0  0
  140.0118   74.8301  221.8256 H   0  0  0  0  0  0  0  0  0  0  0  0
  139.3550   75.4697  223.4325 H   0  0  0  0  0  0  0  0  0  0  0  0
  138.2646   73.4632  222.8708 H   0  0  0  0  0  0  0  0  0  0  0  0
  140.6615   72.5038  226.0285 H   0  0  0  0  0  0  0  0  0  0  0  0
  141.4174   71.2621  228.0203 H   0  0  0  0  0  0  0  0  0  0  0  0
  140.0132   67.5833  226.3139 H   0  0  0  0  0  0  0  0  0  0  0  0
  1  2  2  0
  2  3  1  0
  3  4  1  0
  4  5  1  0
  5  6  2  0
  6  7  1  0
  7  8  2  0
  8  9  1  0
  9 10  1  0
 10 11  2  0
 10 12  1  0
 12 13  1  0
 13 14  1  0
 14 15  1  0
 15 16  1  0
 16 17  2  0
 17 18  1  0
 18 19  2  0
 19 20  1  0
 20 21  2  0
 15 22  1  0
 22 23  1  0
  9 24  2  0
  4 25  2  0
 25 26  1  0
 26 27  2  0
 27 28  1  0
 28 29  2  0
 29 30  1  0
 29 31  1  0
 31 32  2  0
 32  2  1  0
 24  5  1  0
 32 26  1  0
 23 12  1  0
 21 16  1  0
  3 33  1  0
  3 34  1  0
  6 35  1  0
  7 36  1  0
  8 37  1  0
 13 38  1  0
 13 39  1  0
 14 40  1  0
 14 41  1  0
 17 42  1  0
 18 43  1  0
 19 44  1  0
 20 45  1  0
 21 46  1  0
 22 47  1  0
 22 48  1  0
 23 49  1  0
 23 50  1  0
 24 51  1  0
 27 52  1  0
 28 53  1  0
 31 54  1  0
M  END
>  <smiles>  (31) 
O=C1CC(c2cccc(C(=O)N3CCN(c4ccccc4)CC3)c2)=Nc2ccc(Cl)cc21

>  <score_type>  (31) 
oracle

>  <origin>  (31) 
autodockgpu

>  <m_score__min__energy>  (31) 
-9.1099999999999994

>  <m_primary>  (31) 
energy

>  <rmsd>  (31) 
4.973283436074885

>  <m_score__min__rmsd>  (31) 
4.973283436074885

>  <meeko>  (31) 
{"free_energy": -8.95, "intermolecular_energy": -9.84, "internal_energy": -0.91, "cluster_size": 44, "cluster_id": 1, "rank_in_cluster": 21}

>  <energy>  (31) 
-8.93

>  <cluster_rmsd>  (31) 
1.37

>  <cluster>  (31) 
1

$$$$

     RDKit          3D

 54 58  0  0  0  0  0  0  0  0999 V2000
  138.9640   67.2290  224.1510 O   0  0  0  0  0  0  0  0  0  0  0  0
  139.1910   68.4580  224.1250 C   0  0  0  0  0  0  0  0  0  0  0  0
  138.7960   69.2120  222.9000 C   0  0  0  0  0  0  0  0  0  0  0  0
  139.1290   70.6510  223.0150 C   0  0  0  0  0  0  0  0  0  0  0  0
  138.8000   71.5090  221.8840 C   0  0  0  0  0  0  0  0  0  0  0  0
  138.9140   70.9790  220.6010 C   0  0  0  0  0  0  0  0  0  0  0  0
  138.6090   71.7610  219.4970 C   0  0  0  0  0  0  0  0  0  0  0  0
  138.1880   73.0730  219.6490 C   0  0  0  0  0  0  0  0  0  0  0  0
  138.0760   73.6000  220.9370 C   0  0  0  0  0  0  0  0  0  0  0  0
  137.6430   74.9590  221.1840 C   0  0  0  0  0  0  0  0  0  0  0  0
  136.4920   75.3240  220.7880 O   0  0  0  0  0  0  0  0  0  0  0  0
  138.4220   75.9400  221.8510 N   0  0  0  0  0  0  0  0  0  0  0  0
  137.8370   77.2580  222.0160 C   0  0  0  0  0  0  0  0  0  0  0  0
  138.7820   78.2720  221.3750 C   0  0  0  0  0  0  0  0  0  0  0  0
  140.0470   78.1790  222.0710 N   0  0  0  0  0  0  0  0  0  0  0  0
  140.7610   79.3380  222.5310 C   0  0  0  0  0  0  0  0  0  0  0  0
  140.4260   80.6190  222.1480 C   0  0  0  0  0  0  0  0  0  0  0  0
  141.1330   81.7200  222.5930 C   0  0  0  0  0  0  0  0  0  0  0  0
  142.2080   81.5980  223.4410 C   0  0  0  0  0  0  0  0  0  0  0  0
  142.5580   80.3270  223.8360 C   0  0  0  0  0  0  0  0  0  0  0  0
  141.8440   79.2190  223.3860 C   0  0  0  0  0  0  0  0  0  0  0  0
  140.6540   76.9010  222.3430 C   0  0  0  0  0  0  0  0  0  0  0  0
  139.7380   75.7310  222.3730 C   0  0  0  0  0  0  0  0  0  0  0  0
  138.3830   72.8060  222.0140 C   0  0  0  0  0  0  0  0  0  0  0  0
  139.6890   71.1800  224.0490 N   0  0  0  0  0  0  0  0  0  0  0  0
  140.0710   70.4900  225.2210 C   0  0  0  0  0  0  0  0  0  0  0  0
  140.6670   71.1530  226.2760 C   0  0  0  0  0  0  0  0  0  0  0  0
  141.0170   70.4280  227.3890 C   0  0  0  0  0  0  0  0  0  0  0  0
  140.7930   69.0530  227.4910 C   0  0  0  0  0  0  0  0  0  0  0  0
  141.2470   68.1470  228.9190 Cl  0  0  0  0  0  0  0  0  0  0  0  0
  140.1890   68.4260  226.4010 C   0  0  0  0  0  0  0  0  0  0  0  0
  139.8220   69.1130  225.2640 C   0  0  0  0  0  0  0  0  0  0  0  0
  139.3278   68.7905  222.0342 H   0  0  0  0  0  0  0  0  0  0  0  0
  137.7071   69.1195  222.7749 H   0  0  0  0  0  0  0  0  0  0  0  0
  139.2462   69.9394  220.4633 H   0  0  0  0  0  0  0  0  0  0  0  0
  138.7024   71.3345  218.4873 H   0  0  0  0  0  0  0  0  0  0  0  0
  137.9463   73.6884  218.7698 H   0  0  0  0  0  0  0  0  0  0  0  0
  136.8554   77.2963  221.5210 H   0  0  0  0  0  0  0  0  0  0  0  0
  137.6965   77.4850  223.0831 H   0  0  0  0  0  0  0  0  0  0  0  0
  138.9202   78.0368  220.3094 H   0  0  0  0  0  0  0  0  0  0  0  0
  138.3703   79.2894  221.4484 H   0  0  0  0  0  0  0  0  0  0  0  0
  139.5730   80.7690  221.4699 H   0  0  0  0  0  0  0  0  0  0  0  0
  140.8268   82.7224  222.2591 H   0  0  0  0  0  0  0  0  0  0  0  0
  142.7655   82.4799  223.7895 H   0  0  0  0  0  0  0  0  0  0  0  0
  143.4116   80.1845  224.5150 H   0  0  0  0  0  0  0  0  0  0  0  0
  142.1502   78.2169  223.7206 H   0  0  0  0  0  0  0  0  0  0  0  0
  141.4090   76.7159  221.5647 H   0  0  0  0  0  0  0  0  0  0  0  0
  141.0623   76.9805  223.3613 H   0  0  0  0  0  0  0  0  0  0  0  0
  140.2057   74.9247  221.7889 H   0  0  0  0  0  0  0  0  0  0  0  0
  139.5962   75.4980  223.4386 H   0  0  0  0  0  0  0  0  0  0  0  0
  138.2898   73.2304  223.0246 H   0  0  0  0  0  0  0  0  0  0  0  0
  140.8568   72.2354  226.2261 H   0  0  0  0  0  0  0  0  0  0  0  0
  141.4920   70.9504  228.2325 H   0  0  0  0  0  0  0  0  0  0  0  0
  139.9987   67.3437  226.4508 H   0  0  0  0  0  0  0  0  0  0  0  0
  1  2  2  0
  2  3  1  0
  3  4  1  0
  4  5  1  0
  5  6  2  0
  6  7  1  0
  7  8  2  0
  8  9  1  0
  9 10  1  0
 10 11  2  0
 10 12  1  0
 12 13  1  0
 13 14  1  0
 14 15  1  0
 15 16  1  0
 16 17  2  0
 17 18  1  0
 18 19  2  0
 19 20  1  0
 20 21  2  0
 15 22  1  0
 22 23  1  0
  9 24  2  0
  4 25  2  0
 25 26  1  0
 26 27  2  0
 27 28  1  0
 28 29  2  0
 29 30  1  0
 29 31  1  0
 31 32  2  0
 32  2  1  0
 24  5  1  0
 32 26  1  0
 23 12  1  0
 21 16  1  0
  3 33  1  0
  3 34  1  0
  6 35  1  0
  7 36  1  0
  8 37  1  0
 13 38  1  0
 13 39  1  0
 14 40  1  0
 14 41  1  0
 17 42  1  0
 18 43  1  0
 19 44  1  0
 20 45  1  0
 21 46  1  0
 22 47  1  0
 22 48  1  0
 23 49  1  0
 23 50  1  0
 24 51  1  0
 27 52  1  0
 28 53  1  0
 31 54  1  0
M  END
>  <smiles>  (32) 
O=C1CC(c2cccc(C(=O)N3CCN(c4ccccc4)CC3)c2)=Nc2ccc(Cl)cc21

>  <score_type>  (32) 
oracle

>  <origin>  (32) 
autodockgpu

>  <m_score__min__energy>  (32) 
-9.1099999999999994

>  <m_primary>  (32) 
energy

>  <rmsd>  (32) 
4.8711289585342525

>  <m_score__min__rmsd>  (32) 
4.8711289585342525

>  <meeko>  (32) 
{"free_energy": -8.93, "intermolecular_energy": -9.82, "internal_energy": -0.94, "cluster_size": 44, "cluster_id": 1, "rank_in_cluster": 31}

>  <energy>  (32) 
-8.92

>  <cluster_rmsd>  (32) 
1.38

>  <cluster>  (32) 
1

$$$$

     RDKit          3D

 54 58  0  0  0  0  0  0  0  0999 V2000
  139.2720   67.0270  224.7990 O   0  0  0  0  0  0  0  0  0  0  0  0
  139.2970   68.2730  224.9060 C   0  0  0  0  0  0  0  0  0  0  0  0
  138.6750   69.0770  223.8130 C   0  0  0  0  0  0  0  0  0  0  0  0
  138.7840   70.5300  224.0780 C   0  0  0  0  0  0  0  0  0  0  0  0
  138.2190   71.4380  223.0870 C   0  0  0  0  0  0  0  0  0  0  0  0
  136.8430   71.4080  222.8760 C   0  0  0  0  0  0  0  0  0  0  0  0
  136.2650   72.2560  221.9430 C   0  0  0  0  0  0  0  0  0  0  0  0
  137.0390   73.1420  221.2110 C   0  0  0  0  0  0  0  0  0  0  0  0
  138.4190   73.1680  221.4260 C   0  0  0  0  0  0  0  0  0  0  0  0
  139.3000   74.0620  220.7050 C   0  0  0  0  0  0  0  0  0  0  0  0
  139.9780   73.6100  219.7300 O   0  0  0  0  0  0  0  0  0  0  0  0
  139.4700   75.4380  221.0090 N   0  0  0  0  0  0  0  0  0  0  0  0
  140.3950   76.1940  220.1850 C   0  0  0  0  0  0  0  0  0  0  0  0
  141.4460   76.8080  221.1070 C   0  0  0  0  0  0  0  0  0  0  0  0
  140.7510   77.6760  222.0310 N   0  0  0  0  0  0  0  0  0  0  0  0
  141.1980   79.0120  222.3190 C   0  0  0  0  0  0  0  0  0  0  0  0
  140.5950   80.1300  221.7820 C   0  0  0  0  0  0  0  0  0  0  0  0
  141.0480   81.4050  222.0630 C   0  0  0  0  0  0  0  0  0  0  0  0
  142.1230   81.6290  222.8910 C   0  0  0  0  0  0  0  0  0  0  0  0
  142.7380   80.5250  223.4360 C   0  0  0  0  0  0  0  0  0  0  0  0
  142.2800   79.2410  223.1530 C   0  0  0  0  0  0  0  0  0  0  0  0
  139.5590   77.2380  222.7110 C   0  0  0  0  0  0  0  0  0  0  0  0
  138.8000   76.1370  222.0620 C   0  0  0  0  0  0  0  0  0  0  0  0
  138.9680   72.3180  222.3550 C   0  0  0  0  0  0  0  0  0  0  0  0
  139.3450   71.0310  225.1250 N   0  0  0  0  0  0  0  0  0  0  0  0
  139.9380   70.2940  226.1730 C   0  0  0  0  0  0  0  0  0  0  0  0
  140.5150   70.9310  227.2550 C   0  0  0  0  0  0  0  0  0  0  0  0
  141.0770   70.1590  228.2430 C   0  0  0  0  0  0  0  0  0  0  0  0
  141.0860   68.7630  228.1930 C   0  0  0  0  0  0  0  0  0  0  0  0
  141.8090   67.7990  229.4630 Cl  0  0  0  0  0  0  0  0  0  0  0  0
  140.4930   68.1650  227.0820 C   0  0  0  0  0  0  0  0  0  0  0  0
  139.9170   68.8980  226.0670 C   0  0  0  0  0  0  0  0  0  0  0  0
  139.1849   68.8473  222.8658 H   0  0  0  0  0  0  0  0  0  0  0  0
  137.6080   68.8157  223.7569 H   0  0  0  0  0  0  0  0  0  0  0  0
  136.2140   70.7113  223.4496 H   0  0  0  0  0  0  0  0  0  0  0  0
  135.1773   72.2247  221.7819 H   0  0  0  0  0  0  0  0  0  0  0  0
  136.5748   73.8132  220.4734 H   0  0  0  0  0  0  0  0  0  0  0  0
  140.8796   75.5264  219.4573 H   0  0  0  0  0  0  0  0  0  0  0  0
  139.8619   76.9812  219.6317 H   0  0  0  0  0  0  0  0  0  0  0  0
  141.9726   76.0152  221.6585 H   0  0  0  0  0  0  0  0  0  0  0  0
  142.1915   77.3722  220.5274 H   0  0  0  0  0  0  0  0  0  0  0  0
  139.7312   80.0036  221.1128 H   0  0  0  0  0  0  0  0  0  0  0  0
  140.5337   82.2660  221.6111 H   0  0  0  0  0  0  0  0  0  0  0  0
  142.4764   82.6477  223.1085 H   0  0  0  0  0  0  0  0  0  0  0  0
  143.6021   80.6587  224.1034 H   0  0  0  0  0  0  0  0  0  0  0  0
  142.7940   78.3806  223.6064 H   0  0  0  0  0  0  0  0  0  0  0  0
  139.8515   76.8974  223.7152 H   0  0  0  0  0  0  0  0  0  0  0  0
  138.8820   78.1050  222.7060 H   0  0  0  0  0  0  0  0  0  0  0  0
  138.5430   75.4034  222.8403 H   0  0  0  0  0  0  0  0  0  0  0  0
  137.9330   76.6196  221.5873 H   0  0  0  0  0  0  0  0  0  0  0  0
  140.0556   72.3462  222.5171 H   0  0  0  0  0  0  0  0  0  0  0  0
  140.5242   72.0288  227.3237 H   0  0  0  0  0  0  0  0  0  0  0  0
  141.5379   70.6598  229.1072 H   0  0  0  0  0  0  0  0  0  0  0  0
  140.4845   67.0672  227.0130 H   0  0  0  0  0  0  0  0  0  0  0  0
  1  2  2  0
  2  3  1  0
  3  4  1  0
  4  5  1  0
  5  6  2  0
  6  7  1  0
  7  8  2  0
  8  9  1  0
  9 10  1  0
 10 11  2  0
 10 12  1  0
 12 13  1  0
 13 14  1  0
 14 15  1  0
 15 16  1  0
 16 17  2  0
 17 18  1  0
 18 19  2  0
 19 20  1  0
 20 21  2  0
 15 22  1  0
 22 23  1  0
  9 24  2  0
  4 25  2  0
 25 26  1  0
 26 27  2  0
 27 28  1  0
 28 29  2  0
 29 30  1  0
 29 31  1  0
 31 32  2  0
 32  2  1  0
 24  5  1  0
 32 26  1  0
 23 12  1  0
 21 16  1  0
  3 33  1  0
  3 34  1  0
  6 35  1  0
  7 36  1  0
  8 37  1  0
 13 38  1  0
 13 39  1  0
 14 40  1  0
 14 41  1  0
 17 42  1  0
 18 43  1  0
 19 44  1  0
 20 45  1  0
 21 46  1  0
 22 47  1  0
 22 48  1  0
 23 49  1  0
 23 50  1  0
 24 51  1  0
 27 52  1  0
 28 53  1  0
 31 54  1  0
M  END
>  <smiles>  (33) 
O=C1CC(c2cccc(C(=O)N3CCN(c4ccccc4)CC3)c2)=Nc2ccc(Cl)cc21

>  <score_type>  (33) 
oracle

>  <origin>  (33) 
autodockgpu

>  <m_score__min__energy>  (33) 
-9.1099999999999994

>  <m_primary>  (33) 
energy

>  <rmsd>  (33) 
4.5657771720165305

>  <m_score__min__rmsd>  (33) 
4.5657771720165305

>  <meeko>  (33) 
{"free_energy": -9.09, "intermolecular_energy": -9.99, "internal_energy": -0.94, "cluster_size": 44, "cluster_id": 1, "rank_in_cluster": 3}

>  <energy>  (33) 
-8.92

>  <cluster_rmsd>  (33) 
1.48

>  <cluster>  (33) 
1

$$$$

     RDKit          3D

 54 58  0  0  0  0  0  0  0  0999 V2000
  139.0030   67.3230  224.2110 O   0  0  0  0  0  0  0  0  0  0  0  0
  139.1600   68.5620  224.1500 C   0  0  0  0  0  0  0  0  0  0  0  0
  138.6660   69.2660  222.9310 C   0  0  0  0  0  0  0  0  0  0  0  0
  138.9240   70.7230  223.0030 C   0  0  0  0  0  0  0  0  0  0  0  0
  138.4950   71.5370  221.8720 C   0  0  0  0  0  0  0  0  0  0  0  0
  137.2580   71.2620  221.2960 C   0  0  0  0  0  0  0  0  0  0  0  0
  136.8100   72.0140  220.2200 C   0  0  0  0  0  0  0  0  0  0  0  0
  137.5800   73.0450  219.7030 C   0  0  0  0  0  0  0  0  0  0  0  0
  138.8190   73.3170  220.2850 C   0  0  0  0  0  0  0  0  0  0  0  0
  139.6850   74.3750  219.8080 C   0  0  0  0  0  0  0  0  0  0  0  0
  140.4060   74.1700  218.7820 O   0  0  0  0  0  0  0  0  0  0  0  0
  139.7940   75.6550  220.4120 N   0  0  0  0  0  0  0  0  0  0  0  0
  140.7120   76.6020  219.8070 C   0  0  0  0  0  0  0  0  0  0  0  0
  141.7130   77.0310  220.8770 C   0  0  0  0  0  0  0  0  0  0  0  0
  140.9610   77.6520  221.9450 N   0  0  0  0  0  0  0  0  0  0  0  0
  141.3490   78.9050  222.5340 C   0  0  0  0  0  0  0  0  0  0  0  0
  142.6310   79.4030  222.4450 C   0  0  0  0  0  0  0  0  0  0  0  0
  142.9860   80.6050  223.0290 C   0  0  0  0  0  0  0  0  0  0  0  0
  142.0810   81.3680  223.7290 C   0  0  0  0  0  0  0  0  0  0  0  0
  140.7950   80.8860  223.8290 C   0  0  0  0  0  0  0  0  0  0  0  0
  140.4400   79.6750  223.2390 C   0  0  0  0  0  0  0  0  0  0  0  0
  139.7680   77.0380  222.4700 C   0  0  0  0  0  0  0  0  0  0  0  0
  139.0700   76.0830  221.5690 C   0  0  0  0  0  0  0  0  0  0  0  0
  139.2400   72.5580  221.3500 C   0  0  0  0  0  0  0  0  0  0  0  0
  139.5020   71.3040  223.9980 N   0  0  0  0  0  0  0  0  0  0  0  0
  139.9760   70.6620  225.1630 C   0  0  0  0  0  0  0  0  0  0  0  0
  140.5830   71.3800  226.1750 C   0  0  0  0  0  0  0  0  0  0  0  0
  141.0250   70.6990  227.2840 C   0  0  0  0  0  0  0  0  0  0  0  0
  140.8830   69.3160  227.4220 C   0  0  0  0  0  0  0  0  0  0  0  0
  141.4540   68.4680  228.8440 Cl  0  0  0  0  0  0  0  0  0  0  0  0
  140.2650   68.6340  226.3750 C   0  0  0  0  0  0  0  0  0  0  0  0
  139.8060   69.2750  225.2450 C   0  0  0  0  0  0  0  0  0  0  0  0
  139.1788   68.8554  222.0487 H   0  0  0  0  0  0  0  0  0  0  0  0
  137.5793   69.1112  222.8598 H   0  0  0  0  0  0  0  0  0  0  0  0
  136.6352   70.4476  221.6945 H   0  0  0  0  0  0  0  0  0  0  0  0
  135.8312   71.7896  219.7709 H   0  0  0  0  0  0  0  0  0  0  0  0
  137.2205   73.6380  218.8491 H   0  0  0  0  0  0  0  0  0  0  0  0
  141.2416   76.1262  218.9685 H   0  0  0  0  0  0  0  0  0  0  0  0
  140.1646   77.4747  219.4212 H   0  0  0  0  0  0  0  0  0  0  0  0
  142.2549   76.1533  221.2591 H   0  0  0  0  0  0  0  0  0  0  0  0
  142.4509   77.7328  220.4611 H   0  0  0  0  0  0  0  0  0  0  0  0
  143.3916   78.8293  221.8951 H   0  0  0  0  0  0  0  0  0  0  0  0
  144.0221   80.9612  222.9309 H   0  0  0  0  0  0  0  0  0  0  0  0
  142.3722   82.3234  224.1898 H   0  0  0  0  0  0  0  0  0  0  0  0
  140.0392   81.4639  224.3811 H   0  0  0  0  0  0  0  0  0  0  0  0
  139.4037   79.3191  223.3365 H   0  0  0  0  0  0  0  0  0  0  0  0
  140.0453   76.4944  223.3852 H   0  0  0  0  0  0  0  0  0  0  0  0
  139.0586   77.8632  222.6307 H   0  0  0  0  0  0  0  0  0  0  0  0
  138.8212   75.1880  222.1581 H   0  0  0  0  0  0  0  0  0  0  0  0
  138.1980   76.6306  221.1820 H   0  0  0  0  0  0  0  0  0  0  0  0
  140.2178   72.7810  221.8019 H   0  0  0  0  0  0  0  0  0  0  0  0
  140.7095   72.4698  226.0953 H   0  0  0  0  0  0  0  0  0  0  0  0
  141.5091   71.2645  228.0939 H   0  0  0  0  0  0  0  0  0  0  0  0
  140.1392   67.5441  226.4539 H   0  0  0  0  0  0  0  0  0  0  0  0
  1  2  2  0
  2  3  1  0
  3  4  1  0
  4  5  1  0
  5  6  2  0
  6  7  1  0
  7  8  2  0
  8  9  1  0
  9 10  1  0
 10 11  2  0
 10 12  1  0
 12 13  1  0
 13 14  1  0
 14 15  1  0
 15 16  1  0
 16 17  2  0
 17 18  1  0
 18 19  2  0
 19 20  1  0
 20 21  2  0
 15 22  1  0
 22 23  1  0
  9 24  2  0
  4 25  2  0
 25 26  1  0
 26 27  2  0
 27 28  1  0
 28 29  2  0
 29 30  1  0
 29 31  1  0
 31 32  2  0
 32  2  1  0
 24  5  1  0
 32 26  1  0
 23 12  1  0
 21 16  1  0
  3 33  1  0
  3 34  1  0
  6 35  1  0
  7 36  1  0
  8 37  1  0
 13 38  1  0
 13 39  1  0
 14 40  1  0
 14 41  1  0
 17 42  1  0
 18 43  1  0
 19 44  1  0
 20 45  1  0
 21 46  1  0
 22 47  1  0
 22 48  1  0
 23 49  1  0
 23 50  1  0
 24 51  1  0
 27 52  1  0
 28 53  1  0
 31 54  1  0
M  END
>  <smiles>  (34) 
O=C1CC(c2cccc(C(=O)N3CCN(c4ccccc4)CC3)c2)=Nc2ccc(Cl)cc21

>  <score_type>  (34) 
oracle

>  <origin>  (34) 
autodockgpu

>  <m_score__min__energy>  (34) 
-9.1099999999999994

>  <m_primary>  (34) 
energy

>  <rmsd>  (34) 
4.795235279547599

>  <m_score__min__rmsd>  (34) 
4.795235279547599

>  <meeko>  (34) 
{"free_energy": -8.72, "intermolecular_energy": -9.62, "internal_energy": -0.97, "cluster_size": 44, "cluster_id": 1, "rank_in_cluster": 42}

>  <energy>  (34) 
-8.92

>  <cluster_rmsd>  (34) 
1.36

>  <cluster>  (34) 
1

$$$$

     RDKit          3D

 54 58  0  0  0  0  0  0  0  0999 V2000
  139.2100   67.2150  224.3890 O   0  0  0  0  0  0  0  0  0  0  0  0
  139.2010   68.4650  224.4480 C   0  0  0  0  0  0  0  0  0  0  0  0
  138.5940   69.2100  223.3070 C   0  0  0  0  0  0  0  0  0  0  0  0
  138.6590   70.6750  223.5180 C   0  0  0  0  0  0  0  0  0  0  0  0
  138.1020   71.5290  222.4760 C   0  0  0  0  0  0  0  0  0  0  0  0
  136.7570   71.3750  222.1480 C   0  0  0  0  0  0  0  0  0  0  0  0
  136.1880   72.1690  221.1640 C   0  0  0  0  0  0  0  0  0  0  0  0
  136.9400   73.1220  220.4940 C   0  0  0  0  0  0  0  0  0  0  0  0
  138.2870   73.2720  220.8270 C   0  0  0  0  0  0  0  0  0  0  0  0
  139.1430   74.2430  220.1780 C   0  0  0  0  0  0  0  0  0  0  0  0
  139.7020   73.9380  219.0780 O   0  0  0  0  0  0  0  0  0  0  0  0
  139.4140   75.5390  220.6860 N   0  0  0  0  0  0  0  0  0  0  0  0
  140.2970   76.3900  219.9090 C   0  0  0  0  0  0  0  0  0  0  0  0
  141.4620   76.8000  220.8090 C   0  0  0  0  0  0  0  0  0  0  0  0
  140.9030   77.5230  221.9300 N   0  0  0  0  0  0  0  0  0  0  0  0
  141.4460   78.7740  222.3880 C   0  0  0  0  0  0  0  0  0  0  0  0
  141.6530   79.8460  221.5480 C   0  0  0  0  0  0  0  0  0  0  0  0
  142.1870   81.0360  222.0060 C   0  0  0  0  0  0  0  0  0  0  0  0
  142.5400   81.2140  223.3230 C   0  0  0  0  0  0  0  0  0  0  0  0
  142.3410   80.1530  224.1780 C   0  0  0  0  0  0  0  0  0  0  0  0
  141.8030   78.9560  223.7140 C   0  0  0  0  0  0  0  0  0  0  0  0
  139.7580   77.0200  222.6450 C   0  0  0  0  0  0  0  0  0  0  0  0
  138.8850   76.0730  221.9040 C   0  0  0  0  0  0  0  0  0  0  0  0
  138.8290   72.4740  221.8050 C   0  0  0  0  0  0  0  0  0  0  0  0
  139.1760   71.2300  224.5600 N   0  0  0  0  0  0  0  0  0  0  0  0
  139.7550   70.5490  225.6530 C   0  0  0  0  0  0  0  0  0  0  0  0
  140.2840   71.2400  226.7260 C   0  0  0  0  0  0  0  0  0  0  0  0
  140.8350   70.5220  227.7590 C   0  0  0  0  0  0  0  0  0  0  0  0
  140.8790   69.1260  227.7630 C   0  0  0  0  0  0  0  0  0  0  0  0
  141.5870   68.2290  229.0910 Cl  0  0  0  0  0  0  0  0  0  0  0  0
  140.3340   68.4710  226.6600 C   0  0  0  0  0  0  0  0  0  0  0  0
  139.7710   69.1500  225.6010 C   0  0  0  0  0  0  0  0  0  0  0  0
  139.1385   68.9573  222.3852 H   0  0  0  0  0  0  0  0  0  0  0  0
  137.5359   68.9195  223.2295 H   0  0  0  0  0  0  0  0  0  0  0  0
  136.1463   70.6234  222.6697 H   0  0  0  0  0  0  0  0  0  0  0  0
  135.1251   72.0411  220.9113 H   0  0  0  0  0  0  0  0  0  0  0  0
  136.4831   73.7486  219.7139 H   0  0  0  0  0  0  0  0  0  0  0  0
  140.6750   75.8385  219.0355 H   0  0  0  0  0  0  0  0  0  0  0  0
  139.7569   77.2788  219.5509 H   0  0  0  0  0  0  0  0  0  0  0  0
  141.9956   75.9065  221.1652 H   0  0  0  0  0  0  0  0  0  0  0  0
  142.1787   77.4270  220.2584 H   0  0  0  0  0  0  0  0  0  0  0  0
  141.3864   79.7527  220.4849 H   0  0  0  0  0  0  0  0  0  0  0  0
  142.3337   81.8640  221.2968 H   0  0  0  0  0  0  0  0  0  0  0  0
  142.9638   82.1646  223.6789 H   0  0  0  0  0  0  0  0  0  0  0  0
  142.6103   80.2526  225.2399 H   0  0  0  0  0  0  0  0  0  0  0  0
  141.6566   78.1279  224.4231 H   0  0  0  0  0  0  0  0  0  0  0  0
  140.1244   76.5044  223.5449 H   0  0  0  0  0  0  0  0  0  0  0  0
  139.1300   77.8994  222.8505 H   0  0  0  0  0  0  0  0  0  0  0  0
  138.6654   75.2275  222.5725 H   0  0  0  0  0  0  0  0  0  0  0  0
  138.0035   76.6601  221.6068 H   0  0  0  0  0  0  0  0  0  0  0  0
  139.8918   72.6000  222.0592 H   0  0  0  0  0  0  0  0  0  0  0  0
  140.2643   72.3395  226.7524 H   0  0  0  0  0  0  0  0  0  0  0  0
  141.2578   71.0671  228.6158 H   0  0  0  0  0  0  0  0  0  0  0  0
  140.3540   67.3715  226.6338 H   0  0  0  0  0  0  0  0  0  0  0  0
  1  2  2  0
  2  3  1  0
  3  4  1  0
  4  5  1  0
  5  6  2  0
  6  7  1  0
  7  8  2  0
  8  9  1  0
  9 10  1  0
 10 11  2  0
 10 12  1  0
 12 13  1  0
 13 14  1  0
 14 15  1  0
 15 16  1  0
 16 17  2  0
 17 18  1  0
 18 19  2  0
 19 20  1  0
 20 21  2  0
 15 22  1  0
 22 23  1  0
  9 24  2  0
  4 25  2  0
 25 26  1  0
 26 27  2  0
 27 28  1  0
 28 29  2  0
 29 30  1  0
 29 31  1  0
 31 32  2  0
 32  2  1  0
 24  5  1  0
 32 26  1  0
 23 12  1  0
 21 16  1  0
  3 33  1  0
  3 34  1  0
  6 35  1  0
  7 36  1  0
  8 37  1  0
 13 38  1  0
 13 39  1  0
 14 40  1  0
 14 41  1  0
 17 42  1  0
 18 43  1  0
 19 44  1  0
 20 45  1  0
 21 46  1  0
 22 47  1  0
 22 48  1  0
 23 49  1  0
 23 50  1  0
 24 51  1  0
 27 52  1  0
 28 53  1  0
 31 54  1  0
M  END
>  <smiles>  (35) 
O=C1CC(c2cccc(C(=O)N3CCN(c4ccccc4)CC3)c2)=Nc2ccc(Cl)cc21

>  <score_type>  (35) 
oracle

>  <origin>  (35) 
autodockgpu

>  <m_score__min__energy>  (35) 
-9.1099999999999994

>  <m_primary>  (35) 
energy

>  <rmsd>  (35) 
4.726064927236104

>  <m_score__min__rmsd>  (35) 
4.726064927236104

>  <meeko>  (35) 
{"free_energy": -8.94, "intermolecular_energy": -9.84, "internal_energy": -0.96, "cluster_size": 44, "cluster_id": 1, "rank_in_cluster": 22}

>  <energy>  (35) 
-8.92

>  <cluster_rmsd>  (35) 
1.36

>  <cluster>  (35) 
1

$$$$

     RDKit          3D

 54 58  0  0  0  0  0  0  0  0999 V2000
  139.2330   67.1260  224.3860 O   0  0  0  0  0  0  0  0  0  0  0  0
  139.2170   68.3760  224.4380 C   0  0  0  0  0  0  0  0  0  0  0  0
  138.6110   69.1110  223.2890 C   0  0  0  0  0  0  0  0  0  0  0  0
  138.6660   70.5770  223.4930 C   0  0  0  0  0  0  0  0  0  0  0  0
  138.1110   71.4220  222.4430 C   0  0  0  0  0  0  0  0  0  0  0  0
  136.7700   71.2550  222.1040 C   0  0  0  0  0  0  0  0  0  0  0  0
  136.2020   72.0390  221.1120 C   0  0  0  0  0  0  0  0  0  0  0  0
  136.9500   72.9970  220.4450 C   0  0  0  0  0  0  0  0  0  0  0  0
  138.2940   73.1600  220.7890 C   0  0  0  0  0  0  0  0  0  0  0  0
  139.1460   74.1370  220.1440 C   0  0  0  0  0  0  0  0  0  0  0  0
  139.6940   73.8440  219.0350 O   0  0  0  0  0  0  0  0  0  0  0  0
  139.4250   75.4270  220.6650 N   0  0  0  0  0  0  0  0  0  0  0  0
  140.3030   76.2850  219.8900 C   0  0  0  0  0  0  0  0  0  0  0  0
  141.4760   76.6810  220.7840 C   0  0  0  0  0  0  0  0  0  0  0  0
  140.9300   77.3920  221.9190 N   0  0  0  0  0  0  0  0  0  0  0  0
  141.4800   78.6360  222.3870 C   0  0  0  0  0  0  0  0  0  0  0  0
  141.7540   79.6910  221.5440 C   0  0  0  0  0  0  0  0  0  0  0  0
  142.2930   80.8740  222.0130 C   0  0  0  0  0  0  0  0  0  0  0  0
  142.5870   81.0630  223.3430 C   0  0  0  0  0  0  0  0  0  0  0  0
  142.3210   80.0190  224.2000 C   0  0  0  0  0  0  0  0  0  0  0  0
  141.7770   78.8280  223.7260 C   0  0  0  0  0  0  0  0  0  0  0  0
  139.7910   76.8830  222.6380 C   0  0  0  0  0  0  0  0  0  0  0  0
  138.9080   75.9480  221.8940 C   0  0  0  0  0  0  0  0  0  0  0  0
  138.8340   72.3720  221.7750 C   0  0  0  0  0  0  0  0  0  0  0  0
  139.1730   71.1410  224.5350 N   0  0  0  0  0  0  0  0  0  0  0  0
  139.7500   70.4690  225.6350 C   0  0  0  0  0  0  0  0  0  0  0  0
  140.2680   71.1700  226.7070 C   0  0  0  0  0  0  0  0  0  0  0  0
  140.8180   70.4610  227.7480 C   0  0  0  0  0  0  0  0  0  0  0  0
  140.8700   69.0650  227.7600 C   0  0  0  0  0  0  0  0  0  0  0  0
  141.5750   68.1800  229.0970 Cl  0  0  0  0  0  0  0  0  0  0  0  0
  140.3360   68.4010  226.6570 C   0  0  0  0  0  0  0  0  0  0  0  0
  139.7750   69.0700  225.5910 C   0  0  0  0  0  0  0  0  0  0  0  0
  139.1619   68.8568  222.3715 H   0  0  0  0  0  0  0  0  0  0  0  0
  137.5553   68.8132  223.2069 H   0  0  0  0  0  0  0  0  0  0  0  0
  136.1615   70.5004  222.6240 H   0  0  0  0  0  0  0  0  0  0  0  0
  135.1428   71.8991  220.8503 H   0  0  0  0  0  0  0  0  0  0  0  0
  136.4936   73.6172  219.6595 H   0  0  0  0  0  0  0  0  0  0  0  0
  140.6719   75.7430  219.0067 H   0  0  0  0  0  0  0  0  0  0  0  0
  139.7620   77.1792  219.5469 H   0  0  0  0  0  0  0  0  0  0  0  0
  142.0103   75.7818  221.1245 H   0  0  0  0  0  0  0  0  0  0  0  0
  142.1889   77.3132  220.2343 H   0  0  0  0  0  0  0  0  0  0  0  0
  141.5382   79.5890  220.4702 H   0  0  0  0  0  0  0  0  0  0  0  0
  142.4928   81.6886  221.3013 H   0  0  0  0  0  0  0  0  0  0  0  0
  143.0165   82.0082  223.7066 H   0  0  0  0  0  0  0  0  0  0  0  0
  142.5409   80.1269  225.2724 H   0  0  0  0  0  0  0  0  0  0  0  0
  141.5768   78.0137  224.4379 H   0  0  0  0  0  0  0  0  0  0  0  0
  140.1647   76.3550  223.5277 H   0  0  0  0  0  0  0  0  0  0  0  0
  139.1675   77.7615  222.8603 H   0  0  0  0  0  0  0  0  0  0  0  0
  138.6914   75.0953  222.5543 H   0  0  0  0  0  0  0  0  0  0  0  0
  138.0256   76.5411  221.6119 H   0  0  0  0  0  0  0  0  0  0  0  0
  139.8928   72.5104  222.0391 H   0  0  0  0  0  0  0  0  0  0  0  0
  140.2409   72.2695  226.7268 H   0  0  0  0  0  0  0  0  0  0  0  0
  141.2328   71.0135  228.6039 H   0  0  0  0  0  0  0  0  0  0  0  0
  140.3634   67.3015  226.6367 H   0  0  0  0  0  0  0  0  0  0  0  0
  1  2  2  0
  2  3  1  0
  3  4  1  0
  4  5  1  0
  5  6  2  0
  6  7  1  0
  7  8  2  0
  8  9  1  0
  9 10  1  0
 10 11  2  0
 10 12  1  0
 12 13  1  0
 13 14  1  0
 14 15  1  0
 15 16  1  0
 16 17  2  0
 17 18  1  0
 18 19  2  0
 19 20  1  0
 20 21  2  0
 15 22  1  0
 22 23  1  0
  9 24  2  0
  4 25  2  0
 25 26  1  0
 26 27  2  0
 27 28  1  0
 28 29  2  0
 29 30  1  0
 29 31  1  0
 31 32  2  0
 32  2  1  0
 24  5  1  0
 32 26  1  0
 23 12  1  0
 21 16  1  0
  3 33  1  0
  3 34  1  0
  6 35  1  0
  7 36  1  0
  8 37  1  0
 13 38  1  0
 13 39  1  0
 14 40  1  0
 14 41  1  0
 17 42  1  0
 18 43  1  0
 19 44  1  0
 20 45  1  0
 21 46  1  0
 22 47  1  0
 22 48  1  0
 23 49  1  0
 23 50  1  0
 24 51  1  0
 27 52  1  0
 28 53  1  0
 31 54  1  0
M  END
>  <smiles>  (36) 
O=C1CC(c2cccc(C(=O)N3CCN(c4ccccc4)CC3)c2)=Nc2ccc(Cl)cc21

>  <score_type>  (36) 
oracle

>  <origin>  (36) 
autodockgpu

>  <m_score__min__energy>  (36) 
-9.1099999999999994

>  <m_primary>  (36) 
energy

>  <rmsd>  (36) 
4.68039271094138

>  <m_score__min__rmsd>  (36) 
4.68039271094138

>  <meeko>  (36) 
{"free_energy": -8.93, "intermolecular_energy": -9.83, "internal_energy": -0.96, "cluster_size": 44, "cluster_id": 1, "rank_in_cluster": 27}

>  <energy>  (36) 
-8.9

>  <cluster_rmsd>  (36) 
1.41

>  <cluster>  (36) 
1

$$$$

     RDKit          3D

 54 58  0  0  0  0  0  0  0  0999 V2000
  141.1720   80.6970  223.8870 O   0  0  0  0  0  0  0  0  0  0  0  0
  140.3070   79.8890  223.4820 C   0  0  0  0  0  0  0  0  0  0  0  0
  140.7760   78.6820  222.7420 C   0  0  0  0  0  0  0  0  0  0  0  0
  139.6420   77.8250  222.3260 C   0  0  0  0  0  0  0  0  0  0  0  0
  139.9560   76.6080  221.5880 C   0  0  0  0  0  0  0  0  0  0  0  0
  140.8920   76.6850  220.5590 C   0  0  0  0  0  0  0  0  0  0  0  0
  141.2210   75.5500  219.8330 C   0  0  0  0  0  0  0  0  0  0  0  0
  140.6300   74.3290  220.1150 C   0  0  0  0  0  0  0  0  0  0  0  0
  139.6920   74.2560  221.1470 C   0  0  0  0  0  0  0  0  0  0  0  0
  139.0290   73.0210  221.5080 C   0  0  0  0  0  0  0  0  0  0  0  0
  137.9400   72.7110  220.9300 O   0  0  0  0  0  0  0  0  0  0  0  0
  139.5110   72.1060  222.4800 N   0  0  0  0  0  0  0  0  0  0  0  0
  138.7220   70.9120  222.7220 C   0  0  0  0  0  0  0  0  0  0  0  0
  138.3690   70.8790  224.2070 C   0  0  0  0  0  0  0  0  0  0  0  0
  139.6140   70.8330  224.9430 N   0  0  0  0  0  0  0  0  0  0  0  0
  139.8370   69.9100  226.0230 C   0  0  0  0  0  0  0  0  0  0  0  0
  139.6930   68.5470  225.8780 C   0  0  0  0  0  0  0  0  0  0  0  0
  139.9020   67.6780  226.9320 C   0  0  0  0  0  0  0  0  0  0  0  0
  140.2630   68.1240  228.1810 C   0  0  0  0  0  0  0  0  0  0  0  0
  140.4110   69.4830  228.3460 C   0  0  0  0  0  0  0  0  0  0  0  0
  140.2010   70.3570  227.2820 C   0  0  0  0  0  0  0  0  0  0  0  0
  140.7040   71.7170  224.6180 C   0  0  0  0  0  0  0  0  0  0  0  0
  140.7130   72.2690  223.2380 C   0  0  0  0  0  0  0  0  0  0  0  0
  139.3830   75.3940  221.8520 C   0  0  0  0  0  0  0  0  0  0  0  0
  138.4070   78.0930  222.5770 N   0  0  0  0  0  0  0  0  0  0  0  0
  137.9370   79.2270  223.2760 C   0  0  0  0  0  0  0  0  0  0  0  0
  136.5860   79.4210  223.4930 C   0  0  0  0  0  0  0  0  0  0  0  0
  136.1900   80.5440  224.1790 C   0  0  0  0  0  0  0  0  0  0  0  0
  137.0980   81.4880  224.6620 C   0  0  0  0  0  0  0  0  0  0  0  0
  136.5720   82.9130  225.5340 Cl  0  0  0  0  0  0  0  0  0  0  0  0
  138.4510   81.2500  224.4190 C   0  0  0  0  0  0  0  0  0  0  0  0
  138.8940   80.1390  223.7360 C   0  0  0  0  0  0  0  0  0  0  0  0
  141.3279   79.0039  221.8466 H   0  0  0  0  0  0  0  0  0  0  0  0
  141.4231   78.0966  223.4118 H   0  0  0  0  0  0  0  0  0  0  0  0
  141.3705   77.6467  220.3222 H   0  0  0  0  0  0  0  0  0  0  0  0
  141.9612   75.6202  219.0223 H   0  0  0  0  0  0  0  0  0  0  0  0
  140.8952   73.4322  219.5358 H   0  0  0  0  0  0  0  0  0  0  0  0
  137.8023   70.9427  222.1193 H   0  0  0  0  0  0  0  0  0  0  0  0
  139.2902   70.0127  222.4420 H   0  0  0  0  0  0  0  0  0  0  0  0
  137.8033   71.7821  224.4798 H   0  0  0  0  0  0  0  0  0  0  0  0
  137.7455   70.0033  224.4403 H   0  0  0  0  0  0  0  0  0  0  0  0
  139.4041   68.1402  224.8977 H   0  0  0  0  0  0  0  0  0  0  0  0
  139.7758   66.5979  226.7666 H   0  0  0  0  0  0  0  0  0  0  0  0
  140.4268   67.4245  229.0140 H   0  0  0  0  0  0  0  0  0  0  0  0
  140.6984   69.8831  229.3295 H   0  0  0  0  0  0  0  0  0  0  0  0
  140.3284   71.4370  227.4472 H   0  0  0  0  0  0  0  0  0  0  0  0
  140.6686   72.5647  225.3181 H   0  0  0  0  0  0  0  0  0  0  0  0
  141.6135   71.1031  224.6951 H   0  0  0  0  0  0  0  0  0  0  0  0
  140.9196   73.3470  223.3101 H   0  0  0  0  0  0  0  0  0  0  0  0
  141.4793   71.6934  222.6981 H   0  0  0  0  0  0  0  0  0  0  0  0
  138.6433   75.3262  222.6634 H   0  0  0  0  0  0  0  0  0  0  0  0
  135.8461   78.6946  223.1258 H   0  0  0  0  0  0  0  0  0  0  0  0
  135.1161   80.7053  224.3543 H   0  0  0  0  0  0  0  0  0  0  0  0
  139.1911   81.9762  224.7863 H   0  0  0  0  0  0  0  0  0  0  0  0
  1  2  2  0
  2  3  1  0
  3  4  1  0
  4  5  1  0
  5  6  2  0
  6  7  1  0
  7  8  2  0
  8  9  1  0
  9 10  1  0
 10 11  2  0
 10 12  1  0
 12 13  1  0
 13 14  1  0
 14 15  1  0
 15 16  1  0
 16 17  2  0
 17 18  1  0
 18 19  2  0
 19 20  1  0
 20 21  2  0
 15 22  1  0
 22 23  1  0
  9 24  2  0
  4 25  2  0
 25 26  1  0
 26 27  2  0
 27 28  1  0
 28 29  2  0
 29 30  1  0
 29 31  1  0
 31 32  2  0
 32  2  1  0
 24  5  1  0
 32 26  1  0
 23 12  1  0
 21 16  1  0
  3 33  1  0
  3 34  1  0
  6 35  1  0
  7 36  1  0
  8 37  1  0
 13 38  1  0
 13 39  1  0
 14 40  1  0
 14 41  1  0
 17 42  1  0
 18 43  1  0
 19 44  1  0
 20 45  1  0
 21 46  1  0
 22 47  1  0
 22 48  1  0
 23 49  1  0
 23 50  1  0
 24 51  1  0
 27 52  1  0
 28 53  1  0
 31 54  1  0
M  END
>  <smiles>  (37) 
O=C1CC(c2cccc(C(=O)N3CCN(c4ccccc4)CC3)c2)=Nc2ccc(Cl)cc21

>  <score_type>  (37) 
oracle

>  <origin>  (37) 
autodockgpu

>  <m_score__min__energy>  (37) 
-9.1099999999999994

>  <m_primary>  (37) 
energy

>  <rmsd>  (37) 
8.869053251054863

>  <m_score__min__rmsd>  (37) 
8.869053251054863

>  <meeko>  (37) 
{"free_energy": -8.56, "intermolecular_energy": -9.46, "internal_energy": -0.95, "cluster_size": 5, "cluster_id": 2, "rank_in_cluster": 1}

>  <energy>  (37) 
-8.89

>  <cluster_rmsd>  (37) 
1.37

>  <cluster>  (37) 
1

$$$$

     RDKit          3D

 54 58  0  0  0  0  0  0  0  0999 V2000
  138.9460   67.2780  224.1490 O   0  0  0  0  0  0  0  0  0  0  0  0
  139.1950   68.5040  224.1140 C   0  0  0  0  0  0  0  0  0  0  0  0
  138.8210   69.2540  222.8800 C   0  0  0  0  0  0  0  0  0  0  0  0
  139.1790   70.6880  222.9860 C   0  0  0  0  0  0  0  0  0  0  0  0
  138.8720   71.5420  221.8450 C   0  0  0  0  0  0  0  0  0  0  0  0
  139.0150   71.0090  220.5670 C   0  0  0  0  0  0  0  0  0  0  0  0
  138.7310   71.7870  219.4540 C   0  0  0  0  0  0  0  0  0  0  0  0
  138.3040   73.0990  219.5930 C   0  0  0  0  0  0  0  0  0  0  0  0
  138.1630   73.6280  220.8770 C   0  0  0  0  0  0  0  0  0  0  0  0
  137.7220   74.9870  221.1120 C   0  0  0  0  0  0  0  0  0  0  0  0
  136.5790   75.3480  220.6890 O   0  0  0  0  0  0  0  0  0  0  0  0
  138.4840   75.9720  221.7930 N   0  0  0  0  0  0  0  0  0  0  0  0
  137.8920   77.2890  221.9420 C   0  0  0  0  0  0  0  0  0  0  0  0
  138.8490   78.3040  221.3200 C   0  0  0  0  0  0  0  0  0  0  0  0
  140.0980   78.2150  222.0430 N   0  0  0  0  0  0  0  0  0  0  0  0
  140.8000   79.3770  222.5170 C   0  0  0  0  0  0  0  0  0  0  0  0
  140.4700   80.6560  222.1230 C   0  0  0  0  0  0  0  0  0  0  0  0
  141.1640   81.7600  222.5810 C   0  0  0  0  0  0  0  0  0  0  0  0
  142.2210   81.6420  223.4530 C   0  0  0  0  0  0  0  0  0  0  0  0
  142.5660   80.3720  223.8580 C   0  0  0  0  0  0  0  0  0  0  0  0
  141.8640   79.2620  223.3950 C   0  0  0  0  0  0  0  0  0  0  0  0
  140.7020   76.9390  222.3320 C   0  0  0  0  0  0  0  0  0  0  0  0
  139.7880   75.7670  222.3440 C   0  0  0  0  0  0  0  0  0  0  0  0
  138.4500   72.8380  221.9630 C   0  0  0  0  0  0  0  0  0  0  0  0
  139.7420   71.2150  224.0180 N   0  0  0  0  0  0  0  0  0  0  0  0
  140.1040   70.5280  225.1980 C   0  0  0  0  0  0  0  0  0  0  0  0
  140.7060   71.1900  226.2520 C   0  0  0  0  0  0  0  0  0  0  0  0
  141.0360   70.4680  227.3730 C   0  0  0  0  0  0  0  0  0  0  0  0
  140.7870   69.0980  227.4840 C   0  0  0  0  0  0  0  0  0  0  0  0
  141.2170   68.1960  228.9230 Cl  0  0  0  0  0  0  0  0  0  0  0  0
  140.1790   68.4730  226.3960 C   0  0  0  0  0  0  0  0  0  0  0  0
  139.8310   69.1570  225.2520 C   0  0  0  0  0  0  0  0  0  0  0  0
  139.3508   68.8160  222.0212 H   0  0  0  0  0  0  0  0  0  0  0  0
  137.7315   69.1793  222.7479 H   0  0  0  0  0  0  0  0  0  0  0  0
  139.3534   69.9702  220.4395 H   0  0  0  0  0  0  0  0  0  0  0  0
  138.8461   71.3574  218.4479 H   0  0  0  0  0  0  0  0  0  0  0  0
  138.0804   73.7118  218.7073 H   0  0  0  0  0  0  0  0  0  0  0  0
  136.9217   77.3238  221.4249 H   0  0  0  0  0  0  0  0  0  0  0  0
  137.7268   77.5180  223.0051 H   0  0  0  0  0  0  0  0  0  0  0  0
  139.0109   78.0673  220.2580 H   0  0  0  0  0  0  0  0  0  0  0  0
  138.4338   79.3207  221.3828 H   0  0  0  0  0  0  0  0  0  0  0  0
  139.6320   80.8019  221.4255 H   0  0  0  0  0  0  0  0  0  0  0  0
  140.8626   82.7609  222.2385 H   0  0  0  0  0  0  0  0  0  0  0  0
  142.7683   82.5260  223.8122 H   0  0  0  0  0  0  0  0  0  0  0  0
  143.4055   80.2327  224.5550 H   0  0  0  0  0  0  0  0  0  0  0  0
  142.1648   78.2611  223.7382 H   0  0  0  0  0  0  0  0  0  0  0  0
  141.4749   76.7538  221.5715 H   0  0  0  0  0  0  0  0  0  0  0  0
  141.0871   77.0220  223.3590 H   0  0  0  0  0  0  0  0  0  0  0  0
  140.2701   74.9607  221.7718 H   0  0  0  0  0  0  0  0  0  0  0  0
  139.6232   75.5357  223.4067 H   0  0  0  0  0  0  0  0  0  0  0  0
  138.3358   73.2652  222.9702 H   0  0  0  0  0  0  0  0  0  0  0  0
  140.9155   72.2683  226.1943 H   0  0  0  0  0  0  0  0  0  0  0  0
  141.5147   70.9886  228.2155 H   0  0  0  0  0  0  0  0  0  0  0  0
  139.9696   67.3946  226.4532 H   0  0  0  0  0  0  0  0  0  0  0  0
  1  2  2  0
  2  3  1  0
  3  4  1  0
  4  5  1  0
  5  6  2  0
  6  7  1  0
  7  8  2  0
  8  9  1  0
  9 10  1  0
 10 11  2  0
 10 12  1  0
 12 13  1  0
 13 14  1  0
 14 15  1  0
 15 16  1  0
 16 17  2  0
 17 18  1  0
 18 19  2  0
 19 20  1  0
 20 21  2  0
 15 22  1  0
 22 23  1  0
  9 24  2  0
  4 25  2  0
 25 26  1  0
 26 27  2  0
 27 28  1  0
 28 29  2  0
 29 30  1  0
 29 31  1  0
 31 32  2  0
 32  2  1  0
 24  5  1  0
 32 26  1  0
 23 12  1  0
 21 16  1  0
  3 33  1  0
  3 34  1  0
  6 35  1  0
  7 36  1  0
  8 37  1  0
 13 38  1  0
 13 39  1  0
 14 40  1  0
 14 41  1  0
 17 42  1  0
 18 43  1  0
 19 44  1  0
 20 45  1  0
 21 46  1  0
 22 47  1  0
 22 48  1  0
 23 49  1  0
 23 50  1  0
 24 51  1  0
 27 52  1  0
 28 53  1  0
 31 54  1  0
M  END
>  <smiles>  (38) 
O=C1CC(c2cccc(C(=O)N3CCN(c4ccccc4)CC3)c2)=Nc2ccc(Cl)cc21

>  <score_type>  (38) 
oracle

>  <origin>  (38) 
autodockgpu

>  <m_score__min__energy>  (38) 
-9.1099999999999994

>  <m_primary>  (38) 
energy

>  <rmsd>  (38) 
4.890589549228023

>  <m_score__min__rmsd>  (38) 
4.890589549228023

>  <meeko>  (38) 
{"free_energy": -8.94, "intermolecular_energy": -9.83, "internal_energy": -0.94, "cluster_size": 44, "cluster_id": 1, "rank_in_cluster": 23}

>  <energy>  (38) 
-8.89

>  <cluster_rmsd>  (38) 
1.4

>  <cluster>  (38) 
1

$$$$

     RDKit          3D

 54 58  0  0  0  0  0  0  0  0999 V2000
  141.2500   80.3240  223.8780 O   0  0  0  0  0  0  0  0  0  0  0  0
  140.3560   79.5630  223.4490 C   0  0  0  0  0  0  0  0  0  0  0  0
  140.7800   78.3570  222.6790 C   0  0  0  0  0  0  0  0  0  0  0  0
  139.6150   77.5570  222.2360 C   0  0  0  0  0  0  0  0  0  0  0  0
  139.8840   76.3480  221.4670 C   0  0  0  0  0  0  0  0  0  0  0  0
  140.7340   76.4430  220.3680 C   0  0  0  0  0  0  0  0  0  0  0  0
  141.0180   75.3160  219.6110 C   0  0  0  0  0  0  0  0  0  0  0  0
  140.4670   74.0850  219.9320 C   0  0  0  0  0  0  0  0  0  0  0  0
  139.6160   73.9960  221.0350 C   0  0  0  0  0  0  0  0  0  0  0  0
  138.9990   72.7500  221.4400 C   0  0  0  0  0  0  0  0  0  0  0  0
  137.9300   72.3730  220.8640 O   0  0  0  0  0  0  0  0  0  0  0  0
  139.5050   71.8960  222.4540 N   0  0  0  0  0  0  0  0  0  0  0  0
  138.7620   70.6820  222.7370 C   0  0  0  0  0  0  0  0  0  0  0  0
  138.3930   70.6950  224.2190 C   0  0  0  0  0  0  0  0  0  0  0  0
  139.6300   70.7300  224.9690 N   0  0  0  0  0  0  0  0  0  0  0  0
  139.8770   69.8630  226.0880 C   0  0  0  0  0  0  0  0  0  0  0  0
  139.5090   68.5350  226.0950 C   0  0  0  0  0  0  0  0  0  0  0  0
  139.7460   67.7210  227.1870 C   0  0  0  0  0  0  0  0  0  0  0  0
  140.3600   68.1900  228.3240 C   0  0  0  0  0  0  0  0  0  0  0  0
  140.7350   69.5150  228.3360 C   0  0  0  0  0  0  0  0  0  0  0  0
  140.4960   70.3330  227.2350 C   0  0  0  0  0  0  0  0  0  0  0  0
  140.6870   71.6450  224.6190 C   0  0  0  0  0  0  0  0  0  0  0  0
  140.6910   72.1390  223.2180 C   0  0  0  0  0  0  0  0  0  0  0  0
  139.3500   75.1250  221.7690 C   0  0  0  0  0  0  0  0  0  0  0  0
  138.3900   77.8680  222.4880 N   0  0  0  0  0  0  0  0  0  0  0  0
  137.9620   79.0010  223.2150 C   0  0  0  0  0  0  0  0  0  0  0  0
  136.6190   79.2440  223.4300 C   0  0  0  0  0  0  0  0  0  0  0  0
  136.2640   80.3630  224.1430 C   0  0  0  0  0  0  0  0  0  0  0  0
  137.2070   81.2580  224.6550 C   0  0  0  0  0  0  0  0  0  0  0  0
  136.7330   82.6800  225.5610 Cl  0  0  0  0  0  0  0  0  0  0  0  0
  138.5500   80.9720  224.4120 C   0  0  0  0  0  0  0  0  0  0  0  0
  138.9520   79.8620  223.7020 C   0  0  0  0  0  0  0  0  0  0  0  0
  141.3488   78.6797  221.7945 H   0  0  0  0  0  0  0  0  0  0  0  0
  141.3995   77.7289  223.3361 H   0  0  0  0  0  0  0  0  0  0  0  0
  141.1803   77.4121  220.1002 H   0  0  0  0  0  0  0  0  0  0  0  0
  141.6897   75.4001  218.7440 H   0  0  0  0  0  0  0  0  0  0  0  0
  140.6963   73.1944  219.3284 H   0  0  0  0  0  0  0  0  0  0  0  0
  137.8489   70.6507  222.1243 H   0  0  0  0  0  0  0  0  0  0  0  0
  139.3692   69.7959  222.5001 H   0  0  0  0  0  0  0  0  0  0  0  0
  137.7880   71.5845  224.4487 H   0  0  0  0  0  0  0  0  0  0  0  0
  137.8028   69.8047  224.4817 H   0  0  0  0  0  0  0  0  0  0  0  0
  139.0138   68.1116  225.2087 H   0  0  0  0  0  0  0  0  0  0  0  0
  139.4341   66.6670  227.1448 H   0  0  0  0  0  0  0  0  0  0  0  0
  140.5440   67.5345  229.1879 H   0  0  0  0  0  0  0  0  0  0  0  0
  141.2292   69.9320  229.2259 H   0  0  0  0  0  0  0  0  0  0  0  0
  140.8088   71.3867  227.2771 H   0  0  0  0  0  0  0  0  0  0  0  0
  140.6077   72.5187  225.2825 H   0  0  0  0  0  0  0  0  0  0  0  0
  141.6200   71.0733  224.7318 H   0  0  0  0  0  0  0  0  0  0  0  0
  140.8534   73.2266  223.2471 H   0  0  0  0  0  0  0  0  0  0  0  0
  141.4863   71.5730  222.7109 H   0  0  0  0  0  0  0  0  0  0  0  0
  138.6791   75.0430  222.6368 H   0  0  0  0  0  0  0  0  0  0  0  0
  135.8528   78.5581  223.0397 H   0  0  0  0  0  0  0  0  0  0  0  0
  135.1964   80.5622  224.3177 H   0  0  0  0  0  0  0  0  0  0  0  0
  139.3166   81.6579  224.8016 H   0  0  0  0  0  0  0  0  0  0  0  0
  1  2  2  0
  2  3  1  0
  3  4  1  0
  4  5  1  0
  5  6  2  0
  6  7  1  0
  7  8  2  0
  8  9  1  0
  9 10  1  0
 10 11  2  0
 10 12  1  0
 12 13  1  0
 13 14  1  0
 14 15  1  0
 15 16  1  0
 16 17  2  0
 17 18  1  0
 18 19  2  0
 19 20  1  0
 20 21  2  0
 15 22  1  0
 22 23  1  0
  9 24  2  0
  4 25  2  0
 25 26  1  0
 26 27  2  0
 27 28  1  0
 28 29  2  0
 29 30  1  0
 29 31  1  0
 31 32  2  0
 32  2  1  0
 24  5  1  0
 32 26  1  0
 23 12  1  0
 21 16  1  0
  3 33  1  0
  3 34  1  0
  6 35  1  0
  7 36  1  0
  8 37  1  0
 13 38  1  0
 13 39  1  0
 14 40  1  0
 14 41  1  0
 17 42  1  0
 18 43  1  0
 19 44  1  0
 20 45  1  0
 21 46  1  0
 22 47  1  0
 22 48  1  0
 23 49  1  0
 23 50  1  0
 24 51  1  0
 27 52  1  0
 28 53  1  0
 31 54  1  0
M  END
>  <smiles>  (39) 
O=C1CC(c2cccc(C(=O)N3CCN(c4ccccc4)CC3)c2)=Nc2ccc(Cl)cc21

>  <score_type>  (39) 
oracle

>  <origin>  (39) 
autodockgpu

>  <m_score__min__energy>  (39) 
-9.1099999999999994

>  <m_primary>  (39) 
energy

>  <rmsd>  (39) 
8.783536556439714

>  <m_score__min__rmsd>  (39) 
8.783536556439714

>  <meeko>  (39) 
{"free_energy": -8.53, "intermolecular_energy": -9.43, "internal_energy": -0.95, "cluster_size": 5, "cluster_id": 2, "rank_in_cluster": 3}

>  <energy>  (39) 
-8.89

>  <cluster_rmsd>  (39) 
1.41

>  <cluster>  (39) 
1

$$$$

     RDKit          3D

 54 58  0  0  0  0  0  0  0  0999 V2000
  138.9250   67.2920  224.1270 O   0  0  0  0  0  0  0  0  0  0  0  0
  139.1610   68.5200  224.0940 C   0  0  0  0  0  0  0  0  0  0  0  0
  138.7590   69.2720  222.8690 C   0  0  0  0  0  0  0  0  0  0  0  0
  139.1040   70.7090  222.9750 C   0  0  0  0  0  0  0  0  0  0  0  0
  138.7710   71.5650  221.8440 C   0  0  0  0  0  0  0  0  0  0  0  0
  138.8610   71.0270  220.5630 C   0  0  0  0  0  0  0  0  0  0  0  0
  138.5510   71.8060  219.4590 C   0  0  0  0  0  0  0  0  0  0  0  0
  138.1470   73.1240  219.6080 C   0  0  0  0  0  0  0  0  0  0  0  0
  138.0580   73.6590  220.8950 C   0  0  0  0  0  0  0  0  0  0  0  0
  137.6440   75.0240  221.1410 C   0  0  0  0  0  0  0  0  0  0  0  0
  136.5030   75.4080  220.7330 O   0  0  0  0  0  0  0  0  0  0  0  0
  138.4310   75.9920  221.8170 N   0  0  0  0  0  0  0  0  0  0  0  0
  137.8650   77.3180  221.9790 C   0  0  0  0  0  0  0  0  0  0  0  0
  138.8330   78.3190  221.3500 C   0  0  0  0  0  0  0  0  0  0  0  0
  140.0890   78.2040  222.0570 N   0  0  0  0  0  0  0  0  0  0  0  0
  140.8170   79.3520  222.5270 C   0  0  0  0  0  0  0  0  0  0  0  0
  141.8850   79.2510  223.3930 C   0  0  0  0  0  0  0  0  0  0  0  0
  142.5630   80.3680  223.8420 C   0  0  0  0  0  0  0  0  0  0  0  0
  142.2110   81.6380  223.4520 C   0  0  0  0  0  0  0  0  0  0  0  0
  141.1460   81.7590  222.5870 C   0  0  0  0  0  0  0  0  0  0  0  0
  140.4640   80.6320  222.1360 C   0  0  0  0  0  0  0  0  0  0  0  0
  140.6730   76.9160  222.3330 C   0  0  0  0  0  0  0  0  0  0  0  0
  139.7380   75.7610  222.3510 C   0  0  0  0  0  0  0  0  0  0  0  0
  138.3700   72.8670  221.9730 C   0  0  0  0  0  0  0  0  0  0  0  0
  139.6780   71.2380  224.0010 N   0  0  0  0  0  0  0  0  0  0  0  0
  140.0660   70.5500  225.1720 C   0  0  0  0  0  0  0  0  0  0  0  0
  140.6770   71.2130  226.2190 C   0  0  0  0  0  0  0  0  0  0  0  0
  141.0330   70.4900  227.3320 C   0  0  0  0  0  0  0  0  0  0  0  0
  140.8000   69.1170  227.4410 C   0  0  0  0  0  0  0  0  0  0  0  0
  141.2620   68.2130  228.8680 Cl  0  0  0  0  0  0  0  0  0  0  0  0
  140.1810   68.4900  226.3590 C   0  0  0  0  0  0  0  0  0  0  0  0
  139.8080   69.1750  225.2240 C   0  0  0  0  0  0  0  0  0  0  0  0
  139.2789   68.8430  221.9998 H   0  0  0  0  0  0  0  0  0  0  0  0
  137.6683   69.1870  222.7548 H   0  0  0  0  0  0  0  0  0  0  0  0
  139.1784   69.9826  220.4268 H   0  0  0  0  0  0  0  0  0  0  0  0
  138.6266   71.3725  218.4508 H   0  0  0  0  0  0  0  0  0  0  0  0
  137.9011   73.7371  218.7285 H   0  0  0  0  0  0  0  0  0  0  0  0
  136.8894   77.3727  221.4738 H   0  0  0  0  0  0  0  0  0  0  0  0
  137.7166   77.5448  223.0451 H   0  0  0  0  0  0  0  0  0  0  0  0
  138.9776   78.0848  220.2850 H   0  0  0  0  0  0  0  0  0  0  0  0
  138.4370   79.3427  221.4230 H   0  0  0  0  0  0  0  0  0  0  0  0
  142.2054   78.2559  223.7352 H   0  0  0  0  0  0  0  0  0  0  0  0
  143.4096   80.2369  224.5320 H   0  0  0  0  0  0  0  0  0  0  0  0
  142.7570   82.5210  223.8155 H   0  0  0  0  0  0  0  0  0  0  0  0
  140.8307   82.7571  222.2487 H   0  0  0  0  0  0  0  0  0  0  0  0
  139.6170   80.7631  221.4465 H   0  0  0  0  0  0  0  0  0  0  0  0
  141.4331   76.7203  221.5623 H   0  0  0  0  0  0  0  0  0  0  0  0
  141.0721   76.9872  223.3556 H   0  0  0  0  0  0  0  0  0  0  0  0
  140.1984   74.9487  221.7694 H   0  0  0  0  0  0  0  0  0  0  0  0
  139.5820   75.5280  223.4147 H   0  0  0  0  0  0  0  0  0  0  0  0
  138.2943   73.2974  222.9825 H   0  0  0  0  0  0  0  0  0  0  0  0
  140.8738   72.2938  226.1629 H   0  0  0  0  0  0  0  0  0  0  0  0
  141.5199   71.0122  228.1688 H   0  0  0  0  0  0  0  0  0  0  0  0
  139.9838   67.4093  226.4146 H   0  0  0  0  0  0  0  0  0  0  0  0
  1  2  2  0
  2  3  1  0
  3  4  1  0
  4  5  1  0
  5  6  2  0
  6  7  1  0
  7  8  2  0
  8  9  1  0
  9 10  1  0
 10 11  2  0
 10 12  1  0
 12 13  1  0
 13 14  1  0
 14 15  1  0
 15 16  1  0
 16 17  2  0
 17 18  1  0
 18 19  2  0
 19 20  1  0
 20 21  2  0
 15 22  1  0
 22 23  1  0
  9 24  2  0
  4 25  2  0
 25 26  1  0
 26 27  2  0
 27 28  1  0
 28 29  2  0
 29 30  1  0
 29 31  1  0
 31 32  2  0
 32  2  1  0
 24  5  1  0
 32 26  1  0
 23 12  1  0
 21 16  1  0
  3 33  1  0
  3 34  1  0
  6 35  1  0
  7 36  1  0
  8 37  1  0
 13 38  1  0
 13 39  1  0
 14 40  1  0
 14 41  1  0
 17 42  1  0
 18 43  1  0
 19 44  1  0
 20 45  1  0
 21 46  1  0
 22 47  1  0
 22 48  1  0
 23 49  1  0
 23 50  1  0
 24 51  1  0
 27 52  1  0
 28 53  1  0
 31 54  1  0
M  END
>  <smiles>  (40) 
O=C1CC(c2cccc(C(=O)N3CCN(c4ccccc4)CC3)c2)=Nc2ccc(Cl)cc21

>  <score_type>  (40) 
oracle

>  <origin>  (40) 
autodockgpu

>  <m_score__min__energy>  (40) 
-9.1099999999999994

>  <m_primary>  (40) 
energy

>  <rmsd>  (40) 
4.762605263175457

>  <m_score__min__rmsd>  (40) 
4.762605263175457

>  <meeko>  (40) 
{"free_energy": -8.92, "intermolecular_energy": -9.82, "internal_energy": -0.94, "cluster_size": 44, "cluster_id": 1, "rank_in_cluster": 32}

>  <energy>  (40) 
-8.79

>  <cluster_rmsd>  (40) 
1.07

>  <cluster>  (40) 
1

$$$$

     RDKit          3D

 54 58  0  0  0  0  0  0  0  0999 V2000
  138.8910   67.3740  224.0320 O   0  0  0  0  0  0  0  0  0  0  0  0
  139.1260   68.6010  223.9800 C   0  0  0  0  0  0  0  0  0  0  0  0
  138.7310   69.3310  222.7400 C   0  0  0  0  0  0  0  0  0  0  0  0
  139.0730   70.7700  222.8240 C   0  0  0  0  0  0  0  0  0  0  0  0
  138.7450   71.6060  221.6760 C   0  0  0  0  0  0  0  0  0  0  0  0
  138.7530   71.0210  220.4120 C   0  0  0  0  0  0  0  0  0  0  0  0
  138.4450   71.7810  219.2940 C   0  0  0  0  0  0  0  0  0  0  0  0
  138.1250   73.1250  219.4120 C   0  0  0  0  0  0  0  0  0  0  0  0
  138.1190   73.7060  220.6810 C   0  0  0  0  0  0  0  0  0  0  0  0
  137.7960   75.1010  220.8930 C   0  0  0  0  0  0  0  0  0  0  0  0
  136.7440   75.5800  220.3650 O   0  0  0  0  0  0  0  0  0  0  0  0
  138.5800   75.9980  221.6640 N   0  0  0  0  0  0  0  0  0  0  0  0
  138.1130   77.3680  221.7750 C   0  0  0  0  0  0  0  0  0  0  0  0
  139.2250   78.2840  221.2690 C   0  0  0  0  0  0  0  0  0  0  0  0
  140.3800   78.0630  222.1120 N   0  0  0  0  0  0  0  0  0  0  0  0
  141.1430   79.1440  222.6730 C   0  0  0  0  0  0  0  0  0  0  0  0
  142.5210   79.1740  222.6450 C   0  0  0  0  0  0  0  0  0  0  0  0
  143.2360   80.2180  223.2010 C   0  0  0  0  0  0  0  0  0  0  0  0
  142.6150   81.2810  223.8110 C   0  0  0  0  0  0  0  0  0  0  0  0
  141.2380   81.2690  223.8490 C   0  0  0  0  0  0  0  0  0  0  0  0
  140.5190   80.2160  223.2880 C   0  0  0  0  0  0  0  0  0  0  0  0
  140.8190   76.7300  222.4370 C   0  0  0  0  0  0  0  0  0  0  0  0
  139.7950   75.6580  222.3390 C   0  0  0  0  0  0  0  0  0  0  0  0
  138.4270   72.9330  221.7740 C   0  0  0  0  0  0  0  0  0  0  0  0
  139.6390   71.3170  223.8450 N   0  0  0  0  0  0  0  0  0  0  0  0
  140.0220   70.6500  225.0290 C   0  0  0  0  0  0  0  0  0  0  0  0
  140.6250   71.3310  226.0690 C   0  0  0  0  0  0  0  0  0  0  0  0
  140.9750   70.6280  227.1950 C   0  0  0  0  0  0  0  0  0  0  0  0
  140.7430   69.2570  227.3260 C   0  0  0  0  0  0  0  0  0  0  0  0
  141.1980   68.3780  228.7720 Cl  0  0  0  0  0  0  0  0  0  0  0  0
  140.1320   68.6110  226.2520 C   0  0  0  0  0  0  0  0  0  0  0  0
  139.7650   69.2760  225.1030 C   0  0  0  0  0  0  0  0  0  0  0  0
  139.2574   68.8882  221.8816 H   0  0  0  0  0  0  0  0  0  0  0  0
  137.6412   69.2420  222.6199 H   0  0  0  0  0  0  0  0  0  0  0  0
  139.0038   69.9558  220.3007 H   0  0  0  0  0  0  0  0  0  0  0  0
  138.4547   71.3111  218.2994 H   0  0  0  0  0  0  0  0  0  0  0  0
  137.8803   73.7225  218.5215 H   0  0  0  0  0  0  0  0  0  0  0  0
  137.2084   77.5054  221.1643 H   0  0  0  0  0  0  0  0  0  0  0  0
  137.8660   77.6057  222.8202 H   0  0  0  0  0  0  0  0  0  0  0  0
  139.4686   78.0392  220.2246 H   0  0  0  0  0  0  0  0  0  0  0  0
  138.9102   79.3373  221.3073 H   0  0  0  0  0  0  0  0  0  0  0  0
  143.0654   78.3458  222.1679 H   0  0  0  0  0  0  0  0  0  0  0  0
  144.3348   80.1972  223.1537 H   0  0  0  0  0  0  0  0  0  0  0  0
  143.1932   82.1071  224.2507 H   0  0  0  0  0  0  0  0  0  0  0  0
  140.7001   82.1005  224.3278 H   0  0  0  0  0  0  0  0  0  0  0  0
  139.4202   80.2369  223.3351 H   0  0  0  0  0  0  0  0  0  0  0  0
  141.6411   76.4718  221.7533 H   0  0  0  0  0  0  0  0  0  0  0  0
  141.1056   76.7660  223.4984 H   0  0  0  0  0  0  0  0  0  0  0  0
  140.2484   74.8100  221.8049 H   0  0  0  0  0  0  0  0  0  0  0  0
  139.5014   75.4390  223.3762 H   0  0  0  0  0  0  0  0  0  0  0  0
  138.4176   73.4005  222.7697 H   0  0  0  0  0  0  0  0  0  0  0  0
  140.8200   72.4111  225.9965 H   0  0  0  0  0  0  0  0  0  0  0  0
  141.4565   71.1649  228.0256 H   0  0  0  0  0  0  0  0  0  0  0  0
  139.9360   67.5311  226.3250 H   0  0  0  0  0  0  0  0  0  0  0  0
  1  2  2  0
  2  3  1  0
  3  4  1  0
  4  5  1  0
  5  6  2  0
  6  7  1  0
  7  8  2  0
  8  9  1  0
  9 10  1  0
 10 11  2  0
 10 12  1  0
 12 13  1  0
 13 14  1  0
 14 15  1  0
 15 16  1  0
 16 17  2  0
 17 18  1  0
 18 19  2  0
 19 20  1  0
 20 21  2  0
 15 22  1  0
 22 23  1  0
  9 24  2  0
  4 25  2  0
 25 26  1  0
 26 27  2  0
 27 28  1  0
 28 29  2  0
 29 30  1  0
 29 31  1  0
 31 32  2  0
 32  2  1  0
 24  5  1  0
 32 26  1  0
 23 12  1  0
 21 16  1  0
  3 33  1  0
  3 34  1  0
  6 35  1  0
  7 36  1  0
  8 37  1  0
 13 38  1  0
 13 39  1  0
 14 40  1  0
 14 41  1  0
 17 42  1  0
 18 43  1  0
 19 44  1  0
 20 45  1  0
 21 46  1  0
 22 47  1  0
 22 48  1  0
 23 49  1  0
 23 50  1  0
 24 51  1  0
 27 52  1  0
 28 53  1  0
 31 54  1  0
M  END
>  <smiles>  (41) 
O=C1CC(c2cccc(C(=O)N3CCN(c4ccccc4)CC3)c2)=Nc2ccc(Cl)cc21

>  <score_type>  (41) 
oracle

>  <origin>  (41) 
autodockgpu

>  <m_score__min__energy>  (41) 
-9.1099999999999994

>  <m_primary>  (41) 
energy

>  <rmsd>  (41) 
4.959066325956206

>  <m_score__min__rmsd>  (41) 
4.959066325956206

>  <meeko>  (41) 
{"free_energy": -8.93, "intermolecular_energy": -9.83, "internal_energy": -0.92, "cluster_size": 44, "cluster_id": 1, "rank_in_cluster": 28}

>  <energy>  (41) 
-8.78

>  <cluster_rmsd>  (41) 
1.02

>  <cluster>  (41) 
1

$$$$

     RDKit          3D

 54 58  0  0  0  0  0  0  0  0999 V2000
  138.9610   67.2340  224.1680 O   0  0  0  0  0  0  0  0  0  0  0  0
  139.1920   68.4630  224.1370 C   0  0  0  0  0  0  0  0  0  0  0  0
  138.7860   69.2150  222.9140 C   0  0  0  0  0  0  0  0  0  0  0  0
  139.1240   70.6530  223.0230 C   0  0  0  0  0  0  0  0  0  0  0  0
  138.7850   71.5100  221.8940 C   0  0  0  0  0  0  0  0  0  0  0  0
  138.8760   70.9750  220.6120 C   0  0  0  0  0  0  0  0  0  0  0  0
  138.5610   71.7550  219.5090 C   0  0  0  0  0  0  0  0  0  0  0  0
  138.1520   73.0710  219.6630 C   0  0  0  0  0  0  0  0  0  0  0  0
  138.0630   73.6030  220.9500 C   0  0  0  0  0  0  0  0  0  0  0  0
  137.6450   74.9660  221.1990 C   0  0  0  0  0  0  0  0  0  0  0  0
  136.4930   75.3410  220.8120 O   0  0  0  0  0  0  0  0  0  0  0  0
  138.4380   75.9420  221.8580 N   0  0  0  0  0  0  0  0  0  0  0  0
  137.8660   77.2650  222.0260 C   0  0  0  0  0  0  0  0  0  0  0  0
  138.8140   78.2700  221.3750 C   0  0  0  0  0  0  0  0  0  0  0  0
  140.0840   78.1660  222.0600 N   0  0  0  0  0  0  0  0  0  0  0  0
  140.8130   79.3200  222.5120 C   0  0  0  0  0  0  0  0  0  0  0  0
  141.8370   79.2390  223.4310 C   0  0  0  0  0  0  0  0  0  0  0  0
  142.5170   80.3630  223.8620 C   0  0  0  0  0  0  0  0  0  0  0  0
  142.2100   81.6200  223.3990 C   0  0  0  0  0  0  0  0  0  0  0  0
  141.1890   81.7210  222.4810 C   0  0  0  0  0  0  0  0  0  0  0  0
  140.5050   80.5880  222.0480 C   0  0  0  0  0  0  0  0  0  0  0  0
  140.6830   76.8830  222.3280 C   0  0  0  0  0  0  0  0  0  0  0  0
  139.7560   75.7220  222.3680 C   0  0  0  0  0  0  0  0  0  0  0  0
  138.3810   72.8100  222.0260 C   0  0  0  0  0  0  0  0  0  0  0  0
  139.6970   71.1820  224.0500 N   0  0  0  0  0  0  0  0  0  0  0  0
  140.0900   70.4940  225.2180 C   0  0  0  0  0  0  0  0  0  0  0  0
  140.7000   71.1570  226.2660 C   0  0  0  0  0  0  0  0  0  0  0  0
  141.0600   70.4330  227.3770 C   0  0  0  0  0  0  0  0  0  0  0  0
  140.8330   69.0590  227.4830 C   0  0  0  0  0  0  0  0  0  0  0  0
  141.3010   68.1550  228.9080 Cl  0  0  0  0  0  0  0  0  0  0  0  0
  140.2160   68.4320  226.4010 C   0  0  0  0  0  0  0  0  0  0  0  0
  139.8370   69.1180  225.2680 C   0  0  0  0  0  0  0  0  0  0  0  0
  139.3078   68.7903  222.0437 H   0  0  0  0  0  0  0  0  0  0  0  0
  137.6957   69.1247  222.7998 H   0  0  0  0  0  0  0  0  0  0  0  0
  139.1981   69.9324  220.4735 H   0  0  0  0  0  0  0  0  0  0  0  0
  138.6366   71.3242  218.4997 H   0  0  0  0  0  0  0  0  0  0  0  0
  137.9019   73.6852  218.7854 H   0  0  0  0  0  0  0  0  0  0  0  0
  136.8805   77.3110  221.5396 H   0  0  0  0  0  0  0  0  0  0  0  0
  137.7369   77.4949  223.0939 H   0  0  0  0  0  0  0  0  0  0  0  0
  138.9405   78.0325  220.3084 H   0  0  0  0  0  0  0  0  0  0  0  0
  138.4122   79.2912  221.4504 H   0  0  0  0  0  0  0  0  0  0  0  0
  142.1206   78.2547  223.8319 H   0  0  0  0  0  0  0  0  0  0  0  0
  143.3273   80.2478  224.5969 H   0  0  0  0  0  0  0  0  0  0  0  0
  142.7572   82.5084  223.7474 H   0  0  0  0  0  0  0  0  0  0  0  0
  140.9102   82.7086  222.0848 H   0  0  0  0  0  0  0  0  0  0  0  0
  139.6940   80.7038  221.3139 H   0  0  0  0  0  0  0  0  0  0  0  0
  141.4288   76.6902  221.5428 H   0  0  0  0  0  0  0  0  0  0  0  0
  141.1027   76.9599  223.3419 H   0  0  0  0  0  0  0  0  0  0  0  0
  140.2107   74.9104  221.7810 H   0  0  0  0  0  0  0  0  0  0  0  0
  139.6215   75.4925  223.4353 H   0  0  0  0  0  0  0  0  0  0  0  0
  138.3076   73.2388  223.0363 H   0  0  0  0  0  0  0  0  0  0  0  0
  140.8928   72.2386  226.2120 H   0  0  0  0  0  0  0  0  0  0  0  0
  141.5454   70.9553  228.2146 H   0  0  0  0  0  0  0  0  0  0  0  0
  140.0249   67.3500  226.4541 H   0  0  0  0  0  0  0  0  0  0  0  0
  1  2  2  0
  2  3  1  0
  3  4  1  0
  4  5  1  0
  5  6  2  0
  6  7  1  0
  7  8  2  0
  8  9  1  0
  9 10  1  0
 10 11  2  0
 10 12  1  0
 12 13  1  0
 13 14  1  0
 14 15  1  0
 15 16  1  0
 16 17  2  0
 17 18  1  0
 18 19  2  0
 19 20  1  0
 20 21  2  0
 15 22  1  0
 22 23  1  0
  9 24  2  0
  4 25  2  0
 25 26  1  0
 26 27  2  0
 27 28  1  0
 28 29  2  0
 29 30  1  0
 29 31  1  0
 31 32  2  0
 32  2  1  0
 24  5  1  0
 32 26  1  0
 23 12  1  0
 21 16  1  0
  3 33  1  0
  3 34  1  0
  6 35  1  0
  7 36  1  0
  8 37  1  0
 13 38  1  0
 13 39  1  0
 14 40  1  0
 14 41  1  0
 17 42  1  0
 18 43  1  0
 19 44  1  0
 20 45  1  0
 21 46  1  0
 22 47  1  0
 22 48  1  0
 23 49  1  0
 23 50  1  0
 24 51  1  0
 27 52  1  0
 28 53  1  0
 31 54  1  0
M  END
>  <smiles>  (42) 
O=C1CC(c2cccc(C(=O)N3CCN(c4ccccc4)CC3)c2)=Nc2ccc(Cl)cc21

>  <score_type>  (42) 
oracle

>  <origin>  (42) 
autodockgpu

>  <m_score__min__energy>  (42) 
-9.1099999999999994

>  <m_primary>  (42) 
energy

>  <rmsd>  (42) 
4.7127388000644395

>  <m_score__min__rmsd>  (42) 
4.7127388000644395

>  <meeko>  (42) 
{"free_energy": -8.92, "intermolecular_energy": -9.81, "internal_energy": -0.95, "cluster_size": 44, "cluster_id": 1, "rank_in_cluster": 34}

>  <energy>  (42) 
-8.72

>  <cluster_rmsd>  (42) 
1.02

>  <cluster>  (42) 
1

$$$$

     RDKit          3D

 54 58  0  0  0  0  0  0  0  0999 V2000
  138.8510   67.2700  223.9390 O   0  0  0  0  0  0  0  0  0  0  0  0
  139.0250   68.5090  223.9360 C   0  0  0  0  0  0  0  0  0  0  0  0
  138.5990   69.2670  222.7230 C   0  0  0  0  0  0  0  0  0  0  0  0
  138.8690   70.7160  222.8660 C   0  0  0  0  0  0  0  0  0  0  0  0
  138.5050   71.5800  221.7490 C   0  0  0  0  0  0  0  0  0  0  0  0
  138.4670   71.0250  220.4730 C   0  0  0  0  0  0  0  0  0  0  0  0
  138.1230   71.8110  219.3840 C   0  0  0  0  0  0  0  0  0  0  0  0
  137.8120   73.1530  219.5440 C   0  0  0  0  0  0  0  0  0  0  0  0
  137.8510   73.7040  220.8260 C   0  0  0  0  0  0  0  0  0  0  0  0
  137.5400   75.0950  221.0820 C   0  0  0  0  0  0  0  0  0  0  0  0
  136.4480   75.5760  220.6420 O   0  0  0  0  0  0  0  0  0  0  0  0
  138.3780   75.9850  221.8020 N   0  0  0  0  0  0  0  0  0  0  0  0
  137.9150   77.3510  221.9680 C   0  0  0  0  0  0  0  0  0  0  0  0
  138.9810   78.2790  221.3900 C   0  0  0  0  0  0  0  0  0  0  0  0
  140.1980   78.0520  222.1380 N   0  0  0  0  0  0  0  0  0  0  0  0
  140.9990   79.1300  222.6530 C   0  0  0  0  0  0  0  0  0  0  0  0
  142.3740   79.1450  222.5600 C   0  0  0  0  0  0  0  0  0  0  0  0
  143.1260   80.1850  223.0730 C   0  0  0  0  0  0  0  0  0  0  0  0
  142.5440   81.2600  223.7030 C   0  0  0  0  0  0  0  0  0  0  0  0
  141.1710   81.2630  223.8060 C   0  0  0  0  0  0  0  0  0  0  0  0
  140.4160   80.2140  223.2880 C   0  0  0  0  0  0  0  0  0  0  0  0
  140.6670   76.7180  222.4100 C   0  0  0  0  0  0  0  0  0  0  0  0
  139.6430   75.6420  222.3760 C   0  0  0  0  0  0  0  0  0  0  0  0
  138.1940   72.9050  221.8890 C   0  0  0  0  0  0  0  0  0  0  0  0
  139.4040   71.2500  223.9100 N   0  0  0  0  0  0  0  0  0  0  0  0
  139.8140   70.5560  225.0700 C   0  0  0  0  0  0  0  0  0  0  0  0
  140.3790   71.2250  226.1380 C   0  0  0  0  0  0  0  0  0  0  0  0
  140.7590   70.4960  227.2390 C   0  0  0  0  0  0  0  0  0  0  0  0
  140.5950   69.1100  227.3150 C   0  0  0  0  0  0  0  0  0  0  0  0
  141.0870   68.1990  228.7270 Cl  0  0  0  0  0  0  0  0  0  0  0  0
  140.0210   68.4780  226.2120 C   0  0  0  0  0  0  0  0  0  0  0  0
  139.6250   69.1690  225.0880 C   0  0  0  0  0  0  0  0  0  0  0  0
  139.1501   68.8851  221.8510 H   0  0  0  0  0  0  0  0  0  0  0  0
  137.5155   69.1290  222.5926 H   0  0  0  0  0  0  0  0  0  0  0  0
  138.7101   69.9620  220.3286 H   0  0  0  0  0  0  0  0  0  0  0  0
  138.0964   71.3641  218.3792 H   0  0  0  0  0  0  0  0  0  0  0  0
  137.5395   73.7720  218.6765 H   0  0  0  0  0  0  0  0  0  0  0  0
  136.9653   77.4920  221.4312 H   0  0  0  0  0  0  0  0  0  0  0  0
  137.7483   77.5734  223.0323 H   0  0  0  0  0  0  0  0  0  0  0  0
  139.1440   78.0494  220.3267 H   0  0  0  0  0  0  0  0  0  0  0  0
  138.6663   79.3302  221.4667 H   0  0  0  0  0  0  0  0  0  0  0  0
  142.8864   78.3072  222.0644 H   0  0  0  0  0  0  0  0  0  0  0  0
  144.2211   80.1519  222.9746 H   0  0  0  0  0  0  0  0  0  0  0  0
  143.1504   82.0836  224.1080 H   0  0  0  0  0  0  0  0  0  0  0  0
  140.6648   82.1036  224.3031 H   0  0  0  0  0  0  0  0  0  0  0  0
  139.3209   80.2473  223.3863 H   0  0  0  0  0  0  0  0  0  0  0  0
  141.4354   76.4735  221.6618 H   0  0  0  0  0  0  0  0  0  0  0  0
  141.0346   76.7413  223.4465 H   0  0  0  0  0  0  0  0  0  0  0  0
  140.0573   74.8040  221.7962 H   0  0  0  0  0  0  0  0  0  0  0  0
  139.4315   75.4068  223.4295 H   0  0  0  0  0  0  0  0  0  0  0  0
  138.2198   73.3489  222.8951 H   0  0  0  0  0  0  0  0  0  0  0  0
  140.5214   72.3153  226.1079 H   0  0  0  0  0  0  0  0  0  0  0  0
  141.2094   71.0232  228.0930 H   0  0  0  0  0  0  0  0  0  0  0  0
  139.8793   67.3875  226.2407 H   0  0  0  0  0  0  0  0  0  0  0  0
  1  2  2  0
  2  3  1  0
  3  4  1  0
  4  5  1  0
  5  6  2  0
  6  7  1  0
  7  8  2  0
  8  9  1  0
  9 10  1  0
 10 11  2  0
 10 12  1  0
 12 13  1  0
 13 14  1  0
 14 15  1  0
 15 16  1  0
 16 17  2  0
 17 18  1  0
 18 19  2  0
 19 20  1  0
 20 21  2  0
 15 22  1  0
 22 23  1  0
  9 24  2  0
  4 25  2  0
 25 26  1  0
 26 27  2  0
 27 28  1  0
 28 29  2  0
 29 30  1  0
 29 31  1  0
 31 32  2  0
 32  2  1  0
 24  5  1  0
 32 26  1  0
 23 12  1  0
 21 16  1  0
  3 33  1  0
  3 34  1  0
  6 35  1  0
  7 36  1  0
  8 37  1  0
 13 38  1  0
 13 39  1  0
 14 40  1  0
 14 41  1  0
 17 42  1  0
 18 43  1  0
 19 44  1  0
 20 45  1  0
 21 46  1  0
 22 47  1  0
 22 48  1  0
 23 49  1  0
 23 50  1  0
 24 51  1  0
 27 52  1  0
 28 53  1  0
 31 54  1  0
M  END
>  <smiles>  (43) 
O=C1CC(c2cccc(C(=O)N3CCN(c4ccccc4)CC3)c2)=Nc2ccc(Cl)cc21

>  <score_type>  (43) 
oracle

>  <origin>  (43) 
autodockgpu

>  <m_score__min__energy>  (43) 
-9.1099999999999994

>  <m_primary>  (43) 
energy

>  <rmsd>  (43) 
4.956493459505397

>  <m_score__min__rmsd>  (43) 
4.956493459505397

>  <meeko>  (43) 
{"free_energy": -8.94, "intermolecular_energy": -9.83, "internal_energy": -0.93, "cluster_size": 44, "cluster_id": 1, "rank_in_cluster": 25}

>  <energy>  (43) 
-8.54

>  <cluster_rmsd>  (43) 
1.7

>  <cluster>  (43) 
1

$$$$

     RDKit          3D

 54 58  0  0  0  0  0  0  0  0999 V2000
  139.1650   67.2840  224.3780 O   0  0  0  0  0  0  0  0  0  0  0  0
  139.1960   68.5310  224.4640 C   0  0  0  0  0  0  0  0  0  0  0  0
  138.6060   69.3200  223.3430 C   0  0  0  0  0  0  0  0  0  0  0  0
  138.7180   70.7770  223.5860 C   0  0  0  0  0  0  0  0  0  0  0  0
  138.1840   71.6710  222.5650 C   0  0  0  0  0  0  0  0  0  0  0  0
  136.8380   71.5530  222.2280 C   0  0  0  0  0  0  0  0  0  0  0  0
  136.2890   72.3860  221.2630 C   0  0  0  0  0  0  0  0  0  0  0  0
  137.0630   73.3420  220.6240 C   0  0  0  0  0  0  0  0  0  0  0  0
  138.4120   73.4550  220.9670 C   0  0  0  0  0  0  0  0  0  0  0  0
  139.2900   74.4260  220.3490 C   0  0  0  0  0  0  0  0  0  0  0  0
  139.9490   74.0950  219.3140 O   0  0  0  0  0  0  0  0  0  0  0  0
  139.4780   75.7520  220.8200 N   0  0  0  0  0  0  0  0  0  0  0  0
  140.3970   76.5980  220.0830 C   0  0  0  0  0  0  0  0  0  0  0  0
  141.4680   77.0840  221.0570 C   0  0  0  0  0  0  0  0  0  0  0  0
  140.7960   77.8350  222.0950 N   0  0  0  0  0  0  0  0  0  0  0  0
  141.2590   79.1210  222.5410 C   0  0  0  0  0  0  0  0  0  0  0  0
  140.8190   80.3030  221.9860 C   0  0  0  0  0  0  0  0  0  0  0  0
  141.2860   81.5290  222.4210 C   0  0  0  0  0  0  0  0  0  0  0  0
  142.2150   81.6360  223.4300 C   0  0  0  0  0  0  0  0  0  0  0  0
  142.6670   80.4650  223.9960 C   0  0  0  0  0  0  0  0  0  0  0  0
  142.1940   79.2310  223.5560 C   0  0  0  0  0  0  0  0  0  0  0  0
  139.6100   77.3230  222.7330 C   0  0  0  0  0  0  0  0  0  0  0  0
  138.8310   76.3180  221.9640 C   0  0  0  0  0  0  0  0  0  0  0  0
  138.9320   72.6200  221.9250 C   0  0  0  0  0  0  0  0  0  0  0  0
  139.2570   71.2930  224.6370 N   0  0  0  0  0  0  0  0  0  0  0  0
  139.8200   70.5700  225.7120 C   0  0  0  0  0  0  0  0  0  0  0  0
  140.3750   71.2210  226.7960 C   0  0  0  0  0  0  0  0  0  0  0  0
  140.9080   70.4640  227.8110 C   0  0  0  0  0  0  0  0  0  0  0  0
  140.9090   69.0670  227.7840 C   0  0  0  0  0  0  0  0  0  0  0  0
  141.5940   68.1200  229.0880 Cl  0  0  0  0  0  0  0  0  0  0  0  0
  140.3380   68.4530  226.6700 C   0  0  0  0  0  0  0  0  0  0  0  0
  139.7920   69.1730  225.6290 C   0  0  0  0  0  0  0  0  0  0  0  0
  139.1372   69.0711  222.4125 H   0  0  0  0  0  0  0  0  0  0  0  0
  137.5389   69.0643  223.2655 H   0  0  0  0  0  0  0  0  0  0  0  0
  136.2100   70.7998  222.7264 H   0  0  0  0  0  0  0  0  0  0  0  0
  135.2251   72.2861  221.0018 H   0  0  0  0  0  0  0  0  0  0  0  0
  136.6225   73.9999  219.8604 H   0  0  0  0  0  0  0  0  0  0  0  0
  140.8641   76.0234  219.2696 H   0  0  0  0  0  0  0  0  0  0  0  0
  139.8628   77.4524  219.6419 H   0  0  0  0  0  0  0  0  0  0  0  0
  141.9958   76.2244  221.4958 H   0  0  0  0  0  0  0  0  0  0  0  0
  142.2091   77.7112  220.5400 H   0  0  0  0  0  0  0  0  0  0  0  0
  140.0764   80.2700  221.1752 H   0  0  0  0  0  0  0  0  0  0  0  0
  140.9040   82.4452  221.9470 H   0  0  0  0  0  0  0  0  0  0  0  0
  142.5813   82.6158  223.7703 H   0  0  0  0  0  0  0  0  0  0  0  0
  143.4107   80.5045  224.8055 H   0  0  0  0  0  0  0  0  0  0  0  0
  142.5755   78.3147  224.0301 H   0  0  0  0  0  0  0  0  0  0  0  0
  139.9143   76.8568  223.6817 H   0  0  0  0  0  0  0  0  0  0  0  0
  138.9409   78.1887  222.8467 H   0  0  0  0  0  0  0  0  0  0  0  0
  138.5797   75.4942  222.6482 H   0  0  0  0  0  0  0  0  0  0  0  0
  137.9610   76.8626  221.5684 H   0  0  0  0  0  0  0  0  0  0  0  0
  139.9953   72.7187  222.1888 H   0  0  0  0  0  0  0  0  0  0  0  0
  140.3900   72.3198  226.8456 H   0  0  0  0  0  0  0  0  0  0  0  0
  141.3506   70.9770  228.6776 H   0  0  0  0  0  0  0  0  0  0  0  0
  140.3227   67.3542  226.6200 H   0  0  0  0  0  0  0  0  0  0  0  0
  1  2  2  0
  2  3  1  0
  3  4  1  0
  4  5  1  0
  5  6  2  0
  6  7  1  0
  7  8  2  0
  8  9  1  0
  9 10  1  0
 10 11  2  0
 10 12  1  0
 12 13  1  0
 13 14  1  0
 14 15  1  0
 15 16  1  0
 16 17  2  0
 17 18  1  0
 18 19  2  0
 19 20  1  0
 20 21  2  0
 15 22  1  0
 22 23  1  0
  9 24  2  0
  4 25  2  0
 25 26  1  0
 26 27  2  0
 27 28  1  0
 28 29  2  0
 29 30  1  0
 29 31  1  0
 31 32  2  0
 32  2  1  0
 24  5  1  0
 32 26  1  0
 23 12  1  0
 21 16  1  0
  3 33  1  0
  3 34  1  0
  6 35  1  0
  7 36  1  0
  8 37  1  0
 13 38  1  0
 13 39  1  0
 14 40  1  0
 14 41  1  0
 17 42  1  0
 18 43  1  0
 19 44  1  0
 20 45  1  0
 21 46  1  0
 22 47  1  0
 22 48  1  0
 23 49  1  0
 23 50  1  0
 24 51  1  0
 27 52  1  0
 28 53  1  0
 31 54  1  0
M  END
>  <smiles>  (44) 
O=C1CC(c2cccc(C(=O)N3CCN(c4ccccc4)CC3)c2)=Nc2ccc(Cl)cc21

>  <score_type>  (44) 
oracle

>  <origin>  (44) 
autodockgpu

>  <m_score__min__energy>  (44) 
-9.1099999999999994

>  <m_primary>  (44) 
energy

>  <rmsd>  (44) 
4.835196987061028

>  <m_score__min__rmsd>  (44) 
4.835196987061028

>  <meeko>  (44) 
{"free_energy": -9.08, "intermolecular_energy": -9.97, "internal_energy": -0.95, "cluster_size": 44, "cluster_id": 1, "rank_in_cluster": 4}

>  <energy>  (44) 
-8.33

>  <cluster_rmsd>  (44) 
1.55

>  <cluster>  (44) 
1

$$$$

     RDKit          3D

 54 58  0  0  0  0  0  0  0  0999 V2000
  139.1180   67.2740  224.3690 O   0  0  0  0  0  0  0  0  0  0  0  0
  139.1630   68.5220  224.4360 C   0  0  0  0  0  0  0  0  0  0  0  0
  138.5980   69.3000  223.2950 C   0  0  0  0  0  0  0  0  0  0  0  0
  138.7260   70.7590  223.5160 C   0  0  0  0  0  0  0  0  0  0  0  0
  138.2160   71.6430  222.4750 C   0  0  0  0  0  0  0  0  0  0  0  0
  136.8850   71.5050  222.0890 C   0  0  0  0  0  0  0  0  0  0  0  0
  136.3600   72.3280  221.1030 C   0  0  0  0  0  0  0  0  0  0  0  0
  137.1420   73.2930  220.4900 C   0  0  0  0  0  0  0  0  0  0  0  0
  138.4760   73.4270  220.8810 C   0  0  0  0  0  0  0  0  0  0  0  0
  139.3620   74.4100  220.2930 C   0  0  0  0  0  0  0  0  0  0  0  0
  140.0440   74.0940  219.2680 O   0  0  0  0  0  0  0  0  0  0  0  0
  139.5330   75.7300  220.7840 N   0  0  0  0  0  0  0  0  0  0  0  0
  140.4640   76.5900  220.0760 C   0  0  0  0  0  0  0  0  0  0  0  0
  141.5120   77.0690  221.0780 C   0  0  0  0  0  0  0  0  0  0  0  0
  140.8140   77.8040  222.1100 N   0  0  0  0  0  0  0  0  0  0  0  0
  141.2620   79.0870  222.5810 C   0  0  0  0  0  0  0  0  0  0  0  0
  142.3920   79.2410  223.3550 C   0  0  0  0  0  0  0  0  0  0  0  0
  142.7990   80.4820  223.8070 C   0  0  0  0  0  0  0  0  0  0  0  0
  142.1010   81.6290  223.5100 C   0  0  0  0  0  0  0  0  0  0  0  0
  140.9690   81.4940  222.7370 C   0  0  0  0  0  0  0  0  0  0  0  0
  140.5610   80.2430  222.2830 C   0  0  0  0  0  0  0  0  0  0  0  0
  139.6180   77.2800  222.7180 C   0  0  0  0  0  0  0  0  0  0  0  0
  138.8610   76.2800  221.9210 C   0  0  0  0  0  0  0  0  0  0  0  0
  138.9730   72.6010  221.8590 C   0  0  0  0  0  0  0  0  0  0  0  0
  139.2570   71.2850  224.5660 N   0  0  0  0  0  0  0  0  0  0  0  0
  139.7970   70.5720  225.6590 C   0  0  0  0  0  0  0  0  0  0  0  0
  140.3460   71.2330  226.7410 C   0  0  0  0  0  0  0  0  0  0  0  0
  140.8570   70.4860  227.7740 C   0  0  0  0  0  0  0  0  0  0  0  0
  140.8400   69.0890  227.7690 C   0  0  0  0  0  0  0  0  0  0  0  0
  141.4960   68.1540  229.0970 Cl  0  0  0  0  0  0  0  0  0  0  0  0
  140.2760   68.4650  226.6570 C   0  0  0  0  0  0  0  0  0  0  0  0
  139.7530   69.1740  225.5980 C   0  0  0  0  0  0  0  0  0  0  0  0
  139.1379   69.0291  222.3757 H   0  0  0  0  0  0  0  0  0  0  0  0
  137.5288   69.0569  223.2076 H   0  0  0  0  0  0  0  0  0  0  0  0
  136.2501   70.7437  222.5657 H   0  0  0  0  0  0  0  0  0  0  0  0
  135.3078   72.2125  220.8039 H   0  0  0  0  0  0  0  0  0  0  0  0
  136.7197   73.9424  219.7090 H   0  0  0  0  0  0  0  0  0  0  0  0
  140.9508   76.0275  219.2657 H   0  0  0  0  0  0  0  0  0  0  0  0
  139.9350   77.4473  219.6342 H   0  0  0  0  0  0  0  0  0  0  0  0
  142.0347   76.2067  221.5176 H   0  0  0  0  0  0  0  0  0  0  0  0
  142.2612   77.7056  220.5846 H   0  0  0  0  0  0  0  0  0  0  0  0
  142.9852   78.3533  223.6198 H   0  0  0  0  0  0  0  0  0  0  0  0
  143.7079   80.5544  224.4224 H   0  0  0  0  0  0  0  0  0  0  0  0
  142.4326   82.6125  223.8743 H   0  0  0  0  0  0  0  0  0  0  0  0
  140.3803   82.3856  222.4753 H   0  0  0  0  0  0  0  0  0  0  0  0
  139.6522   80.1706  221.6675 H   0  0  0  0  0  0  0  0  0  0  0  0
  139.9048   76.8048  223.6677 H   0  0  0  0  0  0  0  0  0  0  0  0
  138.9423   78.1410  222.8285 H   0  0  0  0  0  0  0  0  0  0  0  0
  138.6001   75.4471  222.5905 H   0  0  0  0  0  0  0  0  0  0  0  0
  137.9972   76.8256  221.5133 H   0  0  0  0  0  0  0  0  0  0  0  0
  140.0250   72.7148  222.1598 H   0  0  0  0  0  0  0  0  0  0  0  0
  140.3732   72.3322  226.7743 H   0  0  0  0  0  0  0  0  0  0  0  0
  141.2960   71.0071  228.6376 H   0  0  0  0  0  0  0  0  0  0  0  0
  140.2476   67.3659  226.6241 H   0  0  0  0  0  0  0  0  0  0  0  0
  1  2  2  0
  2  3  1  0
  3  4  1  0
  4  5  1  0
  5  6  2  0
  6  7  1  0
  7  8  2  0
  8  9  1  0
  9 10  1  0
 10 11  2  0
 10 12  1  0
 12 13  1  0
 13 14  1  0
 14 15  1  0
 15 16  1  0
 16 17  2  0
 17 18  1  0
 18 19  2  0
 19 20  1  0
 20 21  2  0
 15 22  1  0
 22 23  1  0
  9 24  2  0
  4 25  2  0
 25 26  1  0
 26 27  2  0
 27 28  1  0
 28 29  2  0
 29 30  1  0
 29 31  1  0
 31 32  2  0
 32  2  1  0
 24  5  1  0
 32 26  1  0
 23 12  1  0
 21 16  1  0
  3 33  1  0
  3 34  1  0
  6 35  1  0
  7 36  1  0
  8 37  1  0
 13 38  1  0
 13 39  1  0
 14 40  1  0
 14 41  1  0
 17 42  1  0
 18 43  1  0
 19 44  1  0
 20 45  1  0
 21 46  1  0
 22 47  1  0
 22 48  1  0
 23 49  1  0
 23 50  1  0
 24 51  1  0
 27 52  1  0
 28 53  1  0
 31 54  1  0
M  END
>  <smiles>  (45) 
O=C1CC(c2cccc(C(=O)N3CCN(c4ccccc4)CC3)c2)=Nc2ccc(Cl)cc21

>  <score_type>  (45) 
oracle

>  <origin>  (45) 
autodockgpu

>  <m_score__min__energy>  (45) 
-9.1099999999999994

>  <m_primary>  (45) 
energy

>  <rmsd>  (45) 
4.620954845431978

>  <m_score__min__rmsd>  (45) 
4.620954845431978

>  <meeko>  (45) 
{"free_energy": -9.06, "intermolecular_energy": -9.95, "internal_energy": -0.96, "cluster_size": 44, "cluster_id": 1, "rank_in_cluster": 11}

>  <energy>  (45) 
-8.56

>  <cluster_rmsd>  (45) 
0.0

>  <cluster>  (45) 
2

$$$$

     RDKit          3D

 54 58  0  0  0  0  0  0  0  0999 V2000
  138.9790   67.3010  224.1270 O   0  0  0  0  0  0  0  0  0  0  0  0
  139.1600   68.5380  224.0860 C   0  0  0  0  0  0  0  0  0  0  0  0
  138.6910   69.2690  222.8730 C   0  0  0  0  0  0  0  0  0  0  0  0
  138.9760   70.7200  222.9690 C   0  0  0  0  0  0  0  0  0  0  0  0
  138.5730   71.5590  221.8470 C   0  0  0  0  0  0  0  0  0  0  0  0
  138.5550   70.9910  220.5750 C   0  0  0  0  0  0  0  0  0  0  0  0
  138.1760   71.7540  219.4800 C   0  0  0  0  0  0  0  0  0  0  0  0
  137.8110   73.0820  219.6300 C   0  0  0  0  0  0  0  0  0  0  0  0
  137.8310   73.6460  220.9070 C   0  0  0  0  0  0  0  0  0  0  0  0
  137.4630   75.0250  221.1520 C   0  0  0  0  0  0  0  0  0  0  0  0
  136.3360   75.4470  220.7440 O   0  0  0  0  0  0  0  0  0  0  0  0
  138.2820   75.9650  221.8300 N   0  0  0  0  0  0  0  0  0  0  0  0
  137.7620   77.3100  221.9910 C   0  0  0  0  0  0  0  0  0  0  0  0
  138.7630   78.2770  221.3630 C   0  0  0  0  0  0  0  0  0  0  0  0
  140.0140   78.1200  222.0720 N   0  0  0  0  0  0  0  0  0  0  0  0
  140.7800   79.2420  222.5430 C   0  0  0  0  0  0  0  0  0  0  0  0
  141.8580   79.1030  223.3910 C   0  0  0  0  0  0  0  0  0  0  0  0
  142.5730   80.1960  223.8410 C   0  0  0  0  0  0  0  0  0  0  0  0
  142.2500   81.4800  223.4700 C   0  0  0  0  0  0  0  0  0  0  0  0
  141.1760   81.6390  222.6240 C   0  0  0  0  0  0  0  0  0  0  0  0
  140.4560   80.5360  222.1710 C   0  0  0  0  0  0  0  0  0  0  0  0
  140.5540   76.8130  222.3480 C   0  0  0  0  0  0  0  0  0  0  0  0
  139.5800   75.6900  222.3660 C   0  0  0  0  0  0  0  0  0  0  0  0
  138.2090   72.8710  221.9760 C   0  0  0  0  0  0  0  0  0  0  0  0
  139.5550   71.2750  223.9780 N   0  0  0  0  0  0  0  0  0  0  0  0
  140.0060   70.6070  225.1380 C   0  0  0  0  0  0  0  0  0  0  0  0
  140.6170   71.2980  226.1660 C   0  0  0  0  0  0  0  0  0  0  0  0
  141.0350   70.5930  227.2690 C   0  0  0  0  0  0  0  0  0  0  0  0
  140.8650   69.2110  227.3850 C   0  0  0  0  0  0  0  0  0  0  0  0
  141.4060   68.3320  228.8000 Cl  0  0  0  0  0  0  0  0  0  0  0  0
  140.2440   68.5570  226.3220 C   0  0  0  0  0  0  0  0  0  0  0  0
  139.8090   69.2230  225.1980 C   0  0  0  0  0  0  0  0  0  0  0  0
  139.2043   68.8616  221.9895 H   0  0  0  0  0  0  0  0  0  0  0  0
  137.6023   69.1360  222.7895 H   0  0  0  0  0  0  0  0  0  0  0  0
  138.8412   69.9377  220.4389 H   0  0  0  0  0  0  0  0  0  0  0  0
  138.1652   71.2982  218.4789 H   0  0  0  0  0  0  0  0  0  0  0  0
  137.5107   73.6817  218.7581 H   0  0  0  0  0  0  0  0  0  0  0  0
  136.7892   77.3979  221.4851 H   0  0  0  0  0  0  0  0  0  0  0  0
  137.6213   77.5420  223.0570 H   0  0  0  0  0  0  0  0  0  0  0  0
  138.9009   78.0375  220.2983 H   0  0  0  0  0  0  0  0  0  0  0  0
  138.4016   79.3134  221.4348 H   0  0  0  0  0  0  0  0  0  0  0  0
  142.1565   78.0959  223.7177 H   0  0  0  0  0  0  0  0  0  0  0  0
  143.4262   80.0343  224.5163 H   0  0  0  0  0  0  0  0  0  0  0  0
  142.8257   82.3438  223.8340 H   0  0  0  0  0  0  0  0  0  0  0  0
  140.8828   82.6491  222.3018 H   0  0  0  0  0  0  0  0  0  0  0  0
  139.6026   80.6980  221.4961 H   0  0  0  0  0  0  0  0  0  0  0  0
  141.3071   76.5916  221.5774 H   0  0  0  0  0  0  0  0  0  0  0  0
  140.9553   76.8706  223.3706 H   0  0  0  0  0  0  0  0  0  0  0  0
  140.0132   74.8620  221.7857 H   0  0  0  0  0  0  0  0  0  0  0  0
  139.4149   75.4634  223.4297 H   0  0  0  0  0  0  0  0  0  0  0  0
  138.2194   73.3246  222.9781 H   0  0  0  0  0  0  0  0  0  0  0  0
  140.7654   72.3861  226.1033 H   0  0  0  0  0  0  0  0  0  0  0  0
  141.5218   71.1372  228.0917 H   0  0  0  0  0  0  0  0  0  0  0  0
  140.0960   67.4687  226.3834 H   0  0  0  0  0  0  0  0  0  0  0  0
  1  2  2  0
  2  3  1  0
  3  4  1  0
  4  5  1  0
  5  6  2  0
  6  7  1  0
  7  8  2  0
  8  9  1  0
  9 10  1  0
 10 11  2  0
 10 12  1  0
 12 13  1  0
 13 14  1  0
 14 15  1  0
 15 16  1  0
 16 17  2  0
 17 18  1  0
 18 19  2  0
 19 20  1  0
 20 21  2  0
 15 22  1  0
 22 23  1  0
  9 24  2  0
  4 25  2  0
 25 26  1  0
 26 27  2  0
 27 28  1  0
 28 29  2  0
 29 30  1  0
 29 31  1  0
 31 32  2  0
 32  2  1  0
 24  5  1  0
 32 26  1  0
 23 12  1  0
 21 16  1  0
  3 33  1  0
  3 34  1  0
  6 35  1  0
  7 36  1  0
  8 37  1  0
 13 38  1  0
 13 39  1  0
 14 40  1  0
 14 41  1  0
 17 42  1  0
 18 43  1  0
 19 44  1  0
 20 45  1  0
 21 46  1  0
 22 47  1  0
 22 48  1  0
 23 49  1  0
 23 50  1  0
 24 51  1  0
 27 52  1  0
 28 53  1  0
 31 54  1  0
M  END
>  <smiles>  (46) 
O=C1CC(c2cccc(C(=O)N3CCN(c4ccccc4)CC3)c2)=Nc2ccc(Cl)cc21

>  <score_type>  (46) 
oracle

>  <origin>  (46) 
autodockgpu

>  <m_score__min__energy>  (46) 
-9.1099999999999994

>  <m_primary>  (46) 
energy

>  <rmsd>  (46) 
4.744984408094998

>  <m_score__min__rmsd>  (46) 
4.744984408094998

>  <meeko>  (46) 
{"free_energy": -8.89, "intermolecular_energy": -9.78, "internal_energy": -0.93, "cluster_size": 44, "cluster_id": 1, "rank_in_cluster": 39}

>  <energy>  (46) 
-8.54

>  <cluster_rmsd>  (46) 
0.15

>  <cluster>  (46) 
2

$$$$

     RDKit          3D

 54 58  0  0  0  0  0  0  0  0999 V2000
  138.8510   67.3580  223.9600 O   0  0  0  0  0  0  0  0  0  0  0  0
  138.9970   68.6000  223.9470 C   0  0  0  0  0  0  0  0  0  0  0  0
  138.5460   69.3410  222.7330 C   0  0  0  0  0  0  0  0  0  0  0  0
  138.7850   70.7970  222.8640 C   0  0  0  0  0  0  0  0  0  0  0  0
  138.3930   71.6450  221.7450 C   0  0  0  0  0  0  0  0  0  0  0  0
  138.3030   71.0660  220.4810 C   0  0  0  0  0  0  0  0  0  0  0  0
  137.9330   71.8370  219.3900 C   0  0  0  0  0  0  0  0  0  0  0  0
  137.6470   73.1850  219.5340 C   0  0  0  0  0  0  0  0  0  0  0  0
  137.7390   73.7600  220.8030 C   0  0  0  0  0  0  0  0  0  0  0  0
  137.4560   75.1600  221.0430 C   0  0  0  0  0  0  0  0  0  0  0  0
  136.3820   75.6620  220.5850 O   0  0  0  0  0  0  0  0  0  0  0  0
  138.3050   76.0370  221.7660 N   0  0  0  0  0  0  0  0  0  0  0  0
  137.8720   77.4150  221.9140 C   0  0  0  0  0  0  0  0  0  0  0  0
  138.9670   78.3130  221.3430 C   0  0  0  0  0  0  0  0  0  0  0  0
  140.1690   78.0650  222.1090 N   0  0  0  0  0  0  0  0  0  0  0  0
  140.9870   79.1280  222.6250 C   0  0  0  0  0  0  0  0  0  0  0  0
  142.3600   79.1380  222.4990 C   0  0  0  0  0  0  0  0  0  0  0  0
  143.1290   80.1650  223.0130 C   0  0  0  0  0  0  0  0  0  0  0  0
  142.5690   81.2300  223.6780 C   0  0  0  0  0  0  0  0  0  0  0  0
  141.1990   81.2370  223.8140 C   0  0  0  0  0  0  0  0  0  0  0  0
  140.4260   80.2020  223.2950 C   0  0  0  0  0  0  0  0  0  0  0  0
  140.6030   76.7220  222.3990 C   0  0  0  0  0  0  0  0  0  0  0  0
  139.5540   75.6700  222.3610 C   0  0  0  0  0  0  0  0  0  0  0  0
  138.1070   72.9770  221.8690 C   0  0  0  0  0  0  0  0  0  0  0  0
  139.3140   71.3490  223.9010 N   0  0  0  0  0  0  0  0  0  0  0  0
  139.7470   70.6720  225.0630 C   0  0  0  0  0  0  0  0  0  0  0  0
  140.3040   71.3610  226.1240 C   0  0  0  0  0  0  0  0  0  0  0  0
  140.7070   70.6480  227.2260 C   0  0  0  0  0  0  0  0  0  0  0  0
  140.5750   69.2590  227.3120 C   0  0  0  0  0  0  0  0  0  0  0  0
  141.0960   68.3690  228.7270 Cl  0  0  0  0  0  0  0  0  0  0  0  0
  140.0080   68.6070  226.2170 C   0  0  0  0  0  0  0  0  0  0  0  0
  139.5890   69.2820  225.0910 C   0  0  0  0  0  0  0  0  0  0  0  0
  139.0990   68.9655  221.8594 H   0  0  0  0  0  0  0  0  0  0  0  0
  137.4647   69.1789  222.6123 H   0  0  0  0  0  0  0  0  0  0  0  0
  138.5256   69.9969  220.3487 H   0  0  0  0  0  0  0  0  0  0  0  0
  137.8655   71.3718  218.3955 H   0  0  0  0  0  0  0  0  0  0  0  0
  137.3528   73.7911  218.6645 H   0  0  0  0  0  0  0  0  0  0  0  0
  136.9332   77.5733  221.3630 H   0  0  0  0  0  0  0  0  0  0  0  0
  137.6963   77.6505  222.9740 H   0  0  0  0  0  0  0  0  0  0  0  0
  139.1387   78.0704  220.2839 H   0  0  0  0  0  0  0  0  0  0  0  0
  138.6755   79.3717  221.4072 H   0  0  0  0  0  0  0  0  0  0  0  0
  142.8561   78.3072  221.9759 H   0  0  0  0  0  0  0  0  0  0  0  0
  144.2211   80.1292  222.8863 H   0  0  0  0  0  0  0  0  0  0  0  0
  143.1894   82.0424  224.0843 H   0  0  0  0  0  0  0  0  0  0  0  0
  140.7093   82.0704  224.3390 H   0  0  0  0  0  0  0  0  0  0  0  0
  139.3339   80.2387  223.4213 H   0  0  0  0  0  0  0  0  0  0  0  0
  141.3750   76.4527  221.6631 H   0  0  0  0  0  0  0  0  0  0  0  0
  140.9577   76.7460  223.4400 H   0  0  0  0  0  0  0  0  0  0  0  0
  139.9562   74.8168  221.7951 H   0  0  0  0  0  0  0  0  0  0  0  0
  139.3225   75.4505  223.4137 H   0  0  0  0  0  0  0  0  0  0  0  0
  138.1747   73.4401  222.8645 H   0  0  0  0  0  0  0  0  0  0  0  0
  140.4216   72.4541  226.0864 H   0  0  0  0  0  0  0  0  0  0  0  0
  141.1508   71.1906  228.0737 H   0  0  0  0  0  0  0  0  0  0  0  0
  139.8910   67.5139  226.2536 H   0  0  0  0  0  0  0  0  0  0  0  0
  1  2  2  0
  2  3  1  0
  3  4  1  0
  4  5  1  0
  5  6  2  0
  6  7  1  0
  7  8  2  0
  8  9  1  0
  9 10  1  0
 10 11  2  0
 10 12  1  0
 12 13  1  0
 13 14  1  0
 14 15  1  0
 15 16  1  0
 16 17  2  0
 17 18  1  0
 18 19  2  0
 19 20  1  0
 20 21  2  0
 15 22  1  0
 22 23  1  0
  9 24  2  0
  4 25  2  0
 25 26  1  0
 26 27  2  0
 27 28  1  0
 28 29  2  0
 29 30  1  0
 29 31  1  0
 31 32  2  0
 32  2  1  0
 24  5  1  0
 32 26  1  0
 23 12  1  0
 21 16  1  0
  3 33  1  0
  3 34  1  0
  6 35  1  0
  7 36  1  0
  8 37  1  0
 13 38  1  0
 13 39  1  0
 14 40  1  0
 14 41  1  0
 17 42  1  0
 18 43  1  0
 19 44  1  0
 20 45  1  0
 21 46  1  0
 22 47  1  0
 22 48  1  0
 23 49  1  0
 23 50  1  0
 24 51  1  0
 27 52  1  0
 28 53  1  0
 31 54  1  0
M  END
>  <smiles>  (47) 
O=C1CC(c2cccc(C(=O)N3CCN(c4ccccc4)CC3)c2)=Nc2ccc(Cl)cc21

>  <score_type>  (47) 
oracle

>  <origin>  (47) 
autodockgpu

>  <m_score__min__energy>  (47) 
-9.1099999999999994

>  <m_primary>  (47) 
energy

>  <rmsd>  (47) 
4.972238025240265

>  <m_score__min__rmsd>  (47) 
4.972238025240265

>  <meeko>  (47) 
{"free_energy": -8.92, "intermolecular_energy": -9.82, "internal_energy": -0.92, "cluster_size": 44, "cluster_id": 1, "rank_in_cluster": 33}

>  <energy>  (47) 
-8.53

>  <cluster_rmsd>  (47) 
0.27

>  <cluster>  (47) 
2

$$$$

     RDKit          3D

 54 58  0  0  0  0  0  0  0  0999 V2000
  139.0240   67.2020  224.0900 O   0  0  0  0  0  0  0  0  0  0  0  0
  139.1930   68.4420  224.0740 C   0  0  0  0  0  0  0  0  0  0  0  0
  138.7560   69.1880  222.8590 C   0  0  0  0  0  0  0  0  0  0  0  0
  139.0220   70.6400  222.9870 C   0  0  0  0  0  0  0  0  0  0  0  0
  138.6460   71.4930  221.8670 C   0  0  0  0  0  0  0  0  0  0  0  0
  138.6790   70.9480  220.5850 C   0  0  0  0  0  0  0  0  0  0  0  0
  138.3270   71.7250  219.4920 C   0  0  0  0  0  0  0  0  0  0  0  0
  137.9390   73.0460  219.6520 C   0  0  0  0  0  0  0  0  0  0  0  0
  137.9080   73.5870  220.9380 C   0  0  0  0  0  0  0  0  0  0  0  0
  137.5140   74.9560  221.1950 C   0  0  0  0  0  0  0  0  0  0  0  0
  136.3680   75.3520  220.8130 O   0  0  0  0  0  0  0  0  0  0  0  0
  138.3260   75.9150  221.8550 N   0  0  0  0  0  0  0  0  0  0  0  0
  137.7780   77.2470  222.0300 C   0  0  0  0  0  0  0  0  0  0  0  0
  138.7410   78.2380  221.3810 C   0  0  0  0  0  0  0  0  0  0  0  0
  140.0110   78.1090  222.0600 N   0  0  0  0  0  0  0  0  0  0  0  0
  140.7610   79.2490  222.5160 C   0  0  0  0  0  0  0  0  0  0  0  0
  141.8520   79.1350  223.3510 C   0  0  0  0  0  0  0  0  0  0  0  0
  142.5520   80.2440  223.7860 C   0  0  0  0  0  0  0  0  0  0  0  0
  142.2000   81.5190  223.4120 C   0  0  0  0  0  0  0  0  0  0  0  0
  141.1120   81.6530  222.5780 C   0  0  0  0  0  0  0  0  0  0  0  0
  140.4080   80.5340  222.1400 C   0  0  0  0  0  0  0  0  0  0  0  0
  140.5880   76.8150  222.3220 C   0  0  0  0  0  0  0  0  0  0  0  0
  139.6420   75.6700  222.3600 C   0  0  0  0  0  0  0  0  0  0  0  0
  138.2600   72.7980  222.0060 C   0  0  0  0  0  0  0  0  0  0  0  0
  139.5630   71.1840  224.0230 N   0  0  0  0  0  0  0  0  0  0  0  0
  139.9840   70.5010  225.1860 C   0  0  0  0  0  0  0  0  0  0  0  0
  140.5540   71.1810  226.2440 C   0  0  0  0  0  0  0  0  0  0  0  0
  140.9450   70.4620  227.3480 C   0  0  0  0  0  0  0  0  0  0  0  0
  140.7870   69.0770  227.4370 C   0  0  0  0  0  0  0  0  0  0  0  0
  141.2920   68.1800  228.8530 Cl  0  0  0  0  0  0  0  0  0  0  0  0
  140.2060   68.4340  226.3440 C   0  0  0  0  0  0  0  0  0  0  0  0
  139.8000   69.1140  225.2170 C   0  0  0  0  0  0  0  0  0  0  0  0
  139.3019   68.8004  221.9862 H   0  0  0  0  0  0  0  0  0  0  0  0
  137.6719   69.0455  222.7384 H   0  0  0  0  0  0  0  0  0  0  0  0
  138.9844   69.9012  220.4401 H   0  0  0  0  0  0  0  0  0  0  0  0
  138.3561   71.2868  218.4835 H   0  0  0  0  0  0  0  0  0  0  0  0
  137.6605   73.6571  218.7808 H   0  0  0  0  0  0  0  0  0  0  0  0
  136.7921   77.3123  221.5465 H   0  0  0  0  0  0  0  0  0  0  0  0
  137.6562   77.4744  223.0993 H   0  0  0  0  0  0  0  0  0  0  0  0
  138.8595   78.0036  220.3128 H   0  0  0  0  0  0  0  0  0  0  0  0
  138.3573   79.2656  221.4635 H   0  0  0  0  0  0  0  0  0  0  0  0
  142.1735   78.1356  223.6793 H   0  0  0  0  0  0  0  0  0  0  0  0
  143.4165   80.1024  224.4512 H   0  0  0  0  0  0  0  0  0  0  0  0
  142.7636   82.3956  223.7640 H   0  0  0  0  0  0  0  0  0  0  0  0
  140.7955   82.6555  222.2542 H   0  0  0  0  0  0  0  0  0  0  0  0
  139.5440   80.6755  221.4741 H   0  0  0  0  0  0  0  0  0  0  0  0
  141.3287   76.6122  221.5345 H   0  0  0  0  0  0  0  0  0  0  0  0
  141.0107   76.8811  223.3354 H   0  0  0  0  0  0  0  0  0  0  0  0
  140.0810   74.8534  221.7680 H   0  0  0  0  0  0  0  0  0  0  0  0
  139.5071   75.4378  223.4267 H   0  0  0  0  0  0  0  0  0  0  0  0
  138.2302   73.2339  223.0155 H   0  0  0  0  0  0  0  0  0  0  0  0
  140.6918   72.2716  226.2041 H   0  0  0  0  0  0  0  0  0  0  0  0
  141.3999   70.9978  228.1942 H   0  0  0  0  0  0  0  0  0  0  0  0
  140.0669   67.3435  226.3835 H   0  0  0  0  0  0  0  0  0  0  0  0
  1  2  2  0
  2  3  1  0
  3  4  1  0
  4  5  1  0
  5  6  2  0
  6  7  1  0
  7  8  2  0
  8  9  1  0
  9 10  1  0
 10 11  2  0
 10 12  1  0
 12 13  1  0
 13 14  1  0
 14 15  1  0
 15 16  1  0
 16 17  2  0
 17 18  1  0
 18 19  2  0
 19 20  1  0
 20 21  2  0
 15 22  1  0
 22 23  1  0
  9 24  2  0
  4 25  2  0
 25 26  1  0
 26 27  2  0
 27 28  1  0
 28 29  2  0
 29 30  1  0
 29 31  1  0
 31 32  2  0
 32  2  1  0
 24  5  1  0
 32 26  1  0
 23 12  1  0
 21 16  1  0
  3 33  1  0
  3 34  1  0
  6 35  1  0
  7 36  1  0
  8 37  1  0
 13 38  1  0
 13 39  1  0
 14 40  1  0
 14 41  1  0
 17 42  1  0
 18 43  1  0
 19 44  1  0
 20 45  1  0
 21 46  1  0
 22 47  1  0
 22 48  1  0
 23 49  1  0
 23 50  1  0
 24 51  1  0
 27 52  1  0
 28 53  1  0
 31 54  1  0
M  END
>  <smiles>  (48) 
O=C1CC(c2cccc(C(=O)N3CCN(c4ccccc4)CC3)c2)=Nc2ccc(Cl)cc21

>  <score_type>  (48) 
oracle

>  <origin>  (48) 
autodockgpu

>  <m_score__min__energy>  (48) 
-9.1099999999999994

>  <m_primary>  (48) 
energy

>  <rmsd>  (48) 
4.715758256166586

>  <m_score__min__rmsd>  (48) 
4.715758256166586

>  <meeko>  (48) 
{"free_energy": -8.89, "intermolecular_energy": -9.79, "internal_energy": -0.94, "cluster_size": 44, "cluster_id": 1, "rank_in_cluster": 38}

>  <energy>  (48) 
-8.53

>  <cluster_rmsd>  (48) 
0.29

>  <cluster>  (48) 
2

$$$$

     RDKit          3D

 54 58  0  0  0  0  0  0  0  0999 V2000
  138.8200   67.7270  224.0910 O   0  0  0  0  0  0  0  0  0  0  0  0
  139.2400   68.9040  224.1310 C   0  0  0  0  0  0  0  0  0  0  0  0
  139.0730   69.7440  222.9100 C   0  0  0  0  0  0  0  0  0  0  0  0
  139.6180   71.1070  223.1080 C   0  0  0  0  0  0  0  0  0  0  0  0
  139.5250   72.0370  221.9900 C   0  0  0  0  0  0  0  0  0  0  0  0
  138.9800   71.5760  220.7940 C   0  0  0  0  0  0  0  0  0  0  0  0
  138.8710   72.4280  219.7060 C   0  0  0  0  0  0  0  0  0  0  0  0
  139.2980   73.7440  219.7870 C   0  0  0  0  0  0  0  0  0  0  0  0
  139.8440   74.2020  220.9880 C   0  0  0  0  0  0  0  0  0  0  0  0
  140.3130   75.5610  221.1590 C   0  0  0  0  0  0  0  0  0  0  0  0
  141.5490   75.8130  221.0050 O   0  0  0  0  0  0  0  0  0  0  0  0
  139.4810   76.6610  221.4930 N   0  0  0  0  0  0  0  0  0  0  0  0
  140.1140   77.9600  221.6270 C   0  0  0  0  0  0  0  0  0  0  0  0
  139.8060   78.4880  223.0270 C   0  0  0  0  0  0  0  0  0  0  0  0
  138.3680   78.6010  223.1360 N   0  0  0  0  0  0  0  0  0  0  0  0
  137.7240   79.7730  223.6640 C   0  0  0  0  0  0  0  0  0  0  0  0
  138.2810   80.5390  224.6650 C   0  0  0  0  0  0  0  0  0  0  0  0
  137.6400   81.6560  225.1680 C   0  0  0  0  0  0  0  0  0  0  0  0
  136.4140   82.0630  224.6970 C   0  0  0  0  0  0  0  0  0  0  0  0
  135.8410   81.3100  223.6970 C   0  0  0  0  0  0  0  0  0  0  0  0
  136.4890   80.1850  223.1920 C   0  0  0  0  0  0  0  0  0  0  0  0
  137.5020   77.5310  222.7080 C   0  0  0  0  0  0  0  0  0  0  0  0
  138.0680   76.5890  221.7070 C   0  0  0  0  0  0  0  0  0  0  0  0
  139.9410   73.3390  222.0520 C   0  0  0  0  0  0  0  0  0  0  0  0
  140.1650   71.5120  224.2030 N   0  0  0  0  0  0  0  0  0  0  0  0
  140.3340   70.7390  225.3730 C   0  0  0  0  0  0  0  0  0  0  0  0
  140.9360   71.2690  226.4970 C   0  0  0  0  0  0  0  0  0  0  0  0
  141.0730   70.4680  227.6050 C   0  0  0  0  0  0  0  0  0  0  0  0
  140.6270   69.1440  227.6330 C   0  0  0  0  0  0  0  0  0  0  0  0
  140.8110   68.1390  229.0560 Cl  0  0  0  0  0  0  0  0  0  0  0  0
  140.0260   68.6520  226.4750 C   0  0  0  0  0  0  0  0  0  0  0  0
  139.8680   69.4190  225.3420 C   0  0  0  0  0  0  0  0  0  0  0  0
  139.6023   69.2660  222.0725 H   0  0  0  0  0  0  0  0  0  0  0  0
  137.9975   69.8309  222.6962 H   0  0  0  0  0  0  0  0  0  0  0  0
  138.6356   70.5345  220.7127 H   0  0  0  0  0  0  0  0  0  0  0  0
  138.4397   72.0545  218.7655 H   0  0  0  0  0  0  0  0  0  0  0  0
  139.2084   74.4159  218.9206 H   0  0  0  0  0  0  0  0  0  0  0  0
  141.2016   77.8615  221.4952 H   0  0  0  0  0  0  0  0  0  0  0  0
  139.7332   78.6534  220.8627 H   0  0  0  0  0  0  0  0  0  0  0  0
  140.1875   77.7888  223.7856 H   0  0  0  0  0  0  0  0  0  0  0  0
  140.2874   79.4635  223.1905 H   0  0  0  0  0  0  0  0  0  0  0  0
  139.2614   80.2543  225.0746 H   0  0  0  0  0  0  0  0  0  0  0  0
  138.1245   82.2355  225.9676 H   0  0  0  0  0  0  0  0  0  0  0  0
  135.9117   82.9536  225.1025 H   0  0  0  0  0  0  0  0  0  0  0  0
  134.8602   81.6000  223.2921 H   0  0  0  0  0  0  0  0  0  0  0  0
  136.0042   79.6053  222.3927 H   0  0  0  0  0  0  0  0  0  0  0  0
  137.2242   76.9476  223.5982 H   0  0  0  0  0  0  0  0  0  0  0  0
  136.6552   78.0210  222.2052 H   0  0  0  0  0  0  0  0  0  0  0  0
  137.8314   75.5670  222.0380 H   0  0  0  0  0  0  0  0  0  0  0  0
  137.6123   76.8741  220.7473 H   0  0  0  0  0  0  0  0  0  0  0  0
  140.3713   73.7102  222.9938 H   0  0  0  0  0  0  0  0  0  0  0  0
  141.2974   72.3079  226.5052 H   0  0  0  0  0  0  0  0  0  0  0  0
  141.5516   70.8846  228.5035 H   0  0  0  0  0  0  0  0  0  0  0  0
  139.6648   67.6130  226.4660 H   0  0  0  0  0  0  0  0  0  0  0  0
  1  2  2  0
  2  3  1  0
  3  4  1  0
  4  5  1  0
  5  6  2  0
  6  7  1  0
  7  8  2  0
  8  9  1  0
  9 10  1  0
 10 11  2  0
 10 12  1  0
 12 13  1  0
 13 14  1  0
 14 15  1  0
 15 16  1  0
 16 17  2  0
 17 18  1  0
 18 19  2  0
 19 20  1  0
 20 21  2  0
 15 22  1  0
 22 23  1  0
  9 24  2  0
  4 25  2  0
 25 26  1  0
 26 27  2  0
 27 28  1  0
 28 29  2  0
 29 30  1  0
 29 31  1  0
 31 32  2  0
 32  2  1  0
 24  5  1  0
 32 26  1  0
 23 12  1  0
 21 16  1  0
  3 33  1  0
  3 34  1  0
  6 35  1  0
  7 36  1  0
  8 37  1  0
 13 38  1  0
 13 39  1  0
 14 40  1  0
 14 41  1  0
 17 42  1  0
 18 43  1  0
 19 44  1  0
 20 45  1  0
 21 46  1  0
 22 47  1  0
 22 48  1  0
 23 49  1  0
 23 50  1  0
 24 51  1  0
 27 52  1  0
 28 53  1  0
 31 54  1  0
M  END
>  <smiles>  (49) 
O=C1CC(c2cccc(C(=O)N3CCN(c4ccccc4)CC3)c2)=Nc2ccc(Cl)cc21

>  <score_type>  (49) 
oracle

>  <origin>  (49) 
autodockgpu

>  <m_score__min__energy>  (49) 
-9.1099999999999994

>  <m_primary>  (49) 
energy

>  <rmsd>  (49) 
5.631296712856731

>  <m_score__min__rmsd>  (49) 
5.631296712856731

>  <meeko>  (49) 
{"free_energy": -8.22, "intermolecular_energy": -9.11, "internal_energy": -0.95, "cluster_size": 1, "cluster_id": 3, "rank_in_cluster": 1}

>  <energy>  (49) 
-8.53

>  <cluster_rmsd>  (49) 
0.32

>  <cluster>  (49) 
2

$$$$

     RDKit          3D

 54 58  0  0  0  0  0  0  0  0999 V2000
  139.0850   67.3300  224.3550 O   0  0  0  0  0  0  0  0  0  0  0  0
  139.1140   68.5770  224.4510 C   0  0  0  0  0  0  0  0  0  0  0  0
  138.5340   69.3750  223.3320 C   0  0  0  0  0  0  0  0  0  0  0  0
  138.6440   70.8290  223.5870 C   0  0  0  0  0  0  0  0  0  0  0  0
  138.1180   71.7310  222.5690 C   0  0  0  0  0  0  0  0  0  0  0  0
  136.7680   71.6360  222.2400 C   0  0  0  0  0  0  0  0  0  0  0  0
  136.2280   72.4770  221.2780 C   0  0  0  0  0  0  0  0  0  0  0  0
  137.0140   73.4190  220.6330 C   0  0  0  0  0  0  0  0  0  0  0  0
  138.3660   73.5100  220.9670 C   0  0  0  0  0  0  0  0  0  0  0  0
  139.2570   74.4650  220.3430 C   0  0  0  0  0  0  0  0  0  0  0  0
  139.9170   74.1160  219.3150 O   0  0  0  0  0  0  0  0  0  0  0  0
  139.4550   75.7940  220.8000 N   0  0  0  0  0  0  0  0  0  0  0  0
  140.3870   76.6230  220.0580 C   0  0  0  0  0  0  0  0  0  0  0  0
  141.4580   77.1090  221.0320 C   0  0  0  0  0  0  0  0  0  0  0  0
  140.7880   77.8780  222.0580 N   0  0  0  0  0  0  0  0  0  0  0  0
  141.2630   79.1640  222.4920 C   0  0  0  0  0  0  0  0  0  0  0  0
  142.2370   79.3100  223.4550 C   0  0  0  0  0  0  0  0  0  0  0  0
  142.6710   80.5570  223.8660 C   0  0  0  0  0  0  0  0  0  0  0  0
  142.1550   81.7160  223.3380 C   0  0  0  0  0  0  0  0  0  0  0  0
  141.1800   81.5900  222.3740 C   0  0  0  0  0  0  0  0  0  0  0  0
  140.7450   80.3330  221.9610 C   0  0  0  0  0  0  0  0  0  0  0  0
  139.5940   77.3850  222.6960 C   0  0  0  0  0  0  0  0  0  0  0  0
  138.8090   76.3790  221.9350 C   0  0  0  0  0  0  0  0  0  0  0  0
  138.8780   72.6670  221.9230 C   0  0  0  0  0  0  0  0  0  0  0  0
  139.1730   71.3370  224.6470 N   0  0  0  0  0  0  0  0  0  0  0  0
  139.7270   70.6060  225.7210 C   0  0  0  0  0  0  0  0  0  0  0  0
  140.2720   71.2480  226.8160 C   0  0  0  0  0  0  0  0  0  0  0  0
  140.7960   70.4830  227.8290 C   0  0  0  0  0  0  0  0  0  0  0  0
  140.7970   69.0870  227.7910 C   0  0  0  0  0  0  0  0  0  0  0  0
  141.4720   68.1290  229.0940 Cl  0  0  0  0  0  0  0  0  0  0  0  0
  140.2370   68.4820  226.6660 C   0  0  0  0  0  0  0  0  0  0  0  0
  139.7000   69.2090  225.6270 C   0  0  0  0  0  0  0  0  0  0  0  0
  139.0730   69.1333  222.4041 H   0  0  0  0  0  0  0  0  0  0  0  0
  137.4675   69.1203  223.2438 H   0  0  0  0  0  0  0  0  0  0  0  0
  136.1301   70.8942  222.7429 H   0  0  0  0  0  0  0  0  0  0  0  0
  135.1610   72.3951  221.0235 H   0  0  0  0  0  0  0  0  0  0  0  0
  136.5798   74.0832  219.8712 H   0  0  0  0  0  0  0  0  0  0  0  0
  140.8523   76.0347  219.2534 H   0  0  0  0  0  0  0  0  0  0  0  0
  139.8637   77.4779  219.6048 H   0  0  0  0  0  0  0  0  0  0  0  0
  141.9750   76.2492  221.4830 H   0  0  0  0  0  0  0  0  0  0  0  0
  142.2081   77.7229  220.5120 H   0  0  0  0  0  0  0  0  0  0  0  0
  142.6810   78.4116  223.9087 H   0  0  0  0  0  0  0  0  0  0  0  0
  143.4519   80.6231  224.6379 H   0  0  0  0  0  0  0  0  0  0  0  0
  142.5063   82.7035  223.6717 H   0  0  0  0  0  0  0  0  0  0  0  0
  140.7396   82.4924  221.9249 H   0  0  0  0  0  0  0  0  0  0  0  0
  139.9650   80.2669  221.1882 H   0  0  0  0  0  0  0  0  0  0  0  0
  139.8892   76.9269  223.6515 H   0  0  0  0  0  0  0  0  0  0  0  0
  138.9329   78.2584  222.7964 H   0  0  0  0  0  0  0  0  0  0  0  0
  138.5472   75.5653  222.6273 H   0  0  0  0  0  0  0  0  0  0  0  0
  137.9460   76.9275  221.5296 H   0  0  0  0  0  0  0  0  0  0  0  0
  139.9445   72.7481  222.1800 H   0  0  0  0  0  0  0  0  0  0  0  0
  140.2859   72.3463  226.8752 H   0  0  0  0  0  0  0  0  0  0  0  0
  141.2314   70.9889  228.7033 H   0  0  0  0  0  0  0  0  0  0  0  0
  140.2238   67.3837  226.6065 H   0  0  0  0  0  0  0  0  0  0  0  0
  1  2  2  0
  2  3  1  0
  3  4  1  0
  4  5  1  0
  5  6  2  0
  6  7  1  0
  7  8  2  0
  8  9  1  0
  9 10  1  0
 10 11  2  0
 10 12  1  0
 12 13  1  0
 13 14  1  0
 14 15  1  0
 15 16  1  0
 16 17  2  0
 17 18  1  0
 18 19  2  0
 19 20  1  0
 20 21  2  0
 15 22  1  0
 22 23  1  0
  9 24  2  0
  4 25  2  0
 25 26  1  0
 26 27  2  0
 27 28  1  0
 28 29  2  0
 29 30  1  0
 29 31  1  0
 31 32  2  0
 32  2  1  0
 24  5  1  0
 32 26  1  0
 23 12  1  0
 21 16  1  0
  3 33  1  0
  3 34  1  0
  6 35  1  0
  7 36  1  0
  8 37  1  0
 13 38  1  0
 13 39  1  0
 14 40  1  0
 14 41  1  0
 17 42  1  0
 18 43  1  0
 19 44  1  0
 20 45  1  0
 21 46  1  0
 22 47  1  0
 22 48  1  0
 23 49  1  0
 23 50  1  0
 24 51  1  0
 27 52  1  0
 28 53  1  0
 31 54  1  0
M  END
>  <smiles>  (50) 
O=C1CC(c2cccc(C(=O)N3CCN(c4ccccc4)CC3)c2)=Nc2ccc(Cl)cc21

>  <score_type>  (50) 
oracle

>  <origin>  (50) 
autodockgpu

>  <m_score__min__energy>  (50) 
-9.1099999999999994

>  <m_primary>  (50) 
energy

>  <rmsd>  (50) 
4.585280257594179

>  <m_score__min__rmsd>  (50) 
4.585280257594179

>  <meeko>  (50) 
{"free_energy": -9.05, "intermolecular_energy": -9.94, "internal_energy": -0.95, "cluster_size": 44, "cluster_id": 1, "rank_in_cluster": 12}

>  <energy>  (50) 
-8.22

>  <cluster_rmsd>  (50) 
0.0

>  <cluster>  (50) 
3

$$$$
