
     RDKit          3D

 50 53  0  0  0  0  0  0  0  0999 V2000
  140.1960   71.6700  221.0690 O   0  0  0  0  0  0  0  0  0  0  0  0
  139.9910   72.2930  222.1610 C   0  0  0  0  0  0  0  0  0  0  0  0
  139.7410   73.6790  222.2270 N   0  0  0  0  0  0  0  0  0  0  0  0
  139.7060   74.4710  221.0100 C   0  0  0  0  0  0  0  0  0  0  0  0
  140.6870   75.5830  221.1080 C   0  0  0  0  0  0  0  0  0  0  0  0
  141.0150   75.9960  222.2490 O   0  0  0  0  0  0  0  0  0  0  0  0
  141.2000   76.1210  219.8970 N   0  0  0  0  0  0  0  0  0  0  0  0
  140.3440   76.5960  218.8230 C   0  0  0  0  0  0  0  0  0  0  0  0
  140.7640   75.8970  217.5620 C   0  0  0  0  0  0  0  0  0  0  0  0
  142.2070   76.1330  217.2700 C   0  0  0  0  0  0  0  0  0  0  0  0
  142.9790   76.7270  218.4010 C   0  0  0  0  0  0  0  0  0  0  0  0
  142.6290   76.1910  219.7460 C   0  0  2  0  0  0  0  0  0  0  0  0
  143.3350   74.9330  220.0940 C   0  0  0  0  0  0  0  0  0  0  0  0
  144.6700   74.8970  220.4670 C   0  0  0  0  0  0  0  0  0  0  0  0
  145.3060   73.7110  220.7880 C   0  0  0  0  0  0  0  0  0  0  0  0
  144.6250   72.5110  220.7480 C   0  0  0  0  0  0  0  0  0  0  0  0
  143.2950   72.5690  220.3730 C   0  0  0  0  0  0  0  0  0  0  0  0
  142.6930   73.7330  220.0640 N   0  0  0  0  0  0  0  0  0  0  0  0
  140.0180   71.5160  223.4180 C   0  0  0  0  0  0  0  0  0  0  0  0
  139.5760   70.2110  223.4560 C   0  0  0  0  0  0  0  0  0  0  0  0
  139.6100   69.4970  224.6480 C   0  0  0  0  0  0  0  0  0  0  0  0
  140.0850   70.0880  225.8020 C   0  0  0  0  0  0  0  0  0  0  0  0
  140.1480   69.4430  227.0150 C   0  0  0  0  0  0  0  0  0  0  0  0
  139.5950   67.7720  227.1140 Cl  0  0  0  0  0  0  0  0  0  0  0  0
  140.6390   70.1110  228.1240 C   0  0  0  0  0  0  0  0  0  0  0  0
  141.0800   71.4210  228.0730 C   0  0  0  0  0  0  0  0  0  0  0  0
  141.0160   72.0750  226.8420 C   0  0  0  0  0  0  0  0  0  0  0  0
  140.5250   71.4100  225.7290 C   0  0  0  0  0  0  0  0  0  0  0  0
  140.4780   72.0710  224.5590 N   0  0  0  0  0  0  0  0  0  0  0  0
  139.5740   74.1690  223.1420 H   0  0  0  0  0  0  0  0  0  0  0  0
  139.9610   73.8330  220.1510 H   0  0  0  0  0  0  0  0  0  0  0  0
  138.6965   74.8865  220.8745 H   0  0  0  0  0  0  0  0  0  0  0  0
  139.2935   76.3613  219.0495 H   0  0  0  0  0  0  0  0  0  0  0  0
  140.4375   77.6861  218.7090 H   0  0  0  0  0  0  0  0  0  0  0  0
  140.5931   74.8164  217.6767 H   0  0  0  0  0  0  0  0  0  0  0  0
  140.1696   76.2971  216.7273 H   0  0  0  0  0  0  0  0  0  0  0  0
  142.6669   75.1683  217.0095 H   0  0  0  0  0  0  0  0  0  0  0  0
  142.2442   76.8635  216.4485 H   0  0  0  0  0  0  0  0  0  0  0  0
  144.0476   76.5354  218.2238 H   0  0  0  0  0  0  0  0  0  0  0  0
  142.7271   77.7976  218.4192 H   0  0  0  0  0  0  0  0  0  0  0  0
  143.0045   76.9040  220.4948 H   0  0  0  0  0  0  0  0  0  0  0  0
  145.2391   75.8374  220.5088 H   0  0  0  0  0  0  0  0  0  0  0  0
  146.3669   73.7245  221.0785 H   0  0  0  0  0  0  0  0  0  0  0  0
  145.1143   71.5589  221.0010 H   0  0  0  0  0  0  0  0  0  0  0  0
  142.7122   71.6373  220.3258 H   0  0  0  0  0  0  0  0  0  0  0  0
  139.1955   69.7336  222.5410 H   0  0  0  0  0  0  0  0  0  0  0  0
  139.2566   68.4556  224.6722 H   0  0  0  0  0  0  0  0  0  0  0  0
  140.6801   69.5779  229.0853 H   0  0  0  0  0  0  0  0  0  0  0  0
  141.4667   71.9282  228.9692 H   0  0  0  0  0  0  0  0  0  0  0  0
  141.3550   73.1178  226.7547 H   0  0  0  0  0  0  0  0  0  0  0  0
  1  2  2  0
  2  3  1  0
  3  4  1  0
  4  5  1  0
  5  6  2  0
  5  7  1  0
  7  8  1  0
  8  9  1  0
  9 10  1  0
 10 11  1  0
 11 12  1  0
 12 13  1  0
 13 14  2  0
 14 15  1  0
 15 16  2  0
 16 17  1  0
 17 18  2  0
  2 19  1  0
 19 20  2  0
 20 21  1  0
 21 22  2  0
 22 23  1  0
 23 24  1  0
 23 25  2  0
 25 26  1  0
 26 27  2  0
 27 28  1  0
 28 29  2  0
 12  7  1  0
 18 13  1  0
 29 19  1  0
 28 22  1  0
  3 30  1  0
  4 31  1  0
  4 32  1  0
  8 33  1  0
  8 34  1  0
  9 35  1  0
  9 36  1  0
 10 37  1  0
 10 38  1  0
 11 39  1  0
 11 40  1  0
 12 41  1  1
 14 42  1  0
 15 43  1  0
 16 44  1  0
 17 45  1  0
 20 46  1  0
 21 47  1  0
 25 48  1  0
 26 49  1  0
 27 50  1  0
M  END
>  <smiles>  (1) 
O=C(NCC(=O)N1CCCCC1c1ccccn1)c1ccc2c(Cl)cccc2n1

>  <score_type>  (1) 
oracle

>  <origin>  (1) 
autodockgpu

>  <m_score__min__energy>  (1) 
-9.1099999999999994

>  <m_primary>  (1) 
energy

>  <rmsd>  (1) 
3.8119527346157427

>  <m_score__min__rmsd>  (1) 
3.8119527346157427

>  <meeko>  (1) 
{"free_energy": -8.56, "intermolecular_energy": -10.06, "internal_energy": -2.15, "cluster_size": 9, "cluster_id": 2, "rank_in_cluster": 1}

>  <energy>  (1) 
-9.11

>  <cluster_rmsd>  (1) 
0.0

>  <cluster>  (1) 
1

$$$$

     RDKit          3D

 50 53  0  0  0  0  0  0  0  0999 V2000
  139.1690   75.0830  222.1640 O   0  0  0  0  0  0  0  0  0  0  0  0
  140.3050   75.6230  221.9630 C   0  0  0  0  0  0  0  0  0  0  0  0
  141.4670   74.8880  221.6500 N   0  0  0  0  0  0  0  0  0  0  0  0
  141.4070   73.4420  221.5420 C   0  0  0  0  0  0  0  0  0  0  0  0
  141.8520   73.0200  220.1880 C   0  0  0  0  0  0  0  0  0  0  0  0
  140.9780   72.7800  219.3170 O   0  0  0  0  0  0  0  0  0  0  0  0
  143.2480   72.9100  219.9550 N   0  0  0  0  0  0  0  0  0  0  0  0
  144.1320   72.1440  220.8180 C   0  0  0  0  0  0  0  0  0  0  0  0
  145.2520   73.0490  221.2440 C   0  0  0  0  0  0  0  0  0  0  0  0
  145.9720   73.6060  220.0640 C   0  0  0  0  0  0  0  0  0  0  0  0
  145.2720   73.4110  218.7610 C   0  0  0  0  0  0  0  0  0  0  0  0
  143.7940   73.5930  218.8130 C   0  0  2  0  0  0  0  0  0  0  0  0
  143.3580   75.0060  218.6890 C   0  0  0  0  0  0  0  0  0  0  0  0
  142.9690   75.5710  217.4830 C   0  0  0  0  0  0  0  0  0  0  0  0
  142.5640   76.8910  217.3930 C   0  0  0  0  0  0  0  0  0  0  0  0
  142.5350   77.6980  218.5120 C   0  0  0  0  0  0  0  0  0  0  0  0
  142.9270   77.1160  219.7040 C   0  0  0  0  0  0  0  0  0  0  0  0
  143.3170   75.8290  219.7730 N   0  0  0  0  0  0  0  0  0  0  0  0
  140.4020   77.0940  222.0650 C   0  0  0  0  0  0  0  0  0  0  0  0
  139.4910   77.9110  221.4290 C   0  0  0  0  0  0  0  0  0  0  0  0
  139.5990   79.2920  221.5370 C   0  0  0  0  0  0  0  0  0  0  0  0
  140.6160   79.8570  222.2800 C   0  0  0  0  0  0  0  0  0  0  0  0
  140.7840   81.2140  222.4310 C   0  0  0  0  0  0  0  0  0  0  0  0
  139.6440   82.3000  221.6370 Cl  0  0  0  0  0  0  0  0  0  0  0  0
  141.8330   81.6960  223.1950 C   0  0  0  0  0  0  0  0  0  0  0  0
  142.7400   80.8670  223.8280 C   0  0  0  0  0  0  0  0  0  0  0  0
  142.5700   79.4900  223.6750 C   0  0  0  0  0  0  0  0  0  0  0  0
  141.5210   79.0030  222.9110 C   0  0  0  0  0  0  0  0  0  0  0  0
  141.3870   77.6700  222.7850 N   0  0  0  0  0  0  0  0  0  0  0  0
  142.3940   75.3590  221.4890 H   0  0  0  0  0  0  0  0  0  0  0  0
  142.0650   72.9915  222.2997 H   0  0  0  0  0  0  0  0  0  0  0  0
  140.3717   73.1080  221.7049 H   0  0  0  0  0  0  0  0  0  0  0  0
  143.5795   71.7906  221.7011 H   0  0  0  0  0  0  0  0  0  0  0  0
  144.5273   71.2675  220.2836 H   0  0  0  0  0  0  0  0  0  0  0  0
  144.8379   73.8784  221.8362 H   0  0  0  0  0  0  0  0  0  0  0  0
  145.9649   72.4634  221.8431 H   0  0  0  0  0  0  0  0  0  0  0  0
  146.1070   74.6861  220.2228 H   0  0  0  0  0  0  0  0  0  0  0  0
  146.9233   73.0585  219.9920 H   0  0  0  0  0  0  0  0  0  0  0  0
  145.6809   74.1351  218.0410 H   0  0  0  0  0  0  0  0  0  0  0  0
  145.4454   72.3646  218.4696 H   0  0  0  0  0  0  0  0  0  0  0  0
  143.3704   73.1205  217.9145 H   0  0  0  0  0  0  0  0  0  0  0  0
  142.9829   74.9526  216.5734 H   0  0  0  0  0  0  0  0  0  0  0  0
  142.2617   77.3018  216.4184 H   0  0  0  0  0  0  0  0  0  0  0  0
  142.2167   78.7496  218.4588 H   0  0  0  0  0  0  0  0  0  0  0  0
  142.9199   77.7220  220.6220 H   0  0  0  0  0  0  0  0  0  0  0  0
  138.6775   77.4686  220.8352 H   0  0  0  0  0  0  0  0  0  0  0  0
  138.8698   79.9389  221.0274 H   0  0  0  0  0  0  0  0  0  0  0  0
  141.9496   82.7845  223.3029 H   0  0  0  0  0  0  0  0  0  0  0  0
  143.5646   81.2769  224.4296 H   0  0  0  0  0  0  0  0  0  0  0  0
  143.2680   78.7919  224.1603 H   0  0  0  0  0  0  0  0  0  0  0  0
  1  2  2  0
  2  3  1  0
  3  4  1  0
  4  5  1  0
  5  6  2  0
  5  7  1  0
  7  8  1  0
  8  9  1  0
  9 10  1  0
 10 11  1  0
 11 12  1  0
 12 13  1  0
 13 14  2  0
 14 15  1  0
 15 16  2  0
 16 17  1  0
 17 18  2  0
  2 19  1  0
 19 20  2  0
 20 21  1  0
 21 22  2  0
 22 23  1  0
 23 24  1  0
 23 25  2  0
 25 26  1  0
 26 27  2  0
 27 28  1  0
 28 29  2  0
 12  7  1  0
 18 13  1  0
 29 19  1  0
 28 22  1  0
  3 30  1  0
  4 31  1  0
  4 32  1  0
  8 33  1  0
  8 34  1  0
  9 35  1  0
  9 36  1  0
 10 37  1  0
 10 38  1  0
 11 39  1  0
 11 40  1  0
 12 41  1  6
 14 42  1  0
 15 43  1  0
 16 44  1  0
 17 45  1  0
 20 46  1  0
 21 47  1  0
 25 48  1  0
 26 49  1  0
 27 50  1  0
M  END
>  <smiles>  (2) 
O=C(NCC(=O)N1CCCCC1c1ccccn1)c1ccc2c(Cl)cccc2n1

>  <score_type>  (2) 
oracle

>  <origin>  (2) 
autodockgpu

>  <m_score__min__energy>  (2) 
-9.1099999999999994

>  <m_primary>  (2) 
energy

>  <rmsd>  (2) 
7.278751728961076

>  <m_score__min__rmsd>  (2) 
7.278751728961076

>  <meeko>  (2) 
{"free_energy": -7.16, "intermolecular_energy": -8.65, "internal_energy": -2.98, "cluster_size": 13, "cluster_id": 4, "rank_in_cluster": 7}

>  <energy>  (2) 
-9.09

>  <cluster_rmsd>  (2) 
0.51

>  <cluster>  (2) 
1

$$$$

     RDKit          3D

 50 53  0  0  0  0  0  0  0  0999 V2000
  140.1850   71.6800  220.9830 O   0  0  0  0  0  0  0  0  0  0  0  0
  139.9940   72.2560  222.1030 C   0  0  0  0  0  0  0  0  0  0  0  0
  139.7570   73.6400  222.2320 N   0  0  0  0  0  0  0  0  0  0  0  0
  139.7230   74.4850  221.0530 C   0  0  0  0  0  0  0  0  0  0  0  0
  140.5030   75.7260  221.3010 C   0  0  0  0  0  0  0  0  0  0  0  0
  140.7750   76.0360  222.4890 O   0  0  0  0  0  0  0  0  0  0  0  0
  140.8990   76.4960  220.1750 N   0  0  0  0  0  0  0  0  0  0  0  0
  141.6230   75.9280  219.0500 C   0  0  0  0  0  0  0  0  0  0  0  0
  142.8580   76.7550  218.8370 C   0  0  0  0  0  0  0  0  0  0  0  0
  142.5130   78.1880  218.6110 C   0  0  0  0  0  0  0  0  0  0  0  0
  141.1020   78.5450  218.9380 C   0  0  0  0  0  0  0  0  0  0  0  0
  140.5610   77.8930  220.1640 C   0  0  2  0  0  0  0  0  0  0  0  0
  140.8980   78.6050  221.4220 C   0  0  0  0  0  0  0  0  0  0  0  0
  139.9480   78.9310  222.3800 C   0  0  0  0  0  0  0  0  0  0  0  0
  140.2880   79.5950  223.5460 C   0  0  0  0  0  0  0  0  0  0  0  0
  141.5950   79.9580  223.7970 C   0  0  0  0  0  0  0  0  0  0  0  0
  142.5250   79.6240  222.8300 C   0  0  0  0  0  0  0  0  0  0  0  0
  142.1770   78.9770  221.7010 N   0  0  0  0  0  0  0  0  0  0  0  0
  140.0210   71.4230  223.3240 C   0  0  0  0  0  0  0  0  0  0  0  0
  139.5950   70.1130  223.2990 C   0  0  0  0  0  0  0  0  0  0  0  0
  139.6290   69.3460  224.4570 C   0  0  0  0  0  0  0  0  0  0  0  0
  140.0890   69.8900  225.6410 C   0  0  0  0  0  0  0  0  0  0  0  0
  140.1510   69.1910  226.8240 C   0  0  0  0  0  0  0  0  0  0  0  0
  139.6170   67.5110  226.8440 Cl  0  0  0  0  0  0  0  0  0  0  0  0
  140.6270   69.8140  227.9650 C   0  0  0  0  0  0  0  0  0  0  0  0
  141.0520   71.1300  227.9780 C   0  0  0  0  0  0  0  0  0  0  0  0
  140.9890   71.8390  226.7770 C   0  0  0  0  0  0  0  0  0  0  0  0
  140.5140   71.2190  225.6310 C   0  0  0  0  0  0  0  0  0  0  0  0
  140.4670   71.9320  224.4910 N   0  0  0  0  0  0  0  0  0  0  0  0
  139.6020   74.0900  223.1700 H   0  0  0  0  0  0  0  0  0  0  0  0
  140.1606   73.9425  220.2020 H   0  0  0  0  0  0  0  0  0  0  0  0
  138.6799   74.7505  220.8261 H   0  0  0  0  0  0  0  0  0  0  0  0
  141.9026   74.8874  219.2714 H   0  0  0  0  0  0  0  0  0  0  0  0
  140.9957   75.9328  218.1464 H   0  0  0  0  0  0  0  0  0  0  0  0
  143.5007   76.6763  219.7262 H   0  0  0  0  0  0  0  0  0  0  0  0
  143.3817   76.3774  217.9464 H   0  0  0  0  0  0  0  0  0  0  0  0
  143.1766   78.8036  219.2361 H   0  0  0  0  0  0  0  0  0  0  0  0
  142.6406   78.3738  217.5343 H   0  0  0  0  0  0  0  0  0  0  0  0
  141.0482   79.6348  219.0777 H   0  0  0  0  0  0  0  0  0  0  0  0
  140.4887   78.1845  218.0990 H   0  0  0  0  0  0  0  0  0  0  0  0
  139.4643   77.9657  220.1208 H   0  0  0  0  0  0  0  0  0  0  0  0
  138.8973   78.6544  222.2081 H   0  0  0  0  0  0  0  0  0  0  0  0
  139.5064   79.8362  224.2815 H   0  0  0  0  0  0  0  0  0  0  0  0
  141.8823   80.4857  224.7184 H   0  0  0  0  0  0  0  0  0  0  0  0
  143.5796   79.8945  222.9872 H   0  0  0  0  0  0  0  0  0  0  0  0
  139.2272   69.6734  222.3602 H   0  0  0  0  0  0  0  0  0  0  0  0
  139.2880   68.3005  224.4311 H   0  0  0  0  0  0  0  0  0  0  0  0
  140.6690   69.2378  228.9011 H   0  0  0  0  0  0  0  0  0  0  0  0
  141.4255   71.6002  228.8996 H   0  0  0  0  0  0  0  0  0  0  0  0
  141.3159   72.8886  226.7397 H   0  0  0  0  0  0  0  0  0  0  0  0
  1  2  2  0
  2  3  1  0
  3  4  1  0
  4  5  1  0
  5  6  2  0
  5  7  1  0
  7  8  1  0
  8  9  1  0
  9 10  1  0
 10 11  1  0
 11 12  1  0
 12 13  1  0
 13 14  2  0
 14 15  1  0
 15 16  2  0
 16 17  1  0
 17 18  2  0
  2 19  1  0
 19 20  2  0
 20 21  1  0
 21 22  2  0
 22 23  1  0
 23 24  1  0
 23 25  2  0
 25 26  1  0
 26 27  2  0
 27 28  1  0
 28 29  2  0
 12  7  1  0
 18 13  1  0
 29 19  1  0
 28 22  1  0
  3 30  1  0
  4 31  1  0
  4 32  1  0
  8 33  1  0
  8 34  1  0
  9 35  1  0
  9 36  1  0
 10 37  1  0
 10 38  1  0
 11 39  1  0
 11 40  1  0
 12 41  1  6
 14 42  1  0
 15 43  1  0
 16 44  1  0
 17 45  1  0
 20 46  1  0
 21 47  1  0
 25 48  1  0
 26 49  1  0
 27 50  1  0
M  END
>  <smiles>  (3) 
O=C(NCC(=O)N1CCCCC1c1ccccn1)c1ccc2c(Cl)cccc2n1

>  <score_type>  (3) 
oracle

>  <origin>  (3) 
autodockgpu

>  <m_score__min__energy>  (3) 
-9.1099999999999994

>  <m_primary>  (3) 
energy

>  <rmsd>  (3) 
2.25940980416405

>  <m_score__min__rmsd>  (3) 
2.25940980416405

>  <meeko>  (3) 
{"free_energy": -9.0, "intermolecular_energy": -10.5, "internal_energy": -1.86, "cluster_size": 14, "cluster_id": 1, "rank_in_cluster": 5}

>  <energy>  (3) 
-9.06

>  <cluster_rmsd>  (3) 
0.48

>  <cluster>  (3) 
1

$$$$

     RDKit          3D

 50 53  0  0  0  0  0  0  0  0999 V2000
  139.0810   74.9930  222.0990 O   0  0  0  0  0  0  0  0  0  0  0  0
  140.2120   75.5620  221.9650 C   0  0  0  0  0  0  0  0  0  0  0  0
  141.4030   74.8620  221.6840 N   0  0  0  0  0  0  0  0  0  0  0  0
  141.3800   73.4180  221.5320 C   0  0  0  0  0  0  0  0  0  0  0  0
  141.8400   73.0490  220.1680 C   0  0  0  0  0  0  0  0  0  0  0  0
  140.9770   72.8720  219.2710 O   0  0  0  0  0  0  0  0  0  0  0  0
  143.2380   72.9160  219.9540 N   0  0  0  0  0  0  0  0  0  0  0  0
  144.0960   72.1300  220.8260 C   0  0  0  0  0  0  0  0  0  0  0  0
  145.2250   73.0130  221.2730 C   0  0  0  0  0  0  0  0  0  0  0  0
  145.9720   73.5640  220.1060 C   0  0  0  0  0  0  0  0  0  0  0  0
  145.2870   73.3870  218.7920 C   0  0  0  0  0  0  0  0  0  0  0  0
  143.8130   73.5950  218.8240 C   0  0  2  0  0  0  0  0  0  0  0  0
  143.4030   75.0150  218.7010 C   0  0  0  0  0  0  0  0  0  0  0  0
  143.1510   75.6230  217.4790 C   0  0  0  0  0  0  0  0  0  0  0  0
  142.7680   76.9500  217.3910 C   0  0  0  0  0  0  0  0  0  0  0  0
  142.6230   77.7210  218.5260 C   0  0  0  0  0  0  0  0  0  0  0  0
  142.8790   77.0960  219.7330 C   0  0  0  0  0  0  0  0  0  0  0  0
  143.2500   75.8030  219.8000 N   0  0  0  0  0  0  0  0  0  0  0  0
  140.2710   77.0320  222.1130 C   0  0  0  0  0  0  0  0  0  0  0  0
  139.2420   77.8310  221.6640 C   0  0  0  0  0  0  0  0  0  0  0  0
  139.3150   79.2110  221.8120 C   0  0  0  0  0  0  0  0  0  0  0  0
  140.4170   79.7910  222.4080 C   0  0  0  0  0  0  0  0  0  0  0  0
  140.5580   81.1480  222.5880 C   0  0  0  0  0  0  0  0  0  0  0  0
  139.2680   82.2130  222.0320 Cl  0  0  0  0  0  0  0  0  0  0  0  0
  141.6980   81.6460  223.1960 C   0  0  0  0  0  0  0  0  0  0  0  0
  142.7240   80.8330  223.6410 C   0  0  0  0  0  0  0  0  0  0  0  0
  142.5810   79.4570  223.4590 C   0  0  0  0  0  0  0  0  0  0  0  0
  141.4410   78.9540  222.8510 C   0  0  0  0  0  0  0  0  0  0  0  0
  141.3370   77.6220  222.6910 N   0  0  0  0  0  0  0  0  0  0  0  0
  142.3250   75.3570  221.5780 H   0  0  0  0  0  0  0  0  0  0  0  0
  142.0467   72.9614  222.2784 H   0  0  0  0  0  0  0  0  0  0  0  0
  140.3530   73.0531  221.6805 H   0  0  0  0  0  0  0  0  0  0  0  0
  143.5245   71.7819  221.6991 H   0  0  0  0  0  0  0  0  0  0  0  0
  144.4837   71.2494  220.2929 H   0  0  0  0  0  0  0  0  0  0  0  0
  144.8168   73.8463  221.8638 H   0  0  0  0  0  0  0  0  0  0  0  0
  145.9189   72.4119  221.8789 H   0  0  0  0  0  0  0  0  0  0  0  0
  146.1229   74.6408  220.2723 H   0  0  0  0  0  0  0  0  0  0  0  0
  146.9152   73.0013  220.0449 H   0  0  0  0  0  0  0  0  0  0  0  0
  145.7189   74.1067  218.0811 H   0  0  0  0  0  0  0  0  0  0  0  0
  145.4458   72.3389  218.4984 H   0  0  0  0  0  0  0  0  0  0  0  0
  143.3951   73.1346  217.9166 H   0  0  0  0  0  0  0  0  0  0  0  0
  143.2586   75.0345  216.5559 H   0  0  0  0  0  0  0  0  0  0  0  0
  142.5768   77.3957  216.4037 H   0  0  0  0  0  0  0  0  0  0  0  0
  142.3198   78.7771  218.4737 H   0  0  0  0  0  0  0  0  0  0  0  0
  142.7767   77.6714  220.6649 H   0  0  0  0  0  0  0  0  0  0  0  0
  138.3612   77.3758  221.1876 H   0  0  0  0  0  0  0  0  0  0  0  0
  138.4906   79.8443  221.4524 H   0  0  0  0  0  0  0  0  0  0  0  0
  141.7913   82.7338  223.3306 H   0  0  0  0  0  0  0  0  0  0  0  0
  143.6195   81.2551  224.1206 H   0  0  0  0  0  0  0  0  0  0  0  0
  143.3721   78.7718  223.7976 H   0  0  0  0  0  0  0  0  0  0  0  0
  1  2  2  0
  2  3  1  0
  3  4  1  0
  4  5  1  0
  5  6  2  0
  5  7  1  0
  7  8  1  0
  8  9  1  0
  9 10  1  0
 10 11  1  0
 11 12  1  0
 12 13  1  0
 13 14  2  0
 14 15  1  0
 15 16  2  0
 16 17  1  0
 17 18  2  0
  2 19  1  0
 19 20  2  0
 20 21  1  0
 21 22  2  0
 22 23  1  0
 23 24  1  0
 23 25  2  0
 25 26  1  0
 26 27  2  0
 27 28  1  0
 28 29  2  0
 12  7  1  0
 18 13  1  0
 29 19  1  0
 28 22  1  0
  3 30  1  0
  4 31  1  0
  4 32  1  0
  8 33  1  0
  8 34  1  0
  9 35  1  0
  9 36  1  0
 10 37  1  0
 10 38  1  0
 11 39  1  0
 11 40  1  0
 12 41  1  6
 14 42  1  0
 15 43  1  0
 16 44  1  0
 17 45  1  0
 20 46  1  0
 21 47  1  0
 25 48  1  0
 26 49  1  0
 27 50  1  0
M  END
>  <smiles>  (4) 
O=C(NCC(=O)N1CCCCC1c1ccccn1)c1ccc2c(Cl)cccc2n1

>  <score_type>  (4) 
oracle

>  <origin>  (4) 
autodockgpu

>  <m_score__min__energy>  (4) 
-9.1099999999999994

>  <m_primary>  (4) 
energy

>  <rmsd>  (4) 
7.247305202619785

>  <m_score__min__rmsd>  (4) 
7.247305202619785

>  <meeko>  (4) 
{"free_energy": -7.2, "intermolecular_energy": -8.69, "internal_energy": -2.97, "cluster_size": 13, "cluster_id": 4, "rank_in_cluster": 2}

>  <energy>  (4) 
-9.02

>  <cluster_rmsd>  (4) 
0.56

>  <cluster>  (4) 
1

$$$$

     RDKit          3D

 50 53  0  0  0  0  0  0  0  0999 V2000
  139.1250   74.1060  222.3570 O   0  0  0  0  0  0  0  0  0  0  0  0
  140.0480   74.8660  221.9170 C   0  0  0  0  0  0  0  0  0  0  0  0
  141.1100   74.4070  221.1110 N   0  0  0  0  0  0  0  0  0  0  0  0
  141.1920   73.0050  220.7440 C   0  0  0  0  0  0  0  0  0  0  0  0
  141.9350   72.8630  219.4640 C   0  0  0  0  0  0  0  0  0  0  0  0
  141.2810   72.8310  218.3910 O   0  0  0  0  0  0  0  0  0  0  0  0
  143.3510   72.7700  219.5280 N   0  0  0  0  0  0  0  0  0  0  0  0
  144.0410   71.9220  220.4850 C   0  0  0  0  0  0  0  0  0  0  0  0
  145.0280   72.7780  221.2250 C   0  0  0  0  0  0  0  0  0  0  0  0
  145.9760   73.4410  220.2850 C   0  0  0  0  0  0  0  0  0  0  0  0
  145.5750   73.3730  218.8490 C   0  0  0  0  0  0  0  0  0  0  0  0
  144.1180   73.5550  218.5990 C   0  0  2  0  0  0  0  0  0  0  0  0
  143.6950   74.9750  218.5160 C   0  0  0  0  0  0  0  0  0  0  0  0
  143.6320   75.6740  217.3190 C   0  0  0  0  0  0  0  0  0  0  0  0
  143.2330   76.9980  217.2680 C   0  0  0  0  0  0  0  0  0  0  0  0
  142.8810   77.6750  218.4180 C   0  0  0  0  0  0  0  0  0  0  0  0
  142.9510   76.9600  219.6000 C   0  0  0  0  0  0  0  0  0  0  0  0
  143.3410   75.6720  219.6310 N   0  0  0  0  0  0  0  0  0  0  0  0
  139.9950   76.3000  222.2720 C   0  0  0  0  0  0  0  0  0  0  0  0
  138.7950   76.9160  222.5540 C   0  0  0  0  0  0  0  0  0  0  0  0
  138.7660   78.2650  222.8860 C   0  0  0  0  0  0  0  0  0  0  0  0
  139.9350   78.9980  222.9350 C   0  0  0  0  0  0  0  0  0  0  0  0
  139.9820   80.3350  223.2560 C   0  0  0  0  0  0  0  0  0  0  0  0
  138.4730   81.1690  223.6260 Cl  0  0  0  0  0  0  0  0  0  0  0  0
  141.1990   80.9930  223.2810 C   0  0  0  0  0  0  0  0  0  0  0  0
  142.3960   80.3630  222.9950 C   0  0  0  0  0  0  0  0  0  0  0  0
  142.3490   79.0070  222.6700 C   0  0  0  0  0  0  0  0  0  0  0  0
  141.1320   78.3430  222.6440 C   0  0  0  0  0  0  0  0  0  0  0  0
  141.1240   77.0360  222.3260 N   0  0  0  0  0  0  0  0  0  0  0  0
  141.8600   75.0550  220.7600 H   0  0  0  0  0  0  0  0  0  0  0  0
  141.7179   72.4504  221.5351 H   0  0  0  0  0  0  0  0  0  0  0  0
  140.1762   72.6012  220.6215 H   0  0  0  0  0  0  0  0  0  0  0  0
  143.3176   71.4885  221.1912 H   0  0  0  0  0  0  0  0  0  0  0  0
  144.5562   71.0985  219.9688 H   0  0  0  0  0  0  0  0  0  0  0  0
  144.4827   73.5494  221.7885 H   0  0  0  0  0  0  0  0  0  0  0  0
  145.6047   72.1356  221.9067 H   0  0  0  0  0  0  0  0  0  0  0  0
  146.0565   74.5006  220.5692 H   0  0  0  0  0  0  0  0  0  0  0  0
  146.9294   72.8988  220.3689 H   0  0  0  0  0  0  0  0  0  0  0  0
  146.1168   74.1605  218.3046 H   0  0  0  0  0  0  0  0  0  0  0  0
  145.8242   72.3583  218.5052 H   0  0  0  0  0  0  0  0  0  0  0  0
  143.9054   73.1708  217.5904 H   0  0  0  0  0  0  0  0  0  0  0  0
  143.9067   75.1617  216.3852 H   0  0  0  0  0  0  0  0  0  0  0  0
  143.1959   77.5173  216.2990 H   0  0  0  0  0  0  0  0  0  0  0  0
  142.5617   78.7274  218.3958 H   0  0  0  0  0  0  0  0  0  0  0  0
  142.6800   77.4586  220.5424 H   0  0  0  0  0  0  0  0  0  0  0  0
  137.8591   76.3392  222.5162 H   0  0  0  0  0  0  0  0  0  0  0  0
  137.8057   78.7519  223.1112 H   0  0  0  0  0  0  0  0  0  0  0  0
  141.2148   82.0621  223.5393 H   0  0  0  0  0  0  0  0  0  0  0  0
  143.3497   80.9104  223.0226 H   0  0  0  0  0  0  0  0  0  0  0  0
  143.2768   78.4650  222.4345 H   0  0  0  0  0  0  0  0  0  0  0  0
  1  2  2  0
  2  3  1  0
  3  4  1  0
  4  5  1  0
  5  6  2  0
  5  7  1  0
  7  8  1  0
  8  9  1  0
  9 10  1  0
 10 11  1  0
 11 12  1  0
 12 13  1  0
 13 14  2  0
 14 15  1  0
 15 16  2  0
 16 17  1  0
 17 18  2  0
  2 19  1  0
 19 20  2  0
 20 21  1  0
 21 22  2  0
 22 23  1  0
 23 24  1  0
 23 25  2  0
 25 26  1  0
 26 27  2  0
 27 28  1  0
 28 29  2  0
 12  7  1  0
 18 13  1  0
 29 19  1  0
 28 22  1  0
  3 30  1  0
  4 31  1  0
  4 32  1  0
  8 33  1  0
  8 34  1  0
  9 35  1  0
  9 36  1  0
 10 37  1  0
 10 38  1  0
 11 39  1  0
 11 40  1  0
 12 41  1  6
 14 42  1  0
 15 43  1  0
 16 44  1  0
 17 45  1  0
 20 46  1  0
 21 47  1  0
 25 48  1  0
 26 49  1  0
 27 50  1  0
M  END
>  <smiles>  (5) 
O=C(NCC(=O)N1CCCCC1c1ccccn1)c1ccc2c(Cl)cccc2n1

>  <score_type>  (5) 
oracle

>  <origin>  (5) 
autodockgpu

>  <m_score__min__energy>  (5) 
-9.1099999999999994

>  <m_primary>  (5) 
energy

>  <rmsd>  (5) 
6.993753094973446

>  <m_score__min__rmsd>  (5) 
6.993753094973446

>  <meeko>  (5) 
{"free_energy": -7.0, "intermolecular_energy": -8.49, "internal_energy": -2.93, "cluster_size": 13, "cluster_id": 4, "rank_in_cluster": 13}

>  <energy>  (5) 
-9.0

>  <cluster_rmsd>  (5) 
0.49

>  <cluster>  (5) 
1

$$$$

     RDKit          3D

 50 53  0  0  0  0  0  0  0  0999 V2000
  139.1170   74.9740  222.0960 O   0  0  0  0  0  0  0  0  0  0  0  0
  140.2490   75.5420  221.9570 C   0  0  0  0  0  0  0  0  0  0  0  0
  141.4380   74.8380  221.6810 N   0  0  0  0  0  0  0  0  0  0  0  0
  141.4140   73.3930  221.5410 C   0  0  0  0  0  0  0  0  0  0  0  0
  141.8750   73.0120  220.1800 C   0  0  0  0  0  0  0  0  0  0  0  0
  141.0120   72.8020  219.2910 O   0  0  0  0  0  0  0  0  0  0  0  0
  143.2750   72.9060  219.9620 N   0  0  0  0  0  0  0  0  0  0  0  0
  144.1490   72.1290  220.8250 C   0  0  0  0  0  0  0  0  0  0  0  0
  145.2630   73.0300  221.2760 C   0  0  0  0  0  0  0  0  0  0  0  0
  145.9970   73.6020  220.1110 C   0  0  0  0  0  0  0  0  0  0  0  0
  145.3120   73.4220  218.7970 C   0  0  0  0  0  0  0  0  0  0  0  0
  143.8340   73.6030  218.8350 C   0  0  2  0  0  0  0  0  0  0  0  0
  143.3980   75.0170  218.7230 C   0  0  0  0  0  0  0  0  0  0  0  0
  143.0450   75.6030  217.5160 C   0  0  0  0  0  0  0  0  0  0  0  0
  142.6400   76.9240  217.4380 C   0  0  0  0  0  0  0  0  0  0  0  0
  142.5740   77.7110  218.5700 C   0  0  0  0  0  0  0  0  0  0  0  0
  142.9300   77.1070  219.7620 C   0  0  0  0  0  0  0  0  0  0  0  0
  143.3210   75.8190  219.8190 N   0  0  0  0  0  0  0  0  0  0  0  0
  140.3090   77.0120  222.0930 C   0  0  0  0  0  0  0  0  0  0  0  0
  139.2890   77.8110  221.6220 C   0  0  0  0  0  0  0  0  0  0  0  0
  139.3640   79.1910  221.7590 C   0  0  0  0  0  0  0  0  0  0  0  0
  140.4590   79.7740  222.3670 C   0  0  0  0  0  0  0  0  0  0  0  0
  140.6000   81.1320  222.5370 C   0  0  0  0  0  0  0  0  0  0  0  0
  139.3220   82.1950  221.9520 Cl  0  0  0  0  0  0  0  0  0  0  0  0
  141.7320   81.6320  223.1580 C   0  0  0  0  0  0  0  0  0  0  0  0
  142.7490   80.8200  223.6260 C   0  0  0  0  0  0  0  0  0  0  0  0
  142.6050   79.4430  223.4540 C   0  0  0  0  0  0  0  0  0  0  0  0
  141.4730   78.9370  222.8330 C   0  0  0  0  0  0  0  0  0  0  0  0
  141.3680   77.6040  222.6830 N   0  0  0  0  0  0  0  0  0  0  0  0
  142.3610   75.3310  221.5700 H   0  0  0  0  0  0  0  0  0  0  0  0
  142.0797   72.9421  222.2917 H   0  0  0  0  0  0  0  0  0  0  0  0
  140.3865   73.0302  221.6916 H   0  0  0  0  0  0  0  0  0  0  0  0
  143.5865   71.7634  221.6967 H   0  0  0  0  0  0  0  0  0  0  0  0
  144.5512   71.2596  220.2842 H   0  0  0  0  0  0  0  0  0  0  0  0
  144.8408   73.8518  221.8731 H   0  0  0  0  0  0  0  0  0  0  0  0
  145.9691   72.4380  221.8769 H   0  0  0  0  0  0  0  0  0  0  0  0
  146.1293   74.6802  220.2843 H   0  0  0  0  0  0  0  0  0  0  0  0
  146.9497   73.0563  220.0437 H   0  0  0  0  0  0  0  0  0  0  0  0
  145.7287   74.1547  218.0903 H   0  0  0  0  0  0  0  0  0  0  0  0
  145.4894   72.3793  218.4947 H   0  0  0  0  0  0  0  0  0  0  0  0
  143.4214   73.1412  217.9259 H   0  0  0  0  0  0  0  0  0  0  0  0
  143.0882   75.0013  216.5962 H   0  0  0  0  0  0  0  0  0  0  0  0
  142.3674   77.3520  216.4620 H   0  0  0  0  0  0  0  0  0  0  0  0
  142.2551   78.7629  218.5263 H   0  0  0  0  0  0  0  0  0  0  0  0
  142.8928   77.6953  220.6907 H   0  0  0  0  0  0  0  0  0  0  0  0
  138.4138   77.3545  221.1366 H   0  0  0  0  0  0  0  0  0  0  0  0
  138.5470   79.8233  221.3813 H   0  0  0  0  0  0  0  0  0  0  0  0
  141.8264   82.7206  223.2844 H   0  0  0  0  0  0  0  0  0  0  0  0
  143.6381   81.2440  224.1155 H   0  0  0  0  0  0  0  0  0  0  0  0
  143.3891   78.7590  223.8108 H   0  0  0  0  0  0  0  0  0  0  0  0
  1  2  2  0
  2  3  1  0
  3  4  1  0
  4  5  1  0
  5  6  2  0
  5  7  1  0
  7  8  1  0
  8  9  1  0
  9 10  1  0
 10 11  1  0
 11 12  1  0
 12 13  1  0
 13 14  2  0
 14 15  1  0
 15 16  2  0
 16 17  1  0
 17 18  2  0
  2 19  1  0
 19 20  2  0
 20 21  1  0
 21 22  2  0
 22 23  1  0
 23 24  1  0
 23 25  2  0
 25 26  1  0
 26 27  2  0
 27 28  1  0
 28 29  2  0
 12  7  1  0
 18 13  1  0
 29 19  1  0
 28 22  1  0
  3 30  1  0
  4 31  1  0
  4 32  1  0
  8 33  1  0
  8 34  1  0
  9 35  1  0
  9 36  1  0
 10 37  1  0
 10 38  1  0
 11 39  1  0
 11 40  1  0
 12 41  1  6
 14 42  1  0
 15 43  1  0
 16 44  1  0
 17 45  1  0
 20 46  1  0
 21 47  1  0
 25 48  1  0
 26 49  1  0
 27 50  1  0
M  END
>  <smiles>  (6) 
O=C(NCC(=O)N1CCCCC1c1ccccn1)c1ccc2c(Cl)cccc2n1

>  <score_type>  (6) 
oracle

>  <origin>  (6) 
autodockgpu

>  <m_score__min__energy>  (6) 
-9.1099999999999994

>  <m_primary>  (6) 
energy

>  <rmsd>  (6) 
7.247815129970245

>  <m_score__min__rmsd>  (6) 
7.247815129970245

>  <meeko>  (6) 
{"free_energy": -7.13, "intermolecular_energy": -8.62, "internal_energy": -3.02, "cluster_size": 13, "cluster_id": 4, "rank_in_cluster": 10}

>  <energy>  (6) 
-8.89

>  <cluster_rmsd>  (6) 
0.4

>  <cluster>  (6) 
1

$$$$

     RDKit          3D

 50 53  0  0  0  0  0  0  0  0999 V2000
  139.3080   75.2080  222.3080 O   0  0  0  0  0  0  0  0  0  0  0  0
  140.4280   75.7060  221.9640 C   0  0  0  0  0  0  0  0  0  0  0  0
  141.5290   74.9270  221.5550 N   0  0  0  0  0  0  0  0  0  0  0  0
  141.4200   73.4800  221.5100 C   0  0  0  0  0  0  0  0  0  0  0  0
  141.8780   72.9830  220.1860 C   0  0  0  0  0  0  0  0  0  0  0  0
  141.0120   72.6780  219.3270 O   0  0  0  0  0  0  0  0  0  0  0  0
  143.2780   72.8790  219.9660 N   0  0  0  0  0  0  0  0  0  0  0  0
  144.1580   72.1280  220.8450 C   0  0  0  0  0  0  0  0  0  0  0  0
  145.2690   73.0440  221.2710 C   0  0  0  0  0  0  0  0  0  0  0  0
  145.9960   73.5920  220.0900 C   0  0  0  0  0  0  0  0  0  0  0  0
  145.3080   73.3770  218.7830 C   0  0  0  0  0  0  0  0  0  0  0  0
  143.8290   73.5510  218.8210 C   0  0  2  0  0  0  0  0  0  0  0  0
  143.3850   74.9600  218.6760 C   0  0  0  0  0  0  0  0  0  0  0  0
  142.9590   75.4950  217.4700 C   0  0  0  0  0  0  0  0  0  0  0  0
  142.5490   76.8120  217.3610 C   0  0  0  0  0  0  0  0  0  0  0  0
  142.5500   77.6460  218.4610 C   0  0  0  0  0  0  0  0  0  0  0  0
  142.9780   77.0920  219.6530 C   0  0  0  0  0  0  0  0  0  0  0  0
  143.3740   75.8080  219.7410 N   0  0  0  0  0  0  0  0  0  0  0  0
  140.5730   77.1770  221.9980 C   0  0  0  0  0  0  0  0  0  0  0  0
  139.9620   77.9720  221.0520 C   0  0  0  0  0  0  0  0  0  0  0  0
  140.1100   79.3530  221.1010 C   0  0  0  0  0  0  0  0  0  0  0  0
  140.8690   79.9390  222.0950 C   0  0  0  0  0  0  0  0  0  0  0  0
  141.0590   81.2970  222.2060 C   0  0  0  0  0  0  0  0  0  0  0  0
  140.2970   82.3560  221.0190 Cl  0  0  0  0  0  0  0  0  0  0  0  0
  141.8350   81.8000  223.2350 C   0  0  0  0  0  0  0  0  0  0  0  0
  142.4430   80.9920  224.1780 C   0  0  0  0  0  0  0  0  0  0  0  0
  142.2510   79.6150  224.0660 C   0  0  0  0  0  0  0  0  0  0  0  0
  141.4730   79.1060  223.0370 C   0  0  0  0  0  0  0  0  0  0  0  0
  141.3090   77.7720  222.9590 N   0  0  0  0  0  0  0  0  0  0  0  0
  142.4440   75.3640  221.2750 H   0  0  0  0  0  0  0  0  0  0  0  0
  142.0457   73.0416  222.3014 H   0  0  0  0  0  0  0  0  0  0  0  0
  140.3705   73.1892  221.6646 H   0  0  0  0  0  0  0  0  0  0  0  0
  143.5995   71.7812  221.7270 H   0  0  0  0  0  0  0  0  0  0  0  0
  144.5630   71.2479  220.3240 H   0  0  0  0  0  0  0  0  0  0  0  0
  144.8451   73.8775  221.8504 H   0  0  0  0  0  0  0  0  0  0  0  0
  145.9799   72.4696  221.8831 H   0  0  0  0  0  0  0  0  0  0  0  0
  146.1228   74.6747  220.2371 H   0  0  0  0  0  0  0  0  0  0  0  0
  146.9514   73.0499  220.0326 H   0  0  0  0  0  0  0  0  0  0  0  0
  145.7187   74.0947  218.0576 H   0  0  0  0  0  0  0  0  0  0  0  0
  145.4900   72.3283  218.5054 H   0  0  0  0  0  0  0  0  0  0  0  0
  143.4158   73.0653  217.9247 H   0  0  0  0  0  0  0  0  0  0  0  0
  142.9466   74.8550  216.5754 H   0  0  0  0  0  0  0  0  0  0  0  0
  142.2182   77.1991  216.3859 H   0  0  0  0  0  0  0  0  0  0  0  0
  142.2274   78.6954  218.3927 H   0  0  0  0  0  0  0  0  0  0  0  0
  142.9956   77.7189  220.5567 H   0  0  0  0  0  0  0  0  0  0  0  0
  139.3563   77.5126  220.2570 H   0  0  0  0  0  0  0  0  0  0  0  0
  139.6199   79.9828  220.3439 H   0  0  0  0  0  0  0  0  0  0  0  0
  141.9742   82.8889  223.3059 H   0  0  0  0  0  0  0  0  0  0  0  0
  143.0550   81.4190  224.9861 H   0  0  0  0  0  0  0  0  0  0  0  0
  142.7163   78.9334  224.7932 H   0  0  0  0  0  0  0  0  0  0  0  0
  1  2  2  0
  2  3  1  0
  3  4  1  0
  4  5  1  0
  5  6  2  0
  5  7  1  0
  7  8  1  0
  8  9  1  0
  9 10  1  0
 10 11  1  0
 11 12  1  0
 12 13  1  0
 13 14  2  0
 14 15  1  0
 15 16  2  0
 16 17  1  0
 17 18  2  0
  2 19  1  0
 19 20  2  0
 20 21  1  0
 21 22  2  0
 22 23  1  0
 23 24  1  0
 23 25  2  0
 25 26  1  0
 26 27  2  0
 27 28  1  0
 28 29  2  0
 12  7  1  0
 18 13  1  0
 29 19  1  0
 28 22  1  0
  3 30  1  0
  4 31  1  0
  4 32  1  0
  8 33  1  0
  8 34  1  0
  9 35  1  0
  9 36  1  0
 10 37  1  0
 10 38  1  0
 11 39  1  0
 11 40  1  0
 12 41  1  6
 14 42  1  0
 15 43  1  0
 16 44  1  0
 17 45  1  0
 20 46  1  0
 21 47  1  0
 25 48  1  0
 26 49  1  0
 27 50  1  0
M  END
>  <smiles>  (7) 
O=C(NCC(=O)N1CCCCC1c1ccccn1)c1ccc2c(Cl)cccc2n1

>  <score_type>  (7) 
oracle

>  <origin>  (7) 
autodockgpu

>  <m_score__min__energy>  (7) 
-9.1099999999999994

>  <m_primary>  (7) 
energy

>  <rmsd>  (7) 
7.342971443195204

>  <m_score__min__rmsd>  (7) 
7.342971443195204

>  <meeko>  (7) 
{"free_energy": -7.18, "intermolecular_energy": -8.67, "internal_energy": -2.87, "cluster_size": 13, "cluster_id": 4, "rank_in_cluster": 5}

>  <energy>  (7) 
-8.83

>  <cluster_rmsd>  (7) 
0.67

>  <cluster>  (7) 
1

$$$$

     RDKit          3D

 50 53  0  0  0  0  0  0  0  0999 V2000
  139.0730   71.7800  221.2690 O   0  0  0  0  0  0  0  0  0  0  0  0
  139.8920   72.2000  222.1490 C   0  0  0  0  0  0  0  0  0  0  0  0
  140.7060   73.3370  221.9700 N   0  0  0  0  0  0  0  0  0  0  0  0
  140.6370   74.0940  220.7330 C   0  0  0  0  0  0  0  0  0  0  0  0
  139.5880   75.1420  220.8430 C   0  0  0  0  0  0  0  0  0  0  0  0
  138.5910   75.0750  220.0810 O   0  0  0  0  0  0  0  0  0  0  0  0
  139.7750   76.1660  221.8100 N   0  0  0  0  0  0  0  0  0  0  0  0
  138.7190   76.6020  222.7080 C   0  0  0  0  0  0  0  0  0  0  0  0
  138.5860   78.0910  222.5680 C   0  0  0  0  0  0  0  0  0  0  0  0
  139.8790   78.7750  222.8560 C   0  0  0  0  0  0  0  0  0  0  0  0
  141.0620   77.8670  222.9140 C   0  0  0  0  0  0  0  0  0  0  0  0
  141.0700   76.7860  221.8890 C   0  0  2  0  0  0  0  0  0  0  0  0
  141.6190   77.2070  220.5760 C   0  0  0  0  0  0  0  0  0  0  0  0
  142.6300   76.5140  219.9260 C   0  0  0  0  0  0  0  0  0  0  0  0
  143.1240   76.9260  218.7000 C   0  0  0  0  0  0  0  0  0  0  0  0
  142.6230   78.0520  218.0780 C   0  0  0  0  0  0  0  0  0  0  0  0
  141.6160   78.7270  218.7440 C   0  0  0  0  0  0  0  0  0  0  0  0
  141.1470   78.3120  219.9360 N   0  0  0  0  0  0  0  0  0  0  0  0
  139.9870   71.4530  223.4210 C   0  0  0  0  0  0  0  0  0  0  0  0
  139.5710   70.1410  223.5060 C   0  0  0  0  0  0  0  0  0  0  0  0
  139.6690   69.4550  224.7110 C   0  0  0  0  0  0  0  0  0  0  0  0
  140.1820   70.0800  225.8300 C   0  0  0  0  0  0  0  0  0  0  0  0
  140.3090   69.4640  227.0540 C   0  0  0  0  0  0  0  0  0  0  0  0
  139.7910   67.7860  227.2130 Cl  0  0  0  0  0  0  0  0  0  0  0  0
  140.8360   70.1650  228.1240 C   0  0  0  0  0  0  0  0  0  0  0  0
  141.2500   71.4810  228.0260 C   0  0  0  0  0  0  0  0  0  0  0  0
  141.1210   72.1060  226.7850 C   0  0  0  0  0  0  0  0  0  0  0  0
  140.5950   71.4070  225.7100 C   0  0  0  0  0  0  0  0  0  0  0  0
  140.4860   72.0410  224.5280 N   0  0  0  0  0  0  0  0  0  0  0  0
  141.3750   73.6630  222.7130 H   0  0  0  0  0  0  0  0  0  0  0  0
  141.6100   74.5697  220.5410 H   0  0  0  0  0  0  0  0  0  0  0  0
  140.3871   73.4149  219.9045 H   0  0  0  0  0  0  0  0  0  0  0  0
  137.7712   76.1141  222.4365 H   0  0  0  0  0  0  0  0  0  0  0  0
  138.9613   76.3330  223.7467 H   0  0  0  0  0  0  0  0  0  0  0  0
  138.2750   78.3288  221.5400 H   0  0  0  0  0  0  0  0  0  0  0  0
  137.8355   78.4441  223.2906 H   0  0  0  0  0  0  0  0  0  0  0  0
  140.0565   79.5200  222.0664 H   0  0  0  0  0  0  0  0  0  0  0  0
  139.7795   79.2221  223.8561 H   0  0  0  0  0  0  0  0  0  0  0  0
  141.9678   78.4758  222.7765 H   0  0  0  0  0  0  0  0  0  0  0  0
  141.0204   77.3660  223.8924 H   0  0  0  0  0  0  0  0  0  0  0  0
  141.7825   76.0176  222.2234 H   0  0  0  0  0  0  0  0  0  0  0  0
  143.0503   75.6133  220.3972 H   0  0  0  0  0  0  0  0  0  0  0  0
  143.9255   76.3490  218.2156 H   0  0  0  0  0  0  0  0  0  0  0  0
  143.0043   78.3942  217.1046 H   0  0  0  0  0  0  0  0  0  0  0  0
  141.1854   79.6298  218.2862 H   0  0  0  0  0  0  0  0  0  0  0  0
  139.1609   69.6364  222.6187 H   0  0  0  0  0  0  0  0  0  0  0  0
  139.3360   68.4085  224.7733 H   0  0  0  0  0  0  0  0  0  0  0  0
  140.9297   69.6541  229.0936 H   0  0  0  0  0  0  0  0  0  0  0  0
  141.6653   72.0148  228.8935 H   0  0  0  0  0  0  0  0  0  0  0  0
  141.4365   73.1524  226.6601 H   0  0  0  0  0  0  0  0  0  0  0  0
  1  2  2  0
  2  3  1  0
  3  4  1  0
  4  5  1  0
  5  6  2  0
  5  7  1  0
  7  8  1  0
  8  9  1  0
  9 10  1  0
 10 11  1  0
 11 12  1  0
 12 13  1  0
 13 14  2  0
 14 15  1  0
 15 16  2  0
 16 17  1  0
 17 18  2  0
  2 19  1  0
 19 20  2  0
 20 21  1  0
 21 22  2  0
 22 23  1  0
 23 24  1  0
 23 25  2  0
 25 26  1  0
 26 27  2  0
 27 28  1  0
 28 29  2  0
 12  7  1  0
 18 13  1  0
 29 19  1  0
 28 22  1  0
  3 30  1  0
  4 31  1  0
  4 32  1  0
  8 33  1  0
  8 34  1  0
  9 35  1  0
  9 36  1  0
 10 37  1  0
 10 38  1  0
 11 39  1  0
 11 40  1  0
 12 41  1  1
 14 42  1  0
 15 43  1  0
 16 44  1  0
 17 45  1  0
 20 46  1  0
 21 47  1  0
 25 48  1  0
 26 49  1  0
 27 50  1  0
M  END
>  <smiles>  (8) 
O=C(NCC(=O)N1CCCCC1c1ccccn1)c1ccc2c(Cl)cccc2n1

>  <score_type>  (8) 
oracle

>  <origin>  (8) 
autodockgpu

>  <m_score__min__energy>  (8) 
-9.1099999999999994

>  <m_primary>  (8) 
energy

>  <rmsd>  (8) 
3.5952418654880844

>  <m_score__min__rmsd>  (8) 
3.5952418654880844

>  <meeko>  (8) 
{"free_energy": -7.79, "intermolecular_energy": -9.28, "internal_energy": -1.76, "cluster_size": 14, "cluster_id": 1, "rank_in_cluster": 14}

>  <energy>  (8) 
-8.77

>  <cluster_rmsd>  (8) 
0.61

>  <cluster>  (8) 
1

$$$$

     RDKit          3D

 50 53  0  0  0  0  0  0  0  0999 V2000
  139.5090   74.6090  221.9050 O   0  0  0  0  0  0  0  0  0  0  0  0
  140.6970   75.0360  221.7340 C   0  0  0  0  0  0  0  0  0  0  0  0
  141.0870   76.3650  221.9960 N   0  0  0  0  0  0  0  0  0  0  0  0
  140.1150   77.3260  222.4860 C   0  0  0  0  0  0  0  0  0  0  0  0
  139.4200   77.9660  221.3390 C   0  0  0  0  0  0  0  0  0  0  0  0
  138.1750   78.1250  221.4050 O   0  0  0  0  0  0  0  0  0  0  0  0
  140.2080   78.3650  220.2270 N   0  0  0  0  0  0  0  0  0  0  0  0
  140.5090   77.4750  219.1170 C   0  0  0  0  0  0  0  0  0  0  0  0
  142.0000   77.4550  218.9390 C   0  0  0  0  0  0  0  0  0  0  0  0
  142.5320   78.8290  218.7100 C   0  0  0  0  0  0  0  0  0  0  0  0
  141.5630   79.9260  219.0040 C   0  0  0  0  0  0  0  0  0  0  0  0
  140.7210   79.7080  220.2130 C   0  0  2  0  0  0  0  0  0  0  0  0
  141.3720   80.1180  221.4820 C   0  0  0  0  0  0  0  0  0  0  0  0
  142.4710   79.4570  222.0130 C   0  0  0  0  0  0  0  0  0  0  0  0
  143.0610   79.8600  223.1970 C   0  0  0  0  0  0  0  0  0  0  0  0
  142.5730   80.9440  223.8980 C   0  0  0  0  0  0  0  0  0  0  0  0
  141.4780   81.5880  223.3510 C   0  0  0  0  0  0  0  0  0  0  0  0
  140.9160   81.1820  222.1970 N   0  0  0  0  0  0  0  0  0  0  0  0
  141.7110   74.0830  221.2360 C   0  0  0  0  0  0  0  0  0  0  0  0
  141.3750   72.7800  220.9370 C   0  0  0  0  0  0  0  0  0  0  0  0
  142.3430   71.9000  220.4700 C   0  0  0  0  0  0  0  0  0  0  0  0
  143.6470   72.3210  220.3030 C   0  0  0  0  0  0  0  0  0  0  0  0
  144.6570   71.5060  219.8450 C   0  0  0  0  0  0  0  0  0  0  0  0
  144.2760   69.8300  219.4480 Cl  0  0  0  0  0  0  0  0  0  0  0  0
  145.9380   72.0100  219.7080 C   0  0  0  0  0  0  0  0  0  0  0  0
  146.2630   73.3190  220.0120 C   0  0  0  0  0  0  0  0  0  0  0  0
  145.2390   74.1460  220.4760 C   0  0  0  0  0  0  0  0  0  0  0  0
  143.9540   73.6450  220.6150 C   0  0  0  0  0  0  0  0  0  0  0  0
  142.9920   74.4710  221.0650 N   0  0  0  0  0  0  0  0  0  0  0  0
  142.0760   76.6920  221.8470 H   0  0  0  0  0  0  0  0  0  0  0  0
  139.3776   76.8099  223.1184 H   0  0  0  0  0  0  0  0  0  0  0  0
  140.6317   78.0980  223.0751 H   0  0  0  0  0  0  0  0  0  0  0  0
  140.1447   76.4613  219.3402 H   0  0  0  0  0  0  0  0  0  0  0  0
  140.0160   77.8250  218.1980 H   0  0  0  0  0  0  0  0  0  0  0  0
  142.4642   77.0363  219.8441 H   0  0  0  0  0  0  0  0  0  0  0  0
  142.2386   76.8372  218.0607 H   0  0  0  0  0  0  0  0  0  0  0  0
  143.4133   78.9677  219.3535 H   0  0  0  0  0  0  0  0  0  0  0  0
  142.7666   78.8985  217.6376 H   0  0  0  0  0  0  0  0  0  0  0  0
  142.1323   80.8564  219.1466 H   0  0  0  0  0  0  0  0  0  0  0  0
  140.8724   79.9667  218.1488 H   0  0  0  0  0  0  0  0  0  0  0  0
  139.8597   80.3886  220.1423 H   0  0  0  0  0  0  0  0  0  0  0  0
  142.8837   78.5892  221.4776 H   0  0  0  0  0  0  0  0  0  0  0  0
  143.9306   79.3094  223.5851 H   0  0  0  0  0  0  0  0  0  0  0  0
  143.0303   81.2779  224.8411 H   0  0  0  0  0  0  0  0  0  0  0  0
  141.0538   82.4576  223.8743 H   0  0  0  0  0  0  0  0  0  0  0  0
  140.3383   72.4364  221.0685 H   0  0  0  0  0  0  0  0  0  0  0  0
  142.0689   70.8617  220.2319 H   0  0  0  0  0  0  0  0  0  0  0  0
  146.7311   71.3414  219.3419 H   0  0  0  0  0  0  0  0  0  0  0  0
  147.2900   73.6945  219.8926 H   0  0  0  0  0  0  0  0  0  0  0  0
  145.4515   75.1947  220.7312 H   0  0  0  0  0  0  0  0  0  0  0  0
  1  2  2  0
  2  3  1  0
  3  4  1  0
  4  5  1  0
  5  6  2  0
  5  7  1  0
  7  8  1  0
  8  9  1  0
  9 10  1  0
 10 11  1  0
 11 12  1  0
 12 13  1  0
 13 14  2  0
 14 15  1  0
 15 16  2  0
 16 17  1  0
 17 18  2  0
  2 19  1  0
 19 20  2  0
 20 21  1  0
 21 22  2  0
 22 23  1  0
 23 24  1  0
 23 25  2  0
 25 26  1  0
 26 27  2  0
 27 28  1  0
 28 29  2  0
 12  7  1  0
 18 13  1  0
 29 19  1  0
 28 22  1  0
  3 30  1  0
  4 31  1  0
  4 32  1  0
  8 33  1  0
  8 34  1  0
  9 35  1  0
  9 36  1  0
 10 37  1  0
 10 38  1  0
 11 39  1  0
 11 40  1  0
 12 41  1  6
 14 42  1  0
 15 43  1  0
 16 44  1  0
 17 45  1  0
 20 46  1  0
 21 47  1  0
 25 48  1  0
 26 49  1  0
 27 50  1  0
M  END
>  <smiles>  (9) 
O=C(NCC(=O)N1CCCCC1c1ccccn1)c1ccc2c(Cl)cccc2n1

>  <score_type>  (9) 
oracle

>  <origin>  (9) 
autodockgpu

>  <m_score__min__energy>  (9) 
-9.1099999999999994

>  <m_primary>  (9) 
energy

>  <rmsd>  (9) 
5.2983700616780665

>  <m_score__min__rmsd>  (9) 
5.2983700616780665

>  <meeko>  (9) 
{"free_energy": -7.23, "intermolecular_energy": -8.72, "internal_energy": -2.2, "cluster_size": 9, "cluster_id": 3, "rank_in_cluster": 1}

>  <energy>  (9) 
-8.52

>  <cluster_rmsd>  (9) 
0.58

>  <cluster>  (9) 
1

$$$$

     RDKit          3D

 50 53  0  0  0  0  0  0  0  0999 V2000
  140.8340   71.7170  221.1810 O   0  0  0  0  0  0  0  0  0  0  0  0
  140.3860   72.3040  222.2190 C   0  0  0  0  0  0  0  0  0  0  0  0
  139.9430   73.6420  222.2200 N   0  0  0  0  0  0  0  0  0  0  0  0
  139.9830   74.4240  220.9980 C   0  0  0  0  0  0  0  0  0  0  0  0
  139.4850   75.7990  221.2640 C   0  0  0  0  0  0  0  0  0  0  0  0
  138.9760   76.0460  222.3860 O   0  0  0  0  0  0  0  0  0  0  0  0
  139.6140   76.7620  220.2270 N   0  0  0  0  0  0  0  0  0  0  0  0
  139.9220   76.4010  218.8530 C   0  0  0  0  0  0  0  0  0  0  0  0
  141.1190   77.2020  218.4290 C   0  0  0  0  0  0  0  0  0  0  0  0
  140.8670   78.6650  218.5770 C   0  0  0  0  0  0  0  0  0  0  0  0
  139.6530   79.0070  219.3750 C   0  0  0  0  0  0  0  0  0  0  0  0
  139.4280   78.1460  220.5690 C   0  0  2  0  0  0  0  0  0  0  0  0
  140.1820   78.5770  221.7720 C   0  0  0  0  0  0  0  0  0  0  0  0
  141.5670   78.5610  221.8380 C   0  0  0  0  0  0  0  0  0  0  0  0
  142.2480   78.9700  222.9720 C   0  0  0  0  0  0  0  0  0  0  0  0
  141.5630   79.4110  224.0860 C   0  0  0  0  0  0  0  0  0  0  0  0
  140.1830   79.4190  223.9990 C   0  0  0  0  0  0  0  0  0  0  0  0
  139.5370   79.0180  222.8870 N   0  0  0  0  0  0  0  0  0  0  0  0
  140.3310   71.5370  223.4810 C   0  0  0  0  0  0  0  0  0  0  0  0
  139.9030   70.2270  223.4960 C   0  0  0  0  0  0  0  0  0  0  0  0
  139.8580   69.5210  224.6930 C   0  0  0  0  0  0  0  0  0  0  0  0
  140.2410   70.1260  225.8740 C   0  0  0  0  0  0  0  0  0  0  0  0
  140.2240   69.4910  227.0940 C   0  0  0  0  0  0  0  0  0  0  0  0
  139.6840   67.8130  227.1660 Cl  0  0  0  0  0  0  0  0  0  0  0  0
  140.6250   70.1720  228.2300 C   0  0  0  0  0  0  0  0  0  0  0  0
  141.0530   71.4870  228.2010 C   0  0  0  0  0  0  0  0  0  0  0  0
  141.0710   72.1320  226.9640 C   0  0  0  0  0  0  0  0  0  0  0  0
  140.6700   71.4530  225.8230 C   0  0  0  0  0  0  0  0  0  0  0  0
  140.7000   72.1050  224.6470 N   0  0  0  0  0  0  0  0  0  0  0  0
  139.5760   74.1040  223.0920 H   0  0  0  0  0  0  0  0  0  0  0  0
  141.0187   74.4753  220.6309 H   0  0  0  0  0  0  0  0  0  0  0  0
  139.3445   73.9466  220.2401 H   0  0  0  0  0  0  0  0  0  0  0  0
  140.1485   75.3264  218.7895 H   0  0  0  0  0  0  0  0  0  0  0  0
  139.0645   76.6124  218.1972 H   0  0  0  0  0  0  0  0  0  0  0  0
  141.9792   76.9207  219.0543 H   0  0  0  0  0  0  0  0  0  0  0  0
  141.3244   76.9886  217.3696 H   0  0  0  0  0  0  0  0  0  0  0  0
  141.7406   79.1158  219.0705 H   0  0  0  0  0  0  0  0  0  0  0  0
  140.6954   79.0567  217.5635 H   0  0  0  0  0  0  0  0  0  0  0  0
  139.7503   80.0479  219.7171 H   0  0  0  0  0  0  0  0  0  0  0  0
  138.7907   78.8474  218.7110 H   0  0  0  0  0  0  0  0  0  0  0  0
  138.3784   78.2711  220.8736 H   0  0  0  0  0  0  0  0  0  0  0  0
  142.1402   78.2139  220.9657 H   0  0  0  0  0  0  0  0  0  0  0  0
  143.3476   78.9431  222.9852 H   0  0  0  0  0  0  0  0  0  0  0  0
  142.0874   79.7390  224.9956 H   0  0  0  0  0  0  0  0  0  0  0  0
  139.5955   79.7629  224.8631 H   0  0  0  0  0  0  0  0  0  0  0  0
  139.5964   69.7390  222.5591 H   0  0  0  0  0  0  0  0  0  0  0  0
  139.5157   68.4756  224.6994 H   0  0  0  0  0  0  0  0  0  0  0  0
  140.6025   69.6459  229.1958 H   0  0  0  0  0  0  0  0  0  0  0  0
  141.3675   72.0049  229.1191 H   0  0  0  0  0  0  0  0  0  0  0  0
  141.4030   73.1783  226.8937 H   0  0  0  0  0  0  0  0  0  0  0  0
  1  2  2  0
  2  3  1  0
  3  4  1  0
  4  5  1  0
  5  6  2  0
  5  7  1  0
  7  8  1  0
  8  9  1  0
  9 10  1  0
 10 11  1  0
 11 12  1  0
 12 13  1  0
 13 14  2  0
 14 15  1  0
 15 16  2  0
 16 17  1  0
 17 18  2  0
  2 19  1  0
 19 20  2  0
 20 21  1  0
 21 22  2  0
 22 23  1  0
 23 24  1  0
 23 25  2  0
 25 26  1  0
 26 27  2  0
 27 28  1  0
 28 29  2  0
 12  7  1  0
 18 13  1  0
 29 19  1  0
 28 22  1  0
  3 30  1  0
  4 31  1  0
  4 32  1  0
  8 33  1  0
  8 34  1  0
  9 35  1  0
  9 36  1  0
 10 37  1  0
 10 38  1  0
 11 39  1  0
 11 40  1  0
 12 41  1  1
 14 42  1  0
 15 43  1  0
 16 44  1  0
 17 45  1  0
 20 46  1  0
 21 47  1  0
 25 48  1  0
 26 49  1  0
 27 50  1  0
M  END
>  <smiles>  (10) 
O=C(NCC(=O)N1CCCCC1c1ccccn1)c1ccc2c(Cl)cccc2n1

>  <score_type>  (10) 
oracle

>  <origin>  (10) 
autodockgpu

>  <m_score__min__energy>  (10) 
-9.1099999999999994

>  <m_primary>  (10) 
energy

>  <rmsd>  (10) 
2.327143557816238

>  <m_score__min__rmsd>  (10) 
2.327143557816238

>  <meeko>  (10) 
{"free_energy": -8.13, "intermolecular_energy": -9.62, "internal_energy": -2.03, "cluster_size": 14, "cluster_id": 1, "rank_in_cluster": 12}

>  <energy>  (10) 
-8.4

>  <cluster_rmsd>  (10) 
0.48

>  <cluster>  (10) 
1

$$$$

     RDKit          3D

 50 53  0  0  0  0  0  0  0  0999 V2000
  139.3260   74.3500  221.5350 O   0  0  0  0  0  0  0  0  0  0  0  0
  140.4900   74.8670  221.5250 C   0  0  0  0  0  0  0  0  0  0  0  0
  140.7490   76.1990  221.9070 N   0  0  0  0  0  0  0  0  0  0  0  0
  139.6600   77.0570  222.3390 C   0  0  0  0  0  0  0  0  0  0  0  0
  139.2110   77.9070  221.2050 C   0  0  0  0  0  0  0  0  0  0  0  0
  138.0560   78.4020  221.2470 O   0  0  0  0  0  0  0  0  0  0  0  0
  140.1190   78.1130  220.1320 N   0  0  0  0  0  0  0  0  0  0  0  0
  140.3340   77.1280  219.0850 C   0  0  0  0  0  0  0  0  0  0  0  0
  141.8100   76.8580  219.0090 C   0  0  0  0  0  0  0  0  0  0  0  0
  142.5740   78.1140  218.7580 C   0  0  0  0  0  0  0  0  0  0  0  0
  141.7840   79.3670  218.9380 C   0  0  0  0  0  0  0  0  0  0  0  0
  140.8460   79.3530  220.0960 C   0  0  2  0  0  0  0  0  0  0  0  0
  141.4800   79.7190  221.3870 C   0  0  0  0  0  0  0  0  0  0  0  0
  141.5790   81.0290  221.8320 C   0  0  0  0  0  0  0  0  0  0  0  0
  142.1740   81.3450  223.0410 C   0  0  0  0  0  0  0  0  0  0  0  0
  142.6930   80.3570  223.8530 C   0  0  0  0  0  0  0  0  0  0  0  0
  142.5830   79.0580  223.3900 C   0  0  0  0  0  0  0  0  0  0  0  0
  142.0010   78.7690  222.2110 N   0  0  0  0  0  0  0  0  0  0  0  0
  141.6210   74.0200  221.0920 C   0  0  0  0  0  0  0  0  0  0  0  0
  141.4150   72.7270  220.6610 C   0  0  0  0  0  0  0  0  0  0  0  0
  142.4920   71.9470  220.2570 C   0  0  0  0  0  0  0  0  0  0  0  0
  143.7740   72.4590  220.2840 C   0  0  0  0  0  0  0  0  0  0  0  0
  144.8860   71.7460  219.8990 C   0  0  0  0  0  0  0  0  0  0  0  0
  144.6740   70.0870  219.3390 Cl  0  0  0  0  0  0  0  0  0  0  0  0
  146.1360   72.3370  219.9590 C   0  0  0  0  0  0  0  0  0  0  0  0
  146.3300   73.6350  220.3940 C   0  0  0  0  0  0  0  0  0  0  0  0
  145.2020   74.3590  220.7840 C   0  0  0  0  0  0  0  0  0  0  0  0
  143.9480   73.7710  220.7260 C   0  0  0  0  0  0  0  0  0  0  0  0
  142.8830   74.4980  221.1100 N   0  0  0  0  0  0  0  0  0  0  0  0
  141.7200   76.6020  221.8910 H   0  0  0  0  0  0  0  0  0  0  0  0
  138.8206   76.4360  222.6851 H   0  0  0  0  0  0  0  0  0  0  0  0
  140.0074   77.7003  223.1609 H   0  0  0  0  0  0  0  0  0  0  0  0
  139.7952   76.2000  219.3271 H   0  0  0  0  0  0  0  0  0  0  0  0
  139.9604   77.5026  218.1206 H   0  0  0  0  0  0  0  0  0  0  0  0
  142.1441   76.4184  219.9604 H   0  0  0  0  0  0  0  0  0  0  0  0
  141.9955   76.1641  218.1759 H   0  0  0  0  0  0  0  0  0  0  0  0
  143.4259   78.1424  219.4533 H   0  0  0  0  0  0  0  0  0  0  0  0
  142.8805   78.0872  217.7019 H   0  0  0  0  0  0  0  0  0  0  0  0
  142.4895   80.1991  219.0790 H   0  0  0  0  0  0  0  0  0  0  0  0
  141.1622   79.4734  218.0369 H   0  0  0  0  0  0  0  0  0  0  0  0
  140.1138   80.1588  219.9393 H   0  0  0  0  0  0  0  0  0  0  0  0
  141.1737   81.8385  221.2072 H   0  0  0  0  0  0  0  0  0  0  0  0
  142.2340   82.3964  223.3586 H   0  0  0  0  0  0  0  0  0  0  0  0
  143.1688   80.5900  224.8170 H   0  0  0  0  0  0  0  0  0  0  0  0
  142.9829   78.2371  224.0033 H   0  0  0  0  0  0  0  0  0  0  0  0
  140.3966   72.3119  220.6368 H   0  0  0  0  0  0  0  0  0  0  0  0
  142.3221   70.9158  219.9138 H   0  0  0  0  0  0  0  0  0  0  0  0
  147.0121   71.7493  219.6475 H   0  0  0  0  0  0  0  0  0  0  0  0
  147.3351   74.0803  220.4313 H   0  0  0  0  0  0  0  0  0  0  0  0
  145.3081   75.3954  221.1371 H   0  0  0  0  0  0  0  0  0  0  0  0
  1  2  2  0
  2  3  1  0
  3  4  1  0
  4  5  1  0
  5  6  2  0
  5  7  1  0
  7  8  1  0
  8  9  1  0
  9 10  1  0
 10 11  1  0
 11 12  1  0
 12 13  1  0
 13 14  2  0
 14 15  1  0
 15 16  2  0
 16 17  1  0
 17 18  2  0
  2 19  1  0
 19 20  2  0
 20 21  1  0
 21 22  2  0
 22 23  1  0
 23 24  1  0
 23 25  2  0
 25 26  1  0
 26 27  2  0
 27 28  1  0
 28 29  2  0
 12  7  1  0
 18 13  1  0
 29 19  1  0
 28 22  1  0
  3 30  1  0
  4 31  1  0
  4 32  1  0
  8 33  1  0
  8 34  1  0
  9 35  1  0
  9 36  1  0
 10 37  1  0
 10 38  1  0
 11 39  1  0
 11 40  1  0
 12 41  1  6
 14 42  1  0
 15 43  1  0
 16 44  1  0
 17 45  1  0
 20 46  1  0
 21 47  1  0
 25 48  1  0
 26 49  1  0
 27 50  1  0
M  END
>  <smiles>  (11) 
O=C(NCC(=O)N1CCCCC1c1ccccn1)c1ccc2c(Cl)cccc2n1

>  <score_type>  (11) 
oracle

>  <origin>  (11) 
autodockgpu

>  <m_score__min__energy>  (11) 
-9.1099999999999994

>  <m_primary>  (11) 
energy

>  <rmsd>  (11) 
5.044303643387923

>  <m_score__min__rmsd>  (11) 
5.044303643387923

>  <meeko>  (11) 
{"free_energy": -6.9, "intermolecular_energy": -8.39, "internal_energy": -2.95, "cluster_size": 9, "cluster_id": 3, "rank_in_cluster": 8}

>  <energy>  (11) 
-8.33

>  <cluster_rmsd>  (11) 
0.46

>  <cluster>  (11) 
1

$$$$

     RDKit          3D

 50 53  0  0  0  0  0  0  0  0999 V2000
  139.1020   75.0110  222.0920 O   0  0  0  0  0  0  0  0  0  0  0  0
  140.2380   75.5710  221.9600 C   0  0  0  0  0  0  0  0  0  0  0  0
  141.4250   74.8610  221.6870 N   0  0  0  0  0  0  0  0  0  0  0  0
  141.3920   73.4170  221.5420 C   0  0  0  0  0  0  0  0  0  0  0  0
  141.8420   73.0390  220.1770 C   0  0  0  0  0  0  0  0  0  0  0  0
  140.9720   72.8510  219.2890 O   0  0  0  0  0  0  0  0  0  0  0  0
  143.2380   72.9090  219.9520 N   0  0  0  0  0  0  0  0  0  0  0  0
  144.1040   72.1230  220.8150 C   0  0  0  0  0  0  0  0  0  0  0  0
  145.2340   73.0070  221.2560 C   0  0  0  0  0  0  0  0  0  0  0  0
  145.9720   73.5630  220.0850 C   0  0  0  0  0  0  0  0  0  0  0  0
  145.2770   73.3880  218.7750 C   0  0  0  0  0  0  0  0  0  0  0  0
  143.8030   73.5920  218.8190 C   0  0  2  0  0  0  0  0  0  0  0  0
  143.3890   75.0120  218.7030 C   0  0  0  0  0  0  0  0  0  0  0  0
  143.0850   75.6120  217.4890 C   0  0  0  0  0  0  0  0  0  0  0  0
  142.7000   76.9380  217.4070 C   0  0  0  0  0  0  0  0  0  0  0  0
  142.6040   77.7180  218.5420 C   0  0  0  0  0  0  0  0  0  0  0  0
  142.9120   77.1010  219.7410 C   0  0  0  0  0  0  0  0  0  0  0  0
  143.2840   75.8090  219.8020 N   0  0  0  0  0  0  0  0  0  0  0  0
  140.3070   77.0410  222.1010 C   0  0  0  0  0  0  0  0  0  0  0  0
  139.2910   77.8470  221.6320 C   0  0  0  0  0  0  0  0  0  0  0  0
  139.3740   79.2270  221.7740 C   0  0  0  0  0  0  0  0  0  0  0  0
  140.4720   79.8010  222.3840 C   0  0  0  0  0  0  0  0  0  0  0  0
  140.6210   81.1570  222.5590 C   0  0  0  0  0  0  0  0  0  0  0  0
  139.3490   82.2300  221.9770 Cl  0  0  0  0  0  0  0  0  0  0  0  0
  141.7560   81.6490  223.1820 C   0  0  0  0  0  0  0  0  0  0  0  0
  142.7680   80.8300  223.6480 C   0  0  0  0  0  0  0  0  0  0  0  0
  142.6160   79.4540  223.4700 C   0  0  0  0  0  0  0  0  0  0  0  0
  141.4820   78.9570  222.8470 C   0  0  0  0  0  0  0  0  0  0  0  0
  141.3690   77.6250  222.6930 N   0  0  0  0  0  0  0  0  0  0  0  0
  142.3510   75.3490  221.5820 H   0  0  0  0  0  0  0  0  0  0  0  0
  142.0600   72.9596  222.2867 H   0  0  0  0  0  0  0  0  0  0  0  0
  140.3636   73.0592  221.6981 H   0  0  0  0  0  0  0  0  0  0  0  0
  143.5399   71.7711  221.6913 H   0  0  0  0  0  0  0  0  0  0  0  0
  144.4898   71.2449  220.2764 H   0  0  0  0  0  0  0  0  0  0  0  0
  144.8282   73.8378  221.8519 H   0  0  0  0  0  0  0  0  0  0  0  0
  145.9335   72.4056  221.8552 H   0  0  0  0  0  0  0  0  0  0  0  0
  146.1221   74.6397  220.2532 H   0  0  0  0  0  0  0  0  0  0  0  0
  146.9161   73.0028  220.0155 H   0  0  0  0  0  0  0  0  0  0  0  0
  145.7016   74.1110  218.0629 H   0  0  0  0  0  0  0  0  0  0  0  0
  145.4363   72.3412  218.4769 H   0  0  0  0  0  0  0  0  0  0  0  0
  143.3792   73.1324  217.9139 H   0  0  0  0  0  0  0  0  0  0  0  0
  143.1521   75.0166  216.5665 H   0  0  0  0  0  0  0  0  0  0  0  0
  142.4674   77.3764  216.4253 H   0  0  0  0  0  0  0  0  0  0  0  0
  142.2989   78.7738  218.4953 H   0  0  0  0  0  0  0  0  0  0  0  0
  142.8511   77.6835  220.6721 H   0  0  0  0  0  0  0  0  0  0  0  0
  138.4135   77.3969  221.1447 H   0  0  0  0  0  0  0  0  0  0  0  0
  138.5608   79.8655  221.3985 H   0  0  0  0  0  0  0  0  0  0  0  0
  141.8565   82.7367  223.3115 H   0  0  0  0  0  0  0  0  0  0  0  0
  143.6590   81.2470  224.1402 H   0  0  0  0  0  0  0  0  0  0  0  0
  143.3961   78.7641  223.8241 H   0  0  0  0  0  0  0  0  0  0  0  0
  1  2  2  0
  2  3  1  0
  3  4  1  0
  4  5  1  0
  5  6  2  0
  5  7  1  0
  7  8  1  0
  8  9  1  0
  9 10  1  0
 10 11  1  0
 11 12  1  0
 12 13  1  0
 13 14  2  0
 14 15  1  0
 15 16  2  0
 16 17  1  0
 17 18  2  0
  2 19  1  0
 19 20  2  0
 20 21  1  0
 21 22  2  0
 22 23  1  0
 23 24  1  0
 23 25  2  0
 25 26  1  0
 26 27  2  0
 27 28  1  0
 28 29  2  0
 12  7  1  0
 18 13  1  0
 29 19  1  0
 28 22  1  0
  3 30  1  0
  4 31  1  0
  4 32  1  0
  8 33  1  0
  8 34  1  0
  9 35  1  0
  9 36  1  0
 10 37  1  0
 10 38  1  0
 11 39  1  0
 11 40  1  0
 12 41  1  6
 14 42  1  0
 15 43  1  0
 16 44  1  0
 17 45  1  0
 20 46  1  0
 21 47  1  0
 25 48  1  0
 26 49  1  0
 27 50  1  0
M  END
>  <smiles>  (12) 
O=C(NCC(=O)N1CCCCC1c1ccccn1)c1ccc2c(Cl)cccc2n1

>  <score_type>  (12) 
oracle

>  <origin>  (12) 
autodockgpu

>  <m_score__min__energy>  (12) 
-9.1099999999999994

>  <m_primary>  (12) 
energy

>  <rmsd>  (12) 
7.252780809798742

>  <m_score__min__rmsd>  (12) 
7.252780809798742

>  <meeko>  (12) 
{"free_energy": -7.18, "intermolecular_energy": -8.68, "internal_energy": -2.99, "cluster_size": 13, "cluster_id": 4, "rank_in_cluster": 3}

>  <energy>  (12) 
-8.13

>  <cluster_rmsd>  (12) 
0.87

>  <cluster>  (12) 
1

$$$$

     RDKit          3D

 50 53  0  0  0  0  0  0  0  0999 V2000
  139.5910   74.0340  222.4380 O   0  0  0  0  0  0  0  0  0  0  0  0
  140.1710   74.4690  221.3910 C   0  0  0  0  0  0  0  0  0  0  0  0
  139.7070   75.5780  220.6540 N   0  0  0  0  0  0  0  0  0  0  0  0
  138.5120   76.2850  221.0780 C   0  0  0  0  0  0  0  0  0  0  0  0
  138.7890   77.7440  221.1480 C   0  0  0  0  0  0  0  0  0  0  0  0
  138.2360   78.5010  220.3110 O   0  0  0  0  0  0  0  0  0  0  0  0
  139.6710   78.2020  222.1640 N   0  0  0  0  0  0  0  0  0  0  0  0
  139.2260   79.0200  223.2800 C   0  0  0  0  0  0  0  0  0  0  0  0
  140.0920   80.2460  223.3200 C   0  0  0  0  0  0  0  0  0  0  0  0
  141.5330   79.8840  223.4350 C   0  0  0  0  0  0  0  0  0  0  0  0
  141.8330   78.4440  223.1820 C   0  0  0  0  0  0  0  0  0  0  0  0
  141.0570   77.8320  222.0670 C   0  0  2  0  0  0  0  0  0  0  0  0
  141.6500   78.0580  220.7260 C   0  0  0  0  0  0  0  0  0  0  0  0
  141.7900   79.3200  220.1670 C   0  0  0  0  0  0  0  0  0  0  0  0
  142.3480   79.5050  218.9150 C   0  0  0  0  0  0  0  0  0  0  0  0
  142.7890   78.4290  218.1720 C   0  0  0  0  0  0  0  0  0  0  0  0
  142.6400   77.1800  218.7470 C   0  0  0  0  0  0  0  0  0  0  0  0
  142.0950   77.0190  219.9680 N   0  0  0  0  0  0  0  0  0  0  0  0
  141.3910   73.7730  220.9320 C   0  0  0  0  0  0  0  0  0  0  0  0
  141.3220   72.5110  220.3820 C   0  0  0  0  0  0  0  0  0  0  0  0
  142.4810   71.8720  219.9560 C   0  0  0  0  0  0  0  0  0  0  0  0
  143.7070   72.4940  220.0810 C   0  0  0  0  0  0  0  0  0  0  0  0
  144.8930   71.9240  219.6810 C   0  0  0  0  0  0  0  0  0  0  0  0
  144.8580   70.3110  218.9700 Cl  0  0  0  0  0  0  0  0  0  0  0  0
  146.0790   72.6190  219.8440 C   0  0  0  0  0  0  0  0  0  0  0  0
  146.1350   73.8840  220.3980 C   0  0  0  0  0  0  0  0  0  0  0  0
  144.9320   74.4630  220.8040 C   0  0  0  0  0  0  0  0  0  0  0  0
  143.7410   73.7710  220.6420 C   0  0  0  0  0  0  0  0  0  0  0  0
  142.6000   74.3600  221.0440 N   0  0  0  0  0  0  0  0  0  0  0  0
  140.2040   75.9190  219.7920 H   0  0  0  0  0  0  0  0  0  0  0  0
  137.7031   76.1010  220.3557 H   0  0  0  0  0  0  0  0  0  0  0  0
  138.2098   75.9243  222.0723 H   0  0  0  0  0  0  0  0  0  0  0  0
  138.1742   79.3086  223.1372 H   0  0  0  0  0  0  0  0  0  0  0  0
  139.3054   78.4607  224.2239 H   0  0  0  0  0  0  0  0  0  0  0  0
  139.9396   80.8233  222.3962 H   0  0  0  0  0  0  0  0  0  0  0  0
  139.8112   80.8424  224.2006 H   0  0  0  0  0  0  0  0  0  0  0  0
  142.0972   80.4853  222.7068 H   0  0  0  0  0  0  0  0  0  0  0  0
  141.8232   80.0850  224.4768 H   0  0  0  0  0  0  0  0  0  0  0  0
  142.9032   78.3538  222.9443 H   0  0  0  0  0  0  0  0  0  0  0  0
  141.5447   77.9020  224.0948 H   0  0  0  0  0  0  0  0  0  0  0  0
  141.1148   76.7398  222.1843 H   0  0  0  0  0  0  0  0  0  0  0  0
  141.4478   80.1976  220.7351 H   0  0  0  0  0  0  0  0  0  0  0  0
  142.4414   80.5221  218.5066 H   0  0  0  0  0  0  0  0  0  0  0  0
  143.2355   78.5579  217.1750 H   0  0  0  0  0  0  0  0  0  0  0  0
  142.9763   76.2925  218.1910 H   0  0  0  0  0  0  0  0  0  0  0  0
  140.3487   72.0088  220.2800 H   0  0  0  0  0  0  0  0  0  0  0  0
  142.4207   70.8652  219.5169 H   0  0  0  0  0  0  0  0  0  0  0  0
  147.0166   72.1444  219.5188 H   0  0  0  0  0  0  0  0  0  0  0  0
  147.0917   74.4143  220.5145 H   0  0  0  0  0  0  0  0  0  0  0  0
  144.9283   75.4675  221.2522 H   0  0  0  0  0  0  0  0  0  0  0  0
  1  2  2  0
  2  3  1  0
  3  4  1  0
  4  5  1  0
  5  6  2  0
  5  7  1  0
  7  8  1  0
  8  9  1  0
  9 10  1  0
 10 11  1  0
 11 12  1  0
 12 13  1  0
 13 14  2  0
 14 15  1  0
 15 16  2  0
 16 17  1  0
 17 18  2  0
  2 19  1  0
 19 20  2  0
 20 21  1  0
 21 22  2  0
 22 23  1  0
 23 24  1  0
 23 25  2  0
 25 26  1  0
 26 27  2  0
 27 28  1  0
 28 29  2  0
 12  7  1  0
 18 13  1  0
 29 19  1  0
 28 22  1  0
  3 30  1  0
  4 31  1  0
  4 32  1  0
  8 33  1  0
  8 34  1  0
  9 35  1  0
  9 36  1  0
 10 37  1  0
 10 38  1  0
 11 39  1  0
 11 40  1  0
 12 41  1  1
 14 42  1  0
 15 43  1  0
 16 44  1  0
 17 45  1  0
 20 46  1  0
 21 47  1  0
 25 48  1  0
 26 49  1  0
 27 50  1  0
M  END
>  <smiles>  (13) 
O=C(NCC(=O)N1CCCCC1c1ccccn1)c1ccc2c(Cl)cccc2n1

>  <score_type>  (13) 
oracle

>  <origin>  (13) 
autodockgpu

>  <m_score__min__energy>  (13) 
-9.1099999999999994

>  <m_primary>  (13) 
energy

>  <rmsd>  (13) 
5.733343005534342

>  <m_score__min__rmsd>  (13) 
5.733343005534342

>  <meeko>  (13) 
{"free_energy": -6.75, "intermolecular_energy": -8.24, "internal_energy": -2.88, "cluster_size": 9, "cluster_id": 3, "rank_in_cluster": 9}

>  <energy>  (13) 
-8.12

>  <cluster_rmsd>  (13) 
0.91

>  <cluster>  (13) 
1

$$$$

     RDKit          3D

 50 53  0  0  0  0  0  0  0  0999 V2000
  139.0240   73.6460  221.6260 O   0  0  0  0  0  0  0  0  0  0  0  0
  140.1200   74.2920  221.5830 C   0  0  0  0  0  0  0  0  0  0  0  0
  140.2370   75.6440  221.9670 N   0  0  0  0  0  0  0  0  0  0  0  0
  139.0720   76.3700  222.4390 C   0  0  0  0  0  0  0  0  0  0  0  0
  139.1640   77.7940  222.0210 C   0  0  0  0  0  0  0  0  0  0  0  0
  138.4410   78.1880  221.0710 O   0  0  0  0  0  0  0  0  0  0  0  0
  140.0700   78.6330  222.7230 N   0  0  0  0  0  0  0  0  0  0  0  0
  139.6330   79.6390  223.6760 C   0  0  0  0  0  0  0  0  0  0  0  0
  140.2420   80.9500  223.2680 C   0  0  0  0  0  0  0  0  0  0  0  0
  141.7280   80.8550  223.2020 C   0  0  0  0  0  0  0  0  0  0  0  0
  142.2630   79.4620  223.2460 C   0  0  0  0  0  0  0  0  0  0  0  0
  141.4750   78.4660  222.4670 C   0  0  2  0  0  0  0  0  0  0  0  0
  141.8250   78.4180  221.0260 C   0  0  0  0  0  0  0  0  0  0  0  0
  141.7930   79.5350  220.2050 C   0  0  0  0  0  0  0  0  0  0  0  0
  142.1250   79.4640  218.8630 C   0  0  0  0  0  0  0  0  0  0  0  0
  142.5040   78.2670  218.2910 C   0  0  0  0  0  0  0  0  0  0  0  0
  142.5290   77.1650  219.1270 C   0  0  0  0  0  0  0  0  0  0  0  0
  142.2030   77.2530  220.4310 N   0  0  0  0  0  0  0  0  0  0  0  0
  141.3260   73.5830  221.1080 C   0  0  0  0  0  0  0  0  0  0  0  0
  141.2640   72.2620  220.7170 C   0  0  0  0  0  0  0  0  0  0  0  0
  142.4090   71.6120  220.2720 C   0  0  0  0  0  0  0  0  0  0  0  0
  143.6160   72.2810  220.2190 C   0  0  0  0  0  0  0  0  0  0  0  0
  144.7880   71.7030  219.7910 C   0  0  0  0  0  0  0  0  0  0  0  0
  144.7600   70.0150  219.2790 Cl  0  0  0  0  0  0  0  0  0  0  0  0
  145.9540   72.4480  219.7690 C   0  0  0  0  0  0  0  0  0  0  0  0
  146.0040   73.7720  220.1650 C   0  0  0  0  0  0  0  0  0  0  0  0
  144.8150   74.3590  220.6000 C   0  0  0  0  0  0  0  0  0  0  0  0
  143.6440   73.6170  220.6220 C   0  0  0  0  0  0  0  0  0  0  0  0
  142.5160   74.2150  221.0470 N   0  0  0  0  0  0  0  0  0  0  0  0
  141.1550   76.1550  221.9220 H   0  0  0  0  0  0  0  0  0  0  0  0
  138.1636   75.9214  222.0106 H   0  0  0  0  0  0  0  0  0  0  0  0
  139.0294   76.3152  223.5368 H   0  0  0  0  0  0  0  0  0  0  0  0
  138.5357   79.7155  223.6631 H   0  0  0  0  0  0  0  0  0  0  0  0
  139.9488   79.3679  224.6942 H   0  0  0  0  0  0  0  0  0  0  0  0
  139.8559   81.2325  222.2775 H   0  0  0  0  0  0  0  0  0  0  0  0
  139.9738   81.7080  224.0187 H   0  0  0  0  0  0  0  0  0  0  0  0
  142.0604   81.3210  222.2627 H   0  0  0  0  0  0  0  0  0  0  0  0
  142.1137   81.3661  224.0965 H   0  0  0  0  0  0  0  0  0  0  0  0
  143.2877   79.4760  222.8463 H   0  0  0  0  0  0  0  0  0  0  0  0
  142.2121   79.1435  224.2976 H   0  0  0  0  0  0  0  0  0  0  0  0
  141.7574   77.4655  222.8265 H   0  0  0  0  0  0  0  0  0  0  0  0
  141.4956   80.5042  220.6319 H   0  0  0  0  0  0  0  0  0  0  0  0
  142.0862   80.3731  218.2450 H   0  0  0  0  0  0  0  0  0  0  0  0
  142.7720   78.1928  217.2267 H   0  0  0  0  0  0  0  0  0  0  0  0
  142.8237   76.1886  218.7149 H   0  0  0  0  0  0  0  0  0  0  0  0
  140.3066   71.7218  220.7574 H   0  0  0  0  0  0  0  0  0  0  0  0
  142.3535   70.5586  219.9602 H   0  0  0  0  0  0  0  0  0  0  0  0
  146.8802   71.9667  219.4218 H   0  0  0  0  0  0  0  0  0  0  0  0
  146.9451   74.3408  220.1381 H   0  0  0  0  0  0  0  0  0  0  0  0
  144.8069   75.4098  220.9253 H   0  0  0  0  0  0  0  0  0  0  0  0
  1  2  2  0
  2  3  1  0
  3  4  1  0
  4  5  1  0
  5  6  2  0
  5  7  1  0
  7  8  1  0
  8  9  1  0
  9 10  1  0
 10 11  1  0
 11 12  1  0
 12 13  1  0
 13 14  2  0
 14 15  1  0
 15 16  2  0
 16 17  1  0
 17 18  2  0
  2 19  1  0
 19 20  2  0
 20 21  1  0
 21 22  2  0
 22 23  1  0
 23 24  1  0
 23 25  2  0
 25 26  1  0
 26 27  2  0
 27 28  1  0
 28 29  2  0
 12  7  1  0
 18 13  1  0
 29 19  1  0
 28 22  1  0
  3 30  1  0
  4 31  1  0
  4 32  1  0
  8 33  1  0
  8 34  1  0
  9 35  1  0
  9 36  1  0
 10 37  1  0
 10 38  1  0
 11 39  1  0
 11 40  1  0
 12 41  1  1
 14 42  1  0
 15 43  1  0
 16 44  1  0
 17 45  1  0
 20 46  1  0
 21 47  1  0
 25 48  1  0
 26 49  1  0
 27 50  1  0
M  END
>  <smiles>  (14) 
O=C(NCC(=O)N1CCCCC1c1ccccn1)c1ccc2c(Cl)cccc2n1

>  <score_type>  (14) 
oracle

>  <origin>  (14) 
autodockgpu

>  <m_score__min__energy>  (14) 
-9.1099999999999994

>  <m_primary>  (14) 
energy

>  <rmsd>  (14) 
5.809287288359669

>  <m_score__min__rmsd>  (14) 
5.809287288359669

>  <meeko>  (14) 
{"free_energy": -7.1, "intermolecular_energy": -8.6, "internal_energy": -2.93, "cluster_size": 9, "cluster_id": 3, "rank_in_cluster": 4}

>  <energy>  (14) 
-7.79

>  <cluster_rmsd>  (14) 
1.97

>  <cluster>  (14) 
1

$$$$

     RDKit          3D

 50 53  0  0  0  0  0  0  0  0999 V2000
  139.1430   71.7820  221.0490 O   0  0  0  0  0  0  0  0  0  0  0  0
  139.8370   72.2220  222.0220 C   0  0  0  0  0  0  0  0  0  0  0  0
  140.5360   73.4460  221.9830 N   0  0  0  0  0  0  0  0  0  0  0  0
  140.4890   74.2740  220.7910 C   0  0  0  0  0  0  0  0  0  0  0  0
  140.9300   75.6550  221.1200 C   0  0  0  0  0  0  0  0  0  0  0  0
  141.0870   75.9620  222.3290 O   0  0  0  0  0  0  0  0  0  0  0  0
  141.1480   76.5540  220.0430 N   0  0  0  0  0  0  0  0  0  0  0  0
  141.8720   76.1790  218.8400 C   0  0  0  0  0  0  0  0  0  0  0  0
  142.9680   77.1850  218.6350 C   0  0  0  0  0  0  0  0  0  0  0  0
  142.4190   78.5680  218.5460 C   0  0  0  0  0  0  0  0  0  0  0  0
  140.9950   78.6990  218.9720 C   0  0  0  0  0  0  0  0  0  0  0  0
  140.6240   77.8880  220.1650 C   0  0  2  0  0  0  0  0  0  0  0  0
  140.9370   78.5430  221.4590 C   0  0  0  0  0  0  0  0  0  0  0  0
  142.2020   79.0160  221.7770 C   0  0  0  0  0  0  0  0  0  0  0  0
  142.4680   79.6260  222.9910 C   0  0  0  0  0  0  0  0  0  0  0  0
  141.4740   79.7850  223.9350 C   0  0  0  0  0  0  0  0  0  0  0  0
  140.2210   79.3060  223.5970 C   0  0  0  0  0  0  0  0  0  0  0  0
  139.9800   78.7160  222.4110 N   0  0  0  0  0  0  0  0  0  0  0  0
  139.9060   71.4050  223.2510 C   0  0  0  0  0  0  0  0  0  0  0  0
  139.4930   70.0900  223.2520 C   0  0  0  0  0  0  0  0  0  0  0  0
  139.5660   69.3370  224.4180 C   0  0  0  0  0  0  0  0  0  0  0  0
  140.0520   69.8980  225.5820 C   0  0  0  0  0  0  0  0  0  0  0  0
  140.1530   69.2140  226.7710 C   0  0  0  0  0  0  0  0  0  0  0  0
  139.6380   67.5290  226.8240 Cl  0  0  0  0  0  0  0  0  0  0  0  0
  140.6520   69.8550  227.8920 C   0  0  0  0  0  0  0  0  0  0  0  0
  141.0630   71.1750  227.8780 C   0  0  0  0  0  0  0  0  0  0  0  0
  140.9600   71.8690  226.6720 C   0  0  0  0  0  0  0  0  0  0  0  0
  140.4620   71.2310  225.5470 C   0  0  0  0  0  0  0  0  0  0  0  0
  140.3770   71.9310  224.4010 N   0  0  0  0  0  0  0  0  0  0  0  0
  141.1020   73.7880  222.8010 H   0  0  0  0  0  0  0  0  0  0  0  0
  141.1556   73.8503  220.0254 H   0  0  0  0  0  0  0  0  0  0  0  0
  139.4578   74.3031  220.4092 H   0  0  0  0  0  0  0  0  0  0  0  0
  142.3033   75.1742  218.9601 H   0  0  0  0  0  0  0  0  0  0  0  0
  141.1960   76.1633  217.9724 H   0  0  0  0  0  0  0  0  0  0  0  0
  143.6683   77.1305  219.4815 H   0  0  0  0  0  0  0  0  0  0  0  0
  143.4827   76.9526  217.6910 H   0  0  0  0  0  0  0  0  0  0  0  0
  143.0301   79.2217  219.1857 H   0  0  0  0  0  0  0  0  0  0  0  0
  142.4540   78.8498  217.4833 H   0  0  0  0  0  0  0  0  0  0  0  0
  140.8029   79.7570  219.2039 H   0  0  0  0  0  0  0  0  0  0  0  0
  140.3857   78.3206  218.1380 H   0  0  0  0  0  0  0  0  0  0  0  0
  139.5269   77.8101  220.1831 H   0  0  0  0  0  0  0  0  0  0  0  0
  143.0153   78.9033  221.0450 H   0  0  0  0  0  0  0  0  0  0  0  0
  143.4841   79.9884  223.2058 H   0  0  0  0  0  0  0  0  0  0  0  0
  141.6677   80.2670  224.9046 H   0  0  0  0  0  0  0  0  0  0  0  0
  139.3972   79.4102  224.3185 H   0  0  0  0  0  0  0  0  0  0  0  0
  139.1049   69.6357  222.3284 H   0  0  0  0  0  0  0  0  0  0  0  0
  139.2346   68.2881  224.4133 H   0  0  0  0  0  0  0  0  0  0  0  0
  140.7245   69.2905  228.8333 H   0  0  0  0  0  0  0  0  0  0  0  0
  141.4564   71.6598  228.7836 H   0  0  0  0  0  0  0  0  0  0  0  0
  141.2738   72.9217  226.6142 H   0  0  0  0  0  0  0  0  0  0  0  0
  1  2  2  0
  2  3  1  0
  3  4  1  0
  4  5  1  0
  5  6  2  0
  5  7  1  0
  7  8  1  0
  8  9  1  0
  9 10  1  0
 10 11  1  0
 11 12  1  0
 12 13  1  0
 13 14  2  0
 14 15  1  0
 15 16  2  0
 16 17  1  0
 17 18  2  0
  2 19  1  0
 19 20  2  0
 20 21  1  0
 21 22  2  0
 22 23  1  0
 23 24  1  0
 23 25  2  0
 25 26  1  0
 26 27  2  0
 27 28  1  0
 28 29  2  0
 12  7  1  0
 18 13  1  0
 29 19  1  0
 28 22  1  0
  3 30  1  0
  4 31  1  0
  4 32  1  0
  8 33  1  0
  8 34  1  0
  9 35  1  0
  9 36  1  0
 10 37  1  0
 10 38  1  0
 11 39  1  0
 11 40  1  0
 12 41  1  1
 14 42  1  0
 15 43  1  0
 16 44  1  0
 17 45  1  0
 20 46  1  0
 21 47  1  0
 25 48  1  0
 26 49  1  0
 27 50  1  0
M  END
>  <smiles>  (15) 
O=C(NCC(=O)N1CCCCC1c1ccccn1)c1ccc2c(Cl)cccc2n1

>  <score_type>  (15) 
oracle

>  <origin>  (15) 
autodockgpu

>  <m_score__min__energy>  (15) 
-9.1099999999999994

>  <m_primary>  (15) 
energy

>  <rmsd>  (15) 
2.2880332928755274

>  <m_score__min__rmsd>  (15) 
2.2880332928755274

>  <meeko>  (15) 
{"free_energy": -8.4, "intermolecular_energy": -9.89, "internal_energy": -2.02, "cluster_size": 14, "cluster_id": 1, "rank_in_cluster": 10}

>  <energy>  (15) 
-8.56

>  <cluster_rmsd>  (15) 
0.0

>  <cluster>  (15) 
2

$$$$

     RDKit          3D

 50 53  0  0  0  0  0  0  0  0999 V2000
  139.2790   73.6500  222.3440 O   0  0  0  0  0  0  0  0  0  0  0  0
  140.1480   74.3240  221.7010 C   0  0  0  0  0  0  0  0  0  0  0  0
  140.0270   75.7060  221.4520 N   0  0  0  0  0  0  0  0  0  0  0  0
  138.8680   76.4340  221.9360 C   0  0  0  0  0  0  0  0  0  0  0  0
  139.0800   77.8940  221.7530 C   0  0  0  0  0  0  0  0  0  0  0  0
  138.4110   78.4910  220.8720 O   0  0  0  0  0  0  0  0  0  0  0  0
  140.0320   78.5350  222.5890 N   0  0  0  0  0  0  0  0  0  0  0  0
  139.6540   79.4450  223.6580 C   0  0  0  0  0  0  0  0  0  0  0  0
  140.4050   80.7290  223.4510 C   0  0  0  0  0  0  0  0  0  0  0  0
  141.8760   80.4930  223.4160 C   0  0  0  0  0  0  0  0  0  0  0  0
  142.2710   79.0590  223.2850 C   0  0  0  0  0  0  0  0  0  0  0  0
  141.4240   78.2610  222.3550 C   0  0  2  0  0  0  0  0  0  0  0  0
  141.8290   78.3690  220.9310 C   0  0  0  0  0  0  0  0  0  0  0  0
  141.7900   79.5630  220.2250 C   0  0  0  0  0  0  0  0  0  0  0  0
  142.1740   79.6380  218.8980 C   0  0  0  0  0  0  0  0  0  0  0  0
  142.6140   78.5160  218.2250 C   0  0  0  0  0  0  0  0  0  0  0  0
  142.6450   77.3370  218.9470 C   0  0  0  0  0  0  0  0  0  0  0  0
  142.2680   77.2830  220.2390 N   0  0  0  0  0  0  0  0  0  0  0  0
  141.3410   73.6130  221.1950 C   0  0  0  0  0  0  0  0  0  0  0  0
  141.2690   72.2930  220.8070 C   0  0  0  0  0  0  0  0  0  0  0  0
  142.4010   71.6420  220.3320 C   0  0  0  0  0  0  0  0  0  0  0  0
  143.6060   72.3110  220.2470 C   0  0  0  0  0  0  0  0  0  0  0  0
  144.7660   71.7320  219.7880 C   0  0  0  0  0  0  0  0  0  0  0  0
  144.7250   70.0440  219.2790 Cl  0  0  0  0  0  0  0  0  0  0  0  0
  145.9320   72.4760  219.7350 C   0  0  0  0  0  0  0  0  0  0  0  0
  145.9920   73.8010  220.1270 C   0  0  0  0  0  0  0  0  0  0  0  0
  144.8150   74.3890  220.5930 C   0  0  0  0  0  0  0  0  0  0  0  0
  143.6450   73.6470  220.6470 C   0  0  0  0  0  0  0  0  0  0  0  0
  142.5290   74.2460  221.1010 N   0  0  0  0  0  0  0  0  0  0  0  0
  140.7600   76.2400  220.9190 H   0  0  0  0  0  0  0  0  0  0  0  0
  137.9775   76.1204  221.3715 H   0  0  0  0  0  0  0  0  0  0  0  0
  138.7231   76.2184  223.0049 H   0  0  0  0  0  0  0  0  0  0  0  0
  138.5710   79.6346  223.6233 H   0  0  0  0  0  0  0  0  0  0  0  0
  139.8973   79.0099  224.6386 H   0  0  0  0  0  0  0  0  0  0  0  0
  140.0909   81.1787  222.4975 H   0  0  0  0  0  0  0  0  0  0  0  0
  140.1802   81.4034  224.2905 H   0  0  0  0  0  0  0  0  0  0  0  0
  142.2918   81.0434  222.5591 H   0  0  0  0  0  0  0  0  0  0  0  0
  142.2710   80.8388  224.3826 H   0  0  0  0  0  0  0  0  0  0  0  0
  143.3083   79.0215  222.9208 H   0  0  0  0  0  0  0  0  0  0  0  0
  142.1448   78.6104  224.2814 H   0  0  0  0  0  0  0  0  0  0  0  0
  141.5925   77.1984  222.5841 H   0  0  0  0  0  0  0  0  0  0  0  0
  141.4444   80.4747  220.7343 H   0  0  0  0  0  0  0  0  0  0  0  0
  142.1281   80.6035  218.3728 H   0  0  0  0  0  0  0  0  0  0  0  0
  142.9236   78.5575  217.1703 H   0  0  0  0  0  0  0  0  0  0  0  0
  142.9875   76.4164  218.4518 H   0  0  0  0  0  0  0  0  0  0  0  0
  140.3129   71.7531  220.8734 H   0  0  0  0  0  0  0  0  0  0  0  0
  142.3369   70.5885  220.0222 H   0  0  0  0  0  0  0  0  0  0  0  0
  146.8490   71.9934  219.3658 H   0  0  0  0  0  0  0  0  0  0  0  0
  146.9319   74.3700  220.0735 H   0  0  0  0  0  0  0  0  0  0  0  0
  144.8157   75.4402  220.9171 H   0  0  0  0  0  0  0  0  0  0  0  0
  1  2  2  0
  2  3  1  0
  3  4  1  0
  4  5  1  0
  5  6  2  0
  5  7  1  0
  7  8  1  0
  8  9  1  0
  9 10  1  0
 10 11  1  0
 11 12  1  0
 12 13  1  0
 13 14  2  0
 14 15  1  0
 15 16  2  0
 16 17  1  0
 17 18  2  0
  2 19  1  0
 19 20  2  0
 20 21  1  0
 21 22  2  0
 22 23  1  0
 23 24  1  0
 23 25  2  0
 25 26  1  0
 26 27  2  0
 27 28  1  0
 28 29  2  0
 12  7  1  0
 18 13  1  0
 29 19  1  0
 28 22  1  0
  3 30  1  0
  4 31  1  0
  4 32  1  0
  8 33  1  0
  8 34  1  0
  9 35  1  0
  9 36  1  0
 10 37  1  0
 10 38  1  0
 11 39  1  0
 11 40  1  0
 12 41  1  1
 14 42  1  0
 15 43  1  0
 16 44  1  0
 17 45  1  0
 20 46  1  0
 21 47  1  0
 25 48  1  0
 26 49  1  0
 27 50  1  0
M  END
>  <smiles>  (16) 
O=C(NCC(=O)N1CCCCC1c1ccccn1)c1ccc2c(Cl)cccc2n1

>  <score_type>  (16) 
oracle

>  <origin>  (16) 
autodockgpu

>  <m_score__min__energy>  (16) 
-9.1099999999999994

>  <m_primary>  (16) 
energy

>  <rmsd>  (16) 
5.789943991884613

>  <m_score__min__rmsd>  (16) 
5.789943991884613

>  <meeko>  (16) 
{"free_energy": -7.17, "intermolecular_energy": -8.67, "internal_energy": -2.87, "cluster_size": 9, "cluster_id": 3, "rank_in_cluster": 2}

>  <energy>  (16) 
-8.56

>  <cluster_rmsd>  (16) 
0.44

>  <cluster>  (16) 
2

$$$$

     RDKit          3D

 50 53  0  0  0  0  0  0  0  0999 V2000
  140.1520   71.7860  221.0520 O   0  0  0  0  0  0  0  0  0  0  0  0
  139.9540   72.3380  222.1820 C   0  0  0  0  0  0  0  0  0  0  0  0
  139.7090   73.7180  222.3370 N   0  0  0  0  0  0  0  0  0  0  0  0
  139.6720   74.5860  221.1740 C   0  0  0  0  0  0  0  0  0  0  0  0
  140.5610   75.7570  221.3930 C   0  0  0  0  0  0  0  0  0  0  0  0
  140.9310   76.0180  222.5660 O   0  0  0  0  0  0  0  0  0  0  0  0
  140.9420   76.5200  220.2580 N   0  0  0  0  0  0  0  0  0  0  0  0
  141.6560   75.9460  219.1290 C   0  0  0  0  0  0  0  0  0  0  0  0
  142.8860   76.7760  218.8970 C   0  0  0  0  0  0  0  0  0  0  0  0
  142.5340   78.2060  218.6640 C   0  0  0  0  0  0  0  0  0  0  0  0
  141.1250   78.5620  219.0050 C   0  0  0  0  0  0  0  0  0  0  0  0
  140.6000   77.9170  220.2410 C   0  0  2  0  0  0  0  0  0  0  0  0
  140.9480   78.6380  221.4900 C   0  0  0  0  0  0  0  0  0  0  0  0
  140.0410   78.8430  222.5190 C   0  0  0  0  0  0  0  0  0  0  0  0
  140.3900   79.5190  223.6750 C   0  0  0  0  0  0  0  0  0  0  0  0
  141.6660   80.0160  223.8450 C   0  0  0  0  0  0  0  0  0  0  0  0
  142.5550   79.8010  222.8070 C   0  0  0  0  0  0  0  0  0  0  0  0
  142.1970   79.1410  221.6890 N   0  0  0  0  0  0  0  0  0  0  0  0
  139.9840   71.4830  223.3870 C   0  0  0  0  0  0  0  0  0  0  0  0
  139.5490   70.1760  223.3410 C   0  0  0  0  0  0  0  0  0  0  0  0
  139.5850   69.3870  224.4840 C   0  0  0  0  0  0  0  0  0  0  0  0
  140.0560   69.9050  225.6740 C   0  0  0  0  0  0  0  0  0  0  0  0
  140.1220   69.1840  226.8440 C   0  0  0  0  0  0  0  0  0  0  0  0
  139.5770   67.5070  226.8350 Cl  0  0  0  0  0  0  0  0  0  0  0  0
  140.6080   69.7820  227.9940 C   0  0  0  0  0  0  0  0  0  0  0  0
  141.0420   71.0950  228.0280 C   0  0  0  0  0  0  0  0  0  0  0  0
  140.9750   71.8270  226.8410 C   0  0  0  0  0  0  0  0  0  0  0  0
  140.4890   71.2310  225.6870 C   0  0  0  0  0  0  0  0  0  0  0  0
  140.4400   71.9660  224.5620 N   0  0  0  0  0  0  0  0  0  0  0  0
  139.5480   74.1490  223.2830 H   0  0  0  0  0  0  0  0  0  0  0  0
  140.0142   74.0276  220.2902 H   0  0  0  0  0  0  0  0  0  0  0  0
  138.6416   74.9363  221.0141 H   0  0  0  0  0  0  0  0  0  0  0  0
  141.9416   74.9080  219.3548 H   0  0  0  0  0  0  0  0  0  0  0  0
  141.0191   75.9419  218.2321 H   0  0  0  0  0  0  0  0  0  0  0  0
  143.5381   76.7061  219.7801 H   0  0  0  0  0  0  0  0  0  0  0  0
  143.4015   76.3936  218.0037 H   0  0  0  0  0  0  0  0  0  0  0  0
  143.2031   78.8283  219.2764 H   0  0  0  0  0  0  0  0  0  0  0  0
  142.6482   78.3836  217.5844 H   0  0  0  0  0  0  0  0  0  0  0  0
  141.0701   79.6525  219.1382 H   0  0  0  0  0  0  0  0  0  0  0  0
  140.5030   78.1945  218.1755 H   0  0  0  0  0  0  0  0  0  0  0  0
  139.5027   77.9866  220.2090 H   0  0  0  0  0  0  0  0  0  0  0  0
  139.0161   78.4577  222.4134 H   0  0  0  0  0  0  0  0  0  0  0  0
  139.6411   79.6619  224.4680 H   0  0  0  0  0  0  0  0  0  0  0  0
  141.9608   80.5547  224.7576 H   0  0  0  0  0  0  0  0  0  0  0  0
  143.5837   80.1800  222.8975 H   0  0  0  0  0  0  0  0  0  0  0  0
  139.1722   69.7563  222.3966 H   0  0  0  0  0  0  0  0  0  0  0  0
  139.2366   68.3445  224.4407 H   0  0  0  0  0  0  0  0  0  0  0  0
  140.6508   69.1885  228.9191 H   0  0  0  0  0  0  0  0  0  0  0  0
  141.4255   71.5455  228.9554 H   0  0  0  0  0  0  0  0  0  0  0  0
  141.3074   72.8754  226.8212 H   0  0  0  0  0  0  0  0  0  0  0  0
  1  2  2  0
  2  3  1  0
  3  4  1  0
  4  5  1  0
  5  6  2  0
  5  7  1  0
  7  8  1  0
  8  9  1  0
  9 10  1  0
 10 11  1  0
 11 12  1  0
 12 13  1  0
 13 14  2  0
 14 15  1  0
 15 16  2  0
 16 17  1  0
 17 18  2  0
  2 19  1  0
 19 20  2  0
 20 21  1  0
 21 22  2  0
 22 23  1  0
 23 24  1  0
 23 25  2  0
 25 26  1  0
 26 27  2  0
 27 28  1  0
 28 29  2  0
 12  7  1  0
 18 13  1  0
 29 19  1  0
 28 22  1  0
  3 30  1  0
  4 31  1  0
  4 32  1  0
  8 33  1  0
  8 34  1  0
  9 35  1  0
  9 36  1  0
 10 37  1  0
 10 38  1  0
 11 39  1  0
 11 40  1  0
 12 41  1  6
 14 42  1  0
 15 43  1  0
 16 44  1  0
 17 45  1  0
 20 46  1  0
 21 47  1  0
 25 48  1  0
 26 49  1  0
 27 50  1  0
M  END
>  <smiles>  (17) 
O=C(NCC(=O)N1CCCCC1c1ccccn1)c1ccc2c(Cl)cccc2n1

>  <score_type>  (17) 
oracle

>  <origin>  (17) 
autodockgpu

>  <m_score__min__energy>  (17) 
-9.1099999999999994

>  <m_primary>  (17) 
energy

>  <rmsd>  (17) 
2.31492945002524

>  <m_score__min__rmsd>  (17) 
2.31492945002524

>  <meeko>  (17) 
{"free_energy": -9.06, "intermolecular_energy": -10.55, "internal_energy": -1.8, "cluster_size": 14, "cluster_id": 1, "rank_in_cluster": 3}

>  <energy>  (17) 
-8.54

>  <cluster_rmsd>  (17) 
0.24

>  <cluster>  (17) 
2

$$$$

     RDKit          3D

 50 53  0  0  0  0  0  0  0  0999 V2000
  140.7110   71.9720  221.0890 O   0  0  0  0  0  0  0  0  0  0  0  0
  140.2050   72.4650  222.1490 C   0  0  0  0  0  0  0  0  0  0  0  0
  139.6670   73.7660  222.2170 N   0  0  0  0  0  0  0  0  0  0  0  0
  139.6720   74.6180  221.0420 C   0  0  0  0  0  0  0  0  0  0  0  0
  140.5360   75.8030  221.2840 C   0  0  0  0  0  0  0  0  0  0  0  0
  140.8820   76.0620  222.4640 O   0  0  0  0  0  0  0  0  0  0  0  0
  140.9240   76.5800  220.1600 N   0  0  0  0  0  0  0  0  0  0  0  0
  141.6580   76.0240  219.0350 C   0  0  0  0  0  0  0  0  0  0  0  0
  142.8820   76.8690  218.8260 C   0  0  0  0  0  0  0  0  0  0  0  0
  142.5180   78.2970  218.6020 C   0  0  0  0  0  0  0  0  0  0  0  0
  141.1010   78.6350  218.9270 C   0  0  0  0  0  0  0  0  0  0  0  0
  140.5670   77.9730  220.1510 C   0  0  2  0  0  0  0  0  0  0  0  0
  140.8910   78.6870  221.4100 C   0  0  0  0  0  0  0  0  0  0  0  0
  139.9280   79.0440  222.3430 C   0  0  0  0  0  0  0  0  0  0  0  0
  140.2560   79.7090  223.5110 C   0  0  0  0  0  0  0  0  0  0  0  0
  141.5650   80.0430  223.7910 C   0  0  0  0  0  0  0  0  0  0  0  0
  142.5090   79.6780  222.8480 C   0  0  0  0  0  0  0  0  0  0  0  0
  142.1720   79.0310  221.7160 N   0  0  0  0  0  0  0  0  0  0  0  0
  140.1840   71.6230  223.3640 C   0  0  0  0  0  0  0  0  0  0  0  0
  139.7360   70.3210  223.3170 C   0  0  0  0  0  0  0  0  0  0  0  0
  139.7240   69.5450  224.4700 C   0  0  0  0  0  0  0  0  0  0  0  0
  140.1580   70.0720  225.6700 C   0  0  0  0  0  0  0  0  0  0  0  0
  140.1750   69.3650  226.8500 C   0  0  0  0  0  0  0  0  0  0  0  0
  139.6120   67.6940  226.8410 Cl  0  0  0  0  0  0  0  0  0  0  0  0
  140.6280   69.9710  228.0090 C   0  0  0  0  0  0  0  0  0  0  0  0
  141.0740   71.2790  228.0430 C   0  0  0  0  0  0  0  0  0  0  0  0
  141.0580   71.9980  226.8460 C   0  0  0  0  0  0  0  0  0  0  0  0
  140.6060   71.3940  225.6830 C   0  0  0  0  0  0  0  0  0  0  0  0
  140.6030   72.1160  224.5480 N   0  0  0  0  0  0  0  0  0  0  0  0
  139.2540   74.1500  223.1050 H   0  0  0  0  0  0  0  0  0  0  0  0
  140.0602   74.0523  220.1822 H   0  0  0  0  0  0  0  0  0  0  0  0
  138.6457   74.9533  220.8317 H   0  0  0  0  0  0  0  0  0  0  0  0
  141.9517   74.9870  219.2550 H   0  0  0  0  0  0  0  0  0  0  0  0
  141.0325   76.0215  218.1302 H   0  0  0  0  0  0  0  0  0  0  0  0
  143.5239   76.7976  219.7164 H   0  0  0  0  0  0  0  0  0  0  0  0
  143.4124   76.5004  217.9356 H   0  0  0  0  0  0  0  0  0  0  0  0
  143.1721   78.9203  219.2294 H   0  0  0  0  0  0  0  0  0  0  0  0
  142.6448   78.4861  217.5258 H   0  0  0  0  0  0  0  0  0  0  0  0
  141.0325   79.7237  219.0688 H   0  0  0  0  0  0  0  0  0  0  0  0
  140.4939   78.2686  218.0861 H   0  0  0  0  0  0  0  0  0  0  0  0
  139.4694   78.0304  220.1059 H   0  0  0  0  0  0  0  0  0  0  0  0
  138.8752   78.7914  222.1487 H   0  0  0  0  0  0  0  0  0  0  0  0
  139.4630   79.9748  224.2255 H   0  0  0  0  0  0  0  0  0  0  0  0
  141.8432   80.5714  224.7148 H   0  0  0  0  0  0  0  0  0  0  0  0
  143.5660   79.9235  223.0281 H   0  0  0  0  0  0  0  0  0  0  0  0
  139.3870   69.8947  222.3649 H   0  0  0  0  0  0  0  0  0  0  0  0
  139.3668   68.5055  224.4262 H   0  0  0  0  0  0  0  0  0  0  0  0
  140.6333   69.3877  228.9416 H   0  0  0  0  0  0  0  0  0  0  0  0
  141.4284   71.7366  228.9784 H   0  0  0  0  0  0  0  0  0  0  0  0
  141.4035   73.0421  226.8260 H   0  0  0  0  0  0  0  0  0  0  0  0
  1  2  2  0
  2  3  1  0
  3  4  1  0
  4  5  1  0
  5  6  2  0
  5  7  1  0
  7  8  1  0
  8  9  1  0
  9 10  1  0
 10 11  1  0
 11 12  1  0
 12 13  1  0
 13 14  2  0
 14 15  1  0
 15 16  2  0
 16 17  1  0
 17 18  2  0
  2 19  1  0
 19 20  2  0
 20 21  1  0
 21 22  2  0
 22 23  1  0
 23 24  1  0
 23 25  2  0
 25 26  1  0
 26 27  2  0
 27 28  1  0
 28 29  2  0
 12  7  1  0
 18 13  1  0
 29 19  1  0
 28 22  1  0
  3 30  1  0
  4 31  1  0
  4 32  1  0
  8 33  1  0
  8 34  1  0
  9 35  1  0
  9 36  1  0
 10 37  1  0
 10 38  1  0
 11 39  1  0
 11 40  1  0
 12 41  1  6
 14 42  1  0
 15 43  1  0
 16 44  1  0
 17 45  1  0
 20 46  1  0
 21 47  1  0
 25 48  1  0
 26 49  1  0
 27 50  1  0
M  END
>  <smiles>  (18) 
O=C(NCC(=O)N1CCCCC1c1ccccn1)c1ccc2c(Cl)cccc2n1

>  <score_type>  (18) 
oracle

>  <origin>  (18) 
autodockgpu

>  <m_score__min__energy>  (18) 
-9.1099999999999994

>  <m_primary>  (18) 
energy

>  <rmsd>  (18) 
2.3048872189953147

>  <m_score__min__rmsd>  (18) 
2.3048872189953147

>  <meeko>  (18) 
{"free_energy": -9.09, "intermolecular_energy": -10.58, "internal_energy": -1.65, "cluster_size": 14, "cluster_id": 1, "rank_in_cluster": 2}

>  <energy>  (18) 
-8.44

>  <cluster_rmsd>  (18) 
1.99

>  <cluster>  (18) 
2

$$$$

     RDKit          3D

 50 53  0  0  0  0  0  0  0  0999 V2000
  140.9910   72.3910  221.1900 O   0  0  0  0  0  0  0  0  0  0  0  0
  140.2580   72.7010  222.1850 C   0  0  0  0  0  0  0  0  0  0  0  0
  139.4930   73.8830  222.2450 N   0  0  0  0  0  0  0  0  0  0  0  0
  139.5150   74.8220  221.1370 C   0  0  0  0  0  0  0  0  0  0  0  0
  140.8690   75.4240  221.0160 C   0  0  0  0  0  0  0  0  0  0  0  0
  141.7450   75.1050  221.8590 O   0  0  0  0  0  0  0  0  0  0  0  0
  141.0960   76.3320  219.9480 N   0  0  0  0  0  0  0  0  0  0  0  0
  141.8010   75.9580  218.7340 C   0  0  0  0  0  0  0  0  0  0  0  0
  142.9160   76.9430  218.5310 C   0  0  0  0  0  0  0  0  0  0  0  0
  142.3940   78.3390  218.4640 C   0  0  0  0  0  0  0  0  0  0  0  0
  140.9770   78.4930  218.9050 C   0  0  0  0  0  0  0  0  0  0  0  0
  140.6000   77.6750  220.0910 C   0  0  2  0  0  0  0  0  0  0  0  0
  140.9380   78.3070  221.3900 C   0  0  0  0  0  0  0  0  0  0  0  0
  140.0300   78.4200  222.4320 C   0  0  0  0  0  0  0  0  0  0  0  0
  140.3700   79.0140  223.6350 C   0  0  0  0  0  0  0  0  0  0  0  0
  141.6380   79.5190  223.8400 C   0  0  0  0  0  0  0  0  0  0  0  0
  142.5280   79.3960  222.7890 C   0  0  0  0  0  0  0  0  0  0  0  0
  142.1790   78.8150  221.6250 N   0  0  0  0  0  0  0  0  0  0  0  0
  140.2120   71.7670  223.3300 C   0  0  0  0  0  0  0  0  0  0  0  0
  139.7430   70.4800  223.1770 C   0  0  0  0  0  0  0  0  0  0  0  0
  139.7080   69.6160  224.2650 C   0  0  0  0  0  0  0  0  0  0  0  0
  140.1400   70.0400  225.5060 C   0  0  0  0  0  0  0  0  0  0  0  0
  140.1340   69.2410  226.6260 C   0  0  0  0  0  0  0  0  0  0  0  0
  139.5450   67.5860  226.4820 Cl  0  0  0  0  0  0  0  0  0  0  0  0
  140.5860   69.7470  227.8330 C   0  0  0  0  0  0  0  0  0  0  0  0
  141.0540   71.0410  227.9740 C   0  0  0  0  0  0  0  0  0  0  0  0
  141.0600   71.8510  226.8380 C   0  0  0  0  0  0  0  0  0  0  0  0
  140.6090   71.3480  225.6270 C   0  0  0  0  0  0  0  0  0  0  0  0
  140.6280   72.1570  224.5520 N   0  0  0  0  0  0  0  0  0  0  0  0
  138.8950   74.1150  223.0790 H   0  0  0  0  0  0  0  0  0  0  0  0
  139.2654   74.2936  220.2051 H   0  0  0  0  0  0  0  0  0  0  0  0
  138.7779   75.6178  221.3197 H   0  0  0  0  0  0  0  0  0  0  0  0
  142.2121   74.9430  218.8372 H   0  0  0  0  0  0  0  0  0  0  0  0
  141.1168   75.9681  217.8728 H   0  0  0  0  0  0  0  0  0  0  0  0
  143.6227   76.8636  219.3702 H   0  0  0  0  0  0  0  0  0  0  0  0
  143.4177   76.7116  217.5798 H   0  0  0  0  0  0  0  0  0  0  0  0
  143.0241   78.9723  219.1059 H   0  0  0  0  0  0  0  0  0  0  0  0
  142.4250   78.6334  217.4046 H   0  0  0  0  0  0  0  0  0  0  0  0
  140.8085   79.5516  219.1518 H   0  0  0  0  0  0  0  0  0  0  0  0
  140.3529   78.1370  218.0721 H   0  0  0  0  0  0  0  0  0  0  0  0
  139.5017   77.6194  220.1179 H   0  0  0  0  0  0  0  0  0  0  0  0
  139.0114   78.0267  222.2988 H   0  0  0  0  0  0  0  0  0  0  0  0
  139.6207   79.0844  224.4372 H   0  0  0  0  0  0  0  0  0  0  0  0
  141.9254   79.9943  224.7895 H   0  0  0  0  0  0  0  0  0  0  0  0
  143.5506   79.7838  222.9069 H   0  0  0  0  0  0  0  0  0  0  0  0
  139.3956   70.1360  222.1916 H   0  0  0  0  0  0  0  0  0  0  0  0
  139.3343   68.5894  224.1369 H   0  0  0  0  0  0  0  0  0  0  0  0
  140.5723   69.0924  228.7169 H   0  0  0  0  0  0  0  0  0  0  0  0
  141.4081   71.4172  228.9451 H   0  0  0  0  0  0  0  0  0  0  0  0
  141.4221   72.8876  226.9029 H   0  0  0  0  0  0  0  0  0  0  0  0
  1  2  2  0
  2  3  1  0
  3  4  1  0
  4  5  1  0
  5  6  2  0
  5  7  1  0
  7  8  1  0
  8  9  1  0
  9 10  1  0
 10 11  1  0
 11 12  1  0
 12 13  1  0
 13 14  2  0
 14 15  1  0
 15 16  2  0
 16 17  1  0
 17 18  2  0
  2 19  1  0
 19 20  2  0
 20 21  1  0
 21 22  2  0
 22 23  1  0
 23 24  1  0
 23 25  2  0
 25 26  1  0
 26 27  2  0
 27 28  1  0
 28 29  2  0
 12  7  1  0
 18 13  1  0
 29 19  1  0
 28 22  1  0
  3 30  1  0
  4 31  1  0
  4 32  1  0
  8 33  1  0
  8 34  1  0
  9 35  1  0
  9 36  1  0
 10 37  1  0
 10 38  1  0
 11 39  1  0
 11 40  1  0
 12 41  1  1
 14 42  1  0
 15 43  1  0
 16 44  1  0
 17 45  1  0
 20 46  1  0
 21 47  1  0
 25 48  1  0
 26 49  1  0
 27 50  1  0
M  END
>  <smiles>  (19) 
O=C(NCC(=O)N1CCCCC1c1ccccn1)c1ccc2c(Cl)cccc2n1

>  <score_type>  (19) 
oracle

>  <origin>  (19) 
autodockgpu

>  <m_score__min__energy>  (19) 
-9.1099999999999994

>  <m_primary>  (19) 
energy

>  <rmsd>  (19) 
2.3898745486391864

>  <m_score__min__rmsd>  (19) 
2.3898745486391864

>  <meeko>  (19) 
{"free_energy": -8.83, "intermolecular_energy": -10.32, "internal_energy": -1.51, "cluster_size": 14, "cluster_id": 1, "rank_in_cluster": 7}

>  <energy>  (19) 
-8.38

>  <cluster_rmsd>  (19) 
0.14

>  <cluster>  (19) 
2

$$$$

     RDKit          3D

 50 53  0  0  0  0  0  0  0  0999 V2000
  140.5760   71.5560  221.1380 O   0  0  0  0  0  0  0  0  0  0  0  0
  140.2620   72.1890  222.1970 C   0  0  0  0  0  0  0  0  0  0  0  0
  139.9420   73.5620  222.2130 N   0  0  0  0  0  0  0  0  0  0  0  0
  139.9610   74.3280  220.9800 C   0  0  0  0  0  0  0  0  0  0  0  0
  140.2050   75.7620  221.2820 C   0  0  0  0  0  0  0  0  0  0  0  0
  140.0650   76.1580  222.4670 O   0  0  0  0  0  0  0  0  0  0  0  0
  140.5850   76.6100  220.2080 N   0  0  0  0  0  0  0  0  0  0  0  0
  141.1910   76.1070  218.9860 C   0  0  0  0  0  0  0  0  0  0  0  0
  142.4690   76.8640  218.7640 C   0  0  0  0  0  0  0  0  0  0  0  0
  142.2200   78.3320  218.6990 C   0  0  0  0  0  0  0  0  0  0  0  0
  140.8630   78.7530  219.1580 C   0  0  0  0  0  0  0  0  0  0  0  0
  140.3550   78.0220  220.3520 C   0  0  2  0  0  0  0  0  0  0  0  0
  140.8240   78.5810  221.6440 C   0  0  0  0  0  0  0  0  0  0  0  0
  142.1600   78.8460  221.9100 C   0  0  0  0  0  0  0  0  0  0  0  0
  142.5730   79.3690  223.1220 C   0  0  0  0  0  0  0  0  0  0  0  0
  141.6600   79.6480  224.1190 C   0  0  0  0  0  0  0  0  0  0  0  0
  140.3340   79.3760  223.8340 C   0  0  0  0  0  0  0  0  0  0  0  0
  139.9500   78.8670  222.6480 N   0  0  0  0  0  0  0  0  0  0  0  0
  140.2330   71.4390  223.4710 C   0  0  0  0  0  0  0  0  0  0  0  0
  139.7940   70.1340  223.5150 C   0  0  0  0  0  0  0  0  0  0  0  0
  139.7740   69.4450  224.7220 C   0  0  0  0  0  0  0  0  0  0  0  0
  140.1930   70.0620  225.8840 C   0  0  0  0  0  0  0  0  0  0  0  0
  140.2020   69.4430  227.1130 C   0  0  0  0  0  0  0  0  0  0  0  0
  139.6490   67.7720  227.2220 Cl  0  0  0  0  0  0  0  0  0  0  0  0
  140.6390   70.1360  228.2290 C   0  0  0  0  0  0  0  0  0  0  0  0
  141.0770   71.4460  228.1710 C   0  0  0  0  0  0  0  0  0  0  0  0
  141.0690   72.0740  226.9250 C   0  0  0  0  0  0  0  0  0  0  0  0
  140.6330   71.3840  225.8050 C   0  0  0  0  0  0  0  0  0  0  0  0
  140.6380   72.0200  224.6190 N   0  0  0  0  0  0  0  0  0  0  0  0
  139.6850   74.0610  223.1020 H   0  0  0  0  0  0  0  0  0  0  0  0
  140.7625   73.9506  220.3280 H   0  0  0  0  0  0  0  0  0  0  0  0
  138.9905   74.2237  220.4727 H   0  0  0  0  0  0  0  0  0  0  0  0
  141.4049   75.0329  219.0887 H   0  0  0  0  0  0  0  0  0  0  0  0
  140.5094   76.2441  218.1336 H   0  0  0  0  0  0  0  0  0  0  0  0
  143.1598   76.6534  219.5937 H   0  0  0  0  0  0  0  0  0  0  0  0
  142.9039   76.5412  217.8066 H   0  0  0  0  0  0  0  0  0  0  0  0
  142.9672   78.8351  219.3304 H   0  0  0  0  0  0  0  0  0  0  0  0
  142.2917   78.6138  217.6381 H   0  0  0  0  0  0  0  0  0  0  0  0
  140.9015   79.8246  219.4032 H   0  0  0  0  0  0  0  0  0  0  0  0
  140.1711   78.5218  218.3347 H   0  0  0  0  0  0  0  0  0  0  0  0
  139.2664   78.1745  220.3935 H   0  0  0  0  0  0  0  0  0  0  0  0
  142.9116   78.6342  221.1352 H   0  0  0  0  0  0  0  0  0  0  0  0
  143.6417   79.5650  223.2934 H   0  0  0  0  0  0  0  0  0  0  0  0
  141.9704   80.0645  225.0886 H   0  0  0  0  0  0  0  0  0  0  0  0
  139.5707   79.5816  224.5989 H   0  0  0  0  0  0  0  0  0  0  0  0
  139.4587   69.6363  222.5932 H   0  0  0  0  0  0  0  0  0  0  0  0
  139.4226   68.4030  224.7516 H   0  0  0  0  0  0  0  0  0  0  0  0
  140.6377   69.6231  229.2021 H   0  0  0  0  0  0  0  0  0  0  0  0
  141.4191   71.9736  229.0736 H   0  0  0  0  0  0  0  0  0  0  0  0
  141.4086   73.1161  226.8318 H   0  0  0  0  0  0  0  0  0  0  0  0
  1  2  2  0
  2  3  1  0
  3  4  1  0
  4  5  1  0
  5  6  2  0
  5  7  1  0
  7  8  1  0
  8  9  1  0
  9 10  1  0
 10 11  1  0
 11 12  1  0
 12 13  1  0
 13 14  2  0
 14 15  1  0
 15 16  2  0
 16 17  1  0
 17 18  2  0
  2 19  1  0
 19 20  2  0
 20 21  1  0
 21 22  2  0
 22 23  1  0
 23 24  1  0
 23 25  2  0
 25 26  1  0
 26 27  2  0
 27 28  1  0
 28 29  2  0
 12  7  1  0
 18 13  1  0
 29 19  1  0
 28 22  1  0
  3 30  1  0
  4 31  1  0
  4 32  1  0
  8 33  1  0
  8 34  1  0
  9 35  1  0
  9 36  1  0
 10 37  1  0
 10 38  1  0
 11 39  1  0
 11 40  1  0
 12 41  1  1
 14 42  1  0
 15 43  1  0
 16 44  1  0
 17 45  1  0
 20 46  1  0
 21 47  1  0
 25 48  1  0
 26 49  1  0
 27 50  1  0
M  END
>  <smiles>  (20) 
O=C(NCC(=O)N1CCCCC1c1ccccn1)c1ccc2c(Cl)cccc2n1

>  <score_type>  (20) 
oracle

>  <origin>  (20) 
autodockgpu

>  <m_score__min__energy>  (20) 
-9.1099999999999994

>  <m_primary>  (20) 
energy

>  <rmsd>  (20) 
2.261402287112092

>  <m_score__min__rmsd>  (20) 
2.261402287112092

>  <meeko>  (20) 
{"free_energy": -8.89, "intermolecular_energy": -10.38, "internal_energy": -1.83, "cluster_size": 14, "cluster_id": 1, "rank_in_cluster": 6}

>  <energy>  (20) 
-8.34

>  <cluster_rmsd>  (20) 
0.53

>  <cluster>  (20) 
2

$$$$

     RDKit          3D

 50 53  0  0  0  0  0  0  0  0999 V2000
  139.0780   73.9060  221.7010 O   0  0  0  0  0  0  0  0  0  0  0  0
  140.2130   74.4820  221.7000 C   0  0  0  0  0  0  0  0  0  0  0  0
  140.4140   75.7990  222.1640 N   0  0  0  0  0  0  0  0  0  0  0  0
  139.2940   76.5690  222.6750 C   0  0  0  0  0  0  0  0  0  0  0  0
  139.2820   77.9160  222.0470 C   0  0  0  0  0  0  0  0  0  0  0  0
  138.4960   78.1240  221.0890 O   0  0  0  0  0  0  0  0  0  0  0  0
  140.1660   78.8970  222.5690 N   0  0  0  0  0  0  0  0  0  0  0  0
  139.7080   80.0250  223.3650 C   0  0  0  0  0  0  0  0  0  0  0  0
  140.2370   81.2770  222.7280 C   0  0  0  0  0  0  0  0  0  0  0  0
  141.7240   81.2400  222.6200 C   0  0  0  0  0  0  0  0  0  0  0  0
  142.3300   79.8980  222.8670 C   0  0  0  0  0  0  0  0  0  0  0  0
  141.5690   78.7550  222.2900 C   0  0  2  0  0  0  0  0  0  0  0  0
  141.8760   78.4880  220.8630 C   0  0  0  0  0  0  0  0  0  0  0  0
  141.8220   79.4700  219.8840 C   0  0  0  0  0  0  0  0  0  0  0  0
  142.1150   79.1970  218.5590 C   0  0  0  0  0  0  0  0  0  0  0  0
  142.4730   77.9240  218.1630 C   0  0  0  0  0  0  0  0  0  0  0  0
  142.5200   76.9600  219.1540 C   0  0  0  0  0  0  0  0  0  0  0  0
  142.2330   77.2450  220.4380 N   0  0  0  0  0  0  0  0  0  0  0  0
  141.3750   73.7270  221.1860 C   0  0  0  0  0  0  0  0  0  0  0  0
  141.2440   72.4170  220.7770 C   0  0  0  0  0  0  0  0  0  0  0  0
  142.3480   71.7230  220.2960 C   0  0  0  0  0  0  0  0  0  0  0  0
  143.5820   72.3380  220.2250 C   0  0  0  0  0  0  0  0  0  0  0  0
  144.7170   71.7140  219.7610 C   0  0  0  0  0  0  0  0  0  0  0  0
  144.6010   70.0380  219.2250 Cl  0  0  0  0  0  0  0  0  0  0  0  0
  145.9150   72.4060  219.7230 C   0  0  0  0  0  0  0  0  0  0  0  0
  146.0340   73.7200  220.1370 C   0  0  0  0  0  0  0  0  0  0  0  0
  144.8830   74.3530  220.6080 C   0  0  0  0  0  0  0  0  0  0  0  0
  143.6800   73.6640  220.6470 C   0  0  0  0  0  0  0  0  0  0  0  0
  142.5910   74.3060  221.1070 N   0  0  0  0  0  0  0  0  0  0  0  0
  141.3630   76.2520  222.1520 H   0  0  0  0  0  0  0  0  0  0  0  0
  138.3545   76.0477  222.4394 H   0  0  0  0  0  0  0  0  0  0  0  0
  139.3942   76.6770  223.7651 H   0  0  0  0  0  0  0  0  0  0  0  0
  138.6084   80.0493  223.3827 H   0  0  0  0  0  0  0  0  0  0  0  0
  140.0682   79.9375  224.4007 H   0  0  0  0  0  0  0  0  0  0  0  0
  139.8064   81.3767  221.7207 H   0  0  0  0  0  0  0  0  0  0  0  0
  139.9545   82.1341  223.3569 H   0  0  0  0  0  0  0  0  0  0  0  0
  142.0028   81.5613  221.6056 H   0  0  0  0  0  0  0  0  0  0  0  0
  142.1111   81.9070  223.4044 H   0  0  0  0  0  0  0  0  0  0  0  0
  143.3396   79.8925  222.4304 H   0  0  0  0  0  0  0  0  0  0  0  0
  142.3288   79.7528  223.9574 H   0  0  0  0  0  0  0  0  0  0  0  0
  141.9129   77.8410  222.7964 H   0  0  0  0  0  0  0  0  0  0  0  0
  141.5384   80.4939  220.1689 H   0  0  0  0  0  0  0  0  0  0  0  0
  142.0620   80.0037  217.8131 H   0  0  0  0  0  0  0  0  0  0  0  0
  142.7085   77.6886  217.1146 H   0  0  0  0  0  0  0  0  0  0  0  0
  142.8000   75.9308  218.8851 H   0  0  0  0  0  0  0  0  0  0  0  0
  140.2641   71.9202  220.8314 H   0  0  0  0  0  0  0  0  0  0  0  0
  142.2380   70.6781  219.9702 H   0  0  0  0  0  0  0  0  0  0  0  0
  146.8103   71.8889  219.3476 H   0  0  0  0  0  0  0  0  0  0  0  0
  146.9991   74.2462  220.0966 H   0  0  0  0  0  0  0  0  0  0  0  0
  144.9298   75.3980  220.9482 H   0  0  0  0  0  0  0  0  0  0  0  0
  1  2  2  0
  2  3  1  0
  3  4  1  0
  4  5  1  0
  5  6  2  0
  5  7  1  0
  7  8  1  0
  8  9  1  0
  9 10  1  0
 10 11  1  0
 11 12  1  0
 12 13  1  0
 13 14  2  0
 14 15  1  0
 15 16  2  0
 16 17  1  0
 17 18  2  0
  2 19  1  0
 19 20  2  0
 20 21  1  0
 21 22  2  0
 22 23  1  0
 23 24  1  0
 23 25  2  0
 25 26  1  0
 26 27  2  0
 27 28  1  0
 28 29  2  0
 12  7  1  0
 18 13  1  0
 29 19  1  0
 28 22  1  0
  3 30  1  0
  4 31  1  0
  4 32  1  0
  8 33  1  0
  8 34  1  0
  9 35  1  0
  9 36  1  0
 10 37  1  0
 10 38  1  0
 11 39  1  0
 11 40  1  0
 12 41  1  1
 14 42  1  0
 15 43  1  0
 16 44  1  0
 17 45  1  0
 20 46  1  0
 21 47  1  0
 25 48  1  0
 26 49  1  0
 27 50  1  0
M  END
>  <smiles>  (21) 
O=C(NCC(=O)N1CCCCC1c1ccccn1)c1ccc2c(Cl)cccc2n1

>  <score_type>  (21) 
oracle

>  <origin>  (21) 
autodockgpu

>  <m_score__min__energy>  (21) 
-9.1099999999999994

>  <m_primary>  (21) 
energy

>  <rmsd>  (21) 
5.847288252690737

>  <m_score__min__rmsd>  (21) 
5.847288252690737

>  <meeko>  (21) 
{"free_energy": -6.94, "intermolecular_energy": -8.43, "internal_energy": -2.96, "cluster_size": 9, "cluster_id": 3, "rank_in_cluster": 7}

>  <energy>  (21) 
-7.75

>  <cluster_rmsd>  (21) 
0.79

>  <cluster>  (21) 
2

$$$$

     RDKit          3D

 50 53  0  0  0  0  0  0  0  0999 V2000
  142.1060   77.6030  217.0040 O   0  0  0  0  0  0  0  0  0  0  0  0
  142.5510   77.2990  218.1580 C   0  0  0  0  0  0  0  0  0  0  0  0
  142.4750   78.1640  219.2690 N   0  0  0  0  0  0  0  0  0  0  0  0
  141.8680   79.4750  219.1310 C   0  0  0  0  0  0  0  0  0  0  0  0
  140.7040   79.5890  220.0490 C   0  0  0  0  0  0  0  0  0  0  0  0
  139.5480   79.4730  219.5690 O   0  0  0  0  0  0  0  0  0  0  0  0
  140.9670   79.8240  221.4250 N   0  0  0  0  0  0  0  0  0  0  0  0
  141.9100   80.8300  221.8840 C   0  0  0  0  0  0  0  0  0  0  0  0
  142.8840   80.1550  222.8060 C   0  0  0  0  0  0  0  0  0  0  0  0
  142.1810   79.4920  223.9410 C   0  0  0  0  0  0  0  0  0  0  0  0
  140.7030   79.3710  223.7690 C   0  0  0  0  0  0  0  0  0  0  0  0
  140.2620   79.0240  222.3890 C   0  0  2  0  0  0  0  0  0  0  0  0
  140.2840   77.5690  222.0990 C   0  0  0  0  0  0  0  0  0  0  0  0
  139.2130   76.7310  222.3690 C   0  0  0  0  0  0  0  0  0  0  0  0
  139.2580   75.3760  222.0870 C   0  0  0  0  0  0  0  0  0  0  0  0
  140.3820   74.8090  221.5240 C   0  0  0  0  0  0  0  0  0  0  0  0
  141.4390   75.6620  221.2640 C   0  0  0  0  0  0  0  0  0  0  0  0
  141.3780   76.9780  221.5440 N   0  0  0  0  0  0  0  0  0  0  0  0
  143.1750   75.9710  218.3340 C   0  0  0  0  0  0  0  0  0  0  0  0
  143.0650   75.0010  217.3610 C   0  0  0  0  0  0  0  0  0  0  0  0
  143.6600   73.7580  217.5440 C   0  0  0  0  0  0  0  0  0  0  0  0
  144.3630   73.4850  218.7000 C   0  0  0  0  0  0  0  0  0  0  0  0
  144.9770   72.2790  218.9500 C   0  0  0  0  0  0  0  0  0  0  0  0
  144.8660   71.0070  217.7350 Cl  0  0  0  0  0  0  0  0  0  0  0  0
  145.6630   72.0900  220.1370 C   0  0  0  0  0  0  0  0  0  0  0  0
  145.7660   73.0710  221.1060 C   0  0  0  0  0  0  0  0  0  0  0  0
  145.1430   74.2940  220.8530 C   0  0  0  0  0  0  0  0  0  0  0  0
  144.4560   74.4890  219.6650 C   0  0  0  0  0  0  0  0  0  0  0  0
  143.8680   75.6800  219.4550 N   0  0  0  0  0  0  0  0  0  0  0  0
  142.8500   77.8880  220.2130 H   0  0  0  0  0  0  0  0  0  0  0  0
  142.6085   80.2488  219.3820 H   0  0  0  0  0  0  0  0  0  0  0  0
  141.5278   79.6109  218.0938 H   0  0  0  0  0  0  0  0  0  0  0  0
  142.4447   81.2620  221.0252 H   0  0  0  0  0  0  0  0  0  0  0  0
  141.3834   81.6419  222.4070 H   0  0  0  0  0  0  0  0  0  0  0  0
  143.4470   79.3975  222.2410 H   0  0  0  0  0  0  0  0  0  0  0  0
  143.5629   80.9180  223.2147 H   0  0  0  0  0  0  0  0  0  0  0  0
  142.5970   78.4805  224.0588 H   0  0  0  0  0  0  0  0  0  0  0  0
  142.3418   80.1291  224.8231 H   0  0  0  0  0  0  0  0  0  0  0  0
  140.3420   78.5872  224.4511 H   0  0  0  0  0  0  0  0  0  0  0  0
  140.2830   80.3637  223.9884 H   0  0  0  0  0  0  0  0  0  0  0  0
  139.1949   79.2786  222.3088 H   0  0  0  0  0  0  0  0  0  0  0  0
  138.3029   77.1539  222.8194 H   0  0  0  0  0  0  0  0  0  0  0  0
  138.3867   74.7443  222.3148 H   0  0  0  0  0  0  0  0  0  0  0  0
  140.4350   73.7347  221.2938 H   0  0  0  0  0  0  0  0  0  0  0  0
  142.3566   75.2537  220.8153 H   0  0  0  0  0  0  0  0  0  0  0  0
  142.5052   75.2109  216.4376 H   0  0  0  0  0  0  0  0  0  0  0  0
  143.5701   72.9881  216.7635 H   0  0  0  0  0  0  0  0  0  0  0  0
  146.1466   71.1186  220.3172 H   0  0  0  0  0  0  0  0  0  0  0  0
  146.3181   72.8942  222.0409 H   0  0  0  0  0  0  0  0  0  0  0  0
  145.1972   75.1031  221.5963 H   0  0  0  0  0  0  0  0  0  0  0  0
  1  2  2  0
  2  3  1  0
  3  4  1  0
  4  5  1  0
  5  6  2  0
  5  7  1  0
  7  8  1  0
  8  9  1  0
  9 10  1  0
 10 11  1  0
 11 12  1  0
 12 13  1  0
 13 14  2  0
 14 15  1  0
 15 16  2  0
 16 17  1  0
 17 18  2  0
  2 19  1  0
 19 20  2  0
 20 21  1  0
 21 22  2  0
 22 23  1  0
 23 24  1  0
 23 25  2  0
 25 26  1  0
 26 27  2  0
 27 28  1  0
 28 29  2  0
 12  7  1  0
 18 13  1  0
 29 19  1  0
 28 22  1  0
  3 30  1  0
  4 31  1  0
  4 32  1  0
  8 33  1  0
  8 34  1  0
  9 35  1  0
  9 36  1  0
 10 37  1  0
 10 38  1  0
 11 39  1  0
 11 40  1  0
 12 41  1  1
 14 42  1  0
 15 43  1  0
 16 44  1  0
 17 45  1  0
 20 46  1  0
 21 47  1  0
 25 48  1  0
 26 49  1  0
 27 50  1  0
M  END
>  <smiles>  (22) 
O=C(NCC(=O)N1CCCCC1c1ccccn1)c1ccc2c(Cl)cccc2n1

>  <score_type>  (22) 
oracle

>  <origin>  (22) 
autodockgpu

>  <m_score__min__energy>  (22) 
-9.1099999999999994

>  <m_primary>  (22) 
energy

>  <rmsd>  (22) 
7.345184856022439

>  <m_score__min__rmsd>  (22) 
7.345184856022439

>  <meeko>  (22) 
{"free_energy": -6.84, "intermolecular_energy": -8.33, "internal_energy": -3.07, "cluster_size": 5, "cluster_id": 5, "rank_in_cluster": 3}

>  <energy>  (22) 
-7.67

>  <cluster_rmsd>  (22) 
0.78

>  <cluster>  (22) 
2

$$$$

     RDKit          3D

 50 53  0  0  0  0  0  0  0  0999 V2000
  139.0540   75.0570  221.8550 O   0  0  0  0  0  0  0  0  0  0  0  0
  140.2070   75.5970  221.8370 C   0  0  0  0  0  0  0  0  0  0  0  0
  141.4020   74.8660  221.6770 N   0  0  0  0  0  0  0  0  0  0  0  0
  141.3570   73.4230  221.5220 C   0  0  0  0  0  0  0  0  0  0  0  0
  141.8080   73.0500  220.1560 C   0  0  0  0  0  0  0  0  0  0  0  0
  140.9400   72.8750  219.2640 O   0  0  0  0  0  0  0  0  0  0  0  0
  143.2050   72.9120  219.9350 N   0  0  0  0  0  0  0  0  0  0  0  0
  144.0620   72.1170  220.7980 C   0  0  0  0  0  0  0  0  0  0  0  0
  145.1970   72.9920  221.2450 C   0  0  0  0  0  0  0  0  0  0  0  0
  145.9420   73.5450  220.0780 C   0  0  0  0  0  0  0  0  0  0  0  0
  145.2510   73.3790  218.7660 C   0  0  0  0  0  0  0  0  0  0  0  0
  143.7770   73.5940  218.8060 C   0  0  2  0  0  0  0  0  0  0  0  0
  143.3740   75.0170  218.6920 C   0  0  0  0  0  0  0  0  0  0  0  0
  143.1000   75.6280  217.4770 C   0  0  0  0  0  0  0  0  0  0  0  0
  142.7240   76.9570  217.3970 C   0  0  0  0  0  0  0  0  0  0  0  0
  142.6080   77.7280  218.5360 C   0  0  0  0  0  0  0  0  0  0  0  0
  142.8850   77.1000  219.7370 C   0  0  0  0  0  0  0  0  0  0  0  0
  143.2500   75.8050  219.7950 N   0  0  0  0  0  0  0  0  0  0  0  0
  140.2890   77.0650  221.9920 C   0  0  0  0  0  0  0  0  0  0  0  0
  139.3140   77.8880  221.4720 C   0  0  0  0  0  0  0  0  0  0  0  0
  139.4080   79.2660  221.6280 C   0  0  0  0  0  0  0  0  0  0  0  0
  140.4770   79.8200  222.3040 C   0  0  0  0  0  0  0  0  0  0  0  0
  140.6360   81.1730  222.4970 C   0  0  0  0  0  0  0  0  0  0  0  0
  139.4140   82.2680  221.8510 Cl  0  0  0  0  0  0  0  0  0  0  0  0
  141.7390   81.6440  223.1870 C   0  0  0  0  0  0  0  0  0  0  0  0
  142.7110   80.8070  223.7040 C   0  0  0  0  0  0  0  0  0  0  0  0
  142.5510   79.4350  223.5080 C   0  0  0  0  0  0  0  0  0  0  0  0
  141.4460   78.9590  222.8180 C   0  0  0  0  0  0  0  0  0  0  0  0
  141.3240   77.6300  222.6480 N   0  0  0  0  0  0  0  0  0  0  0  0
  142.3430   75.3360  221.6660 H   0  0  0  0  0  0  0  0  0  0  0  0
  142.0186   72.9549  222.2657 H   0  0  0  0  0  0  0  0  0  0  0  0
  140.3250   73.0732  221.6723 H   0  0  0  0  0  0  0  0  0  0  0  0
  143.4926   71.7666  221.6715 H   0  0  0  0  0  0  0  0  0  0  0  0
  144.4429   71.2374  220.2583 H   0  0  0  0  0  0  0  0  0  0  0  0
  144.7953   73.8243  221.8416 H   0  0  0  0  0  0  0  0  0  0  0  0
  145.8903   72.3845  221.8452 H   0  0  0  0  0  0  0  0  0  0  0  0
  146.0995   74.6201  220.2494 H   0  0  0  0  0  0  0  0  0  0  0  0
  146.8817   72.9773  220.0100 H   0  0  0  0  0  0  0  0  0  0  0  0
  145.6833   74.1009  218.0575 H   0  0  0  0  0  0  0  0  0  0  0  0
  145.4038   72.3320  218.4651 H   0  0  0  0  0  0  0  0  0  0  0  0
  143.3515   73.1405  217.8986 H   0  0  0  0  0  0  0  0  0  0  0  0
  143.1841   75.0394  216.5515 H   0  0  0  0  0  0  0  0  0  0  0  0
  142.5150   77.4045  216.4141 H   0  0  0  0  0  0  0  0  0  0  0  0
  142.3109   78.7862  218.4910 H   0  0  0  0  0  0  0  0  0  0  0  0
  142.8048   77.6748  220.6714 H   0  0  0  0  0  0  0  0  0  0  0  0
  138.4595   77.4537  220.9323 H   0  0  0  0  0  0  0  0  0  0  0  0
  138.6268   79.9185  221.2108 H   0  0  0  0  0  0  0  0  0  0  0  0
  141.8472   82.7292  223.3303 H   0  0  0  0  0  0  0  0  0  0  0  0
  143.5780   81.2081  224.2494 H   0  0  0  0  0  0  0  0  0  0  0  0
  143.3003   78.7316  223.9002 H   0  0  0  0  0  0  0  0  0  0  0  0
  1  2  2  0
  2  3  1  0
  3  4  1  0
  4  5  1  0
  5  6  2  0
  5  7  1  0
  7  8  1  0
  8  9  1  0
  9 10  1  0
 10 11  1  0
 11 12  1  0
 12 13  1  0
 13 14  2  0
 14 15  1  0
 15 16  2  0
 16 17  1  0
 17 18  2  0
  2 19  1  0
 19 20  2  0
 20 21  1  0
 21 22  2  0
 22 23  1  0
 23 24  1  0
 23 25  2  0
 25 26  1  0
 26 27  2  0
 27 28  1  0
 28 29  2  0
 12  7  1  0
 18 13  1  0
 29 19  1  0
 28 22  1  0
  3 30  1  0
  4 31  1  0
  4 32  1  0
  8 33  1  0
  8 34  1  0
  9 35  1  0
  9 36  1  0
 10 37  1  0
 10 38  1  0
 11 39  1  0
 11 40  1  0
 12 41  1  6
 14 42  1  0
 15 43  1  0
 16 44  1  0
 17 45  1  0
 20 46  1  0
 21 47  1  0
 25 48  1  0
 26 49  1  0
 27 50  1  0
M  END
>  <smiles>  (23) 
O=C(NCC(=O)N1CCCCC1c1ccccn1)c1ccc2c(Cl)cccc2n1

>  <score_type>  (23) 
oracle

>  <origin>  (23) 
autodockgpu

>  <m_score__min__energy>  (23) 
-9.1099999999999994

>  <m_primary>  (23) 
energy

>  <rmsd>  (23) 
7.250216236229348

>  <m_score__min__rmsd>  (23) 
7.250216236229348

>  <meeko>  (23) 
{"free_energy": -7.11, "intermolecular_energy": -8.6, "internal_energy": -3.02, "cluster_size": 13, "cluster_id": 4, "rank_in_cluster": 11}

>  <energy>  (23) 
-6.88

>  <cluster_rmsd>  (23) 
1.94

>  <cluster>  (23) 
2

$$$$

     RDKit          3D

 50 53  0  0  0  0  0  0  0  0999 V2000
  142.2060   77.7180  216.9370 O   0  0  0  0  0  0  0  0  0  0  0  0
  142.6160   77.3880  218.0970 C   0  0  0  0  0  0  0  0  0  0  0  0
  142.4830   78.2170  219.2300 N   0  0  0  0  0  0  0  0  0  0  0  0
  141.8520   79.5190  219.1090 C   0  0  0  0  0  0  0  0  0  0  0  0
  140.6930   79.6040  220.0360 C   0  0  0  0  0  0  0  0  0  0  0  0
  139.5370   79.4640  219.5650 O   0  0  0  0  0  0  0  0  0  0  0  0
  140.9620   79.8420  221.4100 N   0  0  0  0  0  0  0  0  0  0  0  0
  141.9010   80.8540  221.8650 C   0  0  0  0  0  0  0  0  0  0  0  0
  142.8840   80.1850  222.7820 C   0  0  0  0  0  0  0  0  0  0  0  0
  142.1900   79.5180  223.9210 C   0  0  0  0  0  0  0  0  0  0  0  0
  140.7120   79.3890  223.7560 C   0  0  0  0  0  0  0  0  0  0  0  0
  140.2660   79.0390  222.3790 C   0  0  2  0  0  0  0  0  0  0  0  0
  140.2960   77.5840  222.0900 C   0  0  0  0  0  0  0  0  0  0  0  0
  139.2310   76.7390  222.3660 C   0  0  0  0  0  0  0  0  0  0  0  0
  139.2820   75.3840  222.0850 C   0  0  0  0  0  0  0  0  0  0  0  0
  140.4070   74.8240  221.5150 C   0  0  0  0  0  0  0  0  0  0  0  0
  141.4570   75.6830  221.2480 C   0  0  0  0  0  0  0  0  0  0  0  0
  141.3890   76.9990  221.5280 N   0  0  0  0  0  0  0  0  0  0  0  0
  143.2620   76.0680  218.2550 C   0  0  0  0  0  0  0  0  0  0  0  0
  143.3120   75.1730  217.2090 C   0  0  0  0  0  0  0  0  0  0  0  0
  143.9240   73.9370  217.3770 C   0  0  0  0  0  0  0  0  0  0  0  0
  144.4860   73.5960  218.5910 C   0  0  0  0  0  0  0  0  0  0  0  0
  145.1080   72.3920  218.8300 C   0  0  0  0  0  0  0  0  0  0  0  0
  145.1980   71.2130  217.5220 Cl  0  0  0  0  0  0  0  0  0  0  0  0
  145.6450   72.1320  220.0790 C   0  0  0  0  0  0  0  0  0  0  0  0
  145.5890   73.0390  221.1210 C   0  0  0  0  0  0  0  0  0  0  0  0
  144.9580   74.2600  220.8790 C   0  0  0  0  0  0  0  0  0  0  0  0
  144.4190   74.5250  219.6300 C   0  0  0  0  0  0  0  0  0  0  0  0
  143.8180   75.7130  219.4320 N   0  0  0  0  0  0  0  0  0  0  0  0
  142.8300   77.9210  220.1770 H   0  0  0  0  0  0  0  0  0  0  0  0
  142.5807   80.3031  219.3623 H   0  0  0  0  0  0  0  0  0  0  0  0
  141.5020   79.6588  218.0756 H   0  0  0  0  0  0  0  0  0  0  0  0
  142.4286   81.2898  221.0038 H   0  0  0  0  0  0  0  0  0  0  0  0
  141.3717   81.6622  222.3910 H   0  0  0  0  0  0  0  0  0  0  0  0
  143.4486   79.4307  222.2143 H   0  0  0  0  0  0  0  0  0  0  0  0
  143.5608   80.9518  223.1869 H   0  0  0  0  0  0  0  0  0  0  0  0
  142.6121   78.5088  224.0369 H   0  0  0  0  0  0  0  0  0  0  0  0
  142.3517   80.1560  224.8024 H   0  0  0  0  0  0  0  0  0  0  0  0
  140.3585   78.6037  224.4403 H   0  0  0  0  0  0  0  0  0  0  0  0
  140.2880   80.3797  223.9766 H   0  0  0  0  0  0  0  0  0  0  0  0
  139.1972   79.2880  222.3044 H   0  0  0  0  0  0  0  0  0  0  0  0
  138.3207   77.1569  222.8207 H   0  0  0  0  0  0  0  0  0  0  0  0
  138.4162   74.7470  222.3188 H   0  0  0  0  0  0  0  0  0  0  0  0
  140.4654   73.7499  221.2850 H   0  0  0  0  0  0  0  0  0  0  0  0
  142.3744   75.2802  220.7939 H   0  0  0  0  0  0  0  0  0  0  0  0
  142.8664   75.4374  216.2387 H   0  0  0  0  0  0  0  0  0  0  0  0
  143.9609   73.2263  216.5382 H   0  0  0  0  0  0  0  0  0  0  0  0
  146.1370   71.1631  220.2497 H   0  0  0  0  0  0  0  0  0  0  0  0
  146.0254   72.8070  222.1037 H   0  0  0  0  0  0  0  0  0  0  0  0
  144.8885   75.0116  221.6791 H   0  0  0  0  0  0  0  0  0  0  0  0
  1  2  2  0
  2  3  1  0
  3  4  1  0
  4  5  1  0
  5  6  2  0
  5  7  1  0
  7  8  1  0
  8  9  1  0
  9 10  1  0
 10 11  1  0
 11 12  1  0
 12 13  1  0
 13 14  2  0
 14 15  1  0
 15 16  2  0
 16 17  1  0
 17 18  2  0
  2 19  1  0
 19 20  2  0
 20 21  1  0
 21 22  2  0
 22 23  1  0
 23 24  1  0
 23 25  2  0
 25 26  1  0
 26 27  2  0
 27 28  1  0
 28 29  2  0
 12  7  1  0
 18 13  1  0
 29 19  1  0
 28 22  1  0
  3 30  1  0
  4 31  1  0
  4 32  1  0
  8 33  1  0
  8 34  1  0
  9 35  1  0
  9 36  1  0
 10 37  1  0
 10 38  1  0
 11 39  1  0
 11 40  1  0
 12 41  1  1
 14 42  1  0
 15 43  1  0
 16 44  1  0
 17 45  1  0
 20 46  1  0
 21 47  1  0
 25 48  1  0
 26 49  1  0
 27 50  1  0
M  END
>  <smiles>  (24) 
O=C(NCC(=O)N1CCCCC1c1ccccn1)c1ccc2c(Cl)cccc2n1

>  <score_type>  (24) 
oracle

>  <origin>  (24) 
autodockgpu

>  <m_score__min__energy>  (24) 
-9.1099999999999994

>  <m_primary>  (24) 
energy

>  <rmsd>  (24) 
7.402709752787169

>  <m_score__min__rmsd>  (24) 
7.402709752787169

>  <meeko>  (24) 
{"free_energy": -6.86, "intermolecular_energy": -8.35, "internal_energy": -3.06, "cluster_size": 5, "cluster_id": 5, "rank_in_cluster": 2}

>  <energy>  (24) 
-7.23

>  <cluster_rmsd>  (24) 
0.0

>  <cluster>  (24) 
3

$$$$

     RDKit          3D

 50 53  0  0  0  0  0  0  0  0999 V2000
  142.2770   79.2160  218.8940 O   0  0  0  0  0  0  0  0  0  0  0  0
  141.5490   78.3850  219.5270 C   0  0  0  0  0  0  0  0  0  0  0  0
  140.2490   78.6830  219.9810 N   0  0  0  0  0  0  0  0  0  0  0  0
  139.6750   79.9940  219.7360 C   0  0  0  0  0  0  0  0  0  0  0  0
  139.4760   80.7050  221.0260 C   0  0  0  0  0  0  0  0  0  0  0  0
  138.5410   81.5420  221.1120 O   0  0  0  0  0  0  0  0  0  0  0  0
  140.3600   80.3980  222.0940 N   0  0  0  0  0  0  0  0  0  0  0  0
  141.7650   80.7700  222.0850 C   0  0  0  0  0  0  0  0  0  0  0  0
  142.5680   79.5280  222.3400 C   0  0  0  0  0  0  0  0  0  0  0  0
  142.1720   78.8850  223.6250 C   0  0  0  0  0  0  0  0  0  0  0  0
  140.9030   79.4060  224.2140 C   0  0  0  0  0  0  0  0  0  0  0  0
  139.8250   79.6870  223.2240 C   0  0  2  0  0  0  0  0  0  0  0  0
  139.0170   78.4960  222.8620 C   0  0  0  0  0  0  0  0  0  0  0  0
  137.6310   78.5140  222.8110 C   0  0  0  0  0  0  0  0  0  0  0  0
  136.9000   77.3900  222.4680 C   0  0  0  0  0  0  0  0  0  0  0  0
  137.5320   76.2020  222.1630 C   0  0  0  0  0  0  0  0  0  0  0  0
  138.9140   76.2060  222.2200 C   0  0  0  0  0  0  0  0  0  0  0  0
  139.6090   77.3090  222.5550 N   0  0  0  0  0  0  0  0  0  0  0  0
  142.1030   77.0400  219.7940 C   0  0  0  0  0  0  0  0  0  0  0  0
  143.4050   76.7320  219.4650 C   0  0  0  0  0  0  0  0  0  0  0  0
  143.9080   75.4620  219.7240 C   0  0  0  0  0  0  0  0  0  0  0  0
  143.1080   74.5010  220.3110 C   0  0  0  0  0  0  0  0  0  0  0  0
  143.5370   73.2260  220.5960 C   0  0  0  0  0  0  0  0  0  0  0  0
  145.1970   72.7830  220.1950 Cl  0  0  0  0  0  0  0  0  0  0  0  0
  142.6690   72.3240  221.1860 C   0  0  0  0  0  0  0  0  0  0  0  0
  141.3640   72.6460  221.5110 C   0  0  0  0  0  0  0  0  0  0  0  0
  140.9280   73.9400  221.2220 C   0  0  0  0  0  0  0  0  0  0  0  0
  141.7950   74.8460  220.6310 C   0  0  0  0  0  0  0  0  0  0  0  0
  141.3410   76.0850  220.3660 N   0  0  0  0  0  0  0  0  0  0  0  0
  139.6670   77.9780  220.5020 H   0  0  0  0  0  0  0  0  0  0  0  0
  140.3557   80.5774  219.0986 H   0  0  0  0  0  0  0  0  0  0  0  0
  138.7043   79.8773  219.2318 H   0  0  0  0  0  0  0  0  0  0  0  0
  142.0336   81.1954  221.1068 H   0  0  0  0  0  0  0  0  0  0  0  0
  141.9683   81.5255  222.8583 H   0  0  0  0  0  0  0  0  0  0  0  0
  142.4013   78.8176  221.5169 H   0  0  0  0  0  0  0  0  0  0  0  0
  143.6303   79.8065  222.4025 H   0  0  0  0  0  0  0  0  0  0  0  0
  142.0501   77.8065  223.4460 H   0  0  0  0  0  0  0  0  0  0  0  0
  142.9690   79.1143  224.3476 H   0  0  0  0  0  0  0  0  0  0  0  0
  140.5256   78.6599  224.9287 H   0  0  0  0  0  0  0  0  0  0  0  0
  141.1515   80.3691  224.6837 H   0  0  0  0  0  0  0  0  0  0  0  0
  139.0922   80.3479  223.7100 H   0  0  0  0  0  0  0  0  0  0  0  0
  137.0986   79.4466  223.0496 H   0  0  0  0  0  0  0  0  0  0  0  0
  135.8017   77.4444  222.4382 H   0  0  0  0  0  0  0  0  0  0  0  0
  136.9665   75.2992  221.8889 H   0  0  0  0  0  0  0  0  0  0  0  0
  139.4609   75.2810  221.9848 H   0  0  0  0  0  0  0  0  0  0  0  0
  144.0475   77.4921  218.9967 H   0  0  0  0  0  0  0  0  0  0  0  0
  144.9484   75.2212  219.4601 H   0  0  0  0  0  0  0  0  0  0  0  0
  143.0321   71.3091  221.4055 H   0  0  0  0  0  0  0  0  0  0  0  0
  140.6945   71.9098  221.9798 H   0  0  0  0  0  0  0  0  0  0  0  0
  139.8976   74.2406  221.4629 H   0  0  0  0  0  0  0  0  0  0  0  0
  1  2  2  0
  2  3  1  0
  3  4  1  0
  4  5  1  0
  5  6  2  0
  5  7  1  0
  7  8  1  0
  8  9  1  0
  9 10  1  0
 10 11  1  0
 11 12  1  0
 12 13  1  0
 13 14  2  0
 14 15  1  0
 15 16  2  0
 16 17  1  0
 17 18  2  0
  2 19  1  0
 19 20  2  0
 20 21  1  0
 21 22  2  0
 22 23  1  0
 23 24  1  0
 23 25  2  0
 25 26  1  0
 26 27  2  0
 27 28  1  0
 28 29  2  0
 12  7  1  0
 18 13  1  0
 29 19  1  0
 28 22  1  0
  3 30  1  0
  4 31  1  0
  4 32  1  0
  8 33  1  0
  8 34  1  0
  9 35  1  0
  9 36  1  0
 10 37  1  0
 10 38  1  0
 11 39  1  0
 11 40  1  0
 12 41  1  1
 14 42  1  0
 15 43  1  0
 16 44  1  0
 17 45  1  0
 20 46  1  0
 21 47  1  0
 25 48  1  0
 26 49  1  0
 27 50  1  0
M  END
>  <smiles>  (25) 
O=C(NCC(=O)N1CCCCC1c1ccccn1)c1ccc2c(Cl)cccc2n1

>  <score_type>  (25) 
oracle

>  <origin>  (25) 
autodockgpu

>  <m_score__min__energy>  (25) 
-9.1099999999999994

>  <m_primary>  (25) 
energy

>  <rmsd>  (25) 
6.986189890630403

>  <m_score__min__rmsd>  (25) 
6.986189890630403

>  <meeko>  (25) 
{"free_energy": -5.97, "intermolecular_energy": -7.46, "internal_energy": -3.54, "cluster_size": 5, "cluster_id": 5, "rank_in_cluster": 5}

>  <energy>  (25) 
-7.17

>  <cluster_rmsd>  (25) 
1.9

>  <cluster>  (25) 
3

$$$$

     RDKit          3D

 50 53  0  0  0  0  0  0  0  0999 V2000
  138.9260   74.2590  221.9830 O   0  0  0  0  0  0  0  0  0  0  0  0
  140.0100   74.9280  221.9690 C   0  0  0  0  0  0  0  0  0  0  0  0
  141.2600   74.3700  221.6360 N   0  0  0  0  0  0  0  0  0  0  0  0
  141.3600   72.9640  221.2850 C   0  0  0  0  0  0  0  0  0  0  0  0
  141.9170   72.8270  219.9140 C   0  0  0  0  0  0  0  0  0  0  0  0
  141.1180   72.7800  218.9440 O   0  0  0  0  0  0  0  0  0  0  0  0
  143.3290   72.7540  219.7770 N   0  0  0  0  0  0  0  0  0  0  0  0
  144.1620   71.9360  220.6430 C   0  0  0  0  0  0  0  0  0  0  0  0
  145.2300   72.8210  221.2180 C   0  0  0  0  0  0  0  0  0  0  0  0
  146.0240   73.4760  220.1400 C   0  0  0  0  0  0  0  0  0  0  0  0
  145.4240   73.3720  218.7770 C   0  0  0  0  0  0  0  0  0  0  0  0
  143.9430   73.5290  218.7340 C   0  0  2  0  0  0  0  0  0  0  0  0
  143.4900   74.9410  218.6840 C   0  0  0  0  0  0  0  0  0  0  0  0
  143.3980   75.6620  217.5020 C   0  0  0  0  0  0  0  0  0  0  0  0
  142.9710   76.9780  217.4820 C   0  0  0  0  0  0  0  0  0  0  0  0
  142.6190   77.6250  218.6500 C   0  0  0  0  0  0  0  0  0  0  0  0
  142.7180   76.8880  219.8160 C   0  0  0  0  0  0  0  0  0  0  0  0
  143.1350   75.6080  219.8170 N   0  0  0  0  0  0  0  0  0  0  0  0
  139.9440   76.3620  222.3210 C   0  0  0  0  0  0  0  0  0  0  0  0
  138.7320   77.0000  222.4760 C   0  0  0  0  0  0  0  0  0  0  0  0
  138.6900   78.3490  222.8070 C   0  0  0  0  0  0  0  0  0  0  0  0
  139.8610   79.0600  222.9820 C   0  0  0  0  0  0  0  0  0  0  0  0
  139.8970   80.3960  223.3100 C   0  0  0  0  0  0  0  0  0  0  0  0
  138.3710   81.2560  223.5200 Cl  0  0  0  0  0  0  0  0  0  0  0  0
  141.1150   81.0330  223.4670 C   0  0  0  0  0  0  0  0  0  0  0  0
  142.3250   80.3820  223.3080 C   0  0  0  0  0  0  0  0  0  0  0  0
  142.2890   79.0270  222.9750 C   0  0  0  0  0  0  0  0  0  0  0  0
  141.0710   78.3850  222.8180 C   0  0  0  0  0  0  0  0  0  0  0  0
  141.0730   77.0790  222.4970 N   0  0  0  0  0  0  0  0  0  0  0  0
  142.1410   74.9450  221.6320 H   0  0  0  0  0  0  0  0  0  0  0  0
  142.0220   72.4549  222.0009 H   0  0  0  0  0  0  0  0  0  0  0  0
  140.3592   72.5088  221.3181 H   0  0  0  0  0  0  0  0  0  0  0  0
  143.5534   71.5084  221.4534 H   0  0  0  0  0  0  0  0  0  0  0  0
  144.6120   71.1084  220.0751 H   0  0  0  0  0  0  0  0  0  0  0  0
  144.7577   73.5972  221.8381 H   0  0  0  0  0  0  0  0  0  0  0  0
  145.9081   72.2013  221.8231 H   0  0  0  0  0  0  0  0  0  0  0  0
  146.1271   74.5424  220.3892 H   0  0  0  0  0  0  0  0  0  0  0  0
  146.9882   72.9482  220.0978 H   0  0  0  0  0  0  0  0  0  0  0  0
  145.8698   74.1550  218.1459 H   0  0  0  0  0  0  0  0  0  0  0  0
  145.6385   72.3537  218.4205 H   0  0  0  0  0  0  0  0  0  0  0  0
  143.5948   73.1201  217.7740 H   0  0  0  0  0  0  0  0  0  0  0  0
  143.6720   75.1740  216.5550 H   0  0  0  0  0  0  0  0  0  0  0  0
  142.9112   77.5153  216.5240 H   0  0  0  0  0  0  0  0  0  0  0  0
  142.2781   78.6708  218.6528 H   0  0  0  0  0  0  0  0  0  0  0  0
  142.4479   77.3619  220.7712 H   0  0  0  0  0  0  0  0  0  0  0  0
  137.7955   76.4398  222.3373 H   0  0  0  0  0  0  0  0  0  0  0  0
  137.7199   78.8527  222.9302 H   0  0  0  0  0  0  0  0  0  0  0  0
  141.1214   82.1013  223.7291 H   0  0  0  0  0  0  0  0  0  0  0  0
  143.2798   80.9122  223.4391 H   0  0  0  0  0  0  0  0  0  0  0  0
  143.2269   78.4691  222.8373 H   0  0  0  0  0  0  0  0  0  0  0  0
  1  2  2  0
  2  3  1  0
  3  4  1  0
  4  5  1  0
  5  6  2  0
  5  7  1  0
  7  8  1  0
  8  9  1  0
  9 10  1  0
 10 11  1  0
 11 12  1  0
 12 13  1  0
 13 14  2  0
 14 15  1  0
 15 16  2  0
 16 17  1  0
 17 18  2  0
  2 19  1  0
 19 20  2  0
 20 21  1  0
 21 22  2  0
 22 23  1  0
 23 24  1  0
 23 25  2  0
 25 26  1  0
 26 27  2  0
 27 28  1  0
 28 29  2  0
 12  7  1  0
 18 13  1  0
 29 19  1  0
 28 22  1  0
  3 30  1  0
  4 31  1  0
  4 32  1  0
  8 33  1  0
  8 34  1  0
  9 35  1  0
  9 36  1  0
 10 37  1  0
 10 38  1  0
 11 39  1  0
 11 40  1  0
 12 41  1  6
 14 42  1  0
 15 43  1  0
 16 44  1  0
 17 45  1  0
 20 46  1  0
 21 47  1  0
 25 48  1  0
 26 49  1  0
 27 50  1  0
M  END
>  <smiles>  (26) 
O=C(NCC(=O)N1CCCCC1c1ccccn1)c1ccc2c(Cl)cccc2n1

>  <score_type>  (26) 
oracle

>  <origin>  (26) 
autodockgpu

>  <m_score__min__energy>  (26) 
-9.1099999999999994

>  <m_primary>  (26) 
energy

>  <rmsd>  (26) 
6.957752170305483

>  <m_score__min__rmsd>  (26) 
6.957752170305483

>  <meeko>  (26) 
{"free_energy": -7.15, "intermolecular_energy": -8.64, "internal_energy": -2.99, "cluster_size": 13, "cluster_id": 4, "rank_in_cluster": 8}

>  <energy>  (26) 
-7.16

>  <cluster_rmsd>  (26) 
1.9

>  <cluster>  (26) 
3

$$$$

     RDKit          3D

 50 53  0  0  0  0  0  0  0  0999 V2000
  139.2450   73.5720  222.3500 O   0  0  0  0  0  0  0  0  0  0  0  0
  140.1750   74.2760  221.8390 C   0  0  0  0  0  0  0  0  0  0  0  0
  140.1250   75.6830  221.7590 N   0  0  0  0  0  0  0  0  0  0  0  0
  138.9730   76.4010  222.2730 C   0  0  0  0  0  0  0  0  0  0  0  0
  139.1150   77.8520  221.9840 C   0  0  0  0  0  0  0  0  0  0  0  0
  138.4020   78.3560  221.0800 O   0  0  0  0  0  0  0  0  0  0  0  0
  140.0550   78.5910  222.7510 N   0  0  0  0  0  0  0  0  0  0  0  0
  139.6590   79.5570  223.7630 C   0  0  0  0  0  0  0  0  0  0  0  0
  140.3470   80.8540  223.4500 C   0  0  0  0  0  0  0  0  0  0  0  0
  141.8270   80.6790  223.3970 C   0  0  0  0  0  0  0  0  0  0  0  0
  142.2820   79.2580  223.3560 C   0  0  0  0  0  0  0  0  0  0  0  0
  141.4530   78.3610  222.5030 C   0  0  2  0  0  0  0  0  0  0  0  0
  141.8230   78.3860  221.0670 C   0  0  0  0  0  0  0  0  0  0  0  0
  141.7790   79.5400  220.2970 C   0  0  0  0  0  0  0  0  0  0  0  0
  142.1310   79.5380  218.9590 C   0  0  0  0  0  0  0  0  0  0  0  0
  142.5410   78.3760  218.3380 C   0  0  0  0  0  0  0  0  0  0  0  0
  142.5770   77.2370  219.1230 C   0  0  0  0  0  0  0  0  0  0  0  0
  142.2310   77.2580  220.4240 N   0  0  0  0  0  0  0  0  0  0  0  0
  141.3630   73.5770  221.3070 C   0  0  0  0  0  0  0  0  0  0  0  0
  141.2970   72.2540  220.9270 C   0  0  0  0  0  0  0  0  0  0  0  0
  142.4250   71.6140  220.4280 C   0  0  0  0  0  0  0  0  0  0  0  0
  143.6190   72.2960  220.3100 C   0  0  0  0  0  0  0  0  0  0  0  0
  144.7750   71.7280  219.8250 C   0  0  0  0  0  0  0  0  0  0  0  0
  144.7400   70.0370  219.3260 Cl  0  0  0  0  0  0  0  0  0  0  0  0
  145.9300   72.4850  219.7400 C   0  0  0  0  0  0  0  0  0  0  0  0
  145.9840   73.8120  220.1250 C   0  0  0  0  0  0  0  0  0  0  0  0
  144.8120   74.3890  220.6160 C   0  0  0  0  0  0  0  0  0  0  0  0
  143.6520   73.6340  220.7030 C   0  0  0  0  0  0  0  0  0  0  0  0
  142.5410   74.2220  221.1820 N   0  0  0  0  0  0  0  0  0  0  0  0
  140.9070   76.2420  221.3330 H   0  0  0  0  0  0  0  0  0  0  0  0
  138.0604   76.0202  221.7912 H   0  0  0  0  0  0  0  0  0  0  0  0
  138.9073   76.2517  223.3608 H   0  0  0  0  0  0  0  0  0  0  0  0
  138.5681   79.6967  223.7410 H   0  0  0  0  0  0  0  0  0  0  0  0
  139.9420   79.2029  224.7653 H   0  0  0  0  0  0  0  0  0  0  0  0
  139.9938   81.2216  222.4753 H   0  0  0  0  0  0  0  0  0  0  0  0
  140.1094   81.5757  224.2454 H   0  0  0  0  0  0  0  0  0  0  0  0
  142.2006   81.1854  222.4948 H   0  0  0  0  0  0  0  0  0  0  0  0
  142.2259   81.1081  224.3280 H   0  0  0  0  0  0  0  0  0  0  0  0
  143.3125   79.2396  222.9716 H   0  0  0  0  0  0  0  0  0  0  0  0
  142.1953   78.8753  224.3836 H   0  0  0  0  0  0  0  0  0  0  0  0
  141.6738   77.3251  222.7999 H   0  0  0  0  0  0  0  0  0  0  0  0
  141.4553   80.4822  220.7635 H   0  0  0  0  0  0  0  0  0  0  0  0
  142.0834   80.4741  218.3833 H   0  0  0  0  0  0  0  0  0  0  0  0
  142.8242   78.3561  217.2753 H   0  0  0  0  0  0  0  0  0  0  0  0
  142.8976   76.2868  218.6710 H   0  0  0  0  0  0  0  0  0  0  0  0
  140.3492   71.7033  221.0189 H   0  0  0  0  0  0  0  0  0  0  0  0
  142.3659   70.5581  220.1254 H   0  0  0  0  0  0  0  0  0  0  0  0
  146.8431   72.0116  219.3500 H   0  0  0  0  0  0  0  0  0  0  0  0
  146.9159   74.3912  220.0472 H   0  0  0  0  0  0  0  0  0  0  0  0
  144.8083   75.4421  220.9338 H   0  0  0  0  0  0  0  0  0  0  0  0
  1  2  2  0
  2  3  1  0
  3  4  1  0
  4  5  1  0
  5  6  2  0
  5  7  1  0
  7  8  1  0
  8  9  1  0
  9 10  1  0
 10 11  1  0
 11 12  1  0
 12 13  1  0
 13 14  2  0
 14 15  1  0
 15 16  2  0
 16 17  1  0
 17 18  2  0
  2 19  1  0
 19 20  2  0
 20 21  1  0
 21 22  2  0
 22 23  1  0
 23 24  1  0
 23 25  2  0
 25 26  1  0
 26 27  2  0
 27 28  1  0
 28 29  2  0
 12  7  1  0
 18 13  1  0
 29 19  1  0
 28 22  1  0
  3 30  1  0
  4 31  1  0
  4 32  1  0
  8 33  1  0
  8 34  1  0
  9 35  1  0
  9 36  1  0
 10 37  1  0
 10 38  1  0
 11 39  1  0
 11 40  1  0
 12 41  1  1
 14 42  1  0
 15 43  1  0
 16 44  1  0
 17 45  1  0
 20 46  1  0
 21 47  1  0
 25 48  1  0
 26 49  1  0
 27 50  1  0
M  END
>  <smiles>  (27) 
O=C(NCC(=O)N1CCCCC1c1ccccn1)c1ccc2c(Cl)cccc2n1

>  <score_type>  (27) 
oracle

>  <origin>  (27) 
autodockgpu

>  <m_score__min__energy>  (27) 
-9.1099999999999994

>  <m_primary>  (27) 
energy

>  <rmsd>  (27) 
5.809282267496143

>  <m_score__min__rmsd>  (27) 
5.809282267496143

>  <meeko>  (27) 
{"free_energy": -7.16, "intermolecular_energy": -8.66, "internal_energy": -2.89, "cluster_size": 9, "cluster_id": 3, "rank_in_cluster": 3}

>  <energy>  (27) 
-7.1

>  <cluster_rmsd>  (27) 
1.9

>  <cluster>  (27) 
3

$$$$

     RDKit          3D

 50 53  0  0  0  0  0  0  0  0999 V2000
  139.1640   71.4830  221.0230 O   0  0  0  0  0  0  0  0  0  0  0  0
  139.7560   72.0630  221.9900 C   0  0  0  0  0  0  0  0  0  0  0  0
  140.3280   73.3480  221.8890 N   0  0  0  0  0  0  0  0  0  0  0  0
  140.2590   74.0780  220.6360 C   0  0  0  0  0  0  0  0  0  0  0  0
  141.0960   75.3040  220.7230 C   0  0  0  0  0  0  0  0  0  0  0  0
  141.3350   75.7880  221.8580 O   0  0  0  0  0  0  0  0  0  0  0  0
  141.5800   75.8620  219.5100 N   0  0  0  0  0  0  0  0  0  0  0  0
  140.7030   76.2510  218.4180 C   0  0  0  0  0  0  0  0  0  0  0  0
  141.1920   75.5670  217.1740 C   0  0  0  0  0  0  0  0  0  0  0  0
  142.6160   75.9120  216.8940 C   0  0  0  0  0  0  0  0  0  0  0  0
  143.3250   76.5830  218.0240 C   0  0  0  0  0  0  0  0  0  0  0  0
  143.0010   76.0410  219.3730 C   0  0  2  0  0  0  0  0  0  0  0  0
  143.7990   74.8490  219.7500 C   0  0  0  0  0  0  0  0  0  0  0  0
  143.4410   73.5580  219.3890 C   0  0  0  0  0  0  0  0  0  0  0  0
  144.2040   72.4610  219.7510 C   0  0  0  0  0  0  0  0  0  0  0  0
  145.3570   72.6170  220.4920 C   0  0  0  0  0  0  0  0  0  0  0  0
  145.6960   73.9120  220.8420 C   0  0  0  0  0  0  0  0  0  0  0  0
  144.9420   74.9670  220.4800 N   0  0  0  0  0  0  0  0  0  0  0  0
  139.8430   71.3470  223.2800 C   0  0  0  0  0  0  0  0  0  0  0  0
  139.4020   70.0470  223.4020 C   0  0  0  0  0  0  0  0  0  0  0  0
  139.4930   69.3900  224.6230 C   0  0  0  0  0  0  0  0  0  0  0  0
  140.0230   70.0340  225.7230 C   0  0  0  0  0  0  0  0  0  0  0  0
  140.1450   69.4480  226.9620 C   0  0  0  0  0  0  0  0  0  0  0  0
  139.5950   67.7850  227.1680 Cl  0  0  0  0  0  0  0  0  0  0  0  0
  140.6890   70.1660  228.0120 C   0  0  0  0  0  0  0  0  0  0  0  0
  141.1280   71.4700  227.8780 C   0  0  0  0  0  0  0  0  0  0  0  0
  141.0060   72.0650  226.6220 C   0  0  0  0  0  0  0  0  0  0  0  0
  140.4610   71.3490  225.5670 C   0  0  0  0  0  0  0  0  0  0  0  0
  140.3580   71.9540  224.3700 N   0  0  0  0  0  0  0  0  0  0  0  0
  140.8110   73.8050  222.7040 H   0  0  0  0  0  0  0  0  0  0  0  0
  140.6292   73.4397  219.8202 H   0  0  0  0  0  0  0  0  0  0  0  0
  139.2152   74.3630  220.4377 H   0  0  0  0  0  0  0  0  0  0  0  0
  139.6713   75.9384  218.6365 H   0  0  0  0  0  0  0  0  0  0  0  0
  140.7127   77.3431  218.2864 H   0  0  0  0  0  0  0  0  0  0  0  0
  141.1056   74.4783  217.3054 H   0  0  0  0  0  0  0  0  0  0  0  0
  140.5781   75.9049  216.3260 H   0  0  0  0  0  0  0  0  0  0  0  0
  143.1538   74.9828  216.6545 H   0  0  0  0  0  0  0  0  0  0  0  0
  142.6056   76.6303  216.0610 H   0  0  0  0  0  0  0  0  0  0  0  0
  144.4075   76.4739  217.8621 H   0  0  0  0  0  0  0  0  0  0  0  0
  142.9899   77.6307  218.0220 H   0  0  0  0  0  0  0  0  0  0  0  0
  143.3102   76.7927  220.1142 H   0  0  0  0  0  0  0  0  0  0  0  0
  142.5258   73.4019  218.7990 H   0  0  0  0  0  0  0  0  0  0  0  0
  143.8871   71.4533  219.4442 H   0  0  0  0  0  0  0  0  0  0  0  0
  145.9747   71.7567  220.7892 H   0  0  0  0  0  0  0  0  0  0  0  0
  146.6076   74.0845  221.4329 H   0  0  0  0  0  0  0  0  0  0  0  0
  138.9768   69.5280  222.5303 H   0  0  0  0  0  0  0  0  0  0  0  0
  139.1410   68.3518  224.7135 H   0  0  0  0  0  0  0  0  0  0  0  0
  140.7758   69.6790  228.9945 H   0  0  0  0  0  0  0  0  0  0  0  0
  141.5574   72.0179  228.7297 H   0  0  0  0  0  0  0  0  0  0  0  0
  141.3418   73.1012  226.4688 H   0  0  0  0  0  0  0  0  0  0  0  0
  1  2  2  0
  2  3  1  0
  3  4  1  0
  4  5  1  0
  5  6  2  0
  5  7  1  0
  7  8  1  0
  8  9  1  0
  9 10  1  0
 10 11  1  0
 11 12  1  0
 12 13  1  0
 13 14  2  0
 14 15  1  0
 15 16  2  0
 16 17  1  0
 17 18  2  0
  2 19  1  0
 19 20  2  0
 20 21  1  0
 21 22  2  0
 22 23  1  0
 23 24  1  0
 23 25  2  0
 25 26  1  0
 26 27  2  0
 27 28  1  0
 28 29  2  0
 12  7  1  0
 18 13  1  0
 29 19  1  0
 28 22  1  0
  3 30  1  0
  4 31  1  0
  4 32  1  0
  8 33  1  0
  8 34  1  0
  9 35  1  0
  9 36  1  0
 10 37  1  0
 10 38  1  0
 11 39  1  0
 11 40  1  0
 12 41  1  1
 14 42  1  0
 15 43  1  0
 16 44  1  0
 17 45  1  0
 20 46  1  0
 21 47  1  0
 25 48  1  0
 26 49  1  0
 27 50  1  0
M  END
>  <smiles>  (28) 
O=C(NCC(=O)N1CCCCC1c1ccccn1)c1ccc2c(Cl)cccc2n1

>  <score_type>  (28) 
oracle

>  <origin>  (28) 
autodockgpu

>  <m_score__min__energy>  (28) 
-9.1099999999999994

>  <m_primary>  (28) 
energy

>  <rmsd>  (28) 
4.0523509660517885

>  <m_score__min__rmsd>  (28) 
4.0523509660517885

>  <meeko>  (28) 
{"free_energy": -7.75, "intermolecular_energy": -9.24, "internal_energy": -2.31, "cluster_size": 9, "cluster_id": 2, "rank_in_cluster": 7}

>  <energy>  (28) 
-7.08

>  <cluster_rmsd>  (28) 
1.91

>  <cluster>  (28) 
3

$$$$

     RDKit          3D

 50 53  0  0  0  0  0  0  0  0999 V2000
  142.1380   77.7060  216.9460 O   0  0  0  0  0  0  0  0  0  0  0  0
  142.5870   77.3930  218.0960 C   0  0  0  0  0  0  0  0  0  0  0  0
  142.4910   78.2380  219.2210 N   0  0  0  0  0  0  0  0  0  0  0  0
  141.8570   79.5390  219.1020 C   0  0  0  0  0  0  0  0  0  0  0  0
  140.6960   79.6180  220.0280 C   0  0  0  0  0  0  0  0  0  0  0  0
  139.5400   79.4750  219.5550 O   0  0  0  0  0  0  0  0  0  0  0  0
  140.9620   79.8530  221.4030 N   0  0  0  0  0  0  0  0  0  0  0  0
  141.9000   80.8640  221.8610 C   0  0  0  0  0  0  0  0  0  0  0  0
  142.8820   80.1940  222.7790 C   0  0  0  0  0  0  0  0  0  0  0  0
  142.1860   79.5250  223.9150 C   0  0  0  0  0  0  0  0  0  0  0  0
  140.7080   79.3960  223.7480 C   0  0  0  0  0  0  0  0  0  0  0  0
  140.2640   79.0480  222.3690 C   0  0  2  0  0  0  0  0  0  0  0  0
  140.2950   77.5930  222.0770 C   0  0  0  0  0  0  0  0  0  0  0  0
  139.2420   76.7420  222.3790 C   0  0  0  0  0  0  0  0  0  0  0  0
  139.2950   75.3880  222.0950 C   0  0  0  0  0  0  0  0  0  0  0  0
  140.4070   74.8350  221.4960 C   0  0  0  0  0  0  0  0  0  0  0  0
  141.4450   75.7010  221.2030 C   0  0  0  0  0  0  0  0  0  0  0  0
  141.3770   77.0150  221.4860 N   0  0  0  0  0  0  0  0  0  0  0  0
  143.2380   76.0760  218.2520 C   0  0  0  0  0  0  0  0  0  0  0  0
  143.2870   75.1800  217.2060 C   0  0  0  0  0  0  0  0  0  0  0  0
  143.9040   73.9460  217.3720 C   0  0  0  0  0  0  0  0  0  0  0  0
  144.4720   73.6080  218.5840 C   0  0  0  0  0  0  0  0  0  0  0  0
  145.1000   72.4060  218.8210 C   0  0  0  0  0  0  0  0  0  0  0  0
  145.1880   71.2270  217.5130 Cl  0  0  0  0  0  0  0  0  0  0  0  0
  145.6430   72.1490  220.0670 C   0  0  0  0  0  0  0  0  0  0  0  0
  145.5880   73.0560  221.1090 C   0  0  0  0  0  0  0  0  0  0  0  0
  144.9520   74.2740  220.8700 C   0  0  0  0  0  0  0  0  0  0  0  0
  144.4070   74.5370  219.6230 C   0  0  0  0  0  0  0  0  0  0  0  0
  143.8010   75.7220  219.4270 N   0  0  0  0  0  0  0  0  0  0  0  0
  142.8690   77.9560  220.1610 H   0  0  0  0  0  0  0  0  0  0  0  0
  142.5832   80.3244  219.3585 H   0  0  0  0  0  0  0  0  0  0  0  0
  141.5085   79.6810  218.0684 H   0  0  0  0  0  0  0  0  0  0  0  0
  142.4290   81.3011  221.0013 H   0  0  0  0  0  0  0  0  0  0  0  0
  141.3696   81.6712  222.3874 H   0  0  0  0  0  0  0  0  0  0  0  0
  143.4482   79.4410  222.2112 H   0  0  0  0  0  0  0  0  0  0  0  0
  143.5577   80.9604  223.1864 H   0  0  0  0  0  0  0  0  0  0  0  0
  142.6079   78.5156  224.0295 H   0  0  0  0  0  0  0  0  0  0  0  0
  142.3460   80.1617  224.7976 H   0  0  0  0  0  0  0  0  0  0  0  0
  140.3537   78.6095  224.4305 H   0  0  0  0  0  0  0  0  0  0  0  0
  140.2833   80.3861  223.9699 H   0  0  0  0  0  0  0  0  0  0  0  0
  139.1951   79.2964  222.2931 H   0  0  0  0  0  0  0  0  0  0  0  0
  138.3409   77.1539  222.8568 H   0  0  0  0  0  0  0  0  0  0  0  0
  138.4394   74.7455  222.3504 H   0  0  0  0  0  0  0  0  0  0  0  0
  140.4656   73.7615  221.2634 H   0  0  0  0  0  0  0  0  0  0  0  0
  142.3526   75.3041  220.7247 H   0  0  0  0  0  0  0  0  0  0  0  0
  142.8366   75.4423  216.2373 H   0  0  0  0  0  0  0  0  0  0  0  0
  143.9400   73.2349  216.5335 H   0  0  0  0  0  0  0  0  0  0  0  0
  146.1396   71.1821  220.2359 H   0  0  0  0  0  0  0  0  0  0  0  0
  146.0294   72.8256  222.0899 H   0  0  0  0  0  0  0  0  0  0  0  0
  144.8829   75.0253  221.6705 H   0  0  0  0  0  0  0  0  0  0  0  0
  1  2  2  0
  2  3  1  0
  3  4  1  0
  4  5  1  0
  5  6  2  0
  5  7  1  0
  7  8  1  0
  8  9  1  0
  9 10  1  0
 10 11  1  0
 11 12  1  0
 12 13  1  0
 13 14  2  0
 14 15  1  0
 15 16  2  0
 16 17  1  0
 17 18  2  0
  2 19  1  0
 19 20  2  0
 20 21  1  0
 21 22  2  0
 22 23  1  0
 23 24  1  0
 23 25  2  0
 25 26  1  0
 26 27  2  0
 27 28  1  0
 28 29  2  0
 12  7  1  0
 18 13  1  0
 29 19  1  0
 28 22  1  0
  3 30  1  0
  4 31  1  0
  4 32  1  0
  8 33  1  0
  8 34  1  0
  9 35  1  0
  9 36  1  0
 10 37  1  0
 10 38  1  0
 11 39  1  0
 11 40  1  0
 12 41  1  1
 14 42  1  0
 15 43  1  0
 16 44  1  0
 17 45  1  0
 20 46  1  0
 21 47  1  0
 25 48  1  0
 26 49  1  0
 27 50  1  0
M  END
>  <smiles>  (29) 
O=C(NCC(=O)N1CCCCC1c1ccccn1)c1ccc2c(Cl)cccc2n1

>  <score_type>  (29) 
oracle

>  <origin>  (29) 
autodockgpu

>  <m_score__min__energy>  (29) 
-9.1099999999999994

>  <m_primary>  (29) 
energy

>  <rmsd>  (29) 
7.406966111636877

>  <m_score__min__rmsd>  (29) 
7.406966111636877

>  <meeko>  (29) 
{"free_energy": -6.89, "intermolecular_energy": -8.38, "internal_energy": -3.03, "cluster_size": 5, "cluster_id": 5, "rank_in_cluster": 1}

>  <energy>  (29) 
-7.06

>  <cluster_rmsd>  (29) 
1.91

>  <cluster>  (29) 
3

$$$$

     RDKit          3D

 50 53  0  0  0  0  0  0  0  0999 V2000
  139.1510   74.8840  222.2960 O   0  0  0  0  0  0  0  0  0  0  0  0
  140.2450   75.4730  222.0160 C   0  0  0  0  0  0  0  0  0  0  0  0
  141.4030   74.7920  221.5900 N   0  0  0  0  0  0  0  0  0  0  0  0
  141.3890   73.3470  221.4510 C   0  0  0  0  0  0  0  0  0  0  0  0
  141.9020   72.9660  220.1090 C   0  0  0  0  0  0  0  0  0  0  0  0
  141.0730   72.7580  219.1870 O   0  0  0  0  0  0  0  0  0  0  0  0
  143.3080   72.8570  219.9450 N   0  0  0  0  0  0  0  0  0  0  0  0
  144.1480   72.0820  220.8440 C   0  0  0  0  0  0  0  0  0  0  0  0
  145.2450   72.9830  221.3330 C   0  0  0  0  0  0  0  0  0  0  0  0
  146.0240   73.5490  220.1950 C   0  0  0  0  0  0  0  0  0  0  0  0
  145.3890   73.3650  218.8570 C   0  0  0  0  0  0  0  0  0  0  0  0
  143.9110   73.5480  218.8370 C   0  0  2  0  0  0  0  0  0  0  0  0
  143.4820   74.9620  218.7030 C   0  0  0  0  0  0  0  0  0  0  0  0
  143.2450   75.5650  217.4760 C   0  0  0  0  0  0  0  0  0  0  0  0
  142.8440   76.8850  217.3770 C   0  0  0  0  0  0  0  0  0  0  0  0
  142.6640   77.6560  218.5080 C   0  0  0  0  0  0  0  0  0  0  0  0
  142.9060   77.0360  219.7210 C   0  0  0  0  0  0  0  0  0  0  0  0
  143.2950   75.7490  219.7980 N   0  0  0  0  0  0  0  0  0  0  0  0
  140.2940   76.9440  222.1470 C   0  0  0  0  0  0  0  0  0  0  0  0
  139.2680   77.7330  221.6730 C   0  0  0  0  0  0  0  0  0  0  0  0
  139.3320   79.1150  221.8050 C   0  0  0  0  0  0  0  0  0  0  0  0
  140.4230   79.7080  222.4100 C   0  0  0  0  0  0  0  0  0  0  0  0
  140.5550   81.0670  222.5750 C   0  0  0  0  0  0  0  0  0  0  0  0
  139.2670   82.1190  221.9870 Cl  0  0  0  0  0  0  0  0  0  0  0  0
  141.6830   81.5780  223.1940 C   0  0  0  0  0  0  0  0  0  0  0  0
  142.7060   80.7760  223.6640 C   0  0  0  0  0  0  0  0  0  0  0  0
  142.5730   79.3970  223.4970 C   0  0  0  0  0  0  0  0  0  0  0  0
  141.4440   78.8810  222.8790 C   0  0  0  0  0  0  0  0  0  0  0  0
  141.3490   77.5470  222.7340 N   0  0  0  0  0  0  0  0  0  0  0  0
  142.2950   75.3020  221.3650 H   0  0  0  0  0  0  0  0  0  0  0  0
  142.0274   72.8992  222.2268 H   0  0  0  0  0  0  0  0  0  0  0  0
  140.3578   72.9810  221.5633 H   0  0  0  0  0  0  0  0  0  0  0  0
  143.5523   71.7207  221.6953 H   0  0  0  0  0  0  0  0  0  0  0  0
  144.5691   71.2099  220.3223 H   0  0  0  0  0  0  0  0  0  0  0  0
  144.8016   73.8079  221.9100 H   0  0  0  0  0  0  0  0  0  0  0  0
  145.9267   72.3924  221.9627 H   0  0  0  0  0  0  0  0  0  0  0  0
  146.1518   74.6276  220.3691 H   0  0  0  0  0  0  0  0  0  0  0  0
  146.9777   73.0015  220.1662 H   0  0  0  0  0  0  0  0  0  0  0  0
  145.8336   74.0944  218.1639 H   0  0  0  0  0  0  0  0  0  0  0  0
  145.5759   72.3207  218.5664 H   0  0  0  0  0  0  0  0  0  0  0  0
  143.5333   73.0828  217.9146 H   0  0  0  0  0  0  0  0  0  0  0  0
  143.3798   74.9768  216.5563 H   0  0  0  0  0  0  0  0  0  0  0  0
  142.6663   77.3259  216.3850 H   0  0  0  0  0  0  0  0  0  0  0  0
  142.3452   78.7071  218.4480 H   0  0  0  0  0  0  0  0  0  0  0  0
  142.7769   77.6112  220.6497 H   0  0  0  0  0  0  0  0  0  0  0  0
  138.3966   77.2677  221.1892 H   0  0  0  0  0  0  0  0  0  0  0  0
  138.5098   79.7397  221.4258 H   0  0  0  0  0  0  0  0  0  0  0  0
  141.7687   82.6677  223.3169 H   0  0  0  0  0  0  0  0  0  0  0  0
  143.5920   81.2087  224.1516 H   0  0  0  0  0  0  0  0  0  0  0  0
  143.3627   78.7202  223.8551 H   0  0  0  0  0  0  0  0  0  0  0  0
  1  2  2  0
  2  3  1  0
  3  4  1  0
  4  5  1  0
  5  6  2  0
  5  7  1  0
  7  8  1  0
  8  9  1  0
  9 10  1  0
 10 11  1  0
 11 12  1  0
 12 13  1  0
 13 14  2  0
 14 15  1  0
 15 16  2  0
 16 17  1  0
 17 18  2  0
  2 19  1  0
 19 20  2  0
 20 21  1  0
 21 22  2  0
 22 23  1  0
 23 24  1  0
 23 25  2  0
 25 26  1  0
 26 27  2  0
 27 28  1  0
 28 29  2  0
 12  7  1  0
 18 13  1  0
 29 19  1  0
 28 22  1  0
  3 30  1  0
  4 31  1  0
  4 32  1  0
  8 33  1  0
  8 34  1  0
  9 35  1  0
  9 36  1  0
 10 37  1  0
 10 38  1  0
 11 39  1  0
 11 40  1  0
 12 41  1  6
 14 42  1  0
 15 43  1  0
 16 44  1  0
 17 45  1  0
 20 46  1  0
 21 47  1  0
 25 48  1  0
 26 49  1  0
 27 50  1  0
M  END
>  <smiles>  (30) 
O=C(NCC(=O)N1CCCCC1c1ccccn1)c1ccc2c(Cl)cccc2n1

>  <score_type>  (30) 
oracle

>  <origin>  (30) 
autodockgpu

>  <m_score__min__energy>  (30) 
-9.1099999999999994

>  <m_primary>  (30) 
energy

>  <rmsd>  (30) 
7.242710615361514

>  <m_score__min__rmsd>  (30) 
7.242710615361514

>  <meeko>  (30) 
{"free_energy": -7.22, "intermolecular_energy": -8.71, "internal_energy": -2.91, "cluster_size": 13, "cluster_id": 4, "rank_in_cluster": 1}

>  <energy>  (30) 
-6.94

>  <cluster_rmsd>  (30) 
1.89

>  <cluster>  (30) 
3

$$$$

     RDKit          3D

 50 53  0  0  0  0  0  0  0  0999 V2000
  140.9720   71.6180  221.2220 O   0  0  0  0  0  0  0  0  0  0  0  0
  140.4940   72.2090  222.2440 C   0  0  0  0  0  0  0  0  0  0  0  0
  140.0520   73.5470  222.2290 N   0  0  0  0  0  0  0  0  0  0  0  0
  140.1290   74.3260  221.0060 C   0  0  0  0  0  0  0  0  0  0  0  0
  140.3180   75.7630  221.3360 C   0  0  0  0  0  0  0  0  0  0  0  0
  139.9890   76.1630  222.4810 O   0  0  0  0  0  0  0  0  0  0  0  0
  140.8620   76.6070  220.3320 N   0  0  0  0  0  0  0  0  0  0  0  0
  140.0560   77.5530  219.5790 C   0  0  0  0  0  0  0  0  0  0  0  0
  140.2830   77.2860  218.1190 C   0  0  0  0  0  0  0  0  0  0  0  0
  141.7300   77.3880  217.7720 C   0  0  0  0  0  0  0  0  0  0  0  0
  142.6490   77.4220  218.9480 C   0  0  0  0  0  0  0  0  0  0  0  0
  142.2710   76.5070  220.0610 C   0  0  2  0  0  0  0  0  0  0  0  0
  142.7550   75.1160  219.8860 C   0  0  0  0  0  0  0  0  0  0  0  0
  143.6330   74.5070  220.7710 C   0  0  0  0  0  0  0  0  0  0  0  0
  144.0690   73.2060  220.5870 C   0  0  0  0  0  0  0  0  0  0  0  0
  143.6410   72.4640  219.5050 C   0  0  0  0  0  0  0  0  0  0  0  0
  142.7660   73.0900  218.6350 C   0  0  0  0  0  0  0  0  0  0  0  0
  142.3520   74.3560  218.8310 N   0  0  0  0  0  0  0  0  0  0  0  0
  140.4010   71.4440  223.5060 C   0  0  0  0  0  0  0  0  0  0  0  0
  139.9300   70.1490  223.5170 C   0  0  0  0  0  0  0  0  0  0  0  0
  139.8500   69.4470  224.7140 C   0  0  0  0  0  0  0  0  0  0  0  0
  140.2400   70.0390  225.8980 C   0  0  0  0  0  0  0  0  0  0  0  0
  140.1890   69.4060  227.1180 C   0  0  0  0  0  0  0  0  0  0  0  0
  139.5940   67.7470  227.1850 Cl  0  0  0  0  0  0  0  0  0  0  0  0
  140.6000   70.0750  228.2580 C   0  0  0  0  0  0  0  0  0  0  0  0
  141.0710   71.3750  228.2330 C   0  0  0  0  0  0  0  0  0  0  0  0
  141.1230   72.0180  226.9960 C   0  0  0  0  0  0  0  0  0  0  0  0
  140.7120   71.3510  225.8520 C   0  0  0  0  0  0  0  0  0  0  0  0
  140.7760   72.0020  224.6760 N   0  0  0  0  0  0  0  0  0  0  0  0
  139.6610   74.0110  223.0880 H   0  0  0  0  0  0  0  0  0  0  0  0
  140.9789   73.9750  220.4023 H   0  0  0  0  0  0  0  0  0  0  0  0
  139.1952   74.2034  220.4376 H   0  0  0  0  0  0  0  0  0  0  0  0
  138.9922   77.4168  219.8237 H   0  0  0  0  0  0  0  0  0  0  0  0
  140.3392   78.5858  219.8302 H   0  0  0  0  0  0  0  0  0  0  0  0
  139.9269   76.2731  217.8796 H   0  0  0  0  0  0  0  0  0  0  0  0
  139.7307   78.0383  217.5367 H   0  0  0  0  0  0  0  0  0  0  0  0
  141.9967   76.5188  217.1529 H   0  0  0  0  0  0  0  0  0  0  0  0
  141.8585   78.3463  217.2474 H   0  0  0  0  0  0  0  0  0  0  0  0
  143.6562   77.1446  218.6037 H   0  0  0  0  0  0  0  0  0  0  0  0
  142.5958   78.4430  219.3540 H   0  0  0  0  0  0  0  0  0  0  0  0
  142.8031   76.8454  220.9623 H   0  0  0  0  0  0  0  0  0  0  0  0
  143.9925   75.0734  221.6427 H   0  0  0  0  0  0  0  0  0  0  0  0
  144.7649   72.7584  221.3119 H   0  0  0  0  0  0  0  0  0  0  0  0
  143.9777   71.4294  219.3428 H   0  0  0  0  0  0  0  0  0  0  0  0
  142.3980   72.5374  217.7579 H   0  0  0  0  0  0  0  0  0  0  0  0
  139.6170   69.6703  222.5774 H   0  0  0  0  0  0  0  0  0  0  0  0
  139.4736   68.4134  224.7176 H   0  0  0  0  0  0  0  0  0  0  0  0
  140.5499   69.5509  229.2238 H   0  0  0  0  0  0  0  0  0  0  0  0
  141.3926   71.8831  229.1541 H   0  0  0  0  0  0  0  0  0  0  0  0
  141.4896   73.0529  226.9283 H   0  0  0  0  0  0  0  0  0  0  0  0
  1  2  2  0
  2  3  1  0
  3  4  1  0
  4  5  1  0
  5  6  2  0
  5  7  1  0
  7  8  1  0
  8  9  1  0
  9 10  1  0
 10 11  1  0
 11 12  1  0
 12 13  1  0
 13 14  2  0
 14 15  1  0
 15 16  2  0
 16 17  1  0
 17 18  2  0
  2 19  1  0
 19 20  2  0
 20 21  1  0
 21 22  2  0
 22 23  1  0
 23 24  1  0
 23 25  2  0
 25 26  1  0
 26 27  2  0
 27 28  1  0
 28 29  2  0
 12  7  1  0
 18 13  1  0
 29 19  1  0
 28 22  1  0
  3 30  1  0
  4 31  1  0
  4 32  1  0
  8 33  1  0
  8 34  1  0
  9 35  1  0
  9 36  1  0
 10 37  1  0
 10 38  1  0
 11 39  1  0
 11 40  1  0
 12 41  1  1
 14 42  1  0
 15 43  1  0
 16 44  1  0
 17 45  1  0
 20 46  1  0
 21 47  1  0
 25 48  1  0
 26 49  1  0
 27 50  1  0
M  END
>  <smiles>  (31) 
O=C(NCC(=O)N1CCCCC1c1ccccn1)c1ccc2c(Cl)cccc2n1

>  <score_type>  (31) 
oracle

>  <origin>  (31) 
autodockgpu

>  <m_score__min__energy>  (31) 
-9.1099999999999994

>  <m_primary>  (31) 
energy

>  <rmsd>  (31) 
3.929337816735064

>  <m_score__min__rmsd>  (31) 
3.929337816735064

>  <meeko>  (31) 
{"free_energy": -7.67, "intermolecular_energy": -9.16, "internal_energy": -2.32, "cluster_size": 9, "cluster_id": 2, "rank_in_cluster": 8}

>  <energy>  (31) 
-6.9

>  <cluster_rmsd>  (31) 
0.69

>  <cluster>  (31) 
3

$$$$

     RDKit          3D

 50 53  0  0  0  0  0  0  0  0999 V2000
  140.2240   71.7970  221.0380 O   0  0  0  0  0  0  0  0  0  0  0  0
  140.0040   72.3510  222.1630 C   0  0  0  0  0  0  0  0  0  0  0  0
  139.7400   73.7280  222.3090 N   0  0  0  0  0  0  0  0  0  0  0  0
  139.7080   74.5910  221.1420 C   0  0  0  0  0  0  0  0  0  0  0  0
  140.6020   75.7590  221.3560 C   0  0  0  0  0  0  0  0  0  0  0  0
  140.9730   76.0240  222.5270 O   0  0  0  0  0  0  0  0  0  0  0  0
  140.9880   76.5150  220.2170 N   0  0  0  0  0  0  0  0  0  0  0  0
  141.7230   75.9380  219.1030 C   0  0  0  0  0  0  0  0  0  0  0  0
  142.9450   76.7800  218.8770 C   0  0  0  0  0  0  0  0  0  0  0  0
  142.5800   78.2030  218.6250 C   0  0  0  0  0  0  0  0  0  0  0  0
  141.1620   78.5450  218.9450 C   0  0  0  0  0  0  0  0  0  0  0  0
  140.6300   77.9070  220.1810 C   0  0  2  0  0  0  0  0  0  0  0  0
  140.9540   78.6460  221.4260 C   0  0  0  0  0  0  0  0  0  0  0  0
  142.1920   79.2270  221.6570 C   0  0  0  0  0  0  0  0  0  0  0  0
  142.4690   79.9130  222.8270 C   0  0  0  0  0  0  0  0  0  0  0  0
  141.5130   80.0420  223.8130 C   0  0  0  0  0  0  0  0  0  0  0  0
  140.2860   79.4550  223.5630 C   0  0  0  0  0  0  0  0  0  0  0  0
  140.0330   78.7920  222.4190 N   0  0  0  0  0  0  0  0  0  0  0  0
  140.0290   71.5010  223.3720 C   0  0  0  0  0  0  0  0  0  0  0  0
  139.5870   70.1960  223.3310 C   0  0  0  0  0  0  0  0  0  0  0  0
  139.6180   69.4130  224.4780 C   0  0  0  0  0  0  0  0  0  0  0  0
  140.0910   69.9340  225.6660 C   0  0  0  0  0  0  0  0  0  0  0  0
  140.1510   69.2180  226.8400 C   0  0  0  0  0  0  0  0  0  0  0  0
  139.5970   67.5440  226.8380 Cl  0  0  0  0  0  0  0  0  0  0  0  0
  140.6400   69.8190  227.9870 C   0  0  0  0  0  0  0  0  0  0  0  0
  141.0800   71.1290  228.0150 C   0  0  0  0  0  0  0  0  0  0  0  0
  141.0190   71.8550  226.8250 C   0  0  0  0  0  0  0  0  0  0  0  0
  140.5310   71.2580  225.6740 C   0  0  0  0  0  0  0  0  0  0  0  0
  140.4860   71.9880  224.5440 N   0  0  0  0  0  0  0  0  0  0  0  0
  139.5620   74.1620  223.2510 H   0  0  0  0  0  0  0  0  0  0  0  0
  140.0483   74.0270  220.2611 H   0  0  0  0  0  0  0  0  0  0  0  0
  138.6793   74.9454  220.9800 H   0  0  0  0  0  0  0  0  0  0  0  0
  142.0184   74.9061  219.3435 H   0  0  0  0  0  0  0  0  0  0  0  0
  141.0973   75.9167  218.1985 H   0  0  0  0  0  0  0  0  0  0  0  0
  143.5873   76.7268  219.7684 H   0  0  0  0  0  0  0  0  0  0  0  0
  143.4750   76.3946  217.9935 H   0  0  0  0  0  0  0  0  0  0  0  0
  143.2339   78.8393  219.2394 H   0  0  0  0  0  0  0  0  0  0  0  0
  142.7063   78.3717  217.5454 H   0  0  0  0  0  0  0  0  0  0  0  0
  141.0919   79.6361  219.0656 H   0  0  0  0  0  0  0  0  0  0  0  0
  140.5550   78.1608  218.1120 H   0  0  0  0  0  0  0  0  0  0  0  0
  139.5323   77.9624  220.1354 H   0  0  0  0  0  0  0  0  0  0  0  0
  142.9752   79.1403  220.8895 H   0  0  0  0  0  0  0  0  0  0  0  0
  143.4633   80.3606  222.9722 H   0  0  0  0  0  0  0  0  0  0  0  0
  141.7159   80.5833  224.7489 H   0  0  0  0  0  0  0  0  0  0  0  0
  139.4931   79.5322  224.3215 H   0  0  0  0  0  0  0  0  0  0  0  0
  139.2090   69.7738  222.3882 H   0  0  0  0  0  0  0  0  0  0  0  0
  139.2638   68.3723  224.4396 H   0  0  0  0  0  0  0  0  0  0  0  0
  140.6801   69.2295  228.9149 H   0  0  0  0  0  0  0  0  0  0  0  0
  141.4639   71.5823  228.9408 H   0  0  0  0  0  0  0  0  0  0  0  0
  141.3583   72.9011  226.8007 H   0  0  0  0  0  0  0  0  0  0  0  0
  1  2  2  0
  2  3  1  0
  3  4  1  0
  4  5  1  0
  5  6  2  0
  5  7  1  0
  7  8  1  0
  8  9  1  0
  9 10  1  0
 10 11  1  0
 11 12  1  0
 12 13  1  0
 13 14  2  0
 14 15  1  0
 15 16  2  0
 16 17  1  0
 17 18  2  0
  2 19  1  0
 19 20  2  0
 20 21  1  0
 21 22  2  0
 22 23  1  0
 23 24  1  0
 23 25  2  0
 25 26  1  0
 26 27  2  0
 27 28  1  0
 28 29  2  0
 12  7  1  0
 18 13  1  0
 29 19  1  0
 28 22  1  0
  3 30  1  0
  4 31  1  0
  4 32  1  0
  8 33  1  0
  8 34  1  0
  9 35  1  0
  9 36  1  0
 10 37  1  0
 10 38  1  0
 11 39  1  0
 11 40  1  0
 12 41  1  6
 14 42  1  0
 15 43  1  0
 16 44  1  0
 17 45  1  0
 20 46  1  0
 21 47  1  0
 25 48  1  0
 26 49  1  0
 27 50  1  0
M  END
>  <smiles>  (32) 
O=C(NCC(=O)N1CCCCC1c1ccccn1)c1ccc2c(Cl)cccc2n1

>  <score_type>  (32) 
oracle

>  <origin>  (32) 
autodockgpu

>  <m_score__min__energy>  (32) 
-9.1099999999999994

>  <m_primary>  (32) 
energy

>  <rmsd>  (32) 
2.1444086105834717

>  <m_score__min__rmsd>  (32) 
2.1444086105834717

>  <meeko>  (32) 
{"free_energy": -9.11, "intermolecular_energy": -10.6, "internal_energy": -1.76, "cluster_size": 14, "cluster_id": 1, "rank_in_cluster": 1}

>  <energy>  (32) 
-6.75

>  <cluster_rmsd>  (32) 
1.92

>  <cluster>  (32) 
3

$$$$

     RDKit          3D

 50 53  0  0  0  0  0  0  0  0999 V2000
  140.0970   71.4890  221.0240 O   0  0  0  0  0  0  0  0  0  0  0  0
  140.0190   72.1560  222.1060 C   0  0  0  0  0  0  0  0  0  0  0  0
  139.9110   73.5620  222.1430 N   0  0  0  0  0  0  0  0  0  0  0  0
  139.8840   74.3220  220.9070 C   0  0  0  0  0  0  0  0  0  0  0  0
  140.7940   75.4920  221.0170 C   0  0  0  0  0  0  0  0  0  0  0  0
  141.0640   75.9370  222.1620 O   0  0  0  0  0  0  0  0  0  0  0  0
  141.3110   76.0450  219.8150 N   0  0  0  0  0  0  0  0  0  0  0  0
  140.4590   76.4850  218.7220 C   0  0  0  0  0  0  0  0  0  0  0  0
  140.9280   75.7970  217.4730 C   0  0  0  0  0  0  0  0  0  0  0  0
  142.3670   76.0870  217.2080 C   0  0  0  0  0  0  0  0  0  0  0  0
  143.0940   76.7130  218.3510 C   0  0  0  0  0  0  0  0  0  0  0  0
  142.7380   76.1680  219.6910 C   0  0  2  0  0  0  0  0  0  0  0  0
  143.4840   74.9390  220.0570 C   0  0  0  0  0  0  0  0  0  0  0  0
  142.9320   73.6690  219.9700 C   0  0  0  0  0  0  0  0  0  0  0  0
  143.6490   72.5370  220.3160 C   0  0  0  0  0  0  0  0  0  0  0  0
  144.9500   72.6350  220.7650 C   0  0  0  0  0  0  0  0  0  0  0  0
  145.4810   73.9100  220.8450 C   0  0  0  0  0  0  0  0  0  0  0  0
  144.7690   75.0000  220.5030 N   0  0  0  0  0  0  0  0  0  0  0  0
  140.0420   71.4130  223.3830 C   0  0  0  0  0  0  0  0  0  0  0  0
  139.6080   70.1060  223.4520 C   0  0  0  0  0  0  0  0  0  0  0  0
  139.6380   69.4240  224.6620 C   0  0  0  0  0  0  0  0  0  0  0  0
  140.1010   70.0470  225.8030 C   0  0  0  0  0  0  0  0  0  0  0  0
  140.1600   69.4350  227.0340 C   0  0  0  0  0  0  0  0  0  0  0  0
  139.6170   67.7620  227.1720 Cl  0  0  0  0  0  0  0  0  0  0  0  0
  140.6380   70.1340  228.1280 C   0  0  0  0  0  0  0  0  0  0  0  0
  141.0700   71.4450  228.0470 C   0  0  0  0  0  0  0  0  0  0  0  0
  141.0110   72.0670  226.7990 C   0  0  0  0  0  0  0  0  0  0  0  0
  140.5330   71.3700  225.7000 C   0  0  0  0  0  0  0  0  0  0  0  0
  140.4890   72.0010  224.5120 N   0  0  0  0  0  0  0  0  0  0  0  0
  139.8470   74.0890  223.0510 H   0  0  0  0  0  0  0  0  0  0  0  0
  140.2126   73.6803  220.0762 H   0  0  0  0  0  0  0  0  0  0  0  0
  138.8591   74.6747  220.7191 H   0  0  0  0  0  0  0  0  0  0  0  0
  139.4134   76.2135  218.9293 H   0  0  0  0  0  0  0  0  0  0  0  0
  140.5155   77.5773  218.6048 H   0  0  0  0  0  0  0  0  0  0  0  0
  140.7959   74.7112  217.5898 H   0  0  0  0  0  0  0  0  0  0  0  0
  140.3346   76.1697  216.6251 H   0  0  0  0  0  0  0  0  0  0  0  0
  142.8681   75.1397  216.9598 H   0  0  0  0  0  0  0  0  0  0  0  0
  142.3922   76.8162  216.3848 H   0  0  0  0  0  0  0  0  0  0  0  0
  144.1723   76.5612  218.1952 H   0  0  0  0  0  0  0  0  0  0  0  0
  142.8021   77.7735  218.3603 H   0  0  0  0  0  0  0  0  0  0  0  0
  143.0715   76.8969  220.4443 H   0  0  0  0  0  0  0  0  0  0  0  0
  141.8962   73.5589  219.6164 H   0  0  0  0  0  0  0  0  0  0  0  0
  143.1761   71.5474  220.2321 H   0  0  0  0  0  0  0  0  0  0  0  0
  145.5343   71.7460  221.0447 H   0  0  0  0  0  0  0  0  0  0  0  0
  146.5150   74.0367  221.1983 H   0  0  0  0  0  0  0  0  0  0  0  0
  139.2373   69.6023  222.5471 H   0  0  0  0  0  0  0  0  0  0  0  0
  139.2907   68.3814  224.7108 H   0  0  0  0  0  0  0  0  0  0  0  0
  140.6760   69.6257  229.1028 H   0  0  0  0  0  0  0  0  0  0  0  0
  141.4461   71.9777  228.9329 H   0  0  0  0  0  0  0  0  0  0  0  0
  141.3435   73.1096  226.6874 H   0  0  0  0  0  0  0  0  0  0  0  0
  1  2  2  0
  2  3  1  0
  3  4  1  0
  4  5  1  0
  5  6  2  0
  5  7  1  0
  7  8  1  0
  8  9  1  0
  9 10  1  0
 10 11  1  0
 11 12  1  0
 12 13  1  0
 13 14  2  0
 14 15  1  0
 15 16  2  0
 16 17  1  0
 17 18  2  0
  2 19  1  0
 19 20  2  0
 20 21  1  0
 21 22  2  0
 22 23  1  0
 23 24  1  0
 23 25  2  0
 25 26  1  0
 26 27  2  0
 27 28  1  0
 28 29  2  0
 12  7  1  0
 18 13  1  0
 29 19  1  0
 28 22  1  0
  3 30  1  0
  4 31  1  0
  4 32  1  0
  8 33  1  0
  8 34  1  0
  9 35  1  0
  9 36  1  0
 10 37  1  0
 10 38  1  0
 11 39  1  0
 11 40  1  0
 12 41  1  1
 14 42  1  0
 15 43  1  0
 16 44  1  0
 17 45  1  0
 20 46  1  0
 21 47  1  0
 25 48  1  0
 26 49  1  0
 27 50  1  0
M  END
>  <smiles>  (33) 
O=C(NCC(=O)N1CCCCC1c1ccccn1)c1ccc2c(Cl)cccc2n1

>  <score_type>  (33) 
oracle

>  <origin>  (33) 
autodockgpu

>  <m_score__min__energy>  (33) 
-9.1099999999999994

>  <m_primary>  (33) 
energy

>  <rmsd>  (33) 
3.930207318739332

>  <m_score__min__rmsd>  (33) 
3.930207318739332

>  <meeko>  (33) 
{"free_energy": -8.34, "intermolecular_energy": -9.83, "internal_energy": -2.09, "cluster_size": 9, "cluster_id": 2, "rank_in_cluster": 6}

>  <energy>  (33) 
-7.22

>  <cluster_rmsd>  (33) 
0.0

>  <cluster>  (33) 
4

$$$$

     RDKit          3D

 50 53  0  0  0  0  0  0  0  0999 V2000
  139.0600   73.7600  221.6330 O   0  0  0  0  0  0  0  0  0  0  0  0
  140.1720   74.3800  221.6000 C   0  0  0  0  0  0  0  0  0  0  0  0
  140.3210   75.7240  221.9990 N   0  0  0  0  0  0  0  0  0  0  0  0
  139.1730   76.4740  222.4750 C   0  0  0  0  0  0  0  0  0  0  0  0
  139.2620   77.8810  222.0060 C   0  0  0  0  0  0  0  0  0  0  0  0
  138.5120   78.2490  221.0670 O   0  0  0  0  0  0  0  0  0  0  0  0
  140.1960   78.7360  222.6500 N   0  0  0  0  0  0  0  0  0  0  0  0
  139.7960   79.7910  223.5660 C   0  0  0  0  0  0  0  0  0  0  0  0
  140.4160   81.0710  223.0860 C   0  0  0  0  0  0  0  0  0  0  0  0
  141.8990   80.9490  222.9930 C   0  0  0  0  0  0  0  0  0  0  0  0
  142.4130   79.5510  223.0880 C   0  0  0  0  0  0  0  0  0  0  0  0
  141.5930   78.5340  222.3720 C   0  0  2  0  0  0  0  0  0  0  0  0
  141.9100   78.4150  220.9280 C   0  0  0  0  0  0  0  0  0  0  0  0
  141.8380   79.4870  220.0500 C   0  0  0  0  0  0  0  0  0  0  0  0
  142.1400   79.3500  218.7060 C   0  0  0  0  0  0  0  0  0  0  0  0
  142.5270   78.1310  218.1890 C   0  0  0  0  0  0  0  0  0  0  0  0
  142.5920   77.0760  219.0820 C   0  0  0  0  0  0  0  0  0  0  0  0
  142.2950   77.2270  220.3860 N   0  0  0  0  0  0  0  0  0  0  0  0
  141.3620   73.6460  221.1210 C   0  0  0  0  0  0  0  0  0  0  0  0
  141.2780   72.3190  220.7580 C   0  0  0  0  0  0  0  0  0  0  0  0
  142.4080   71.6450  220.3090 C   0  0  0  0  0  0  0  0  0  0  0  0
  143.6210   72.2990  220.2230 C   0  0  0  0  0  0  0  0  0  0  0  0
  144.7800   71.6970  219.7880 C   0  0  0  0  0  0  0  0  0  0  0  0
  144.7230   70.0000  219.3120 Cl  0  0  0  0  0  0  0  0  0  0  0  0
  145.9540   72.4270  219.7330 C   0  0  0  0  0  0  0  0  0  0  0  0
  146.0250   73.7590  220.0990 C   0  0  0  0  0  0  0  0  0  0  0  0
  144.8510   74.3690  220.5410 C   0  0  0  0  0  0  0  0  0  0  0  0
  143.6720   73.6420  220.5970 C   0  0  0  0  0  0  0  0  0  0  0  0
  142.5580   74.2620  221.0280 N   0  0  0  0  0  0  0  0  0  0  0  0
  141.2520   76.2130  221.9630 H   0  0  0  0  0  0  0  0  0  0  0  0
  138.2512   76.0169  222.0860 H   0  0  0  0  0  0  0  0  0  0  0  0
  139.1589   76.4577  223.5748 H   0  0  0  0  0  0  0  0  0  0  0  0
  138.7001   79.8852  223.5734 H   0  0  0  0  0  0  0  0  0  0  0  0
  140.1299   79.5607  224.5885 H   0  0  0  0  0  0  0  0  0  0  0  0
  140.0128   81.3145  222.0919 H   0  0  0  0  0  0  0  0  0  0  0  0
  140.1761   81.8665  223.8069 H   0  0  0  0  0  0  0  0  0  0  0  0
  142.2181   81.3673  222.0270 H   0  0  0  0  0  0  0  0  0  0  0  0
  142.3120   81.4930  223.8553 H   0  0  0  0  0  0  0  0  0  0  0  0
  143.4287   79.5304  222.6661 H   0  0  0  0  0  0  0  0  0  0  0  0
  142.3802   79.2807  224.1538 H   0  0  0  0  0  0  0  0  0  0  0  0
  141.8681   77.5463  222.7705 H   0  0  0  0  0  0  0  0  0  0  0  0
  141.5327   80.4722  220.4322 H   0  0  0  0  0  0  0  0  0  0  0  0
  142.0705   80.2242  218.0419 H   0  0  0  0  0  0  0  0  0  0  0  0
  142.7709   78.0044  217.1239 H   0  0  0  0  0  0  0  0  0  0  0  0
  142.8955   76.0843  218.7152 H   0  0  0  0  0  0  0  0  0  0  0  0
  140.3147   71.7920  220.8237 H   0  0  0  0  0  0  0  0  0  0  0  0
  142.3354   70.5859  220.0210 H   0  0  0  0  0  0  0  0  0  0  0  0
  146.8694   71.9271  219.3835 H   0  0  0  0  0  0  0  0  0  0  0  0
  146.9717   74.3163  220.0436 H   0  0  0  0  0  0  0  0  0  0  0  0
  144.8607   75.4261  220.8449 H   0  0  0  0  0  0  0  0  0  0  0  0
  1  2  2  0
  2  3  1  0
  3  4  1  0
  4  5  1  0
  5  6  2  0
  5  7  1  0
  7  8  1  0
  8  9  1  0
  9 10  1  0
 10 11  1  0
 11 12  1  0
 12 13  1  0
 13 14  2  0
 14 15  1  0
 15 16  2  0
 16 17  1  0
 17 18  2  0
  2 19  1  0
 19 20  2  0
 20 21  1  0
 21 22  2  0
 22 23  1  0
 23 24  1  0
 23 25  2  0
 25 26  1  0
 26 27  2  0
 27 28  1  0
 28 29  2  0
 12  7  1  0
 18 13  1  0
 29 19  1  0
 28 22  1  0
  3 30  1  0
  4 31  1  0
  4 32  1  0
  8 33  1  0
  8 34  1  0
  9 35  1  0
  9 36  1  0
 10 37  1  0
 10 38  1  0
 11 39  1  0
 11 40  1  0
 12 41  1  1
 14 42  1  0
 15 43  1  0
 16 44  1  0
 17 45  1  0
 20 46  1  0
 21 47  1  0
 25 48  1  0
 26 49  1  0
 27 50  1  0
M  END
>  <smiles>  (34) 
O=C(NCC(=O)N1CCCCC1c1ccccn1)c1ccc2c(Cl)cccc2n1

>  <score_type>  (34) 
oracle

>  <origin>  (34) 
autodockgpu

>  <m_score__min__energy>  (34) 
-9.1099999999999994

>  <m_primary>  (34) 
energy

>  <rmsd>  (34) 
5.841197136857536

>  <m_score__min__rmsd>  (34) 
5.841197136857536

>  <meeko>  (34) 
{"free_energy": -7.08, "intermolecular_energy": -8.57, "internal_energy": -2.95, "cluster_size": 9, "cluster_id": 3, "rank_in_cluster": 5}

>  <energy>  (34) 
-7.2

>  <cluster_rmsd>  (34) 
0.11

>  <cluster>  (34) 
4

$$$$

     RDKit          3D

 50 53  0  0  0  0  0  0  0  0999 V2000
  140.3190   71.7380  221.0090 O   0  0  0  0  0  0  0  0  0  0  0  0
  140.0590   72.2910  222.1270 C   0  0  0  0  0  0  0  0  0  0  0  0
  139.7660   73.6630  222.2630 N   0  0  0  0  0  0  0  0  0  0  0  0
  139.7530   74.5230  221.0940 C   0  0  0  0  0  0  0  0  0  0  0  0
  140.8640   75.5070  221.1800 C   0  0  0  0  0  0  0  0  0  0  0  0
  141.2870   75.8360  222.3170 O   0  0  0  0  0  0  0  0  0  0  0  0
  141.3870   76.0230  219.9650 N   0  0  0  0  0  0  0  0  0  0  0  0
  140.5410   76.5310  218.8970 C   0  0  0  0  0  0  0  0  0  0  0  0
  140.9210   75.8150  217.6340 C   0  0  0  0  0  0  0  0  0  0  0  0
  142.3690   75.9940  217.3280 C   0  0  0  0  0  0  0  0  0  0  0  0
  143.1750   76.5580  218.4520 C   0  0  0  0  0  0  0  0  0  0  0  0
  142.8150   76.0360  219.8000 C   0  0  2  0  0  0  0  0  0  0  0  0
  143.4740   74.7520  220.1430 C   0  0  0  0  0  0  0  0  0  0  0  0
  144.8070   74.6650  220.5190 C   0  0  0  0  0  0  0  0  0  0  0  0
  145.3980   73.4550  220.8360 C   0  0  0  0  0  0  0  0  0  0  0  0
  144.6740   72.2810  220.7870 C   0  0  0  0  0  0  0  0  0  0  0  0
  143.3480   72.3890  220.4100 C   0  0  0  0  0  0  0  0  0  0  0  0
  142.7890   73.5760  220.1060 N   0  0  0  0  0  0  0  0  0  0  0  0
  140.0640   71.4430  223.3380 C   0  0  0  0  0  0  0  0  0  0  0  0
  139.6010   70.1450  223.2970 C   0  0  0  0  0  0  0  0  0  0  0  0
  139.6140   69.3640  224.4460 C   0  0  0  0  0  0  0  0  0  0  0  0
  140.0900   69.8800  225.6360 C   0  0  0  0  0  0  0  0  0  0  0  0
  140.1330   69.1660  226.8110 C   0  0  0  0  0  0  0  0  0  0  0  0
  139.5530   67.5000  226.8100 Cl  0  0  0  0  0  0  0  0  0  0  0  0
  140.6260   69.7610  227.9590 C   0  0  0  0  0  0  0  0  0  0  0  0
  141.0870   71.0640  227.9870 C   0  0  0  0  0  0  0  0  0  0  0  0
  141.0430   71.7890  226.7950 C   0  0  0  0  0  0  0  0  0  0  0  0
  140.5510   71.1960  225.6420 C   0  0  0  0  0  0  0  0  0  0  0  0
  140.5230   71.9240  224.5110 N   0  0  0  0  0  0  0  0  0  0  0  0
  139.5540   74.0950  223.1980 H   0  0  0  0  0  0  0  0  0  0  0  0
  139.8770   73.9105  220.1887 H   0  0  0  0  0  0  0  0  0  0  0  0
  138.7944   75.0607  221.0495 H   0  0  0  0  0  0  0  0  0  0  0  0
  139.4839   76.3389  219.1330 H   0  0  0  0  0  0  0  0  0  0  0  0
  140.6776   77.6163  218.7806 H   0  0  0  0  0  0  0  0  0  0  0  0
  140.7091   74.7421  217.7521 H   0  0  0  0  0  0  0  0  0  0  0  0
  140.3348   76.2369  216.8044 H   0  0  0  0  0  0  0  0  0  0  0  0
  142.7882   75.0119  217.0638 H   0  0  0  0  0  0  0  0  0  0  0  0
  142.4270   76.7222  216.5056 H   0  0  0  0  0  0  0  0  0  0  0  0
  144.2335   76.3240  218.2655 H   0  0  0  0  0  0  0  0  0  0  0  0
  142.9672   77.6380  218.4716 H   0  0  0  0  0  0  0  0  0  0  0  0
  143.2246   76.7344  220.5446 H   0  0  0  0  0  0  0  0  0  0  0  0
  145.4104   75.5835  220.5663 H   0  0  0  0  0  0  0  0  0  0  0  0
  146.4575   73.4283  221.1306 H   0  0  0  0  0  0  0  0  0  0  0  0
  145.1280   71.3102  221.0349 H   0  0  0  0  0  0  0  0  0  0  0  0
  142.7320   71.4792  220.3569 H   0  0  0  0  0  0  0  0  0  0  0  0
  139.2207   69.7271  222.3532 H   0  0  0  0  0  0  0  0  0  0  0  0
  139.2432   68.3291  224.4081 H   0  0  0  0  0  0  0  0  0  0  0  0
  140.6522   69.1726  228.8880 H   0  0  0  0  0  0  0  0  0  0  0  0
  141.4740   71.5126  228.9138 H   0  0  0  0  0  0  0  0  0  0  0  0
  141.3983   72.8298  226.7702 H   0  0  0  0  0  0  0  0  0  0  0  0
  1  2  2  0
  2  3  1  0
  3  4  1  0
  4  5  1  0
  5  6  2  0
  5  7  1  0
  7  8  1  0
  8  9  1  0
  9 10  1  0
 10 11  1  0
 11 12  1  0
 12 13  1  0
 13 14  2  0
 14 15  1  0
 15 16  2  0
 16 17  1  0
 17 18  2  0
  2 19  1  0
 19 20  2  0
 20 21  1  0
 21 22  2  0
 22 23  1  0
 23 24  1  0
 23 25  2  0
 25 26  1  0
 26 27  2  0
 27 28  1  0
 28 29  2  0
 12  7  1  0
 18 13  1  0
 29 19  1  0
 28 22  1  0
  3 30  1  0
  4 31  1  0
  4 32  1  0
  8 33  1  0
  8 34  1  0
  9 35  1  0
  9 36  1  0
 10 37  1  0
 10 38  1  0
 11 39  1  0
 11 40  1  0
 12 41  1  1
 14 42  1  0
 15 43  1  0
 16 44  1  0
 17 45  1  0
 20 46  1  0
 21 47  1  0
 25 48  1  0
 26 49  1  0
 27 50  1  0
M  END
>  <smiles>  (35) 
O=C(NCC(=O)N1CCCCC1c1ccccn1)c1ccc2c(Cl)cccc2n1

>  <score_type>  (35) 
oracle

>  <origin>  (35) 
autodockgpu

>  <m_score__min__energy>  (35) 
-9.1099999999999994

>  <m_primary>  (35) 
energy

>  <rmsd>  (35) 
3.9172878376362426

>  <m_score__min__rmsd>  (35) 
3.9172878376362426

>  <meeko>  (35) 
{"free_energy": -8.54, "intermolecular_energy": -10.04, "internal_energy": -2.09, "cluster_size": 9, "cluster_id": 2, "rank_in_cluster": 3}

>  <energy>  (35) 
-7.18

>  <cluster_rmsd>  (35) 
0.13

>  <cluster>  (35) 
4

$$$$

     RDKit          3D

 50 53  0  0  0  0  0  0  0  0999 V2000
  141.2120   72.0630  221.3800 O   0  0  0  0  0  0  0  0  0  0  0  0
  140.3980   72.4210  222.2910 C   0  0  0  0  0  0  0  0  0  0  0  0
  139.5590   73.5490  222.1810 N   0  0  0  0  0  0  0  0  0  0  0  0
  139.5960   74.3690  220.9840 C   0  0  0  0  0  0  0  0  0  0  0  0
  140.8370   75.1870  220.9740 C   0  0  0  0  0  0  0  0  0  0  0  0
  141.4440   75.3710  222.0590 O   0  0  0  0  0  0  0  0  0  0  0  0
  141.2690   75.7200  219.7290 N   0  0  0  0  0  0  0  0  0  0  0  0
  140.3500   76.0340  218.6470 C   0  0  0  0  0  0  0  0  0  0  0  0
  140.8370   75.3250  217.4160 C   0  0  0  0  0  0  0  0  0  0  0  0
  142.2380   75.7170  217.0880 C   0  0  0  0  0  0  0  0  0  0  0  0
  142.9460   76.4560  218.1750 C   0  0  0  0  0  0  0  0  0  0  0  0
  142.6770   75.9510  219.5500 C   0  0  2  0  0  0  0  0  0  0  0  0
  143.5320   74.8060  219.9480 C   0  0  0  0  0  0  0  0  0  0  0  0
  144.8050   74.9640  220.4770 C   0  0  0  0  0  0  0  0  0  0  0  0
  145.5830   73.8790  220.8430 C   0  0  0  0  0  0  0  0  0  0  0  0
  145.1140   72.5910  220.6900 C   0  0  0  0  0  0  0  0  0  0  0  0
  143.8430   72.4550  220.1610 C   0  0  0  0  0  0  0  0  0  0  0  0
  143.1000   73.5220  219.8110 N   0  0  0  0  0  0  0  0  0  0  0  0
  140.3340   71.6070  223.5230 C   0  0  0  0  0  0  0  0  0  0  0  0
  139.8790   70.3070  223.4920 C   0  0  0  0  0  0  0  0  0  0  0  0
  139.8260   69.5570  224.6610 C   0  0  0  0  0  0  0  0  0  0  0  0
  140.2290   70.1080  225.8610 C   0  0  0  0  0  0  0  0  0  0  0  0
  140.2050   69.4270  227.0560 C   0  0  0  0  0  0  0  0  0  0  0  0
  139.6310   67.7590  227.0670 Cl  0  0  0  0  0  0  0  0  0  0  0  0
  140.6270   70.0560  228.2140 C   0  0  0  0  0  0  0  0  0  0  0  0
  141.0820   71.3620  228.2330 C   0  0  0  0  0  0  0  0  0  0  0  0
  141.1060   72.0530  227.0210 C   0  0  0  0  0  0  0  0  0  0  0  0
  140.6850   71.4270  225.8580 C   0  0  0  0  0  0  0  0  0  0  0  0
  140.7220   72.1230  224.7080 N   0  0  0  0  0  0  0  0  0  0  0  0
  138.8940   73.8230  222.9490 H   0  0  0  0  0  0  0  0  0  0  0  0
  139.5788   73.7202  220.0959 H   0  0  0  0  0  0  0  0  0  0  0  0
  138.7209   75.0354  220.9723 H   0  0  0  0  0  0  0  0  0  0  0  0
  139.3375   75.6884  218.9029 H   0  0  0  0  0  0  0  0  0  0  0  0
  140.3110   77.1200  218.4768 H   0  0  0  0  0  0  0  0  0  0  0  0
  140.7990   74.2392  217.5883 H   0  0  0  0  0  0  0  0  0  0  0  0
  140.1895   75.6061  216.5724 H   0  0  0  0  0  0  0  0  0  0  0  0
  142.8077   74.8023  216.8672 H   0  0  0  0  0  0  0  0  0  0  0  0
  142.1776   76.4042  216.2312 H   0  0  0  0  0  0  0  0  0  0  0  0
  144.0279   76.3842  217.9894 H   0  0  0  0  0  0  0  0  0  0  0  0
  142.5686   77.4888  218.1446 H   0  0  0  0  0  0  0  0  0  0  0  0
  142.9727   76.7409  220.2561 H   0  0  0  0  0  0  0  0  0  0  0  0
  145.2070   75.9793  220.6092 H   0  0  0  0  0  0  0  0  0  0  0  0
  146.5868   74.0460  221.2607 H   0  0  0  0  0  0  0  0  0  0  0  0
  145.7191   71.7174  220.9739 H   0  0  0  0  0  0  0  0  0  0  0  0
  143.4274   71.4460  220.0223 H   0  0  0  0  0  0  0  0  0  0  0  0
  139.5567   69.8613  222.5394 H   0  0  0  0  0  0  0  0  0  0  0  0
  139.4613   68.5197  224.6299 H   0  0  0  0  0  0  0  0  0  0  0  0
  140.5994   69.4938  229.1591 H   0  0  0  0  0  0  0  0  0  0  0  0
  141.4124   71.8379  229.1681 H   0  0  0  0  0  0  0  0  0  0  0  0
  141.4589   73.0943  226.9884 H   0  0  0  0  0  0  0  0  0  0  0  0
  1  2  2  0
  2  3  1  0
  3  4  1  0
  4  5  1  0
  5  6  2  0
  5  7  1  0
  7  8  1  0
  8  9  1  0
  9 10  1  0
 10 11  1  0
 11 12  1  0
 12 13  1  0
 13 14  2  0
 14 15  1  0
 15 16  2  0
 16 17  1  0
 17 18  2  0
  2 19  1  0
 19 20  2  0
 20 21  1  0
 21 22  2  0
 22 23  1  0
 23 24  1  0
 23 25  2  0
 25 26  1  0
 26 27  2  0
 27 28  1  0
 28 29  2  0
 12  7  1  0
 18 13  1  0
 29 19  1  0
 28 22  1  0
  3 30  1  0
  4 31  1  0
  4 32  1  0
  8 33  1  0
  8 34  1  0
  9 35  1  0
  9 36  1  0
 10 37  1  0
 10 38  1  0
 11 39  1  0
 11 40  1  0
 12 41  1  1
 14 42  1  0
 15 43  1  0
 16 44  1  0
 17 45  1  0
 20 46  1  0
 21 47  1  0
 25 48  1  0
 26 49  1  0
 27 50  1  0
M  END
>  <smiles>  (36) 
O=C(NCC(=O)N1CCCCC1c1ccccn1)c1ccc2c(Cl)cccc2n1

>  <score_type>  (36) 
oracle

>  <origin>  (36) 
autodockgpu

>  <m_score__min__energy>  (36) 
-9.1099999999999994

>  <m_primary>  (36) 
energy

>  <rmsd>  (36) 
3.868959711518861

>  <m_score__min__rmsd>  (36) 
3.868959711518861

>  <meeko>  (36) 
{"free_energy": -8.56, "intermolecular_energy": -10.05, "internal_energy": -1.83, "cluster_size": 9, "cluster_id": 2, "rank_in_cluster": 2}

>  <energy>  (36) 
-7.18

>  <cluster_rmsd>  (36) 
0.41

>  <cluster>  (36) 
4

$$$$

     RDKit          3D

 50 53  0  0  0  0  0  0  0  0999 V2000
  139.2880   75.1710  222.2970 O   0  0  0  0  0  0  0  0  0  0  0  0
  140.4020   75.6830  221.9520 C   0  0  0  0  0  0  0  0  0  0  0  0
  141.5140   74.9160  221.5450 N   0  0  0  0  0  0  0  0  0  0  0  0
  141.4230   73.4680  221.5050 C   0  0  0  0  0  0  0  0  0  0  0  0
  141.8690   72.9740  220.1760 C   0  0  0  0  0  0  0  0  0  0  0  0
  140.9960   72.6720  219.3230 O   0  0  0  0  0  0  0  0  0  0  0  0
  143.2670   72.8700  219.9430 N   0  0  0  0  0  0  0  0  0  0  0  0
  144.1550   72.1150  220.8120 C   0  0  0  0  0  0  0  0  0  0  0  0
  145.2690   73.0290  221.2310 C   0  0  0  0  0  0  0  0  0  0  0  0
  145.9870   73.5820  220.0470 C   0  0  0  0  0  0  0  0  0  0  0  0
  145.2880   73.3730  218.7450 C   0  0  0  0  0  0  0  0  0  0  0  0
  143.8090   73.5470  218.7960 C   0  0  2  0  0  0  0  0  0  0  0  0
  143.3650   74.9570  218.6610 C   0  0  0  0  0  0  0  0  0  0  0  0
  142.9410   75.5010  217.4580 C   0  0  0  0  0  0  0  0  0  0  0  0
  142.5300   76.8190  217.3580 C   0  0  0  0  0  0  0  0  0  0  0  0
  142.5290   77.6440  218.4640 C   0  0  0  0  0  0  0  0  0  0  0  0
  142.9550   77.0820  219.6540 C   0  0  0  0  0  0  0  0  0  0  0  0
  143.3510   75.7970  219.7320 N   0  0  0  0  0  0  0  0  0  0  0  0
  140.5280   77.1550  221.9820 C   0  0  0  0  0  0  0  0  0  0  0  0
  139.8100   77.9460  221.1120 C   0  0  0  0  0  0  0  0  0  0  0  0
  139.9410   79.3290  221.1550 C   0  0  0  0  0  0  0  0  0  0  0  0
  140.7920   79.9210  222.0680 C   0  0  0  0  0  0  0  0  0  0  0  0
  140.9720   81.2810  222.1690 C   0  0  0  0  0  0  0  0  0  0  0  0
  140.0740   82.3360  221.0770 Cl  0  0  0  0  0  0  0  0  0  0  0  0
  141.8460   81.7900  223.1140 C   0  0  0  0  0  0  0  0  0  0  0  0
  142.5620   80.9860  223.9810 C   0  0  0  0  0  0  0  0  0  0  0  0
  142.3790   79.6060  223.8790 C   0  0  0  0  0  0  0  0  0  0  0  0
  141.5040   79.0910  222.9350 C   0  0  0  0  0  0  0  0  0  0  0  0
  141.3530   77.7560  222.8650 N   0  0  0  0  0  0  0  0  0  0  0  0
  142.4230   75.3640  221.2650 H   0  0  0  0  0  0  0  0  0  0  0  0
  142.0652   73.0396  222.2886 H   0  0  0  0  0  0  0  0  0  0  0  0
  140.3796   73.1640  221.6750 H   0  0  0  0  0  0  0  0  0  0  0  0
  143.6043   71.7651  221.6976 H   0  0  0  0  0  0  0  0  0  0  0  0
  144.5551   71.2366  220.2845 H   0  0  0  0  0  0  0  0  0  0  0  0
  144.8499   73.8603  221.8170 H   0  0  0  0  0  0  0  0  0  0  0  0
  145.9851   72.4516  221.8342 H   0  0  0  0  0  0  0  0  0  0  0  0
  146.1156   74.6640  220.1979 H   0  0  0  0  0  0  0  0  0  0  0  0
  146.9419   73.0401  219.9795 H   0  0  0  0  0  0  0  0  0  0  0  0
  145.6928   74.0940  218.0195 H   0  0  0  0  0  0  0  0  0  0  0  0
  145.4674   72.3255  218.4613 H   0  0  0  0  0  0  0  0  0  0  0  0
  143.3879   73.0650  217.9014 H   0  0  0  0  0  0  0  0  0  0  0  0
  142.9310   74.8678  216.5586 H   0  0  0  0  0  0  0  0  0  0  0  0
  142.2003   77.2133  216.3855 H   0  0  0  0  0  0  0  0  0  0  0  0
  142.2063   78.6938  218.4026 H   0  0  0  0  0  0  0  0  0  0  0  0
  142.9708   77.7021  220.5624 H   0  0  0  0  0  0  0  0  0  0  0  0
  139.1312   77.4817  220.3814 H   0  0  0  0  0  0  0  0  0  0  0  0
  139.3641   79.9553  220.4586 H   0  0  0  0  0  0  0  0  0  0  0  0
  141.9763   82.8804  223.1777 H   0  0  0  0  0  0  0  0  0  0  0  0
  143.2499   81.4174  224.7231 H   0  0  0  0  0  0  0  0  0  0  0  0
  142.9289   78.9272  224.5475 H   0  0  0  0  0  0  0  0  0  0  0  0
  1  2  2  0
  2  3  1  0
  3  4  1  0
  4  5  1  0
  5  6  2  0
  5  7  1  0
  7  8  1  0
  8  9  1  0
  9 10  1  0
 10 11  1  0
 11 12  1  0
 12 13  1  0
 13 14  2  0
 14 15  1  0
 15 16  2  0
 16 17  1  0
 17 18  2  0
  2 19  1  0
 19 20  2  0
 20 21  1  0
 21 22  2  0
 22 23  1  0
 23 24  1  0
 23 25  2  0
 25 26  1  0
 26 27  2  0
 27 28  1  0
 28 29  2  0
 12  7  1  0
 18 13  1  0
 29 19  1  0
 28 22  1  0
  3 30  1  0
  4 31  1  0
  4 32  1  0
  8 33  1  0
  8 34  1  0
  9 35  1  0
  9 36  1  0
 10 37  1  0
 10 38  1  0
 11 39  1  0
 11 40  1  0
 12 41  1  6
 14 42  1  0
 15 43  1  0
 16 44  1  0
 17 45  1  0
 20 46  1  0
 21 47  1  0
 25 48  1  0
 26 49  1  0
 27 50  1  0
M  END
>  <smiles>  (37) 
O=C(NCC(=O)N1CCCCC1c1ccccn1)c1ccc2c(Cl)cccc2n1

>  <score_type>  (37) 
oracle

>  <origin>  (37) 
autodockgpu

>  <m_score__min__energy>  (37) 
-9.1099999999999994

>  <m_primary>  (37) 
energy

>  <rmsd>  (37) 
7.341151202779855

>  <m_score__min__rmsd>  (37) 
7.341151202779855

>  <meeko>  (37) 
{"free_energy": -7.18, "intermolecular_energy": -8.68, "internal_energy": -2.9, "cluster_size": 13, "cluster_id": 4, "rank_in_cluster": 4}

>  <energy>  (37) 
-7.18

>  <cluster_rmsd>  (37) 
0.48

>  <cluster>  (37) 
4

$$$$

     RDKit          3D

 50 53  0  0  0  0  0  0  0  0999 V2000
  140.0140   71.4560  221.0600 O   0  0  0  0  0  0  0  0  0  0  0  0
  139.9620   72.1270  222.1410 C   0  0  0  0  0  0  0  0  0  0  0  0
  139.8720   73.5340  222.1760 N   0  0  0  0  0  0  0  0  0  0  0  0
  139.8360   74.2920  220.9390 C   0  0  0  0  0  0  0  0  0  0  0  0
  140.6070   75.5520  221.0980 C   0  0  0  0  0  0  0  0  0  0  0  0
  140.7320   76.0370  222.2510 O   0  0  0  0  0  0  0  0  0  0  0  0
  141.1620   76.1410  219.9310 N   0  0  0  0  0  0  0  0  0  0  0  0
  140.3440   76.6680  218.8510 C   0  0  0  0  0  0  0  0  0  0  0  0
  140.8030   76.0230  217.5750 C   0  0  0  0  0  0  0  0  0  0  0  0
  142.2560   76.2650  217.3410 C   0  0  0  0  0  0  0  0  0  0  0  0
  142.9920   76.8040  218.5220 C   0  0  0  0  0  0  0  0  0  0  0  0
  142.5950   76.2100  219.8290 C   0  0  2  0  0  0  0  0  0  0  0  0
  143.2850   74.9340  220.1440 C   0  0  0  0  0  0  0  0  0  0  0  0
  144.6290   74.8680  220.4810 C   0  0  0  0  0  0  0  0  0  0  0  0
  145.2490   73.6650  220.7720 C   0  0  0  0  0  0  0  0  0  0  0  0
  144.5430   72.4790  220.7350 C   0  0  0  0  0  0  0  0  0  0  0  0
  143.2050   72.5680  220.3970 C   0  0  0  0  0  0  0  0  0  0  0  0
  142.6180   73.7480  220.1170 N   0  0  0  0  0  0  0  0  0  0  0  0
  139.9960   71.3870  223.4200 C   0  0  0  0  0  0  0  0  0  0  0  0
  139.5570   70.0830  223.4960 C   0  0  0  0  0  0  0  0  0  0  0  0
  139.5980   69.4030  224.7080 C   0  0  0  0  0  0  0  0  0  0  0  0
  140.0770   70.0270  225.8420 C   0  0  0  0  0  0  0  0  0  0  0  0
  140.1470   69.4160  227.0730 C   0  0  0  0  0  0  0  0  0  0  0  0
  139.5970   67.7470  227.2220 Cl  0  0  0  0  0  0  0  0  0  0  0  0
  140.6420   70.1160  228.1600 C   0  0  0  0  0  0  0  0  0  0  0  0
  141.0800   71.4250  228.0710 C   0  0  0  0  0  0  0  0  0  0  0  0
  141.0100   72.0440  226.8220 C   0  0  0  0  0  0  0  0  0  0  0  0
  140.5150   71.3470  225.7310 C   0  0  0  0  0  0  0  0  0  0  0  0
  140.4610   71.9750  224.5420 N   0  0  0  0  0  0  0  0  0  0  0  0
  139.8300   74.0650  223.0830 H   0  0  0  0  0  0  0  0  0  0  0  0
  140.2791   73.6923  220.1303 H   0  0  0  0  0  0  0  0  0  0  0  0
  138.7918   74.5340  220.6917 H   0  0  0  0  0  0  0  0  0  0  0  0
  139.2855   76.4294  219.0319 H   0  0  0  0  0  0  0  0  0  0  0  0
  140.4457   77.7615  218.7886 H   0  0  0  0  0  0  0  0  0  0  0  0
  140.6250   74.9392  217.6365 H   0  0  0  0  0  0  0  0  0  0  0  0
  140.2377   76.4619  216.7397 H   0  0  0  0  0  0  0  0  0  0  0  0
  142.7211   75.3108  217.0526 H   0  0  0  0  0  0  0  0  0  0  0  0
  142.3227   77.0313  216.5546 H   0  0  0  0  0  0  0  0  0  0  0  0
  144.0652   76.6150  218.3720 H   0  0  0  0  0  0  0  0  0  0  0  0
  142.7440   77.8741  218.5798 H   0  0  0  0  0  0  0  0  0  0  0  0
  142.9479   76.8875  220.6205 H   0  0  0  0  0  0  0  0  0  0  0  0
  145.2178   75.7964  220.5180 H   0  0  0  0  0  0  0  0  0  0  0  0
  146.3168   73.6538  221.0359 H   0  0  0  0  0  0  0  0  0  0  0  0
  145.0197   71.5141  220.9624 H   0  0  0  0  0  0  0  0  0  0  0  0
  142.6024   71.6487  220.3555 H   0  0  0  0  0  0  0  0  0  0  0  0
  139.1736   69.5793  222.5964 H   0  0  0  0  0  0  0  0  0  0  0  0
  139.2468   68.3620  224.7634 H   0  0  0  0  0  0  0  0  0  0  0  0
  140.6890   69.6099  229.1355 H   0  0  0  0  0  0  0  0  0  0  0  0
  141.4688   71.9580  228.9512 H   0  0  0  0  0  0  0  0  0  0  0  0
  141.3474   73.0842  226.7036 H   0  0  0  0  0  0  0  0  0  0  0  0
  1  2  2  0
  2  3  1  0
  3  4  1  0
  4  5  1  0
  5  6  2  0
  5  7  1  0
  7  8  1  0
  8  9  1  0
  9 10  1  0
 10 11  1  0
 11 12  1  0
 12 13  1  0
 13 14  2  0
 14 15  1  0
 15 16  2  0
 16 17  1  0
 17 18  2  0
  2 19  1  0
 19 20  2  0
 20 21  1  0
 21 22  2  0
 22 23  1  0
 23 24  1  0
 23 25  2  0
 25 26  1  0
 26 27  2  0
 27 28  1  0
 28 29  2  0
 12  7  1  0
 18 13  1  0
 29 19  1  0
 28 22  1  0
  3 30  1  0
  4 31  1  0
  4 32  1  0
  8 33  1  0
  8 34  1  0
  9 35  1  0
  9 36  1  0
 10 37  1  0
 10 38  1  0
 11 39  1  0
 11 40  1  0
 12 41  1  1
 14 42  1  0
 15 43  1  0
 16 44  1  0
 17 45  1  0
 20 46  1  0
 21 47  1  0
 25 48  1  0
 26 49  1  0
 27 50  1  0
M  END
>  <smiles>  (38) 
O=C(NCC(=O)N1CCCCC1c1ccccn1)c1ccc2c(Cl)cccc2n1

>  <score_type>  (38) 
oracle

>  <origin>  (38) 
autodockgpu

>  <m_score__min__energy>  (38) 
-9.1099999999999994

>  <m_primary>  (38) 
energy

>  <rmsd>  (38) 
3.8075186328894297

>  <m_score__min__rmsd>  (38) 
3.8075186328894297

>  <meeko>  (38) 
{"free_energy": -8.38, "intermolecular_energy": -9.87, "internal_energy": -2.27, "cluster_size": 9, "cluster_id": 2, "rank_in_cluster": 5}

>  <energy>  (38) 
-7.17

>  <cluster_rmsd>  (38) 
0.13

>  <cluster>  (38) 
4

$$$$

     RDKit          3D

 50 53  0  0  0  0  0  0  0  0999 V2000
  141.1240   71.9820  221.2580 O   0  0  0  0  0  0  0  0  0  0  0  0
  140.3320   72.3880  222.1690 C   0  0  0  0  0  0  0  0  0  0  0  0
  139.5040   73.5200  222.0270 N   0  0  0  0  0  0  0  0  0  0  0  0
  139.5270   74.2890  220.7950 C   0  0  0  0  0  0  0  0  0  0  0  0
  138.7910   75.5660  220.9860 C   0  0  0  0  0  0  0  0  0  0  0  0
  137.7550   75.7700  220.3030 O   0  0  0  0  0  0  0  0  0  0  0  0
  139.3040   76.4900  221.9350 N   0  0  0  0  0  0  0  0  0  0  0  0
  138.4500   77.3610  222.7250 C   0  0  0  0  0  0  0  0  0  0  0  0
  138.9320   78.7700  222.5310 C   0  0  0  0  0  0  0  0  0  0  0  0
  140.3680   78.9050  222.9100 C   0  0  0  0  0  0  0  0  0  0  0  0
  141.0840   77.6090  223.0960 C   0  0  0  0  0  0  0  0  0  0  0  0
  140.7300   76.5530  222.1070 C   0  0  2  0  0  0  0  0  0  0  0  0
  141.4890   76.6420  220.8350 C   0  0  0  0  0  0  0  0  0  0  0  0
  141.4330   77.7490  220.0010 C   0  0  0  0  0  0  0  0  0  0  0  0
  142.1520   77.8080  218.8200 C   0  0  0  0  0  0  0  0  0  0  0  0
  142.9560   76.7570  218.4280 C   0  0  0  0  0  0  0  0  0  0  0  0
  142.9970   75.6640  219.2740 C   0  0  0  0  0  0  0  0  0  0  0  0
  142.2910   75.6230  220.4200 N   0  0  0  0  0  0  0  0  0  0  0  0
  140.2840   71.6280  223.4360 C   0  0  0  0  0  0  0  0  0  0  0  0
  139.8330   70.3260  223.4650 C   0  0  0  0  0  0  0  0  0  0  0  0
  139.7960   69.6280  224.6660 C   0  0  0  0  0  0  0  0  0  0  0  0
  140.2080   70.2320  225.8370 C   0  0  0  0  0  0  0  0  0  0  0  0
  140.1990   69.6030  227.0610 C   0  0  0  0  0  0  0  0  0  0  0  0
  139.6310   67.9360  227.1510 Cl  0  0  0  0  0  0  0  0  0  0  0  0
  140.6310   70.2830  228.1860 C   0  0  0  0  0  0  0  0  0  0  0  0
  141.0810   71.5900  228.1440 C   0  0  0  0  0  0  0  0  0  0  0  0
  141.0900   72.2280  226.9030 C   0  0  0  0  0  0  0  0  0  0  0  0
  140.6600   71.5510  225.7730 C   0  0  0  0  0  0  0  0  0  0  0  0
  140.6820   72.1970  224.5930 N   0  0  0  0  0  0  0  0  0  0  0  0
  138.8580   73.8350  222.7950 H   0  0  0  0  0  0  0  0  0  0  0  0
  140.5695   74.5059  220.5191 H   0  0  0  0  0  0  0  0  0  0  0  0
  139.0455   73.7080  219.9946 H   0  0  0  0  0  0  0  0  0  0  0  0
  137.4074   77.2715  222.3860 H   0  0  0  0  0  0  0  0  0  0  0  0
  138.4925   77.0818  223.7881 H   0  0  0  0  0  0  0  0  0  0  0  0
  138.8122   79.0479  221.4735 H   0  0  0  0  0  0  0  0  0  0  0  0
  138.3374   79.4338  223.1758 H   0  0  0  0  0  0  0  0  0  0  0  0
  140.8807   79.4700  222.1176 H   0  0  0  0  0  0  0  0  0  0  0  0
  140.3875   79.4155  223.8842 H   0  0  0  0  0  0  0  0  0  0  0  0
  142.1645   77.8009  223.0200 H   0  0  0  0  0  0  0  0  0  0  0  0
  140.7799   77.2255  224.0811 H   0  0  0  0  0  0  0  0  0  0  0  0
  141.0531   75.5875  222.5235 H   0  0  0  0  0  0  0  0  0  0  0  0
  140.8003   78.6026  220.2859 H   0  0  0  0  0  0  0  0  0  0  0  0
  142.0818   78.7039  218.1857 H   0  0  0  0  0  0  0  0  0  0  0  0
  143.5335   76.7872  217.4923 H   0  0  0  0  0  0  0  0  0  0  0  0
  143.6249   74.8025  219.0029 H   0  0  0  0  0  0  0  0  0  0  0  0
  139.5018   69.8387  222.5361 H   0  0  0  0  0  0  0  0  0  0  0  0
  139.4365   68.5886  224.6837 H   0  0  0  0  0  0  0  0  0  0  0  0
  140.6158   69.7620  229.1547 H   0  0  0  0  0  0  0  0  0  0  0  0
  141.4190   72.1070  229.0542 H   0  0  0  0  0  0  0  0  0  0  0  0
  141.4384   73.2682  226.8218 H   0  0  0  0  0  0  0  0  0  0  0  0
  1  2  2  0
  2  3  1  0
  3  4  1  0
  4  5  1  0
  5  6  2  0
  5  7  1  0
  7  8  1  0
  8  9  1  0
  9 10  1  0
 10 11  1  0
 11 12  1  0
 12 13  1  0
 13 14  2  0
 14 15  1  0
 15 16  2  0
 16 17  1  0
 17 18  2  0
  2 19  1  0
 19 20  2  0
 20 21  1  0
 21 22  2  0
 22 23  1  0
 23 24  1  0
 23 25  2  0
 25 26  1  0
 26 27  2  0
 27 28  1  0
 28 29  2  0
 12  7  1  0
 18 13  1  0
 29 19  1  0
 28 22  1  0
  3 30  1  0
  4 31  1  0
  4 32  1  0
  8 33  1  0
  8 34  1  0
  9 35  1  0
  9 36  1  0
 10 37  1  0
 10 38  1  0
 11 39  1  0
 11 40  1  0
 12 41  1  1
 14 42  1  0
 15 43  1  0
 16 44  1  0
 17 45  1  0
 20 46  1  0
 21 47  1  0
 25 48  1  0
 26 49  1  0
 27 50  1  0
M  END
>  <smiles>  (39) 
O=C(NCC(=O)N1CCCCC1c1ccccn1)c1ccc2c(Cl)cccc2n1

>  <score_type>  (39) 
oracle

>  <origin>  (39) 
autodockgpu

>  <m_score__min__energy>  (39) 
-9.1099999999999994

>  <m_primary>  (39) 
energy

>  <rmsd>  (39) 
3.528890603139104

>  <m_score__min__rmsd>  (39) 
3.528890603139104

>  <meeko>  (39) 
{"free_energy": -8.44, "intermolecular_energy": -9.93, "internal_energy": -1.58, "cluster_size": 9, "cluster_id": 2, "rank_in_cluster": 4}

>  <energy>  (39) 
-7.16

>  <cluster_rmsd>  (39) 
0.22

>  <cluster>  (39) 
4

$$$$

     RDKit          3D

 50 53  0  0  0  0  0  0  0  0999 V2000
  139.2600   71.7800  220.8820 O   0  0  0  0  0  0  0  0  0  0  0  0
  139.5340   72.3270  222.0000 C   0  0  0  0  0  0  0  0  0  0  0  0
  139.7080   73.7160  222.1590 N   0  0  0  0  0  0  0  0  0  0  0  0
  139.5790   74.6020  221.0160 C   0  0  0  0  0  0  0  0  0  0  0  0
  140.5820   75.6950  221.1110 C   0  0  0  0  0  0  0  0  0  0  0  0
  141.3000   75.7620  222.1410 O   0  0  0  0  0  0  0  0  0  0  0  0
  140.6710   76.6080  220.0260 N   0  0  0  0  0  0  0  0  0  0  0  0
  141.1820   76.2280  218.7200 C   0  0  0  0  0  0  0  0  0  0  0  0
  142.2780   77.1890  218.3610 C   0  0  0  0  0  0  0  0  0  0  0  0
  141.7860   78.5970  218.3780 C   0  0  0  0  0  0  0  0  0  0  0  0
  140.4520   78.7790  219.0230 C   0  0  0  0  0  0  0  0  0  0  0  0
  140.2340   77.9590  220.2480 C   0  0  2  0  0  0  0  0  0  0  0  0
  140.7740   78.5730  221.4860 C   0  0  0  0  0  0  0  0  0  0  0  0
  142.1000   78.9600  221.6190 C   0  0  0  0  0  0  0  0  0  0  0  0
  142.5790   79.5310  222.7850 C   0  0  0  0  0  0  0  0  0  0  0  0
  141.7460   79.7380  223.8650 C   0  0  0  0  0  0  0  0  0  0  0  0
  140.4280   79.3460  223.7110 C   0  0  0  0  0  0  0  0  0  0  0  0
  139.9790   78.7910  222.5690 N   0  0  0  0  0  0  0  0  0  0  0  0
  139.6720   71.4530  223.1840 C   0  0  0  0  0  0  0  0  0  0  0  0
  139.2660   70.1370  223.1460 C   0  0  0  0  0  0  0  0  0  0  0  0
  139.4050   69.3310  224.2700 C   0  0  0  0  0  0  0  0  0  0  0  0
  139.9490   69.8420  225.4310 C   0  0  0  0  0  0  0  0  0  0  0  0
  140.1170   69.1050  226.5810 C   0  0  0  0  0  0  0  0  0  0  0  0
  139.6130   67.4150  226.5820 Cl  0  0  0  0  0  0  0  0  0  0  0  0
  140.6720   69.6960  227.7020 C   0  0  0  0  0  0  0  0  0  0  0  0
  141.0760   71.0190  227.7280 C   0  0  0  0  0  0  0  0  0  0  0  0
  140.9060   71.7670  226.5620 C   0  0  0  0  0  0  0  0  0  0  0  0
  140.3510   71.1780  225.4360 C   0  0  0  0  0  0  0  0  0  0  0  0
  140.2010   71.9290  224.3300 N   0  0  0  0  0  0  0  0  0  0  0  0
  139.9330   74.1430  223.0940 H   0  0  0  0  0  0  0  0  0  0  0  0
  139.7471   74.0314  220.0907 H   0  0  0  0  0  0  0  0  0  0  0  0
  138.5684   75.0362  221.0050 H   0  0  0  0  0  0  0  0  0  0  0  0
  141.5798   75.2031  218.7571 H   0  0  0  0  0  0  0  0  0  0  0  0
  140.3797   76.2606  217.9682 H   0  0  0  0  0  0  0  0  0  0  0  0
  143.0977   77.0863  219.0873 H   0  0  0  0  0  0  0  0  0  0  0  0
  142.6290   76.9543  217.3452 H   0  0  0  0  0  0  0  0  0  0  0  0
  142.5181   79.2102  218.9240 H   0  0  0  0  0  0  0  0  0  0  0  0
  141.6693   78.9003  217.3271 H   0  0  0  0  0  0  0  0  0  0  0  0
  140.3461   79.8390  219.2972 H   0  0  0  0  0  0  0  0  0  0  0  0
  139.7044   78.4443  218.2888 H   0  0  0  0  0  0  0  0  0  0  0  0
  139.1508   77.9270  220.4370 H   0  0  0  0  0  0  0  0  0  0  0  0
  142.7889   78.8088  220.7749 H   0  0  0  0  0  0  0  0  0  0  0  0
  143.6373   79.8235  222.8515 H   0  0  0  0  0  0  0  0  0  0  0  0
  142.1103   80.1907  224.7990 H   0  0  0  0  0  0  0  0  0  0  0  0
  139.7265   79.4919  224.5456 H   0  0  0  0  0  0  0  0  0  0  0  0
  138.8310   69.7232  222.2243 H   0  0  0  0  0  0  0  0  0  0  0  0
  139.0798   68.2808  224.2340 H   0  0  0  0  0  0  0  0  0  0  0  0
  140.7973   69.0887  228.6106 H   0  0  0  0  0  0  0  0  0  0  0  0
  141.5145   71.4644  228.6332 H   0  0  0  0  0  0  0  0  0  0  0  0
  141.2121   72.8232  226.5363 H   0  0  0  0  0  0  0  0  0  0  0  0
  1  2  2  0
  2  3  1  0
  3  4  1  0
  4  5  1  0
  5  6  2  0
  5  7  1  0
  7  8  1  0
  8  9  1  0
  9 10  1  0
 10 11  1  0
 11 12  1  0
 12 13  1  0
 13 14  2  0
 14 15  1  0
 15 16  2  0
 16 17  1  0
 17 18  2  0
  2 19  1  0
 19 20  2  0
 20 21  1  0
 21 22  2  0
 22 23  1  0
 23 24  1  0
 23 25  2  0
 25 26  1  0
 26 27  2  0
 27 28  1  0
 28 29  2  0
 12  7  1  0
 18 13  1  0
 29 19  1  0
 28 22  1  0
  3 30  1  0
  4 31  1  0
  4 32  1  0
  8 33  1  0
  8 34  1  0
  9 35  1  0
  9 36  1  0
 10 37  1  0
 10 38  1  0
 11 39  1  0
 11 40  1  0
 12 41  1  1
 14 42  1  0
 15 43  1  0
 16 44  1  0
 17 45  1  0
 20 46  1  0
 21 47  1  0
 25 48  1  0
 26 49  1  0
 27 50  1  0
M  END
>  <smiles>  (40) 
O=C(NCC(=O)N1CCCCC1c1ccccn1)c1ccc2c(Cl)cccc2n1

>  <score_type>  (40) 
oracle

>  <origin>  (40) 
autodockgpu

>  <m_score__min__energy>  (40) 
-9.1099999999999994

>  <m_primary>  (40) 
energy

>  <rmsd>  (40) 
2.0875832956131517

>  <m_score__min__rmsd>  (40) 
2.0875832956131517

>  <meeko>  (40) 
{"free_energy": -8.33, "intermolecular_energy": -9.82, "internal_energy": -2.04, "cluster_size": 14, "cluster_id": 1, "rank_in_cluster": 11}

>  <energy>  (40) 
-7.15

>  <cluster_rmsd>  (40) 
0.7

>  <cluster>  (40) 
4

$$$$

     RDKit          3D

 50 53  0  0  0  0  0  0  0  0999 V2000
  139.4780   71.7140  220.8780 O   0  0  0  0  0  0  0  0  0  0  0  0
  139.6670   72.2700  222.0090 C   0  0  0  0  0  0  0  0  0  0  0  0
  139.7800   73.6650  222.1770 N   0  0  0  0  0  0  0  0  0  0  0  0
  139.6810   74.5470  221.0280 C   0  0  0  0  0  0  0  0  0  0  0  0
  140.5740   75.7200  221.2160 C   0  0  0  0  0  0  0  0  0  0  0  0
  141.1060   75.8940  222.3420 O   0  0  0  0  0  0  0  0  0  0  0  0
  140.7760   76.5840  220.1070 N   0  0  0  0  0  0  0  0  0  0  0  0
  141.3540   76.1300  218.8530 C   0  0  0  0  0  0  0  0  0  0  0  0
  142.5130   77.0300  218.5330 C   0  0  0  0  0  0  0  0  0  0  0  0
  142.0840   78.4570  218.4650 C   0  0  0  0  0  0  0  0  0  0  0  0
  140.7200   78.7210  219.0110 C   0  0  0  0  0  0  0  0  0  0  0  0
  140.3860   77.9610  220.2480 C   0  0  2  0  0  0  0  0  0  0  0  0
  140.8690   78.6000  221.4960 C   0  0  0  0  0  0  0  0  0  0  0  0
  140.0570   78.8030  222.6020 C   0  0  0  0  0  0  0  0  0  0  0  0
  140.5330   79.4010  223.7560 C   0  0  0  0  0  0  0  0  0  0  0  0
  141.8440   79.8200  223.8460 C   0  0  0  0  0  0  0  0  0  0  0  0
  142.6370   79.6090  222.7320 C   0  0  0  0  0  0  0  0  0  0  0  0
  142.1570   79.0250  221.6170 N   0  0  0  0  0  0  0  0  0  0  0  0
  139.7720   71.4010  223.2000 C   0  0  0  0  0  0  0  0  0  0  0  0
  139.3550   70.0880  223.1590 C   0  0  0  0  0  0  0  0  0  0  0  0
  139.4620   69.2870  224.2890 C   0  0  0  0  0  0  0  0  0  0  0  0
  139.9850   69.7980  225.4600 C   0  0  0  0  0  0  0  0  0  0  0  0
  140.1210   69.0650  226.6160 C   0  0  0  0  0  0  0  0  0  0  0  0
  139.6020   67.3790  226.6150 Cl  0  0  0  0  0  0  0  0  0  0  0  0
  140.6570   69.6570  227.7470 C   0  0  0  0  0  0  0  0  0  0  0  0
  141.0720   70.9750  227.7750 C   0  0  0  0  0  0  0  0  0  0  0  0
  140.9340   71.7200  226.6030 C   0  0  0  0  0  0  0  0  0  0  0  0
  140.3990   71.1300  225.4680 C   0  0  0  0  0  0  0  0  0  0  0  0
  140.2800   71.8780  224.3550 N   0  0  0  0  0  0  0  0  0  0  0  0
  139.9360   74.0990  223.1220 H   0  0  0  0  0  0  0  0  0  0  0  0
  139.9811   74.0010  220.1215 H   0  0  0  0  0  0  0  0  0  0  0  0
  138.6423   74.8939  220.9246 H   0  0  0  0  0  0  0  0  0  0  0  0
  141.7028   75.0918  218.9552 H   0  0  0  0  0  0  0  0  0  0  0  0
  140.6050   76.1649  218.0482 H   0  0  0  0  0  0  0  0  0  0  0  0
  143.2781   76.9221  219.3159 H   0  0  0  0  0  0  0  0  0  0  0  0
  142.9187   76.7407  217.5523 H   0  0  0  0  0  0  0  0  0  0  0  0
  142.8052   79.0600  219.0363 H   0  0  0  0  0  0  0  0  0  0  0  0
  142.0502   78.7226  217.3981 H   0  0  0  0  0  0  0  0  0  0  0  0
  140.6437   79.7947  219.2376 H   0  0  0  0  0  0  0  0  0  0  0  0
  140.0079   78.3891  218.2411 H   0  0  0  0  0  0  0  0  0  0  0  0
  139.2923   77.9829  220.3637 H   0  0  0  0  0  0  0  0  0  0  0  0
  139.0063   78.4800  222.5609 H   0  0  0  0  0  0  0  0  0  0  0  0
  139.8572   79.5439  224.6121 H   0  0  0  0  0  0  0  0  0  0  0  0
  142.2383   80.2968  224.7555 H   0  0  0  0  0  0  0  0  0  0  0  0
  143.6896   79.9273  222.7575 H   0  0  0  0  0  0  0  0  0  0  0  0
  138.9367   69.6736  222.2299 H   0  0  0  0  0  0  0  0  0  0  0  0
  139.1281   68.2396  224.2505 H   0  0  0  0  0  0  0  0  0  0  0  0
  140.7567   69.0533  228.6611 H   0  0  0  0  0  0  0  0  0  0  0  0
  141.4954   71.4203  228.6873 H   0  0  0  0  0  0  0  0  0  0  0  0
  141.2492   72.7736  226.5797 H   0  0  0  0  0  0  0  0  0  0  0  0
  1  2  2  0
  2  3  1  0
  3  4  1  0
  4  5  1  0
  5  6  2  0
  5  7  1  0
  7  8  1  0
  8  9  1  0
  9 10  1  0
 10 11  1  0
 11 12  1  0
 12 13  1  0
 13 14  2  0
 14 15  1  0
 15 16  2  0
 16 17  1  0
 17 18  2  0
  2 19  1  0
 19 20  2  0
 20 21  1  0
 21 22  2  0
 22 23  1  0
 23 24  1  0
 23 25  2  0
 25 26  1  0
 26 27  2  0
 27 28  1  0
 28 29  2  0
 12  7  1  0
 18 13  1  0
 29 19  1  0
 28 22  1  0
  3 30  1  0
  4 31  1  0
  4 32  1  0
  8 33  1  0
  8 34  1  0
  9 35  1  0
  9 36  1  0
 10 37  1  0
 10 38  1  0
 11 39  1  0
 11 40  1  0
 12 41  1  1
 14 42  1  0
 15 43  1  0
 16 44  1  0
 17 45  1  0
 20 46  1  0
 21 47  1  0
 25 48  1  0
 26 49  1  0
 27 50  1  0
M  END
>  <smiles>  (41) 
O=C(NCC(=O)N1CCCCC1c1ccccn1)c1ccc2c(Cl)cccc2n1

>  <score_type>  (41) 
oracle

>  <origin>  (41) 
autodockgpu

>  <m_score__min__energy>  (41) 
-9.1099999999999994

>  <m_primary>  (41) 
energy

>  <rmsd>  (41) 
2.2741010961980432

>  <m_score__min__rmsd>  (41) 
2.2741010961980432

>  <meeko>  (41) 
{"free_energy": -8.52, "intermolecular_energy": -10.01, "internal_energy": -2.07, "cluster_size": 14, "cluster_id": 1, "rank_in_cluster": 9}

>  <energy>  (41) 
-7.14

>  <cluster_rmsd>  (41) 
0.7

>  <cluster>  (41) 
4

$$$$

     RDKit          3D

 50 53  0  0  0  0  0  0  0  0999 V2000
  139.0740   73.8030  221.6510 O   0  0  0  0  0  0  0  0  0  0  0  0
  140.1900   74.4150  221.6160 C   0  0  0  0  0  0  0  0  0  0  0  0
  140.3520   75.7550  222.0250 N   0  0  0  0  0  0  0  0  0  0  0  0
  139.2120   76.5090  222.5150 C   0  0  0  0  0  0  0  0  0  0  0  0
  139.2660   77.8990  221.9910 C   0  0  0  0  0  0  0  0  0  0  0  0
  138.5110   78.2100  221.0360 O   0  0  0  0  0  0  0  0  0  0  0  0
  140.1760   78.8020  222.6040 N   0  0  0  0  0  0  0  0  0  0  0  0
  139.7450   79.8720  223.4880 C   0  0  0  0  0  0  0  0  0  0  0  0
  140.3240   81.1560  222.9660 C   0  0  0  0  0  0  0  0  0  0  0  0
  141.8090   81.0770  222.8700 C   0  0  0  0  0  0  0  0  0  0  0  0
  142.3670   79.6990  223.0060 C   0  0  0  0  0  0  0  0  0  0  0  0
  141.5770   78.6360  222.3260 C   0  0  2  0  0  0  0  0  0  0  0  0
  141.8920   78.4810  220.8840 C   0  0  0  0  0  0  0  0  0  0  0  0
  141.8290   79.5340  219.9820 C   0  0  0  0  0  0  0  0  0  0  0  0
  142.1290   79.3640  218.6420 C   0  0  0  0  0  0  0  0  0  0  0  0
  142.5060   78.1300  218.1530 C   0  0  0  0  0  0  0  0  0  0  0  0
  142.5630   77.0950  219.0690 C   0  0  0  0  0  0  0  0  0  0  0  0
  142.2680   77.2780  220.3700 N   0  0  0  0  0  0  0  0  0  0  0  0
  141.3710   73.6760  221.1230 C   0  0  0  0  0  0  0  0  0  0  0  0
  141.2750   72.3530  220.7490 C   0  0  0  0  0  0  0  0  0  0  0  0
  142.3970   71.6760  220.2870 C   0  0  0  0  0  0  0  0  0  0  0  0
  143.6150   72.3200  220.2000 C   0  0  0  0  0  0  0  0  0  0  0  0
  144.7660   71.7140  219.7520 C   0  0  0  0  0  0  0  0  0  0  0  0
  144.6940   70.0220  219.2610 Cl  0  0  0  0  0  0  0  0  0  0  0  0
  145.9460   72.4360  219.6970 C   0  0  0  0  0  0  0  0  0  0  0  0
  146.0290   73.7630  220.0750 C   0  0  0  0  0  0  0  0  0  0  0  0
  144.8620   74.3780  220.5290 C   0  0  0  0  0  0  0  0  0  0  0  0
  143.6780   73.6600  220.5860 C   0  0  0  0  0  0  0  0  0  0  0  0
  142.5720   74.2850  221.0280 N   0  0  0  0  0  0  0  0  0  0  0  0
  141.2860   76.2370  221.9870 H   0  0  0  0  0  0  0  0  0  0  0  0
  138.2827   76.0270  222.1772 H   0  0  0  0  0  0  0  0  0  0  0  0
  139.2378   76.5336  223.6144 H   0  0  0  0  0  0  0  0  0  0  0  0
  138.6467   79.9321  223.4959 H   0  0  0  0  0  0  0  0  0  0  0  0
  140.0880   79.6843  224.5162 H   0  0  0  0  0  0  0  0  0  0  0  0
  139.9099   81.3564  221.9668 H   0  0  0  0  0  0  0  0  0  0  0  0
  140.0623   81.9654  223.6635 H   0  0  0  0  0  0  0  0  0  0  0  0
  142.1113   81.4746  221.8899 H   0  0  0  0  0  0  0  0  0  0  0  0
  142.2079   81.6600  223.7132 H   0  0  0  0  0  0  0  0  0  0  0  0
  143.3813   79.6969  222.5803 H   0  0  0  0  0  0  0  0  0  0  0  0
  142.3467   79.4611  224.0798 H   0  0  0  0  0  0  0  0  0  0  0  0
  141.8851   77.6707  222.7541 H   0  0  0  0  0  0  0  0  0  0  0  0
  141.5327   80.5303  220.3420 H   0  0  0  0  0  0  0  0  0  0  0  0
  142.0662   80.2232  217.9580 H   0  0  0  0  0  0  0  0  0  0  0  0
  142.7484   77.9774  217.0909 H   0  0  0  0  0  0  0  0  0  0  0  0
  142.8580   76.0929  218.7244 H   0  0  0  0  0  0  0  0  0  0  0  0
  140.3085   71.8321  220.8163 H   0  0  0  0  0  0  0  0  0  0  0  0
  142.3142   70.6204  219.9888 H   0  0  0  0  0  0  0  0  0  0  0  0
  146.8556   71.9326  219.3375 H   0  0  0  0  0  0  0  0  0  0  0  0
  146.9797   74.3135  220.0199 H   0  0  0  0  0  0  0  0  0  0  0  0
  144.8816   75.4325  220.8416 H   0  0  0  0  0  0  0  0  0  0  0  0
  1  2  2  0
  2  3  1  0
  3  4  1  0
  4  5  1  0
  5  6  2  0
  5  7  1  0
  7  8  1  0
  8  9  1  0
  9 10  1  0
 10 11  1  0
 11 12  1  0
 12 13  1  0
 13 14  2  0
 14 15  1  0
 15 16  2  0
 16 17  1  0
 17 18  2  0
  2 19  1  0
 19 20  2  0
 20 21  1  0
 21 22  2  0
 22 23  1  0
 23 24  1  0
 23 25  2  0
 25 26  1  0
 26 27  2  0
 27 28  1  0
 28 29  2  0
 12  7  1  0
 18 13  1  0
 29 19  1  0
 28 22  1  0
  3 30  1  0
  4 31  1  0
  4 32  1  0
  8 33  1  0
  8 34  1  0
  9 35  1  0
  9 36  1  0
 10 37  1  0
 10 38  1  0
 11 39  1  0
 11 40  1  0
 12 41  1  1
 14 42  1  0
 15 43  1  0
 16 44  1  0
 17 45  1  0
 20 46  1  0
 21 47  1  0
 25 48  1  0
 26 49  1  0
 27 50  1  0
M  END
>  <smiles>  (42) 
O=C(NCC(=O)N1CCCCC1c1ccccn1)c1ccc2c(Cl)cccc2n1

>  <score_type>  (42) 
oracle

>  <origin>  (42) 
autodockgpu

>  <m_score__min__energy>  (42) 
-9.1099999999999994

>  <m_primary>  (42) 
energy

>  <rmsd>  (42) 
5.850882592180228

>  <m_score__min__rmsd>  (42) 
5.850882592180228

>  <meeko>  (42) 
{"free_energy": -7.06, "intermolecular_energy": -8.56, "internal_energy": -2.94, "cluster_size": 9, "cluster_id": 3, "rank_in_cluster": 6}

>  <energy>  (42) 
-7.13

>  <cluster_rmsd>  (42) 
0.12

>  <cluster>  (42) 
4

$$$$

     RDKit          3D

 50 53  0  0  0  0  0  0  0  0999 V2000
  136.6850   71.0410  221.6560 O   0  0  0  0  0  0  0  0  0  0  0  0
  137.4950   71.6660  222.4140 C   0  0  0  0  0  0  0  0  0  0  0  0
  137.7260   73.0540  222.3230 N   0  0  0  0  0  0  0  0  0  0  0  0
  137.0250   73.8450  221.3280 C   0  0  0  0  0  0  0  0  0  0  0  0
  138.0060   74.4880  220.4140 C   0  0  0  0  0  0  0  0  0  0  0  0
  138.1420   74.0200  219.2550 O   0  0  0  0  0  0  0  0  0  0  0  0
  138.7380   75.6010  220.9060 N   0  0  0  0  0  0  0  0  0  0  0  0
  138.5500   76.9510  220.4030 C   0  0  0  0  0  0  0  0  0  0  0  0
  139.8950   77.4750  219.9890 C   0  0  0  0  0  0  0  0  0  0  0  0
  140.8610   77.4350  221.1240 C   0  0  0  0  0  0  0  0  0  0  0  0
  140.4080   76.6280  222.2950 C   0  0  0  0  0  0  0  0  0  0  0  0
  139.7030   75.3630  221.9460 C   0  0  2  0  0  0  0  0  0  0  0  0
  140.6120   74.2220  221.6770 C   0  0  0  0  0  0  0  0  0  0  0  0
  141.6820   74.3040  220.7970 C   0  0  0  0  0  0  0  0  0  0  0  0
  142.5180   73.2260  220.5640 C   0  0  0  0  0  0  0  0  0  0  0  0
  142.3120   72.0210  221.2040 C   0  0  0  0  0  0  0  0  0  0  0  0
  141.2410   71.9610  222.0760 C   0  0  0  0  0  0  0  0  0  0  0  0
  140.4380   73.0210  222.2920 N   0  0  0  0  0  0  0  0  0  0  0  0
  138.2260   70.8910  223.4380 C   0  0  0  0  0  0  0  0  0  0  0  0
  138.1670   69.5140  223.4620 C   0  0  0  0  0  0  0  0  0  0  0  0
  138.8620   68.8030  224.4330 C   0  0  0  0  0  0  0  0  0  0  0  0
  139.6130   69.4680  225.3810 C   0  0  0  0  0  0  0  0  0  0  0  0
  140.3250   68.8310  226.3710 C   0  0  0  0  0  0  0  0  0  0  0  0
  140.2830   67.0690  226.4420 Cl  0  0  0  0  0  0  0  0  0  0  0  0
  141.0540   69.5760  227.2820 C   0  0  0  0  0  0  0  0  0  0  0  0
  141.1040   70.9570  227.2480 C   0  0  0  0  0  0  0  0  0  0  0  0
  140.3820   71.6040  226.2450 C   0  0  0  0  0  0  0  0  0  0  0  0
  139.6510   70.8620  225.3290 C   0  0  0  0  0  0  0  0  0  0  0  0
  138.9670   71.5190  224.3750 N   0  0  0  0  0  0  0  0  0  0  0  0
  138.4010   73.5470  222.9610 H   0  0  0  0  0  0  0  0  0  0  0  0
  136.3574   73.1922  220.7465 H   0  0  0  0  0  0  0  0  0  0  0  0
  136.4342   74.6235  221.8329 H   0  0  0  0  0  0  0  0  0  0  0  0
  137.8707   76.9373  219.5379 H   0  0  0  0  0  0  0  0  0  0  0  0
  138.1083   77.5934  221.1790 H   0  0  0  0  0  0  0  0  0  0  0  0
  140.2829   76.8574  219.1655 H   0  0  0  0  0  0  0  0  0  0  0  0
  139.7780   78.5204  219.6674 H   0  0  0  0  0  0  0  0  0  0  0  0
  141.8052   77.0068  220.7564 H   0  0  0  0  0  0  0  0  0  0  0  0
  140.9676   78.4702  221.4803 H   0  0  0  0  0  0  0  0  0  0  0  0
  141.2923   76.3721  222.8971 H   0  0  0  0  0  0  0  0  0  0  0  0
  139.6796   77.2495  222.8365 H   0  0  0  0  0  0  0  0  0  0  0  0
  139.1497   75.0359  222.8387 H   0  0  0  0  0  0  0  0  0  0  0  0
  141.8707   75.2512  220.2706 H   0  0  0  0  0  0  0  0  0  0  0  0
  143.3568   73.3310  219.8601 H   0  0  0  0  0  0  0  0  0  0  0  0
  142.9657   71.1537  221.0295 H   0  0  0  0  0  0  0  0  0  0  0  0
  141.0385   71.0203  222.6091 H   0  0  0  0  0  0  0  0  0  0  0  0
  137.5687   68.9770  222.7112 H   0  0  0  0  0  0  0  0  0  0  0  0
  138.8133   67.7042  224.4461 H   0  0  0  0  0  0  0  0  0  0  0  0
  141.6168   69.0472  228.0653 H   0  0  0  0  0  0  0  0  0  0  0  0
  141.6914   71.5248  227.9846 H   0  0  0  0  0  0  0  0  0  0  0  0
  140.3924   72.7021  226.1805 H   0  0  0  0  0  0  0  0  0  0  0  0
  1  2  2  0
  2  3  1  0
  3  4  1  0
  4  5  1  0
  5  6  2  0
  5  7  1  0
  7  8  1  0
  8  9  1  0
  9 10  1  0
 10 11  1  0
 11 12  1  0
 12 13  1  0
 13 14  2  0
 14 15  1  0
 15 16  2  0
 16 17  1  0
 17 18  2  0
  2 19  1  0
 19 20  2  0
 20 21  1  0
 21 22  2  0
 22 23  1  0
 23 24  1  0
 23 25  2  0
 25 26  1  0
 26 27  2  0
 27 28  1  0
 28 29  2  0
 12  7  1  0
 18 13  1  0
 29 19  1  0
 28 22  1  0
  3 30  1  0
  4 31  1  0
  4 32  1  0
  8 33  1  0
  8 34  1  0
  9 35  1  0
  9 36  1  0
 10 37  1  0
 10 38  1  0
 11 39  1  0
 11 40  1  0
 12 41  1  1
 14 42  1  0
 15 43  1  0
 16 44  1  0
 17 45  1  0
 20 46  1  0
 21 47  1  0
 25 48  1  0
 26 49  1  0
 27 50  1  0
M  END
>  <smiles>  (43) 
O=C(NCC(=O)N1CCCCC1c1ccccn1)c1ccc2c(Cl)cccc2n1

>  <score_type>  (43) 
oracle

>  <origin>  (43) 
autodockgpu

>  <m_score__min__energy>  (43) 
-9.1099999999999994

>  <m_primary>  (43) 
energy

>  <rmsd>  (43) 
3.992929281406086

>  <m_score__min__rmsd>  (43) 
3.992929281406086

>  <meeko>  (43) 
{"free_energy": -6.88, "intermolecular_energy": -8.37, "internal_energy": -2.95, "cluster_size": 9, "cluster_id": 2, "rank_in_cluster": 9}

>  <energy>  (43) 
-7.11

>  <cluster_rmsd>  (43) 
0.18

>  <cluster>  (43) 
4

$$$$

     RDKit          3D

 50 53  0  0  0  0  0  0  0  0999 V2000
  138.9460   74.2810  221.9480 O   0  0  0  0  0  0  0  0  0  0  0  0
  140.0280   74.9530  221.9480 C   0  0  0  0  0  0  0  0  0  0  0  0
  141.2820   74.4010  221.6180 N   0  0  0  0  0  0  0  0  0  0  0  0
  141.3880   72.9990  221.2560 C   0  0  0  0  0  0  0  0  0  0  0  0
  141.9360   72.8760  219.8790 C   0  0  0  0  0  0  0  0  0  0  0  0
  141.1310   72.8560  218.9130 O   0  0  0  0  0  0  0  0  0  0  0  0
  143.3460   72.7870  219.7330 N   0  0  0  0  0  0  0  0  0  0  0  0
  144.1720   71.9390  220.5760 C   0  0  0  0  0  0  0  0  0  0  0  0
  145.2550   72.7960  221.1640 C   0  0  0  0  0  0  0  0  0  0  0  0
  146.0520   73.4650  220.0960 C   0  0  0  0  0  0  0  0  0  0  0  0
  145.4440   73.3980  218.7350 C   0  0  0  0  0  0  0  0  0  0  0  0
  143.9650   73.5760  218.7030 C   0  0  2  0  0  0  0  0  0  0  0  0
  143.5320   74.9950  218.6860 C   0  0  0  0  0  0  0  0  0  0  0  0
  143.4610   75.7480  217.5230 C   0  0  0  0  0  0  0  0  0  0  0  0
  143.0520   77.0700  217.5340 C   0  0  0  0  0  0  0  0  0  0  0  0
  142.6970   77.6900  218.7140 C   0  0  0  0  0  0  0  0  0  0  0  0
  142.7740   76.9220  219.8620 C   0  0  0  0  0  0  0  0  0  0  0  0
  143.1740   75.6370  219.8330 N   0  0  0  0  0  0  0  0  0  0  0  0
  139.9550   76.3840  222.3110 C   0  0  0  0  0  0  0  0  0  0  0  0
  138.7400   77.0180  222.4570 C   0  0  0  0  0  0  0  0  0  0  0  0
  138.6930   78.3640  222.8000 C   0  0  0  0  0  0  0  0  0  0  0  0
  139.8600   79.0750  222.9970 C   0  0  0  0  0  0  0  0  0  0  0  0
  139.8890   80.4080  223.3370 C   0  0  0  0  0  0  0  0  0  0  0  0
  138.3600   81.2640  223.5370 Cl  0  0  0  0  0  0  0  0  0  0  0  0
  141.1050   81.0450  223.5160 C   0  0  0  0  0  0  0  0  0  0  0  0
  142.3180   80.3980  223.3660 C   0  0  0  0  0  0  0  0  0  0  0  0
  142.2880   79.0460  223.0200 C   0  0  0  0  0  0  0  0  0  0  0  0
  141.0730   78.4040  222.8420 C   0  0  0  0  0  0  0  0  0  0  0  0
  141.0810   77.1000  222.5090 N   0  0  0  0  0  0  0  0  0  0  0  0
  142.1610   74.9790  221.6250 H   0  0  0  0  0  0  0  0  0  0  0  0
  142.0585   72.4886  221.9631 H   0  0  0  0  0  0  0  0  0  0  0  0
  140.3904   72.5371  221.2932 H   0  0  0  0  0  0  0  0  0  0  0  0
  143.5618   71.5022  221.3803 H   0  0  0  0  0  0  0  0  0  0  0  0
  144.6074   71.1179  219.9875 H   0  0  0  0  0  0  0  0  0  0  0  0
  144.7969   73.5641  221.8044 H   0  0  0  0  0  0  0  0  0  0  0  0
  145.9282   72.1534  221.7505 H   0  0  0  0  0  0  0  0  0  0  0  0
  146.1694   74.5244  220.3678 H   0  0  0  0  0  0  0  0  0  0  0  0
  147.0095   72.9267  220.0372 H   0  0  0  0  0  0  0  0  0  0  0  0
  145.8974   74.1880  218.1182 H   0  0  0  0  0  0  0  0  0  0  0  0
  145.6427   72.3846  218.3561 H   0  0  0  0  0  0  0  0  0  0  0  0
  143.6056   73.1928  217.7366 H   0  0  0  0  0  0  0  0  0  0  0  0
  143.7374   75.2815  216.5659 H   0  0  0  0  0  0  0  0  0  0  0  0
  143.0095   77.6333  216.5902 H   0  0  0  0  0  0  0  0  0  0  0  0
  142.3699   78.7399  218.7407 H   0  0  0  0  0  0  0  0  0  0  0  0
  142.5004   77.3745  220.8266 H   0  0  0  0  0  0  0  0  0  0  0  0
  137.8061   76.4579  222.3018 H   0  0  0  0  0  0  0  0  0  0  0  0
  137.7208   78.8656  222.9152 H   0  0  0  0  0  0  0  0  0  0  0  0
  141.1064   82.1106  223.7890 H   0  0  0  0  0  0  0  0  0  0  0  0
  143.2702   80.9286  223.5137 H   0  0  0  0  0  0  0  0  0  0  0  0
  143.2283   78.4905  222.8887 H   0  0  0  0  0  0  0  0  0  0  0  0
  1  2  2  0
  2  3  1  0
  3  4  1  0
  4  5  1  0
  5  6  2  0
  5  7  1  0
  7  8  1  0
  8  9  1  0
  9 10  1  0
 10 11  1  0
 11 12  1  0
 12 13  1  0
 13 14  2  0
 14 15  1  0
 15 16  2  0
 16 17  1  0
 17 18  2  0
  2 19  1  0
 19 20  2  0
 20 21  1  0
 21 22  2  0
 22 23  1  0
 23 24  1  0
 23 25  2  0
 25 26  1  0
 26 27  2  0
 27 28  1  0
 28 29  2  0
 12  7  1  0
 18 13  1  0
 29 19  1  0
 28 22  1  0
  3 30  1  0
  4 31  1  0
  4 32  1  0
  8 33  1  0
  8 34  1  0
  9 35  1  0
  9 36  1  0
 10 37  1  0
 10 38  1  0
 11 39  1  0
 11 40  1  0
 12 41  1  6
 14 42  1  0
 15 43  1  0
 16 44  1  0
 17 45  1  0
 20 46  1  0
 21 47  1  0
 25 48  1  0
 26 49  1  0
 27 50  1  0
M  END
>  <smiles>  (44) 
O=C(NCC(=O)N1CCCCC1c1ccccn1)c1ccc2c(Cl)cccc2n1

>  <score_type>  (44) 
oracle

>  <origin>  (44) 
autodockgpu

>  <m_score__min__energy>  (44) 
-9.1099999999999994

>  <m_primary>  (44) 
energy

>  <rmsd>  (44) 
6.951693421927349

>  <m_score__min__rmsd>  (44) 
6.951693421927349

>  <meeko>  (44) 
{"free_energy": -7.14, "intermolecular_energy": -8.63, "internal_energy": -2.99, "cluster_size": 13, "cluster_id": 4, "rank_in_cluster": 9}

>  <energy>  (44) 
-7.07

>  <cluster_rmsd>  (44) 
0.72

>  <cluster>  (44) 
4

$$$$

     RDKit          3D

 50 53  0  0  0  0  0  0  0  0999 V2000
  140.7450   71.6840  221.1760 O   0  0  0  0  0  0  0  0  0  0  0  0
  140.3060   72.2700  222.2180 C   0  0  0  0  0  0  0  0  0  0  0  0
  139.8620   73.6080  222.2240 N   0  0  0  0  0  0  0  0  0  0  0  0
  139.8920   74.3910  221.0010 C   0  0  0  0  0  0  0  0  0  0  0  0
  140.5230   75.7110  221.2650 C   0  0  0  0  0  0  0  0  0  0  0  0
  140.6490   76.0880  222.4570 O   0  0  0  0  0  0  0  0  0  0  0  0
  140.9480   76.4760  220.1460 N   0  0  0  0  0  0  0  0  0  0  0  0
  141.6930   75.9010  219.0380 C   0  0  0  0  0  0  0  0  0  0  0  0
  142.9380   76.7190  218.8510 C   0  0  0  0  0  0  0  0  0  0  0  0
  142.6090   78.1540  218.6160 C   0  0  0  0  0  0  0  0  0  0  0  0
  141.1930   78.5220  218.9120 C   0  0  0  0  0  0  0  0  0  0  0  0
  140.6210   77.8760  220.1260 C   0  0  2  0  0  0  0  0  0  0  0  0
  140.9350   78.5870  221.3900 C   0  0  0  0  0  0  0  0  0  0  0  0
  139.9590   79.1450  222.2030 C   0  0  0  0  0  0  0  0  0  0  0  0
  140.2780   79.8030  223.3780 C   0  0  0  0  0  0  0  0  0  0  0  0
  141.5910   79.9270  223.7850 C   0  0  0  0  0  0  0  0  0  0  0  0
  142.5480   79.3640  222.9600 C   0  0  0  0  0  0  0  0  0  0  0  0
  142.2190   78.7270  221.8200 N   0  0  0  0  0  0  0  0  0  0  0  0
  140.2610   71.5020  223.4800 C   0  0  0  0  0  0  0  0  0  0  0  0
  139.8030   70.2030  223.5040 C   0  0  0  0  0  0  0  0  0  0  0  0
  139.7690   69.4970  224.7000 C   0  0  0  0  0  0  0  0  0  0  0  0
  140.1920   70.0900  225.8730 C   0  0  0  0  0  0  0  0  0  0  0  0
  140.1870   69.4530  227.0920 C   0  0  0  0  0  0  0  0  0  0  0  0
  139.6100   67.7890  227.1740 Cl  0  0  0  0  0  0  0  0  0  0  0  0
  140.6290   70.1230  228.2190 C   0  0  0  0  0  0  0  0  0  0  0  0
  141.0860   71.4280  228.1830 C   0  0  0  0  0  0  0  0  0  0  0  0
  141.0920   72.0740  226.9460 C   0  0  0  0  0  0  0  0  0  0  0  0
  140.6500   71.4060  225.8140 C   0  0  0  0  0  0  0  0  0  0  0  0
  140.6690   72.0600  224.6390 N   0  0  0  0  0  0  0  0  0  0  0  0
  139.5020   74.0700  223.0980 H   0  0  0  0  0  0  0  0  0  0  0  0
  140.4739   73.8540  220.2375 H   0  0  0  0  0  0  0  0  0  0  0  0
  138.8636   74.5447  220.6422 H   0  0  0  0  0  0  0  0  0  0  0  0
  141.9604   74.8589  219.2672 H   0  0  0  0  0  0  0  0  0  0  0  0
  141.0859   75.9086  218.1207 H   0  0  0  0  0  0  0  0  0  0  0  0
  143.5606   76.6367  219.7541 H   0  0  0  0  0  0  0  0  0  0  0  0
  143.4778   76.3366  217.9721 H   0  0  0  0  0  0  0  0  0  0  0  0
  143.2634   78.7654  219.2548 H   0  0  0  0  0  0  0  0  0  0  0  0
  142.7615   78.3377  217.5422 H   0  0  0  0  0  0  0  0  0  0  0  0
  141.1442   79.6123  219.0493 H   0  0  0  0  0  0  0  0  0  0  0  0
  140.5955   78.1649  218.0603 H   0  0  0  0  0  0  0  0  0  0  0  0
  139.5261   77.9569  220.0586 H   0  0  0  0  0  0  0  0  0  0  0  0
  138.9032   79.0622  221.9057 H   0  0  0  0  0  0  0  0  0  0  0  0
  139.4751   80.2325  223.9952 H   0  0  0  0  0  0  0  0  0  0  0  0
  141.8621   80.4461  224.7162 H   0  0  0  0  0  0  0  0  0  0  0  0
  143.6083   79.4387  223.2433 H   0  0  0  0  0  0  0  0  0  0  0  0
  139.4634   69.7236  222.5740 H   0  0  0  0  0  0  0  0  0  0  0  0
  139.4030   68.4597  224.7126 H   0  0  0  0  0  0  0  0  0  0  0  0
  140.6164   69.5956  229.1842 H   0  0  0  0  0  0  0  0  0  0  0  0
  141.4316   71.9373  229.0947 H   0  0  0  0  0  0  0  0  0  0  0  0
  141.4471   73.1123  226.8690 H   0  0  0  0  0  0  0  0  0  0  0  0
  1  2  2  0
  2  3  1  0
  3  4  1  0
  4  5  1  0
  5  6  2  0
  5  7  1  0
  7  8  1  0
  8  9  1  0
  9 10  1  0
 10 11  1  0
 11 12  1  0
 12 13  1  0
 13 14  2  0
 14 15  1  0
 15 16  2  0
 16 17  1  0
 17 18  2  0
  2 19  1  0
 19 20  2  0
 20 21  1  0
 21 22  2  0
 22 23  1  0
 23 24  1  0
 23 25  2  0
 25 26  1  0
 26 27  2  0
 27 28  1  0
 28 29  2  0
 12  7  1  0
 18 13  1  0
 29 19  1  0
 28 22  1  0
  3 30  1  0
  4 31  1  0
  4 32  1  0
  8 33  1  0
  8 34  1  0
  9 35  1  0
  9 36  1  0
 10 37  1  0
 10 38  1  0
 11 39  1  0
 11 40  1  0
 12 41  1  6
 14 42  1  0
 15 43  1  0
 16 44  1  0
 17 45  1  0
 20 46  1  0
 21 47  1  0
 25 48  1  0
 26 49  1  0
 27 50  1  0
M  END
>  <smiles>  (45) 
O=C(NCC(=O)N1CCCCC1c1ccccn1)c1ccc2c(Cl)cccc2n1

>  <score_type>  (45) 
oracle

>  <origin>  (45) 
autodockgpu

>  <m_score__min__energy>  (45) 
-9.1099999999999994

>  <m_primary>  (45) 
energy

>  <rmsd>  (45) 
2.2671733687662567

>  <m_score__min__rmsd>  (45) 
2.2671733687662567

>  <meeko>  (45) 
{"free_energy": -9.02, "intermolecular_energy": -10.51, "internal_energy": -1.76, "cluster_size": 14, "cluster_id": 1, "rank_in_cluster": 4}

>  <energy>  (45) 
-7.0

>  <cluster_rmsd>  (45) 
0.79

>  <cluster>  (45) 
4

$$$$

     RDKit          3D

 50 53  0  0  0  0  0  0  0  0999 V2000
  139.0670   74.9670  222.0600 O   0  0  0  0  0  0  0  0  0  0  0  0
  140.1950   75.5460  221.9450 C   0  0  0  0  0  0  0  0  0  0  0  0
  141.3970   74.8540  221.6900 N   0  0  0  0  0  0  0  0  0  0  0  0
  141.3890   73.4100  221.5460 C   0  0  0  0  0  0  0  0  0  0  0  0
  141.8420   73.0390  220.1800 C   0  0  0  0  0  0  0  0  0  0  0  0
  140.9740   72.8560  219.2890 O   0  0  0  0  0  0  0  0  0  0  0  0
  143.2390   72.9100  219.9570 N   0  0  0  0  0  0  0  0  0  0  0  0
  144.1050   72.1310  220.8270 C   0  0  0  0  0  0  0  0  0  0  0  0
  145.2330   73.0210  221.2620 C   0  0  0  0  0  0  0  0  0  0  0  0
  145.9710   73.5690  220.0880 C   0  0  0  0  0  0  0  0  0  0  0  0
  145.2780   73.3830  218.7790 C   0  0  0  0  0  0  0  0  0  0  0  0
  143.8030   73.5850  218.8200 C   0  0  2  0  0  0  0  0  0  0  0  0
  143.3870   75.0040  218.6920 C   0  0  0  0  0  0  0  0  0  0  0  0
  143.1120   75.6010  217.4710 C   0  0  0  0  0  0  0  0  0  0  0  0
  142.7240   76.9260  217.3780 C   0  0  0  0  0  0  0  0  0  0  0  0
  142.5970   77.7060  218.5100 C   0  0  0  0  0  0  0  0  0  0  0  0
  142.8750   77.0910  219.7170 C   0  0  0  0  0  0  0  0  0  0  0  0
  143.2510   75.8000  219.7880 N   0  0  0  0  0  0  0  0  0  0  0  0
  140.2390   77.0160  222.0860 C   0  0  0  0  0  0  0  0  0  0  0  0
  139.2010   77.8030  221.6360 C   0  0  0  0  0  0  0  0  0  0  0  0
  139.2600   79.1840  221.7780 C   0  0  0  0  0  0  0  0  0  0  0  0
  140.3580   79.7790  222.3690 C   0  0  0  0  0  0  0  0  0  0  0  0
  140.4850   81.1370  222.5430 C   0  0  0  0  0  0  0  0  0  0  0  0
  139.1830   82.1870  221.9840 Cl  0  0  0  0  0  0  0  0  0  0  0  0
  141.6210   81.6500  223.1460 C   0  0  0  0  0  0  0  0  0  0  0  0
  142.6560   80.8500  223.5930 C   0  0  0  0  0  0  0  0  0  0  0  0
  142.5270   79.4710  223.4170 C   0  0  0  0  0  0  0  0  0  0  0  0
  141.3910   78.9540  222.8140 C   0  0  0  0  0  0  0  0  0  0  0  0
  141.3010   77.6200  222.6600 N   0  0  0  0  0  0  0  0  0  0  0  0
  142.3170   75.3560  221.5990 H   0  0  0  0  0  0  0  0  0  0  0  0
  142.0669   72.9649  222.2892 H   0  0  0  0  0  0  0  0  0  0  0  0
  140.3675   73.0343  221.7050 H   0  0  0  0  0  0  0  0  0  0  0  0
  143.5405   71.7849  221.7054 H   0  0  0  0  0  0  0  0  0  0  0  0
  144.4924   71.2489  220.2961 H   0  0  0  0  0  0  0  0  0  0  0  0
  144.8249   73.8557  221.8508 H   0  0  0  0  0  0  0  0  0  0  0  0
  145.9331   72.4257  221.8666 H   0  0  0  0  0  0  0  0  0  0  0  0
  146.1191   74.6472  220.2481 H   0  0  0  0  0  0  0  0  0  0  0  0
  146.9160   73.0097  220.0238 H   0  0  0  0  0  0  0  0  0  0  0  0
  145.7021   74.1013  218.0620 H   0  0  0  0  0  0  0  0  0  0  0  0
  145.4394   72.3343  218.4890 H   0  0  0  0  0  0  0  0  0  0  0  0
  143.3799   73.1179  217.9184 H   0  0  0  0  0  0  0  0  0  0  0  0
  143.2048   75.0050  216.5511 H   0  0  0  0  0  0  0  0  0  0  0  0
  142.5143   77.3629  216.3905 H   0  0  0  0  0  0  0  0  0  0  0  0
  142.2908   78.7611  218.4548 H   0  0  0  0  0  0  0  0  0  0  0  0
  142.7864   77.6733  220.6460 H   0  0  0  0  0  0  0  0  0  0  0  0
  138.3239   77.3369  221.1634 H   0  0  0  0  0  0  0  0  0  0  0  0
  138.4280   79.8069  221.4179 H   0  0  0  0  0  0  0  0  0  0  0  0
  141.7033   82.7393  223.2747 H   0  0  0  0  0  0  0  0  0  0  0  0
  143.5477   81.2836  224.0694 H   0  0  0  0  0  0  0  0  0  0  0  0
  143.3260   78.7955  223.7565 H   0  0  0  0  0  0  0  0  0  0  0  0
  1  2  2  0
  2  3  1  0
  3  4  1  0
  4  5  1  0
  5  6  2  0
  5  7  1  0
  7  8  1  0
  8  9  1  0
  9 10  1  0
 10 11  1  0
 11 12  1  0
 12 13  1  0
 13 14  2  0
 14 15  1  0
 15 16  2  0
 16 17  1  0
 17 18  2  0
  2 19  1  0
 19 20  2  0
 20 21  1  0
 21 22  2  0
 22 23  1  0
 23 24  1  0
 23 25  2  0
 25 26  1  0
 26 27  2  0
 27 28  1  0
 28 29  2  0
 12  7  1  0
 18 13  1  0
 29 19  1  0
 28 22  1  0
  3 30  1  0
  4 31  1  0
  4 32  1  0
  8 33  1  0
  8 34  1  0
  9 35  1  0
  9 36  1  0
 10 37  1  0
 10 38  1  0
 11 39  1  0
 11 40  1  0
 12 41  1  6
 14 42  1  0
 15 43  1  0
 16 44  1  0
 17 45  1  0
 20 46  1  0
 21 47  1  0
 25 48  1  0
 26 49  1  0
 27 50  1  0
M  END
>  <smiles>  (46) 
O=C(NCC(=O)N1CCCCC1c1ccccn1)c1ccc2c(Cl)cccc2n1

>  <score_type>  (46) 
oracle

>  <origin>  (46) 
autodockgpu

>  <m_score__min__energy>  (46) 
-9.1099999999999994

>  <m_primary>  (46) 
energy

>  <rmsd>  (46) 
7.248074618885647

>  <m_score__min__rmsd>  (46) 
7.248074618885647

>  <meeko>  (46) 
{"free_energy": -7.17, "intermolecular_energy": -8.66, "internal_energy": -2.98, "cluster_size": 13, "cluster_id": 4, "rank_in_cluster": 6}

>  <energy>  (46) 
-6.89

>  <cluster_rmsd>  (46) 
0.0

>  <cluster>  (46) 
5

$$$$

     RDKit          3D

 50 53  0  0  0  0  0  0  0  0999 V2000
  140.1840   71.6650  220.9640 O   0  0  0  0  0  0  0  0  0  0  0  0
  139.9740   72.2450  222.0790 C   0  0  0  0  0  0  0  0  0  0  0  0
  139.7300   73.6280  222.1970 N   0  0  0  0  0  0  0  0  0  0  0  0
  139.7090   74.4680  221.0130 C   0  0  0  0  0  0  0  0  0  0  0  0
  139.4820   75.8840  221.4050 C   0  0  0  0  0  0  0  0  0  0  0  0
  139.4080   76.1640  222.6280 O   0  0  0  0  0  0  0  0  0  0  0  0
  139.3590   76.8460  220.3670 N   0  0  0  0  0  0  0  0  0  0  0  0
  139.4150   76.4950  218.9580 C   0  0  0  0  0  0  0  0  0  0  0  0
  140.4660   77.3530  218.3150 C   0  0  0  0  0  0  0  0  0  0  0  0
  140.1740   78.8020  218.5160 C   0  0  0  0  0  0  0  0  0  0  0  0
  139.1200   79.0870  219.5340 C   0  0  0  0  0  0  0  0  0  0  0  0
  139.1730   78.2210  220.7450 C   0  0  2  0  0  0  0  0  0  0  0  0
  140.1220   78.6960  221.7820 C   0  0  0  0  0  0  0  0  0  0  0  0
  141.4990   78.5890  221.6500 C   0  0  0  0  0  0  0  0  0  0  0  0
  142.3630   79.0410  222.6310 C   0  0  0  0  0  0  0  0  0  0  0  0
  141.8790   79.6190  223.7870 C   0  0  0  0  0  0  0  0  0  0  0  0
  140.5040   79.7160  223.9000 C   0  0  0  0  0  0  0  0  0  0  0  0
  139.6780   79.2710  222.9340 N   0  0  0  0  0  0  0  0  0  0  0  0
  139.9870   71.4190  223.3040 C   0  0  0  0  0  0  0  0  0  0  0  0
  139.5660   70.1070  223.2800 C   0  0  0  0  0  0  0  0  0  0  0  0
  139.5870   69.3460  224.4430 C   0  0  0  0  0  0  0  0  0  0  0  0
  140.0280   69.8980  225.6300 C   0  0  0  0  0  0  0  0  0  0  0  0
  140.0760   69.2060  226.8180 C   0  0  0  0  0  0  0  0  0  0  0  0
  139.5480   67.5230  226.8380 Cl  0  0  0  0  0  0  0  0  0  0  0  0
  140.5320   69.8360  227.9620 C   0  0  0  0  0  0  0  0  0  0  0  0
  140.9520   71.1540  227.9740 C   0  0  0  0  0  0  0  0  0  0  0  0
  140.9030   71.8560  226.7690 C   0  0  0  0  0  0  0  0  0  0  0  0
  140.4470   71.2280  225.6200 C   0  0  0  0  0  0  0  0  0  0  0  0
  140.4140   71.9350  224.4750 N   0  0  0  0  0  0  0  0  0  0  0  0
  139.5590   74.0830  223.1300 H   0  0  0  0  0  0  0  0  0  0  0  0
  140.6722   74.3841  220.4884 H   0  0  0  0  0  0  0  0  0  0  0  0
  138.8958   74.1398  220.3489 H   0  0  0  0  0  0  0  0  0  0  0  0
  139.6788   75.4329  218.8467 H   0  0  0  0  0  0  0  0  0  0  0  0
  138.4378   76.6604  218.4807 H   0  0  0  0  0  0  0  0  0  0  0  0
  141.4436   77.1184  218.7613 H   0  0  0  0  0  0  0  0  0  0  0  0
  140.4738   77.1450  217.2349 H   0  0  0  0  0  0  0  0  0  0  0  0
  141.1024   79.2983  218.8349 H   0  0  0  0  0  0  0  0  0  0  0  0
  139.7914   79.1795  217.5563 H   0  0  0  0  0  0  0  0  0  0  0  0
  139.2288   80.1332  219.8560 H   0  0  0  0  0  0  0  0  0  0  0  0
  138.1550   78.8817  219.0475 H   0  0  0  0  0  0  0  0  0  0  0  0
  138.1968   78.2938  221.2467 H   0  0  0  0  0  0  0  0  0  0  0  0
  141.9151   78.1321  220.7400 H   0  0  0  0  0  0  0  0  0  0  0  0
  143.4489   78.9386  222.4881 H   0  0  0  0  0  0  0  0  0  0  0  0
  142.5517   79.9835  224.5773 H   0  0  0  0  0  0  0  0  0  0  0  0
  140.0729   80.1695  224.8047 H   0  0  0  0  0  0  0  0  0  0  0  0
  139.2126   69.6611  222.3386 H   0  0  0  0  0  0  0  0  0  0  0  0
  139.2508   68.2989  224.4180 H   0  0  0  0  0  0  0  0  0  0  0  0
  140.5619   69.2649  228.9017 H   0  0  0  0  0  0  0  0  0  0  0  0
  141.3109   71.6305  228.8982 H   0  0  0  0  0  0  0  0  0  0  0  0
  141.2259   72.9068  226.7307 H   0  0  0  0  0  0  0  0  0  0  0  0
  1  2  2  0
  2  3  1  0
  3  4  1  0
  4  5  1  0
  5  6  2  0
  5  7  1  0
  7  8  1  0
  8  9  1  0
  9 10  1  0
 10 11  1  0
 11 12  1  0
 12 13  1  0
 13 14  2  0
 14 15  1  0
 15 16  2  0
 16 17  1  0
 17 18  2  0
  2 19  1  0
 19 20  2  0
 20 21  1  0
 21 22  2  0
 22 23  1  0
 23 24  1  0
 23 25  2  0
 25 26  1  0
 26 27  2  0
 27 28  1  0
 28 29  2  0
 12  7  1  0
 18 13  1  0
 29 19  1  0
 28 22  1  0
  3 30  1  0
  4 31  1  0
  4 32  1  0
  8 33  1  0
  8 34  1  0
  9 35  1  0
  9 36  1  0
 10 37  1  0
 10 38  1  0
 11 39  1  0
 11 40  1  0
 12 41  1  1
 14 42  1  0
 15 43  1  0
 16 44  1  0
 17 45  1  0
 20 46  1  0
 21 47  1  0
 25 48  1  0
 26 49  1  0
 27 50  1  0
M  END
>  <smiles>  (47) 
O=C(NCC(=O)N1CCCCC1c1ccccn1)c1ccc2c(Cl)cccc2n1

>  <score_type>  (47) 
oracle

>  <origin>  (47) 
autodockgpu

>  <m_score__min__energy>  (47) 
-9.1099999999999994

>  <m_primary>  (47) 
energy

>  <rmsd>  (47) 
2.2505645550669797

>  <m_score__min__rmsd>  (47) 
2.2505645550669797

>  <meeko>  (47) 
{"free_energy": -8.12, "intermolecular_energy": -9.61, "internal_energy": -2.01, "cluster_size": 14, "cluster_id": 1, "rank_in_cluster": 13}

>  <energy>  (47) 
-6.86

>  <cluster_rmsd>  (47) 
0.03

>  <cluster>  (47) 
5

$$$$

     RDKit          3D

 50 53  0  0  0  0  0  0  0  0999 V2000
  138.9860   74.1840  222.1550 O   0  0  0  0  0  0  0  0  0  0  0  0
  140.0260   74.8910  221.9540 C   0  0  0  0  0  0  0  0  0  0  0  0
  141.2220   74.3730  221.4160 N   0  0  0  0  0  0  0  0  0  0  0  0
  141.3130   72.9690  221.0620 C   0  0  0  0  0  0  0  0  0  0  0  0
  141.9540   72.8270  219.7280 C   0  0  0  0  0  0  0  0  0  0  0  0
  141.2170   72.7760  218.7110 O   0  0  0  0  0  0  0  0  0  0  0  0
  143.3720   72.7570  219.6790 N   0  0  0  0  0  0  0  0  0  0  0  0
  144.1500   71.9350  220.5910 C   0  0  0  0  0  0  0  0  0  0  0  0
  145.1800   72.8190  221.2360 C   0  0  0  0  0  0  0  0  0  0  0  0
  146.0380   73.4800  220.2120 C   0  0  0  0  0  0  0  0  0  0  0  0
  145.5240   73.3810  218.8140 C   0  0  0  0  0  0  0  0  0  0  0  0
  144.0490   73.5370  218.6790 C   0  0  2  0  0  0  0  0  0  0  0  0
  143.5980   74.9490  218.6080 C   0  0  0  0  0  0  0  0  0  0  0  0
  143.4060   75.6190  217.4080 C   0  0  0  0  0  0  0  0  0  0  0  0
  142.9830   76.9360  217.3680 C   0  0  0  0  0  0  0  0  0  0  0  0
  142.7360   77.6340  218.5320 C   0  0  0  0  0  0  0  0  0  0  0  0
  142.9340   76.9480  219.7170 C   0  0  0  0  0  0  0  0  0  0  0  0
  143.3450   75.6660  219.7370 N   0  0  0  0  0  0  0  0  0  0  0  0
  139.9670   76.3260  222.3030 C   0  0  0  0  0  0  0  0  0  0  0  0
  138.7590   76.9580  222.5040 C   0  0  0  0  0  0  0  0  0  0  0  0
  138.7250   78.3080  222.8330 C   0  0  0  0  0  0  0  0  0  0  0  0
  139.8970   79.0260  222.9580 C   0  0  0  0  0  0  0  0  0  0  0  0
  139.9400   80.3630  223.2800 C   0  0  0  0  0  0  0  0  0  0  0  0
  138.4200   81.2160  223.5490 Cl  0  0  0  0  0  0  0  0  0  0  0  0
  141.1610   81.0060  223.3860 C   0  0  0  0  0  0  0  0  0  0  0  0
  142.3660   80.3610  223.1810 C   0  0  0  0  0  0  0  0  0  0  0  0
  142.3240   79.0050  222.8540 C   0  0  0  0  0  0  0  0  0  0  0  0
  141.1030   78.3560  222.7480 C   0  0  0  0  0  0  0  0  0  0  0  0
  141.1000   77.0480  222.4310 N   0  0  0  0  0  0  0  0  0  0  0  0
  142.0680   74.9800  221.2600 H   0  0  0  0  0  0  0  0  0  0  0  0
  141.9161   72.4407  221.8151 H   0  0  0  0  0  0  0  0  0  0  0  0
  140.3021   72.5367  221.0273 H   0  0  0  0  0  0  0  0  0  0  0  0
  143.4925   71.5030  221.3598 H   0  0  0  0  0  0  0  0  0  0  0  0
  144.6351   71.1102  220.0484 H   0  0  0  0  0  0  0  0  0  0  0  0
  144.6692   73.5916  221.8295 H   0  0  0  0  0  0  0  0  0  0  0  0
  145.8202   72.1972  221.8791 H   0  0  0  0  0  0  0  0  0  0  0  0
  146.1234   74.5455  220.4717 H   0  0  0  0  0  0  0  0  0  0  0  0
  147.0039   72.9539  220.2274 H   0  0  0  0  0  0  0  0  0  0  0  0
  146.0076   74.1667  218.2150 H   0  0  0  0  0  0  0  0  0  0  0  0
  145.7611   72.3641  218.4679 H   0  0  0  0  0  0  0  0  0  0  0  0
  143.7624   73.1325  217.6971 H   0  0  0  0  0  0  0  0  0  0  0  0
  143.5952   75.0888  216.4629 H   0  0  0  0  0  0  0  0  0  0  0  0
  142.8420   77.4322  216.3965 H   0  0  0  0  0  0  0  0  0  0  0  0
  142.3993   78.6811  218.5187 H   0  0  0  0  0  0  0  0  0  0  0  0
  142.7503   77.4649  220.6705 H   0  0  0  0  0  0  0  0  0  0  0  0
  137.8203   76.3933  222.4039 H   0  0  0  0  0  0  0  0  0  0  0  0
  137.7582   78.8071  222.9947 H   0  0  0  0  0  0  0  0  0  0  0  0
  141.1728   82.0752  223.6442 H   0  0  0  0  0  0  0  0  0  0  0  0
  143.3225   80.8965  223.2722 H   0  0  0  0  0  0  0  0  0  0  0  0
  143.2586   78.4514  222.6805 H   0  0  0  0  0  0  0  0  0  0  0  0
  1  2  2  0
  2  3  1  0
  3  4  1  0
  4  5  1  0
  5  6  2  0
  5  7  1  0
  7  8  1  0
  8  9  1  0
  9 10  1  0
 10 11  1  0
 11 12  1  0
 12 13  1  0
 13 14  2  0
 14 15  1  0
 15 16  2  0
 16 17  1  0
 17 18  2  0
  2 19  1  0
 19 20  2  0
 20 21  1  0
 21 22  2  0
 22 23  1  0
 23 24  1  0
 23 25  2  0
 25 26  1  0
 26 27  2  0
 27 28  1  0
 28 29  2  0
 12  7  1  0
 18 13  1  0
 29 19  1  0
 28 22  1  0
  3 30  1  0
  4 31  1  0
  4 32  1  0
  8 33  1  0
  8 34  1  0
  9 35  1  0
  9 36  1  0
 10 37  1  0
 10 38  1  0
 11 39  1  0
 11 40  1  0
 12 41  1  6
 14 42  1  0
 15 43  1  0
 16 44  1  0
 17 45  1  0
 20 46  1  0
 21 47  1  0
 25 48  1  0
 26 49  1  0
 27 50  1  0
M  END
>  <smiles>  (48) 
O=C(NCC(=O)N1CCCCC1c1ccccn1)c1ccc2c(Cl)cccc2n1

>  <score_type>  (48) 
oracle

>  <origin>  (48) 
autodockgpu

>  <m_score__min__energy>  (48) 
-9.1099999999999994

>  <m_primary>  (48) 
energy

>  <rmsd>  (48) 
6.97952277352959

>  <m_score__min__rmsd>  (48) 
6.97952277352959

>  <meeko>  (48) 
{"free_energy": -7.07, "intermolecular_energy": -8.56, "internal_energy": -2.99, "cluster_size": 13, "cluster_id": 4, "rank_in_cluster": 12}

>  <energy>  (48) 
-6.84

>  <cluster_rmsd>  (48) 
0.15

>  <cluster>  (48) 
5

$$$$

     RDKit          3D

 50 53  0  0  0  0  0  0  0  0999 V2000
  141.9750   77.5980  217.0540 O   0  0  0  0  0  0  0  0  0  0  0  0
  142.4610   77.3360  218.2020 C   0  0  0  0  0  0  0  0  0  0  0  0
  142.4040   78.2320  219.2890 N   0  0  0  0  0  0  0  0  0  0  0  0
  141.7690   79.5280  219.1320 C   0  0  0  0  0  0  0  0  0  0  0  0
  140.6290   79.6470  220.0780 C   0  0  0  0  0  0  0  0  0  0  0  0
  139.4610   79.5420  219.6260 O   0  0  0  0  0  0  0  0  0  0  0  0
  140.9270   79.8750  221.4480 N   0  0  0  0  0  0  0  0  0  0  0  0
  141.8750   80.8840  221.8890 C   0  0  0  0  0  0  0  0  0  0  0  0
  142.8790   80.2100  222.7800 C   0  0  0  0  0  0  0  0  0  0  0  0
  142.2100   79.5340  223.9290 C   0  0  0  0  0  0  0  0  0  0  0  0
  140.7290   79.4050  223.7960 C   0  0  0  0  0  0  0  0  0  0  0  0
  140.2530   79.0640  222.4260 C   0  0  2  0  0  0  0  0  0  0  0  0
  140.2780   77.6110  222.1260 C   0  0  0  0  0  0  0  0  0  0  0  0
  139.2030   76.7710  222.3770 C   0  0  0  0  0  0  0  0  0  0  0  0
  139.2500   75.4190  222.0860 C   0  0  0  0  0  0  0  0  0  0  0  0
  140.3800   74.8550  221.5310 C   0  0  0  0  0  0  0  0  0  0  0  0
  141.4400   75.7090  221.2890 C   0  0  0  0  0  0  0  0  0  0  0  0
  141.3770   77.0230  221.5780 N   0  0  0  0  0  0  0  0  0  0  0  0
  143.1140   76.0250  218.3960 C   0  0  0  0  0  0  0  0  0  0  0  0
  142.9800   75.0200  217.4610 C   0  0  0  0  0  0  0  0  0  0  0  0
  143.6020   73.7940  217.6620 C   0  0  0  0  0  0  0  0  0  0  0  0
  144.3570   73.5710  218.7960 C   0  0  0  0  0  0  0  0  0  0  0  0
  145.0000   72.3840  219.0600 C   0  0  0  0  0  0  0  0  0  0  0  0
  144.8600   71.0690  217.8940 Cl  0  0  0  0  0  0  0  0  0  0  0  0
  145.7380   72.2470  220.2230 C   0  0  0  0  0  0  0  0  0  0  0  0
  145.8640   73.2620  221.1540 C   0  0  0  0  0  0  0  0  0  0  0  0
  145.2120   74.4660  220.8860 C   0  0  0  0  0  0  0  0  0  0  0  0
  144.4720   74.6090  219.7220 C   0  0  0  0  0  0  0  0  0  0  0  0
  143.8560   75.7830  219.4960 N   0  0  0  0  0  0  0  0  0  0  0  0
  142.8130   77.9910  220.2280 H   0  0  0  0  0  0  0  0  0  0  0  0
  142.5016   80.3215  219.3411 H   0  0  0  0  0  0  0  0  0  0  0  0
  141.3982   79.6287  218.1013 H   0  0  0  0  0  0  0  0  0  0  0  0
  142.3832   81.3259  221.0193 H   0  0  0  0  0  0  0  0  0  0  0  0
  141.3567   81.6879  222.4322 H   0  0  0  0  0  0  0  0  0  0  0  0
  143.4323   79.4605  222.1950 H   0  0  0  0  0  0  0  0  0  0  0  0
  143.5636   80.9748  223.1755 H   0  0  0  0  0  0  0  0  0  0  0  0
  142.6350   78.5243  224.0281 H   0  0  0  0  0  0  0  0  0  0  0  0
  142.3904   80.1659  224.8111 H   0  0  0  0  0  0  0  0  0  0  0  0
  140.3912   78.6146  224.4824 H   0  0  0  0  0  0  0  0  0  0  0  0
  140.3091   80.3937  224.0330 H   0  0  0  0  0  0  0  0  0  0  0  0
  139.1825   79.3120  222.3763 H   0  0  0  0  0  0  0  0  0  0  0  0
  138.2879   77.1913  222.8196 H   0  0  0  0  0  0  0  0  0  0  0  0
  138.3759   74.7864  222.2998 H   0  0  0  0  0  0  0  0  0  0  0  0
  140.4348   73.7823  221.2935 H   0  0  0  0  0  0  0  0  0  0  0  0
  142.3621   75.3033  220.8473 H   0  0  0  0  0  0  0  0  0  0  0  0
  142.3798   75.1893  216.5549 H   0  0  0  0  0  0  0  0  0  0  0  0
  143.4922   72.9961  216.9129 H   0  0  0  0  0  0  0  0  0  0  0  0
  146.2458   71.2903  220.4149 H   0  0  0  0  0  0  0  0  0  0  0  0
  146.4559   73.1252  222.0711 H   0  0  0  0  0  0  0  0  0  0  0  0
  145.2849   75.3015  221.5978 H   0  0  0  0  0  0  0  0  0  0  0  0
  1  2  2  0
  2  3  1  0
  3  4  1  0
  4  5  1  0
  5  6  2  0
  5  7  1  0
  7  8  1  0
  8  9  1  0
  9 10  1  0
 10 11  1  0
 11 12  1  0
 12 13  1  0
 13 14  2  0
 14 15  1  0
 15 16  2  0
 16 17  1  0
 17 18  2  0
  2 19  1  0
 19 20  2  0
 20 21  1  0
 21 22  2  0
 22 23  1  0
 23 24  1  0
 23 25  2  0
 25 26  1  0
 26 27  2  0
 27 28  1  0
 28 29  2  0
 12  7  1  0
 18 13  1  0
 29 19  1  0
 28 22  1  0
  3 30  1  0
  4 31  1  0
  4 32  1  0
  8 33  1  0
  8 34  1  0
  9 35  1  0
  9 36  1  0
 10 37  1  0
 10 38  1  0
 11 39  1  0
 11 40  1  0
 12 41  1  1
 14 42  1  0
 15 43  1  0
 16 44  1  0
 17 45  1  0
 20 46  1  0
 21 47  1  0
 25 48  1  0
 26 49  1  0
 27 50  1  0
M  END
>  <smiles>  (49) 
O=C(NCC(=O)N1CCCCC1c1ccccn1)c1ccc2c(Cl)cccc2n1

>  <score_type>  (49) 
oracle

>  <origin>  (49) 
autodockgpu

>  <m_score__min__energy>  (49) 
-9.1099999999999994

>  <m_primary>  (49) 
energy

>  <rmsd>  (49) 
7.341936356480187

>  <m_score__min__rmsd>  (49) 
7.341936356480187

>  <meeko>  (49) 
{"free_energy": -6.82, "intermolecular_energy": -8.31, "internal_energy": -3.08, "cluster_size": 5, "cluster_id": 5, "rank_in_cluster": 4}

>  <energy>  (49) 
-6.82

>  <cluster_rmsd>  (49) 
0.21

>  <cluster>  (49) 
5

$$$$

     RDKit          3D

 50 53  0  0  0  0  0  0  0  0999 V2000
  140.3460   72.0370  221.0400 O   0  0  0  0  0  0  0  0  0  0  0  0
  139.9870   72.5200  222.1620 C   0  0  0  0  0  0  0  0  0  0  0  0
  139.5680   73.8560  222.3310 N   0  0  0  0  0  0  0  0  0  0  0  0
  139.5300   74.7560  221.1930 C   0  0  0  0  0  0  0  0  0  0  0  0
  140.8170   75.4920  221.0910 C   0  0  0  0  0  0  0  0  0  0  0  0
  141.7000   75.2800  221.9610 O   0  0  0  0  0  0  0  0  0  0  0  0
  140.9780   76.3990  220.0100 N   0  0  0  0  0  0  0  0  0  0  0  0
  141.5960   76.0180  218.7500 C   0  0  0  0  0  0  0  0  0  0  0  0
  142.7010   76.9950  218.4710 C   0  0  0  0  0  0  0  0  0  0  0  0
  142.1880   78.3950  218.4390 C   0  0  0  0  0  0  0  0  0  0  0  0
  140.8050   78.5600  218.9760 C   0  0  0  0  0  0  0  0  0  0  0  0
  140.5040   77.7450  220.1850 C   0  0  2  0  0  0  0  0  0  0  0  0
  140.9350   78.3750  221.4580 C   0  0  0  0  0  0  0  0  0  0  0  0
  140.1130   78.4620  222.5720 C   0  0  0  0  0  0  0  0  0  0  0  0
  140.5390   79.0540  223.7480 C   0  0  0  0  0  0  0  0  0  0  0  0
  141.8090   79.5830  223.8530 C   0  0  0  0  0  0  0  0  0  0  0  0
  142.6120   79.4860  222.7310 C   0  0  0  0  0  0  0  0  0  0  0  0
  142.1810   78.9060  221.5950 N   0  0  0  0  0  0  0  0  0  0  0  0
  140.0130   71.6300  223.3410 C   0  0  0  0  0  0  0  0  0  0  0  0
  139.5680   70.3280  223.2580 C   0  0  0  0  0  0  0  0  0  0  0  0
  139.6020   69.5060  224.3780 C   0  0  0  0  0  0  0  0  0  0  0  0
  140.0790   69.9860  225.5810 C   0  0  0  0  0  0  0  0  0  0  0  0
  140.1410   69.2310  226.7300 C   0  0  0  0  0  0  0  0  0  0  0  0
  139.5840   67.5590  226.6730 Cl  0  0  0  0  0  0  0  0  0  0  0  0
  140.6350   69.7920  227.8950 C   0  0  0  0  0  0  0  0  0  0  0  0
  141.0780   71.0990  227.9660 C   0  0  0  0  0  0  0  0  0  0  0  0
  141.0150   71.8660  226.8020 C   0  0  0  0  0  0  0  0  0  0  0  0
  140.5220   71.3080  225.6320 C   0  0  0  0  0  0  0  0  0  0  0  0
  140.4750   72.0760  224.5280 N   0  0  0  0  0  0  0  0  0  0  0  0
  139.2760   74.2310  223.2700 H   0  0  0  0  0  0  0  0  0  0  0  0
  139.3675   74.1751  220.2731 H   0  0  0  0  0  0  0  0  0  0  0  0
  138.7091   75.4760  221.3262 H   0  0  0  0  0  0  0  0  0  0  0  0
  142.0060   75.0001  218.8263 H   0  0  0  0  0  0  0  0  0  0  0  0
  140.8549   76.0315  217.9373 H   0  0  0  0  0  0  0  0  0  0  0  0
  143.4628   76.9100  219.2600 H   0  0  0  0  0  0  0  0  0  0  0  0
  143.1335   76.7600  217.4872 H   0  0  0  0  0  0  0  0  0  0  0  0
  142.8656   79.0229  219.0361 H   0  0  0  0  0  0  0  0  0  0  0  0
  142.1496   78.6900  217.3800 H   0  0  0  0  0  0  0  0  0  0  0  0
  140.6619   79.6199  219.2333 H   0  0  0  0  0  0  0  0  0  0  0  0
  140.1226   78.2091  218.1879 H   0  0  0  0  0  0  0  0  0  0  0  0
  139.4097   77.6976  220.2864 H   0  0  0  0  0  0  0  0  0  0  0  0
  139.0948   78.0491  222.5191 H   0  0  0  0  0  0  0  0  0  0  0  0
  139.8569   79.1035  224.6095 H   0  0  0  0  0  0  0  0  0  0  0  0
  142.1641   80.0568  224.7800 H   0  0  0  0  0  0  0  0  0  0  0  0
  143.6326   79.8947  222.7679 H   0  0  0  0  0  0  0  0  0  0  0  0
  139.1851   69.9388  222.3031 H   0  0  0  0  0  0  0  0  0  0  0  0
  139.2469   68.4674  224.3054 H   0  0  0  0  0  0  0  0  0  0  0  0
  140.6767   69.1714  228.8023 H   0  0  0  0  0  0  0  0  0  0  0  0
  141.4660   71.5193  228.9056 H   0  0  0  0  0  0  0  0  0  0  0  0
  141.3559   72.9118  226.8124 H   0  0  0  0  0  0  0  0  0  0  0  0
  1  2  2  0
  2  3  1  0
  3  4  1  0
  4  5  1  0
  5  6  2  0
  5  7  1  0
  7  8  1  0
  8  9  1  0
  9 10  1  0
 10 11  1  0
 11 12  1  0
 12 13  1  0
 13 14  2  0
 14 15  1  0
 15 16  2  0
 16 17  1  0
 17 18  2  0
  2 19  1  0
 19 20  2  0
 20 21  1  0
 21 22  2  0
 22 23  1  0
 23 24  1  0
 23 25  2  0
 25 26  1  0
 26 27  2  0
 27 28  1  0
 28 29  2  0
 12  7  1  0
 18 13  1  0
 29 19  1  0
 28 22  1  0
  3 30  1  0
  4 31  1  0
  4 32  1  0
  8 33  1  0
  8 34  1  0
  9 35  1  0
  9 36  1  0
 10 37  1  0
 10 38  1  0
 11 39  1  0
 11 40  1  0
 12 41  1  1
 14 42  1  0
 15 43  1  0
 16 44  1  0
 17 45  1  0
 20 46  1  0
 21 47  1  0
 25 48  1  0
 26 49  1  0
 27 50  1  0
M  END
>  <smiles>  (50) 
O=C(NCC(=O)N1CCCCC1c1ccccn1)c1ccc2c(Cl)cccc2n1

>  <score_type>  (50) 
oracle

>  <origin>  (50) 
autodockgpu

>  <m_score__min__energy>  (50) 
-9.1099999999999994

>  <m_primary>  (50) 
energy

>  <rmsd>  (50) 
2.353836668118872

>  <m_score__min__rmsd>  (50) 
2.353836668118872

>  <meeko>  (50) 
{"free_energy": -8.77, "intermolecular_energy": -10.27, "internal_energy": -1.64, "cluster_size": 14, "cluster_id": 1, "rank_in_cluster": 8}

>  <energy>  (50) 
-5.97

>  <cluster_rmsd>  (50) 
1.85

>  <cluster>  (50) 
5

$$$$

     RDKit          3D

 50 53  0  0  0  0  0  0  0  0999 V2000
  139.3690   74.0410  221.7140 O   0  0  0  0  0  0  0  0  0  0  0  0
  140.4760   74.6290  221.6080 C   0  0  0  0  0  0  0  0  0  0  0  0
  140.6140   76.0400  221.9180 N   0  0  0  0  0  0  0  0  0  0  0  0
  139.4320   76.7140  222.3470 C   0  0  0  0  0  0  0  0  0  0  0  0
  139.3980   78.1750  222.3450 C   0  0  0  0  0  0  0  0  0  0  0  0
  138.2190   78.6710  222.0930 O   0  0  0  0  0  0  0  0  0  0  0  0
  140.4210   79.1140  222.5650 N   0  0  0  0  0  0  0  0  0  0  0  0
  141.0460   79.4210  223.8250 C   0  0  0  0  0  0  0  0  0  0  0  0
  142.5720   79.4790  223.6270 C   0  0  0  0  0  0  0  0  0  0  0  0
  142.8930   80.5040  222.5920 C   0  0  0  0  0  0  0  0  0  0  0  0
  141.6650   81.0480  221.9100 C   0  0  0  0  0  0  0  0  0  0  0  0
  140.8560   79.8880  221.4030 C   0  0  1  0  0  0  0  0  0  0  0  0
  141.5790   79.1020  220.3910 C   0  0  0  0  0  0  0  0  0  0  0  0
  141.8830   79.6770  219.1450 C   0  0  0  0  0  0  0  0  0  0  0  0
  142.5540   78.9690  218.1700 C   0  0  0  0  0  0  0  0  0  0  0  0
  142.9560   77.6480  218.3930 C   0  0  0  0  0  0  0  0  0  0  0  0
  142.6380   77.1240  219.6240 C   0  0  0  0  0  0  0  0  0  0  0  0
  141.9910   77.8340  220.5410 N   0  0  0  0  0  0  0  0  0  0  0  0
  141.6610   73.9020  221.1670 C   0  0  0  0  0  0  0  0  0  0  0  0
  141.5520   72.6280  220.7020 C   0  0  0  0  0  0  0  0  0  0  0  0
  142.6280   71.8730  220.2650 C   0  0  0  0  0  0  0  0  0  0  0  0
  143.8860   72.4670  220.3130 C   0  0  0  0  0  0  0  0  0  0  0  0
  145.0210   71.7890  219.8970 C   0  0  0  0  0  0  0  0  0  0  0  0
  144.8960   70.1500  219.2960 Cl  0  0  0  0  0  0  0  0  0  0  0  0
  146.2820   72.3860  219.9450 C   0  0  0  0  0  0  0  0  0  0  0  0
  146.3340   73.6800  220.4260 C   0  0  0  0  0  0  0  0  0  0  0  0
  145.2290   74.3680  220.8420 C   0  0  0  0  0  0  0  0  0  0  0  0
  143.9890   73.7630  220.7880 C   0  0  0  0  0  0  0  0  0  0  0  0
  142.8960   74.4560  221.2040 N   0  0  0  0  0  0  0  0  0  0  0  0
  141.5600   76.4870  221.8140 H   0  0  0  0  0  0  0  0  0  0  0  0
  138.6145   76.3736  221.6945 H   0  0  0  0  0  0  0  0  0  0  0  0
  139.3582   76.4544  223.4134 H   0  0  0  0  0  0  0  0  0  0  0  0
  140.6841   80.3940  224.1888 H   0  0  0  0  0  0  0  0  0  0  0  0
  140.7963   78.6441  224.5626 H   0  0  0  0  0  0  0  0  0  0  0  0
  143.0563   79.7506  224.5766 H   0  0  0  0  0  0  0  0  0  0  0  0
  142.9402   78.4954  223.3001 H   0  0  0  0  0  0  0  0  0  0  0  0
  143.4250   81.3368  223.0750 H   0  0  0  0  0  0  0  0  0  0  0  0
  143.5109   80.0168  221.8233 H   0  0  0  0  0  0  0  0  0  0  0  0
  141.0692   81.6323  222.6267 H   0  0  0  0  0  0  0  0  0  0  0  0
  141.9534   81.7035  221.0751 H   0  0  0  0  0  0  0  0  0  0  0  0
  139.9656   80.2423  220.8629 H   0  0  0  0  0  0  0  0  0  0  0  0
  141.5790   80.7147  218.9430 H   0  0  0  0  0  0  0  0  0  0  0  0
  142.7757   79.4490  217.2054 H   0  0  0  0  0  0  0  0  0  0  0  0
  143.4932   77.0644  217.6309 H   0  0  0  0  0  0  0  0  0  0  0  0
  142.9275   76.0883  219.8555 H   0  0  0  0  0  0  0  0  0  0  0  0
  140.5518   72.1712  220.6713 H   0  0  0  0  0  0  0  0  0  0  0  0
  142.4938   70.8458  219.8951 H   0  0  0  0  0  0  0  0  0  0  0  0
  147.1871   71.8538  219.6169 H   0  0  0  0  0  0  0  0  0  0  0  0
  147.3121   74.1807  220.4766 H   0  0  0  0  0  0  0  0  0  0  0  0
  145.3268   75.3973  221.2175 H   0  0  0  0  0  0  0  0  0  0  0  0
  1  2  2  0
  2  3  1  0
  3  4  1  0
  4  5  1  0
  5  6  2  0
  5  7  1  0
  7  8  1  0
  8  9  1  0
  9 10  1  0
 10 11  1  0
 11 12  1  0
 12 13  1  0
 13 14  2  0
 14 15  1  0
 15 16  2  0
 16 17  1  0
 17 18  2  0
  2 19  1  0
 19 20  2  0
 20 21  1  0
 21 22  2  0
 22 23  1  0
 23 24  1  0
 23 25  2  0
 25 26  1  0
 26 27  2  0
 27 28  1  0
 28 29  2  0
 12  7  1  0
 18 13  1  0
 29 19  1  0
 28 22  1  0
  3 30  1  0
  4 31  1  0
  4 32  1  0
  8 33  1  0
  8 34  1  0
  9 35  1  0
  9 36  1  0
 10 37  1  0
 10 38  1  0
 11 39  1  0
 11 40  1  0
 12 41  1  6
 14 42  1  0
 15 43  1  0
 16 44  1  0
 17 45  1  0
 20 46  1  0
 21 47  1  0
 25 48  1  0
 26 49  1  0
 27 50  1  0
M  END
>  <smiles>  (51) 
O=C(NCC(=O)N1CCCCC1c1ccccn1)c1ccc2c(Cl)cccc2n1

>  <score_type>  (51) 
oracle

>  <origin>  (51) 
autodockgpu

>  <m_score__min__energy>  (51) 
-8.9100000000000001

>  <m_primary>  (51) 
energy

>  <rmsd>  (51) 
5.974975443072532

>  <m_score__min__rmsd>  (51) 
5.974975443072532

>  <meeko>  (51) 
{"free_energy": -7.3, "intermolecular_energy": -8.79, "internal_energy": -2.86, "cluster_size": 22, "cluster_id": 5, "rank_in_cluster": 3}

>  <energy>  (51) 
-8.91

>  <cluster_rmsd>  (51) 
0.0

>  <cluster>  (51) 
1

$$$$

     RDKit          3D

 50 53  0  0  0  0  0  0  0  0999 V2000
  139.1930   74.1400  221.7120 O   0  0  0  0  0  0  0  0  0  0  0  0
  140.3000   74.7260  221.5990 C   0  0  0  0  0  0  0  0  0  0  0  0
  140.4390   76.1410  221.8910 N   0  0  0  0  0  0  0  0  0  0  0  0
  139.2580   76.8220  222.3110 C   0  0  0  0  0  0  0  0  0  0  0  0
  139.2780   78.2760  222.4450 C   0  0  0  0  0  0  0  0  0  0  0  0
  138.0940   78.8220  222.3960 O   0  0  0  0  0  0  0  0  0  0  0  0
  140.3540   79.1650  222.6130 N   0  0  0  0  0  0  0  0  0  0  0  0
  141.0440   79.4530  223.8420 C   0  0  0  0  0  0  0  0  0  0  0  0
  142.5610   79.4330  223.5820 C   0  0  0  0  0  0  0  0  0  0  0  0
  142.8900   80.4310  222.5230 C   0  0  0  0  0  0  0  0  0  0  0  0
  141.6630   81.0280  221.8850 C   0  0  0  0  0  0  0  0  0  0  0  0
  140.7780   79.9060  221.4250 C   0  0  1  0  0  0  0  0  0  0  0  0
  141.4190   79.0740  220.3930 C   0  0  0  0  0  0  0  0  0  0  0  0
  141.4050   79.4900  219.0510 C   0  0  0  0  0  0  0  0  0  0  0  0
  141.9900   78.7340  218.0570 C   0  0  0  0  0  0  0  0  0  0  0  0
  142.6210   77.5220  218.3570 C   0  0  0  0  0  0  0  0  0  0  0  0
  142.6120   77.1530  219.6810 C   0  0  0  0  0  0  0  0  0  0  0  0
  142.0390   77.9040  220.6130 N   0  0  0  0  0  0  0  0  0  0  0  0
  141.4850   73.9920  221.1660 C   0  0  0  0  0  0  0  0  0  0  0  0
  141.3750   72.7120  220.7210 C   0  0  0  0  0  0  0  0  0  0  0  0
  142.4500   71.9500  220.2930 C   0  0  0  0  0  0  0  0  0  0  0  0
  143.7080   72.5450  220.3290 C   0  0  0  0  0  0  0  0  0  0  0  0
  144.8420   71.8610  219.9210 C   0  0  0  0  0  0  0  0  0  0  0  0
  144.7160   70.2130  219.3460 Cl  0  0  0  0  0  0  0  0  0  0  0  0
  146.1030   72.4590  219.9570 C   0  0  0  0  0  0  0  0  0  0  0  0
  146.1560   73.7600  220.4180 C   0  0  0  0  0  0  0  0  0  0  0  0
  145.0520   74.4540  220.8260 C   0  0  0  0  0  0  0  0  0  0  0  0
  143.8120   73.8480  220.7840 C   0  0  0  0  0  0  0  0  0  0  0  0
  142.7190   74.5480  221.1910 N   0  0  0  0  0  0  0  0  0  0  0  0
  141.3860   76.5860  221.7800 H   0  0  0  0  0  0  0  0  0  0  0  0
  138.4712   76.5782  221.5820 H   0  0  0  0  0  0  0  0  0  0  0  0
  139.1076   76.4686  223.3418 H   0  0  0  0  0  0  0  0  0  0  0  0
  140.7457   80.4464  224.2083 H   0  0  0  0  0  0  0  0  0  0  0  0
  140.7868   78.6969  224.5984 H   0  0  0  0  0  0  0  0  0  0  0  0
  143.0965   79.6891  224.5081 H   0  0  0  0  0  0  0  0  0  0  0  0
  142.8663   78.4292  223.2517 H   0  0  0  0  0  0  0  0  0  0  0  0
  143.4813   81.2412  222.9746 H   0  0  0  0  0  0  0  0  0  0  0  0
  143.4520   79.9070  221.7359 H   0  0  0  0  0  0  0  0  0  0  0  0
  141.1267   81.6481  222.6184 H   0  0  0  0  0  0  0  0  0  0  0  0
  141.9489   81.6598  221.0311 H   0  0  0  0  0  0  0  0  0  0  0  0
  139.8850   80.2998  220.9176 H   0  0  0  0  0  0  0  0  0  0  0  0
  140.9166   80.4397  218.7874 H   0  0  0  0  0  0  0  0  0  0  0  0
  141.9601   79.0881  217.0160 H   0  0  0  0  0  0  0  0  0  0  0  0
  143.0950   76.9027  217.5813 H   0  0  0  0  0  0  0  0  0  0  0  0
  143.0932   76.2089  219.9762 H   0  0  0  0  0  0  0  0  0  0  0  0
  140.3747   72.2550  220.6995 H   0  0  0  0  0  0  0  0  0  0  0  0
  142.3150   70.9172  219.9393 H   0  0  0  0  0  0  0  0  0  0  0  0
  147.0074   71.9220  219.6350 H   0  0  0  0  0  0  0  0  0  0  0  0
  147.1342   74.2615  220.4586 H   0  0  0  0  0  0  0  0  0  0  0  0
  145.1504   75.4889  221.1856 H   0  0  0  0  0  0  0  0  0  0  0  0
  1  2  2  0
  2  3  1  0
  3  4  1  0
  4  5  1  0
  5  6  2  0
  5  7  1  0
  7  8  1  0
  8  9  1  0
  9 10  1  0
 10 11  1  0
 11 12  1  0
 12 13  1  0
 13 14  2  0
 14 15  1  0
 15 16  2  0
 16 17  1  0
 17 18  2  0
  2 19  1  0
 19 20  2  0
 20 21  1  0
 21 22  2  0
 22 23  1  0
 23 24  1  0
 23 25  2  0
 25 26  1  0
 26 27  2  0
 27 28  1  0
 28 29  2  0
 12  7  1  0
 18 13  1  0
 29 19  1  0
 28 22  1  0
  3 30  1  0
  4 31  1  0
  4 32  1  0
  8 33  1  0
  8 34  1  0
  9 35  1  0
  9 36  1  0
 10 37  1  0
 10 38  1  0
 11 39  1  0
 11 40  1  0
 12 41  1  6
 14 42  1  0
 15 43  1  0
 16 44  1  0
 17 45  1  0
 20 46  1  0
 21 47  1  0
 25 48  1  0
 26 49  1  0
 27 50  1  0
M  END
>  <smiles>  (52) 
O=C(NCC(=O)N1CCCCC1c1ccccn1)c1ccc2c(Cl)cccc2n1

>  <score_type>  (52) 
oracle

>  <origin>  (52) 
autodockgpu

>  <m_score__min__energy>  (52) 
-8.9100000000000001

>  <m_primary>  (52) 
energy

>  <rmsd>  (52) 
5.9546897780476655

>  <m_score__min__rmsd>  (52) 
5.9546897780476655

>  <meeko>  (52) 
{"free_energy": -7.04, "intermolecular_energy": -8.53, "internal_energy": -2.96, "cluster_size": 22, "cluster_id": 5, "rank_in_cluster": 20}

>  <energy>  (52) 
-8.9

>  <cluster_rmsd>  (52) 
0.07

>  <cluster>  (52) 
1

$$$$

     RDKit          3D

 50 53  0  0  0  0  0  0  0  0999 V2000
  140.2820   74.1630  222.3320 O   0  0  0  0  0  0  0  0  0  0  0  0
  140.6530   74.8450  221.3430 C   0  0  0  0  0  0  0  0  0  0  0  0
  140.8330   74.2410  220.0350 N   0  0  0  0  0  0  0  0  0  0  0  0
  140.5640   72.8440  219.9380 C   0  0  0  0  0  0  0  0  0  0  0  0
  141.6750   71.9100  219.7740 C   0  0  0  0  0  0  0  0  0  0  0  0
  141.3140   70.7420  219.3180 O   0  0  0  0  0  0  0  0  0  0  0  0
  143.0490   72.0670  220.0290 N   0  0  0  0  0  0  0  0  0  0  0  0
  144.0580   71.0440  219.9490 C   0  0  0  0  0  0  0  0  0  0  0  0
  145.2780   71.6010  219.1930 C   0  0  0  0  0  0  0  0  0  0  0  0
  145.7820   72.8130  219.9010 C   0  0  0  0  0  0  0  0  0  0  0  0
  144.8720   73.2570  221.0170 C   0  0  0  0  0  0  0  0  0  0  0  0
  143.4820   73.3940  220.4650 C   0  0  1  0  0  0  0  0  0  0  0  0
  143.3950   74.4300  219.4220 C   0  0  0  0  0  0  0  0  0  0  0  0
  143.7590   75.7550  219.7200 C   0  0  0  0  0  0  0  0  0  0  0  0
  143.6840   76.7520  218.7700 C   0  0  0  0  0  0  0  0  0  0  0  0
  143.2420   76.4740  217.4730 C   0  0  0  0  0  0  0  0  0  0  0  0
  142.8960   75.1670  217.2250 C   0  0  0  0  0  0  0  0  0  0  0  0
  142.9790   74.2300  218.1620 N   0  0  0  0  0  0  0  0  0  0  0  0
  140.9160   76.2730  221.4850 C   0  0  0  0  0  0  0  0  0  0  0  0
  141.0240   76.8320  222.7200 C   0  0  0  0  0  0  0  0  0  0  0  0
  141.2730   78.1770  222.9380 C   0  0  0  0  0  0  0  0  0  0  0  0
  141.4170   78.9890  221.8170 C   0  0  0  0  0  0  0  0  0  0  0  0
  141.6670   80.3470  221.9350 C   0  0  0  0  0  0  0  0  0  0  0  0
  141.8090   81.0800  223.5180 Cl  0  0  0  0  0  0  0  0  0  0  0  0
  141.8120   81.1600  220.8100 C   0  0  0  0  0  0  0  0  0  0  0  0
  141.6930   80.5390  219.5810 C   0  0  0  0  0  0  0  0  0  0  0  0
  141.4450   79.2030  219.4390 C   0  0  0  0  0  0  0  0  0  0  0  0
  141.3060   78.4130  220.5620 C   0  0  0  0  0  0  0  0  0  0  0  0
  141.0600   77.0840  220.4110 N   0  0  0  0  0  0  0  0  0  0  0  0
  141.1460   74.8530  219.2390 H   0  0  0  0  0  0  0  0  0  0  0  0
  140.0353   72.5548  220.8582 H   0  0  0  0  0  0  0  0  0  0  0  0
  140.0060   72.7519  218.9945 H   0  0  0  0  0  0  0  0  0  0  0  0
  144.3588   70.7426  220.9632 H   0  0  0  0  0  0  0  0  0  0  0  0
  143.6583   70.1688  219.4158 H   0  0  0  0  0  0  0  0  0  0  0  0
  146.0700   70.8383  219.1598 H   0  0  0  0  0  0  0  0  0  0  0  0
  144.9867   71.8671  218.1662 H   0  0  0  0  0  0  0  0  0  0  0  0
  146.7722   72.5871  220.3235 H   0  0  0  0  0  0  0  0  0  0  0  0
  145.8291   73.6305  219.1665 H   0  0  0  0  0  0  0  0  0  0  0  0
  144.8800   72.5090  221.8235 H   0  0  0  0  0  0  0  0  0  0  0  0
  145.2144   74.2193  221.4254 H   0  0  0  0  0  0  0  0  0  0  0  0
  142.7894   73.7524  221.2408 H   0  0  0  0  0  0  0  0  0  0  0  0
  144.1111   76.0017  220.7325 H   0  0  0  0  0  0  0  0  0  0  0  0
  143.9756   77.7787  219.0360 H   0  0  0  0  0  0  0  0  0  0  0  0
  143.1753   77.2529  216.6991 H   0  0  0  0  0  0  0  0  0  0  0  0
  142.5402   74.8895  216.2218 H   0  0  0  0  0  0  0  0  0  0  0  0
  140.9068   76.1781  223.5967 H   0  0  0  0  0  0  0  0  0  0  0  0
  141.3536   78.5866  223.9557 H   0  0  0  0  0  0  0  0  0  0  0  0
  142.0106   82.2384  220.8968 H   0  0  0  0  0  0  0  0  0  0  0  0
  141.8033   81.1501  218.6731 H   0  0  0  0  0  0  0  0  0  0  0  0
  141.3567   78.7599  218.4361 H   0  0  0  0  0  0  0  0  0  0  0  0
  1  2  2  0
  2  3  1  0
  3  4  1  0
  4  5  1  0
  5  6  2  0
  5  7  1  0
  7  8  1  0
  8  9  1  0
  9 10  1  0
 10 11  1  0
 11 12  1  0
 12 13  1  0
 13 14  2  0
 14 15  1  0
 15 16  2  0
 16 17  1  0
 17 18  2  0
  2 19  1  0
 19 20  2  0
 20 21  1  0
 21 22  2  0
 22 23  1  0
 23 24  1  0
 23 25  2  0
 25 26  1  0
 26 27  2  0
 27 28  1  0
 28 29  2  0
 12  7  1  0
 18 13  1  0
 29 19  1  0
 28 22  1  0
  3 30  1  0
  4 31  1  0
  4 32  1  0
  8 33  1  0
  8 34  1  0
  9 35  1  0
  9 36  1  0
 10 37  1  0
 10 38  1  0
 11 39  1  0
 11 40  1  0
 12 41  1  1
 14 42  1  0
 15 43  1  0
 16 44  1  0
 17 45  1  0
 20 46  1  0
 21 47  1  0
 25 48  1  0
 26 49  1  0
 27 50  1  0
M  END
>  <smiles>  (53) 
O=C(NCC(=O)N1CCCCC1c1ccccn1)c1ccc2c(Cl)cccc2n1

>  <score_type>  (53) 
oracle

>  <origin>  (53) 
autodockgpu

>  <m_score__min__energy>  (53) 
-8.9100000000000001

>  <m_primary>  (53) 
energy

>  <rmsd>  (53) 
7.63031072563487

>  <m_score__min__rmsd>  (53) 
7.63031072563487

>  <meeko>  (53) 
{"free_energy": -6.76, "intermolecular_energy": -8.25, "internal_energy": -2.88, "cluster_size": 10, "cluster_id": 4, "rank_in_cluster": 9}

>  <energy>  (53) 
-8.87

>  <cluster_rmsd>  (53) 
0.15

>  <cluster>  (53) 
1

$$$$

     RDKit          3D

 50 53  0  0  0  0  0  0  0  0999 V2000
  139.1770   74.1000  221.5220 O   0  0  0  0  0  0  0  0  0  0  0  0
  140.3330   74.5960  221.5280 C   0  0  0  0  0  0  0  0  0  0  0  0
  140.5710   75.9520  221.9850 N   0  0  0  0  0  0  0  0  0  0  0  0
  139.4280   76.6830  222.4250 C   0  0  0  0  0  0  0  0  0  0  0  0
  139.4000   78.1350  222.2650 C   0  0  0  0  0  0  0  0  0  0  0  0
  138.2420   78.5970  221.8820 O   0  0  0  0  0  0  0  0  0  0  0  0
  140.4090   79.0960  222.4520 N   0  0  0  0  0  0  0  0  0  0  0  0
  141.0330   79.4510  223.7000 C   0  0  0  0  0  0  0  0  0  0  0  0
  142.5570   79.5260  223.4960 C   0  0  0  0  0  0  0  0  0  0  0  0
  142.8600   80.5230  222.4280 C   0  0  0  0  0  0  0  0  0  0  0  0
  141.6220   81.0270  221.7330 C   0  0  0  0  0  0  0  0  0  0  0  0
  140.8290   79.8400  221.2650 C   0  0  1  0  0  0  0  0  0  0  0  0
  141.5610   79.0330  220.2760 C   0  0  0  0  0  0  0  0  0  0  0  0
  141.8680   79.5790  219.0170 C   0  0  0  0  0  0  0  0  0  0  0  0
  142.5470   78.8500  218.0640 C   0  0  0  0  0  0  0  0  0  0  0  0
  142.9550   77.5370  218.3210 C   0  0  0  0  0  0  0  0  0  0  0  0
  142.6350   77.0430  219.5630 C   0  0  0  0  0  0  0  0  0  0  0  0
  141.9790   77.7710  220.4580 N   0  0  0  0  0  0  0  0  0  0  0  0
  141.4760   73.8120  221.0710 C   0  0  0  0  0  0  0  0  0  0  0  0
  141.3120   72.5180  220.6850 C   0  0  0  0  0  0  0  0  0  0  0  0
  142.3450   71.7100  220.2400 C   0  0  0  0  0  0  0  0  0  0  0  0
  143.6180   72.2710  220.1910 C   0  0  0  0  0  0  0  0  0  0  0  0
  144.7140   71.5400  219.7590 C   0  0  0  0  0  0  0  0  0  0  0  0
  144.5180   69.8740  219.2590 Cl  0  0  0  0  0  0  0  0  0  0  0  0
  145.9900   72.1030  219.7100 C   0  0  0  0  0  0  0  0  0  0  0  0
  146.0980   73.4200  220.1130 C   0  0  0  0  0  0  0  0  0  0  0  0
  145.0330   74.1610  220.5440 C   0  0  0  0  0  0  0  0  0  0  0  0
  143.7780   73.5880  220.5850 C   0  0  0  0  0  0  0  0  0  0  0  0
  142.7240   74.3340  221.0140 N   0  0  0  0  0  0  0  0  0  0  0  0
  141.5560   76.3210  221.9710 H   0  0  0  0  0  0  0  0  0  0  0  0
  138.5618   76.2835  221.8772 H   0  0  0  0  0  0  0  0  0  0  0  0
  139.4343   76.5423  223.5160 H   0  0  0  0  0  0  0  0  0  0  0  0
  140.6573   80.4291  224.0349 H   0  0  0  0  0  0  0  0  0  0  0  0
  140.7973   78.6932  224.4617 H   0  0  0  0  0  0  0  0  0  0  0  0
  143.0393   79.8348  224.4352 H   0  0  0  0  0  0  0  0  0  0  0  0
  142.9394   78.5383  223.1991 H   0  0  0  0  0  0  0  0  0  0  0  0
  143.3807   81.3785  222.8830 H   0  0  0  0  0  0  0  0  0  0  0  0
  143.4831   80.0212  221.6730 H   0  0  0  0  0  0  0  0  0  0  0  0
  141.0195   81.6246  222.4329 H   0  0  0  0  0  0  0  0  0  0  0  0
  141.8984   81.6601  220.8770 H   0  0  0  0  0  0  0  0  0  0  0  0
  139.9321   80.1644  220.7170 H   0  0  0  0  0  0  0  0  0  0  0  0
  141.5598   80.6097  218.7876 H   0  0  0  0  0  0  0  0  0  0  0  0
  142.7708   79.3069  217.0887 H   0  0  0  0  0  0  0  0  0  0  0  0
  143.4980   76.9373  217.5757 H   0  0  0  0  0  0  0  0  0  0  0  0
  142.9308   76.0158  219.8224 H   0  0  0  0  0  0  0  0  0  0  0  0
  140.3003   72.0885  220.7288 H   0  0  0  0  0  0  0  0  0  0  0  0
  142.1668   70.6675  219.9376 H   0  0  0  0  0  0  0  0  0  0  0  0
  146.8637   71.5285  219.3685 H   0  0  0  0  0  0  0  0  0  0  0  0
  147.0894   73.8957  220.0858 H   0  0  0  0  0  0  0  0  0  0  0  0
  145.1753   75.2062  220.8558 H   0  0  0  0  0  0  0  0  0  0  0  0
  1  2  2  0
  2  3  1  0
  3  4  1  0
  4  5  1  0
  5  6  2  0
  5  7  1  0
  7  8  1  0
  8  9  1  0
  9 10  1  0
 10 11  1  0
 11 12  1  0
 12 13  1  0
 13 14  2  0
 14 15  1  0
 15 16  2  0
 16 17  1  0
 17 18  2  0
  2 19  1  0
 19 20  2  0
 20 21  1  0
 21 22  2  0
 22 23  1  0
 23 24  1  0
 23 25  2  0
 25 26  1  0
 26 27  2  0
 27 28  1  0
 28 29  2  0
 12  7  1  0
 18 13  1  0
 29 19  1  0
 28 22  1  0
  3 30  1  0
  4 31  1  0
  4 32  1  0
  8 33  1  0
  8 34  1  0
  9 35  1  0
  9 36  1  0
 10 37  1  0
 10 38  1  0
 11 39  1  0
 11 40  1  0
 12 41  1  6
 14 42  1  0
 15 43  1  0
 16 44  1  0
 17 45  1  0
 20 46  1  0
 21 47  1  0
 25 48  1  0
 26 49  1  0
 27 50  1  0
M  END
>  <smiles>  (54) 
O=C(NCC(=O)N1CCCCC1c1ccccn1)c1ccc2c(Cl)cccc2n1

>  <score_type>  (54) 
oracle

>  <origin>  (54) 
autodockgpu

>  <m_score__min__energy>  (54) 
-8.9100000000000001

>  <m_primary>  (54) 
energy

>  <rmsd>  (54) 
5.925389552664114

>  <m_score__min__rmsd>  (54) 
5.925389552664114

>  <meeko>  (54) 
{"free_energy": -7.28, "intermolecular_energy": -8.77, "internal_energy": -2.91, "cluster_size": 22, "cluster_id": 5, "rank_in_cluster": 8}

>  <energy>  (54) 
-8.69

>  <cluster_rmsd>  (54) 
0.9

>  <cluster>  (54) 
1

$$$$

     RDKit          3D

 50 53  0  0  0  0  0  0  0  0999 V2000
  141.1940   72.5150  221.5020 O   0  0  0  0  0  0  0  0  0  0  0  0
  140.2990   72.6280  222.3790 C   0  0  0  0  0  0  0  0  0  0  0  0
  139.3000   73.6770  222.3070 N   0  0  0  0  0  0  0  0  0  0  0  0
  139.3900   74.5650  221.1940 C   0  0  0  0  0  0  0  0  0  0  0  0
  140.4630   75.5540  221.1500 C   0  0  0  0  0  0  0  0  0  0  0  0
  141.2950   75.4700  222.1510 O   0  0  0  0  0  0  0  0  0  0  0  0
  140.7340   76.5690  220.2150 N   0  0  0  0  0  0  0  0  0  0  0  0
  140.0860   76.7590  218.9440 C   0  0  0  0  0  0  0  0  0  0  0  0
  139.7340   78.2480  218.7780 C   0  0  0  0  0  0  0  0  0  0  0  0
  140.9800   79.0610  218.8840 C   0  0  0  0  0  0  0  0  0  0  0  0
  142.1750   78.2440  219.3010 C   0  0  0  0  0  0  0  0  0  0  0  0
  141.8180   77.4920  220.5520 C   0  0  1  0  0  0  0  0  0  0  0  0
  141.5160   78.3910  221.6770 C   0  0  0  0  0  0  0  0  0  0  0  0
  142.4540   79.3630  222.0680 C   0  0  0  0  0  0  0  0  0  0  0  0
  142.2080   80.2170  223.1210 C   0  0  0  0  0  0  0  0  0  0  0  0
  141.0100   80.1450  223.8380 C   0  0  0  0  0  0  0  0  0  0  0  0
  140.1210   79.1810  223.4240 C   0  0  0  0  0  0  0  0  0  0  0  0
  140.3890   78.3730  222.4050 N   0  0  0  0  0  0  0  0  0  0  0  0
  140.2420   71.6970  223.5010 C   0  0  0  0  0  0  0  0  0  0  0  0
  139.7170   70.4530  223.3360 C   0  0  0  0  0  0  0  0  0  0  0  0
  139.6280   69.5140  224.3510 C   0  0  0  0  0  0  0  0  0  0  0  0
  140.1090   69.8820  225.6050 C   0  0  0  0  0  0  0  0  0  0  0  0
  140.0620   69.0090  226.6810 C   0  0  0  0  0  0  0  0  0  0  0  0
  139.3890   67.4060  226.4840 Cl  0  0  0  0  0  0  0  0  0  0  0  0
  140.5440   69.3790  227.9370 C   0  0  0  0  0  0  0  0  0  0  0  0
  141.0660   70.6530  228.0470 C   0  0  0  0  0  0  0  0  0  0  0  0
  141.1220   71.5310  227.0010 C   0  0  0  0  0  0  0  0  0  0  0  0
  140.6420   71.1500  225.7650 C   0  0  0  0  0  0  0  0  0  0  0  0
  140.7020   72.0300  224.7300 N   0  0  0  0  0  0  0  0  0  0  0  0
  138.5730   73.7300  223.0650 H   0  0  0  0  0  0  0  0  0  0  0  0
  139.4926   73.9410  220.2940 H   0  0  0  0  0  0  0  0  0  0  0  0
  138.4785   75.1753  221.2753 H   0  0  0  0  0  0  0  0  0  0  0  0
  140.7630   76.4478  218.1348 H   0  0  0  0  0  0  0  0  0  0  0  0
  139.1687   76.1534  218.9006 H   0  0  0  0  0  0  0  0  0  0  0  0
  139.2721   78.4093  217.7928 H   0  0  0  0  0  0  0  0  0  0  0  0
  139.0271   78.5507  219.5645 H   0  0  0  0  0  0  0  0  0  0  0  0
  141.1886   79.5143  217.9037 H   0  0  0  0  0  0  0  0  0  0  0  0
  140.8133   79.8241  219.6585 H   0  0  0  0  0  0  0  0  0  0  0  0
  142.4377   77.5345  218.5025 H   0  0  0  0  0  0  0  0  0  0  0  0
  143.0377   78.9009  219.4864 H   0  0  0  0  0  0  0  0  0  0  0  0
  142.6777   76.9089  220.9139 H   0  0  0  0  0  0  0  0  0  0  0  0
  143.4051   79.4433  221.5212 H   0  0  0  0  0  0  0  0  0  0  0  0
  142.9641   80.9652  223.4011 H   0  0  0  0  0  0  0  0  0  0  0  0
  140.7921   80.8175  224.6808 H   0  0  0  0  0  0  0  0  0  0  0  0
  139.1614   79.0764  223.9515 H   0  0  0  0  0  0  0  0  0  0  0  0
  139.3416   70.1767  222.3397 H   0  0  0  0  0  0  0  0  0  0  0  0
  139.1951   68.5185  224.1735 H   0  0  0  0  0  0  0  0  0  0  0  0
  140.5101   68.6917  228.7951 H   0  0  0  0  0  0  0  0  0  0  0  0
  141.4554   70.9766  229.0235 H   0  0  0  0  0  0  0  0  0  0  0  0
  141.5472   72.5354  227.1438 H   0  0  0  0  0  0  0  0  0  0  0  0
  1  2  2  0
  2  3  1  0
  3  4  1  0
  4  5  1  0
  5  6  2  0
  5  7  1  0
  7  8  1  0
  8  9  1  0
  9 10  1  0
 10 11  1  0
 11 12  1  0
 12 13  1  0
 13 14  2  0
 14 15  1  0
 15 16  2  0
 16 17  1  0
 17 18  2  0
  2 19  1  0
 19 20  2  0
 20 21  1  0
 21 22  2  0
 22 23  1  0
 23 24  1  0
 23 25  2  0
 25 26  1  0
 26 27  2  0
 27 28  1  0
 28 29  2  0
 12  7  1  0
 18 13  1  0
 29 19  1  0
 28 22  1  0
  3 30  1  0
  4 31  1  0
  4 32  1  0
  8 33  1  0
  8 34  1  0
  9 35  1  0
  9 36  1  0
 10 37  1  0
 10 38  1  0
 11 39  1  0
 11 40  1  0
 12 41  1  1
 14 42  1  0
 15 43  1  0
 16 44  1  0
 17 45  1  0
 20 46  1  0
 21 47  1  0
 25 48  1  0
 26 49  1  0
 27 50  1  0
M  END
>  <smiles>  (55) 
O=C(NCC(=O)N1CCCCC1c1ccccn1)c1ccc2c(Cl)cccc2n1

>  <score_type>  (55) 
oracle

>  <origin>  (55) 
autodockgpu

>  <m_score__min__energy>  (55) 
-8.9100000000000001

>  <m_primary>  (55) 
energy

>  <rmsd>  (55) 
2.054569488701818

>  <m_score__min__rmsd>  (55) 
2.054569488701818

>  <meeko>  (55) 
{"free_energy": -8.87, "intermolecular_energy": -10.37, "internal_energy": -1.42, "cluster_size": 8, "cluster_id": 1, "rank_in_cluster": 3}

>  <energy>  (55) 
-8.67

>  <cluster_rmsd>  (55) 
0.58

>  <cluster>  (55) 
1

$$$$

     RDKit          3D

 50 53  0  0  0  0  0  0  0  0999 V2000
  140.4740   72.0080  221.0740 O   0  0  0  0  0  0  0  0  0  0  0  0
  140.1710   72.5010  222.1910 C   0  0  0  0  0  0  0  0  0  0  0  0
  139.8120   73.9010  222.3260 N   0  0  0  0  0  0  0  0  0  0  0  0
  139.8210   74.6770  221.1300 C   0  0  0  0  0  0  0  0  0  0  0  0
  139.9350   76.1310  221.2180 C   0  0  0  0  0  0  0  0  0  0  0  0
  139.5900   76.6130  222.3800 O   0  0  0  0  0  0  0  0  0  0  0  0
  140.3490   77.0760  220.2630 N   0  0  0  0  0  0  0  0  0  0  0  0
  139.6790   77.3990  219.0310 C   0  0  0  0  0  0  0  0  0  0  0  0
  139.6220   78.9290  218.8760 C   0  0  0  0  0  0  0  0  0  0  0  0
  141.0100   79.4760  218.9040 C   0  0  0  0  0  0  0  0  0  0  0  0
  142.0400   78.4340  219.2560 C   0  0  0  0  0  0  0  0  0  0  0  0
  141.6120   77.7620  220.5300 C   0  0  1  0  0  0  0  0  0  0  0  0
  141.5620   78.6970  221.6660 C   0  0  0  0  0  0  0  0  0  0  0  0
  140.3400   79.2830  222.0360 C   0  0  0  0  0  0  0  0  0  0  0  0
  140.2560   80.1680  223.0900 C   0  0  0  0  0  0  0  0  0  0  0  0
  141.3930   80.5120  223.8290 C   0  0  0  0  0  0  0  0  0  0  0  0
  142.5670   79.9160  223.4340 C   0  0  0  0  0  0  0  0  0  0  0  0
  142.6130   79.0690  222.4130 N   0  0  0  0  0  0  0  0  0  0  0  0
  140.1730   71.6710  223.3910 C   0  0  0  0  0  0  0  0  0  0  0  0
  139.7220   70.3890  223.3390 C   0  0  0  0  0  0  0  0  0  0  0  0
  139.6920   69.5390  224.4330 C   0  0  0  0  0  0  0  0  0  0  0  0
  140.1530   70.0420  225.6460 C   0  0  0  0  0  0  0  0  0  0  0  0
  140.1610   69.2660  226.7940 C   0  0  0  0  0  0  0  0  0  0  0  0
  139.5840   67.6150  226.7430 Cl  0  0  0  0  0  0  0  0  0  0  0  0
  140.6240   69.7730  228.0100 C   0  0  0  0  0  0  0  0  0  0  0  0
  141.0700   71.0800  228.0030 C   0  0  0  0  0  0  0  0  0  0  0  0
  141.0710   71.8650  226.8850 C   0  0  0  0  0  0  0  0  0  0  0  0
  140.6100   71.3490  225.6900 C   0  0  0  0  0  0  0  0  0  0  0  0
  140.6160   72.1370  224.5820 N   0  0  0  0  0  0  0  0  0  0  0  0
  139.5670   74.2660  223.2810 H   0  0  0  0  0  0  0  0  0  0  0  0
  140.6706   74.3252  220.5264 H   0  0  0  0  0  0  0  0  0  0  0  0
  138.8153   74.5209  220.7126 H   0  0  0  0  0  0  0  0  0  0  0  0
  140.2318   76.9633  218.1857 H   0  0  0  0  0  0  0  0  0  0  0  0
  138.6582   76.9893  219.0454 H   0  0  0  0  0  0  0  0  0  0  0  0
  139.1449   79.1844  217.9183 H   0  0  0  0  0  0  0  0  0  0  0  0
  139.0366   79.3628  219.7001 H   0  0  0  0  0  0  0  0  0  0  0  0
  141.2475   79.8836  217.9103 H   0  0  0  0  0  0  0  0  0  0  0  0
  141.0448   80.2529  219.6820 H   0  0  0  0  0  0  0  0  0  0  0  0
  142.1089   77.6908  218.4480 H   0  0  0  0  0  0  0  0  0  0  0  0
  143.0260   78.9036  219.3869 H   0  0  0  0  0  0  0  0  0  0  0  0
  142.3573   77.0167  220.8447 H   0  0  0  0  0  0  0  0  0  0  0  0
  139.4299   79.0302  221.4723 H   0  0  0  0  0  0  0  0  0  0  0  0
  139.2832   80.6089  223.3530 H   0  0  0  0  0  0  0  0  0  0  0  0
  141.3502   81.2156  224.6735 H   0  0  0  0  0  0  0  0  0  0  0  0
  143.4940   80.1474  223.9791 H   0  0  0  0  0  0  0  0  0  0  0  0
  139.3605   70.0050  222.3737 H   0  0  0  0  0  0  0  0  0  0  0  0
  139.3187   68.5079  224.3462 H   0  0  0  0  0  0  0  0  0  0  0  0
  140.6330   69.1633  228.9255 H   0  0  0  0  0  0  0  0  0  0  0  0
  141.4429   71.5102  228.9442 H   0  0  0  0  0  0  0  0  0  0  0  0
  141.4366   72.9012  226.9363 H   0  0  0  0  0  0  0  0  0  0  0  0
  1  2  2  0
  2  3  1  0
  3  4  1  0
  4  5  1  0
  5  6  2  0
  5  7  1  0
  7  8  1  0
  8  9  1  0
  9 10  1  0
 10 11  1  0
 11 12  1  0
 12 13  1  0
 13 14  2  0
 14 15  1  0
 15 16  2  0
 16 17  1  0
 17 18  2  0
  2 19  1  0
 19 20  2  0
 20 21  1  0
 21 22  2  0
 22 23  1  0
 23 24  1  0
 23 25  2  0
 25 26  1  0
 26 27  2  0
 27 28  1  0
 28 29  2  0
 12  7  1  0
 18 13  1  0
 29 19  1  0
 28 22  1  0
  3 30  1  0
  4 31  1  0
  4 32  1  0
  8 33  1  0
  8 34  1  0
  9 35  1  0
  9 36  1  0
 10 37  1  0
 10 38  1  0
 11 39  1  0
 11 40  1  0
 12 41  1  1
 14 42  1  0
 15 43  1  0
 16 44  1  0
 17 45  1  0
 20 46  1  0
 21 47  1  0
 25 48  1  0
 26 49  1  0
 27 50  1  0
M  END
>  <smiles>  (56) 
O=C(NCC(=O)N1CCCCC1c1ccccn1)c1ccc2c(Cl)cccc2n1

>  <score_type>  (56) 
oracle

>  <origin>  (56) 
autodockgpu

>  <m_score__min__energy>  (56) 
-8.9100000000000001

>  <m_primary>  (56) 
energy

>  <rmsd>  (56) 
2.2232423025115224

>  <m_score__min__rmsd>  (56) 
2.2232423025115224

>  <meeko>  (56) 
{"free_energy": -8.52, "intermolecular_energy": -10.01, "internal_energy": -1.52, "cluster_size": 8, "cluster_id": 1, "rank_in_cluster": 7}

>  <energy>  (56) 
-8.63

>  <cluster_rmsd>  (56) 
1.58

>  <cluster>  (56) 
1

$$$$

     RDKit          3D

 50 53  0  0  0  0  0  0  0  0999 V2000
  139.4350   74.2190  222.3360 O   0  0  0  0  0  0  0  0  0  0  0  0
  140.2700   74.7270  221.5450 C   0  0  0  0  0  0  0  0  0  0  0  0
  140.1210   76.0860  221.0590 N   0  0  0  0  0  0  0  0  0  0  0  0
  138.9820   76.8060  221.5270 C   0  0  0  0  0  0  0  0  0  0  0  0
  139.0840   78.2470  221.7460 C   0  0  0  0  0  0  0  0  0  0  0  0
  137.9800   78.8940  221.4930 O   0  0  0  0  0  0  0  0  0  0  0  0
  140.1680   79.0320  222.1750 N   0  0  0  0  0  0  0  0  0  0  0  0
  140.6570   79.1550  223.5230 C   0  0  0  0  0  0  0  0  0  0  0  0
  142.1920   79.0420  223.5130 C   0  0  0  0  0  0  0  0  0  0  0  0
  142.7550   80.1030  222.6270 C   0  0  0  0  0  0  0  0  0  0  0  0
  141.6920   80.8480  221.8620 C   0  0  0  0  0  0  0  0  0  0  0  0
  140.8310   79.8420  221.1530 C   0  0  1  0  0  0  0  0  0  0  0  0
  141.5860   79.0600  220.1610 C   0  0  0  0  0  0  0  0  0  0  0  0
  141.7870   79.5760  218.8690 C   0  0  0  0  0  0  0  0  0  0  0  0
  142.4830   78.8690  217.9120 C   0  0  0  0  0  0  0  0  0  0  0  0
  143.0170   77.6090  218.1990 C   0  0  0  0  0  0  0  0  0  0  0  0
  142.7980   77.1410  219.4730 C   0  0  0  0  0  0  0  0  0  0  0  0
  142.1220   77.8480  220.3710 N   0  0  0  0  0  0  0  0  0  0  0  0
  141.4230   73.9560  221.0910 C   0  0  0  0  0  0  0  0  0  0  0  0
  141.2790   72.6510  220.7350 C   0  0  0  0  0  0  0  0  0  0  0  0
  142.3230   71.8530  220.2950 C   0  0  0  0  0  0  0  0  0  0  0  0
  143.5840   72.4360  220.2190 C   0  0  0  0  0  0  0  0  0  0  0  0
  144.6880   71.7170  219.7900 C   0  0  0  0  0  0  0  0  0  0  0  0
  144.5180   70.0380  219.3280 Cl  0  0  0  0  0  0  0  0  0  0  0  0
  145.9520   72.3040  219.7140 C   0  0  0  0  0  0  0  0  0  0  0  0
  146.0400   73.6310  220.0880 C   0  0  0  0  0  0  0  0  0  0  0  0
  144.9660   74.3600  220.5150 C   0  0  0  0  0  0  0  0  0  0  0  0
  143.7230   73.7650  220.5840 C   0  0  0  0  0  0  0  0  0  0  0  0
  142.6600   74.4990  221.0090 N   0  0  0  0  0  0  0  0  0  0  0  0
  140.8460   76.4650  220.3980 H   0  0  0  0  0  0  0  0  0  0  0  0
  138.1797   76.6499  220.7908 H   0  0  0  0  0  0  0  0  0  0  0  0
  138.8165   76.4015  222.5364 H   0  0  0  0  0  0  0  0  0  0  0  0
  140.3620   80.1316  223.9344 H   0  0  0  0  0  0  0  0  0  0  0  0
  140.2302   78.3559  224.1469 H   0  0  0  0  0  0  0  0  0  0  0  0
  142.5775   79.1729  224.5349 H   0  0  0  0  0  0  0  0  0  0  0  0
  142.4878   78.0511  223.1380 H   0  0  0  0  0  0  0  0  0  0  0  0
  143.3102   80.8215  223.2478 H   0  0  0  0  0  0  0  0  0  0  0  0
  143.4081   79.6095  221.8922 H   0  0  0  0  0  0  0  0  0  0  0  0
  141.0781   81.4390  222.5575 H   0  0  0  0  0  0  0  0  0  0  0  0
  142.1557   81.5306  221.1347 H   0  0  0  0  0  0  0  0  0  0  0  0
  140.0619   80.3466  220.5498 H   0  0  0  0  0  0  0  0  0  0  0  0
  141.3798   80.5660  218.6160 H   0  0  0  0  0  0  0  0  0  0  0  0
  142.6200   79.3015  216.9099 H   0  0  0  0  0  0  0  0  0  0  0  0
  143.5776   77.0282  217.4517 H   0  0  0  0  0  0  0  0  0  0  0  0
  143.1934   76.1543  219.7561 H   0  0  0  0  0  0  0  0  0  0  0  0
  140.2763   72.2035  220.8001 H   0  0  0  0  0  0  0  0  0  0  0  0
  142.1613   70.8011  220.0170 H   0  0  0  0  0  0  0  0  0  0  0  0
  146.8326   71.7392  219.3739 H   0  0  0  0  0  0  0  0  0  0  0  0
  147.0219   74.1245  220.0397 H   0  0  0  0  0  0  0  0  0  0  0  0
  145.0916   75.4145  220.8019 H   0  0  0  0  0  0  0  0  0  0  0  0
  1  2  2  0
  2  3  1  0
  3  4  1  0
  4  5  1  0
  5  6  2  0
  5  7  1  0
  7  8  1  0
  8  9  1  0
  9 10  1  0
 10 11  1  0
 11 12  1  0
 12 13  1  0
 13 14  2  0
 14 15  1  0
 15 16  2  0
 16 17  1  0
 17 18  2  0
  2 19  1  0
 19 20  2  0
 20 21  1  0
 21 22  2  0
 22 23  1  0
 23 24  1  0
 23 25  2  0
 25 26  1  0
 26 27  2  0
 27 28  1  0
 28 29  2  0
 12  7  1  0
 18 13  1  0
 29 19  1  0
 28 22  1  0
  3 30  1  0
  4 31  1  0
  4 32  1  0
  8 33  1  0
  8 34  1  0
  9 35  1  0
  9 36  1  0
 10 37  1  0
 10 38  1  0
 11 39  1  0
 11 40  1  0
 12 41  1  6
 14 42  1  0
 15 43  1  0
 16 44  1  0
 17 45  1  0
 20 46  1  0
 21 47  1  0
 25 48  1  0
 26 49  1  0
 27 50  1  0
M  END
>  <smiles>  (57) 
O=C(NCC(=O)N1CCCCC1c1ccccn1)c1ccc2c(Cl)cccc2n1

>  <score_type>  (57) 
oracle

>  <origin>  (57) 
autodockgpu

>  <m_score__min__energy>  (57) 
-8.9100000000000001

>  <m_primary>  (57) 
energy

>  <rmsd>  (57) 
5.892229031766897

>  <m_score__min__rmsd>  (57) 
5.892229031766897

>  <meeko>  (57) 
{"free_energy": -7.14, "intermolecular_energy": -8.64, "internal_energy": -2.82, "cluster_size": 22, "cluster_id": 5, "rank_in_cluster": 17}

>  <energy>  (57) 
-8.52

>  <cluster_rmsd>  (57) 
0.8

>  <cluster>  (57) 
1

$$$$

     RDKit          3D

 50 53  0  0  0  0  0  0  0  0999 V2000
  139.6090   73.7800  222.5670 O   0  0  0  0  0  0  0  0  0  0  0  0
  139.9920   74.6820  221.7790 C   0  0  0  0  0  0  0  0  0  0  0  0
  140.4940   74.3660  220.4550 N   0  0  0  0  0  0  0  0  0  0  0  0
  140.5280   72.9840  220.1020 C   0  0  0  0  0  0  0  0  0  0  0  0
  141.7270   72.4330  219.4750 C   0  0  0  0  0  0  0  0  0  0  0  0
  141.4740   71.6130  218.4940 O   0  0  0  0  0  0  0  0  0  0  0  0
  143.0870   72.6420  219.7610 N   0  0  0  0  0  0  0  0  0  0  0  0
  144.1710   71.7360  219.4820 C   0  0  0  0  0  0  0  0  0  0  0  0
  145.3360   72.5250  218.8580 C   0  0  0  0  0  0  0  0  0  0  0  0
  145.7540   73.6070  219.7960 C   0  0  0  0  0  0  0  0  0  0  0  0
  144.8260   73.7460  220.9750 C   0  0  0  0  0  0  0  0  0  0  0  0
  143.4240   73.8840  220.4560 C   0  0  1  0  0  0  0  0  0  0  0  0
  143.2450   75.0970  219.6430 C   0  0  0  0  0  0  0  0  0  0  0  0
  143.6660   75.1080  218.3010 C   0  0  0  0  0  0  0  0  0  0  0  0
  143.5210   76.2290  217.5110 C   0  0  0  0  0  0  0  0  0  0  0  0
  142.9460   77.3970  218.0230 C   0  0  0  0  0  0  0  0  0  0  0  0
  142.5490   77.3430  219.3380 C   0  0  0  0  0  0  0  0  0  0  0  0
  142.7040   76.2480  220.0710 N   0  0  0  0  0  0  0  0  0  0  0  0
  139.9390   76.0840  222.1790 C   0  0  0  0  0  0  0  0  0  0  0  0
  138.7410   76.7030  222.3580 C   0  0  0  0  0  0  0  0  0  0  0  0
  138.6080   78.0290  222.7370 C   0  0  0  0  0  0  0  0  0  0  0  0
  139.7770   78.7550  222.9430 C   0  0  0  0  0  0  0  0  0  0  0  0
  139.7440   80.0870  223.3230 C   0  0  0  0  0  0  0  0  0  0  0  0
  138.2100   80.8960  223.5570 Cl  0  0  0  0  0  0  0  0  0  0  0  0
  140.9180   80.8130  223.5290 C   0  0  0  0  0  0  0  0  0  0  0  0
  142.1050   80.1340  223.3340 C   0  0  0  0  0  0  0  0  0  0  0  0
  142.1640   78.8220  222.9580 C   0  0  0  0  0  0  0  0  0  0  0  0
  140.9940   78.1180  222.7590 C   0  0  0  0  0  0  0  0  0  0  0  0
  141.0620   76.8120  222.3860 N   0  0  0  0  0  0  0  0  0  0  0  0
  140.8020   75.1560  219.8330 H   0  0  0  0  0  0  0  0  0  0  0  0
  140.3588   72.4129  221.0268 H   0  0  0  0  0  0  0  0  0  0  0  0
  139.7621   72.8979  219.3172 H   0  0  0  0  0  0  0  0  0  0  0  0
  144.5054   71.2621  220.4167 H   0  0  0  0  0  0  0  0  0  0  0  0
  143.8333   70.9569  218.7828 H   0  0  0  0  0  0  0  0  0  0  0  0
  146.1835   71.8477  218.6766 H   0  0  0  0  0  0  0  0  0  0  0  0
  145.0135   72.9674  217.9039 H   0  0  0  0  0  0  0  0  0  0  0  0
  146.7638   73.3793  220.1681 H   0  0  0  0  0  0  0  0  0  0  0  0
  145.7292   74.5560  219.2403 H   0  0  0  0  0  0  0  0  0  0  0  0
  144.9001   72.8539  221.6142 H   0  0  0  0  0  0  0  0  0  0  0  0
  145.0989   74.6296  221.5707 H   0  0  0  0  0  0  0  0  0  0  0  0
  142.7161   74.0259  221.2859 H   0  0  0  0  0  0  0  0  0  0  0  0
  144.1208   74.2028  217.8723 H   0  0  0  0  0  0  0  0  0  0  0  0
  143.8617   76.2044  216.4654 H   0  0  0  0  0  0  0  0  0  0  0  0
  142.8194   78.3024  217.4113 H   0  0  0  0  0  0  0  0  0  0  0  0
  142.0902   78.2321  219.7951 H   0  0  0  0  0  0  0  0  0  0  0  0
  137.8250   76.1170  222.1923 H   0  0  0  0  0  0  0  0  0  0  0  0
  137.6178   78.4894  222.8697 H   0  0  0  0  0  0  0  0  0  0  0  0
  140.8990   81.8706  223.8309 H   0  0  0  0  0  0  0  0  0  0  0  0
  143.0493   80.6765  223.4891 H   0  0  0  0  0  0  0  0  0  0  0  0
  143.1375   78.3302  222.8148 H   0  0  0  0  0  0  0  0  0  0  0  0
  1  2  2  0
  2  3  1  0
  3  4  1  0
  4  5  1  0
  5  6  2  0
  5  7  1  0
  7  8  1  0
  8  9  1  0
  9 10  1  0
 10 11  1  0
 11 12  1  0
 12 13  1  0
 13 14  2  0
 14 15  1  0
 15 16  2  0
 16 17  1  0
 17 18  2  0
  2 19  1  0
 19 20  2  0
 20 21  1  0
 21 22  2  0
 22 23  1  0
 23 24  1  0
 23 25  2  0
 25 26  1  0
 26 27  2  0
 27 28  1  0
 28 29  2  0
 12  7  1  0
 18 13  1  0
 29 19  1  0
 28 22  1  0
  3 30  1  0
  4 31  1  0
  4 32  1  0
  8 33  1  0
  8 34  1  0
  9 35  1  0
  9 36  1  0
 10 37  1  0
 10 38  1  0
 11 39  1  0
 11 40  1  0
 12 41  1  1
 14 42  1  0
 15 43  1  0
 16 44  1  0
 17 45  1  0
 20 46  1  0
 21 47  1  0
 25 48  1  0
 26 49  1  0
 27 50  1  0
M  END
>  <smiles>  (58) 
O=C(NCC(=O)N1CCCCC1c1ccccn1)c1ccc2c(Cl)cccc2n1

>  <score_type>  (58) 
oracle

>  <origin>  (58) 
autodockgpu

>  <m_score__min__energy>  (58) 
-8.9100000000000001

>  <m_primary>  (58) 
energy

>  <rmsd>  (58) 
6.851182587222941

>  <m_score__min__rmsd>  (58) 
6.851182587222941

>  <meeko>  (58) 
{"free_energy": -7.01, "intermolecular_energy": -8.51, "internal_energy": -2.49, "cluster_size": 10, "cluster_id": 4, "rank_in_cluster": 8}

>  <energy>  (58) 
-8.16

>  <cluster_rmsd>  (58) 
1.61

>  <cluster>  (58) 
1

$$$$

     RDKit          3D

 50 53  0  0  0  0  0  0  0  0999 V2000
  139.8150   74.0310  222.3440 O   0  0  0  0  0  0  0  0  0  0  0  0
  140.2430   74.9760  221.6340 C   0  0  0  0  0  0  0  0  0  0  0  0
  140.8310   74.7340  220.3300 N   0  0  0  0  0  0  0  0  0  0  0  0
  140.8930   73.3740  219.9030 C   0  0  0  0  0  0  0  0  0  0  0  0
  141.9560   72.5110  220.4100 C   0  0  0  0  0  0  0  0  0  0  0  0
  141.5200   71.4320  220.9990 O   0  0  0  0  0  0  0  0  0  0  0  0
  143.3540   72.6590  220.3660 N   0  0  0  0  0  0  0  0  0  0  0  0
  144.3170   71.6240  220.0990 C   0  0  0  0  0  0  0  0  0  0  0  0
  145.3540   72.1520  219.0910 C   0  0  0  0  0  0  0  0  0  0  0  0
  146.0030   73.3730  219.6500 C   0  0  0  0  0  0  0  0  0  0  0  0
  145.3520   73.8480  220.9220 C   0  0  0  0  0  0  0  0  0  0  0  0
  143.8780   73.9900  220.6720 C   0  0  1  0  0  0  0  0  0  0  0  0
  143.5800   75.0050  219.6490 C   0  0  0  0  0  0  0  0  0  0  0  0
  143.6720   74.6730  218.2860 C   0  0  0  0  0  0  0  0  0  0  0  0
  143.4060   75.6000  217.3000 C   0  0  0  0  0  0  0  0  0  0  0  0
  143.0330   76.9070  217.6280 C   0  0  0  0  0  0  0  0  0  0  0  0
  142.9550   77.1900  218.9710 C   0  0  0  0  0  0  0  0  0  0  0  0
  143.2180   76.2740  219.8950 N   0  0  0  0  0  0  0  0  0  0  0  0
  140.1600   76.3540  222.1080 C   0  0  0  0  0  0  0  0  0  0  0  0
  138.9660   76.8720  222.5050 C   0  0  0  0  0  0  0  0  0  0  0  0
  138.8060   78.1690  222.9660 C   0  0  0  0  0  0  0  0  0  0  0  0
  139.9410   78.9720  223.0200 C   0  0  0  0  0  0  0  0  0  0  0  0
  139.8780   80.2830  223.4680 C   0  0  0  0  0  0  0  0  0  0  0  0
  138.3500   80.9640  223.9820 Cl  0  0  0  0  0  0  0  0  0  0  0  0
  141.0170   81.0870  223.5220 C   0  0  0  0  0  0  0  0  0  0  0  0
  142.2010   80.5090  223.1070 C   0  0  0  0  0  0  0  0  0  0  0  0
  142.2880   79.2200  222.6610 C   0  0  0  0  0  0  0  0  0  0  0  0
  141.1520   78.4380  222.6140 C   0  0  0  0  0  0  0  0  0  0  0  0
  141.2480   77.1560  222.1700 N   0  0  0  0  0  0  0  0  0  0  0  0
  141.1760   75.5580  219.7740 H   0  0  0  0  0  0  0  0  0  0  0  0
  139.9384   72.9058  220.1850 H   0  0  0  0  0  0  0  0  0  0  0  0
  141.1113   73.4496  218.8275 H   0  0  0  0  0  0  0  0  0  0  0  0
  144.8226   71.3406  221.0339 H   0  0  0  0  0  0  0  0  0  0  0  0
  143.8087   70.7422  219.6817 H   0  0  0  0  0  0  0  0  0  0  0  0
  146.1166   71.3803  218.9093 H   0  0  0  0  0  0  0  0  0  0  0  0
  144.8549   72.3998  218.1426 H   0  0  0  0  0  0  0  0  0  0  0  0
  147.0588   73.1458  219.8589 H   0  0  0  0  0  0  0  0  0  0  0  0
  145.8987   74.1750  218.9044 H   0  0  0  0  0  0  0  0  0  0  0  0
  145.5244   73.1154  221.7243 H   0  0  0  0  0  0  0  0  0  0  0  0
  145.7794   74.8140  221.2290 H   0  0  0  0  0  0  0  0  0  0  0  0
  143.3670   74.3722  221.5680 H   0  0  0  0  0  0  0  0  0  0  0  0
  143.9625   73.6514  217.9996 H   0  0  0  0  0  0  0  0  0  0  0  0
  143.4883   75.3075  216.2428 H   0  0  0  0  0  0  0  0  0  0  0  0
  142.8153   77.6624  216.8586 H   0  0  0  0  0  0  0  0  0  0  0  0
  142.6668   78.2030  219.2885 H   0  0  0  0  0  0  0  0  0  0  0  0
  138.0778   76.2248  222.4573 H   0  0  0  0  0  0  0  0  0  0  0  0
  137.8214   78.5484  223.2767 H   0  0  0  0  0  0  0  0  0  0  0  0
  140.9744   82.1274  223.8767 H   0  0  0  0  0  0  0  0  0  0  0  0
  143.1182   81.1155  223.1369 H   0  0  0  0  0  0  0  0  0  0  0  0
  143.2570   78.8087  222.3417 H   0  0  0  0  0  0  0  0  0  0  0  0
  1  2  2  0
  2  3  1  0
  3  4  1  0
  4  5  1  0
  5  6  2  0
  5  7  1  0
  7  8  1  0
  8  9  1  0
  9 10  1  0
 10 11  1  0
 11 12  1  0
 12 13  1  0
 13 14  2  0
 14 15  1  0
 15 16  2  0
 16 17  1  0
 17 18  2  0
  2 19  1  0
 19 20  2  0
 20 21  1  0
 21 22  2  0
 22 23  1  0
 23 24  1  0
 23 25  2  0
 25 26  1  0
 26 27  2  0
 27 28  1  0
 28 29  2  0
 12  7  1  0
 18 13  1  0
 29 19  1  0
 28 22  1  0
  3 30  1  0
  4 31  1  0
  4 32  1  0
  8 33  1  0
  8 34  1  0
  9 35  1  0
  9 36  1  0
 10 37  1  0
 10 38  1  0
 11 39  1  0
 11 40  1  0
 12 41  1  1
 14 42  1  0
 15 43  1  0
 16 44  1  0
 17 45  1  0
 20 46  1  0
 21 47  1  0
 25 48  1  0
 26 49  1  0
 27 50  1  0
M  END
>  <smiles>  (59) 
O=C(NCC(=O)N1CCCCC1c1ccccn1)c1ccc2c(Cl)cccc2n1

>  <score_type>  (59) 
oracle

>  <origin>  (59) 
autodockgpu

>  <m_score__min__energy>  (59) 
-8.9100000000000001

>  <m_primary>  (59) 
energy

>  <rmsd>  (59) 
7.131715228100162

>  <m_score__min__rmsd>  (59) 
7.131715228100162

>  <meeko>  (59) 
{"free_energy": -7.63, "intermolecular_energy": -9.13, "internal_energy": -2.45, "cluster_size": 10, "cluster_id": 4, "rank_in_cluster": 3}

>  <energy>  (59) 
-8.78

>  <cluster_rmsd>  (59) 
0.0

>  <cluster>  (59) 
2

$$$$

     RDKit          3D

 50 53  0  0  0  0  0  0  0  0999 V2000
  141.2590   72.5760  221.6640 O   0  0  0  0  0  0  0  0  0  0  0  0
  140.3040   72.6310  222.4810 C   0  0  0  0  0  0  0  0  0  0  0  0
  139.2440   73.6120  222.3380 N   0  0  0  0  0  0  0  0  0  0  0  0
  139.3460   74.5000  221.2260 C   0  0  0  0  0  0  0  0  0  0  0  0
  140.3420   75.5690  221.2510 C   0  0  0  0  0  0  0  0  0  0  0  0
  141.0540   75.5960  222.3430 O   0  0  0  0  0  0  0  0  0  0  0  0
  140.6460   76.5580  220.2990 N   0  0  0  0  0  0  0  0  0  0  0  0
  140.0270   76.7280  219.0120 C   0  0  0  0  0  0  0  0  0  0  0  0
  139.6990   78.2180  218.8040 C   0  0  0  0  0  0  0  0  0  0  0  0
  140.9550   79.0150  218.9180 C   0  0  0  0  0  0  0  0  0  0  0  0
  142.1290   78.1910  219.3770 C   0  0  0  0  0  0  0  0  0  0  0  0
  141.7360   77.4740  220.6370 C   0  0  1  0  0  0  0  0  0  0  0  0
  141.4250   78.4020  221.7350 C   0  0  0  0  0  0  0  0  0  0  0  0
  142.4360   79.2200  222.2680 C   0  0  0  0  0  0  0  0  0  0  0  0
  142.1830   80.0970  223.3020 C   0  0  0  0  0  0  0  0  0  0  0  0
  140.9020   80.2010  223.8550 C   0  0  0  0  0  0  0  0  0  0  0  0
  139.9430   79.3840  223.3050 C   0  0  0  0  0  0  0  0  0  0  0  0
  140.2210   78.5500  222.3100 N   0  0  0  0  0  0  0  0  0  0  0  0
  140.2360   71.7030  223.6040 C   0  0  0  0  0  0  0  0  0  0  0  0
  139.7320   70.4510  223.4310 C   0  0  0  0  0  0  0  0  0  0  0  0
  139.6350   69.5130  224.4460 C   0  0  0  0  0  0  0  0  0  0  0  0
  140.0840   69.8890  225.7080 C   0  0  0  0  0  0  0  0  0  0  0  0
  140.0260   69.0180  226.7850 C   0  0  0  0  0  0  0  0  0  0  0  0
  139.3800   67.4050  226.5770 Cl  0  0  0  0  0  0  0  0  0  0  0  0
  140.4770   69.3970  228.0510 C   0  0  0  0  0  0  0  0  0  0  0  0
  140.9790   70.6790  228.1680 C   0  0  0  0  0  0  0  0  0  0  0  0
  141.0450   71.5560  227.1220 C   0  0  0  0  0  0  0  0  0  0  0  0
  140.5950   71.1650  225.8770 C   0  0  0  0  0  0  0  0  0  0  0  0
  140.6660   72.0440  224.8420 N   0  0  0  0  0  0  0  0  0  0  0  0
  138.4670   73.6190  223.0470 H   0  0  0  0  0  0  0  0  0  0  0  0
  139.5608   73.8825  220.3414 H   0  0  0  0  0  0  0  0  0  0  0  0
  138.3869   75.0386  221.2351 H   0  0  0  0  0  0  0  0  0  0  0  0
  140.7158   76.3889  218.2242 H   0  0  0  0  0  0  0  0  0  0  0  0
  139.1020   76.1346  218.9642 H   0  0  0  0  0  0  0  0  0  0  0  0
  139.2603   78.3627  217.8057 H   0  0  0  0  0  0  0  0  0  0  0  0
  138.9795   78.5491  219.5674 H   0  0  0  0  0  0  0  0  0  0  0  0
  141.1901   79.4435  217.9325 H   0  0  0  0  0  0  0  0  0  0  0  0
  140.7839   79.7970  219.6725 H   0  0  0  0  0  0  0  0  0  0  0  0
  142.3966   77.4594  218.6004 H   0  0  0  0  0  0  0  0  0  0  0  0
  142.9978   78.8392  219.5642 H   0  0  0  0  0  0  0  0  0  0  0  0
  142.5800   76.8880  221.0298 H   0  0  0  0  0  0  0  0  0  0  0  0
  143.4521   79.1594  221.8510 H   0  0  0  0  0  0  0  0  0  0  0  0
  142.9978   80.7219  223.6965 H   0  0  0  0  0  0  0  0  0  0  0  0
  140.6762   80.8938  224.6790 H   0  0  0  0  0  0  0  0  0  0  0  0
  138.9171   79.4222  223.7001 H   0  0  0  0  0  0  0  0  0  0  0  0
  139.3815   70.1673  222.4277 H   0  0  0  0  0  0  0  0  0  0  0  0
  139.2197   68.5113  224.2615 H   0  0  0  0  0  0  0  0  0  0  0  0
  140.4349   68.7111  228.9099 H   0  0  0  0  0  0  0  0  0  0  0  0
  141.3435   71.0100  229.1516 H   0  0  0  0  0  0  0  0  0  0  0  0
  141.4538   72.5663  227.2711 H   0  0  0  0  0  0  0  0  0  0  0  0
  1  2  2  0
  2  3  1  0
  3  4  1  0
  4  5  1  0
  5  6  2  0
  5  7  1  0
  7  8  1  0
  8  9  1  0
  9 10  1  0
 10 11  1  0
 11 12  1  0
 12 13  1  0
 13 14  2  0
 14 15  1  0
 15 16  2  0
 16 17  1  0
 17 18  2  0
  2 19  1  0
 19 20  2  0
 20 21  1  0
 21 22  2  0
 22 23  1  0
 23 24  1  0
 23 25  2  0
 25 26  1  0
 26 27  2  0
 27 28  1  0
 28 29  2  0
 12  7  1  0
 18 13  1  0
 29 19  1  0
 28 22  1  0
  3 30  1  0
  4 31  1  0
  4 32  1  0
  8 33  1  0
  8 34  1  0
  9 35  1  0
  9 36  1  0
 10 37  1  0
 10 38  1  0
 11 39  1  0
 11 40  1  0
 12 41  1  1
 14 42  1  0
 15 43  1  0
 16 44  1  0
 17 45  1  0
 20 46  1  0
 21 47  1  0
 25 48  1  0
 26 49  1  0
 27 50  1  0
M  END
>  <smiles>  (60) 
O=C(NCC(=O)N1CCCCC1c1ccccn1)c1ccc2c(Cl)cccc2n1

>  <score_type>  (60) 
oracle

>  <origin>  (60) 
autodockgpu

>  <m_score__min__energy>  (60) 
-8.9100000000000001

>  <m_primary>  (60) 
energy

>  <rmsd>  (60) 
2.1006168189650705

>  <m_score__min__rmsd>  (60) 
2.1006168189650705

>  <meeko>  (60) 
{"free_energy": -8.91, "intermolecular_energy": -10.4, "internal_energy": -1.42, "cluster_size": 8, "cluster_id": 1, "rank_in_cluster": 1}

>  <energy>  (60) 
-8.75

>  <cluster_rmsd>  (60) 
0.56

>  <cluster>  (60) 
2

$$$$

     RDKit          3D

 50 53  0  0  0  0  0  0  0  0999 V2000
  141.3050   72.1830  221.4840 O   0  0  0  0  0  0  0  0  0  0  0  0
  140.4330   72.4000  222.3650 C   0  0  0  0  0  0  0  0  0  0  0  0
  139.4940   73.4990  222.2430 N   0  0  0  0  0  0  0  0  0  0  0  0
  139.6150   74.3120  221.0770 C   0  0  0  0  0  0  0  0  0  0  0  0
  140.8380   75.0800  220.8610 C   0  0  0  0  0  0  0  0  0  0  0  0
  141.4530   75.4070  221.9640 O   0  0  0  0  0  0  0  0  0  0  0  0
  141.4460   75.5190  219.6720 N   0  0  0  0  0  0  0  0  0  0  0  0
  141.3570   76.8360  219.0990 C   0  0  0  0  0  0  0  0  0  0  0  0
  142.7620   77.2890  218.6630 C   0  0  0  0  0  0  0  0  0  0  0  0
  143.3130   76.3050  217.6880 C   0  0  0  0  0  0  0  0  0  0  0  0
  142.4510   75.0770  217.5480 C   0  0  0  0  0  0  0  0  0  0  0  0
  142.2020   74.5180  218.9190 C   0  0  1  0  0  0  0  0  0  0  0  0
  143.4430   74.0800  219.5780 C   0  0  0  0  0  0  0  0  0  0  0  0
  143.8060   72.7220  219.5550 C   0  0  0  0  0  0  0  0  0  0  0  0
  144.9580   72.2750  220.1670 C   0  0  0  0  0  0  0  0  0  0  0  0
  145.8080   73.1650  220.8320 C   0  0  0  0  0  0  0  0  0  0  0  0
  145.4160   74.4820  220.8310 C   0  0  0  0  0  0  0  0  0  0  0  0
  144.3000   74.8800  220.2320 N   0  0  0  0  0  0  0  0  0  0  0  0
  140.3430   71.5430  223.5420 C   0  0  0  0  0  0  0  0  0  0  0  0
  139.8850   70.2670  223.4290 C   0  0  0  0  0  0  0  0  0  0  0  0
  139.7700   69.3930  224.4980 C   0  0  0  0  0  0  0  0  0  0  0  0
  140.1490   69.8640  225.7520 C   0  0  0  0  0  0  0  0  0  0  0  0
  140.0700   69.0620  226.8800 C   0  0  0  0  0  0  0  0  0  0  0  0
  139.4820   67.4190  226.7500 Cl  0  0  0  0  0  0  0  0  0  0  0  0
  140.4510   69.5360  228.1360 C   0  0  0  0  0  0  0  0  0  0  0  0
  140.9080   70.8380  228.1910 C   0  0  0  0  0  0  0  0  0  0  0  0
  140.9950   71.6480  227.0940 C   0  0  0  0  0  0  0  0  0  0  0  0
  140.6140   71.1640  225.8580 C   0  0  0  0  0  0  0  0  0  0  0  0
  140.7050   71.9770  224.7720 N   0  0  0  0  0  0  0  0  0  0  0  0
  138.7840   73.6390  223.0060 H   0  0  0  0  0  0  0  0  0  0  0  0
  139.4973   73.6465  220.2091 H   0  0  0  0  0  0  0  0  0  0  0  0
  138.8456   75.0851  221.2195 H   0  0  0  0  0  0  0  0  0  0  0  0
  140.6891   76.8137  218.2253 H   0  0  0  0  0  0  0  0  0  0  0  0
  140.9544   77.5387  219.8434 H   0  0  0  0  0  0  0  0  0  0  0  0
  142.6988   78.2800  218.1898 H   0  0  0  0  0  0  0  0  0  0  0  0
  143.4210   77.3476  219.5418 H   0  0  0  0  0  0  0  0  0  0  0  0
  143.3938   76.7918  216.7049 H   0  0  0  0  0  0  0  0  0  0  0  0
  144.2943   75.9799  218.0640 H   0  0  0  0  0  0  0  0  0  0  0  0
  141.4943   75.3458  217.0763 H   0  0  0  0  0  0  0  0  0  0  0  0
  142.9559   74.3288  216.9192 H   0  0  0  0  0  0  0  0  0  0  0  0
  141.6042   73.5965  218.8592 H   0  0  0  0  0  0  0  0  0  0  0  0
  143.1569   72.0003  219.0375 H   0  0  0  0  0  0  0  0  0  0  0  0
  145.2117   71.2052  220.1319 H   0  0  0  0  0  0  0  0  0  0  0  0
  146.7329   72.8312  221.3252 H   0  0  0  0  0  0  0  0  0  0  0  0
  146.0443   75.2273  221.3407 H   0  0  0  0  0  0  0  0  0  0  0  0
  139.5890   69.9086  222.4320 H   0  0  0  0  0  0  0  0  0  0  0  0
  139.3944   68.3682  224.3613 H   0  0  0  0  0  0  0  0  0  0  0  0
  140.3905   68.9055  229.0353 H   0  0  0  0  0  0  0  0  0  0  0  0
  141.2172   71.2429  229.1659 H   0  0  0  0  0  0  0  0  0  0  0  0
  141.3660   72.6786  227.1947 H   0  0  0  0  0  0  0  0  0  0  0  0
  1  2  2  0
  2  3  1  0
  3  4  1  0
  4  5  1  0
  5  6  2  0
  5  7  1  0
  7  8  1  0
  8  9  1  0
  9 10  1  0
 10 11  1  0
 11 12  1  0
 12 13  1  0
 13 14  2  0
 14 15  1  0
 15 16  2  0
 16 17  1  0
 17 18  2  0
  2 19  1  0
 19 20  2  0
 20 21  1  0
 21 22  2  0
 22 23  1  0
 23 24  1  0
 23 25  2  0
 25 26  1  0
 26 27  2  0
 27 28  1  0
 28 29  2  0
 12  7  1  0
 18 13  1  0
 29 19  1  0
 28 22  1  0
  3 30  1  0
  4 31  1  0
  4 32  1  0
  8 33  1  0
  8 34  1  0
  9 35  1  0
  9 36  1  0
 10 37  1  0
 10 38  1  0
 11 39  1  0
 11 40  1  0
 12 41  1  6
 14 42  1  0
 15 43  1  0
 16 44  1  0
 17 45  1  0
 20 46  1  0
 21 47  1  0
 25 48  1  0
 26 49  1  0
 27 50  1  0
M  END
>  <smiles>  (61) 
O=C(NCC(=O)N1CCCCC1c1ccccn1)c1ccc2c(Cl)cccc2n1

>  <score_type>  (61) 
oracle

>  <origin>  (61) 
autodockgpu

>  <m_score__min__energy>  (61) 
-8.9100000000000001

>  <m_primary>  (61) 
energy

>  <rmsd>  (61) 
4.264009065949386

>  <m_score__min__rmsd>  (61) 
4.264009065949386

>  <meeko>  (61) 
{"free_energy": -8.73, "intermolecular_energy": -10.22, "internal_energy": -1.77, "cluster_size": 8, "cluster_id": 2, "rank_in_cluster": 4}

>  <energy>  (61) 
-8.73

>  <cluster_rmsd>  (61) 
0.19

>  <cluster>  (61) 
2

$$$$

     RDKit          3D

 50 53  0  0  0  0  0  0  0  0999 V2000
  140.2910   74.3150  222.3360 O   0  0  0  0  0  0  0  0  0  0  0  0
  140.6600   75.0070  221.3530 C   0  0  0  0  0  0  0  0  0  0  0  0
  140.8350   74.4190  220.0380 N   0  0  0  0  0  0  0  0  0  0  0  0
  140.5650   73.0220  219.9260 C   0  0  0  0  0  0  0  0  0  0  0  0
  141.5250   72.0610  220.4620 C   0  0  0  0  0  0  0  0  0  0  0  0
  140.9920   71.1790  221.2610 O   0  0  0  0  0  0  0  0  0  0  0  0
  142.9110   71.9410  220.2590 N   0  0  0  0  0  0  0  0  0  0  0  0
  143.6140   70.7670  219.8140 C   0  0  0  0  0  0  0  0  0  0  0  0
  144.6220   71.1680  218.7230 C   0  0  0  0  0  0  0  0  0  0  0  0
  145.5580   72.1910  219.2730 C   0  0  0  0  0  0  0  0  0  0  0  0
  145.1550   72.6740  220.6420 C   0  0  0  0  0  0  0  0  0  0  0  0
  143.7210   73.1160  220.5800 C   0  0  1  0  0  0  0  0  0  0  0  0
  143.5250   74.2520  219.6650 C   0  0  0  0  0  0  0  0  0  0  0  0
  143.8780   75.5490  220.0740 C   0  0  0  0  0  0  0  0  0  0  0  0
  143.7030   76.6380  219.2460 C   0  0  0  0  0  0  0  0  0  0  0  0
  143.1650   76.4830  217.9640 C   0  0  0  0  0  0  0  0  0  0  0  0
  142.8330   75.1990  217.6040 C   0  0  0  0  0  0  0  0  0  0  0  0
  143.0140   74.1720  218.4260 N   0  0  0  0  0  0  0  0  0  0  0  0
  140.9240   76.4330  221.5100 C   0  0  0  0  0  0  0  0  0  0  0  0
  141.0570   76.9740  222.7510 C   0  0  0  0  0  0  0  0  0  0  0  0
  141.3080   78.3170  222.9830 C   0  0  0  0  0  0  0  0  0  0  0  0
  141.4290   79.1450  221.8710 C   0  0  0  0  0  0  0  0  0  0  0  0
  141.6800   80.5020  222.0040 C   0  0  0  0  0  0  0  0  0  0  0  0
  141.8530   81.2120  223.5940 Cl  0  0  0  0  0  0  0  0  0  0  0  0
  141.8010   81.3310  220.8880 C   0  0  0  0  0  0  0  0  0  0  0  0
  141.6570   80.7280  219.6530 C   0  0  0  0  0  0  0  0  0  0  0  0
  141.4090   79.3930  219.4970 C   0  0  0  0  0  0  0  0  0  0  0  0
  141.2920   78.5870  220.6110 C   0  0  0  0  0  0  0  0  0  0  0  0
  141.0460   77.2600  220.4450 N   0  0  0  0  0  0  0  0  0  0  0  0
  141.1460   75.0390  219.2470 H   0  0  0  0  0  0  0  0  0  0  0  0
  139.6085   72.8385  220.4373 H   0  0  0  0  0  0  0  0  0  0  0  0
  140.5924   72.8387  218.8417 H   0  0  0  0  0  0  0  0  0  0  0  0
  144.1492   70.3145  220.6618 H   0  0  0  0  0  0  0  0  0  0  0  0
  142.8979   70.0377  219.4074 H   0  0  0  0  0  0  0  0  0  0  0  0
  145.1910   70.2822  218.4041 H   0  0  0  0  0  0  0  0  0  0  0  0
  144.0848   71.5851  217.8584 H   0  0  0  0  0  0  0  0  0  0  0  0
  146.5632   71.7490  219.3379 H   0  0  0  0  0  0  0  0  0  0  0  0
  145.5367   73.0578  218.5961 H   0  0  0  0  0  0  0  0  0  0  0  0
  145.2619   71.8575  221.3714 H   0  0  0  0  0  0  0  0  0  0  0  0
  145.7974   73.5105  220.9543 H   0  0  0  0  0  0  0  0  0  0  0  0
  143.3951   73.5122  221.5530 H   0  0  0  0  0  0  0  0  0  0  0  0
  144.3035   75.6992  221.0772 H   0  0  0  0  0  0  0  0  0  0  0  0
  143.9898   77.6400  219.5977 H   0  0  0  0  0  0  0  0  0  0  0  0
  143.0168   77.3363  217.2859 H   0  0  0  0  0  0  0  0  0  0  0  0
  142.4053   75.0169  216.6070 H   0  0  0  0  0  0  0  0  0  0  0  0
  140.9597   76.3071  223.6204 H   0  0  0  0  0  0  0  0  0  0  0  0
  141.4075   78.7125  224.0046 H   0  0  0  0  0  0  0  0  0  0  0  0
  142.0006   82.4083  220.9863 H   0  0  0  0  0  0  0  0  0  0  0  0
  141.7463   81.3526  218.7519 H   0  0  0  0  0  0  0  0  0  0  0  0
  141.3033   78.9637  218.4897 H   0  0  0  0  0  0  0  0  0  0  0  0
  1  2  2  0
  2  3  1  0
  3  4  1  0
  4  5  1  0
  5  6  2  0
  5  7  1  0
  7  8  1  0
  8  9  1  0
  9 10  1  0
 10 11  1  0
 11 12  1  0
 12 13  1  0
 13 14  2  0
 14 15  1  0
 15 16  2  0
 16 17  1  0
 17 18  2  0
  2 19  1  0
 19 20  2  0
 20 21  1  0
 21 22  2  0
 22 23  1  0
 23 24  1  0
 23 25  2  0
 25 26  1  0
 26 27  2  0
 27 28  1  0
 28 29  2  0
 12  7  1  0
 18 13  1  0
 29 19  1  0
 28 22  1  0
  3 30  1  0
  4 31  1  0
  4 32  1  0
  8 33  1  0
  8 34  1  0
  9 35  1  0
  9 36  1  0
 10 37  1  0
 10 38  1  0
 11 39  1  0
 11 40  1  0
 12 41  1  1
 14 42  1  0
 15 43  1  0
 16 44  1  0
 17 45  1  0
 20 46  1  0
 21 47  1  0
 25 48  1  0
 26 49  1  0
 27 50  1  0
M  END
>  <smiles>  (62) 
O=C(NCC(=O)N1CCCCC1c1ccccn1)c1ccc2c(Cl)cccc2n1

>  <score_type>  (62) 
oracle

>  <origin>  (62) 
autodockgpu

>  <m_score__min__energy>  (62) 
-8.9100000000000001

>  <m_primary>  (62) 
energy

>  <rmsd>  (62) 
7.668559244797072

>  <m_score__min__rmsd>  (62) 
7.668559244797072

>  <meeko>  (62) 
{"free_energy": -6.76, "intermolecular_energy": -8.25, "internal_energy": -3.03, "cluster_size": 10, "cluster_id": 4, "rank_in_cluster": 10}

>  <energy>  (62) 
-8.73

>  <cluster_rmsd>  (62) 
0.15

>  <cluster>  (62) 
2

$$$$

     RDKit          3D

 50 53  0  0  0  0  0  0  0  0999 V2000
  140.4000   71.9710  221.0340 O   0  0  0  0  0  0  0  0  0  0  0  0
  140.0640   72.4200  222.1600 C   0  0  0  0  0  0  0  0  0  0  0  0
  139.6400   73.7980  222.3270 N   0  0  0  0  0  0  0  0  0  0  0  0
  139.6240   74.6040  221.1500 C   0  0  0  0  0  0  0  0  0  0  0  0
  140.7620   75.4730  220.8610 C   0  0  0  0  0  0  0  0  0  0  0  0
  141.2080   76.1160  221.9040 O   0  0  0  0  0  0  0  0  0  0  0  0
  141.4380   75.7240  219.6540 N   0  0  0  0  0  0  0  0  0  0  0  0
  141.4970   76.9770  218.9480 C   0  0  0  0  0  0  0  0  0  0  0  0
  142.9500   77.2410  218.5150 C   0  0  0  0  0  0  0  0  0  0  0  0
  143.4200   76.1110  217.6630 C   0  0  0  0  0  0  0  0  0  0  0  0
  142.4410   74.9670  217.6190 C   0  0  0  0  0  0  0  0  0  0  0  0
  142.1050   74.5810  219.0310 C   0  0  1  0  0  0  0  0  0  0  0  0
  143.2800   74.0920  219.7710 C   0  0  0  0  0  0  0  0  0  0  0  0
  143.3600   72.7390  220.1430 C   0  0  0  0  0  0  0  0  0  0  0  0
  144.4420   72.2480  220.8430 C   0  0  0  0  0  0  0  0  0  0  0  0
  145.5010   73.0860  221.2050 C   0  0  0  0  0  0  0  0  0  0  0  0
  145.3830   74.4010  220.8220 C   0  0  0  0  0  0  0  0  0  0  0  0
  144.3270   74.8420  220.1490 N   0  0  0  0  0  0  0  0  0  0  0  0
  140.0930   71.5610  223.3380 C   0  0  0  0  0  0  0  0  0  0  0  0
  139.6510   70.2760  223.2630 C   0  0  0  0  0  0  0  0  0  0  0  0
  139.6460   69.3990  224.3350 C   0  0  0  0  0  0  0  0  0  0  0  0
  140.1260   69.8760  225.5510 C   0  0  0  0  0  0  0  0  0  0  0  0
  140.1600   69.0710  226.6800 C   0  0  0  0  0  0  0  0  0  0  0  0
  139.5940   67.4170  226.5980 Cl  0  0  0  0  0  0  0  0  0  0  0  0
  140.6410   69.5510  227.8990 C   0  0  0  0  0  0  0  0  0  0  0  0
  141.0780   70.8610  227.9180 C   0  0  0  0  0  0  0  0  0  0  0  0
  141.0530   71.6740  226.8190 C   0  0  0  0  0  0  0  0  0  0  0  0
  140.5740   71.1840  225.6210 C   0  0  0  0  0  0  0  0  0  0  0  0
  140.5540   72.0000  224.5330 N   0  0  0  0  0  0  0  0  0  0  0  0
  139.3690   74.1270  223.2880 H   0  0  0  0  0  0  0  0  0  0  0  0
  139.5174   73.9204  220.2948 H   0  0  0  0  0  0  0  0  0  0  0  0
  138.7983   75.3084  221.3289 H   0  0  0  0  0  0  0  0  0  0  0  0
  140.8502   76.9303  218.0595 H   0  0  0  0  0  0  0  0  0  0  0  0
  141.1516   77.7895  219.6041 H   0  0  0  0  0  0  0  0  0  0  0  0
  142.9987   78.1788  217.9422 H   0  0  0  0  0  0  0  0  0  0  0  0
  143.5915   77.3252  219.4046 H   0  0  0  0  0  0  0  0  0  0  0  0
  143.5725   76.4827  216.6390 H   0  0  0  0  0  0  0  0  0  0  0  0
  144.3541   75.7310  218.1024 H   0  0  0  0  0  0  0  0  0  0  0  0
  141.5277   75.2788  217.0910 H   0  0  0  0  0  0  0  0  0  0  0  0
  142.8810   74.1112  217.0861 H   0  0  0  0  0  0  0  0  0  0  0  0
  141.4173   73.7226  219.0451 H   0  0  0  0  0  0  0  0  0  0  0  0
  142.5416   72.0567  219.8698 H   0  0  0  0  0  0  0  0  0  0  0  0
  144.4722   71.1839  221.1200 H   0  0  0  0  0  0  0  0  0  0  0  0
  146.3745   72.7160  221.7618 H   0  0  0  0  0  0  0  0  0  0  0  0
  146.1857   75.1074  221.0803 H   0  0  0  0  0  0  0  0  0  0  0  0
  139.2760   69.9128  222.2948 H   0  0  0  0  0  0  0  0  0  0  0  0
  139.2777   68.3679  224.2295 H   0  0  0  0  0  0  0  0  0  0  0  0
  140.6706   68.9185  228.7985 H   0  0  0  0  0  0  0  0  0  0  0  0
  141.4649   71.2701  228.8630 H   0  0  0  0  0  0  0  0  0  0  0  0
  141.4121   72.7114  226.8892 H   0  0  0  0  0  0  0  0  0  0  0  0
  1  2  2  0
  2  3  1  0
  3  4  1  0
  4  5  1  0
  5  6  2  0
  5  7  1  0
  7  8  1  0
  8  9  1  0
  9 10  1  0
 10 11  1  0
 11 12  1  0
 12 13  1  0
 13 14  2  0
 14 15  1  0
 15 16  2  0
 16 17  1  0
 17 18  2  0
  2 19  1  0
 19 20  2  0
 20 21  1  0
 21 22  2  0
 22 23  1  0
 23 24  1  0
 23 25  2  0
 25 26  1  0
 26 27  2  0
 27 28  1  0
 28 29  2  0
 12  7  1  0
 18 13  1  0
 29 19  1  0
 28 22  1  0
  3 30  1  0
  4 31  1  0
  4 32  1  0
  8 33  1  0
  8 34  1  0
  9 35  1  0
  9 36  1  0
 10 37  1  0
 10 38  1  0
 11 39  1  0
 11 40  1  0
 12 41  1  6
 14 42  1  0
 15 43  1  0
 16 44  1  0
 17 45  1  0
 20 46  1  0
 21 47  1  0
 25 48  1  0
 26 49  1  0
 27 50  1  0
M  END
>  <smiles>  (63) 
O=C(NCC(=O)N1CCCCC1c1ccccn1)c1ccc2c(Cl)cccc2n1

>  <score_type>  (63) 
oracle

>  <origin>  (63) 
autodockgpu

>  <m_score__min__energy>  (63) 
-8.9100000000000001

>  <m_primary>  (63) 
energy

>  <rmsd>  (63) 
4.233242386046705

>  <m_score__min__rmsd>  (63) 
4.233242386046705

>  <meeko>  (63) 
{"free_energy": -8.49, "intermolecular_energy": -9.98, "internal_energy": -1.89, "cluster_size": 8, "cluster_id": 2, "rank_in_cluster": 7}

>  <energy>  (63) 
-8.63

>  <cluster_rmsd>  (63) 
0.37

>  <cluster>  (63) 
2

$$$$

     RDKit          3D

 50 53  0  0  0  0  0  0  0  0999 V2000
  139.1410   74.1240  221.5300 O   0  0  0  0  0  0  0  0  0  0  0  0
  140.3030   74.6040  221.5640 C   0  0  0  0  0  0  0  0  0  0  0  0
  140.5500   75.9490  222.0490 N   0  0  0  0  0  0  0  0  0  0  0  0
  139.4100   76.6880  222.4820 C   0  0  0  0  0  0  0  0  0  0  0  0
  139.3810   78.1370  222.2990 C   0  0  0  0  0  0  0  0  0  0  0  0
  138.2240   78.5930  221.9060 O   0  0  0  0  0  0  0  0  0  0  0  0
  140.3890   79.1010  222.4730 N   0  0  0  0  0  0  0  0  0  0  0  0
  141.0130   79.4740  223.7150 C   0  0  0  0  0  0  0  0  0  0  0  0
  142.5370   79.5480  223.5100 C   0  0  0  0  0  0  0  0  0  0  0  0
  142.8380   80.5310  222.4290 C   0  0  0  0  0  0  0  0  0  0  0  0
  141.6000   81.0240  221.7280 C   0  0  0  0  0  0  0  0  0  0  0  0
  140.8080   79.8300  221.2760 C   0  0  1  0  0  0  0  0  0  0  0  0
  141.5410   79.0110  220.2970 C   0  0  0  0  0  0  0  0  0  0  0  0
  141.8470   79.5410  219.0310 C   0  0  0  0  0  0  0  0  0  0  0  0
  142.5260   78.8010  218.0870 C   0  0  0  0  0  0  0  0  0  0  0  0
  142.9360   77.4910  218.3620 C   0  0  0  0  0  0  0  0  0  0  0  0
  142.6160   77.0130  219.6100 C   0  0  0  0  0  0  0  0  0  0  0  0
  141.9600   77.7520  220.4960 N   0  0  0  0  0  0  0  0  0  0  0  0
  141.4430   73.8140  221.1120 C   0  0  0  0  0  0  0  0  0  0  0  0
  141.2740   72.5170  220.7370 C   0  0  0  0  0  0  0  0  0  0  0  0
  142.3050   71.7020  220.2970 C   0  0  0  0  0  0  0  0  0  0  0  0
  143.5790   72.2590  220.2420 C   0  0  0  0  0  0  0  0  0  0  0  0
  144.6720   71.5210  219.8150 C   0  0  0  0  0  0  0  0  0  0  0  0
  144.4700   69.8520  219.3290 Cl  0  0  0  0  0  0  0  0  0  0  0  0
  145.9490   72.0810  219.7590 C   0  0  0  0  0  0  0  0  0  0  0  0
  146.0620   73.4010  220.1510 C   0  0  0  0  0  0  0  0  0  0  0  0
  145.0000   74.1480  220.5770 C   0  0  0  0  0  0  0  0  0  0  0  0
  143.7430   73.5800  220.6250 C   0  0  0  0  0  0  0  0  0  0  0  0
  142.6920   74.3310  221.0490 N   0  0  0  0  0  0  0  0  0  0  0  0
  141.5400   76.3060  222.0570 H   0  0  0  0  0  0  0  0  0  0  0  0
  138.5411   76.2801  221.9448 H   0  0  0  0  0  0  0  0  0  0  0  0
  139.4222   76.5655  223.5751 H   0  0  0  0  0  0  0  0  0  0  0  0
  140.6363   80.4563  224.0362 H   0  0  0  0  0  0  0  0  0  0  0  0
  140.7785   78.7264  224.4871 H   0  0  0  0  0  0  0  0  0  0  0  0
  143.0190   79.8698  224.4449 H   0  0  0  0  0  0  0  0  0  0  0  0
  142.9209   78.5569  223.2265 H   0  0  0  0  0  0  0  0  0  0  0  0
  143.3577   81.3931  222.8725 H   0  0  0  0  0  0  0  0  0  0  0  0
  143.4613   80.0199  221.6805 H   0  0  0  0  0  0  0  0  0  0  0  0
  140.9970   81.6303  222.4200 H   0  0  0  0  0  0  0  0  0  0  0  0
  141.8757   81.6458  220.8635 H   0  0  0  0  0  0  0  0  0  0  0  0
  139.9103   80.1460  220.7243 H   0  0  0  0  0  0  0  0  0  0  0  0
  141.5378   80.5685  218.7888 H   0  0  0  0  0  0  0  0  0  0  0  0
  142.7484   79.2452  217.1056 H   0  0  0  0  0  0  0  0  0  0  0  0
  143.4804   76.8823  217.6250 H   0  0  0  0  0  0  0  0  0  0  0  0
  142.9118   75.9891  219.8823 H   0  0  0  0  0  0  0  0  0  0  0  0
  140.2611   72.0909  220.7859 H   0  0  0  0  0  0  0  0  0  0  0  0
  142.1236   70.6576  220.0033 H   0  0  0  0  0  0  0  0  0  0  0  0
  146.8205   71.5015  219.4203 H   0  0  0  0  0  0  0  0  0  0  0  0
  147.0548   73.8735  220.1186 H   0  0  0  0  0  0  0  0  0  0  0  0
  145.1460   75.1954  220.8797 H   0  0  0  0  0  0  0  0  0  0  0  0
  1  2  2  0
  2  3  1  0
  3  4  1  0
  4  5  1  0
  5  6  2  0
  5  7  1  0
  7  8  1  0
  8  9  1  0
  9 10  1  0
 10 11  1  0
 11 12  1  0
 12 13  1  0
 13 14  2  0
 14 15  1  0
 15 16  2  0
 16 17  1  0
 17 18  2  0
  2 19  1  0
 19 20  2  0
 20 21  1  0
 21 22  2  0
 22 23  1  0
 23 24  1  0
 23 25  2  0
 25 26  1  0
 26 27  2  0
 27 28  1  0
 28 29  2  0
 12  7  1  0
 18 13  1  0
 29 19  1  0
 28 22  1  0
  3 30  1  0
  4 31  1  0
  4 32  1  0
  8 33  1  0
  8 34  1  0
  9 35  1  0
  9 36  1  0
 10 37  1  0
 10 38  1  0
 11 39  1  0
 11 40  1  0
 12 41  1  6
 14 42  1  0
 15 43  1  0
 16 44  1  0
 17 45  1  0
 20 46  1  0
 21 47  1  0
 25 48  1  0
 26 49  1  0
 27 50  1  0
M  END
>  <smiles>  (64) 
O=C(NCC(=O)N1CCCCC1c1ccccn1)c1ccc2c(Cl)cccc2n1

>  <score_type>  (64) 
oracle

>  <origin>  (64) 
autodockgpu

>  <m_score__min__energy>  (64) 
-8.9100000000000001

>  <m_primary>  (64) 
energy

>  <rmsd>  (64) 
5.90680193144638

>  <m_score__min__rmsd>  (64) 
5.90680193144638

>  <meeko>  (64) 
{"free_energy": -7.27, "intermolecular_energy": -8.77, "internal_energy": -2.91, "cluster_size": 22, "cluster_id": 5, "rank_in_cluster": 12}

>  <energy>  (64) 
-8.63

>  <cluster_rmsd>  (64) 
0.34

>  <cluster>  (64) 
2

$$$$

     RDKit          3D

 50 53  0  0  0  0  0  0  0  0999 V2000
  139.2070   74.1060  221.7710 O   0  0  0  0  0  0  0  0  0  0  0  0
  140.3590   74.6090  221.7130 C   0  0  0  0  0  0  0  0  0  0  0  0
  140.6060   75.9770  222.1300 N   0  0  0  0  0  0  0  0  0  0  0  0
  139.4790   76.7100  222.6050 C   0  0  0  0  0  0  0  0  0  0  0  0
  139.4070   78.1490  222.3660 C   0  0  0  0  0  0  0  0  0  0  0  0
  138.2430   78.5500  221.9350 O   0  0  0  0  0  0  0  0  0  0  0  0
  140.3790   79.1530  222.5230 N   0  0  0  0  0  0  0  0  0  0  0  0
  140.9940   79.5640  223.7580 C   0  0  0  0  0  0  0  0  0  0  0  0
  142.5130   79.6930  223.5430 C   0  0  0  0  0  0  0  0  0  0  0  0
  142.7720   80.6720  222.4480 C   0  0  0  0  0  0  0  0  0  0  0  0
  141.5120   81.1100  221.7470 C   0  0  0  0  0  0  0  0  0  0  0  0
  140.7640   79.8820  221.3150 C   0  0  1  0  0  0  0  0  0  0  0  0
  141.5220   79.0780  220.3420 C   0  0  0  0  0  0  0  0  0  0  0  0
  141.8620   79.6290  219.0940 C   0  0  0  0  0  0  0  0  0  0  0  0
  142.5660   78.9040  218.1560 C   0  0  0  0  0  0  0  0  0  0  0  0
  142.9670   77.5900  218.4200 C   0  0  0  0  0  0  0  0  0  0  0  0
  142.6130   77.0900  219.6510 C   0  0  0  0  0  0  0  0  0  0  0  0
  141.9340   77.8150  220.5310 N   0  0  0  0  0  0  0  0  0  0  0  0
  141.4850   73.8240  221.2210 C   0  0  0  0  0  0  0  0  0  0  0  0
  141.3110   72.5240  220.8580 C   0  0  0  0  0  0  0  0  0  0  0  0
  142.3290   71.7140  220.3830 C   0  0  0  0  0  0  0  0  0  0  0  0
  143.5960   72.2780  220.2760 C   0  0  0  0  0  0  0  0  0  0  0  0
  144.6770   71.5450  219.8100 C   0  0  0  0  0  0  0  0  0  0  0  0
  144.4670   69.8720  219.3400 Cl  0  0  0  0  0  0  0  0  0  0  0  0
  145.9480   72.1120  219.7040 C   0  0  0  0  0  0  0  0  0  0  0  0
  146.0670   73.4340  220.0860 C   0  0  0  0  0  0  0  0  0  0  0  0
  145.0170   74.1770  220.5490 C   0  0  0  0  0  0  0  0  0  0  0  0
  143.7670   73.6010  220.6470 C   0  0  0  0  0  0  0  0  0  0  0  0
  142.7280   74.3480  221.1080 N   0  0  0  0  0  0  0  0  0  0  0  0
  141.5870   76.3520  222.0620 H   0  0  0  0  0  0  0  0  0  0  0  0
  138.5874   76.2631  222.1409 H   0  0  0  0  0  0  0  0  0  0  0  0
  139.5617   76.6326  223.6992 H   0  0  0  0  0  0  0  0  0  0  0  0
  140.5819   80.5350  224.0699 H   0  0  0  0  0  0  0  0  0  0  0  0
  140.7915   78.8177  224.5403 H   0  0  0  0  0  0  0  0  0  0  0  0
  142.9873   80.0450  224.4710 H   0  0  0  0  0  0  0  0  0  0  0  0
  142.9320   78.7134  223.2696 H   0  0  0  0  0  0  0  0  0  0  0  0
  143.2617   81.5584  222.8775 H   0  0  0  0  0  0  0  0  0  0  0  0
  143.4101   80.1746  221.7028 H   0  0  0  0  0  0  0  0  0  0  0  0
  140.8901   81.7021  222.4345 H   0  0  0  0  0  0  0  0  0  0  0  0
  141.7596   81.7309  220.8734 H   0  0  0  0  0  0  0  0  0  0  0  0
  139.8524   80.1575  220.7644 H   0  0  0  0  0  0  0  0  0  0  0  0
  141.5599   80.6607  218.8609 H   0  0  0  0  0  0  0  0  0  0  0  0
  142.8153   79.3643  217.1885 H   0  0  0  0  0  0  0  0  0  0  0  0
  143.5309   76.9934  217.6878 H   0  0  0  0  0  0  0  0  0  0  0  0
  142.9004   76.0612  219.9135 H   0  0  0  0  0  0  0  0  0  0  0  0
  140.3035   72.0916  220.9470 H   0  0  0  0  0  0  0  0  0  0  0  0
  142.1431   70.6669  220.1017 H   0  0  0  0  0  0  0  0  0  0  0  0
  146.8098   71.5362  219.3355 H   0  0  0  0  0  0  0  0  0  0  0  0
  147.0549   73.9124  220.0142 H   0  0  0  0  0  0  0  0  0  0  0  0
  145.1676   75.2267  220.8414 H   0  0  0  0  0  0  0  0  0  0  0  0
  1  2  2  0
  2  3  1  0
  3  4  1  0
  4  5  1  0
  5  6  2  0
  5  7  1  0
  7  8  1  0
  8  9  1  0
  9 10  1  0
 10 11  1  0
 11 12  1  0
 12 13  1  0
 13 14  2  0
 14 15  1  0
 15 16  2  0
 16 17  1  0
 17 18  2  0
  2 19  1  0
 19 20  2  0
 20 21  1  0
 21 22  2  0
 22 23  1  0
 23 24  1  0
 23 25  2  0
 25 26  1  0
 26 27  2  0
 27 28  1  0
 28 29  2  0
 12  7  1  0
 18 13  1  0
 29 19  1  0
 28 22  1  0
  3 30  1  0
  4 31  1  0
  4 32  1  0
  8 33  1  0
  8 34  1  0
  9 35  1  0
  9 36  1  0
 10 37  1  0
 10 38  1  0
 11 39  1  0
 11 40  1  0
 12 41  1  6
 14 42  1  0
 15 43  1  0
 16 44  1  0
 17 45  1  0
 20 46  1  0
 21 47  1  0
 25 48  1  0
 26 49  1  0
 27 50  1  0
M  END
>  <smiles>  (65) 
O=C(NCC(=O)N1CCCCC1c1ccccn1)c1ccc2c(Cl)cccc2n1

>  <score_type>  (65) 
oracle

>  <origin>  (65) 
autodockgpu

>  <m_score__min__energy>  (65) 
-8.9100000000000001

>  <m_primary>  (65) 
energy

>  <rmsd>  (65) 
5.93576355337969

>  <m_score__min__rmsd>  (65) 
5.93576355337969

>  <meeko>  (65) 
{"free_energy": -7.25, "intermolecular_energy": -8.75, "internal_energy": -2.89, "cluster_size": 22, "cluster_id": 5, "rank_in_cluster": 14}

>  <energy>  (65) 
-8.49

>  <cluster_rmsd>  (65) 
0.44

>  <cluster>  (65) 
2

$$$$

     RDKit          3D

 50 53  0  0  0  0  0  0  0  0999 V2000
  139.8700   73.9940  222.3460 O   0  0  0  0  0  0  0  0  0  0  0  0
  140.2790   74.9450  221.6320 C   0  0  0  0  0  0  0  0  0  0  0  0
  140.8540   74.7120  220.3200 N   0  0  0  0  0  0  0  0  0  0  0  0
  140.9260   73.3530  219.8910 C   0  0  0  0  0  0  0  0  0  0  0  0
  141.9940   72.4960  220.3980 C   0  0  0  0  0  0  0  0  0  0  0  0
  141.5630   71.4120  220.9820 O   0  0  0  0  0  0  0  0  0  0  0  0
  143.3900   72.6550  220.3600 N   0  0  0  0  0  0  0  0  0  0  0  0
  144.3630   71.6260  220.1010 C   0  0  0  0  0  0  0  0  0  0  0  0
  145.4000   72.1580  219.0960 C   0  0  0  0  0  0  0  0  0  0  0  0
  146.0370   73.3860  219.6530 C   0  0  0  0  0  0  0  0  0  0  0  0
  145.3770   73.8620  220.9210 C   0  0  0  0  0  0  0  0  0  0  0  0
  143.9030   73.9910  220.6630 C   0  0  1  0  0  0  0  0  0  0  0  0
  143.6010   74.9990  219.6350 C   0  0  0  0  0  0  0  0  0  0  0  0
  143.7020   74.6630  218.2740 C   0  0  0  0  0  0  0  0  0  0  0  0
  143.4330   75.5840  217.2830 C   0  0  0  0  0  0  0  0  0  0  0  0
  143.0490   76.8900  217.6040 C   0  0  0  0  0  0  0  0  0  0  0  0
  142.9630   77.1770  218.9460 C   0  0  0  0  0  0  0  0  0  0  0  0
  143.2290   76.2670  219.8750 N   0  0  0  0  0  0  0  0  0  0  0  0
  140.1860   76.3210  222.1080 C   0  0  0  0  0  0  0  0  0  0  0  0
  138.9860   76.8360  222.4900 C   0  0  0  0  0  0  0  0  0  0  0  0
  138.8150   78.1310  222.9530 C   0  0  0  0  0  0  0  0  0  0  0  0
  139.9470   78.9370  223.0250 C   0  0  0  0  0  0  0  0  0  0  0  0
  139.8750   80.2450  223.4760 C   0  0  0  0  0  0  0  0  0  0  0  0
  138.3380   80.9210  223.9700 Cl  0  0  0  0  0  0  0  0  0  0  0  0
  141.0110   81.0530  223.5480 C   0  0  0  0  0  0  0  0  0  0  0  0
  142.2020   80.4780  223.1490 C   0  0  0  0  0  0  0  0  0  0  0  0
  142.2990   79.1910  222.7000 C   0  0  0  0  0  0  0  0  0  0  0  0
  141.1650   78.4060  222.6350 C   0  0  0  0  0  0  0  0  0  0  0  0
  141.2710   77.1260  222.1880 N   0  0  0  0  0  0  0  0  0  0  0  0
  141.1820   75.5400  219.7610 H   0  0  0  0  0  0  0  0  0  0  0  0
  139.9741   72.8780  220.1709 H   0  0  0  0  0  0  0  0  0  0  0  0
  141.1456   73.4320  218.8161 H   0  0  0  0  0  0  0  0  0  0  0  0
  144.8666   71.3501  221.0392 H   0  0  0  0  0  0  0  0  0  0  0  0
  143.8635   70.7387  219.6848 H   0  0  0  0  0  0  0  0  0  0  0  0
  146.1693   71.3916  218.9206 H   0  0  0  0  0  0  0  0  0  0  0  0
  144.9032   72.3983  218.1444 H   0  0  0  0  0  0  0  0  0  0  0  0
  147.0936   73.1676  219.8673 H   0  0  0  0  0  0  0  0  0  0  0  0
  145.9293   74.1841  218.9037 H   0  0  0  0  0  0  0  0  0  0  0  0
  145.5516   73.1345  221.7274 H   0  0  0  0  0  0  0  0  0  0  0  0
  145.7957   74.8324  221.2261 H   0  0  0  0  0  0  0  0  0  0  0  0
  143.3858   74.3727  221.5556 H   0  0  0  0  0  0  0  0  0  0  0  0
  144.0023   73.6428  217.9928 H   0  0  0  0  0  0  0  0  0  0  0  0
  143.5216   75.2877  216.2274 H   0  0  0  0  0  0  0  0  0  0  0  0
  142.8294   77.6410  216.8308 H   0  0  0  0  0  0  0  0  0  0  0  0
  142.6655   78.1889  219.2584 H   0  0  0  0  0  0  0  0  0  0  0  0
  138.1002   76.1868  222.4277 H   0  0  0  0  0  0  0  0  0  0  0  0
  137.8250   78.5063  223.2514 H   0  0  0  0  0  0  0  0  0  0  0  0
  140.9605   82.0927  223.9037 H   0  0  0  0  0  0  0  0  0  0  0  0
  143.1175   81.0861  223.1950 H   0  0  0  0  0  0  0  0  0  0  0  0
  143.2734   78.7834  222.3926 H   0  0  0  0  0  0  0  0  0  0  0  0
  1  2  2  0
  2  3  1  0
  3  4  1  0
  4  5  1  0
  5  6  2  0
  5  7  1  0
  7  8  1  0
  8  9  1  0
  9 10  1  0
 10 11  1  0
 11 12  1  0
 12 13  1  0
 13 14  2  0
 14 15  1  0
 15 16  2  0
 16 17  1  0
 17 18  2  0
  2 19  1  0
 19 20  2  0
 20 21  1  0
 21 22  2  0
 22 23  1  0
 23 24  1  0
 23 25  2  0
 25 26  1  0
 26 27  2  0
 27 28  1  0
 28 29  2  0
 12  7  1  0
 18 13  1  0
 29 19  1  0
 28 22  1  0
  3 30  1  0
  4 31  1  0
  4 32  1  0
  8 33  1  0
  8 34  1  0
  9 35  1  0
  9 36  1  0
 10 37  1  0
 10 38  1  0
 11 39  1  0
 11 40  1  0
 12 41  1  1
 14 42  1  0
 15 43  1  0
 16 44  1  0
 17 45  1  0
 20 46  1  0
 21 47  1  0
 25 48  1  0
 26 49  1  0
 27 50  1  0
M  END
>  <smiles>  (66) 
O=C(NCC(=O)N1CCCCC1c1ccccn1)c1ccc2c(Cl)cccc2n1

>  <score_type>  (66) 
oracle

>  <origin>  (66) 
autodockgpu

>  <m_score__min__energy>  (66) 
-8.9100000000000001

>  <m_primary>  (66) 
energy

>  <rmsd>  (66) 
7.127401383108805

>  <m_score__min__rmsd>  (66) 
7.127401383108805

>  <meeko>  (66) 
{"free_energy": -7.64, "intermolecular_energy": -9.13, "internal_energy": -2.44, "cluster_size": 10, "cluster_id": 4, "rank_in_cluster": 1}

>  <energy>  (66) 
-8.48

>  <cluster_rmsd>  (66) 
0.7

>  <cluster>  (66) 
2

$$$$

     RDKit          3D

 50 53  0  0  0  0  0  0  0  0999 V2000
  140.5940   71.6800  221.1950 O   0  0  0  0  0  0  0  0  0  0  0  0
  140.2520   72.2580  222.2580 C   0  0  0  0  0  0  0  0  0  0  0  0
  139.8150   73.6420  222.2580 N   0  0  0  0  0  0  0  0  0  0  0  0
  139.7950   74.3020  220.9930 C   0  0  0  0  0  0  0  0  0  0  0  0
  140.7280   75.3980  220.7410 C   0  0  0  0  0  0  0  0  0  0  0  0
  140.9630   76.1360  221.7890 O   0  0  0  0  0  0  0  0  0  0  0  0
  141.3970   75.7770  219.5640 N   0  0  0  0  0  0  0  0  0  0  0  0
  141.4830   77.1050  219.0170 C   0  0  0  0  0  0  0  0  0  0  0  0
  142.9380   77.3830  218.5990 C   0  0  0  0  0  0  0  0  0  0  0  0
  143.3690   76.3540  217.6090 C   0  0  0  0  0  0  0  0  0  0  0  0
  142.3580   75.2500  217.4390 C   0  0  0  0  0  0  0  0  0  0  0  0
  142.0270   74.7020  218.7980 C   0  0  1  0  0  0  0  0  0  0  0  0
  143.1960   74.0970  219.4560 C   0  0  0  0  0  0  0  0  0  0  0  0
  144.0810   74.9040  220.1910 C   0  0  0  0  0  0  0  0  0  0  0  0
  145.1890   74.3730  220.8160 C   0  0  0  0  0  0  0  0  0  0  0  0
  145.4690   73.0050  220.7380 C   0  0  0  0  0  0  0  0  0  0  0  0
  144.5780   72.2520  220.0100 C   0  0  0  0  0  0  0  0  0  0  0  0
  143.5210   72.7950  219.4200 N   0  0  0  0  0  0  0  0  0  0  0  0
  140.2850   71.5460  223.5310 C   0  0  0  0  0  0  0  0  0  0  0  0
  139.9300   70.2340  223.5940 C   0  0  0  0  0  0  0  0  0  0  0  0
  139.9360   69.4900  224.7620 C   0  0  0  0  0  0  0  0  0  0  0  0
  140.3290   70.1380  225.9300 C   0  0  0  0  0  0  0  0  0  0  0  0
  140.3660   69.4750  227.1470 C   0  0  0  0  0  0  0  0  0  0  0  0
  139.9130   67.7880  227.2430 Cl  0  0  0  0  0  0  0  0  0  0  0  0
  140.7610   70.1260  228.3160 C   0  0  0  0  0  0  0  0  0  0  0  0
  141.1100   71.4570  228.1940 C   0  0  0  0  0  0  0  0  0  0  0  0
  141.0810   72.1320  227.0060 C   0  0  0  0  0  0  0  0  0  0  0  0
  140.6880   71.4730  225.8580 C   0  0  0  0  0  0  0  0  0  0  0  0
  140.6630   72.1530  224.6810 N   0  0  0  0  0  0  0  0  0  0  0  0
  139.5390   74.0810  223.1720 H   0  0  0  0  0  0  0  0  0  0  0  0
  139.9876   73.5350  220.2283 H   0  0  0  0  0  0  0  0  0  0  0  0
  138.8094   74.7899  220.9705 H   0  0  0  0  0  0  0  0  0  0  0  0
  140.8255   77.1852  218.1388 H   0  0  0  0  0  0  0  0  0  0  0  0
  141.1675   77.8389  219.7732 H   0  0  0  0  0  0  0  0  0  0  0  0
  143.0056   78.3823  218.1441 H   0  0  0  0  0  0  0  0  0  0  0  0
  143.5909   77.3414  219.4833 H   0  0  0  0  0  0  0  0  0  0  0  0
  143.5216   76.8441  216.6361 H   0  0  0  0  0  0  0  0  0  0  0  0
  144.2969   75.8991  217.9858 H   0  0  0  0  0  0  0  0  0  0  0  0
  141.4480   75.6482  216.9665 H   0  0  0  0  0  0  0  0  0  0  0  0
  142.7681   74.4551  216.7988 H   0  0  0  0  0  0  0  0  0  0  0  0
  141.3174   73.8653  218.7176 H   0  0  0  0  0  0  0  0  0  0  0  0
  143.8852   75.9836  220.2694 H   0  0  0  0  0  0  0  0  0  0  0  0
  145.8613   75.0335  221.3832 H   0  0  0  0  0  0  0  0  0  0  0  0
  146.3470   72.5593  221.2283 H   0  0  0  0  0  0  0  0  0  0  0  0
  144.7463   71.1692  219.9141 H   0  0  0  0  0  0  0  0  0  0  0  0
  139.6204   69.7356  222.6636 H   0  0  0  0  0  0  0  0  0  0  0  0
  139.6422   68.4300  224.7668 H   0  0  0  0  0  0  0  0  0  0  0  0
  140.7929   69.6062  229.2849 H   0  0  0  0  0  0  0  0  0  0  0  0
  141.4266   71.9999  229.0968 H   0  0  0  0  0  0  0  0  0  0  0  0
  141.3687   73.1929  226.9646 H   0  0  0  0  0  0  0  0  0  0  0  0
  1  2  2  0
  2  3  1  0
  3  4  1  0
  4  5  1  0
  5  6  2  0
  5  7  1  0
  7  8  1  0
  8  9  1  0
  9 10  1  0
 10 11  1  0
 11 12  1  0
 12 13  1  0
 13 14  2  0
 14 15  1  0
 15 16  2  0
 16 17  1  0
 17 18  2  0
  2 19  1  0
 19 20  2  0
 20 21  1  0
 21 22  2  0
 22 23  1  0
 23 24  1  0
 23 25  2  0
 25 26  1  0
 26 27  2  0
 27 28  1  0
 28 29  2  0
 12  7  1  0
 18 13  1  0
 29 19  1  0
 28 22  1  0
  3 30  1  0
  4 31  1  0
  4 32  1  0
  8 33  1  0
  8 34  1  0
  9 35  1  0
  9 36  1  0
 10 37  1  0
 10 38  1  0
 11 39  1  0
 11 40  1  0
 12 41  1  6
 14 42  1  0
 15 43  1  0
 16 44  1  0
 17 45  1  0
 20 46  1  0
 21 47  1  0
 25 48  1  0
 26 49  1  0
 27 50  1  0
M  END
>  <smiles>  (67) 
O=C(NCC(=O)N1CCCCC1c1ccccn1)c1ccc2c(Cl)cccc2n1

>  <score_type>  (67) 
oracle

>  <origin>  (67) 
autodockgpu

>  <m_score__min__energy>  (67) 
-8.9100000000000001

>  <m_primary>  (67) 
energy

>  <rmsd>  (67) 
4.017444891610988

>  <m_score__min__rmsd>  (67) 
4.017444891610988

>  <meeko>  (67) 
{"free_energy": -8.48, "intermolecular_energy": -9.97, "internal_energy": -1.72, "cluster_size": 8, "cluster_id": 2, "rank_in_cluster": 8}

>  <energy>  (67) 
-7.93

>  <cluster_rmsd>  (67) 
0.0

>  <cluster>  (67) 
3

$$$$

     RDKit          3D

 50 53  0  0  0  0  0  0  0  0999 V2000
  139.4320   74.8980  222.4600 O   0  0  0  0  0  0  0  0  0  0  0  0
  140.1500   75.1840  221.4680 C   0  0  0  0  0  0  0  0  0  0  0  0
  139.9000   76.3720  220.6730 N   0  0  0  0  0  0  0  0  0  0  0  0
  138.8030   77.1890  221.0790 C   0  0  0  0  0  0  0  0  0  0  0  0
  139.0580   78.5380  221.5750 C   0  0  0  0  0  0  0  0  0  0  0  0
  138.0230   79.3280  221.5010 O   0  0  0  0  0  0  0  0  0  0  0  0
  140.2260   79.1110  222.1090 N   0  0  0  0  0  0  0  0  0  0  0  0
  140.6790   79.0200  223.4720 C   0  0  0  0  0  0  0  0  0  0  0  0
  142.1830   78.6910  223.4800 C   0  0  0  0  0  0  0  0  0  0  0  0
  142.9190   79.7470  222.7270 C   0  0  0  0  0  0  0  0  0  0  0  0
  142.0000   80.7120  222.0260 C   0  0  0  0  0  0  0  0  0  0  0  0
  141.0310   79.9200  221.1950 C   0  0  1  0  0  0  0  0  0  0  0  0
  141.7040   79.1460  220.1390 C   0  0  0  0  0  0  0  0  0  0  0  0
  141.9100   79.7220  218.8730 C   0  0  0  0  0  0  0  0  0  0  0  0
  142.5300   79.0250  217.8580 C   0  0  0  0  0  0  0  0  0  0  0  0
  142.9780   77.7150  218.0580 C   0  0  0  0  0  0  0  0  0  0  0  0
  142.7570   77.1910  219.3090 C   0  0  0  0  0  0  0  0  0  0  0  0
  142.1560   77.8890  220.2650 N   0  0  0  0  0  0  0  0  0  0  0  0
  141.2640   74.3220  221.0880 C   0  0  0  0  0  0  0  0  0  0  0  0
  141.0570   73.0000  220.8460 C   0  0  0  0  0  0  0  0  0  0  0  0
  142.0610   72.1180  220.4810 C   0  0  0  0  0  0  0  0  0  0  0  0
  143.3490   72.6310  220.3600 C   0  0  0  0  0  0  0  0  0  0  0  0
  144.4180   71.8250  219.9990 C   0  0  0  0  0  0  0  0  0  0  0  0
  144.1670   70.1220  219.6840 Cl  0  0  0  0  0  0  0  0  0  0  0  0
  145.7090   72.3420  219.8780 C   0  0  0  0  0  0  0  0  0  0  0  0
  145.8600   73.6910  220.1360 C   0  0  0  0  0  0  0  0  0  0  0  0
  144.8220   74.5050  220.4940 C   0  0  0  0  0  0  0  0  0  0  0  0
  143.5520   73.9780  220.6090 C   0  0  0  0  0  0  0  0  0  0  0  0
  142.5260   74.7970  220.9640 N   0  0  0  0  0  0  0  0  0  0  0  0
  140.5280   76.5680  219.8530 H   0  0  0  0  0  0  0  0  0  0  0  0
  138.1382   77.2883  220.2082 H   0  0  0  0  0  0  0  0  0  0  0  0
  138.3989   76.6626  221.9563 H   0  0  0  0  0  0  0  0  0  0  0  0
  140.5088   79.9797  223.9820 H   0  0  0  0  0  0  0  0  0  0  0  0
  140.1229   78.2288  223.9962 H   0  0  0  0  0  0  0  0  0  0  0  0
  142.5469   78.6574  224.5175 H   0  0  0  0  0  0  0  0  0  0  0  0
  142.3503   77.7131  223.0048 H   0  0  0  0  0  0  0  0  0  0  0  0
  143.5466   80.3098  223.4337 H   0  0  0  0  0  0  0  0  0  0  0  0
  143.5219   79.2447  221.9562 H   0  0  0  0  0  0  0  0  0  0  0  0
  141.4514   81.3097  222.7688 H   0  0  0  0  0  0  0  0  0  0  0  0
  142.5810   81.3924  221.3860 H   0  0  0  0  0  0  0  0  0  0  0  0
  140.3614   80.5898  220.6355 H   0  0  0  0  0  0  0  0  0  0  0  0
  141.5690   80.7514  218.6884 H   0  0  0  0  0  0  0  0  0  0  0  0
  142.6742   79.5049  216.8788 H   0  0  0  0  0  0  0  0  0  0  0  0
  143.4761   77.1401  217.2634 H   0  0  0  0  0  0  0  0  0  0  0  0
  143.0874   76.1641  219.5243 H   0  0  0  0  0  0  0  0  0  0  0  0
  140.0339   72.6086  220.9457 H   0  0  0  0  0  0  0  0  0  0  0  0
  141.8487   71.0549  220.2943 H   0  0  0  0  0  0  0  0  0  0  0  0
  146.5616   71.7085  219.5922 H   0  0  0  0  0  0  0  0  0  0  0  0
  146.8643   74.1312  220.0491 H   0  0  0  0  0  0  0  0  0  0  0  0
  144.9979   75.5732  220.6892 H   0  0  0  0  0  0  0  0  0  0  0  0
  1  2  2  0
  2  3  1  0
  3  4  1  0
  4  5  1  0
  5  6  2  0
  5  7  1  0
  7  8  1  0
  8  9  1  0
  9 10  1  0
 10 11  1  0
 11 12  1  0
 12 13  1  0
 13 14  2  0
 14 15  1  0
 15 16  2  0
 16 17  1  0
 17 18  2  0
  2 19  1  0
 19 20  2  0
 20 21  1  0
 21 22  2  0
 22 23  1  0
 23 24  1  0
 23 25  2  0
 25 26  1  0
 26 27  2  0
 27 28  1  0
 28 29  2  0
 12  7  1  0
 18 13  1  0
 29 19  1  0
 28 22  1  0
  3 30  1  0
  4 31  1  0
  4 32  1  0
  8 33  1  0
  8 34  1  0
  9 35  1  0
  9 36  1  0
 10 37  1  0
 10 38  1  0
 11 39  1  0
 11 40  1  0
 12 41  1  6
 14 42  1  0
 15 43  1  0
 16 44  1  0
 17 45  1  0
 20 46  1  0
 21 47  1  0
 25 48  1  0
 26 49  1  0
 27 50  1  0
M  END
>  <smiles>  (68) 
O=C(NCC(=O)N1CCCCC1c1ccccn1)c1ccc2c(Cl)cccc2n1

>  <score_type>  (68) 
oracle

>  <origin>  (68) 
autodockgpu

>  <m_score__min__energy>  (68) 
-8.9100000000000001

>  <m_primary>  (68) 
energy

>  <rmsd>  (68) 
5.904410799739033

>  <m_score__min__rmsd>  (68) 
5.904410799739033

>  <meeko>  (68) 
{"free_energy": -6.9, "intermolecular_energy": -8.39, "internal_energy": -2.9, "cluster_size": 22, "cluster_id": 5, "rank_in_cluster": 21}

>  <energy>  (68) 
-7.64

>  <cluster_rmsd>  (68) 
0.0

>  <cluster>  (68) 
4

$$$$

     RDKit          3D

 50 53  0  0  0  0  0  0  0  0999 V2000
  138.9640   74.8750  222.1710 O   0  0  0  0  0  0  0  0  0  0  0  0
  140.0710   75.4610  222.0500 C   0  0  0  0  0  0  0  0  0  0  0  0
  141.2850   74.7250  221.7510 N   0  0  0  0  0  0  0  0  0  0  0  0
  141.1520   73.3130  221.6020 C   0  0  0  0  0  0  0  0  0  0  0  0
  142.0380   72.6020  220.6830 C   0  0  0  0  0  0  0  0  0  0  0  0
  141.4230   71.7290  219.9330 O   0  0  0  0  0  0  0  0  0  0  0  0
  143.4260   72.7060  220.4850 N   0  0  0  0  0  0  0  0  0  0  0  0
  144.3180   71.6450  220.0970 C   0  0  0  0  0  0  0  0  0  0  0  0
  145.2540   72.1580  218.9880 C   0  0  0  0  0  0  0  0  0  0  0  0
  146.0020   73.3470  219.4880 C   0  0  0  0  0  0  0  0  0  0  0  0
  145.5120   73.8200  220.8320 C   0  0  0  0  0  0  0  0  0  0  0  0
  144.0250   74.0140  220.7500 C   0  0  1  0  0  0  0  0  0  0  0  0
  143.6490   75.0560  219.7810 C   0  0  0  0  0  0  0  0  0  0  0  0
  143.6770   74.7740  218.4040 C   0  0  0  0  0  0  0  0  0  0  0  0
  143.3380   75.7270  217.4670 C   0  0  0  0  0  0  0  0  0  0  0  0
  142.9520   77.0130  217.8610 C   0  0  0  0  0  0  0  0  0  0  0  0
  142.9380   77.2460  219.2160 C   0  0  0  0  0  0  0  0  0  0  0  0
  143.2720   76.3060  220.0910 N   0  0  0  0  0  0  0  0  0  0  0  0
  140.1630   76.9080  222.2090 C   0  0  0  0  0  0  0  0  0  0  0  0
  139.0800   77.6960  221.9700 C   0  0  0  0  0  0  0  0  0  0  0  0
  139.0870   79.0750  222.0980 C   0  0  0  0  0  0  0  0  0  0  0  0
  140.2790   79.6730  222.4950 C   0  0  0  0  0  0  0  0  0  0  0  0
  140.3830   81.0460  222.6510 C   0  0  0  0  0  0  0  0  0  0  0  0
  138.9980   82.0720  222.3470 Cl  0  0  0  0  0  0  0  0  0  0  0  0
  141.5790   81.6440  223.0490 C   0  0  0  0  0  0  0  0  0  0  0  0
  142.6460   80.7970  223.2780 C   0  0  0  0  0  0  0  0  0  0  0  0
  142.5690   79.4400  223.1310 C   0  0  0  0  0  0  0  0  0  0  0  0
  141.3780   78.8650  222.7360 C   0  0  0  0  0  0  0  0  0  0  0  0
  141.3110   77.5140  222.5930 N   0  0  0  0  0  0  0  0  0  0  0  0
  142.1860   75.2600  221.6600 H   0  0  0  0  0  0  0  0  0  0  0  0
  141.3012   72.8703  222.5979 H   0  0  0  0  0  0  0  0  0  0  0  0
  140.1571   73.1926  221.1484 H   0  0  0  0  0  0  0  0  0  0  0  0
  144.9141   71.3282  220.9655 H   0  0  0  0  0  0  0  0  0  0  0  0
  143.7369   70.7878  219.7260 H   0  0  0  0  0  0  0  0  0  0  0  0
  145.9652   71.3657  218.7113 H   0  0  0  0  0  0  0  0  0  0  0  0
  144.6611   72.4391  218.1051 H   0  0  0  0  0  0  0  0  0  0  0  0
  147.0661   73.0822  219.5748 H   0  0  0  0  0  0  0  0  0  0  0  0
  145.8433   74.1651  218.7700 H   0  0  0  0  0  0  0  0  0  0  0  0
  145.7473   73.0679  221.5995 H   0  0  0  0  0  0  0  0  0  0  0  0
  146.0033   74.7661  221.1031 H   0  0  0  0  0  0  0  0  0  0  0  0
  143.6303   74.3967  221.7027 H   0  0  0  0  0  0  0  0  0  0  0  0
  143.9760   73.7706  218.0666 H   0  0  0  0  0  0  0  0  0  0  0  0
  143.3714   75.4734  216.3972 H   0  0  0  0  0  0  0  0  0  0  0  0
  142.6768   77.7894  217.1319 H   0  0  0  0  0  0  0  0  0  0  0  0
  142.6418   78.2391  219.5849 H   0  0  0  0  0  0  0  0  0  0  0  0
  138.1444   77.2096  221.6569 H   0  0  0  0  0  0  0  0  0  0  0  0
  138.1867   79.6733  221.8941 H   0  0  0  0  0  0  0  0  0  0  0  0
  141.6677   82.7333  223.1739 H   0  0  0  0  0  0  0  0  0  0  0  0
  143.6040   81.2357  223.5939 H   0  0  0  0  0  0  0  0  0  0  0  0
  143.4500   78.8108  223.3261 H   0  0  0  0  0  0  0  0  0  0  0  0
  1  2  2  0
  2  3  1  0
  3  4  1  0
  4  5  1  0
  5  6  2  0
  5  7  1  0
  7  8  1  0
  8  9  1  0
  9 10  1  0
 10 11  1  0
 11 12  1  0
 12 13  1  0
 13 14  2  0
 14 15  1  0
 15 16  2  0
 16 17  1  0
 17 18  2  0
  2 19  1  0
 19 20  2  0
 20 21  1  0
 21 22  2  0
 22 23  1  0
 23 24  1  0
 23 25  2  0
 25 26  1  0
 26 27  2  0
 27 28  1  0
 28 29  2  0
 12  7  1  0
 18 13  1  0
 29 19  1  0
 28 22  1  0
  3 30  1  0
  4 31  1  0
  4 32  1  0
  8 33  1  0
  8 34  1  0
  9 35  1  0
  9 36  1  0
 10 37  1  0
 10 38  1  0
 11 39  1  0
 11 40  1  0
 12 41  1  1
 14 42  1  0
 15 43  1  0
 16 44  1  0
 17 45  1  0
 20 46  1  0
 21 47  1  0
 25 48  1  0
 26 49  1  0
 27 50  1  0
M  END
>  <smiles>  (69) 
O=C(NCC(=O)N1CCCCC1c1ccccn1)c1ccc2c(Cl)cccc2n1

>  <score_type>  (69) 
oracle

>  <origin>  (69) 
autodockgpu

>  <m_score__min__energy>  (69) 
-8.9100000000000001

>  <m_primary>  (69) 
energy

>  <rmsd>  (69) 
7.367192955027959

>  <m_score__min__rmsd>  (69) 
7.367192955027959

>  <meeko>  (69) 
{"free_energy": -7.27, "intermolecular_energy": -8.76, "internal_energy": -2.52, "cluster_size": 10, "cluster_id": 4, "rank_in_cluster": 7}

>  <energy>  (69) 
-7.64

>  <cluster_rmsd>  (69) 
0.03

>  <cluster>  (69) 
4

$$$$

     RDKit          3D

 50 53  0  0  0  0  0  0  0  0999 V2000
  139.2170   74.0350  221.7590 O   0  0  0  0  0  0  0  0  0  0  0  0
  140.3680   74.5400  221.6910 C   0  0  0  0  0  0  0  0  0  0  0  0
  140.6150   75.9130  222.0910 N   0  0  0  0  0  0  0  0  0  0  0  0
  139.4880   76.6500  222.5620 C   0  0  0  0  0  0  0  0  0  0  0  0
  139.4300   78.0920  222.3400 C   0  0  0  0  0  0  0  0  0  0  0  0
  138.2700   78.5110  221.9150 O   0  0  0  0  0  0  0  0  0  0  0  0
  140.4130   79.0830  222.5070 N   0  0  0  0  0  0  0  0  0  0  0  0
  141.0360   79.4730  223.7450 C   0  0  0  0  0  0  0  0  0  0  0  0
  142.5560   79.5880  223.5270 C   0  0  0  0  0  0  0  0  0  0  0  0
  142.8220   80.5780  222.4440 C   0  0  0  0  0  0  0  0  0  0  0  0
  141.5650   81.0380  221.7530 C   0  0  0  0  0  0  0  0  0  0  0  0
  140.8030   79.8230  221.3070 C   0  0  1  0  0  0  0  0  0  0  0  0
  141.5500   79.0240  220.3220 C   0  0  0  0  0  0  0  0  0  0  0  0
  141.8800   79.5820  219.0750 C   0  0  0  0  0  0  0  0  0  0  0  0
  142.5740   78.8610  218.1260 C   0  0  0  0  0  0  0  0  0  0  0  0
  142.9740   77.5440  218.3770 C   0  0  0  0  0  0  0  0  0  0  0  0
  142.6310   77.0380  219.6080 C   0  0  0  0  0  0  0  0  0  0  0  0
  141.9610   77.7590  220.5000 N   0  0  0  0  0  0  0  0  0  0  0  0
  141.4940   73.7510  221.2040 C   0  0  0  0  0  0  0  0  0  0  0  0
  141.3160   72.4520  220.8390 C   0  0  0  0  0  0  0  0  0  0  0  0
  142.3330   71.6380  220.3680 C   0  0  0  0  0  0  0  0  0  0  0  0
  143.6040   72.1980  220.2680 C   0  0  0  0  0  0  0  0  0  0  0  0
  144.6840   71.4610  219.8070 C   0  0  0  0  0  0  0  0  0  0  0  0
  144.4700   69.7890  219.3340 Cl  0  0  0  0  0  0  0  0  0  0  0  0
  145.9570   72.0230  219.7080 C   0  0  0  0  0  0  0  0  0  0  0  0
  146.0790   73.3450  220.0920 C   0  0  0  0  0  0  0  0  0  0  0  0
  145.0300   74.0910  220.5500 C   0  0  0  0  0  0  0  0  0  0  0  0
  143.7770   73.5200  220.6420 C   0  0  0  0  0  0  0  0  0  0  0  0
  142.7390   74.2710  221.0980 N   0  0  0  0  0  0  0  0  0  0  0  0
  141.5940   76.2890  222.0150 H   0  0  0  0  0  0  0  0  0  0  0  0
  138.5983   76.2161  222.0822 H   0  0  0  0  0  0  0  0  0  0  0  0
  139.5577   76.5589  223.6560 H   0  0  0  0  0  0  0  0  0  0  0  0
  140.6354   80.4448  224.0693 H   0  0  0  0  0  0  0  0  0  0  0  0
  140.8276   78.7200  224.5193 H   0  0  0  0  0  0  0  0  0  0  0  0
  143.0370   79.9228  224.4579 H   0  0  0  0  0  0  0  0  0  0  0  0
  142.9636   78.6075  223.2399 H   0  0  0  0  0  0  0  0  0  0  0  0
  143.3223   81.4536  222.8832 H   0  0  0  0  0  0  0  0  0  0  0  0
  143.4526   80.0836  221.6904 H   0  0  0  0  0  0  0  0  0  0  0  0
  140.9512   81.6273  222.4501 H   0  0  0  0  0  0  0  0  0  0  0  0
  141.8163   81.6679  220.8869 H   0  0  0  0  0  0  0  0  0  0  0  0
  139.8931   80.1146  220.7620 H   0  0  0  0  0  0  0  0  0  0  0  0
  141.5783   80.6159  218.8511 H   0  0  0  0  0  0  0  0  0  0  0  0
  142.8161   79.3273  217.1596 H   0  0  0  0  0  0  0  0  0  0  0  0
  143.5285   76.9504  217.6353 H   0  0  0  0  0  0  0  0  0  0  0  0
  142.9194   76.0072  219.8616 H   0  0  0  0  0  0  0  0  0  0  0  0
  140.3062   72.0238  220.9229 H   0  0  0  0  0  0  0  0  0  0  0  0
  142.1443   70.5920  220.0845 H   0  0  0  0  0  0  0  0  0  0  0  0
  146.8185   71.4443  219.3434 H   0  0  0  0  0  0  0  0  0  0  0  0
  147.0690   73.8198  220.0256 H   0  0  0  0  0  0  0  0  0  0  0  0
  145.1832   75.1400  220.8435 H   0  0  0  0  0  0  0  0  0  0  0  0
  1  2  2  0
  2  3  1  0
  3  4  1  0
  4  5  1  0
  5  6  2  0
  5  7  1  0
  7  8  1  0
  8  9  1  0
  9 10  1  0
 10 11  1  0
 11 12  1  0
 12 13  1  0
 13 14  2  0
 14 15  1  0
 15 16  2  0
 16 17  1  0
 17 18  2  0
  2 19  1  0
 19 20  2  0
 20 21  1  0
 21 22  2  0
 22 23  1  0
 23 24  1  0
 23 25  2  0
 25 26  1  0
 26 27  2  0
 27 28  1  0
 28 29  2  0
 12  7  1  0
 18 13  1  0
 29 19  1  0
 28 22  1  0
  3 30  1  0
  4 31  1  0
  4 32  1  0
  8 33  1  0
  8 34  1  0
  9 35  1  0
  9 36  1  0
 10 37  1  0
 10 38  1  0
 11 39  1  0
 11 40  1  0
 12 41  1  6
 14 42  1  0
 15 43  1  0
 16 44  1  0
 17 45  1  0
 20 46  1  0
 21 47  1  0
 25 48  1  0
 26 49  1  0
 27 50  1  0
M  END
>  <smiles>  (70) 
O=C(NCC(=O)N1CCCCC1c1ccccn1)c1ccc2c(Cl)cccc2n1

>  <score_type>  (70) 
oracle

>  <origin>  (70) 
autodockgpu

>  <m_score__min__energy>  (70) 
-8.9100000000000001

>  <m_primary>  (70) 
energy

>  <rmsd>  (70) 
5.908377941055974

>  <m_score__min__rmsd>  (70) 
5.908377941055974

>  <meeko>  (70) 
{"free_energy": -7.26, "intermolecular_energy": -8.75, "internal_energy": -2.89, "cluster_size": 22, "cluster_id": 5, "rank_in_cluster": 13}

>  <energy>  (70) 
-7.63

>  <cluster_rmsd>  (70) 
0.04

>  <cluster>  (70) 
4

$$$$

     RDKit          3D

 50 53  0  0  0  0  0  0  0  0999 V2000
  139.1580   74.1520  221.5070 O   0  0  0  0  0  0  0  0  0  0  0  0
  140.3190   74.6330  221.5350 C   0  0  0  0  0  0  0  0  0  0  0  0
  140.5670   75.9810  222.0130 N   0  0  0  0  0  0  0  0  0  0  0  0
  139.4270   76.7200  222.4470 C   0  0  0  0  0  0  0  0  0  0  0  0
  139.4150   78.1730  222.3010 C   0  0  0  0  0  0  0  0  0  0  0  0
  138.2610   78.6530  221.9300 O   0  0  0  0  0  0  0  0  0  0  0  0
  140.4380   79.1200  222.4910 N   0  0  0  0  0  0  0  0  0  0  0  0
  141.0650   79.4650  223.7400 C   0  0  0  0  0  0  0  0  0  0  0  0
  142.5900   79.5190  223.5380 C   0  0  0  0  0  0  0  0  0  0  0  0
  142.9080   80.5130  222.4720 C   0  0  0  0  0  0  0  0  0  0  0  0
  141.6780   81.0350  221.7760 C   0  0  0  0  0  0  0  0  0  0  0  0
  140.8690   79.8590  221.3050 C   0  0  1  0  0  0  0  0  0  0  0  0
  141.5910   79.0440  220.3160 C   0  0  0  0  0  0  0  0  0  0  0  0
  141.9080   79.5870  219.0590 C   0  0  0  0  0  0  0  0  0  0  0  0
  142.5780   78.8500  218.1050 C   0  0  0  0  0  0  0  0  0  0  0  0
  142.9670   77.5310  218.3610 C   0  0  0  0  0  0  0  0  0  0  0  0
  142.6380   77.0400  219.6020 C   0  0  0  0  0  0  0  0  0  0  0  0
  141.9920   77.7760  220.4980 N   0  0  0  0  0  0  0  0  0  0  0  0
  141.4590   73.8430  221.0830 C   0  0  0  0  0  0  0  0  0  0  0  0
  141.2910   72.5430  220.7160 C   0  0  0  0  0  0  0  0  0  0  0  0
  142.3210   71.7280  220.2760 C   0  0  0  0  0  0  0  0  0  0  0  0
  143.5940   72.2870  220.2120 C   0  0  0  0  0  0  0  0  0  0  0  0
  144.6870   71.5490  219.7840 C   0  0  0  0  0  0  0  0  0  0  0  0
  144.4860   69.8760  219.3090 Cl  0  0  0  0  0  0  0  0  0  0  0  0
  145.9630   72.1100  219.7210 C   0  0  0  0  0  0  0  0  0  0  0  0
  146.0750   73.4320  220.1050 C   0  0  0  0  0  0  0  0  0  0  0  0
  145.0130   74.1800  220.5310 C   0  0  0  0  0  0  0  0  0  0  0  0
  143.7580   73.6100  220.5880 C   0  0  0  0  0  0  0  0  0  0  0  0
  142.7070   74.3620  221.0120 N   0  0  0  0  0  0  0  0  0  0  0  0
  141.5560   76.3380  222.0170 H   0  0  0  0  0  0  0  0  0  0  0  0
  138.5630   76.3347  221.8858 H   0  0  0  0  0  0  0  0  0  0  0  0
  139.4203   76.5693  223.5366 H   0  0  0  0  0  0  0  0  0  0  0  0
  140.7025   80.4479  224.0754 H   0  0  0  0  0  0  0  0  0  0  0  0
  140.8177   78.7099  224.5007 H   0  0  0  0  0  0  0  0  0  0  0  0
  143.0754   79.8197  224.4782 H   0  0  0  0  0  0  0  0  0  0  0  0
  142.9590   78.5265  223.2402 H   0  0  0  0  0  0  0  0  0  0  0  0
  143.4398   81.3606  222.9289 H   0  0  0  0  0  0  0  0  0  0  0  0
  143.5251   80.0037  221.7172 H   0  0  0  0  0  0  0  0  0  0  0  0
  141.0828   81.6399  222.4759 H   0  0  0  0  0  0  0  0  0  0  0  0
  141.9643   81.6655  220.9213 H   0  0  0  0  0  0  0  0  0  0  0  0
  139.9771   80.1955  220.7560 H   0  0  0  0  0  0  0  0  0  0  0  0
  141.6153   80.6226  218.8311 H   0  0  0  0  0  0  0  0  0  0  0  0
  142.8094   79.3051  217.1307 H   0  0  0  0  0  0  0  0  0  0  0  0
  143.5027   76.9246  217.6158 H   0  0  0  0  0  0  0  0  0  0  0  0
  142.9180   76.0080  219.8599 H   0  0  0  0  0  0  0  0  0  0  0  0
  140.2792   72.1151  220.7721 H   0  0  0  0  0  0  0  0  0  0  0  0
  142.1402   70.6816  219.9889 H   0  0  0  0  0  0  0  0  0  0  0  0
  146.8343   71.5297  219.3831 H   0  0  0  0  0  0  0  0  0  0  0  0
  147.0669   73.9060  220.0661 H   0  0  0  0  0  0  0  0  0  0  0  0
  145.1582   75.2296  220.8264 H   0  0  0  0  0  0  0  0  0  0  0  0
  1  2  2  0
  2  3  1  0
  3  4  1  0
  4  5  1  0
  5  6  2  0
  5  7  1  0
  7  8  1  0
  8  9  1  0
  9 10  1  0
 10 11  1  0
 11 12  1  0
 12 13  1  0
 13 14  2  0
 14 15  1  0
 15 16  2  0
 16 17  1  0
 17 18  2  0
  2 19  1  0
 19 20  2  0
 20 21  1  0
 21 22  2  0
 22 23  1  0
 23 24  1  0
 23 25  2  0
 25 26  1  0
 26 27  2  0
 27 28  1  0
 28 29  2  0
 12  7  1  0
 18 13  1  0
 29 19  1  0
 28 22  1  0
  3 30  1  0
  4 31  1  0
  4 32  1  0
  8 33  1  0
  8 34  1  0
  9 35  1  0
  9 36  1  0
 10 37  1  0
 10 38  1  0
 11 39  1  0
 11 40  1  0
 12 41  1  6
 14 42  1  0
 15 43  1  0
 16 44  1  0
 17 45  1  0
 20 46  1  0
 21 47  1  0
 25 48  1  0
 26 49  1  0
 27 50  1  0
M  END
>  <smiles>  (71) 
O=C(NCC(=O)N1CCCCC1c1ccccn1)c1ccc2c(Cl)cccc2n1

>  <score_type>  (71) 
oracle

>  <origin>  (71) 
autodockgpu

>  <m_score__min__energy>  (71) 
-8.9100000000000001

>  <m_primary>  (71) 
energy

>  <rmsd>  (71) 
5.936510349962761

>  <m_score__min__rmsd>  (71) 
5.936510349962761

>  <meeko>  (71) 
{"free_energy": -7.29, "intermolecular_energy": -8.79, "internal_energy": -2.91, "cluster_size": 22, "cluster_id": 5, "rank_in_cluster": 5}

>  <energy>  (71) 
-7.63

>  <cluster_rmsd>  (71) 
0.1

>  <cluster>  (71) 
4

$$$$

     RDKit          3D

 50 53  0  0  0  0  0  0  0  0999 V2000
  141.3260   72.1920  221.5830 O   0  0  0  0  0  0  0  0  0  0  0  0
  140.3930   72.3620  222.4090 C   0  0  0  0  0  0  0  0  0  0  0  0
  139.4070   73.4110  222.2280 N   0  0  0  0  0  0  0  0  0  0  0  0
  139.5550   74.2300  221.0690 C   0  0  0  0  0  0  0  0  0  0  0  0
  140.7550   75.0500  220.9190 C   0  0  0  0  0  0  0  0  0  0  0  0
  141.3070   75.3830  222.0530 O   0  0  0  0  0  0  0  0  0  0  0  0
  141.3950   75.5310  219.7640 N   0  0  0  0  0  0  0  0  0  0  0  0
  141.3250   76.8700  219.2400 C   0  0  0  0  0  0  0  0  0  0  0  0
  142.7420   77.3350  218.8590 C   0  0  0  0  0  0  0  0  0  0  0  0
  143.3170   76.3860  217.8620 C   0  0  0  0  0  0  0  0  0  0  0  0
  142.4550   75.1680  217.6520 C   0  0  0  0  0  0  0  0  0  0  0  0
  142.1690   74.5580  218.9940 C   0  0  1  0  0  0  0  0  0  0  0  0
  143.3900   74.0900  219.6680 C   0  0  0  0  0  0  0  0  0  0  0  0
  143.6480   72.7120  219.7740 C   0  0  0  0  0  0  0  0  0  0  0  0
  144.7790   72.2380  220.4040 C   0  0  0  0  0  0  0  0  0  0  0  0
  145.7120   73.1190  220.9600 C   0  0  0  0  0  0  0  0  0  0  0  0
  145.4220   74.4570  220.8340 C   0  0  0  0  0  0  0  0  0  0  0  0
  144.3230   74.8800  220.2220 N   0  0  0  0  0  0  0  0  0  0  0  0
  140.2770   71.5010  223.5810 C   0  0  0  0  0  0  0  0  0  0  0  0
  139.7500   70.2520  223.4660 C   0  0  0  0  0  0  0  0  0  0  0  0
  139.6060   69.3760  224.5300 C   0  0  0  0  0  0  0  0  0  0  0  0
  140.0300   69.8150  225.7800 C   0  0  0  0  0  0  0  0  0  0  0  0
  139.9270   69.0090  226.9030 C   0  0  0  0  0  0  0  0  0  0  0  0
  139.2510   67.4000  226.7700 Cl  0  0  0  0  0  0  0  0  0  0  0  0
  140.3530   69.4510  228.1560 C   0  0  0  0  0  0  0  0  0  0  0  0
  140.8800   70.7270  228.2140 C   0  0  0  0  0  0  0  0  0  0  0  0
  140.9910   71.5400  227.1220 C   0  0  0  0  0  0  0  0  0  0  0  0
  140.5650   71.0880  225.8890 C   0  0  0  0  0  0  0  0  0  0  0  0
  140.6810   71.9040  224.8080 N   0  0  0  0  0  0  0  0  0  0  0  0
  138.6460   73.5130  222.9460 H   0  0  0  0  0  0  0  0  0  0  0  0
  139.5126   73.5614  220.1966 H   0  0  0  0  0  0  0  0  0  0  0  0
  138.7464   74.9691  221.1685 H   0  0  0  0  0  0  0  0  0  0  0  0
  140.6804   76.8838  218.3487 H   0  0  0  0  0  0  0  0  0  0  0  0
  140.9049   77.5447  220.0005 H   0  0  0  0  0  0  0  0  0  0  0  0
  142.6935   78.3433  218.4220 H   0  0  0  0  0  0  0  0  0  0  0  0
  143.3775   77.3587  219.7565 H   0  0  0  0  0  0  0  0  0  0  0  0
  143.4263   76.9094  216.9007 H   0  0  0  0  0  0  0  0  0  0  0  0
  144.2867   76.0428  218.2518 H   0  0  0  0  0  0  0  0  0  0  0  0
  141.5117   75.4587  217.1665 H   0  0  0  0  0  0  0  0  0  0  0  0
  142.9732   74.4425  217.0077 H   0  0  0  0  0  0  0  0  0  0  0  0
  141.5713   73.6412  218.8833 H   0  0  0  0  0  0  0  0  0  0  0  0
  142.9315   71.9961  219.3447 H   0  0  0  0  0  0  0  0  0  0  0  0
  144.9497   71.1533  220.4702 H   0  0  0  0  0  0  0  0  0  0  0  0
  146.6214   72.7635  221.4667 H   0  0  0  0  0  0  0  0  0  0  0  0
  146.1201   75.1973  221.2519 H   0  0  0  0  0  0  0  0  0  0  0  0
  139.4192   69.9184  222.4714 H   0  0  0  0  0  0  0  0  0  0  0  0
  139.1739   68.3739  224.3917 H   0  0  0  0  0  0  0  0  0  0  0  0
  140.2734   68.8166  229.0511 H   0  0  0  0  0  0  0  0  0  0  0  0
  141.2269   71.1064  229.1865 H   0  0  0  0  0  0  0  0  0  0  0  0
  141.4173   72.5489  227.2244 H   0  0  0  0  0  0  0  0  0  0  0  0
  1  2  2  0
  2  3  1  0
  3  4  1  0
  4  5  1  0
  5  6  2  0
  5  7  1  0
  7  8  1  0
  8  9  1  0
  9 10  1  0
 10 11  1  0
 11 12  1  0
 12 13  1  0
 13 14  2  0
 14 15  1  0
 15 16  2  0
 16 17  1  0
 17 18  2  0
  2 19  1  0
 19 20  2  0
 20 21  1  0
 21 22  2  0
 22 23  1  0
 23 24  1  0
 23 25  2  0
 25 26  1  0
 26 27  2  0
 27 28  1  0
 28 29  2  0
 12  7  1  0
 18 13  1  0
 29 19  1  0
 28 22  1  0
  3 30  1  0
  4 31  1  0
  4 32  1  0
  8 33  1  0
  8 34  1  0
  9 35  1  0
  9 36  1  0
 10 37  1  0
 10 38  1  0
 11 39  1  0
 11 40  1  0
 12 41  1  6
 14 42  1  0
 15 43  1  0
 16 44  1  0
 17 45  1  0
 20 46  1  0
 21 47  1  0
 25 48  1  0
 26 49  1  0
 27 50  1  0
M  END
>  <smiles>  (72) 
O=C(NCC(=O)N1CCCCC1c1ccccn1)c1ccc2c(Cl)cccc2n1

>  <score_type>  (72) 
oracle

>  <origin>  (72) 
autodockgpu

>  <m_score__min__energy>  (72) 
-8.9100000000000001

>  <m_primary>  (72) 
energy

>  <rmsd>  (72) 
4.246885900326278

>  <m_score__min__rmsd>  (72) 
4.246885900326278

>  <meeko>  (72) 
{"free_energy": -8.78, "intermolecular_energy": -10.27, "internal_energy": -1.72, "cluster_size": 8, "cluster_id": 2, "rank_in_cluster": 1}

>  <energy>  (72) 
-7.48

>  <cluster_rmsd>  (72) 
1.2

>  <cluster>  (72) 
4

$$$$

     RDKit          3D

 50 53  0  0  0  0  0  0  0  0999 V2000
  141.1680   71.9580  221.3640 O   0  0  0  0  0  0  0  0  0  0  0  0
  140.3950   72.2620  222.3080 C   0  0  0  0  0  0  0  0  0  0  0  0
  139.5480   73.4390  222.2410 N   0  0  0  0  0  0  0  0  0  0  0  0
  139.6430   74.2230  221.0540 C   0  0  0  0  0  0  0  0  0  0  0  0
  140.7100   75.2120  220.9300 C   0  0  0  0  0  0  0  0  0  0  0  0
  141.0940   75.7140  222.0710 O   0  0  0  0  0  0  0  0  0  0  0  0
  141.3750   75.7040  219.7930 N   0  0  0  0  0  0  0  0  0  0  0  0
  141.3650   77.0610  219.3140 C   0  0  0  0  0  0  0  0  0  0  0  0
  142.8030   77.4760  218.9520 C   0  0  0  0  0  0  0  0  0  0  0  0
  143.3400   76.5360  217.9250 C   0  0  0  0  0  0  0  0  0  0  0  0
  142.4270   75.3650  217.6730 C   0  0  0  0  0  0  0  0  0  0  0  0
  142.1090   74.7230  218.9930 C   0  0  1  0  0  0  0  0  0  0  0  0
  143.3070   74.1820  219.6550 C   0  0  0  0  0  0  0  0  0  0  0  0
  143.5070   72.7910  219.7100 C   0  0  0  0  0  0  0  0  0  0  0  0
  144.6140   72.2480  220.3270 C   0  0  0  0  0  0  0  0  0  0  0  0
  145.5790   73.0690  220.9200 C   0  0  0  0  0  0  0  0  0  0  0  0
  145.3450   74.4210  220.8430 C   0  0  0  0  0  0  0  0  0  0  0  0
  144.2680   74.9120  220.2420 N   0  0  0  0  0  0  0  0  0  0  0  0
  140.3270   71.4310  223.5050 C   0  0  0  0  0  0  0  0  0  0  0  0
  139.8640   70.1540  223.4310 C   0  0  0  0  0  0  0  0  0  0  0  0
  139.7700   69.3040  224.5210 C   0  0  0  0  0  0  0  0  0  0  0  0
  140.1770   69.8010  225.7550 C   0  0  0  0  0  0  0  0  0  0  0  0
  140.1200   69.0250  226.9020 C   0  0  0  0  0  0  0  0  0  0  0  0
  139.5260   67.3810  226.8210 Cl  0  0  0  0  0  0  0  0  0  0  0  0
  140.5290   69.5250  228.1390 C   0  0  0  0  0  0  0  0  0  0  0  0
  140.9910   70.8270  228.1560 C   0  0  0  0  0  0  0  0  0  0  0  0
  141.0560   71.6120  227.0390 C   0  0  0  0  0  0  0  0  0  0  0  0
  140.6480   71.1020  225.8230 C   0  0  0  0  0  0  0  0  0  0  0  0
  140.7170   71.8910  224.7180 N   0  0  0  0  0  0  0  0  0  0  0  0
  138.9190   73.6510  223.0570 H   0  0  0  0  0  0  0  0  0  0  0  0
  139.7582   73.5210  220.2150 H   0  0  0  0  0  0  0  0  0  0  0  0
  138.7269   74.8316  221.0719 H   0  0  0  0  0  0  0  0  0  0  0  0
  140.7250   77.1325  218.4222 H   0  0  0  0  0  0  0  0  0  0  0  0
  140.9715   77.7278  220.0954 H   0  0  0  0  0  0  0  0  0  0  0  0
  142.8003   78.4994  218.5487 H   0  0  0  0  0  0  0  0  0  0  0  0
  143.4354   77.4421  219.8514 H   0  0  0  0  0  0  0  0  0  0  0  0
  143.4755   77.0856  216.9818 H   0  0  0  0  0  0  0  0  0  0  0  0
  144.2924   76.1382  218.3052 H   0  0  0  0  0  0  0  0  0  0  0  0
  141.4992   75.7127  217.1953 H   0  0  0  0  0  0  0  0  0  0  0  0
  142.9161   74.6394  217.0065 H   0  0  0  0  0  0  0  0  0  0  0  0
  141.4731   73.8369  218.8503 H   0  0  0  0  0  0  0  0  0  0  0  0
  142.7643   72.1219  219.2509 H   0  0  0  0  0  0  0  0  0  0  0  0
  144.7399   71.1556  220.3533 H   0  0  0  0  0  0  0  0  0  0  0  0
  146.4699   72.6578  221.4172 H   0  0  0  0  0  0  0  0  0  0  0  0
  146.0703   75.1156  221.2919 H   0  0  0  0  0  0  0  0  0  0  0  0
  139.5458   69.7743  222.4489 H   0  0  0  0  0  0  0  0  0  0  0  0
  139.3889   68.2776  224.4150 H   0  0  0  0  0  0  0  0  0  0  0  0
  140.4858   68.9143  229.0529 H   0  0  0  0  0  0  0  0  0  0  0  0
  141.3225   71.2524  229.1148 H   0  0  0  0  0  0  0  0  0  0  0  0
  141.4311   72.6437  227.1087 H   0  0  0  0  0  0  0  0  0  0  0  0
  1  2  2  0
  2  3  1  0
  3  4  1  0
  4  5  1  0
  5  6  2  0
  5  7  1  0
  7  8  1  0
  8  9  1  0
  9 10  1  0
 10 11  1  0
 11 12  1  0
 12 13  1  0
 13 14  2  0
 14 15  1  0
 15 16  2  0
 16 17  1  0
 17 18  2  0
  2 19  1  0
 19 20  2  0
 20 21  1  0
 21 22  2  0
 22 23  1  0
 23 24  1  0
 23 25  2  0
 25 26  1  0
 26 27  2  0
 27 28  1  0
 28 29  2  0
 12  7  1  0
 18 13  1  0
 29 19  1  0
 28 22  1  0
  3 30  1  0
  4 31  1  0
  4 32  1  0
  8 33  1  0
  8 34  1  0
  9 35  1  0
  9 36  1  0
 10 37  1  0
 10 38  1  0
 11 39  1  0
 11 40  1  0
 12 41  1  6
 14 42  1  0
 15 43  1  0
 16 44  1  0
 17 45  1  0
 20 46  1  0
 21 47  1  0
 25 48  1  0
 26 49  1  0
 27 50  1  0
M  END
>  <smiles>  (73) 
O=C(NCC(=O)N1CCCCC1c1ccccn1)c1ccc2c(Cl)cccc2n1

>  <score_type>  (73) 
oracle

>  <origin>  (73) 
autodockgpu

>  <m_score__min__energy>  (73) 
-8.9100000000000001

>  <m_primary>  (73) 
energy

>  <rmsd>  (73) 
4.22206307339079

>  <m_score__min__rmsd>  (73) 
4.22206307339079

>  <meeko>  (73) 
{"free_energy": -8.73, "intermolecular_energy": -10.22, "internal_energy": -1.77, "cluster_size": 8, "cluster_id": 2, "rank_in_cluster": 3}

>  <energy>  (73) 
-7.39

>  <cluster_rmsd>  (73) 
0.98

>  <cluster>  (73) 
4

$$$$

     RDKit          3D

 50 53  0  0  0  0  0  0  0  0999 V2000
  139.1610   74.1240  221.5730 O   0  0  0  0  0  0  0  0  0  0  0  0
  140.3190   74.6140  221.5890 C   0  0  0  0  0  0  0  0  0  0  0  0
  140.5610   75.9640  222.0640 N   0  0  0  0  0  0  0  0  0  0  0  0
  139.4200   76.6950  222.5090 C   0  0  0  0  0  0  0  0  0  0  0  0
  139.4010   78.1490  222.3740 C   0  0  0  0  0  0  0  0  0  0  0  0
  138.2440   78.6270  222.0100 O   0  0  0  0  0  0  0  0  0  0  0  0
  140.4190   79.0990  222.5700 N   0  0  0  0  0  0  0  0  0  0  0  0
  141.0540   79.4310  223.8180 C   0  0  0  0  0  0  0  0  0  0  0  0
  142.5770   79.4960  223.6050 C   0  0  0  0  0  0  0  0  0  0  0  0
  142.8810   80.5060  222.5510 C   0  0  0  0  0  0  0  0  0  0  0  0
  141.6430   81.0300  221.8720 C   0  0  0  0  0  0  0  0  0  0  0  0
  140.8380   79.8570  221.3910 C   0  0  1  0  0  0  0  0  0  0  0  0
  141.5570   79.0600  220.3850 C   0  0  0  0  0  0  0  0  0  0  0  0
  141.8820   79.6300  219.1420 C   0  0  0  0  0  0  0  0  0  0  0  0
  142.5500   78.9110  218.1730 C   0  0  0  0  0  0  0  0  0  0  0  0
  142.9280   77.5830  218.3990 C   0  0  0  0  0  0  0  0  0  0  0  0
  142.5910   77.0650  219.6270 C   0  0  0  0  0  0  0  0  0  0  0  0
  141.9470   77.7850  220.5380 N   0  0  0  0  0  0  0  0  0  0  0  0
  141.4600   73.8320  221.1260 C   0  0  0  0  0  0  0  0  0  0  0  0
  141.2980   72.5330  220.7550 C   0  0  0  0  0  0  0  0  0  0  0  0
  142.3300   71.7260  220.3050 C   0  0  0  0  0  0  0  0  0  0  0  0
  143.5990   72.2920  220.2350 C   0  0  0  0  0  0  0  0  0  0  0  0
  144.6930   71.5620  219.7970 C   0  0  0  0  0  0  0  0  0  0  0  0
  144.4990   69.8910  219.3170 Cl  0  0  0  0  0  0  0  0  0  0  0  0
  145.9650   72.1320  219.7260 C   0  0  0  0  0  0  0  0  0  0  0  0
  146.0720   73.4530  220.1140 C   0  0  0  0  0  0  0  0  0  0  0  0
  145.0080   74.1930  220.5510 C   0  0  0  0  0  0  0  0  0  0  0  0
  143.7570   73.6150  220.6140 C   0  0  0  0  0  0  0  0  0  0  0  0
  142.7050   74.3590  221.0480 N   0  0  0  0  0  0  0  0  0  0  0  0
  141.5470   76.3300  222.0570 H   0  0  0  0  0  0  0  0  0  0  0  0
  138.5549   76.3102  221.9491 H   0  0  0  0  0  0  0  0  0  0  0  0
  139.4194   76.5362  223.5975 H   0  0  0  0  0  0  0  0  0  0  0  0
  140.6889   80.4075  224.1690 H   0  0  0  0  0  0  0  0  0  0  0  0
  140.8169   78.6645  224.5705 H   0  0  0  0  0  0  0  0  0  0  0  0
  143.0681   79.7862  224.5455 H   0  0  0  0  0  0  0  0  0  0  0  0
  142.9490   78.5097  223.2906 H   0  0  0  0  0  0  0  0  0  0  0  0
  143.4114   81.3503  223.0155 H   0  0  0  0  0  0  0  0  0  0  0  0
  143.4953   80.0109  221.7845 H   0  0  0  0  0  0  0  0  0  0  0  0
  141.0496   81.6214  222.5848 H   0  0  0  0  0  0  0  0  0  0  0  0
  141.9191   81.6740  221.0241 H   0  0  0  0  0  0  0  0  0  0  0  0
  139.9403   80.1960  220.8532 H   0  0  0  0  0  0  0  0  0  0  0  0
  141.5973   80.6726  218.9375 H   0  0  0  0  0  0  0  0  0  0  0  0
  142.7885   79.3875  217.2107 H   0  0  0  0  0  0  0  0  0  0  0  0
  143.4616   76.9903  217.6413 H   0  0  0  0  0  0  0  0  0  0  0  0
  142.8624   76.0251  219.8614 H   0  0  0  0  0  0  0  0  0  0  0  0
  140.2893   72.0986  220.8159 H   0  0  0  0  0  0  0  0  0  0  0  0
  142.1533   70.6798  220.0147 H   0  0  0  0  0  0  0  0  0  0  0  0
  146.8372   71.5586  219.3789 H   0  0  0  0  0  0  0  0  0  0  0  0
  147.0606   73.9332  220.0695 H   0  0  0  0  0  0  0  0  0  0  0  0
  145.1489   75.2421  220.8502 H   0  0  0  0  0  0  0  0  0  0  0  0
  1  2  2  0
  2  3  1  0
  3  4  1  0
  4  5  1  0
  5  6  2  0
  5  7  1  0
  7  8  1  0
  8  9  1  0
  9 10  1  0
 10 11  1  0
 11 12  1  0
 12 13  1  0
 13 14  2  0
 14 15  1  0
 15 16  2  0
 16 17  1  0
 17 18  2  0
  2 19  1  0
 19 20  2  0
 20 21  1  0
 21 22  2  0
 22 23  1  0
 23 24  1  0
 23 25  2  0
 25 26  1  0
 26 27  2  0
 27 28  1  0
 28 29  2  0
 12  7  1  0
 18 13  1  0
 29 19  1  0
 28 22  1  0
  3 30  1  0
  4 31  1  0
  4 32  1  0
  8 33  1  0
  8 34  1  0
  9 35  1  0
  9 36  1  0
 10 37  1  0
 10 38  1  0
 11 39  1  0
 11 40  1  0
 12 41  1  6
 14 42  1  0
 15 43  1  0
 16 44  1  0
 17 45  1  0
 20 46  1  0
 21 47  1  0
 25 48  1  0
 26 49  1  0
 27 50  1  0
M  END
>  <smiles>  (74) 
O=C(NCC(=O)N1CCCCC1c1ccccn1)c1ccc2c(Cl)cccc2n1

>  <score_type>  (74) 
oracle

>  <origin>  (74) 
autodockgpu

>  <m_score__min__energy>  (74) 
-8.9100000000000001

>  <m_primary>  (74) 
energy

>  <rmsd>  (74) 
5.935648203933125

>  <m_score__min__rmsd>  (74) 
5.935648203933125

>  <meeko>  (74) 
{"free_energy": -7.3, "intermolecular_energy": -8.79, "internal_energy": -2.9, "cluster_size": 22, "cluster_id": 5, "rank_in_cluster": 2}

>  <energy>  (74) 
-7.27

>  <cluster_rmsd>  (74) 
0.92

>  <cluster>  (74) 
4

$$$$

     RDKit          3D

 50 53  0  0  0  0  0  0  0  0999 V2000
  139.1270   74.1710  221.5240 O   0  0  0  0  0  0  0  0  0  0  0  0
  140.2820   74.6680  221.5460 C   0  0  0  0  0  0  0  0  0  0  0  0
  140.5120   76.0240  222.0070 N   0  0  0  0  0  0  0  0  0  0  0  0
  139.3630   76.7550  222.4320 C   0  0  0  0  0  0  0  0  0  0  0  0
  139.3710   78.2130  222.3560 C   0  0  0  0  0  0  0  0  0  0  0  0
  138.2190   78.7270  222.0260 O   0  0  0  0  0  0  0  0  0  0  0  0
  140.4100   79.1350  222.5770 N   0  0  0  0  0  0  0  0  0  0  0  0
  141.0380   79.4330  223.8370 C   0  0  0  0  0  0  0  0  0  0  0  0
  142.5640   79.4640  223.6430 C   0  0  0  0  0  0  0  0  0  0  0  0
  142.9050   80.4810  222.6070 C   0  0  0  0  0  0  0  0  0  0  0  0
  141.6880   81.0460  221.9210 C   0  0  0  0  0  0  0  0  0  0  0  0
  140.8600   79.9000  221.4150 C   0  0  1  0  0  0  0  0  0  0  0  0
  141.5710   79.0990  220.4050 C   0  0  0  0  0  0  0  0  0  0  0  0
  141.9000   79.6710  219.1640 C   0  0  0  0  0  0  0  0  0  0  0  0
  142.5610   78.9490  218.1920 C   0  0  0  0  0  0  0  0  0  0  0  0
  142.9270   77.6180  218.4130 C   0  0  0  0  0  0  0  0  0  0  0  0
  142.5860   77.0980  219.6390 C   0  0  0  0  0  0  0  0  0  0  0  0
  141.9500   77.8200  220.5530 N   0  0  0  0  0  0  0  0  0  0  0  0
  141.4320   73.8860  221.1040 C   0  0  0  0  0  0  0  0  0  0  0  0
  141.2760   72.5880  220.7290 C   0  0  0  0  0  0  0  0  0  0  0  0
  142.3170   71.7800  220.2980 C   0  0  0  0  0  0  0  0  0  0  0  0
  143.5870   72.3470  220.2520 C   0  0  0  0  0  0  0  0  0  0  0  0
  144.6890   71.6170  219.8350 C   0  0  0  0  0  0  0  0  0  0  0  0
  144.5040   69.9460  219.3490 Cl  0  0  0  0  0  0  0  0  0  0  0  0
  145.9620   72.1860  219.7900 C   0  0  0  0  0  0  0  0  0  0  0  0
  146.0620   73.5070  220.1810 C   0  0  0  0  0  0  0  0  0  0  0  0
  144.9900   74.2470  220.5980 C   0  0  0  0  0  0  0  0  0  0  0  0
  143.7380   73.6690  220.6360 C   0  0  0  0  0  0  0  0  0  0  0  0
  142.6780   74.4130  221.0510 N   0  0  0  0  0  0  0  0  0  0  0  0
  141.4970   76.3950  222.0060 H   0  0  0  0  0  0  0  0  0  0  0  0
  138.5178   76.4071  221.8199 H   0  0  0  0  0  0  0  0  0  0  0  0
  139.3123   76.5524  223.5120 H   0  0  0  0  0  0  0  0  0  0  0  0
  140.6925   80.4128  224.1984 H   0  0  0  0  0  0  0  0  0  0  0  0
  140.7735   78.6614  224.5750 H   0  0  0  0  0  0  0  0  0  0  0  0
  143.0505   79.7291  224.5933 H   0  0  0  0  0  0  0  0  0  0  0  0
  142.9160   78.4735  223.3191 H   0  0  0  0  0  0  0  0  0  0  0  0
  143.4508   81.3051  223.0896 H   0  0  0  0  0  0  0  0  0  0  0  0
  143.5154   79.9813  221.8404 H   0  0  0  0  0  0  0  0  0  0  0  0
  141.1013   81.6424  222.6352 H   0  0  0  0  0  0  0  0  0  0  0  0
  141.9897   81.6947  221.0855 H   0  0  0  0  0  0  0  0  0  0  0  0
  139.9768   80.2697  220.8734 H   0  0  0  0  0  0  0  0  0  0  0  0
  141.6245   80.7169  218.9635 H   0  0  0  0  0  0  0  0  0  0  0  0
  142.8031   79.4265  217.2311 H   0  0  0  0  0  0  0  0  0  0  0  0
  143.4552   77.0236  217.6529 H   0  0  0  0  0  0  0  0  0  0  0  0
  142.8476   76.0546  219.8688 H   0  0  0  0  0  0  0  0  0  0  0  0
  140.2659   72.1543  220.7700 H   0  0  0  0  0  0  0  0  0  0  0  0
  142.1460   70.7338  220.0045 H   0  0  0  0  0  0  0  0  0  0  0  0
  146.8407   71.6123  219.4602 H   0  0  0  0  0  0  0  0  0  0  0  0
  147.0514   73.9870  220.1558 H   0  0  0  0  0  0  0  0  0  0  0  0
  145.1252   75.2958  220.9010 H   0  0  0  0  0  0  0  0  0  0  0  0
  1  2  2  0
  2  3  1  0
  3  4  1  0
  4  5  1  0
  5  6  2  0
  5  7  1  0
  7  8  1  0
  8  9  1  0
  9 10  1  0
 10 11  1  0
 11 12  1  0
 12 13  1  0
 13 14  2  0
 14 15  1  0
 15 16  2  0
 16 17  1  0
 17 18  2  0
  2 19  1  0
 19 20  2  0
 20 21  1  0
 21 22  2  0
 22 23  1  0
 23 24  1  0
 23 25  2  0
 25 26  1  0
 26 27  2  0
 27 28  1  0
 28 29  2  0
 12  7  1  0
 18 13  1  0
 29 19  1  0
 28 22  1  0
  3 30  1  0
  4 31  1  0
  4 32  1  0
  8 33  1  0
  8 34  1  0
  9 35  1  0
  9 36  1  0
 10 37  1  0
 10 38  1  0
 11 39  1  0
 11 40  1  0
 12 41  1  6
 14 42  1  0
 15 43  1  0
 16 44  1  0
 17 45  1  0
 20 46  1  0
 21 47  1  0
 25 48  1  0
 26 49  1  0
 27 50  1  0
M  END
>  <smiles>  (75) 
O=C(NCC(=O)N1CCCCC1c1ccccn1)c1ccc2c(Cl)cccc2n1

>  <score_type>  (75) 
oracle

>  <origin>  (75) 
autodockgpu

>  <m_score__min__energy>  (75) 
-8.9100000000000001

>  <m_primary>  (75) 
energy

>  <rmsd>  (75) 
5.940669505616358

>  <m_score__min__rmsd>  (75) 
5.940669505616358

>  <meeko>  (75) 
{"free_energy": -7.28, "intermolecular_energy": -8.78, "internal_energy": -2.9, "cluster_size": 22, "cluster_id": 5, "rank_in_cluster": 6}

>  <energy>  (75) 
-7.01

>  <cluster_rmsd>  (75) 
0.67

>  <cluster>  (75) 
4

$$$$

     RDKit          3D

 50 53  0  0  0  0  0  0  0  0999 V2000
  139.2870   74.0820  222.1380 O   0  0  0  0  0  0  0  0  0  0  0  0
  140.3440   74.6630  221.7800 C   0  0  0  0  0  0  0  0  0  0  0  0
  140.4720   76.1070  221.8510 N   0  0  0  0  0  0  0  0  0  0  0  0
  139.3410   76.8220  222.3470 C   0  0  0  0  0  0  0  0  0  0  0  0
  139.3540   78.2820  222.3360 C   0  0  0  0  0  0  0  0  0  0  0  0
  138.1980   78.8140  222.0530 O   0  0  0  0  0  0  0  0  0  0  0  0
  140.4010   79.1900  222.5760 N   0  0  0  0  0  0  0  0  0  0  0  0
  141.0200   79.4690  223.8450 C   0  0  0  0  0  0  0  0  0  0  0  0
  142.5490   79.4840  223.6660 C   0  0  0  0  0  0  0  0  0  0  0  0
  142.9120   80.5070  222.6430 C   0  0  0  0  0  0  0  0  0  0  0  0
  141.7080   81.0910  221.9500 C   0  0  0  0  0  0  0  0  0  0  0  0
  140.8720   79.9600  221.4250 C   0  0  1  0  0  0  0  0  0  0  0  0
  141.5840   79.1610  220.4150 C   0  0  0  0  0  0  0  0  0  0  0  0
  141.8800   79.7210  219.1600 C   0  0  0  0  0  0  0  0  0  0  0  0
  142.5400   79.0000  218.1880 C   0  0  0  0  0  0  0  0  0  0  0  0
  142.9400   77.6800  218.4220 C   0  0  0  0  0  0  0  0  0  0  0  0
  142.6310   77.1710  219.6610 C   0  0  0  0  0  0  0  0  0  0  0  0
  141.9930   77.8920  220.5750 N   0  0  0  0  0  0  0  0  0  0  0  0
  141.4780   73.8940  221.2800 C   0  0  0  0  0  0  0  0  0  0  0  0
  141.3200   72.5920  220.9190 C   0  0  0  0  0  0  0  0  0  0  0  0
  142.3460   71.7970  220.4360 C   0  0  0  0  0  0  0  0  0  0  0  0
  143.6040   72.3790  220.3200 C   0  0  0  0  0  0  0  0  0  0  0  0
  144.6920   71.6620  219.8460 C   0  0  0  0  0  0  0  0  0  0  0  0
  144.5030   69.9860  219.3780 Cl  0  0  0  0  0  0  0  0  0  0  0  0
  145.9530   72.2480  219.7300 C   0  0  0  0  0  0  0  0  0  0  0  0
  146.0560   73.5720  220.1100 C   0  0  0  0  0  0  0  0  0  0  0  0
  144.9990   74.3000  220.5810 C   0  0  0  0  0  0  0  0  0  0  0  0
  143.7580   73.7050  220.6890 C   0  0  0  0  0  0  0  0  0  0  0  0
  142.7120   74.4370  221.1580 N   0  0  0  0  0  0  0  0  0  0  0  0
  141.3750   76.5460  221.5400 H   0  0  0  0  0  0  0  0  0  0  0  0
  138.4741   76.5049  221.7488 H   0  0  0  0  0  0  0  0  0  0  0  0
  139.3251   76.5711  223.4179 H   0  0  0  0  0  0  0  0  0  0  0  0
  140.6823   80.4494  224.2122 H   0  0  0  0  0  0  0  0  0  0  0  0
  140.7393   78.6938  224.5732 H   0  0  0  0  0  0  0  0  0  0  0  0
  143.0293   79.7343  224.6234 H   0  0  0  0  0  0  0  0  0  0  0  0
  142.8926   78.4925  223.3359 H   0  0  0  0  0  0  0  0  0  0  0  0
  143.4614   81.3208  223.1390 H   0  0  0  0  0  0  0  0  0  0  0  0
  143.5254   80.0082  221.8782 H   0  0  0  0  0  0  0  0  0  0  0  0
  141.1208   81.6875  222.6638 H   0  0  0  0  0  0  0  0  0  0  0  0
  142.0257   81.7432  221.1231 H   0  0  0  0  0  0  0  0  0  0  0  0
  139.9985   80.3441  220.8778 H   0  0  0  0  0  0  0  0  0  0  0  0
  141.5783   80.7575  218.9489 H   0  0  0  0  0  0  0  0  0  0  0  0
  142.7548   79.4684  217.2162 H   0  0  0  0  0  0  0  0  0  0  0  0
  143.4689   77.0863  217.6618 H   0  0  0  0  0  0  0  0  0  0  0  0
  142.9205   76.1374  219.9018 H   0  0  0  0  0  0  0  0  0  0  0  0
  140.3197   72.1449  221.0163 H   0  0  0  0  0  0  0  0  0  0  0  0
  142.1730   70.7475  220.1554 H   0  0  0  0  0  0  0  0  0  0  0  0
  146.8203   71.6847  219.3553 H   0  0  0  0  0  0  0  0  0  0  0  0
  147.0362   74.0646  220.0297 H   0  0  0  0  0  0  0  0  0  0  0  0
  145.1363   75.3520  220.8717 H   0  0  0  0  0  0  0  0  0  0  0  0
  1  2  2  0
  2  3  1  0
  3  4  1  0
  4  5  1  0
  5  6  2  0
  5  7  1  0
  7  8  1  0
  8  9  1  0
  9 10  1  0
 10 11  1  0
 11 12  1  0
 12 13  1  0
 13 14  2  0
 14 15  1  0
 15 16  2  0
 16 17  1  0
 17 18  2  0
  2 19  1  0
 19 20  2  0
 20 21  1  0
 21 22  2  0
 22 23  1  0
 23 24  1  0
 23 25  2  0
 25 26  1  0
 26 27  2  0
 27 28  1  0
 28 29  2  0
 12  7  1  0
 18 13  1  0
 29 19  1  0
 28 22  1  0
  3 30  1  0
  4 31  1  0
  4 32  1  0
  8 33  1  0
  8 34  1  0
  9 35  1  0
  9 36  1  0
 10 37  1  0
 10 38  1  0
 11 39  1  0
 11 40  1  0
 12 41  1  6
 14 42  1  0
 15 43  1  0
 16 44  1  0
 17 45  1  0
 20 46  1  0
 21 47  1  0
 25 48  1  0
 26 49  1  0
 27 50  1  0
M  END
>  <smiles>  (76) 
O=C(NCC(=O)N1CCCCC1c1ccccn1)c1ccc2c(Cl)cccc2n1

>  <score_type>  (76) 
oracle

>  <origin>  (76) 
autodockgpu

>  <m_score__min__energy>  (76) 
-8.9100000000000001

>  <m_primary>  (76) 
energy

>  <rmsd>  (76) 
5.960033908682796

>  <m_score__min__rmsd>  (76) 
5.960033908682796

>  <meeko>  (76) 
{"free_energy": -7.28, "intermolecular_energy": -8.77, "internal_energy": -2.84, "cluster_size": 22, "cluster_id": 5, "rank_in_cluster": 10}

>  <energy>  (76) 
-6.76

>  <cluster_rmsd>  (76) 
1.51

>  <cluster>  (76) 
4

$$$$

     RDKit          3D

 50 53  0  0  0  0  0  0  0  0999 V2000
  138.7880   72.7220  221.7350 O   0  0  0  0  0  0  0  0  0  0  0  0
  139.8900   72.5080  222.3030 C   0  0  0  0  0  0  0  0  0  0  0  0
  141.1140   73.1300  221.8340 N   0  0  0  0  0  0  0  0  0  0  0  0
  140.9970   73.9900  220.7020 C   0  0  0  0  0  0  0  0  0  0  0  0
  140.8530   75.4290  220.9070 C   0  0  0  0  0  0  0  0  0  0  0  0
  141.9710   76.0900  220.7830 O   0  0  0  0  0  0  0  0  0  0  0  0
  139.7190   76.2010  221.2140 N   0  0  0  0  0  0  0  0  0  0  0  0
  138.4780   75.7210  221.7610 C   0  0  0  0  0  0  0  0  0  0  0  0
  138.0370   76.6550  222.9020 C   0  0  0  0  0  0  0  0  0  0  0  0
  137.9020   78.0430  222.3740 C   0  0  0  0  0  0  0  0  0  0  0  0
  138.4010   78.1800  220.9600 C   0  0  0  0  0  0  0  0  0  0  0  0
  139.7960   77.6270  220.8980 C   0  0  1  0  0  0  0  0  0  0  0  0
  140.7340   78.3820  221.7440 C   0  0  0  0  0  0  0  0  0  0  0  0
  141.0180   77.9350  223.0460 C   0  0  0  0  0  0  0  0  0  0  0  0
  141.8860   78.6200  223.8690 C   0  0  0  0  0  0  0  0  0  0  0  0
  142.5180   79.7890  223.4310 C   0  0  0  0  0  0  0  0  0  0  0  0
  142.2130   80.1910  222.1520 C   0  0  0  0  0  0  0  0  0  0  0  0
  141.3710   79.5080  221.3850 N   0  0  0  0  0  0  0  0  0  0  0  0
  139.9660   71.6220  223.4590 C   0  0  0  0  0  0  0  0  0  0  0  0
  139.5530   70.3290  223.3620 C   0  0  0  0  0  0  0  0  0  0  0  0
  139.5940   69.4270  224.4130 C   0  0  0  0  0  0  0  0  0  0  0  0
  140.0880   69.8860  225.6300 C   0  0  0  0  0  0  0  0  0  0  0  0
  140.1670   69.0570  226.7370 C   0  0  0  0  0  0  0  0  0  0  0  0
  139.6400   67.3910  226.6270 Cl  0  0  0  0  0  0  0  0  0  0  0  0
  140.6620   69.5190  227.9580 C   0  0  0  0  0  0  0  0  0  0  0  0
  141.0660   70.8390  227.9990 C   0  0  0  0  0  0  0  0  0  0  0  0
  140.9970   71.6770  226.9210 C   0  0  0  0  0  0  0  0  0  0  0  0
  140.5050   71.2040  225.7210 C   0  0  0  0  0  0  0  0  0  0  0  0
  140.4410   72.0440  224.6540 N   0  0  0  0  0  0  0  0  0  0  0  0
  142.0100   72.9200  222.3420 H   0  0  0  0  0  0  0  0  0  0  0  0
  141.9005   73.8420  220.0923 H   0  0  0  0  0  0  0  0  0  0  0  0
  140.0386   73.6950  220.2499 H   0  0  0  0  0  0  0  0  0  0  0  0
  137.7084   75.7105  220.9751 H   0  0  0  0  0  0  0  0  0  0  0  0
  138.6134   74.7004  222.1484 H   0  0  0  0  0  0  0  0  0  0  0  0
  137.0691   76.3172  223.3009 H   0  0  0  0  0  0  0  0  0  0  0  0
  138.7874   76.6365  223.7061 H   0  0  0  0  0  0  0  0  0  0  0  0
  136.8398   78.3276  222.4011 H   0  0  0  0  0  0  0  0  0  0  0  0
  138.5165   78.6997  223.0074 H   0  0  0  0  0  0  0  0  0  0  0  0
  137.7467   77.6169  220.2782 H   0  0  0  0  0  0  0  0  0  0  0  0
  138.3981   79.2375  220.6573 H   0  0  0  0  0  0  0  0  0  0  0  0
  140.2140   77.7408  219.8869 H   0  0  0  0  0  0  0  0  0  0  0  0
  140.5367   77.0179  223.4165 H   0  0  0  0  0  0  0  0  0  0  0  0
  142.0844   78.2428  224.8831 H   0  0  0  0  0  0  0  0  0  0  0  0
  143.2151   80.3511  224.0698 H   0  0  0  0  0  0  0  0  0  0  0  0
  142.6794   81.1038  221.7529 H   0  0  0  0  0  0  0  0  0  0  0  0
  139.1644   69.9800  222.3939 H   0  0  0  0  0  0  0  0  0  0  0  0
  139.2497   68.3895  224.2901 H   0  0  0  0  0  0  0  0  0  0  0  0
  140.7268   68.8660  228.8408 H   0  0  0  0  0  0  0  0  0  0  0  0
  141.4627   71.2355  228.9453 H   0  0  0  0  0  0  0  0  0  0  0  0
  141.3313   72.7213  227.0093 H   0  0  0  0  0  0  0  0  0  0  0  0
  1  2  2  0
  2  3  1  0
  3  4  1  0
  4  5  1  0
  5  6  2  0
  5  7  1  0
  7  8  1  0
  8  9  1  0
  9 10  1  0
 10 11  1  0
 11 12  1  0
 12 13  1  0
 13 14  2  0
 14 15  1  0
 15 16  2  0
 16 17  1  0
 17 18  2  0
  2 19  1  0
 19 20  2  0
 20 21  1  0
 21 22  2  0
 22 23  1  0
 23 24  1  0
 23 25  2  0
 25 26  1  0
 26 27  2  0
 27 28  1  0
 28 29  2  0
 12  7  1  0
 18 13  1  0
 29 19  1  0
 28 22  1  0
  3 30  1  0
  4 31  1  0
  4 32  1  0
  8 33  1  0
  8 34  1  0
  9 35  1  0
  9 36  1  0
 10 37  1  0
 10 38  1  0
 11 39  1  0
 11 40  1  0
 12 41  1  6
 14 42  1  0
 15 43  1  0
 16 44  1  0
 17 45  1  0
 20 46  1  0
 21 47  1  0
 25 48  1  0
 26 49  1  0
 27 50  1  0
M  END
>  <smiles>  (77) 
O=C(NCC(=O)N1CCCCC1c1ccccn1)c1ccc2c(Cl)cccc2n1

>  <score_type>  (77) 
oracle

>  <origin>  (77) 
autodockgpu

>  <m_score__min__energy>  (77) 
-8.9100000000000001

>  <m_primary>  (77) 
energy

>  <rmsd>  (77) 
3.2125301665789583

>  <m_score__min__rmsd>  (77) 
3.2125301665789583

>  <meeko>  (77) 
{"free_energy": -8.16, "intermolecular_energy": -9.66, "internal_energy": -1.45, "cluster_size": 8, "cluster_id": 1, "rank_in_cluster": 8}

>  <energy>  (77) 
-6.76

>  <cluster_rmsd>  (77) 
1.52

>  <cluster>  (77) 
4

$$$$

     RDKit          3D

 50 53  0  0  0  0  0  0  0  0999 V2000
  141.2610   72.0990  221.4950 O   0  0  0  0  0  0  0  0  0  0  0  0
  140.4260   72.3470  222.4030 C   0  0  0  0  0  0  0  0  0  0  0  0
  139.5150   73.4720  222.3050 N   0  0  0  0  0  0  0  0  0  0  0  0
  139.6190   74.2730  221.1290 C   0  0  0  0  0  0  0  0  0  0  0  0
  140.8330   75.0500  220.8960 C   0  0  0  0  0  0  0  0  0  0  0  0
  141.4250   75.4380  221.9910 O   0  0  0  0  0  0  0  0  0  0  0  0
  141.4520   75.4430  219.6960 N   0  0  0  0  0  0  0  0  0  0  0  0
  141.4860   76.7720  219.1440 C   0  0  0  0  0  0  0  0  0  0  0  0
  142.9180   77.0840  218.6750 C   0  0  0  0  0  0  0  0  0  0  0  0
  143.3390   76.0640  217.6720 C   0  0  0  0  0  0  0  0  0  0  0  0
  142.3500   74.9350  217.5390 C   0  0  0  0  0  0  0  0  0  0  0  0
  142.0800   74.3820  218.9090 C   0  0  1  0  0  0  0  0  0  0  0  0
  143.2850   73.8070  219.5270 C   0  0  0  0  0  0  0  0  0  0  0  0
  144.1570   74.6300  220.2600 C   0  0  0  0  0  0  0  0  0  0  0  0
  145.2990   74.1270  220.8470 C   0  0  0  0  0  0  0  0  0  0  0  0
  145.6270   72.7730  220.7320 C   0  0  0  0  0  0  0  0  0  0  0  0
  144.7480   72.0030  220.0070 C   0  0  0  0  0  0  0  0  0  0  0  0
  143.6570   72.5190  219.4530 N   0  0  0  0  0  0  0  0  0  0  0  0
  140.3510   71.5010  223.5890 C   0  0  0  0  0  0  0  0  0  0  0  0
  139.9020   70.2200  223.4920 C   0  0  0  0  0  0  0  0  0  0  0  0
  139.8020   69.3560  224.5710 C   0  0  0  0  0  0  0  0  0  0  0  0
  140.1880   69.8420  225.8160 C   0  0  0  0  0  0  0  0  0  0  0  0
  140.1230   69.0500  226.9520 C   0  0  0  0  0  0  0  0  0  0  0  0
  139.5470   67.4010  226.8440 Cl  0  0  0  0  0  0  0  0  0  0  0  0
  140.5100   69.5390  228.2010 C   0  0  0  0  0  0  0  0  0  0  0  0
  140.9580   70.8460  228.2400 C   0  0  0  0  0  0  0  0  0  0  0  0
  141.0300   71.6450  227.1340 C   0  0  0  0  0  0  0  0  0  0  0  0
  140.6440   71.1460  225.9070 C   0  0  0  0  0  0  0  0  0  0  0  0
  140.7200   71.9490  224.8120 N   0  0  0  0  0  0  0  0  0  0  0  0
  138.8350   73.6370  223.0900 H   0  0  0  0  0  0  0  0  0  0  0  0
  139.5014   73.5969  220.2693 H   0  0  0  0  0  0  0  0  0  0  0  0
  138.8429   75.0400  221.2681 H   0  0  0  0  0  0  0  0  0  0  0  0
  140.7964   76.8339  218.2892 H   0  0  0  0  0  0  0  0  0  0  0  0
  141.1790   77.5000  219.9094 H   0  0  0  0  0  0  0  0  0  0  0  0
  142.9454   78.0837  218.2168 H   0  0  0  0  0  0  0  0  0  0  0  0
  143.6022   77.0598  219.5360 H   0  0  0  0  0  0  0  0  0  0  0  0
  143.4452   76.5556  216.6937 H   0  0  0  0  0  0  0  0  0  0  0  0
  144.2905   75.6328  218.0166 H   0  0  0  0  0  0  0  0  0  0  0  0
  141.4146   75.3098  217.0980 H   0  0  0  0  0  0  0  0  0  0  0  0
  142.7571   74.1489  216.8861 H   0  0  0  0  0  0  0  0  0  0  0  0
  141.3884   73.5285  218.8532 H   0  0  0  0  0  0  0  0  0  0  0  0
  143.9233   75.6995  220.3679 H   0  0  0  0  0  0  0  0  0  0  0  0
  145.9602   74.7997  221.4129 H   0  0  0  0  0  0  0  0  0  0  0  0
  146.5318   72.3498  221.1927 H   0  0  0  0  0  0  0  0  0  0  0  0
  144.9544   70.9297  219.8825 H   0  0  0  0  0  0  0  0  0  0  0  0
  139.6014   69.8493  222.5009 H   0  0  0  0  0  0  0  0  0  0  0  0
  139.4323   68.3273  224.4479 H   0  0  0  0  0  0  0  0  0  0  0  0
  140.4610   68.9167  229.1067 H   0  0  0  0  0  0  0  0  0  0  0  0
  141.2717   71.2631  229.2083 H   0  0  0  0  0  0  0  0  0  0  0  0
  141.3934   72.6796  227.2213 H   0  0  0  0  0  0  0  0  0  0  0  0
  1  2  2  0
  2  3  1  0
  3  4  1  0
  4  5  1  0
  5  6  2  0
  5  7  1  0
  7  8  1  0
  8  9  1  0
  9 10  1  0
 10 11  1  0
 11 12  1  0
 12 13  1  0
 13 14  2  0
 14 15  1  0
 15 16  2  0
 16 17  1  0
 17 18  2  0
  2 19  1  0
 19 20  2  0
 20 21  1  0
 21 22  2  0
 22 23  1  0
 23 24  1  0
 23 25  2  0
 25 26  1  0
 26 27  2  0
 27 28  1  0
 28 29  2  0
 12  7  1  0
 18 13  1  0
 29 19  1  0
 28 22  1  0
  3 30  1  0
  4 31  1  0
  4 32  1  0
  8 33  1  0
  8 34  1  0
  9 35  1  0
  9 36  1  0
 10 37  1  0
 10 38  1  0
 11 39  1  0
 11 40  1  0
 12 41  1  6
 14 42  1  0
 15 43  1  0
 16 44  1  0
 17 45  1  0
 20 46  1  0
 21 47  1  0
 25 48  1  0
 26 49  1  0
 27 50  1  0
M  END
>  <smiles>  (78) 
O=C(NCC(=O)N1CCCCC1c1ccccn1)c1ccc2c(Cl)cccc2n1

>  <score_type>  (78) 
oracle

>  <origin>  (78) 
autodockgpu

>  <m_score__min__energy>  (78) 
-8.9100000000000001

>  <m_primary>  (78) 
energy

>  <rmsd>  (78) 
4.103284172382901

>  <m_score__min__rmsd>  (78) 
4.103284172382901

>  <meeko>  (78) 
{"free_energy": -8.75, "intermolecular_energy": -10.24, "internal_energy": -1.65, "cluster_size": 8, "cluster_id": 2, "rank_in_cluster": 2}

>  <energy>  (78) 
-7.31

>  <cluster_rmsd>  (78) 
0.0

>  <cluster>  (78) 
5

$$$$

     RDKit          3D

 50 53  0  0  0  0  0  0  0  0999 V2000
  139.0020   74.9520  222.2210 O   0  0  0  0  0  0  0  0  0  0  0  0
  140.1150   75.5080  222.0350 C   0  0  0  0  0  0  0  0  0  0  0  0
  141.2920   74.7390  221.6780 N   0  0  0  0  0  0  0  0  0  0  0  0
  141.1160   73.3290  221.5500 C   0  0  0  0  0  0  0  0  0  0  0  0
  142.0050   72.5720  220.6720 C   0  0  0  0  0  0  0  0  0  0  0  0
  141.3910   71.6720  219.9560 O   0  0  0  0  0  0  0  0  0  0  0  0
  143.3950   72.6570  220.4840 N   0  0  0  0  0  0  0  0  0  0  0  0
  144.2800   71.5780  220.1300 C   0  0  0  0  0  0  0  0  0  0  0  0
  145.2300   72.0530  219.0160 C   0  0  0  0  0  0  0  0  0  0  0  0
  145.9860   73.2470  219.4930 C   0  0  0  0  0  0  0  0  0  0  0  0
  145.4900   73.7590  220.8200 C   0  0  0  0  0  0  0  0  0  0  0  0
  144.0060   73.9650  220.7210 C   0  0  1  0  0  0  0  0  0  0  0  0
  143.6490   74.9860  219.7230 C   0  0  0  0  0  0  0  0  0  0  0  0
  143.6310   74.6540  218.3570 C   0  0  0  0  0  0  0  0  0  0  0  0
  143.3080   75.5860  217.3950 C   0  0  0  0  0  0  0  0  0  0  0  0
  142.9840   76.9000  217.7490 C   0  0  0  0  0  0  0  0  0  0  0  0
  143.0140   77.1820  219.0940 C   0  0  0  0  0  0  0  0  0  0  0  0
  143.3310   76.2610  219.9960 N   0  0  0  0  0  0  0  0  0  0  0  0
  140.2520   76.9530  222.1750 C   0  0  0  0  0  0  0  0  0  0  0  0
  139.2770   77.7830  221.7140 C   0  0  0  0  0  0  0  0  0  0  0  0
  139.3330   79.1640  221.8090 C   0  0  0  0  0  0  0  0  0  0  0  0
  140.4580   79.7170  222.4140 C   0  0  0  0  0  0  0  0  0  0  0  0
  140.6030   81.0890  222.5540 C   0  0  0  0  0  0  0  0  0  0  0  0
  139.3570   82.1690  221.9660 Cl  0  0  0  0  0  0  0  0  0  0  0  0
  141.7310   81.6420  223.1620 C   0  0  0  0  0  0  0  0  0  0  0  0
  142.6880   80.7520  223.6110 C   0  0  0  0  0  0  0  0  0  0  0  0
  142.5680   79.3970  223.4830 C   0  0  0  0  0  0  0  0  0  0  0  0
  141.4460   78.8660  222.8810 C   0  0  0  0  0  0  0  0  0  0  0  0
  141.3360   77.5160  222.7590 N   0  0  0  0  0  0  0  0  0  0  0  0
  142.2000   75.2500  221.5330 H   0  0  0  0  0  0  0  0  0  0  0  0
  141.2197   72.9004  222.5577 H   0  0  0  0  0  0  0  0  0  0  0  0
  140.1320   73.2332  221.0678 H   0  0  0  0  0  0  0  0  0  0  0  0
  144.8661   71.2777  221.0111 H   0  0  0  0  0  0  0  0  0  0  0  0
  143.6933   70.7176  219.7758 H   0  0  0  0  0  0  0  0  0  0  0  0
  145.9352   71.2469  218.7652 H   0  0  0  0  0  0  0  0  0  0  0  0
  144.6476   72.3173  218.1211 H   0  0  0  0  0  0  0  0  0  0  0  0
  147.0465   72.9737  219.5957 H   0  0  0  0  0  0  0  0  0  0  0  0
  145.8413   74.0483  218.7534 H   0  0  0  0  0  0  0  0  0  0  0  0
  145.7118   73.0247  221.6084 H   0  0  0  0  0  0  0  0  0  0  0  0
  145.9883   74.7071  221.0707 H   0  0  0  0  0  0  0  0  0  0  0  0
  143.6076   74.3747  221.6609 H   0  0  0  0  0  0  0  0  0  0  0  0
  143.8802   73.6277  218.0495 H   0  0  0  0  0  0  0  0  0  0  0  0
  143.3049   75.2930  216.3348 H   0  0  0  0  0  0  0  0  0  0  0  0
  142.7217   77.6599  216.9981 H   0  0  0  0  0  0  0  0  0  0  0  0
  142.7685   78.1994  219.4324 H   0  0  0  0  0  0  0  0  0  0  0  0
  138.3937   77.3314  221.2387 H   0  0  0  0  0  0  0  0  0  0  0  0
  138.5214   79.7977  221.4221 H   0  0  0  0  0  0  0  0  0  0  0  0
  141.8519   82.7292  223.2777 H   0  0  0  0  0  0  0  0  0  0  0  0
  143.5903   81.1540  224.0950 H   0  0  0  0  0  0  0  0  0  0  0  0
  143.3613   78.7335  223.8577 H   0  0  0  0  0  0  0  0  0  0  0  0
  1  2  2  0
  2  3  1  0
  3  4  1  0
  4  5  1  0
  5  6  2  0
  5  7  1  0
  7  8  1  0
  8  9  1  0
  9 10  1  0
 10 11  1  0
 11 12  1  0
 12 13  1  0
 13 14  2  0
 14 15  1  0
 15 16  2  0
 16 17  1  0
 17 18  2  0
  2 19  1  0
 19 20  2  0
 20 21  1  0
 21 22  2  0
 22 23  1  0
 23 24  1  0
 23 25  2  0
 25 26  1  0
 26 27  2  0
 27 28  1  0
 28 29  2  0
 12  7  1  0
 18 13  1  0
 29 19  1  0
 28 22  1  0
  3 30  1  0
  4 31  1  0
  4 32  1  0
  8 33  1  0
  8 34  1  0
  9 35  1  0
  9 36  1  0
 10 37  1  0
 10 38  1  0
 11 39  1  0
 11 40  1  0
 12 41  1  1
 14 42  1  0
 15 43  1  0
 16 44  1  0
 17 45  1  0
 20 46  1  0
 21 47  1  0
 25 48  1  0
 26 49  1  0
 27 50  1  0
M  END
>  <smiles>  (79) 
O=C(NCC(=O)N1CCCCC1c1ccccn1)c1ccc2c(Cl)cccc2n1

>  <score_type>  (79) 
oracle

>  <origin>  (79) 
autodockgpu

>  <m_score__min__energy>  (79) 
-8.9100000000000001

>  <m_primary>  (79) 
energy

>  <rmsd>  (79) 
7.392178064952421

>  <m_score__min__rmsd>  (79) 
7.392178064952421

>  <meeko>  (79) 
{"free_energy": -7.39, "intermolecular_energy": -8.88, "internal_energy": -2.44, "cluster_size": 10, "cluster_id": 4, "rank_in_cluster": 6}

>  <energy>  (79) 
-7.3

>  <cluster_rmsd>  (79) 
0.23

>  <cluster>  (79) 
5

$$$$

     RDKit          3D

 50 53  0  0  0  0  0  0  0  0999 V2000
  139.3670   74.0310  221.7160 O   0  0  0  0  0  0  0  0  0  0  0  0
  140.4750   74.6170  221.6100 C   0  0  0  0  0  0  0  0  0  0  0  0
  140.6160   76.0270  221.9210 N   0  0  0  0  0  0  0  0  0  0  0  0
  139.4370   76.7040  222.3510 C   0  0  0  0  0  0  0  0  0  0  0  0
  139.4010   78.1650  222.3340 C   0  0  0  0  0  0  0  0  0  0  0  0
  138.2240   78.6560  222.0610 O   0  0  0  0  0  0  0  0  0  0  0  0
  140.4190   79.1080  222.5580 N   0  0  0  0  0  0  0  0  0  0  0  0
  141.0490   79.4060  223.8170 C   0  0  0  0  0  0  0  0  0  0  0  0
  142.5730   79.4750  223.6120 C   0  0  0  0  0  0  0  0  0  0  0  0
  142.8820   80.5120  222.5860 C   0  0  0  0  0  0  0  0  0  0  0  0
  141.6470   81.0560  221.9160 C   0  0  0  0  0  0  0  0  0  0  0  0
  140.8430   79.8970  221.4010 C   0  0  1  0  0  0  0  0  0  0  0  0
  141.5650   79.1250  220.3770 C   0  0  0  0  0  0  0  0  0  0  0  0
  141.9010   79.7300  219.1530 C   0  0  0  0  0  0  0  0  0  0  0  0
  142.5720   79.0360  218.1690 C   0  0  0  0  0  0  0  0  0  0  0  0
  142.9420   77.7000  218.3590 C   0  0  0  0  0  0  0  0  0  0  0  0
  142.5950   77.1480  219.5690 C   0  0  0  0  0  0  0  0  0  0  0  0
  141.9480   77.8440  220.4960 N   0  0  0  0  0  0  0  0  0  0  0  0
  141.6580   73.8870  221.1680 C   0  0  0  0  0  0  0  0  0  0  0  0
  141.5480   72.6080  220.7180 C   0  0  0  0  0  0  0  0  0  0  0  0
  142.6220   71.8500  220.2820 C   0  0  0  0  0  0  0  0  0  0  0  0
  143.8790   72.4470  220.3110 C   0  0  0  0  0  0  0  0  0  0  0  0
  145.0120   71.7660  219.8940 C   0  0  0  0  0  0  0  0  0  0  0  0
  144.8850   70.1200  219.3140 Cl  0  0  0  0  0  0  0  0  0  0  0  0
  146.2720   72.3660  219.9240 C   0  0  0  0  0  0  0  0  0  0  0  0
  146.3250   73.6660  220.3890 C   0  0  0  0  0  0  0  0  0  0  0  0
  145.2220   74.3570  220.8070 C   0  0  0  0  0  0  0  0  0  0  0  0
  143.9830   73.7490  220.7700 C   0  0  0  0  0  0  0  0  0  0  0  0
  142.8920   74.4450  221.1870 N   0  0  0  0  0  0  0  0  0  0  0  0
  141.5640   76.4720  221.8160 H   0  0  0  0  0  0  0  0  0  0  0  0
  138.6153   76.3559  221.7079 H   0  0  0  0  0  0  0  0  0  0  0  0
  139.3713   76.4557  223.4206 H   0  0  0  0  0  0  0  0  0  0  0  0
  140.6834   80.3732  224.1924 H   0  0  0  0  0  0  0  0  0  0  0  0
  140.8080   78.6201  224.5479 H   0  0  0  0  0  0  0  0  0  0  0  0
  143.0606   79.7400  224.5617 H   0  0  0  0  0  0  0  0  0  0  0  0
  142.9456   78.4969  223.2735 H   0  0  0  0  0  0  0  0  0  0  0  0
  143.4119   81.3430  223.0746 H   0  0  0  0  0  0  0  0  0  0  0  0
  143.4982   80.0361  221.8090 H   0  0  0  0  0  0  0  0  0  0  0  0
  141.0514   81.6290  222.6419 H   0  0  0  0  0  0  0  0  0  0  0  0
  141.9270   81.7223  221.0868 H   0  0  0  0  0  0  0  0  0  0  0  0
  139.9481   80.2519  220.8688 H   0  0  0  0  0  0  0  0  0  0  0  0
  141.6225   80.7795  218.9769 H   0  0  0  0  0  0  0  0  0  0  0  0
  142.8197   79.5388  217.2225 H   0  0  0  0  0  0  0  0  0  0  0  0
  143.4774   77.1269  217.5877 H   0  0  0  0  0  0  0  0  0  0  0  0
  142.8607   76.1006  219.7749 H   0  0  0  0  0  0  0  0  0  0  0  0
  140.5484   72.1493  220.6993 H   0  0  0  0  0  0  0  0  0  0  0  0
  142.4870   70.8176  219.9270 H   0  0  0  0  0  0  0  0  0  0  0  0
  147.1754   71.8318  219.5947 H   0  0  0  0  0  0  0  0  0  0  0  0
  147.3024   74.1695  220.4246 H   0  0  0  0  0  0  0  0  0  0  0  0
  145.3210   75.3905  221.1704 H   0  0  0  0  0  0  0  0  0  0  0  0
  1  2  2  0
  2  3  1  0
  3  4  1  0
  4  5  1  0
  5  6  2  0
  5  7  1  0
  7  8  1  0
  8  9  1  0
  9 10  1  0
 10 11  1  0
 11 12  1  0
 12 13  1  0
 13 14  2  0
 14 15  1  0
 15 16  2  0
 16 17  1  0
 17 18  2  0
  2 19  1  0
 19 20  2  0
 20 21  1  0
 21 22  2  0
 22 23  1  0
 23 24  1  0
 23 25  2  0
 25 26  1  0
 26 27  2  0
 27 28  1  0
 28 29  2  0
 12  7  1  0
 18 13  1  0
 29 19  1  0
 28 22  1  0
  3 30  1  0
  4 31  1  0
  4 32  1  0
  8 33  1  0
  8 34  1  0
  9 35  1  0
  9 36  1  0
 10 37  1  0
 10 38  1  0
 11 39  1  0
 11 40  1  0
 12 41  1  6
 14 42  1  0
 15 43  1  0
 16 44  1  0
 17 45  1  0
 20 46  1  0
 21 47  1  0
 25 48  1  0
 26 49  1  0
 27 50  1  0
M  END
>  <smiles>  (80) 
O=C(NCC(=O)N1CCCCC1c1ccccn1)c1ccc2c(Cl)cccc2n1

>  <score_type>  (80) 
oracle

>  <origin>  (80) 
autodockgpu

>  <m_score__min__energy>  (80) 
-8.9100000000000001

>  <m_primary>  (80) 
energy

>  <rmsd>  (80) 
5.970962199902822

>  <m_score__min__rmsd>  (80) 
5.970962199902822

>  <meeko>  (80) 
{"free_energy": -7.31, "intermolecular_energy": -8.8, "internal_energy": -2.87, "cluster_size": 22, "cluster_id": 5, "rank_in_cluster": 1}

>  <energy>  (80) 
-7.3

>  <cluster_rmsd>  (80) 
0.03

>  <cluster>  (80) 
5

$$$$

     RDKit          3D

 50 53  0  0  0  0  0  0  0  0999 V2000
  140.7220   72.0460  221.0790 O   0  0  0  0  0  0  0  0  0  0  0  0
  140.3220   72.5440  222.1630 C   0  0  0  0  0  0  0  0  0  0  0  0
  139.8840   73.9250  222.2420 N   0  0  0  0  0  0  0  0  0  0  0  0
  139.9310   74.6770  221.0310 C   0  0  0  0  0  0  0  0  0  0  0  0
  139.7530   76.1260  221.0790 C   0  0  0  0  0  0  0  0  0  0  0  0
  139.1430   76.5440  222.1530 O   0  0  0  0  0  0  0  0  0  0  0  0
  140.1260   77.1240  220.1620 N   0  0  0  0  0  0  0  0  0  0  0  0
  139.3310   77.6300  219.0740 C   0  0  0  0  0  0  0  0  0  0  0  0
  139.4100   79.1670  219.0660 C   0  0  0  0  0  0  0  0  0  0  0  0
  140.8370   79.5830  218.9410 C   0  0  0  0  0  0  0  0  0  0  0  0
  141.7940   78.4240  219.0460 C   0  0  0  0  0  0  0  0  0  0  0  0
  141.4780   77.6660  220.3030 C   0  0  1  0  0  0  0  0  0  0  0  0
  141.6780   78.4800  221.5120 C   0  0  0  0  0  0  0  0  0  0  0  0
  141.4500   77.9170  222.7800 C   0  0  0  0  0  0  0  0  0  0  0  0
  141.6210   78.6510  223.9340 C   0  0  0  0  0  0  0  0  0  0  0  0
  142.0310   79.9880  223.8800 C   0  0  0  0  0  0  0  0  0  0  0  0
  142.2430   80.4980  222.6210 C   0  0  0  0  0  0  0  0  0  0  0  0
  142.0680   79.7640  221.5290 N   0  0  0  0  0  0  0  0  0  0  0  0
  140.2890   71.7390  223.3790 C   0  0  0  0  0  0  0  0  0  0  0  0
  139.8350   70.4580  223.3420 C   0  0  0  0  0  0  0  0  0  0  0  0
  139.7730   69.6310  224.4520 C   0  0  0  0  0  0  0  0  0  0  0  0
  140.2030   70.1580  225.6660 C   0  0  0  0  0  0  0  0  0  0  0  0
  140.1780   69.4060  226.8300 C   0  0  0  0  0  0  0  0  0  0  0  0
  139.5960   67.7560  226.7980 Cl  0  0  0  0  0  0  0  0  0  0  0  0
  140.6110   69.9360  228.0470 C   0  0  0  0  0  0  0  0  0  0  0  0
  141.0620   71.2420  228.0250 C   0  0  0  0  0  0  0  0  0  0  0  0
  141.0950   72.0030  226.8910 C   0  0  0  0  0  0  0  0  0  0  0  0
  140.6640   71.4630  225.6960 C   0  0  0  0  0  0  0  0  0  0  0  0
  140.7020   72.2280  224.5720 N   0  0  0  0  0  0  0  0  0  0  0  0
  139.5590   74.2960  223.1710 H   0  0  0  0  0  0  0  0  0  0  0  0
  140.9148   74.4900  220.5758 H   0  0  0  0  0  0  0  0  0  0  0  0
  139.0501   74.3259  220.4735 H   0  0  0  0  0  0  0  0  0  0  0  0
  139.7162   77.2362  218.1219 H   0  0  0  0  0  0  0  0  0  0  0  0
  138.2852   77.3130  219.2000 H   0  0  0  0  0  0  0  0  0  0  0  0
  138.8358   79.5607  218.2143 H   0  0  0  0  0  0  0  0  0  0  0  0
  138.9894   79.5640  220.0017 H   0  0  0  0  0  0  0  0  0  0  0  0
  140.9776   80.0675  217.9635 H   0  0  0  0  0  0  0  0  0  0  0  0
  141.0559   80.2698  219.7719 H   0  0  0  0  0  0  0  0  0  0  0  0
  141.6765   77.7640  218.1739 H   0  0  0  0  0  0  0  0  0  0  0  0
  142.8312   78.7894  219.0737 H   0  0  0  0  0  0  0  0  0  0  0  0
  142.1799   76.8300  220.4388 H   0  0  0  0  0  0  0  0  0  0  0  0
  141.1281   76.8677  222.8527 H   0  0  0  0  0  0  0  0  0  0  0  0
  141.4328   78.1798  224.9100 H   0  0  0  0  0  0  0  0  0  0  0  0
  142.1746   80.5927  224.7876 H   0  0  0  0  0  0  0  0  0  0  0  0
  142.5668   81.5440  222.5156 H   0  0  0  0  0  0  0  0  0  0  0  0
  139.4976   70.0551  222.3756 H   0  0  0  0  0  0  0  0  0  0  0  0
  139.3989   68.5993  224.3766 H   0  0  0  0  0  0  0  0  0  0  0  0
  140.5940   69.3450  228.9746 H   0  0  0  0  0  0  0  0  0  0  0  0
  141.4115   71.6907  228.9665 H   0  0  0  0  0  0  0  0  0  0  0  0
  141.4625   73.0391  226.9299 H   0  0  0  0  0  0  0  0  0  0  0  0
  1  2  2  0
  2  3  1  0
  3  4  1  0
  4  5  1  0
  5  6  2  0
  5  7  1  0
  7  8  1  0
  8  9  1  0
  9 10  1  0
 10 11  1  0
 11 12  1  0
 12 13  1  0
 13 14  2  0
 14 15  1  0
 15 16  2  0
 16 17  1  0
 17 18  2  0
  2 19  1  0
 19 20  2  0
 20 21  1  0
 21 22  2  0
 22 23  1  0
 23 24  1  0
 23 25  2  0
 25 26  1  0
 26 27  2  0
 27 28  1  0
 28 29  2  0
 12  7  1  0
 18 13  1  0
 29 19  1  0
 28 22  1  0
  3 30  1  0
  4 31  1  0
  4 32  1  0
  8 33  1  0
  8 34  1  0
  9 35  1  0
  9 36  1  0
 10 37  1  0
 10 38  1  0
 11 39  1  0
 11 40  1  0
 12 41  1  1
 14 42  1  0
 15 43  1  0
 16 44  1  0
 17 45  1  0
 20 46  1  0
 21 47  1  0
 25 48  1  0
 26 49  1  0
 27 50  1  0
M  END
>  <smiles>  (81) 
O=C(NCC(=O)N1CCCCC1c1ccccn1)c1ccc2c(Cl)cccc2n1

>  <score_type>  (81) 
oracle

>  <origin>  (81) 
autodockgpu

>  <m_score__min__energy>  (81) 
-8.9100000000000001

>  <m_primary>  (81) 
energy

>  <rmsd>  (81) 
2.612125872935168

>  <m_score__min__rmsd>  (81) 
2.612125872935168

>  <meeko>  (81) 
{"free_energy": -8.69, "intermolecular_energy": -10.18, "internal_energy": -1.42, "cluster_size": 8, "cluster_id": 1, "rank_in_cluster": 4}

>  <energy>  (81) 
-7.3

>  <cluster_rmsd>  (81) 
0.21

>  <cluster>  (81) 
5

$$$$

     RDKit          3D

 50 53  0  0  0  0  0  0  0  0999 V2000
  139.7100   74.0190  222.3450 O   0  0  0  0  0  0  0  0  0  0  0  0
  140.1720   74.9660  221.6570 C   0  0  0  0  0  0  0  0  0  0  0  0
  140.7920   74.7290  220.3670 N   0  0  0  0  0  0  0  0  0  0  0  0
  140.8460   73.3730  219.9270 C   0  0  0  0  0  0  0  0  0  0  0  0
  141.8960   72.4940  220.4350 C   0  0  0  0  0  0  0  0  0  0  0  0
  141.4420   71.4320  221.0410 O   0  0  0  0  0  0  0  0  0  0  0  0
  143.2950   72.6130  220.3780 N   0  0  0  0  0  0  0  0  0  0  0  0
  144.2340   71.5590  220.0970 C   0  0  0  0  0  0  0  0  0  0  0  0
  145.2720   72.0700  219.0810 C   0  0  0  0  0  0  0  0  0  0  0  0
  145.9520   73.2750  219.6390 C   0  0  0  0  0  0  0  0  0  0  0  0
  145.3240   73.7580  220.9200 C   0  0  0  0  0  0  0  0  0  0  0  0
  143.8500   73.9310  220.6850 C   0  0  1  0  0  0  0  0  0  0  0  0
  143.5630   74.9570  219.6690 C   0  0  0  0  0  0  0  0  0  0  0  0
  143.6380   74.6300  218.3040 C   0  0  0  0  0  0  0  0  0  0  0  0
  143.3820   75.5670  217.3250 C   0  0  0  0  0  0  0  0  0  0  0  0
  143.0370   76.8800  217.6620 C   0  0  0  0  0  0  0  0  0  0  0  0
  142.9750   77.1570  219.0070 C   0  0  0  0  0  0  0  0  0  0  0  0
  143.2290   76.2310  219.9250 N   0  0  0  0  0  0  0  0  0  0  0  0
  140.0960   76.3390  222.1440 C   0  0  0  0  0  0  0  0  0  0  0  0
  138.9080   76.8560  222.5590 C   0  0  0  0  0  0  0  0  0  0  0  0
  138.7540   78.1480  223.0340 C   0  0  0  0  0  0  0  0  0  0  0  0
  139.8910   78.9500  223.0820 C   0  0  0  0  0  0  0  0  0  0  0  0
  139.8350   80.2560  223.5420 C   0  0  0  0  0  0  0  0  0  0  0  0
  138.3140   80.9350  224.0790 Cl  0  0  0  0  0  0  0  0  0  0  0  0
  140.9760   81.0590  223.5910 C   0  0  0  0  0  0  0  0  0  0  0  0
  142.1540   80.4820  223.1580 C   0  0  0  0  0  0  0  0  0  0  0  0
  142.2350   79.1970  222.6990 C   0  0  0  0  0  0  0  0  0  0  0  0
  141.0970   78.4170  222.6580 C   0  0  0  0  0  0  0  0  0  0  0  0
  141.1870   77.1390  222.2010 N   0  0  0  0  0  0  0  0  0  0  0  0
  141.1640   75.5530  219.8300 H   0  0  0  0  0  0  0  0  0  0  0  0
  139.8844   72.9110  220.1950 H   0  0  0  0  0  0  0  0  0  0  0  0
  141.0762   73.4580  218.8547 H   0  0  0  0  0  0  0  0  0  0  0  0
  144.7427   71.2610  221.0257 H   0  0  0  0  0  0  0  0  0  0  0  0
  143.7035   70.6898  219.6810 H   0  0  0  0  0  0  0  0  0  0  0  0
  146.0165   71.2835  218.8883 H   0  0  0  0  0  0  0  0  0  0  0  0
  144.7689   72.3325  218.1387 H   0  0  0  0  0  0  0  0  0  0  0  0
  147.0049   73.0249  219.8361 H   0  0  0  0  0  0  0  0  0  0  0  0
  145.8566   74.0824  218.8980 H   0  0  0  0  0  0  0  0  0  0  0  0
  145.4896   73.0188  221.7176 H   0  0  0  0  0  0  0  0  0  0  0  0
  145.7743   74.7136  221.2269 H   0  0  0  0  0  0  0  0  0  0  0  0
  143.3562   74.3188  221.5882 H   0  0  0  0  0  0  0  0  0  0  0  0
  143.9067   73.6045  218.0103 H   0  0  0  0  0  0  0  0  0  0  0  0
  143.4500   75.2782  216.2658 H   0  0  0  0  0  0  0  0  0  0  0  0
  142.8283   77.6435  216.8981 H   0  0  0  0  0  0  0  0  0  0  0  0
  142.7077   78.1733  219.3321 H   0  0  0  0  0  0  0  0  0  0  0  0
  138.0183   76.2107  222.5148 H   0  0  0  0  0  0  0  0  0  0  0  0
  137.7734   78.5250  223.3600 H   0  0  0  0  0  0  0  0  0  0  0  0
  140.9389   82.0963  223.9552 H   0  0  0  0  0  0  0  0  0  0  0  0
  143.0726   81.0867  223.1839 H   0  0  0  0  0  0  0  0  0  0  0  0
  143.1998   78.7877  222.3649 H   0  0  0  0  0  0  0  0  0  0  0  0
  1  2  2  0
  2  3  1  0
  3  4  1  0
  4  5  1  0
  5  6  2  0
  5  7  1  0
  7  8  1  0
  8  9  1  0
  9 10  1  0
 10 11  1  0
 11 12  1  0
 12 13  1  0
 13 14  2  0
 14 15  1  0
 15 16  2  0
 16 17  1  0
 17 18  2  0
  2 19  1  0
 19 20  2  0
 20 21  1  0
 21 22  2  0
 22 23  1  0
 23 24  1  0
 23 25  2  0
 25 26  1  0
 26 27  2  0
 27 28  1  0
 28 29  2  0
 12  7  1  0
 18 13  1  0
 29 19  1  0
 28 22  1  0
  3 30  1  0
  4 31  1  0
  4 32  1  0
  8 33  1  0
  8 34  1  0
  9 35  1  0
  9 36  1  0
 10 37  1  0
 10 38  1  0
 11 39  1  0
 11 40  1  0
 12 41  1  1
 14 42  1  0
 15 43  1  0
 16 44  1  0
 17 45  1  0
 20 46  1  0
 21 47  1  0
 25 48  1  0
 26 49  1  0
 27 50  1  0
M  END
>  <smiles>  (82) 
O=C(NCC(=O)N1CCCCC1c1ccccn1)c1ccc2c(Cl)cccc2n1

>  <score_type>  (82) 
oracle

>  <origin>  (82) 
autodockgpu

>  <m_score__min__energy>  (82) 
-8.9100000000000001

>  <m_primary>  (82) 
energy

>  <rmsd>  (82) 
7.111370378809697

>  <m_score__min__rmsd>  (82) 
7.111370378809697

>  <meeko>  (82) 
{"free_energy": -7.63, "intermolecular_energy": -9.12, "internal_energy": -2.46, "cluster_size": 10, "cluster_id": 4, "rank_in_cluster": 4}

>  <energy>  (82) 
-7.29

>  <cluster_rmsd>  (82) 
0.25

>  <cluster>  (82) 
5

$$$$

     RDKit          3D

 50 53  0  0  0  0  0  0  0  0999 V2000
  139.2180   74.0580  221.6880 O   0  0  0  0  0  0  0  0  0  0  0  0
  140.3680   74.5630  221.6380 C   0  0  0  0  0  0  0  0  0  0  0  0
  140.6110   75.9320  222.0540 N   0  0  0  0  0  0  0  0  0  0  0  0
  139.4790   76.6640  222.5200 C   0  0  0  0  0  0  0  0  0  0  0  0
  139.4250   78.1090  222.3170 C   0  0  0  0  0  0  0  0  0  0  0  0
  138.2620   78.5380  221.9130 O   0  0  0  0  0  0  0  0  0  0  0  0
  140.4150   79.0940  222.4810 N   0  0  0  0  0  0  0  0  0  0  0  0
  141.0490   79.4740  223.7170 C   0  0  0  0  0  0  0  0  0  0  0  0
  142.5670   79.5810  223.4890 C   0  0  0  0  0  0  0  0  0  0  0  0
  142.8320   80.5750  222.4090 C   0  0  0  0  0  0  0  0  0  0  0  0
  141.5730   81.0450  221.7290 C   0  0  0  0  0  0  0  0  0  0  0  0
  140.8010   79.8370  221.2820 C   0  0  1  0  0  0  0  0  0  0  0  0
  141.5360   79.0390  220.2890 C   0  0  0  0  0  0  0  0  0  0  0  0
  141.8440   79.5930  219.0340 C   0  0  0  0  0  0  0  0  0  0  0  0
  142.5260   78.8730  218.0770 C   0  0  0  0  0  0  0  0  0  0  0  0
  142.9370   77.5590  218.3260 C   0  0  0  0  0  0  0  0  0  0  0  0
  142.6160   77.0560  219.5650 C   0  0  0  0  0  0  0  0  0  0  0  0
  141.9570   77.7770  220.4640 N   0  0  0  0  0  0  0  0  0  0  0  0
  141.5000   73.7790  221.1550 C   0  0  0  0  0  0  0  0  0  0  0  0
  141.3320   72.4760  220.8020 C   0  0  0  0  0  0  0  0  0  0  0  0
  142.3550   71.6670  220.3350 C   0  0  0  0  0  0  0  0  0  0  0  0
  143.6200   72.2360  220.2270 C   0  0  0  0  0  0  0  0  0  0  0  0
  144.7050   71.5040  219.7700 C   0  0  0  0  0  0  0  0  0  0  0  0
  144.5040   69.8270  219.3120 Cl  0  0  0  0  0  0  0  0  0  0  0  0
  145.9740   72.0760  219.6620 C   0  0  0  0  0  0  0  0  0  0  0  0
  146.0860   73.4020  220.0340 C   0  0  0  0  0  0  0  0  0  0  0  0
  145.0320   74.1430  220.4890 C   0  0  0  0  0  0  0  0  0  0  0  0
  143.7840   73.5630  220.5890 C   0  0  0  0  0  0  0  0  0  0  0  0
  142.7410   74.3090  221.0410 N   0  0  0  0  0  0  0  0  0  0  0  0
  141.5900   76.3100  221.9920 H   0  0  0  0  0  0  0  0  0  0  0  0
  138.5952   76.2376  222.0228 H   0  0  0  0  0  0  0  0  0  0  0  0
  139.5347   76.5582  223.6135 H   0  0  0  0  0  0  0  0  0  0  0  0
  140.6565   80.4464  224.0491 H   0  0  0  0  0  0  0  0  0  0  0  0
  140.8414   78.7183  224.4889 H   0  0  0  0  0  0  0  0  0  0  0  0
  143.0564   79.9081  224.4182 H   0  0  0  0  0  0  0  0  0  0  0  0
  142.9664   78.5995  223.1939 H   0  0  0  0  0  0  0  0  0  0  0  0
  143.3401   81.4457  222.8492 H   0  0  0  0  0  0  0  0  0  0  0  0
  143.4552   80.0811  221.6490 H   0  0  0  0  0  0  0  0  0  0  0  0
  140.9673   81.6341  222.4333 H   0  0  0  0  0  0  0  0  0  0  0  0
  141.8222   81.6776  220.8643 H   0  0  0  0  0  0  0  0  0  0  0  0
  139.8893   80.1363  220.7442 H   0  0  0  0  0  0  0  0  0  0  0  0
  141.5336   80.6244  218.8109 H   0  0  0  0  0  0  0  0  0  0  0  0
  142.7500   79.3372  217.1052 H   0  0  0  0  0  0  0  0  0  0  0  0
  143.4827   76.9655  217.5777 H   0  0  0  0  0  0  0  0  0  0  0  0
  142.9135   76.0277  219.8182 H   0  0  0  0  0  0  0  0  0  0  0  0
  140.3263   72.0398  220.8926 H   0  0  0  0  0  0  0  0  0  0  0  0
  142.1744   70.6172  220.0607 H   0  0  0  0  0  0  0  0  0  0  0  0
  146.8392   71.5013  219.2998 H   0  0  0  0  0  0  0  0  0  0  0  0
  147.0717   73.8846  219.9603 H   0  0  0  0  0  0  0  0  0  0  0  0
  145.1775   75.1955  220.7738 H   0  0  0  0  0  0  0  0  0  0  0  0
  1  2  2  0
  2  3  1  0
  3  4  1  0
  4  5  1  0
  5  6  2  0
  5  7  1  0
  7  8  1  0
  8  9  1  0
  9 10  1  0
 10 11  1  0
 11 12  1  0
 12 13  1  0
 13 14  2  0
 14 15  1  0
 15 16  2  0
 16 17  1  0
 17 18  2  0
  2 19  1  0
 19 20  2  0
 20 21  1  0
 21 22  2  0
 22 23  1  0
 23 24  1  0
 23 25  2  0
 25 26  1  0
 26 27  2  0
 27 28  1  0
 28 29  2  0
 12  7  1  0
 18 13  1  0
 29 19  1  0
 28 22  1  0
  3 30  1  0
  4 31  1  0
  4 32  1  0
  8 33  1  0
  8 34  1  0
  9 35  1  0
  9 36  1  0
 10 37  1  0
 10 38  1  0
 11 39  1  0
 11 40  1  0
 12 41  1  6
 14 42  1  0
 15 43  1  0
 16 44  1  0
 17 45  1  0
 20 46  1  0
 21 47  1  0
 25 48  1  0
 26 49  1  0
 27 50  1  0
M  END
>  <smiles>  (83) 
O=C(NCC(=O)N1CCCCC1c1ccccn1)c1ccc2c(Cl)cccc2n1

>  <score_type>  (83) 
oracle

>  <origin>  (83) 
autodockgpu

>  <m_score__min__energy>  (83) 
-8.9100000000000001

>  <m_primary>  (83) 
energy

>  <rmsd>  (83) 
5.927620668113253

>  <m_score__min__rmsd>  (83) 
5.927620668113253

>  <meeko>  (83) 
{"free_energy": -7.28, "intermolecular_energy": -8.77, "internal_energy": -2.9, "cluster_size": 22, "cluster_id": 5, "rank_in_cluster": 9}

>  <energy>  (83) 
-7.28

>  <cluster_rmsd>  (83) 
0.22

>  <cluster>  (83) 
5

$$$$

     RDKit          3D

 50 53  0  0  0  0  0  0  0  0999 V2000
  139.6680   73.8100  222.3290 O   0  0  0  0  0  0  0  0  0  0  0  0
  140.2760   72.7090  222.2860 C   0  0  0  0  0  0  0  0  0  0  0  0
  140.9840   72.2850  221.0920 N   0  0  0  0  0  0  0  0  0  0  0  0
  140.9510   73.1800  219.9820 C   0  0  0  0  0  0  0  0  0  0  0  0
  142.1110   74.0260  219.7080 C   0  0  0  0  0  0  0  0  0  0  0  0
  141.8000   75.2370  219.3390 O   0  0  0  0  0  0  0  0  0  0  0  0
  143.4860   73.7420  219.7760 N   0  0  0  0  0  0  0  0  0  0  0  0
  144.4080   74.2030  220.7810 C   0  0  0  0  0  0  0  0  0  0  0  0
  145.2850   73.0220  221.2360 C   0  0  0  0  0  0  0  0  0  0  0  0
  145.9990   72.4590  220.0540 C   0  0  0  0  0  0  0  0  0  0  0  0
  145.5360   73.0580  218.7520 C   0  0  0  0  0  0  0  0  0  0  0  0
  144.0400   72.9390  218.6860 C   0  0  1  0  0  0  0  0  0  0  0  0
  143.5900   71.5380  218.6810 C   0  0  0  0  0  0  0  0  0  0  0  0
  143.6910   70.7740  217.5050 C   0  0  0  0  0  0  0  0  0  0  0  0
  143.2740   69.4610  217.4620 C   0  0  0  0  0  0  0  0  0  0  0  0
  142.7350   68.8430  218.5950 C   0  0  0  0  0  0  0  0  0  0  0  0
  142.6550   69.6240  219.7230 C   0  0  0  0  0  0  0  0  0  0  0  0
  143.0650   70.8870  219.7310 N   0  0  0  0  0  0  0  0  0  0  0  0
  140.2850   71.8230  223.4450 C   0  0  0  0  0  0  0  0  0  0  0  0
  139.8880   70.5280  223.3220 C   0  0  0  0  0  0  0  0  0  0  0  0
  139.8680   69.6260  224.3740 C   0  0  0  0  0  0  0  0  0  0  0  0
  140.2830   70.0880  225.6190 C   0  0  0  0  0  0  0  0  0  0  0  0
  140.2980   69.2590  226.7300 C   0  0  0  0  0  0  0  0  0  0  0  0
  139.7890   67.5900  226.5870 Cl  0  0  0  0  0  0  0  0  0  0  0  0
  140.7140   69.7240  227.9780 C   0  0  0  0  0  0  0  0  0  0  0  0
  141.1070   71.0470  228.0440 C   0  0  0  0  0  0  0  0  0  0  0  0
  141.1000   71.8840  226.9640 C   0  0  0  0  0  0  0  0  0  0  0  0
  140.6860   71.4080  225.7360 C   0  0  0  0  0  0  0  0  0  0  0  0
  140.6840   72.2480  224.6670 N   0  0  0  0  0  0  0  0  0  0  0  0
  141.4770   71.3560  221.1050 H   0  0  0  0  0  0  0  0  0  0  0  0
  140.7801   72.5695  219.0831 H   0  0  0  0  0  0  0  0  0  0  0  0
  140.1633   73.8990  220.2516 H   0  0  0  0  0  0  0  0  0  0  0  0
  145.0452   74.9954  220.3613 H   0  0  0  0  0  0  0  0  0  0  0  0
  143.8510   74.6050  221.6401 H   0  0  0  0  0  0  0  0  0  0  0  0
  146.0188   73.3724  221.9768 H   0  0  0  0  0  0  0  0  0  0  0  0
  144.6527   72.2453  221.6909 H   0  0  0  0  0  0  0  0  0  0  0  0
  147.0754   72.6548  220.1677 H   0  0  0  0  0  0  0  0  0  0  0  0
  145.7815   71.3813  220.0184 H   0  0  0  0  0  0  0  0  0  0  0  0
  145.8276   74.1176  218.7051 H   0  0  0  0  0  0  0  0  0  0  0  0
  145.9969   72.5285  217.9051 H   0  0  0  0  0  0  0  0  0  0  0  0
  143.6616   73.3327  217.7311 H   0  0  0  0  0  0  0  0  0  0  0  0
  144.1122   71.2344  216.5991 H   0  0  0  0  0  0  0  0  0  0  0  0
  143.3663   68.8921  216.5250 H   0  0  0  0  0  0  0  0  0  0  0  0
  142.3961   67.7966  218.5839 H   0  0  0  0  0  0  0  0  0  0  0  0
  142.2398   69.1908  220.6449 H   0  0  0  0  0  0  0  0  0  0  0  0
  139.5644   70.1766  222.3312 H   0  0  0  0  0  0  0  0  0  0  0  0
  139.5373   68.5867  224.2304 H   0  0  0  0  0  0  0  0  0  0  0  0
  140.7284   69.0713  228.8633 H   0  0  0  0  0  0  0  0  0  0  0  0
  141.4417   71.4458  229.0130 H   0  0  0  0  0  0  0  0  0  0  0  0
  141.4221   72.9302  227.0723 H   0  0  0  0  0  0  0  0  0  0  0  0
  1  2  2  0
  2  3  1  0
  3  4  1  0
  4  5  1  0
  5  6  2  0
  5  7  1  0
  7  8  1  0
  8  9  1  0
  9 10  1  0
 10 11  1  0
 11 12  1  0
 12 13  1  0
 13 14  2  0
 14 15  1  0
 15 16  2  0
 16 17  1  0
 17 18  2  0
  2 19  1  0
 19 20  2  0
 20 21  1  0
 21 22  2  0
 22 23  1  0
 23 24  1  0
 23 25  2  0
 25 26  1  0
 26 27  2  0
 27 28  1  0
 28 29  2  0
 12  7  1  0
 18 13  1  0
 29 19  1  0
 28 22  1  0
  3 30  1  0
  4 31  1  0
  4 32  1  0
  8 33  1  0
  8 34  1  0
  9 35  1  0
  9 36  1  0
 10 37  1  0
 10 38  1  0
 11 39  1  0
 11 40  1  0
 12 41  1  6
 14 42  1  0
 15 43  1  0
 16 44  1  0
 17 45  1  0
 20 46  1  0
 21 47  1  0
 25 48  1  0
 26 49  1  0
 27 50  1  0
M  END
>  <smiles>  (84) 
O=C(NCC(=O)N1CCCCC1c1ccccn1)c1ccc2c(Cl)cccc2n1

>  <score_type>  (84) 
oracle

>  <origin>  (84) 
autodockgpu

>  <m_score__min__energy>  (84) 
-8.9100000000000001

>  <m_primary>  (84) 
energy

>  <rmsd>  (84) 
6.10733285618052

>  <m_score__min__rmsd>  (84) 
6.10733285618052

>  <meeko>  (84) 
{"free_energy": -7.27, "intermolecular_energy": -8.77, "internal_energy": -2.33, "cluster_size": 1, "cluster_id": 6, "rank_in_cluster": 1}

>  <energy>  (84) 
-7.28

>  <cluster_rmsd>  (84) 
0.25

>  <cluster>  (84) 
5

$$$$

     RDKit          3D

 50 53  0  0  0  0  0  0  0  0999 V2000
  140.5400   71.8240  221.1440 O   0  0  0  0  0  0  0  0  0  0  0  0
  140.1470   72.3000  222.2390 C   0  0  0  0  0  0  0  0  0  0  0  0
  139.6780   73.6690  222.3420 N   0  0  0  0  0  0  0  0  0  0  0  0
  139.6870   74.4360  221.1390 C   0  0  0  0  0  0  0  0  0  0  0  0
  140.7750   75.3810  220.8990 C   0  0  0  0  0  0  0  0  0  0  0  0
  141.1590   76.0200  221.9690 O   0  0  0  0  0  0  0  0  0  0  0  0
  141.4590   75.7070  219.7150 N   0  0  0  0  0  0  0  0  0  0  0  0
  141.4910   76.9930  219.0690 C   0  0  0  0  0  0  0  0  0  0  0  0
  142.9410   77.3180  218.6700 C   0  0  0  0  0  0  0  0  0  0  0  0
  143.4560   76.2430  217.7740 C   0  0  0  0  0  0  0  0  0  0  0  0
  142.5110   75.0750  217.6630 C   0  0  0  0  0  0  0  0  0  0  0  0
  142.1680   74.6140  219.0500 C   0  0  1  0  0  0  0  0  0  0  0  0
  143.3470   74.1260  219.7840 C   0  0  0  0  0  0  0  0  0  0  0  0
  143.4340   72.7700  220.1460 C   0  0  0  0  0  0  0  0  0  0  0  0
  144.5200   72.2790  220.8390 C   0  0  0  0  0  0  0  0  0  0  0  0
  145.5760   73.1200  221.2060 C   0  0  0  0  0  0  0  0  0  0  0  0
  145.4510   74.4370  220.8330 C   0  0  0  0  0  0  0  0  0  0  0  0
  144.3910   74.8780  220.1660 N   0  0  0  0  0  0  0  0  0  0  0  0
  140.1520   71.4810  223.4460 C   0  0  0  0  0  0  0  0  0  0  0  0
  139.7030   70.1980  223.4080 C   0  0  0  0  0  0  0  0  0  0  0  0
  139.6760   69.3580  224.5090 C   0  0  0  0  0  0  0  0  0  0  0  0
  140.1390   69.8730  225.7160 C   0  0  0  0  0  0  0  0  0  0  0  0
  140.1510   69.1070  226.8720 C   0  0  0  0  0  0  0  0  0  0  0  0
  139.5760   67.4550  226.8370 Cl  0  0  0  0  0  0  0  0  0  0  0  0
  140.6160   69.6250  228.0810 C   0  0  0  0  0  0  0  0  0  0  0  0
  141.0610   70.9330  228.0620 C   0  0  0  0  0  0  0  0  0  0  0  0
  141.0580   71.7070  226.9360 C   0  0  0  0  0  0  0  0  0  0  0  0
  140.5950   71.1800  225.7480 C   0  0  0  0  0  0  0  0  0  0  0  0
  140.5970   71.9580  224.6330 N   0  0  0  0  0  0  0  0  0  0  0  0
  139.3600   74.0220  223.2800 H   0  0  0  0  0  0  0  0  0  0  0  0
  139.6935   73.7209  220.3032 H   0  0  0  0  0  0  0  0  0  0  0  0
  138.8005   75.0801  221.2354 H   0  0  0  0  0  0  0  0  0  0  0  0
  140.8576   76.9698  218.1700 H   0  0  0  0  0  0  0  0  0  0  0  0
  141.1136   77.7637  219.7571 H   0  0  0  0  0  0  0  0  0  0  0  0
  142.9698   78.2824  218.1417 H   0  0  0  0  0  0  0  0  0  0  0  0
  143.5676   77.3788  219.5720 H   0  0  0  0  0  0  0  0  0  0  0  0
  143.6117   76.6660  216.7706 H   0  0  0  0  0  0  0  0  0  0  0  0
  144.3949   75.8700  218.2090 H   0  0  0  0  0  0  0  0  0  0  0  0
  141.5961   75.3852  217.1370 H   0  0  0  0  0  0  0  0  0  0  0  0
  142.9825   74.2579  217.0973 H   0  0  0  0  0  0  0  0  0  0  0  0
  141.5063   73.7360  219.0143 H   0  0  0  0  0  0  0  0  0  0  0  0
  142.6178   72.0861  219.8702 H   0  0  0  0  0  0  0  0  0  0  0  0
  144.5566   71.2127  221.1067 H   0  0  0  0  0  0  0  0  0  0  0  0
  146.4521   72.7502  221.7588 H   0  0  0  0  0  0  0  0  0  0  0  0
  146.2512   75.1451  221.0943 H   0  0  0  0  0  0  0  0  0  0  0  0
  139.3402   69.8044  222.4471 H   0  0  0  0  0  0  0  0  0  0  0  0
  139.3037   68.3258  224.4324 H   0  0  0  0  0  0  0  0  0  0  0  0
  140.6278   69.0233  229.0018 H   0  0  0  0  0  0  0  0  0  0  0  0
  141.4357   71.3723  228.9983 H   0  0  0  0  0  0  0  0  0  0  0  0
  141.4225   72.7441  226.9765 H   0  0  0  0  0  0  0  0  0  0  0  0
  1  2  2  0
  2  3  1  0
  3  4  1  0
  4  5  1  0
  5  6  2  0
  5  7  1  0
  7  8  1  0
  8  9  1  0
  9 10  1  0
 10 11  1  0
 11 12  1  0
 12 13  1  0
 13 14  2  0
 14 15  1  0
 15 16  2  0
 16 17  1  0
 17 18  2  0
  2 19  1  0
 19 20  2  0
 20 21  1  0
 21 22  2  0
 22 23  1  0
 23 24  1  0
 23 25  2  0
 25 26  1  0
 26 27  2  0
 27 28  1  0
 28 29  2  0
 12  7  1  0
 18 13  1  0
 29 19  1  0
 28 22  1  0
  3 30  1  0
  4 31  1  0
  4 32  1  0
  8 33  1  0
  8 34  1  0
  9 35  1  0
  9 36  1  0
 10 37  1  0
 10 38  1  0
 11 39  1  0
 11 40  1  0
 12 41  1  6
 14 42  1  0
 15 43  1  0
 16 44  1  0
 17 45  1  0
 20 46  1  0
 21 47  1  0
 25 48  1  0
 26 49  1  0
 27 50  1  0
M  END
>  <smiles>  (85) 
O=C(NCC(=O)N1CCCCC1c1ccccn1)c1ccc2c(Cl)cccc2n1

>  <score_type>  (85) 
oracle

>  <origin>  (85) 
autodockgpu

>  <m_score__min__energy>  (85) 
-8.9100000000000001

>  <m_primary>  (85) 
energy

>  <rmsd>  (85) 
4.2351636034429365

>  <m_score__min__rmsd>  (85) 
4.2351636034429365

>  <meeko>  (85) 
{"free_energy": -8.63, "intermolecular_energy": -10.13, "internal_energy": -1.84, "cluster_size": 8, "cluster_id": 2, "rank_in_cluster": 5}

>  <energy>  (85) 
-7.28

>  <cluster_rmsd>  (85) 
0.25

>  <cluster>  (85) 
5

$$$$

     RDKit          3D

 50 53  0  0  0  0  0  0  0  0999 V2000
  141.0700   71.9520  221.3780 O   0  0  0  0  0  0  0  0  0  0  0  0
  140.3660   72.3580  222.3380 C   0  0  0  0  0  0  0  0  0  0  0  0
  139.5900   73.5800  222.2410 N   0  0  0  0  0  0  0  0  0  0  0  0
  139.6700   74.2870  221.0050 C   0  0  0  0  0  0  0  0  0  0  0  0
  140.7320   75.2700  220.8070 C   0  0  0  0  0  0  0  0  0  0  0  0
  141.1210   75.8490  221.9090 O   0  0  0  0  0  0  0  0  0  0  0  0
  141.3870   75.6860  219.6350 N   0  0  0  0  0  0  0  0  0  0  0  0
  141.3990   77.0160  219.0850 C   0  0  0  0  0  0  0  0  0  0  0  0
  142.8390   77.3780  218.6780 C   0  0  0  0  0  0  0  0  0  0  0  0
  143.3370   76.3740  217.6940 C   0  0  0  0  0  0  0  0  0  0  0  0
  142.3940   75.2130  217.5190 C   0  0  0  0  0  0  0  0  0  0  0  0
  142.0850   74.6480  218.8760 C   0  0  1  0  0  0  0  0  0  0  0  0
  143.2820   74.1140  219.5450 C   0  0  0  0  0  0  0  0  0  0  0  0
  143.5420   72.7330  219.5170 C   0  0  0  0  0  0  0  0  0  0  0  0
  144.6500   72.1970  220.1380 C   0  0  0  0  0  0  0  0  0  0  0  0
  145.5570   73.0160  220.8190 C   0  0  0  0  0  0  0  0  0  0  0  0
  145.2650   74.3590  220.8220 C   0  0  0  0  0  0  0  0  0  0  0  0
  144.1890   74.8430  220.2140 N   0  0  0  0  0  0  0  0  0  0  0  0
  140.3120   71.6040  223.5860 C   0  0  0  0  0  0  0  0  0  0  0  0
  139.8710   70.3170  223.5920 C   0  0  0  0  0  0  0  0  0  0  0  0
  139.7900   69.5360  224.7340 C   0  0  0  0  0  0  0  0  0  0  0  0
  140.1860   70.1180  225.9340 C   0  0  0  0  0  0  0  0  0  0  0  0
  140.1400   69.4140  227.1280 C   0  0  0  0  0  0  0  0  0  0  0  0
  139.5750   67.7580  227.1510 Cl  0  0  0  0  0  0  0  0  0  0  0  0
  140.5380   69.9990  228.3310 C   0  0  0  0  0  0  0  0  0  0  0  0
  140.9760   71.3070  228.2660 C   0  0  0  0  0  0  0  0  0  0  0  0
  141.0300   72.0220  227.1020 C   0  0  0  0  0  0  0  0  0  0  0  0
  140.6330   71.4280  225.9200 C   0  0  0  0  0  0  0  0  0  0  0  0
  140.6910   72.1470  224.7670 N   0  0  0  0  0  0  0  0  0  0  0  0
  139.0170   73.8780  223.0710 H   0  0  0  0  0  0  0  0  0  0  0  0
  139.7796   73.5331  220.2115 H   0  0  0  0  0  0  0  0  0  0  0  0
  138.7517   74.8924  220.9934 H   0  0  0  0  0  0  0  0  0  0  0  0
  140.7452   77.0554  218.2013 H   0  0  0  0  0  0  0  0  0  0  0  0
  141.0345   77.7318  219.8365 H   0  0  0  0  0  0  0  0  0  0  0  0
  142.8518   78.3786  218.2213 H   0  0  0  0  0  0  0  0  0  0  0  0
  143.4861   77.3765  219.5675 H   0  0  0  0  0  0  0  0  0  0  0  0
  143.4683   76.8702  216.7211 H   0  0  0  0  0  0  0  0  0  0  0  0
  144.2869   75.9748  218.0792 H   0  0  0  0  0  0  0  0  0  0  0  0
  141.4658   75.5567  217.0390 H   0  0  0  0  0  0  0  0  0  0  0  0
  142.8551   74.4425  216.8836 H   0  0  0  0  0  0  0  0  0  0  0  0
  141.4270   73.7706  218.7911 H   0  0  0  0  0  0  0  0  0  0  0  0
  142.8462   72.0652  218.9880 H   0  0  0  0  0  0  0  0  0  0  0  0
  144.8231   71.1115  220.0975 H   0  0  0  0  0  0  0  0  0  0  0  0
  146.4480   72.6105  221.3206 H   0  0  0  0  0  0  0  0  0  0  0  0
  145.9420   75.0521  221.3429 H   0  0  0  0  0  0  0  0  0  0  0  0
  139.5610   69.8707  222.6356 H   0  0  0  0  0  0  0  0  0  0  0  0
  139.4274   68.4983  224.6933 H   0  0  0  0  0  0  0  0  0  0  0  0
  140.5045   69.4467  229.2817 H   0  0  0  0  0  0  0  0  0  0  0  0
  141.2973   71.7978  229.1966 H   0  0  0  0  0  0  0  0  0  0  0  0
  141.3869   73.0625  227.1068 H   0  0  0  0  0  0  0  0  0  0  0  0
  1  2  2  0
  2  3  1  0
  3  4  1  0
  4  5  1  0
  5  6  2  0
  5  7  1  0
  7  8  1  0
  8  9  1  0
  9 10  1  0
 10 11  1  0
 11 12  1  0
 12 13  1  0
 13 14  2  0
 14 15  1  0
 15 16  2  0
 16 17  1  0
 17 18  2  0
  2 19  1  0
 19 20  2  0
 20 21  1  0
 21 22  2  0
 22 23  1  0
 23 24  1  0
 23 25  2  0
 25 26  1  0
 26 27  2  0
 27 28  1  0
 28 29  2  0
 12  7  1  0
 18 13  1  0
 29 19  1  0
 28 22  1  0
  3 30  1  0
  4 31  1  0
  4 32  1  0
  8 33  1  0
  8 34  1  0
  9 35  1  0
  9 36  1  0
 10 37  1  0
 10 38  1  0
 11 39  1  0
 11 40  1  0
 12 41  1  6
 14 42  1  0
 15 43  1  0
 16 44  1  0
 17 45  1  0
 20 46  1  0
 21 47  1  0
 25 48  1  0
 26 49  1  0
 27 50  1  0
M  END
>  <smiles>  (86) 
O=C(NCC(=O)N1CCCCC1c1ccccn1)c1ccc2c(Cl)cccc2n1

>  <score_type>  (86) 
oracle

>  <origin>  (86) 
autodockgpu

>  <m_score__min__energy>  (86) 
-8.9100000000000001

>  <m_primary>  (86) 
energy

>  <rmsd>  (86) 
4.261290729333504

>  <m_score__min__rmsd>  (86) 
4.261290729333504

>  <meeko>  (86) 
{"free_energy": -8.63, "intermolecular_energy": -10.12, "internal_energy": -1.82, "cluster_size": 8, "cluster_id": 2, "rank_in_cluster": 6}

>  <energy>  (86) 
-7.28

>  <cluster_rmsd>  (86) 
0.26

>  <cluster>  (86) 
5

$$$$

     RDKit          3D

 50 53  0  0  0  0  0  0  0  0999 V2000
  139.3220   73.8240  221.8270 O   0  0  0  0  0  0  0  0  0  0  0  0
  140.4710   74.3210  221.7060 C   0  0  0  0  0  0  0  0  0  0  0  0
  140.7410   75.6980  222.0730 N   0  0  0  0  0  0  0  0  0  0  0  0
  139.6370   76.4490  222.5770 C   0  0  0  0  0  0  0  0  0  0  0  0
  139.5320   77.8710  222.2580 C   0  0  0  0  0  0  0  0  0  0  0  0
  138.3760   78.2120  221.7610 O   0  0  0  0  0  0  0  0  0  0  0  0
  140.4670   78.9110  222.3980 N   0  0  0  0  0  0  0  0  0  0  0  0
  141.0370   79.3910  223.6290 C   0  0  0  0  0  0  0  0  0  0  0  0
  142.5560   79.5610  223.4460 C   0  0  0  0  0  0  0  0  0  0  0  0
  142.8110   80.5050  222.3200 C   0  0  0  0  0  0  0  0  0  0  0  0
  141.5560   80.8730  221.5720 C   0  0  0  0  0  0  0  0  0  0  0  0
  140.8590   79.6050  221.1710 C   0  0  1  0  0  0  0  0  0  0  0  0
  141.6670   78.7890  220.2500 C   0  0  0  0  0  0  0  0  0  0  0  0
  141.9780   79.2810  218.9700 C   0  0  0  0  0  0  0  0  0  0  0  0
  142.7270   78.5420  218.0790 C   0  0  0  0  0  0  0  0  0  0  0  0
  143.2050   77.2730  218.4230 C   0  0  0  0  0  0  0  0  0  0  0  0
  142.8770   76.8310  219.6830 C   0  0  0  0  0  0  0  0  0  0  0  0
  142.1530   77.5670  220.5170 N   0  0  0  0  0  0  0  0  0  0  0  0
  141.5730   73.5170  221.1880 C   0  0  0  0  0  0  0  0  0  0  0  0
  141.3820   72.2050  220.8830 C   0  0  0  0  0  0  0  0  0  0  0  0
  142.3770   71.3780  220.3870 C   0  0  0  0  0  0  0  0  0  0  0  0
  143.6370   71.9370  220.1970 C   0  0  0  0  0  0  0  0  0  0  0  0
  144.6940   71.1870  219.7050 C   0  0  0  0  0  0  0  0  0  0  0  0
  144.4630   69.4980  219.3080 Cl  0  0  0  0  0  0  0  0  0  0  0  0
  145.9570   71.7490  219.5150 C   0  0  0  0  0  0  0  0  0  0  0  0
  146.0930   73.0850  219.8410 C   0  0  0  0  0  0  0  0  0  0  0  0
  145.0660   73.8440  220.3280 C   0  0  0  0  0  0  0  0  0  0  0  0
  143.8230   73.2730  220.5100 C   0  0  0  0  0  0  0  0  0  0  0  0
  142.8080   74.0370  220.9940 N   0  0  0  0  0  0  0  0  0  0  0  0
  141.7180   76.0680  221.9530 H   0  0  0  0  0  0  0  0  0  0  0  0
  138.7228   75.9675  222.1996 H   0  0  0  0  0  0  0  0  0  0  0  0
  139.7910   76.4379  223.6661 H   0  0  0  0  0  0  0  0  0  0  0  0
  140.5865   80.3598  223.8908 H   0  0  0  0  0  0  0  0  0  0  0  0
  140.8385   78.6703  224.4360 H   0  0  0  0  0  0  0  0  0  0  0  0
  142.9953   79.9637  224.3706 H   0  0  0  0  0  0  0  0  0  0  0  0
  143.0129   78.5858  223.2218 H   0  0  0  0  0  0  0  0  0  0  0  0
  143.2604   81.4233  222.7260 H   0  0  0  0  0  0  0  0  0  0  0  0
  143.4839   80.0009  221.6107 H   0  0  0  0  0  0  0  0  0  0  0  0
  140.8980   81.4705  222.2202 H   0  0  0  0  0  0  0  0  0  0  0  0
  141.8058   81.4671  220.6806 H   0  0  0  0  0  0  0  0  0  0  0  0
  139.9536   79.8287  220.5878 H   0  0  0  0  0  0  0  0  0  0  0  0
  141.6161   80.2765  218.6733 H   0  0  0  0  0  0  0  0  0  0  0  0
  142.9516   78.9556  217.0848 H   0  0  0  0  0  0  0  0  0  0  0  0
  143.8056   76.6668  217.7289 H   0  0  0  0  0  0  0  0  0  0  0  0
  143.2244   75.8395  220.0089 H   0  0  0  0  0  0  0  0  0  0  0  0
  140.3810   71.7764  221.0390 H   0  0  0  0  0  0  0  0  0  0  0  0
  142.1787   70.3217  220.1528 H   0  0  0  0  0  0  0  0  0  0  0  0
  146.8003   71.1594  219.1261 H   0  0  0  0  0  0  0  0  0  0  0  0
  147.0751   73.5605  219.7019 H   0  0  0  0  0  0  0  0  0  0  0  0
  145.2293   74.9038  220.5734 H   0  0  0  0  0  0  0  0  0  0  0  0
  1  2  2  0
  2  3  1  0
  3  4  1  0
  4  5  1  0
  5  6  2  0
  5  7  1  0
  7  8  1  0
  8  9  1  0
  9 10  1  0
 10 11  1  0
 11 12  1  0
 12 13  1  0
 13 14  2  0
 14 15  1  0
 15 16  2  0
 16 17  1  0
 17 18  2  0
  2 19  1  0
 19 20  2  0
 20 21  1  0
 21 22  2  0
 22 23  1  0
 23 24  1  0
 23 25  2  0
 25 26  1  0
 26 27  2  0
 27 28  1  0
 28 29  2  0
 12  7  1  0
 18 13  1  0
 29 19  1  0
 28 22  1  0
  3 30  1  0
  4 31  1  0
  4 32  1  0
  8 33  1  0
  8 34  1  0
  9 35  1  0
  9 36  1  0
 10 37  1  0
 10 38  1  0
 11 39  1  0
 11 40  1  0
 12 41  1  6
 14 42  1  0
 15 43  1  0
 16 44  1  0
 17 45  1  0
 20 46  1  0
 21 47  1  0
 25 48  1  0
 26 49  1  0
 27 50  1  0
M  END
>  <smiles>  (87) 
O=C(NCC(=O)N1CCCCC1c1ccccn1)c1ccc2c(Cl)cccc2n1

>  <score_type>  (87) 
oracle

>  <origin>  (87) 
autodockgpu

>  <m_score__min__energy>  (87) 
-8.9100000000000001

>  <m_primary>  (87) 
energy

>  <rmsd>  (87) 
5.878662461684844

>  <m_score__min__rmsd>  (87) 
5.878662461684844

>  <meeko>  (87) 
{"free_energy": -7.11, "intermolecular_energy": -8.61, "internal_energy": -2.9, "cluster_size": 22, "cluster_id": 5, "rank_in_cluster": 19}

>  <energy>  (87) 
-7.28

>  <cluster_rmsd>  (87) 
0.23

>  <cluster>  (87) 
5

$$$$

     RDKit          3D

 50 53  0  0  0  0  0  0  0  0999 V2000
  140.3940   71.9920  221.0170 O   0  0  0  0  0  0  0  0  0  0  0  0
  140.1160   72.4510  222.1550 C   0  0  0  0  0  0  0  0  0  0  0  0
  139.7770   73.8490  222.3420 N   0  0  0  0  0  0  0  0  0  0  0  0
  139.7750   74.6650  221.1720 C   0  0  0  0  0  0  0  0  0  0  0  0
  140.0660   76.0910  221.2920 C   0  0  0  0  0  0  0  0  0  0  0  0
  139.8900   76.5630  222.4950 O   0  0  0  0  0  0  0  0  0  0  0  0
  140.4960   77.0210  220.3290 N   0  0  0  0  0  0  0  0  0  0  0  0
  139.9170   77.2380  219.0290 C   0  0  0  0  0  0  0  0  0  0  0  0
  139.7680   78.7520  218.7920 C   0  0  0  0  0  0  0  0  0  0  0  0
  141.1050   79.4010  218.9120 C   0  0  0  0  0  0  0  0  0  0  0  0
  142.1700   78.4550  219.4030 C   0  0  0  0  0  0  0  0  0  0  0  0
  141.6790   77.8110  220.6680 C   0  0  1  0  0  0  0  0  0  0  0  0
  141.4630   78.7890  221.7460 C   0  0  0  0  0  0  0  0  0  0  0  0
  142.5600   79.2850  222.4720 C   0  0  0  0  0  0  0  0  0  0  0  0
  142.3940   80.1970  223.4930 C   0  0  0  0  0  0  0  0  0  0  0  0
  141.1210   80.6610  223.8390 C   0  0  0  0  0  0  0  0  0  0  0  0
  140.0770   80.1510  223.1050 C   0  0  0  0  0  0  0  0  0  0  0  0
  140.2710   79.2730  222.1280 N   0  0  0  0  0  0  0  0  0  0  0  0
  140.1270   71.5810  223.3260 C   0  0  0  0  0  0  0  0  0  0  0  0
  139.6710   70.3020  223.2370 C   0  0  0  0  0  0  0  0  0  0  0  0
  139.6500   69.4160  224.3020 C   0  0  0  0  0  0  0  0  0  0  0  0
  140.1260   69.8780  225.5250 C   0  0  0  0  0  0  0  0  0  0  0  0
  140.1430   69.0640  226.6470 C   0  0  0  0  0  0  0  0  0  0  0  0
  139.5600   67.4170  226.5470 Cl  0  0  0  0  0  0  0  0  0  0  0  0
  140.6210   69.5280  227.8740 C   0  0  0  0  0  0  0  0  0  0  0  0
  141.0720   70.8330  227.9060 C   0  0  0  0  0  0  0  0  0  0  0  0
  141.0630   71.6550  226.8140 C   0  0  0  0  0  0  0  0  0  0  0  0
  140.5880   71.1800  225.6090 C   0  0  0  0  0  0  0  0  0  0  0  0
  140.5840   72.0050  224.5270 N   0  0  0  0  0  0  0  0  0  0  0  0
  139.5520   74.1850  223.3130 H   0  0  0  0  0  0  0  0  0  0  0  0
  140.5229   74.2421  220.4851 H   0  0  0  0  0  0  0  0  0  0  0  0
  138.7263   74.6412  220.8410 H   0  0  0  0  0  0  0  0  0  0  0  0
  140.5716   76.8067  218.2573 H   0  0  0  0  0  0  0  0  0  0  0  0
  138.9300   76.7552  218.9769 H   0  0  0  0  0  0  0  0  0  0  0  0
  139.3624   78.9286  217.7849 H   0  0  0  0  0  0  0  0  0  0  0  0
  139.0823   79.1773  219.5396 H   0  0  0  0  0  0  0  0  0  0  0  0
  141.4012   79.7815  217.9233 H   0  0  0  0  0  0  0  0  0  0  0  0
  141.0152   80.2115  219.6503 H   0  0  0  0  0  0  0  0  0  0  0  0
  142.3620   77.6836  218.6427 H   0  0  0  0  0  0  0  0  0  0  0  0
  143.1053   79.0017  219.5933 H   0  0  0  0  0  0  0  0  0  0  0  0
  142.4438   77.1382  221.0832 H   0  0  0  0  0  0  0  0  0  0  0  0
  143.5730   78.9380  222.2201 H   0  0  0  0  0  0  0  0  0  0  0  0
  143.2737   80.5640  224.0420 H   0  0  0  0  0  0  0  0  0  0  0  0
  140.9649   81.3892  224.6486 H   0  0  0  0  0  0  0  0  0  0  0  0
  139.0522   80.4793  223.3332 H   0  0  0  0  0  0  0  0  0  0  0  0
  139.2976   69.9514  222.2635 H   0  0  0  0  0  0  0  0  0  0  0  0
  139.2725   68.3894  224.1854 H   0  0  0  0  0  0  0  0  0  0  0  0
  140.6375   68.8878  228.7683 H   0  0  0  0  0  0  0  0  0  0  0  0
  141.4572   71.2302  228.8567 H   0  0  0  0  0  0  0  0  0  0  0  0
  141.4319   72.6881  226.8954 H   0  0  0  0  0  0  0  0  0  0  0  0
  1  2  2  0
  2  3  1  0
  3  4  1  0
  4  5  1  0
  5  6  2  0
  5  7  1  0
  7  8  1  0
  8  9  1  0
  9 10  1  0
 10 11  1  0
 11 12  1  0
 12 13  1  0
 13 14  2  0
 14 15  1  0
 15 16  2  0
 16 17  1  0
 17 18  2  0
  2 19  1  0
 19 20  2  0
 20 21  1  0
 21 22  2  0
 22 23  1  0
 23 24  1  0
 23 25  2  0
 25 26  1  0
 26 27  2  0
 27 28  1  0
 28 29  2  0
 12  7  1  0
 18 13  1  0
 29 19  1  0
 28 22  1  0
  3 30  1  0
  4 31  1  0
  4 32  1  0
  8 33  1  0
  8 34  1  0
  9 35  1  0
  9 36  1  0
 10 37  1  0
 10 38  1  0
 11 39  1  0
 11 40  1  0
 12 41  1  1
 14 42  1  0
 15 43  1  0
 16 44  1  0
 17 45  1  0
 20 46  1  0
 21 47  1  0
 25 48  1  0
 26 49  1  0
 27 50  1  0
M  END
>  <smiles>  (88) 
O=C(NCC(=O)N1CCCCC1c1ccccn1)c1ccc2c(Cl)cccc2n1

>  <score_type>  (88) 
oracle

>  <origin>  (88) 
autodockgpu

>  <m_score__min__energy>  (88) 
-8.9100000000000001

>  <m_primary>  (88) 
energy

>  <rmsd>  (88) 
2.2687009051214315

>  <m_score__min__rmsd>  (88) 
2.2687009051214315

>  <meeko>  (88) 
{"free_energy": -8.67, "intermolecular_energy": -10.16, "internal_energy": -1.63, "cluster_size": 8, "cluster_id": 1, "rank_in_cluster": 5}

>  <energy>  (88) 
-7.28

>  <cluster_rmsd>  (88) 
0.07

>  <cluster>  (88) 
5

$$$$

     RDKit          3D

 50 53  0  0  0  0  0  0  0  0999 V2000
  139.2200   74.0630  221.7290 O   0  0  0  0  0  0  0  0  0  0  0  0
  140.3520   74.5990  221.6170 C   0  0  0  0  0  0  0  0  0  0  0  0
  140.5630   75.9950  221.9520 N   0  0  0  0  0  0  0  0  0  0  0  0
  139.4220   76.7170  222.4130 C   0  0  0  0  0  0  0  0  0  0  0  0
  139.4030   78.1730  222.3050 C   0  0  0  0  0  0  0  0  0  0  0  0
  138.2420   78.6570  221.9620 O   0  0  0  0  0  0  0  0  0  0  0  0
  140.4230   79.1190  222.5070 N   0  0  0  0  0  0  0  0  0  0  0  0
  141.0540   79.4460  223.7590 C   0  0  0  0  0  0  0  0  0  0  0  0
  142.5780   79.5070  223.5520 C   0  0  0  0  0  0  0  0  0  0  0  0
  142.8890   80.5190  222.5020 C   0  0  0  0  0  0  0  0  0  0  0  0
  141.6550   81.0490  221.8190 C   0  0  0  0  0  0  0  0  0  0  0  0
  140.8480   79.8800  221.3320 C   0  0  1  0  0  0  0  0  0  0  0  0
  141.5690   79.0830  220.3270 C   0  0  0  0  0  0  0  0  0  0  0  0
  141.8670   79.6430  219.0720 C   0  0  0  0  0  0  0  0  0  0  0  0
  142.5350   78.9230  218.1040 C   0  0  0  0  0  0  0  0  0  0  0  0
  142.9410   77.6060  218.3420 C   0  0  0  0  0  0  0  0  0  0  0  0
  142.6290   77.0970  219.5800 C   0  0  0  0  0  0  0  0  0  0  0  0
  141.9840   77.8170  220.4900 N   0  0  0  0  0  0  0  0  0  0  0  0
  141.4940   73.8240  221.1420 C   0  0  0  0  0  0  0  0  0  0  0  0
  141.3350   72.5250  220.7700 C   0  0  0  0  0  0  0  0  0  0  0  0
  142.3680   71.7250  220.3090 C   0  0  0  0  0  0  0  0  0  0  0  0
  143.6330   72.2990  220.2290 C   0  0  0  0  0  0  0  0  0  0  0  0
  144.7280   71.5760  219.7800 C   0  0  0  0  0  0  0  0  0  0  0  0
  144.5390   69.9040  219.2980 Cl  0  0  0  0  0  0  0  0  0  0  0  0
  145.9960   72.1530  219.7000 C   0  0  0  0  0  0  0  0  0  0  0  0
  146.0980   73.4740  220.0910 C   0  0  0  0  0  0  0  0  0  0  0  0
  145.0350   74.2070  220.5380 C   0  0  0  0  0  0  0  0  0  0  0  0
  143.7870   73.6210  220.6100 C   0  0  0  0  0  0  0  0  0  0  0  0
  142.7350   74.3590  221.0550 N   0  0  0  0  0  0  0  0  0  0  0  0
  141.5280   76.3980  221.8410 H   0  0  0  0  0  0  0  0  0  0  0  0
  138.5560   76.3425  221.8475 H   0  0  0  0  0  0  0  0  0  0  0  0
  139.4227   76.5375  223.4983 H   0  0  0  0  0  0  0  0  0  0  0  0
  140.6904   80.4226  224.1111 H   0  0  0  0  0  0  0  0  0  0  0  0
  140.8115   78.6784  224.5087 H   0  0  0  0  0  0  0  0  0  0  0  0
  143.0664   79.7931  224.4952 H   0  0  0  0  0  0  0  0  0  0  0  0
  142.9483   78.5205  223.2363 H   0  0  0  0  0  0  0  0  0  0  0  0
  143.4201   81.3604  222.9710 H   0  0  0  0  0  0  0  0  0  0  0  0
  143.5047   80.0240  221.7366 H   0  0  0  0  0  0  0  0  0  0  0  0
  141.0607   81.6407  222.5309 H   0  0  0  0  0  0  0  0  0  0  0  0
  141.9367   81.6941  220.9737 H   0  0  0  0  0  0  0  0  0  0  0  0
  139.9533   80.2240  220.7924 H   0  0  0  0  0  0  0  0  0  0  0  0
  141.5607   80.6776  218.8579 H   0  0  0  0  0  0  0  0  0  0  0  0
  142.7513   79.3906  217.1321 H   0  0  0  0  0  0  0  0  0  0  0  0
  143.4768   77.0142  217.5853 H   0  0  0  0  0  0  0  0  0  0  0  0
  142.9217   76.0650  219.8234 H   0  0  0  0  0  0  0  0  0  0  0  0
  140.3292   72.0849  220.8392 H   0  0  0  0  0  0  0  0  0  0  0  0
  142.1951   70.6784  220.0180 H   0  0  0  0  0  0  0  0  0  0  0  0
  146.8687   71.5857  219.3442 H   0  0  0  0  0  0  0  0  0  0  0  0
  147.0836   73.9598  220.0400 H   0  0  0  0  0  0  0  0  0  0  0  0
  145.1726   75.2562  220.8383 H   0  0  0  0  0  0  0  0  0  0  0  0
  1  2  2  0
  2  3  1  0
  3  4  1  0
  4  5  1  0
  5  6  2  0
  5  7  1  0
  7  8  1  0
  8  9  1  0
  9 10  1  0
 10 11  1  0
 11 12  1  0
 12 13  1  0
 13 14  2  0
 14 15  1  0
 15 16  2  0
 16 17  1  0
 17 18  2  0
  2 19  1  0
 19 20  2  0
 20 21  1  0
 21 22  2  0
 22 23  1  0
 23 24  1  0
 23 25  2  0
 25 26  1  0
 26 27  2  0
 27 28  1  0
 28 29  2  0
 12  7  1  0
 18 13  1  0
 29 19  1  0
 28 22  1  0
  3 30  1  0
  4 31  1  0
  4 32  1  0
  8 33  1  0
  8 34  1  0
  9 35  1  0
  9 36  1  0
 10 37  1  0
 10 38  1  0
 11 39  1  0
 11 40  1  0
 12 41  1  6
 14 42  1  0
 15 43  1  0
 16 44  1  0
 17 45  1  0
 20 46  1  0
 21 47  1  0
 25 48  1  0
 26 49  1  0
 27 50  1  0
M  END
>  <smiles>  (89) 
O=C(NCC(=O)N1CCCCC1c1ccccn1)c1ccc2c(Cl)cccc2n1

>  <score_type>  (89) 
oracle

>  <origin>  (89) 
autodockgpu

>  <m_score__min__energy>  (89) 
-8.9100000000000001

>  <m_primary>  (89) 
energy

>  <rmsd>  (89) 
5.942182051482952

>  <m_score__min__rmsd>  (89) 
5.942182051482952

>  <meeko>  (89) 
{"free_energy": -7.3, "intermolecular_energy": -8.79, "internal_energy": -2.89, "cluster_size": 22, "cluster_id": 5, "rank_in_cluster": 4}

>  <energy>  (89) 
-7.27

>  <cluster_rmsd>  (89) 
0.27

>  <cluster>  (89) 
5

$$$$

     RDKit          3D

 50 53  0  0  0  0  0  0  0  0999 V2000
  139.7720   74.6290  222.3240 O   0  0  0  0  0  0  0  0  0  0  0  0
  140.4550   74.8900  221.3010 C   0  0  0  0  0  0  0  0  0  0  0  0
  140.1700   76.0530  220.4810 N   0  0  0  0  0  0  0  0  0  0  0  0
  139.0820   76.8750  220.9000 C   0  0  0  0  0  0  0  0  0  0  0  0
  139.2390   77.7290  222.0740 C   0  0  0  0  0  0  0  0  0  0  0  0
  138.3490   77.5120  223.0020 O   0  0  0  0  0  0  0  0  0  0  0  0
  140.1810   78.7350  222.3550 N   0  0  0  0  0  0  0  0  0  0  0  0
  140.7350   79.0540  223.6450 C   0  0  0  0  0  0  0  0  0  0  0  0
  142.2580   79.2280  223.5070 C   0  0  0  0  0  0  0  0  0  0  0  0
  142.5400   80.3010  222.5090 C   0  0  0  0  0  0  0  0  0  0  0  0
  141.3000   80.7710  221.7940 C   0  0  0  0  0  0  0  0  0  0  0  0
  140.5990   79.5690  221.2290 C   0  0  1  0  0  0  0  0  0  0  0  0
  141.4140   78.8650  220.2270 C   0  0  0  0  0  0  0  0  0  0  0  0
  141.4650   79.3420  218.9060 C   0  0  0  0  0  0  0  0  0  0  0  0
  142.2140   78.7050  217.9390 C   0  0  0  0  0  0  0  0  0  0  0  0
  142.9510   77.5560  218.2450 C   0  0  0  0  0  0  0  0  0  0  0  0
  142.8730   77.1240  219.5480 C   0  0  0  0  0  0  0  0  0  0  0  0
  142.1420   77.7610  220.4540 N   0  0  0  0  0  0  0  0  0  0  0  0
  141.5610   74.0240  220.9080 C   0  0  0  0  0  0  0  0  0  0  0  0
  141.3300   72.7250  220.5730 C   0  0  0  0  0  0  0  0  0  0  0  0
  142.3260   71.8410  220.1900 C   0  0  0  0  0  0  0  0  0  0  0  0
  143.6300   72.3250  220.1510 C   0  0  0  0  0  0  0  0  0  0  0  0
  144.6910   71.5150  219.7790 C   0  0  0  0  0  0  0  0  0  0  0  0
  144.4100   69.8430  219.3460 Cl  0  0  0  0  0  0  0  0  0  0  0  0
  145.9980   72.0020  219.7410 C   0  0  0  0  0  0  0  0  0  0  0  0
  146.1730   73.3270  220.0900 C   0  0  0  0  0  0  0  0  0  0  0  0
  145.1430   74.1450  220.4600 C   0  0  0  0  0  0  0  0  0  0  0  0
  143.8560   73.6480  220.4930 C   0  0  0  0  0  0  0  0  0  0  0  0
  142.8380   74.4700  220.8620 N   0  0  0  0  0  0  0  0  0  0  0  0
  140.7700   76.2290  219.6340 H   0  0  0  0  0  0  0  0  0  0  0  0
  138.8347   77.5344  220.0550 H   0  0  0  0  0  0  0  0  0  0  0  0
  138.3132   76.1507  221.2072 H   0  0  0  0  0  0  0  0  0  0  0  0
  140.2892   79.9883  224.0170 H   0  0  0  0  0  0  0  0  0  0  0  0
  140.5164   78.2423  224.3544 H   0  0  0  0  0  0  0  0  0  0  0  0
  142.6860   79.5091  224.4805 H   0  0  0  0  0  0  0  0  0  0  0  0
  142.7094   78.2827  223.1714 H   0  0  0  0  0  0  0  0  0  0  0  0
  142.9910   81.1576  223.0313 H   0  0  0  0  0  0  0  0  0  0  0  0
  143.2201   79.8812  221.7532 H   0  0  0  0  0  0  0  0  0  0  0  0
  140.6368   81.2904  222.5014 H   0  0  0  0  0  0  0  0  0  0  0  0
  141.5686   81.4681  220.9866 H   0  0  0  0  0  0  0  0  0  0  0  0
  139.7053   79.8713  220.6634 H   0  0  0  0  0  0  0  0  0  0  0  0
  140.8948   80.2435  218.6374 H   0  0  0  0  0  0  0  0  0  0  0  0
  142.2321   79.1053  216.9146 H   0  0  0  0  0  0  0  0  0  0  0  0
  143.5551   77.0310  217.4904 H   0  0  0  0  0  0  0  0  0  0  0  0
  143.4321   76.2254  219.8478 H   0  0  0  0  0  0  0  0  0  0  0  0
  140.2943   72.3562  220.6083 H   0  0  0  0  0  0  0  0  0  0  0  0
  142.0950   70.7981  219.9273 H   0  0  0  0  0  0  0  0  0  0  0  0
  146.8449   71.3640  219.4483 H   0  0  0  0  0  0  0  0  0  0  0  0
  147.1908   73.7438  220.0690 H   0  0  0  0  0  0  0  0  0  0  0  0
  145.3385   75.1933  220.7299 H   0  0  0  0  0  0  0  0  0  0  0  0
  1  2  2  0
  2  3  1  0
  3  4  1  0
  4  5  1  0
  5  6  2  0
  5  7  1  0
  7  8  1  0
  8  9  1  0
  9 10  1  0
 10 11  1  0
 11 12  1  0
 12 13  1  0
 13 14  2  0
 14 15  1  0
 15 16  2  0
 16 17  1  0
 17 18  2  0
  2 19  1  0
 19 20  2  0
 20 21  1  0
 21 22  2  0
 22 23  1  0
 23 24  1  0
 23 25  2  0
 25 26  1  0
 26 27  2  0
 27 28  1  0
 28 29  2  0
 12  7  1  0
 18 13  1  0
 29 19  1  0
 28 22  1  0
  3 30  1  0
  4 31  1  0
  4 32  1  0
  8 33  1  0
  8 34  1  0
  9 35  1  0
  9 36  1  0
 10 37  1  0
 10 38  1  0
 11 39  1  0
 11 40  1  0
 12 41  1  6
 14 42  1  0
 15 43  1  0
 16 44  1  0
 17 45  1  0
 20 46  1  0
 21 47  1  0
 25 48  1  0
 26 49  1  0
 27 50  1  0
M  END
>  <smiles>  (90) 
O=C(NCC(=O)N1CCCCC1c1ccccn1)c1ccc2c(Cl)cccc2n1

>  <score_type>  (90) 
oracle

>  <origin>  (90) 
autodockgpu

>  <m_score__min__energy>  (90) 
-8.9100000000000001

>  <m_primary>  (90) 
energy

>  <rmsd>  (90) 
5.898229531526081

>  <m_score__min__rmsd>  (90) 
5.898229531526081

>  <meeko>  (90) 
{"free_energy": -7.2, "intermolecular_energy": -8.69, "internal_energy": -2.55, "cluster_size": 22, "cluster_id": 5, "rank_in_cluster": 16}

>  <energy>  (90) 
-7.26

>  <cluster_rmsd>  (90) 
0.27

>  <cluster>  (90) 
5

$$$$

     RDKit          3D

 50 53  0  0  0  0  0  0  0  0999 V2000
  140.3970   73.6440  222.3380 O   0  0  0  0  0  0  0  0  0  0  0  0
  140.2500   72.3950  222.3350 C   0  0  0  0  0  0  0  0  0  0  0  0
  140.0440   71.6620  221.1000 N   0  0  0  0  0  0  0  0  0  0  0  0
  140.0200   72.4320  219.9000 C   0  0  0  0  0  0  0  0  0  0  0  0
  141.2110   73.1800  219.5040 C   0  0  0  0  0  0  0  0  0  0  0  0
  140.9900   74.0590  218.5670 O   0  0  0  0  0  0  0  0  0  0  0  0
  142.5370   73.0990  219.9640 N   0  0  0  0  0  0  0  0  0  0  0  0
  143.2080   71.9190  220.4430 C   0  0  0  0  0  0  0  0  0  0  0  0
  144.6080   71.8450  219.8090 C   0  0  0  0  0  0  0  0  0  0  0  0
  145.3670   73.0830  220.1500 C   0  0  0  0  0  0  0  0  0  0  0  0
  144.5150   74.1170  220.8400 C   0  0  0  0  0  0  0  0  0  0  0  0
  143.2910   74.3520  220.0030 C   0  0  1  0  0  0  0  0  0  0  0  0
  143.6170   74.9010  218.6770 C   0  0  0  0  0  0  0  0  0  0  0  0
  143.3060   76.2380  218.3770 C   0  0  0  0  0  0  0  0  0  0  0  0
  143.5910   76.7840  217.1440 C   0  0  0  0  0  0  0  0  0  0  0  0
  144.2040   76.0190  216.1460 C   0  0  0  0  0  0  0  0  0  0  0  0
  144.4910   74.7170  216.4800 C   0  0  0  0  0  0  0  0  0  0  0  0
  144.2020   74.2220  217.6770 N   0  0  0  0  0  0  0  0  0  0  0  0
  140.2820   71.6440  223.5860 C   0  0  0  0  0  0  0  0  0  0  0  0
  139.9180   70.3330  223.6100 C   0  0  0  0  0  0  0  0  0  0  0  0
  139.9220   69.5540  224.7550 C   0  0  0  0  0  0  0  0  0  0  0  0
  140.3240   70.1620  225.9400 C   0  0  0  0  0  0  0  0  0  0  0  0
  140.3610   69.4620  227.1360 C   0  0  0  0  0  0  0  0  0  0  0  0
  139.8950   67.7760  227.1820 Cl  0  0  0  0  0  0  0  0  0  0  0  0
  140.7640   70.0740  228.3240 C   0  0  0  0  0  0  0  0  0  0  0  0
  141.1230   71.4060  228.2410 C   0  0  0  0  0  0  0  0  0  0  0  0
  141.0940   72.1170  227.0740 C   0  0  0  0  0  0  0  0  0  0  0  0
  140.6930   71.4970  225.9080 C   0  0  0  0  0  0  0  0  0  0  0  0
  140.6690   72.2130  224.7520 N   0  0  0  0  0  0  0  0  0  0  0  0
  139.9250   70.6180  221.1500 H   0  0  0  0  0  0  0  0  0  0  0  0
  139.7897   71.7378  219.0784 H   0  0  0  0  0  0  0  0  0  0  0  0
  139.2786   73.2169  220.1101 H   0  0  0  0  0  0  0  0  0  0  0  0
  143.3013   71.9670  221.5380 H   0  0  0  0  0  0  0  0  0  0  0  0
  142.6285   71.0253  220.1682 H   0  0  0  0  0  0  0  0  0  0  0  0
  145.1426   70.9665  220.1993 H   0  0  0  0  0  0  0  0  0  0  0  0
  144.5147   71.7579  218.7164 H   0  0  0  0  0  0  0  0  0  0  0  0
  146.2002   72.8127  220.8154 H   0  0  0  0  0  0  0  0  0  0  0  0
  145.7249   73.5231  219.2075 H   0  0  0  0  0  0  0  0  0  0  0  0
  144.2209   73.7529  221.8354 H   0  0  0  0  0  0  0  0  0  0  0  0
  145.0783   75.0541  220.9602 H   0  0  0  0  0  0  0  0  0  0  0  0
  142.6571   75.1302  220.4531 H   0  0  0  0  0  0  0  0  0  0  0  0
  142.8243   76.8629  219.1434 H   0  0  0  0  0  0  0  0  0  0  0  0
  143.3333   77.8342  216.9422 H   0  0  0  0  0  0  0  0  0  0  0  0
  144.4416   76.4338  215.1553 H   0  0  0  0  0  0  0  0  0  0  0  0
  144.9734   74.0675  215.7348 H   0  0  0  0  0  0  0  0  0  0  0  0
  139.6025   69.8652  222.6658 H   0  0  0  0  0  0  0  0  0  0  0  0
  139.6194   68.4968  224.7286 H   0  0  0  0  0  0  0  0  0  0  0  0
  140.7943   69.5248  229.2766 H   0  0  0  0  0  0  0  0  0  0  0  0
  141.4478   71.9187  229.1584 H   0  0  0  0  0  0  0  0  0  0  0  0
  141.3884   73.1768  227.0642 H   0  0  0  0  0  0  0  0  0  0  0  0
  1  2  2  0
  2  3  1  0
  3  4  1  0
  4  5  1  0
  5  6  2  0
  5  7  1  0
  7  8  1  0
  8  9  1  0
  9 10  1  0
 10 11  1  0
 11 12  1  0
 12 13  1  0
 13 14  2  0
 14 15  1  0
 15 16  2  0
 16 17  1  0
 17 18  2  0
  2 19  1  0
 19 20  2  0
 20 21  1  0
 21 22  2  0
 22 23  1  0
 23 24  1  0
 23 25  2  0
 25 26  1  0
 26 27  2  0
 27 28  1  0
 28 29  2  0
 12  7  1  0
 18 13  1  0
 29 19  1  0
 28 22  1  0
  3 30  1  0
  4 31  1  0
  4 32  1  0
  8 33  1  0
  8 34  1  0
  9 35  1  0
  9 36  1  0
 10 37  1  0
 10 38  1  0
 11 39  1  0
 11 40  1  0
 12 41  1  1
 14 42  1  0
 15 43  1  0
 16 44  1  0
 17 45  1  0
 20 46  1  0
 21 47  1  0
 25 48  1  0
 26 49  1  0
 27 50  1  0
M  END
>  <smiles>  (91) 
O=C(NCC(=O)N1CCCCC1c1ccccn1)c1ccc2c(Cl)cccc2n1

>  <score_type>  (91) 
oracle

>  <origin>  (91) 
autodockgpu

>  <m_score__min__energy>  (91) 
-8.9100000000000001

>  <m_primary>  (91) 
energy

>  <rmsd>  (91) 
4.495396870619121

>  <m_score__min__rmsd>  (91) 
4.495396870619121

>  <meeko>  (91) 
{"free_energy": -7.93, "intermolecular_energy": -9.43, "internal_energy": -1.53, "cluster_size": 1, "cluster_id": 3, "rank_in_cluster": 1}

>  <energy>  (91) 
-7.25

>  <cluster_rmsd>  (91) 
0.26

>  <cluster>  (91) 
5

$$$$

     RDKit          3D

 50 53  0  0  0  0  0  0  0  0999 V2000
  140.1810   71.8400  221.0440 O   0  0  0  0  0  0  0  0  0  0  0  0
  139.9860   72.3740  222.1660 C   0  0  0  0  0  0  0  0  0  0  0  0
  139.7070   73.7930  222.2880 N   0  0  0  0  0  0  0  0  0  0  0  0
  139.6650   74.5390  221.0740 C   0  0  0  0  0  0  0  0  0  0  0  0
  139.9240   75.9760  221.1050 C   0  0  0  0  0  0  0  0  0  0  0  0
  141.1810   76.2860  220.9490 O   0  0  0  0  0  0  0  0  0  0  0  0
  139.0450   77.0600  221.2780 N   0  0  0  0  0  0  0  0  0  0  0  0
  137.6610   76.9880  221.6670 C   0  0  0  0  0  0  0  0  0  0  0  0
  137.3890   78.0440  222.7530 C   0  0  0  0  0  0  0  0  0  0  0  0
  137.7400   79.3940  222.2230 C   0  0  0  0  0  0  0  0  0  0  0  0
  138.4210   79.3340  220.8800 C   0  0  0  0  0  0  0  0  0  0  0  0
  139.5830   78.3880  220.9850 C   0  0  1  0  0  0  0  0  0  0  0  0
  140.5970   78.8530  221.9440 C   0  0  0  0  0  0  0  0  0  0  0  0
  141.3470   80.0090  221.6650 C   0  0  0  0  0  0  0  0  0  0  0  0
  142.3090   80.4710  222.5380 C   0  0  0  0  0  0  0  0  0  0  0  0
  142.5720   79.7990  223.7360 C   0  0  0  0  0  0  0  0  0  0  0  0
  141.8170   78.6730  223.9700 C   0  0  0  0  0  0  0  0  0  0  0  0
  140.8980   78.2560  223.1080 N   0  0  0  0  0  0  0  0  0  0  0  0
  140.0370   71.5740  223.3850 C   0  0  0  0  0  0  0  0  0  0  0  0
  139.6030   70.2840  223.3780 C   0  0  0  0  0  0  0  0  0  0  0  0
  139.6190   69.4610  224.4930 C   0  0  0  0  0  0  0  0  0  0  0  0
  140.1090   70.0000  225.6780 C   0  0  0  0  0  0  0  0  0  0  0  0
  140.1630   69.2530  226.8440 C   0  0  0  0  0  0  0  0  0  0  0  0
  139.6090   67.5930  226.8510 Cl  0  0  0  0  0  0  0  0  0  0  0  0
  140.6560   69.7950  228.0320 C   0  0  0  0  0  0  0  0  0  0  0  0
  141.0820   71.1080  227.9800 C   0  0  0  0  0  0  0  0  0  0  0  0
  141.0370   71.8650  226.8440 C   0  0  0  0  0  0  0  0  0  0  0  0
  140.5480   71.3140  225.6770 C   0  0  0  0  0  0  0  0  0  0  0  0
  140.5080   72.0750  224.5510 N   0  0  0  0  0  0  0  0  0  0  0  0
  139.5510   74.1920  223.2490 H   0  0  0  0  0  0  0  0  0  0  0  0
  140.4104   74.0938  220.3986 H   0  0  0  0  0  0  0  0  0  0  0  0
  138.6112   74.4725  220.7656 H   0  0  0  0  0  0  0  0  0  0  0  0
  137.0219   77.1845  220.7935 H   0  0  0  0  0  0  0  0  0  0  0  0
  137.4376   75.9852  222.0602 H   0  0  0  0  0  0  0  0  0  0  0  0
  136.3244   78.0224  223.0289 H   0  0  0  0  0  0  0  0  0  0  0  0
  137.9990   77.8257  223.6420 H   0  0  0  0  0  0  0  0  0  0  0  0
  136.8167   79.9835  222.1231 H   0  0  0  0  0  0  0  0  0  0  0  0
  138.4436   79.8557  222.9313 H   0  0  0  0  0  0  0  0  0  0  0  0
  137.7135   78.9718  220.1196 H   0  0  0  0  0  0  0  0  0  0  0  0
  138.7710   80.3346  220.5863 H   0  0  0  0  0  0  0  0  0  0  0  0
  140.1330   78.3420  220.0335 H   0  0  0  0  0  0  0  0  0  0  0  0
  141.1622   80.5571  220.7293 H   0  0  0  0  0  0  0  0  0  0  0  0
  142.8768   81.3796  222.2891 H   0  0  0  0  0  0  0  0  0  0  0  0
  143.3350   80.1490  224.4469 H   0  0  0  0  0  0  0  0  0  0  0  0
  141.9794   78.1029  224.8966 H   0  0  0  0  0  0  0  0  0  0  0  0
  139.2177   69.8713  222.4340 H   0  0  0  0  0  0  0  0  0  0  0  0
  139.2586   68.4229  224.4429 H   0  0  0  0  0  0  0  0  0  0  0  0
  140.7029   69.2075  228.9608 H   0  0  0  0  0  0  0  0  0  0  0  0
  141.4769   71.5665  228.8986 H   0  0  0  0  0  0  0  0  0  0  0  0
  141.3883   72.9073  226.8592 H   0  0  0  0  0  0  0  0  0  0  0  0
  1  2  2  0
  2  3  1  0
  3  4  1  0
  4  5  1  0
  5  6  2  0
  5  7  1  0
  7  8  1  0
  8  9  1  0
  9 10  1  0
 10 11  1  0
 11 12  1  0
 12 13  1  0
 13 14  2  0
 14 15  1  0
 15 16  2  0
 16 17  1  0
 17 18  2  0
  2 19  1  0
 19 20  2  0
 20 21  1  0
 21 22  2  0
 22 23  1  0
 23 24  1  0
 23 25  2  0
 25 26  1  0
 26 27  2  0
 27 28  1  0
 28 29  2  0
 12  7  1  0
 18 13  1  0
 29 19  1  0
 28 22  1  0
  3 30  1  0
  4 31  1  0
  4 32  1  0
  8 33  1  0
  8 34  1  0
  9 35  1  0
  9 36  1  0
 10 37  1  0
 10 38  1  0
 11 39  1  0
 11 40  1  0
 12 41  1  6
 14 42  1  0
 15 43  1  0
 16 44  1  0
 17 45  1  0
 20 46  1  0
 21 47  1  0
 25 48  1  0
 26 49  1  0
 27 50  1  0
M  END
>  <smiles>  (92) 
O=C(NCC(=O)N1CCCCC1c1ccccn1)c1ccc2c(Cl)cccc2n1

>  <score_type>  (92) 
oracle

>  <origin>  (92) 
autodockgpu

>  <m_score__min__energy>  (92) 
-8.9100000000000001

>  <m_primary>  (92) 
energy

>  <rmsd>  (92) 
2.9051277417538772

>  <m_score__min__rmsd>  (92) 
2.9051277417538772

>  <meeko>  (92) 
{"free_energy": -8.63, "intermolecular_energy": -10.12, "internal_energy": -1.46, "cluster_size": 8, "cluster_id": 1, "rank_in_cluster": 6}

>  <energy>  (92) 
-7.24

>  <cluster_rmsd>  (92) 
0.28

>  <cluster>  (92) 
5

$$$$

     RDKit          3D

 50 53  0  0  0  0  0  0  0  0999 V2000
  139.1780   74.0740  221.6880 O   0  0  0  0  0  0  0  0  0  0  0  0
  140.3340   74.5690  221.6550 C   0  0  0  0  0  0  0  0  0  0  0  0
  140.5830   75.9330  222.0850 N   0  0  0  0  0  0  0  0  0  0  0  0
  139.4520   76.6710  222.5430 C   0  0  0  0  0  0  0  0  0  0  0  0
  139.4040   78.1160  222.3320 C   0  0  0  0  0  0  0  0  0  0  0  0
  138.2420   78.5480  221.9290 O   0  0  0  0  0  0  0  0  0  0  0  0
  140.3990   79.0970  222.4900 N   0  0  0  0  0  0  0  0  0  0  0  0
  141.0250   79.4910  223.7250 C   0  0  0  0  0  0  0  0  0  0  0  0
  142.5460   79.5850  223.5080 C   0  0  0  0  0  0  0  0  0  0  0  0
  142.8260   80.5610  222.4150 C   0  0  0  0  0  0  0  0  0  0  0  0
  141.5760   81.0290  221.7170 C   0  0  0  0  0  0  0  0  0  0  0  0
  140.7990   79.8190  221.2830 C   0  0  1  0  0  0  0  0  0  0  0  0
  141.5370   79.0010  220.3080 C   0  0  0  0  0  0  0  0  0  0  0  0
  141.7940   79.5070  219.0210 C   0  0  0  0  0  0  0  0  0  0  0  0
  142.4770   78.7660  218.0800 C   0  0  0  0  0  0  0  0  0  0  0  0
  142.9400   77.4810  218.3780 C   0  0  0  0  0  0  0  0  0  0  0  0
  142.6690   77.0250  219.6460 C   0  0  0  0  0  0  0  0  0  0  0  0
  142.0070   77.7640  220.5290 N   0  0  0  0  0  0  0  0  0  0  0  0
  141.4640   73.7790  221.1800 C   0  0  0  0  0  0  0  0  0  0  0  0
  141.2900   72.4800  220.8170 C   0  0  0  0  0  0  0  0  0  0  0  0
  142.3110   71.6650  220.3560 C   0  0  0  0  0  0  0  0  0  0  0  0
  143.5820   72.2240  220.2670 C   0  0  0  0  0  0  0  0  0  0  0  0
  144.6660   71.4860  219.8180 C   0  0  0  0  0  0  0  0  0  0  0  0
  144.4570   69.8140  219.3460 Cl  0  0  0  0  0  0  0  0  0  0  0  0
  145.9410   72.0480  219.7280 C   0  0  0  0  0  0  0  0  0  0  0  0
  146.0600   73.3710  220.1100 C   0  0  0  0  0  0  0  0  0  0  0  0
  145.0060   74.1180  220.5580 C   0  0  0  0  0  0  0  0  0  0  0  0
  143.7530   73.5470  220.6390 C   0  0  0  0  0  0  0  0  0  0  0  0
  142.7110   74.2990  221.0850 N   0  0  0  0  0  0  0  0  0  0  0  0
  141.5660   76.3020  222.0380 H   0  0  0  0  0  0  0  0  0  0  0  0
  138.5686   76.2451  222.0448 H   0  0  0  0  0  0  0  0  0  0  0  0
  139.5030   76.5706  223.6372 H   0  0  0  0  0  0  0  0  0  0  0  0
  140.6361   80.4707  224.0395 H   0  0  0  0  0  0  0  0  0  0  0  0
  140.8062   78.7481  224.5062 H   0  0  0  0  0  0  0  0  0  0  0  0
  143.0299   79.9232  224.4362 H   0  0  0  0  0  0  0  0  0  0  0  0
  142.9417   78.5966  223.2313 H   0  0  0  0  0  0  0  0  0  0  0  0
  143.3361   81.4350  222.8462 H   0  0  0  0  0  0  0  0  0  0  0  0
  143.4519   80.0513  221.6677 H   0  0  0  0  0  0  0  0  0  0  0  0
  140.9688   81.6337  222.4066 H   0  0  0  0  0  0  0  0  0  0  0  0
  141.8367   81.6459  220.8444 H   0  0  0  0  0  0  0  0  0  0  0  0
  139.8931   80.1158  220.7341 H   0  0  0  0  0  0  0  0  0  0  0  0
  141.4424   80.5160  218.7595 H   0  0  0  0  0  0  0  0  0  0  0  0
  142.6599   79.1913  217.0822 H   0  0  0  0  0  0  0  0  0  0  0  0
  143.4874   76.8725  217.6431 H   0  0  0  0  0  0  0  0  0  0  0  0
  143.0097   76.0205  219.9374 H   0  0  0  0  0  0  0  0  0  0  0  0
  140.2798   72.0515  220.8939 H   0  0  0  0  0  0  0  0  0  0  0  0
  142.1245   70.6188  220.0720 H   0  0  0  0  0  0  0  0  0  0  0  0
  146.8053   71.4683  219.3718 H   0  0  0  0  0  0  0  0  0  0  0  0
  147.0504   73.8459  220.0507 H   0  0  0  0  0  0  0  0  0  0  0  0
  145.1563   75.1673  220.8518 H   0  0  0  0  0  0  0  0  0  0  0  0
  1  2  2  0
  2  3  1  0
  3  4  1  0
  4  5  1  0
  5  6  2  0
  5  7  1  0
  7  8  1  0
  8  9  1  0
  9 10  1  0
 10 11  1  0
 11 12  1  0
 12 13  1  0
 13 14  2  0
 14 15  1  0
 15 16  2  0
 16 17  1  0
 17 18  2  0
  2 19  1  0
 19 20  2  0
 20 21  1  0
 21 22  2  0
 22 23  1  0
 23 24  1  0
 23 25  2  0
 25 26  1  0
 26 27  2  0
 27 28  1  0
 28 29  2  0
 12  7  1  0
 18 13  1  0
 29 19  1  0
 28 22  1  0
  3 30  1  0
  4 31  1  0
  4 32  1  0
  8 33  1  0
  8 34  1  0
  9 35  1  0
  9 36  1  0
 10 37  1  0
 10 38  1  0
 11 39  1  0
 11 40  1  0
 12 41  1  6
 14 42  1  0
 15 43  1  0
 16 44  1  0
 17 45  1  0
 20 46  1  0
 21 47  1  0
 25 48  1  0
 26 49  1  0
 27 50  1  0
M  END
>  <smiles>  (93) 
O=C(NCC(=O)N1CCCCC1c1ccccn1)c1ccc2c(Cl)cccc2n1

>  <score_type>  (93) 
oracle

>  <origin>  (93) 
autodockgpu

>  <m_score__min__energy>  (93) 
-8.9100000000000001

>  <m_primary>  (93) 
energy

>  <rmsd>  (93) 
5.905573563082975

>  <m_score__min__rmsd>  (93) 
5.905573563082975

>  <meeko>  (93) 
{"free_energy": -7.24, "intermolecular_energy": -8.73, "internal_energy": -2.92, "cluster_size": 22, "cluster_id": 5, "rank_in_cluster": 15}

>  <energy>  (93) 
-7.2

>  <cluster_rmsd>  (93) 
0.76

>  <cluster>  (93) 
5

$$$$

     RDKit          3D

 50 53  0  0  0  0  0  0  0  0999 V2000
  139.8540   73.9700  222.3100 O   0  0  0  0  0  0  0  0  0  0  0  0
  140.2700   74.9240  221.6030 C   0  0  0  0  0  0  0  0  0  0  0  0
  140.8490   74.6950  220.2920 N   0  0  0  0  0  0  0  0  0  0  0  0
  140.9180   73.3390  219.8560 C   0  0  0  0  0  0  0  0  0  0  0  0
  141.9850   72.4760  220.3590 C   0  0  0  0  0  0  0  0  0  0  0  0
  141.5520   71.3790  220.9160 O   0  0  0  0  0  0  0  0  0  0  0  0
  143.3810   72.6420  220.3420 N   0  0  0  0  0  0  0  0  0  0  0  0
  144.3620   71.6190  220.0980 C   0  0  0  0  0  0  0  0  0  0  0  0
  145.4120   72.1550  219.1070 C   0  0  0  0  0  0  0  0  0  0  0  0
  146.0340   73.3870  219.6730 C   0  0  0  0  0  0  0  0  0  0  0  0
  145.3520   73.8600  220.9300 C   0  0  0  0  0  0  0  0  0  0  0  0
  143.8810   73.9810  220.6510 C   0  0  1  0  0  0  0  0  0  0  0  0
  143.5900   74.9880  219.6170 C   0  0  0  0  0  0  0  0  0  0  0  0
  143.7010   74.6470  218.2580 C   0  0  0  0  0  0  0  0  0  0  0  0
  143.4420   75.5660  217.2630 C   0  0  0  0  0  0  0  0  0  0  0  0
  143.0570   76.8730  217.5770 C   0  0  0  0  0  0  0  0  0  0  0  0
  142.9610   77.1640  218.9170 C   0  0  0  0  0  0  0  0  0  0  0  0
  143.2180   76.2560  219.8510 N   0  0  0  0  0  0  0  0  0  0  0  0
  140.1790   76.2970  222.0860 C   0  0  0  0  0  0  0  0  0  0  0  0
  138.9800   76.8120  222.4710 C   0  0  0  0  0  0  0  0  0  0  0  0
  138.8120   78.1040  222.9410 C   0  0  0  0  0  0  0  0  0  0  0  0
  139.9460   78.9080  223.0170 C   0  0  0  0  0  0  0  0  0  0  0  0
  139.8760   80.2150  223.4740 C   0  0  0  0  0  0  0  0  0  0  0  0
  138.3410   80.8910  223.9730 Cl  0  0  0  0  0  0  0  0  0  0  0  0
  141.0130   81.0200  223.5490 C   0  0  0  0  0  0  0  0  0  0  0  0
  142.2030   80.4450  223.1450 C   0  0  0  0  0  0  0  0  0  0  0  0
  142.2970   79.1600  222.6900 C   0  0  0  0  0  0  0  0  0  0  0  0
  141.1620   78.3770  222.6220 C   0  0  0  0  0  0  0  0  0  0  0  0
  141.2660   77.1000  222.1690 N   0  0  0  0  0  0  0  0  0  0  0  0
  141.1830   75.5250  219.7390 H   0  0  0  0  0  0  0  0  0  0  0  0
  139.9650   72.8646  220.1332 H   0  0  0  0  0  0  0  0  0  0  0  0
  141.1380   73.4234  218.7815 H   0  0  0  0  0  0  0  0  0  0  0  0
  144.8532   71.3464  221.0437 H   0  0  0  0  0  0  0  0  0  0  0  0
  143.8728   70.7293  219.6749 H   0  0  0  0  0  0  0  0  0  0  0  0
  146.1877   71.3923  218.9441 H   0  0  0  0  0  0  0  0  0  0  0  0
  144.9289   72.3913  218.1474 H   0  0  0  0  0  0  0  0  0  0  0  0
  147.0883   73.1743  219.9038 H   0  0  0  0  0  0  0  0  0  0  0  0
  145.9338   74.1841  218.9216 H   0  0  0  0  0  0  0  0  0  0  0  0
  145.5187   73.1340  221.7394 H   0  0  0  0  0  0  0  0  0  0  0  0
  145.7605   74.8332  221.2398 H   0  0  0  0  0  0  0  0  0  0  0  0
  143.3470   74.3602  221.5348 H   0  0  0  0  0  0  0  0  0  0  0  0
  144.0009   73.6252  217.9822 H   0  0  0  0  0  0  0  0  0  0  0  0
  143.5395   75.2670  216.2089 H   0  0  0  0  0  0  0  0  0  0  0  0
  142.8442   77.6219  216.7999 H   0  0  0  0  0  0  0  0  0  0  0  0
  142.6629   78.1773  219.2241 H   0  0  0  0  0  0  0  0  0  0  0  0
  138.0929   76.1650  222.4052 H   0  0  0  0  0  0  0  0  0  0  0  0
  137.8229   78.4795  223.2420 H   0  0  0  0  0  0  0  0  0  0  0  0
  140.9648   82.0577  223.9106 H   0  0  0  0  0  0  0  0  0  0  0  0
  143.1195   81.0515  223.1920 H   0  0  0  0  0  0  0  0  0  0  0  0
  143.2704   78.7522  222.3800 H   0  0  0  0  0  0  0  0  0  0  0  0
  1  2  2  0
  2  3  1  0
  3  4  1  0
  4  5  1  0
  5  6  2  0
  5  7  1  0
  7  8  1  0
  8  9  1  0
  9 10  1  0
 10 11  1  0
 11 12  1  0
 12 13  1  0
 13 14  2  0
 14 15  1  0
 15 16  2  0
 16 17  1  0
 17 18  2  0
  2 19  1  0
 19 20  2  0
 20 21  1  0
 21 22  2  0
 22 23  1  0
 23 24  1  0
 23 25  2  0
 25 26  1  0
 26 27  2  0
 27 28  1  0
 28 29  2  0
 12  7  1  0
 18 13  1  0
 29 19  1  0
 28 22  1  0
  3 30  1  0
  4 31  1  0
  4 32  1  0
  8 33  1  0
  8 34  1  0
  9 35  1  0
  9 36  1  0
 10 37  1  0
 10 38  1  0
 11 39  1  0
 11 40  1  0
 12 41  1  1
 14 42  1  0
 15 43  1  0
 16 44  1  0
 17 45  1  0
 20 46  1  0
 21 47  1  0
 25 48  1  0
 26 49  1  0
 27 50  1  0
M  END
>  <smiles>  (94) 
O=C(NCC(=O)N1CCCCC1c1ccccn1)c1ccc2c(Cl)cccc2n1

>  <score_type>  (94) 
oracle

>  <origin>  (94) 
autodockgpu

>  <m_score__min__energy>  (94) 
-8.9100000000000001

>  <m_primary>  (94) 
energy

>  <rmsd>  (94) 
7.120901635940626

>  <m_score__min__rmsd>  (94) 
7.120901635940626

>  <meeko>  (94) 
{"free_energy": -7.64, "intermolecular_energy": -9.13, "internal_energy": -2.45, "cluster_size": 10, "cluster_id": 4, "rank_in_cluster": 2}

>  <energy>  (94) 
-7.14

>  <cluster_rmsd>  (94) 
0.54

>  <cluster>  (94) 
5

$$$$

     RDKit          3D

 50 53  0  0  0  0  0  0  0  0999 V2000
  139.1940   74.0400  221.6730 O   0  0  0  0  0  0  0  0  0  0  0  0
  140.3410   74.5540  221.6150 C   0  0  0  0  0  0  0  0  0  0  0  0
  140.5720   75.9290  222.0160 N   0  0  0  0  0  0  0  0  0  0  0  0
  139.4350   76.6570  222.4760 C   0  0  0  0  0  0  0  0  0  0  0  0
  139.3920   78.1070  222.3040 C   0  0  0  0  0  0  0  0  0  0  0  0
  138.2320   78.5530  221.9100 O   0  0  0  0  0  0  0  0  0  0  0  0
  140.3900   79.0800  222.4880 N   0  0  0  0  0  0  0  0  0  0  0  0
  141.0060   79.4490  223.7350 C   0  0  0  0  0  0  0  0  0  0  0  0
  142.5300   79.5400  223.5340 C   0  0  0  0  0  0  0  0  0  0  0  0
  142.8240   80.5340  222.4620 C   0  0  0  0  0  0  0  0  0  0  0  0
  141.5830   81.0200  221.7610 C   0  0  0  0  0  0  0  0  0  0  0  0
  140.8040   79.8220  221.2980 C   0  0  1  0  0  0  0  0  0  0  0  0
  141.5480   79.0180  220.3150 C   0  0  0  0  0  0  0  0  0  0  0  0
  141.8610   79.5640  219.0580 C   0  0  0  0  0  0  0  0  0  0  0  0
  142.5510   78.8380  218.1100 C   0  0  0  0  0  0  0  0  0  0  0  0
  142.9640   77.5280  218.3720 C   0  0  0  0  0  0  0  0  0  0  0  0
  142.6380   77.0330  219.6120 C   0  0  0  0  0  0  0  0  0  0  0  0
  141.9720   77.7590  220.5020 N   0  0  0  0  0  0  0  0  0  0  0  0
  141.4780   73.7740  221.1390 C   0  0  0  0  0  0  0  0  0  0  0  0
  141.3110   72.4800  220.7550 C   0  0  0  0  0  0  0  0  0  0  0  0
  142.3390   71.6750  220.2920 C   0  0  0  0  0  0  0  0  0  0  0  0
  143.6090   72.2390  220.2220 C   0  0  0  0  0  0  0  0  0  0  0  0
  144.6990   71.5120  219.7720 C   0  0  0  0  0  0  0  0  0  0  0  0
  144.5000   69.8450  219.2750 Cl  0  0  0  0  0  0  0  0  0  0  0  0
  145.9730   72.0790  219.7010 C   0  0  0  0  0  0  0  0  0  0  0  0
  146.0840   73.3960  220.1030 C   0  0  0  0  0  0  0  0  0  0  0  0
  145.0240   74.1340  220.5510 C   0  0  0  0  0  0  0  0  0  0  0  0
  143.7720   73.5580  220.6140 C   0  0  0  0  0  0  0  0  0  0  0  0
  142.7230   74.3000  221.0610 N   0  0  0  0  0  0  0  0  0  0  0  0
  141.5490   76.3140  221.9490 H   0  0  0  0  0  0  0  0  0  0  0  0
  138.5589   76.2465  221.9525 H   0  0  0  0  0  0  0  0  0  0  0  0
  139.4692   76.5271  223.5678 H   0  0  0  0  0  0  0  0  0  0  0  0
  140.6184   80.4247  224.0633 H   0  0  0  0  0  0  0  0  0  0  0  0
  140.7767   78.6932  224.5007 H   0  0  0  0  0  0  0  0  0  0  0  0
  143.0066   79.8592  224.4726 H   0  0  0  0  0  0  0  0  0  0  0  0
  142.9242   78.5551  223.2433 H   0  0  0  0  0  0  0  0  0  0  0  0
  143.3336   81.3978  222.9138 H   0  0  0  0  0  0  0  0  0  0  0  0
  143.4546   80.0351  221.7114 H   0  0  0  0  0  0  0  0  0  0  0  0
  140.9722   81.6152  222.4557 H   0  0  0  0  0  0  0  0  0  0  0  0
  141.8550   81.6508  220.9019 H   0  0  0  0  0  0  0  0  0  0  0  0
  139.9044   80.1330  220.7466 H   0  0  0  0  0  0  0  0  0  0  0  0
  141.5487   80.5928  218.8255 H   0  0  0  0  0  0  0  0  0  0  0  0
  142.7793   79.2950  217.1358 H   0  0  0  0  0  0  0  0  0  0  0  0
  143.5158   76.9305  217.6313 H   0  0  0  0  0  0  0  0  0  0  0  0
  142.9370   76.0074  219.8742 H   0  0  0  0  0  0  0  0  0  0  0  0
  140.3013   72.0476  220.8156 H   0  0  0  0  0  0  0  0  0  0  0  0
  142.1585   70.6322  219.9919 H   0  0  0  0  0  0  0  0  0  0  0  0
  146.8423   71.5073  219.3439 H   0  0  0  0  0  0  0  0  0  0  0  0
  147.0737   73.8743  220.0605 H   0  0  0  0  0  0  0  0  0  0  0  0
  145.1684   75.1800  220.8592 H   0  0  0  0  0  0  0  0  0  0  0  0
  1  2  2  0
  2  3  1  0
  3  4  1  0
  4  5  1  0
  5  6  2  0
  5  7  1  0
  7  8  1  0
  8  9  1  0
  9 10  1  0
 10 11  1  0
 11 12  1  0
 12 13  1  0
 13 14  2  0
 14 15  1  0
 15 16  2  0
 16 17  1  0
 17 18  2  0
  2 19  1  0
 19 20  2  0
 20 21  1  0
 21 22  2  0
 22 23  1  0
 23 24  1  0
 23 25  2  0
 25 26  1  0
 26 27  2  0
 27 28  1  0
 28 29  2  0
 12  7  1  0
 18 13  1  0
 29 19  1  0
 28 22  1  0
  3 30  1  0
  4 31  1  0
  4 32  1  0
  8 33  1  0
  8 34  1  0
  9 35  1  0
  9 36  1  0
 10 37  1  0
 10 38  1  0
 11 39  1  0
 11 40  1  0
 12 41  1  6
 14 42  1  0
 15 43  1  0
 16 44  1  0
 17 45  1  0
 20 46  1  0
 21 47  1  0
 25 48  1  0
 26 49  1  0
 27 50  1  0
M  END
>  <smiles>  (95) 
O=C(NCC(=O)N1CCCCC1c1ccccn1)c1ccc2c(Cl)cccc2n1

>  <score_type>  (95) 
oracle

>  <origin>  (95) 
autodockgpu

>  <m_score__min__energy>  (95) 
-8.9100000000000001

>  <m_primary>  (95) 
energy

>  <rmsd>  (95) 
5.914353590424926

>  <m_score__min__rmsd>  (95) 
5.914353590424926

>  <meeko>  (95) 
{"free_energy": -7.28, "intermolecular_energy": -8.77, "internal_energy": -2.9, "cluster_size": 22, "cluster_id": 5, "rank_in_cluster": 7}

>  <energy>  (95) 
-7.14

>  <cluster_rmsd>  (95) 
0.73

>  <cluster>  (95) 
5

$$$$

     RDKit          3D

 50 53  0  0  0  0  0  0  0  0999 V2000
  139.2220   74.2540  220.6760 O   0  0  0  0  0  0  0  0  0  0  0  0
  140.3410   74.7380  220.9860 C   0  0  0  0  0  0  0  0  0  0  0  0
  140.4500   76.0360  221.6250 N   0  0  0  0  0  0  0  0  0  0  0  0
  139.2270   76.7240  221.8800 C   0  0  0  0  0  0  0  0  0  0  0  0
  139.2660   78.1140  222.3290 C   0  0  0  0  0  0  0  0  0  0  0  0
  138.0870   78.6250  222.5500 O   0  0  0  0  0  0  0  0  0  0  0  0
  140.3560   78.9730  222.5520 N   0  0  0  0  0  0  0  0  0  0  0  0
  141.0580   79.1610  223.7940 C   0  0  0  0  0  0  0  0  0  0  0  0
  142.5730   79.1390  223.5220 C   0  0  0  0  0  0  0  0  0  0  0  0
  142.9090   80.2060  222.5360 C   0  0  0  0  0  0  0  0  0  0  0  0
  141.6880   80.8660  221.9520 C   0  0  0  0  0  0  0  0  0  0  0  0
  140.7830   79.7920  221.4180 C   0  0  1  0  0  0  0  0  0  0  0  0
  141.4050   79.0290  220.3240 C   0  0  0  0  0  0  0  0  0  0  0  0
  141.3440   79.5170  219.0070 C   0  0  0  0  0  0  0  0  0  0  0  0
  141.9110   78.8260  217.9570 C   0  0  0  0  0  0  0  0  0  0  0  0
  142.5690   77.6110  218.1710 C   0  0  0  0  0  0  0  0  0  0  0  0
  142.6060   77.1700  219.4730 C   0  0  0  0  0  0  0  0  0  0  0  0
  142.0500   77.8600  220.4610 N   0  0  0  0  0  0  0  0  0  0  0  0
  141.5680   74.0000  220.7090 C   0  0  0  0  0  0  0  0  0  0  0  0
  141.5120   72.7200  220.2520 C   0  0  0  0  0  0  0  0  0  0  0  0
  142.6310   71.9550  219.9660 C   0  0  0  0  0  0  0  0  0  0  0  0
  143.8760   72.5450  220.1630 C   0  0  0  0  0  0  0  0  0  0  0  0
  145.0510   71.8570  219.9040 C   0  0  0  0  0  0  0  0  0  0  0  0
  144.9940   70.2100  219.3160 Cl  0  0  0  0  0  0  0  0  0  0  0  0
  146.2990   72.4510  220.1030 C   0  0  0  0  0  0  0  0  0  0  0  0
  146.2960   73.7520  220.5680 C   0  0  0  0  0  0  0  0  0  0  0  0
  145.1510   74.4500  220.8310 C   0  0  0  0  0  0  0  0  0  0  0  0
  143.9250   73.8480  220.6290 C   0  0  0  0  0  0  0  0  0  0  0  0
  142.7910   74.5510  220.8930 N   0  0  0  0  0  0  0  0  0  0  0  0
  141.4080   76.3980  221.8650 H   0  0  0  0  0  0  0  0  0  0  0  0
  138.6480   76.7055  220.9449 H   0  0  0  0  0  0  0  0  0  0  0  0
  138.8009   76.1857  222.7394 H   0  0  0  0  0  0  0  0  0  0  0  0
  140.7764   80.1291  224.2339 H   0  0  0  0  0  0  0  0  0  0  0  0
  140.7947   78.3554  224.4952 H   0  0  0  0  0  0  0  0  0  0  0  0
  143.1180   79.3200  224.4602 H   0  0  0  0  0  0  0  0  0  0  0  0
  142.8620   78.1576  223.1178 H   0  0  0  0  0  0  0  0  0  0  0  0
  143.5155   80.9725  223.0406 H   0  0  0  0  0  0  0  0  0  0  0  0
  143.4570   79.7317  221.7085 H   0  0  0  0  0  0  0  0  0  0  0  0
  141.1656   81.4391  222.7321 H   0  0  0  0  0  0  0  0  0  0  0  0
  141.9781   81.5543  221.1444 H   0  0  0  0  0  0  0  0  0  0  0  0
  139.8924   80.2338  220.9473 H   0  0  0  0  0  0  0  0  0  0  0  0
  140.8328   80.4708  218.8098 H   0  0  0  0  0  0  0  0  0  0  0  0
  141.8448   79.2358  216.9383 H   0  0  0  0  0  0  0  0  0  0  0  0
  143.0286   77.0430  217.3487 H   0  0  0  0  0  0  0  0  0  0  0  0
  143.1101   76.2195  219.7018 H   0  0  0  0  0  0  0  0  0  0  0  0
  140.5214   72.2663  220.1009 H   0  0  0  0  0  0  0  0  0  0  0  0
  142.5392   70.9225  219.5979 H   0  0  0  0  0  0  0  0  0  0  0  0
  147.2357   71.9112  219.9001 H   0  0  0  0  0  0  0  0  0  0  0  0
  147.2624   74.2503  220.7346 H   0  0  0  0  0  0  0  0  0  0  0  0
  145.2057   75.4844  221.2011 H   0  0  0  0  0  0  0  0  0  0  0  0
  1  2  2  0
  2  3  1  0
  3  4  1  0
  4  5  1  0
  5  6  2  0
  5  7  1  0
  7  8  1  0
  8  9  1  0
  9 10  1  0
 10 11  1  0
 11 12  1  0
 12 13  1  0
 13 14  2  0
 14 15  1  0
 15 16  2  0
 16 17  1  0
 17 18  2  0
  2 19  1  0
 19 20  2  0
 20 21  1  0
 21 22  2  0
 22 23  1  0
 23 24  1  0
 23 25  2  0
 25 26  1  0
 26 27  2  0
 27 28  1  0
 28 29  2  0
 12  7  1  0
 18 13  1  0
 29 19  1  0
 28 22  1  0
  3 30  1  0
  4 31  1  0
  4 32  1  0
  8 33  1  0
  8 34  1  0
  9 35  1  0
  9 36  1  0
 10 37  1  0
 10 38  1  0
 11 39  1  0
 11 40  1  0
 12 41  1  6
 14 42  1  0
 15 43  1  0
 16 44  1  0
 17 45  1  0
 20 46  1  0
 21 47  1  0
 25 48  1  0
 26 49  1  0
 27 50  1  0
M  END
>  <smiles>  (96) 
O=C(NCC(=O)N1CCCCC1c1ccccn1)c1ccc2c(Cl)cccc2n1

>  <score_type>  (96) 
oracle

>  <origin>  (96) 
autodockgpu

>  <m_score__min__energy>  (96) 
-8.9100000000000001

>  <m_primary>  (96) 
energy

>  <rmsd>  (96) 
5.946364867530893

>  <m_score__min__rmsd>  (96) 
5.946364867530893

>  <meeko>  (96) 
{"free_energy": -6.8, "intermolecular_energy": -8.29, "internal_energy": -2.96, "cluster_size": 22, "cluster_id": 5, "rank_in_cluster": 22}

>  <energy>  (96) 
-7.11

>  <cluster_rmsd>  (96) 
0.49

>  <cluster>  (96) 
5

$$$$

     RDKit          3D

 50 53  0  0  0  0  0  0  0  0999 V2000
  139.6900   74.4830  222.3040 O   0  0  0  0  0  0  0  0  0  0  0  0
  140.4250   74.8200  221.3410 C   0  0  0  0  0  0  0  0  0  0  0  0
  140.1870   76.0470  220.6030 N   0  0  0  0  0  0  0  0  0  0  0  0
  139.0820   76.8410  221.0300 C   0  0  0  0  0  0  0  0  0  0  0  0
  139.2520   77.7650  222.1490 C   0  0  0  0  0  0  0  0  0  0  0  0
  138.3680   77.6090  223.0950 O   0  0  0  0  0  0  0  0  0  0  0  0
  140.2000   78.7810  222.3600 N   0  0  0  0  0  0  0  0  0  0  0  0
  140.7740   79.1680  223.6220 C   0  0  0  0  0  0  0  0  0  0  0  0
  142.2960   79.3300  223.4520 C   0  0  0  0  0  0  0  0  0  0  0  0
  142.5660   80.3450  222.3930 C   0  0  0  0  0  0  0  0  0  0  0  0
  141.3170   80.7790  221.6700 C   0  0  0  0  0  0  0  0  0  0  0  0
  140.6040   79.5500  221.1830 C   0  0  1  0  0  0  0  0  0  0  0  0
  141.4030   78.7890  220.2100 C   0  0  0  0  0  0  0  0  0  0  0  0
  141.3360   79.1120  218.8440 C   0  0  0  0  0  0  0  0  0  0  0  0
  142.0650   78.4170  217.9030 C   0  0  0  0  0  0  0  0  0  0  0  0
  142.9010   77.3610  218.2820 C   0  0  0  0  0  0  0  0  0  0  0  0
  142.9370   77.0780  219.6260 C   0  0  0  0  0  0  0  0  0  0  0  0
  142.2220   77.7670  220.5060 N   0  0  0  0  0  0  0  0  0  0  0  0
  141.5470   73.9800  220.9380 C   0  0  0  0  0  0  0  0  0  0  0  0
  141.3420   72.6810  220.5880 C   0  0  0  0  0  0  0  0  0  0  0  0
  142.3530   71.8200  220.1940 C   0  0  0  0  0  0  0  0  0  0  0  0
  143.6470   72.3300  220.1590 C   0  0  0  0  0  0  0  0  0  0  0  0
  144.7240   71.5440  219.7780 C   0  0  0  0  0  0  0  0  0  0  0  0
  144.4750   69.8720  219.3260 Cl  0  0  0  0  0  0  0  0  0  0  0  0
  146.0210   72.0570  219.7430 C   0  0  0  0  0  0  0  0  0  0  0  0
  146.1710   73.3810  220.1070 C   0  0  0  0  0  0  0  0  0  0  0  0
  145.1260   74.1750  220.4880 C   0  0  0  0  0  0  0  0  0  0  0  0
  143.8490   73.6520  220.5160 C   0  0  0  0  0  0  0  0  0  0  0  0
  142.8160   74.4510  220.8950 N   0  0  0  0  0  0  0  0  0  0  0  0
  140.8300   76.2850  219.8050 H   0  0  0  0  0  0  0  0  0  0  0  0
  138.7653   77.4412  220.1643 H   0  0  0  0  0  0  0  0  0  0  0  0
  138.3633   76.1009  221.4119 H   0  0  0  0  0  0  0  0  0  0  0  0
  140.3358   80.1224  223.9492 H   0  0  0  0  0  0  0  0  0  0  0  0
  140.5645   78.3966  224.3777 H   0  0  0  0  0  0  0  0  0  0  0  0
  142.7389   79.6630  224.4022 H   0  0  0  0  0  0  0  0  0  0  0  0
  142.7401   78.3663  223.1620 H   0  0  0  0  0  0  0  0  0  0  0  0
  143.0262   81.2277  222.8610 H   0  0  0  0  0  0  0  0  0  0  0  0
  143.2343   79.8818  221.6521 H   0  0  0  0  0  0  0  0  0  0  0  0
  140.6655   81.3397  222.3564 H   0  0  0  0  0  0  0  0  0  0  0  0
  141.5764   81.4286  220.8210 H   0  0  0  0  0  0  0  0  0  0  0  0
  139.7026   79.8232  220.6148 H   0  0  0  0  0  0  0  0  0  0  0  0
  140.6870   79.9383  218.5183 H   0  0  0  0  0  0  0  0  0  0  0  0
  141.9886   78.6958  216.8417 H   0  0  0  0  0  0  0  0  0  0  0  0
  143.4927   76.7926  217.5494 H   0  0  0  0  0  0  0  0  0  0  0  0
  143.5766   76.2571  219.9825 H   0  0  0  0  0  0  0  0  0  0  0  0
  140.3135   72.2921  220.6198 H   0  0  0  0  0  0  0  0  0  0  0  0
  142.1415   70.7759  219.9200 H   0  0  0  0  0  0  0  0  0  0  0  0
  146.8796   71.4391  219.4412 H   0  0  0  0  0  0  0  0  0  0  0  0
  147.1806   73.8174  220.0893 H   0  0  0  0  0  0  0  0  0  0  0  0
  145.3014   75.2236  220.7704 H   0  0  0  0  0  0  0  0  0  0  0  0
  1  2  2  0
  2  3  1  0
  3  4  1  0
  4  5  1  0
  5  6  2  0
  5  7  1  0
  7  8  1  0
  8  9  1  0
  9 10  1  0
 10 11  1  0
 11 12  1  0
 12 13  1  0
 13 14  2  0
 14 15  1  0
 15 16  2  0
 16 17  1  0
 17 18  2  0
  2 19  1  0
 19 20  2  0
 20 21  1  0
 21 22  2  0
 22 23  1  0
 23 24  1  0
 23 25  2  0
 25 26  1  0
 26 27  2  0
 27 28  1  0
 28 29  2  0
 12  7  1  0
 18 13  1  0
 29 19  1  0
 28 22  1  0
  3 30  1  0
  4 31  1  0
  4 32  1  0
  8 33  1  0
  8 34  1  0
  9 35  1  0
  9 36  1  0
 10 37  1  0
 10 38  1  0
 11 39  1  0
 11 40  1  0
 12 41  1  6
 14 42  1  0
 15 43  1  0
 16 44  1  0
 17 45  1  0
 20 46  1  0
 21 47  1  0
 25 48  1  0
 26 49  1  0
 27 50  1  0
M  END
>  <smiles>  (97) 
O=C(NCC(=O)N1CCCCC1c1ccccn1)c1ccc2c(Cl)cccc2n1

>  <score_type>  (97) 
oracle

>  <origin>  (97) 
autodockgpu

>  <m_score__min__energy>  (97) 
-8.9100000000000001

>  <m_primary>  (97) 
energy

>  <rmsd>  (97) 
5.9017063285009455

>  <m_score__min__rmsd>  (97) 
5.9017063285009455

>  <meeko>  (97) 
{"free_energy": -7.14, "intermolecular_energy": -8.63, "internal_energy": -2.63, "cluster_size": 22, "cluster_id": 5, "rank_in_cluster": 18}

>  <energy>  (97) 
-7.04

>  <cluster_rmsd>  (97) 
0.25

>  <cluster>  (97) 
5

$$$$

     RDKit          3D

 50 53  0  0  0  0  0  0  0  0999 V2000
  141.2790   72.6120  221.6660 O   0  0  0  0  0  0  0  0  0  0  0  0
  140.3120   72.6390  222.4700 C   0  0  0  0  0  0  0  0  0  0  0  0
  139.2280   73.5910  222.3160 N   0  0  0  0  0  0  0  0  0  0  0  0
  139.3210   74.4860  221.2080 C   0  0  0  0  0  0  0  0  0  0  0  0
  140.3220   75.5490  221.2270 C   0  0  0  0  0  0  0  0  0  0  0  0
  141.0380   75.5760  222.3170 O   0  0  0  0  0  0  0  0  0  0  0  0
  140.6280   76.5340  220.2720 N   0  0  0  0  0  0  0  0  0  0  0  0
  140.0170   76.6930  218.9780 C   0  0  0  0  0  0  0  0  0  0  0  0
  139.6830   78.1790  218.7590 C   0  0  0  0  0  0  0  0  0  0  0  0
  140.9330   78.9850  218.8770 C   0  0  0  0  0  0  0  0  0  0  0  0
  142.1090   78.1700  219.3510 C   0  0  0  0  0  0  0  0  0  0  0  0
  141.7100   77.4580  220.6120 C   0  0  1  0  0  0  0  0  0  0  0  0
  141.3850   78.3910  221.7020 C   0  0  0  0  0  0  0  0  0  0  0  0
  142.4110   79.1200  222.3280 C   0  0  0  0  0  0  0  0  0  0  0  0
  142.1450   79.9990  223.3570 C   0  0  0  0  0  0  0  0  0  0  0  0
  140.8370   80.1940  223.8120 C   0  0  0  0  0  0  0  0  0  0  0  0
  139.8640   79.4620  223.1740 C   0  0  0  0  0  0  0  0  0  0  0  0
  140.1550   78.6230  222.1860 N   0  0  0  0  0  0  0  0  0  0  0  0
  140.2550   71.7050  223.5900 C   0  0  0  0  0  0  0  0  0  0  0  0
  139.7500   70.4540  223.4150 C   0  0  0  0  0  0  0  0  0  0  0  0
  139.6620   69.5110  224.4270 C   0  0  0  0  0  0  0  0  0  0  0  0
  140.1220   69.8820  225.6870 C   0  0  0  0  0  0  0  0  0  0  0  0
  140.0740   69.0070  226.7600 C   0  0  0  0  0  0  0  0  0  0  0  0
  139.4280   67.3940  226.5510 Cl  0  0  0  0  0  0  0  0  0  0  0  0
  140.5350   69.3800  228.0240 C   0  0  0  0  0  0  0  0  0  0  0  0
  141.0370   70.6620  228.1430 C   0  0  0  0  0  0  0  0  0  0  0  0
  141.0930   71.5440  227.1000 C   0  0  0  0  0  0  0  0  0  0  0  0
  140.6340   71.1580  225.8570 C   0  0  0  0  0  0  0  0  0  0  0  0
  140.6940   72.0420  224.8250 N   0  0  0  0  0  0  0  0  0  0  0  0
  138.4420   73.5750  223.0150 H   0  0  0  0  0  0  0  0  0  0  0  0
  139.5215   73.8730  220.3169 H   0  0  0  0  0  0  0  0  0  0  0  0
  138.3650   75.0296  221.2327 H   0  0  0  0  0  0  0  0  0  0  0  0
  140.7134   76.3529  218.1974 H   0  0  0  0  0  0  0  0  0  0  0  0
  139.0956   76.0943  218.9267 H   0  0  0  0  0  0  0  0  0  0  0  0
  139.2506   78.3151  217.7567 H   0  0  0  0  0  0  0  0  0  0  0  0
  138.9568   78.5101  219.5159 H   0  0  0  0  0  0  0  0  0  0  0  0
  141.1731   79.4082  217.8905 H   0  0  0  0  0  0  0  0  0  0  0  0
  140.7515   79.7715  219.6243 H   0  0  0  0  0  0  0  0  0  0  0  0
  142.3873   77.4354  218.5810 H   0  0  0  0  0  0  0  0  0  0  0  0
  142.9723   78.8245  219.5416 H   0  0  0  0  0  0  0  0  0  0  0  0
  142.5544   76.8789  221.0142 H   0  0  0  0  0  0  0  0  0  0  0  0
  143.4491   78.9864  221.9897 H   0  0  0  0  0  0  0  0  0  0  0  0
  142.9716   80.5534  223.8254 H   0  0  0  0  0  0  0  0  0  0  0  0
  140.6013   80.8904  224.6302 H   0  0  0  0  0  0  0  0  0  0  0  0
  138.8163   79.5740  223.4900 H   0  0  0  0  0  0  0  0  0  0  0  0
  139.3911   70.1750  222.4133 H   0  0  0  0  0  0  0  0  0  0  0  0
  139.2455   68.5099  224.2417 H   0  0  0  0  0  0  0  0  0  0  0  0
  140.5004   68.6899  228.8799 H   0  0  0  0  0  0  0  0  0  0  0  0
  141.4098   70.9888  229.1250 H   0  0  0  0  0  0  0  0  0  0  0  0
  141.5011   72.5544  227.2504 H   0  0  0  0  0  0  0  0  0  0  0  0
  1  2  2  0
  2  3  1  0
  3  4  1  0
  4  5  1  0
  5  6  2  0
  5  7  1  0
  7  8  1  0
  8  9  1  0
  9 10  1  0
 10 11  1  0
 11 12  1  0
 12 13  1  0
 13 14  2  0
 14 15  1  0
 15 16  2  0
 16 17  1  0
 17 18  2  0
  2 19  1  0
 19 20  2  0
 20 21  1  0
 21 22  2  0
 22 23  1  0
 23 24  1  0
 23 25  2  0
 25 26  1  0
 26 27  2  0
 27 28  1  0
 28 29  2  0
 12  7  1  0
 18 13  1  0
 29 19  1  0
 28 22  1  0
  3 30  1  0
  4 31  1  0
  4 32  1  0
  8 33  1  0
  8 34  1  0
  9 35  1  0
  9 36  1  0
 10 37  1  0
 10 38  1  0
 11 39  1  0
 11 40  1  0
 12 41  1  1
 14 42  1  0
 15 43  1  0
 16 44  1  0
 17 45  1  0
 20 46  1  0
 21 47  1  0
 25 48  1  0
 26 49  1  0
 27 50  1  0
M  END
>  <smiles>  (98) 
O=C(NCC(=O)N1CCCCC1c1ccccn1)c1ccc2c(Cl)cccc2n1

>  <score_type>  (98) 
oracle

>  <origin>  (98) 
autodockgpu

>  <m_score__min__energy>  (98) 
-8.9100000000000001

>  <m_primary>  (98) 
energy

>  <rmsd>  (98) 
2.1110480734952417

>  <m_score__min__rmsd>  (98) 
2.1110480734952417

>  <meeko>  (98) 
{"free_energy": -8.9, "intermolecular_energy": -10.39, "internal_energy": -1.43, "cluster_size": 8, "cluster_id": 1, "rank_in_cluster": 2}

>  <energy>  (98) 
-6.9

>  <cluster_rmsd>  (98) 
0.81

>  <cluster>  (98) 
5

$$$$

     RDKit          3D

 50 53  0  0  0  0  0  0  0  0999 V2000
  139.3430   74.0280  221.6820 O   0  0  0  0  0  0  0  0  0  0  0  0
  140.4640   74.5950  221.6120 C   0  0  0  0  0  0  0  0  0  0  0  0
  140.6290   75.9900  221.9760 N   0  0  0  0  0  0  0  0  0  0  0  0
  139.4570   76.6750  222.4140 C   0  0  0  0  0  0  0  0  0  0  0  0
  139.4080   78.1330  222.3400 C   0  0  0  0  0  0  0  0  0  0  0  0
  138.2300   78.6030  222.0360 O   0  0  0  0  0  0  0  0  0  0  0  0
  140.4160   79.0930  222.5380 N   0  0  0  0  0  0  0  0  0  0  0  0
  141.0480   79.4270  223.7880 C   0  0  0  0  0  0  0  0  0  0  0  0
  142.5700   79.5110  223.5730 C   0  0  0  0  0  0  0  0  0  0  0  0
  142.8610   80.5290  222.5230 C   0  0  0  0  0  0  0  0  0  0  0  0
  141.6170   81.0420  221.8470 C   0  0  0  0  0  0  0  0  0  0  0  0
  140.8240   79.8620  221.3630 C   0  0  1  0  0  0  0  0  0  0  0  0
  141.5510   79.0770  220.3520 C   0  0  0  0  0  0  0  0  0  0  0  0
  141.8410   79.6450  219.1000 C   0  0  0  0  0  0  0  0  0  0  0  0
  142.5150   78.9380  218.1270 C   0  0  0  0  0  0  0  0  0  0  0  0
  142.9350   77.6230  218.3580 C   0  0  0  0  0  0  0  0  0  0  0  0
  142.6310   77.1060  219.5950 C   0  0  0  0  0  0  0  0  0  0  0  0
  141.9800   77.8140  220.5090 N   0  0  0  0  0  0  0  0  0  0  0  0
  141.6390   73.8570  221.1600 C   0  0  0  0  0  0  0  0  0  0  0  0
  141.5130   72.5870  220.6900 C   0  0  0  0  0  0  0  0  0  0  0  0
  142.5780   71.8220  220.2430 C   0  0  0  0  0  0  0  0  0  0  0  0
  143.8420   72.4030  220.2840 C   0  0  0  0  0  0  0  0  0  0  0  0
  144.9680   71.7150  219.8580 C   0  0  0  0  0  0  0  0  0  0  0  0
  144.8210   70.0800  219.2510 Cl  0  0  0  0  0  0  0  0  0  0  0  0
  146.2350   72.2990  219.8990 C   0  0  0  0  0  0  0  0  0  0  0  0
  146.3030   73.5900  220.3850 C   0  0  0  0  0  0  0  0  0  0  0  0
  145.2080   74.2880  220.8120 C   0  0  0  0  0  0  0  0  0  0  0  0
  143.9630   73.6960  220.7640 C   0  0  0  0  0  0  0  0  0  0  0  0
  142.8790   74.3990  221.1900 N   0  0  0  0  0  0  0  0  0  0  0  0
  141.5860   76.4190  221.9000 H   0  0  0  0  0  0  0  0  0  0  0  0
  138.6196   76.2953  221.8101 H   0  0  0  0  0  0  0  0  0  0  0  0
  139.4250   76.4692  223.4941 H   0  0  0  0  0  0  0  0  0  0  0  0
  140.6716   80.3974  224.1439 H   0  0  0  0  0  0  0  0  0  0  0  0
  140.8205   78.6548  224.5376 H   0  0  0  0  0  0  0  0  0  0  0  0
  143.0590   79.8029  224.5141 H   0  0  0  0  0  0  0  0  0  0  0  0
  142.9530   78.5305  223.2536 H   0  0  0  0  0  0  0  0  0  0  0  0
  143.3821   81.3773  222.9907 H   0  0  0  0  0  0  0  0  0  0  0  0
  143.4799   80.0439  221.7538 H   0  0  0  0  0  0  0  0  0  0  0  0
  141.0181   81.6248  222.5623 H   0  0  0  0  0  0  0  0  0  0  0  0
  141.8853   81.6917  221.0009 H   0  0  0  0  0  0  0  0  0  0  0  0
  139.9212   80.1943  220.8296 H   0  0  0  0  0  0  0  0  0  0  0  0
  141.5231   80.6772  218.8914 H   0  0  0  0  0  0  0  0  0  0  0  0
  142.7252   79.4132  217.1574 H   0  0  0  0  0  0  0  0  0  0  0  0
  143.4746   77.0397  217.5973 H   0  0  0  0  0  0  0  0  0  0  0  0
  142.9360   76.0765  219.8337 H   0  0  0  0  0  0  0  0  0  0  0  0
  140.5076   72.1416  220.6632 H   0  0  0  0  0  0  0  0  0  0  0  0
  142.4306   70.7974  219.8709 H   0  0  0  0  0  0  0  0  0  0  0  0
  147.1323   71.7594  219.5619 H   0  0  0  0  0  0  0  0  0  0  0  0
  147.2865   74.0806  220.4307 H   0  0  0  0  0  0  0  0  0  0  0  0
  145.3189   75.3146  221.1912 H   0  0  0  0  0  0  0  0  0  0  0  0
  1  2  2  0
  2  3  1  0
  3  4  1  0
  4  5  1  0
  5  6  2  0
  5  7  1  0
  7  8  1  0
  8  9  1  0
  9 10  1  0
 10 11  1  0
 11 12  1  0
 12 13  1  0
 13 14  2  0
 14 15  1  0
 15 16  2  0
 16 17  1  0
 17 18  2  0
  2 19  1  0
 19 20  2  0
 20 21  1  0
 21 22  2  0
 22 23  1  0
 23 24  1  0
 23 25  2  0
 25 26  1  0
 26 27  2  0
 27 28  1  0
 28 29  2  0
 12  7  1  0
 18 13  1  0
 29 19  1  0
 28 22  1  0
  3 30  1  0
  4 31  1  0
  4 32  1  0
  8 33  1  0
  8 34  1  0
  9 35  1  0
  9 36  1  0
 10 37  1  0
 10 38  1  0
 11 39  1  0
 11 40  1  0
 12 41  1  6
 14 42  1  0
 15 43  1  0
 16 44  1  0
 17 45  1  0
 20 46  1  0
 21 47  1  0
 25 48  1  0
 26 49  1  0
 27 50  1  0
M  END
>  <smiles>  (99) 
O=C(NCC(=O)N1CCCCC1c1ccccn1)c1ccc2c(Cl)cccc2n1

>  <score_type>  (99) 
oracle

>  <origin>  (99) 
autodockgpu

>  <m_score__min__energy>  (99) 
-8.9100000000000001

>  <m_primary>  (99) 
energy

>  <rmsd>  (99) 
5.954296415557328

>  <m_score__min__rmsd>  (99) 
5.954296415557328

>  <meeko>  (99) 
{"free_energy": -7.28, "intermolecular_energy": -8.77, "internal_energy": -2.89, "cluster_size": 22, "cluster_id": 5, "rank_in_cluster": 11}

>  <energy>  (99) 
-6.8

>  <cluster_rmsd>  (99) 
0.39

>  <cluster>  (99) 
5

$$$$

     RDKit          3D

 50 53  0  0  0  0  0  0  0  0999 V2000
  139.1160   75.3330  222.4650 O   0  0  0  0  0  0  0  0  0  0  0  0
  140.1980   75.8490  222.0860 C   0  0  0  0  0  0  0  0  0  0  0  0
  141.2930   75.0320  221.5950 N   0  0  0  0  0  0  0  0  0  0  0  0
  141.0710   73.6240  221.5660 C   0  0  0  0  0  0  0  0  0  0  0  0
  141.9240   72.7800  220.7330 C   0  0  0  0  0  0  0  0  0  0  0  0
  141.2650   71.8950  220.0370 O   0  0  0  0  0  0  0  0  0  0  0  0
  143.3200   72.7700  220.5680 N   0  0  0  0  0  0  0  0  0  0  0  0
  144.1470   71.6150  220.3340 C   0  0  0  0  0  0  0  0  0  0  0  0
  145.1410   71.9320  219.2020 C   0  0  0  0  0  0  0  0  0  0  0  0
  145.9570   73.1210  219.5850 C   0  0  0  0  0  0  0  0  0  0  0  0
  145.4690   73.7790  220.8490 C   0  0  0  0  0  0  0  0  0  0  0  0
  144.0010   74.0580  220.6980 C   0  0  1  0  0  0  0  0  0  0  0  0
  143.7200   75.0010  219.6040 C   0  0  0  0  0  0  0  0  0  0  0  0
  143.6880   74.5430  218.2760 C   0  0  0  0  0  0  0  0  0  0  0  0
  143.4350   75.3990  217.2250 C   0  0  0  0  0  0  0  0  0  0  0  0
  143.1990   76.7590  217.4500 C   0  0  0  0  0  0  0  0  0  0  0  0
  143.2390   77.1650  218.7630 C   0  0  0  0  0  0  0  0  0  0  0  0
  143.4870   76.3150  219.7520 N   0  0  0  0  0  0  0  0  0  0  0  0
  140.3840   77.2950  222.1300 C   0  0  0  0  0  0  0  0  0  0  0  0
  139.6240   78.1100  221.3490 C   0  0  0  0  0  0  0  0  0  0  0  0
  139.7400   79.4910  221.3350 C   0  0  0  0  0  0  0  0  0  0  0  0
  140.6930   80.0600  222.1740 C   0  0  0  0  0  0  0  0  0  0  0  0
  140.8810   81.4320  222.2280 C   0  0  0  0  0  0  0  0  0  0  0  0
  139.9110   82.4920  221.2290 Cl  0  0  0  0  0  0  0  0  0  0  0  0
  141.8370   82.0020  223.0710 C   0  0  0  0  0  0  0  0  0  0  0  0
  142.5800   81.1270  223.8410 C   0  0  0  0  0  0  0  0  0  0  0  0
  142.4130   79.7710  223.8040 C   0  0  0  0  0  0  0  0  0  0  0  0
  141.4630   79.2240  222.9660 C   0  0  0  0  0  0  0  0  0  0  0  0
  141.3040   77.8740  222.9370 N   0  0  0  0  0  0  0  0  0  0  0  0
  142.1780   75.5110  221.2900 H   0  0  0  0  0  0  0  0  0  0  0  0
  141.1739   73.2622  222.5997 H   0  0  0  0  0  0  0  0  0  0  0  0
  140.0785   73.5277  221.1017 H   0  0  0  0  0  0  0  0  0  0  0  0
  144.7001   71.3654  221.2515 H   0  0  0  0  0  0  0  0  0  0  0  0
  143.5181   70.7591  220.0478 H   0  0  0  0  0  0  0  0  0  0  0  0
  145.8026   71.0682  219.0406 H   0  0  0  0  0  0  0  0  0  0  0  0
  144.5894   72.1453  218.2745 H   0  0  0  0  0  0  0  0  0  0  0  0
  146.9982   72.7995  219.7351 H   0  0  0  0  0  0  0  0  0  0  0  0
  145.8715   73.8579  218.7728 H   0  0  0  0  0  0  0  0  0  0  0  0
  145.6342   73.1085  221.7052 H   0  0  0  0  0  0  0  0  0  0  0  0
  146.0172   74.7164  221.0247 H   0  0  0  0  0  0  0  0  0  0  0  0
  143.6111   74.5749  221.5872 H   0  0  0  0  0  0  0  0  0  0  0  0
  143.8688   73.4777  218.0702 H   0  0  0  0  0  0  0  0  0  0  0  0
  143.4186   75.0074  216.1972 H   0  0  0  0  0  0  0  0  0  0  0  0
  142.9941   77.4603  216.6276 H   0  0  0  0  0  0  0  0  0  0  0  0
  143.0604   78.2241  219.0006 H   0  0  0  0  0  0  0  0  0  0  0  0
  138.8745   77.6461  220.6910 H   0  0  0  0  0  0  0  0  0  0  0  0
  139.1044   80.1121  220.6868 H   0  0  0  0  0  0  0  0  0  0  0  0
  141.9908   83.0901  223.1198 H   0  0  0  0  0  0  0  0  0  0  0  0
  143.3427   81.5421  224.5163 H   0  0  0  0  0  0  0  0  0  0  0  0
  143.0321   79.1197  224.4384 H   0  0  0  0  0  0  0  0  0  0  0  0
  1  2  2  0
  2  3  1  0
  3  4  1  0
  4  5  1  0
  5  6  2  0
  5  7  1  0
  7  8  1  0
  8  9  1  0
  9 10  1  0
 10 11  1  0
 11 12  1  0
 12 13  1  0
 13 14  2  0
 14 15  1  0
 15 16  2  0
 16 17  1  0
 17 18  2  0
  2 19  1  0
 19 20  2  0
 20 21  1  0
 21 22  2  0
 22 23  1  0
 23 24  1  0
 23 25  2  0
 25 26  1  0
 26 27  2  0
 27 28  1  0
 28 29  2  0
 12  7  1  0
 18 13  1  0
 29 19  1  0
 28 22  1  0
  3 30  1  0
  4 31  1  0
  4 32  1  0
  8 33  1  0
  8 34  1  0
  9 35  1  0
  9 36  1  0
 10 37  1  0
 10 38  1  0
 11 39  1  0
 11 40  1  0
 12 41  1  1
 14 42  1  0
 15 43  1  0
 16 44  1  0
 17 45  1  0
 20 46  1  0
 21 47  1  0
 25 48  1  0
 26 49  1  0
 27 50  1  0
M  END
>  <smiles>  (100) 
O=C(NCC(=O)N1CCCCC1c1ccccn1)c1ccc2c(Cl)cccc2n1

>  <score_type>  (100) 
oracle

>  <origin>  (100) 
autodockgpu

>  <m_score__min__energy>  (100) 
-8.9100000000000001

>  <m_primary>  (100) 
energy

>  <rmsd>  (100) 
7.584884093225513

>  <m_score__min__rmsd>  (100) 
7.584884093225513

>  <meeko>  (100) 
{"free_energy": -7.48, "intermolecular_energy": -8.97, "internal_energy": -2.26, "cluster_size": 10, "cluster_id": 4, "rank_in_cluster": 5}

>  <energy>  (100) 
-7.27

>  <cluster_rmsd>  (100) 
0.0

>  <cluster>  (100) 
6

$$$$
