
     RDKit          3D

 48 51  0  0  0  0  0  0  0  0999 V2000
  138.4250   71.6250  221.3040 O   0  0  0  0  0  0  0  0  0  0  0  0
  139.0210   72.0720  222.3290 C   0  0  0  0  0  0  0  0  0  0  0  0
  139.3440   73.4630  222.3010 N   0  0  0  0  0  0  0  0  0  0  0  0
  138.9670   74.2050  221.1280 C   0  0  0  0  0  0  0  0  0  0  0  0
  138.4360   75.5390  221.4310 C   0  0  0  0  0  0  0  0  0  0  0  0
  137.4210   75.7700  222.1360 O   0  0  0  0  0  0  0  0  0  0  0  0
  139.1100   76.6680  220.8900 N   0  0  0  0  0  0  0  0  0  0  0  0
  138.5300   77.8960  220.3540 C   0  0  0  0  0  0  0  0  0  0  0  0
  139.4800   78.2900  219.2290 C   0  0  0  0  0  0  0  0  0  0  0  0
  140.6010   77.2610  219.2690 C   0  0  0  0  0  0  0  0  0  0  0  0
  140.5590   76.8680  220.7420 C   0  0  1  0  0  0  0  0  0  0  0  0
  141.0150   77.9390  221.6410 C   0  0  0  0  0  0  0  0  0  0  0  0
  140.7240   78.0310  222.9730 C   0  0  0  0  0  0  0  0  0  0  0  0
  141.1820   79.0620  223.7680 C   0  0  0  0  0  0  0  0  0  0  0  0
  141.9730   80.0510  223.1900 C   0  0  0  0  0  0  0  0  0  0  0  0
  142.5560   81.3650  224.2010 Cl  0  0  0  0  0  0  0  0  0  0  0  0
  142.2850   79.9860  221.8350 C   0  0  0  0  0  0  0  0  0  0  0  0
  141.8060   78.9390  221.0850 C   0  0  0  0  0  0  0  0  0  0  0  0
  139.3560   71.2250  223.4670 C   0  0  0  0  0  0  0  0  0  0  0  0
  139.1110   69.8730  223.3520 C   0  0  0  0  0  0  0  0  0  0  0  0
  139.3950   68.9940  224.3750 C   0  0  0  0  0  0  0  0  0  0  0  0
  139.9470   69.5290  225.5440 C   0  0  0  0  0  0  0  0  0  0  0  0
  140.2440   68.6940  226.5840 C   0  0  0  0  0  0  0  0  0  0  0  0
  140.7850   69.2380  227.7240 C   0  0  0  0  0  0  0  0  0  0  0  0
  141.1560   68.1310  229.0430 Cl  0  0  0  0  0  0  0  0  0  0  0  0
  141.0420   70.5990  227.8610 C   0  0  0  0  0  0  0  0  0  0  0  0
  140.7330   71.4310  226.7950 C   0  0  0  0  0  0  0  0  0  0  0  0
  140.1890   70.8830  225.6510 C   0  0  0  0  0  0  0  0  0  0  0  0
  139.8900   71.7090  224.6100 N   0  0  0  0  0  0  0  0  0  0  0  0
  139.8340   73.8630  223.1260 H   0  0  0  0  0  0  0  0  0  0  0  0
  139.8538   74.3194  220.4872 H   0  0  0  0  0  0  0  0  0  0  0  0
  138.1653   73.6407  220.6292 H   0  0  0  0  0  0  0  0  0  0  0  0
  137.5174   77.7132  219.9651 H   0  0  0  0  0  0  0  0  0  0  0  0
  138.4249   78.6829  221.1154 H   0  0  0  0  0  0  0  0  0  0  0  0
  138.9623   78.2579  218.2590 H   0  0  0  0  0  0  0  0  0  0  0  0
  139.8601   79.3147  219.3540 H   0  0  0  0  0  0  0  0  0  0  0  0
  140.3898   76.4036  218.6130 H   0  0  0  0  0  0  0  0  0  0  0  0
  141.5765   77.6295  218.9188 H   0  0  0  0  0  0  0  0  0  0  0  0
  141.2079   76.0170  220.9963 H   0  0  0  0  0  0  0  0  0  0  0  0
  140.0984   77.2505  223.4308 H   0  0  0  0  0  0  0  0  0  0  0  0
  140.9270   79.1015  224.8373 H   0  0  0  0  0  0  0  0  0  0  0  0
  142.9080   80.7641  221.3698 H   0  0  0  0  0  0  0  0  0  0  0  0
  142.0551   78.8903  220.0147 H   0  0  0  0  0  0  0  0  0  0  0  0
  138.6771   69.4854  222.4185 H   0  0  0  0  0  0  0  0  0  0  0  0
  139.1959   67.9167  224.2764 H   0  0  0  0  0  0  0  0  0  0  0  0
  140.0547   67.6129  226.5105 H   0  0  0  0  0  0  0  0  0  0  0  0
  141.4772   71.0028  228.7870 H   0  0  0  0  0  0  0  0  0  0  0  0
  140.9190   72.5132  226.8605 H   0  0  0  0  0  0  0  0  0  0  0  0
  1  2  2  0
  2  3  1  0
  3  4  1  0
  4  5  1  0
  5  6  2  0
  5  7  1  0
  7  8  1  0
  8  9  1  0
  9 10  1  0
 10 11  1  0
 11 12  1  0
 12 13  2  0
 13 14  1  0
 14 15  2  0
 15 16  1  0
 15 17  1  0
 17 18  2  0
  2 19  1  0
 19 20  2  0
 20 21  1  0
 21 22  2  0
 22 23  1  0
 23 24  2  0
 24 25  1  0
 24 26  1  0
 26 27  2  0
 27 28  1  0
 28 29  2  0
 11  7  1  0
 18 12  1  0
 29 19  1  0
 28 22  1  0
  3 30  1  0
  4 31  1  0
  4 32  1  0
  8 33  1  0
  8 34  1  0
  9 35  1  0
  9 36  1  0
 10 37  1  0
 10 38  1  0
 11 39  1  6
 13 40  1  0
 14 41  1  0
 17 42  1  0
 18 43  1  0
 20 44  1  0
 21 45  1  0
 23 46  1  0
 26 47  1  0
 27 48  1  0
M  END
>  <smiles>  (1) 
O=C(NCC(=O)N1CCC[C@H]1c1ccc(Cl)cc1)c1ccc2cc(Cl)ccc2n1

>  <score_type>  (1) 
oracle

>  <origin>  (1) 
autodockgpu

>  <m_score__min__energy>  (1) 
-8.7400000000000002

>  <m_primary>  (1) 
energy

>  <rmsd>  (1) 
1.7093714553463595

>  <m_score__min__rmsd>  (1) 
1.7093714553463595

>  <meeko>  (1) 
{"free_energy": -8.32, "intermolecular_energy": -9.81, "internal_energy": -1.3, "cluster_size": 29, "cluster_id": 1, "rank_in_cluster": 15}

>  <energy>  (1) 
-8.74

>  <cluster_rmsd>  (1) 
0.0

>  <cluster>  (1) 
1

$$$$

     RDKit          3D

 48 51  0  0  0  0  0  0  0  0999 V2000
  139.2490   71.7490  220.6620 O   0  0  0  0  0  0  0  0  0  0  0  0
  139.1980   72.2140  221.8390 C   0  0  0  0  0  0  0  0  0  0  0  0
  138.8940   73.6060  221.9440 N   0  0  0  0  0  0  0  0  0  0  0  0
  138.6800   74.3290  220.7190 C   0  0  0  0  0  0  0  0  0  0  0  0
  139.9100   74.5420  219.9470 C   0  0  0  0  0  0  0  0  0  0  0  0
  140.4740   73.6760  219.2330 O   0  0  0  0  0  0  0  0  0  0  0  0
  140.5210   75.8250  220.0010 N   0  0  0  0  0  0  0  0  0  0  0  0
  140.3590   76.9430  219.0750 C   0  0  0  0  0  0  0  0  0  0  0  0
  141.7290   77.6110  219.0650 C   0  0  0  0  0  0  0  0  0  0  0  0
  142.5620   76.8380  220.0770 C   0  0  0  0  0  0  0  0  0  0  0  0
  141.4640   76.3340  221.0070 C   0  0  1  0  0  0  0  0  0  0  0  0
  140.8330   77.4040  221.7940 C   0  0  0  0  0  0  0  0  0  0  0  0
  141.4600   78.5340  222.2390 C   0  0  0  0  0  0  0  0  0  0  0  0
  140.8140   79.5050  222.9770 C   0  0  0  0  0  0  0  0  0  0  0  0
  139.4670   79.3280  223.2810 C   0  0  0  0  0  0  0  0  0  0  0  0
  138.6440   80.5640  224.2210 Cl  0  0  0  0  0  0  0  0  0  0  0  0
  138.8010   78.1870  222.8430 C   0  0  0  0  0  0  0  0  0  0  0  0
  139.4880   77.2480  222.1110 C   0  0  0  0  0  0  0  0  0  0  0  0
  139.4340   71.3870  223.0160 C   0  0  0  0  0  0  0  0  0  0  0  0
  139.0060   70.0770  222.9710 C   0  0  0  0  0  0  0  0  0  0  0  0
  139.1850   69.2170  224.0350 C   0  0  0  0  0  0  0  0  0  0  0  0
  139.8210   69.7290  225.1710 C   0  0  0  0  0  0  0  0  0  0  0  0
  140.0190   68.9130  226.2490 C   0  0  0  0  0  0  0  0  0  0  0  0
  140.6460   69.4340  227.3560 C   0  0  0  0  0  0  0  0  0  0  0  0
  140.8830   68.3530  228.7250 Cl  0  0  0  0  0  0  0  0  0  0  0  0
  141.0860   70.7530  227.4220 C   0  0  0  0  0  0  0  0  0  0  0  0
  140.8760   71.5660  226.3180 C   0  0  0  0  0  0  0  0  0  0  0  0
  140.2450   71.0410  225.2080 C   0  0  0  0  0  0  0  0  0  0  0  0
  140.0450   71.8480  224.1290 N   0  0  0  0  0  0  0  0  0  0  0  0
  138.8450   74.0210  222.8960 H   0  0  0  0  0  0  0  0  0  0  0  0
  137.9720   73.7610  220.0977 H   0  0  0  0  0  0  0  0  0  0  0  0
  138.2904   75.3212  220.9906 H   0  0  0  0  0  0  0  0  0  0  0  0
  140.0913   76.5837  218.0704 H   0  0  0  0  0  0  0  0  0  0  0  0
  139.5539   77.6298  219.3753 H   0  0  0  0  0  0  0  0  0  0  0  0
  142.1815   77.5465  218.0644 H   0  0  0  0  0  0  0  0  0  0  0  0
  141.6653   78.6796  219.3181 H   0  0  0  0  0  0  0  0  0  0  0  0
  143.1082   76.0079  219.6051 H   0  0  0  0  0  0  0  0  0  0  0  0
  143.3488   77.4270  220.5710 H   0  0  0  0  0  0  0  0  0  0  0  0
  141.8151   75.6210  221.7675 H   0  0  0  0  0  0  0  0  0  0  0  0
  142.5241   78.6755  221.9989 H   0  0  0  0  0  0  0  0  0  0  0  0
  141.3529   80.4012  223.3183 H   0  0  0  0  0  0  0  0  0  0  0  0
  137.7371   78.0384  223.0799 H   0  0  0  0  0  0  0  0  0  0  0  0
  138.9588   76.3475  221.7661 H   0  0  0  0  0  0  0  0  0  0  0  0
  138.5084   69.7076  222.0622 H   0  0  0  0  0  0  0  0  0  0  0  0
  138.8420   68.1727  223.9919 H   0  0  0  0  0  0  0  0  0  0  0  0
  139.6850   67.8651  226.2315 H   0  0  0  0  0  0  0  0  0  0  0  0
  141.5854   71.1391  228.3229 H   0  0  0  0  0  0  0  0  0  0  0  0
  141.2077   72.6148  226.3268 H   0  0  0  0  0  0  0  0  0  0  0  0
  1  2  2  0
  2  3  1  0
  3  4  1  0
  4  5  1  0
  5  6  2  0
  5  7  1  0
  7  8  1  0
  8  9  1  0
  9 10  1  0
 10 11  1  0
 11 12  1  0
 12 13  2  0
 13 14  1  0
 14 15  2  0
 15 16  1  0
 15 17  1  0
 17 18  2  0
  2 19  1  0
 19 20  2  0
 20 21  1  0
 21 22  2  0
 22 23  1  0
 23 24  2  0
 24 25  1  0
 24 26  1  0
 26 27  2  0
 27 28  1  0
 28 29  2  0
 11  7  1  0
 18 12  1  0
 29 19  1  0
 28 22  1  0
  3 30  1  0
  4 31  1  0
  4 32  1  0
  8 33  1  0
  8 34  1  0
  9 35  1  0
  9 36  1  0
 10 37  1  0
 10 38  1  0
 11 39  1  1
 13 40  1  0
 14 41  1  0
 17 42  1  0
 18 43  1  0
 20 44  1  0
 21 45  1  0
 23 46  1  0
 26 47  1  0
 27 48  1  0
M  END
>  <smiles>  (2) 
O=C(NCC(=O)N1CCC[C@H]1c1ccc(Cl)cc1)c1ccc2cc(Cl)ccc2n1

>  <score_type>  (2) 
oracle

>  <origin>  (2) 
autodockgpu

>  <m_score__min__energy>  (2) 
-8.7400000000000002

>  <m_primary>  (2) 
energy

>  <rmsd>  (2) 
1.6540868529754595

>  <m_score__min__rmsd>  (2) 
1.6540868529754595

>  <meeko>  (2) 
{"free_energy": -8.08, "intermolecular_energy": -9.57, "internal_energy": -1.37, "cluster_size": 29, "cluster_id": 1, "rank_in_cluster": 21}

>  <energy>  (2) 
-8.7

>  <cluster_rmsd>  (2) 
0.06

>  <cluster>  (2) 
1

$$$$

     RDKit          3D

 48 51  0  0  0  0  0  0  0  0999 V2000
  139.7820   74.0460  222.3410 O   0  0  0  0  0  0  0  0  0  0  0  0
  140.0920   72.8300  222.1730 C   0  0  0  0  0  0  0  0  0  0  0  0
  140.4220   72.4530  220.8350 N   0  0  0  0  0  0  0  0  0  0  0  0
  140.3700   73.4780  219.8280 C   0  0  0  0  0  0  0  0  0  0  0  0
  141.6470   74.1780  219.6450 C   0  0  0  0  0  0  0  0  0  0  0  0
  142.7800   73.6350  219.6790 O   0  0  0  0  0  0  0  0  0  0  0  0
  141.6160   75.5800  219.4100 N   0  0  0  0  0  0  0  0  0  0  0  0
  140.6950   76.3340  218.5640 C   0  0  0  0  0  0  0  0  0  0  0  0
  141.5500   77.4680  218.0120 C   0  0  0  0  0  0  0  0  0  0  0  0
  142.9120   77.3050  218.6710 C   0  0  0  0  0  0  0  0  0  0  0  0
  142.5060   76.6080  219.9650 C   0  0  1  0  0  0  0  0  0  0  0  0
  141.7590   77.4800  220.8840 C   0  0  0  0  0  0  0  0  0  0  0  0
  141.8130   78.8460  220.9000 C   0  0  0  0  0  0  0  0  0  0  0  0
  141.0870   79.6120  221.7880 C   0  0  0  0  0  0  0  0  0  0  0  0
  140.2640   78.9690  222.7090 C   0  0  0  0  0  0  0  0  0  0  0  0
  139.3390   79.9430  223.8410 Cl  0  0  0  0  0  0  0  0  0  0  0  0
  140.1880   77.5790  222.7190 C   0  0  0  0  0  0  0  0  0  0  0  0
  140.9300   76.8600  221.8130 C   0  0  0  0  0  0  0  0  0  0  0  0
  140.1120   71.8710  223.2710 C   0  0  0  0  0  0  0  0  0  0  0  0
  139.6270   70.6040  223.0200 C   0  0  0  0  0  0  0  0  0  0  0  0
  139.6050   69.6290  223.9960 C   0  0  0  0  0  0  0  0  0  0  0  0
  140.0990   69.9760  225.2580 C   0  0  0  0  0  0  0  0  0  0  0  0
  140.0970   69.0410  226.2550 C   0  0  0  0  0  0  0  0  0  0  0  0
  140.5850   69.4010  227.4880 C   0  0  0  0  0  0  0  0  0  0  0  0
  140.5660   68.1700  228.7470 Cl  0  0  0  0  0  0  0  0  0  0  0  0
  141.0800   70.6730  227.7610 C   0  0  0  0  0  0  0  0  0  0  0  0
  141.0730   71.6080  226.7370 C   0  0  0  0  0  0  0  0  0  0  0  0
  140.5820   71.2460  225.5000 C   0  0  0  0  0  0  0  0  0  0  0  0
  140.5810   72.1720  224.5010 N   0  0  0  0  0  0  0  0  0  0  0  0
  140.6810   71.4610  220.6610 H   0  0  0  0  0  0  0  0  0  0  0  0
  140.0862   73.0139  218.8719 H   0  0  0  0  0  0  0  0  0  0  0  0
  139.6342   74.2247  220.1612 H   0  0  0  0  0  0  0  0  0  0  0  0
  140.3068   75.7044  217.7498 H   0  0  0  0  0  0  0  0  0  0  0  0
  139.8136   76.6959  219.1136 H   0  0  0  0  0  0  0  0  0  0  0  0
  141.6391   77.3857  216.9187 H   0  0  0  0  0  0  0  0  0  0  0  0
  141.1087   78.4532  218.2232 H   0  0  0  0  0  0  0  0  0  0  0  0
  143.5849   76.6799  218.0657 H   0  0  0  0  0  0  0  0  0  0  0  0
  143.4724   78.2415  218.8084 H   0  0  0  0  0  0  0  0  0  0  0  0
  143.3561   76.2569  220.5684 H   0  0  0  0  0  0  0  0  0  0  0  0
  142.4631   79.3559  220.1738 H   0  0  0  0  0  0  0  0  0  0  0  0
  141.1568   80.7096  221.7690 H   0  0  0  0  0  0  0  0  0  0  0  0
  139.5416   77.0623  223.4436 H   0  0  0  0  0  0  0  0  0  0  0  0
  140.8665   75.7619  221.8227 H   0  0  0  0  0  0  0  0  0  0  0  0
  139.2479   70.3649  222.0155 H   0  0  0  0  0  0  0  0  0  0  0  0
  139.2153   68.6211  223.7904 H   0  0  0  0  0  0  0  0  0  0  0  0
  139.7142   68.0256  226.0748 H   0  0  0  0  0  0  0  0  0  0  0  0
  141.4652   70.9288  228.7591 H   0  0  0  0  0  0  0  0  0  0  0  0
  141.4542   72.6254  226.9091 H   0  0  0  0  0  0  0  0  0  0  0  0
  1  2  2  0
  2  3  1  0
  3  4  1  0
  4  5  1  0
  5  6  2  0
  5  7  1  0
  7  8  1  0
  8  9  1  0
  9 10  1  0
 10 11  1  0
 11 12  1  0
 12 13  2  0
 13 14  1  0
 14 15  2  0
 15 16  1  0
 15 17  1  0
 17 18  2  0
  2 19  1  0
 19 20  2  0
 20 21  1  0
 21 22  2  0
 22 23  1  0
 23 24  2  0
 24 25  1  0
 24 26  1  0
 26 27  2  0
 27 28  1  0
 28 29  2  0
 11  7  1  0
 18 12  1  0
 29 19  1  0
 28 22  1  0
  3 30  1  0
  4 31  1  0
  4 32  1  0
  8 33  1  0
  8 34  1  0
  9 35  1  0
  9 36  1  0
 10 37  1  0
 10 38  1  0
 11 39  1  1
 13 40  1  0
 14 41  1  0
 17 42  1  0
 18 43  1  0
 20 44  1  0
 21 45  1  0
 23 46  1  0
 26 47  1  0
 27 48  1  0
M  END
>  <smiles>  (3) 
O=C(NCC(=O)N1CCC[C@H]1c1ccc(Cl)cc1)c1ccc2cc(Cl)ccc2n1

>  <score_type>  (3) 
oracle

>  <origin>  (3) 
autodockgpu

>  <m_score__min__energy>  (3) 
-8.7400000000000002

>  <m_primary>  (3) 
energy

>  <rmsd>  (3) 
1.9891891226156386

>  <m_score__min__rmsd>  (3) 
1.9891891226156386

>  <meeko>  (3) 
{"free_energy": -8.09, "intermolecular_energy": -9.58, "internal_energy": -1.45, "cluster_size": 29, "cluster_id": 1, "rank_in_cluster": 20}

>  <energy>  (3) 
-8.69

>  <cluster_rmsd>  (3) 
0.22

>  <cluster>  (3) 
1

$$$$

     RDKit          3D

 48 51  0  0  0  0  0  0  0  0999 V2000
  139.4950   71.9380  220.7310 O   0  0  0  0  0  0  0  0  0  0  0  0
  139.1310   72.2600  221.9010 C   0  0  0  0  0  0  0  0  0  0  0  0
  138.4210   73.4940  222.0120 N   0  0  0  0  0  0  0  0  0  0  0  0
  138.1940   74.2360  220.8010 C   0  0  0  0  0  0  0  0  0  0  0  0
  138.3260   75.6880  220.9760 C   0  0  0  0  0  0  0  0  0  0  0  0
  137.3720   76.5060  220.9710 O   0  0  0  0  0  0  0  0  0  0  0  0
  139.6290   76.2240  221.1660 N   0  0  0  0  0  0  0  0  0  0  0  0
  140.2790   76.5970  222.4190 C   0  0  0  0  0  0  0  0  0  0  0  0
  141.1390   77.7970  222.0430 C   0  0  0  0  0  0  0  0  0  0  0  0
  140.9600   77.9680  220.5420 C   0  0  0  0  0  0  0  0  0  0  0  0
  140.6370   76.5320  220.1410 C   0  0  1  0  0  0  0  0  0  0  0  0
  141.7840   75.6210  220.2710 C   0  0  0  0  0  0  0  0  0  0  0  0
  141.7250   74.3350  220.7310 C   0  0  0  0  0  0  0  0  0  0  0  0
  142.8380   73.5270  220.8310 C   0  0  0  0  0  0  0  0  0  0  0  0
  144.0740   74.0400  220.4480 C   0  0  0  0  0  0  0  0  0  0  0  0
  145.4930   73.0110  220.5750 Cl  0  0  0  0  0  0  0  0  0  0  0  0
  144.1670   75.3460  219.9750 C   0  0  0  0  0  0  0  0  0  0  0  0
  143.0290   76.1120  219.8940 C   0  0  0  0  0  0  0  0  0  0  0  0
  139.4150   71.4270  223.0630 C   0  0  0  0  0  0  0  0  0  0  0  0
  139.0720   70.0930  222.9920 C   0  0  0  0  0  0  0  0  0  0  0  0
  139.3010   69.2270  224.0410 C   0  0  0  0  0  0  0  0  0  0  0  0
  139.9000   69.7570  225.1890 C   0  0  0  0  0  0  0  0  0  0  0  0
  140.1460   68.9360  226.2520 C   0  0  0  0  0  0  0  0  0  0  0  0
  140.7350   69.4750  227.3720 C   0  0  0  0  0  0  0  0  0  0  0  0
  141.0360   68.3850  228.7220 Cl  0  0  0  0  0  0  0  0  0  0  0  0
  141.0890   70.8170  227.4630 C   0  0  0  0  0  0  0  0  0  0  0  0
  140.8310   71.6360  226.3740 C   0  0  0  0  0  0  0  0  0  0  0  0
  140.2390   71.0930  225.2520 C   0  0  0  0  0  0  0  0  0  0  0  0
  139.9920   71.9060  224.1870 N   0  0  0  0  0  0  0  0  0  0  0  0
  138.1060   73.7890  222.9580 H   0  0  0  0  0  0  0  0  0  0  0  0
  138.9252   73.9072  220.0478 H   0  0  0  0  0  0  0  0  0  0  0  0
  137.1584   74.0385  220.4872 H   0  0  0  0  0  0  0  0  0  0  0  0
  139.5336   76.8727  223.1796 H   0  0  0  0  0  0  0  0  0  0  0  0
  140.8657   75.7743  222.8537 H   0  0  0  0  0  0  0  0  0  0  0  0
  140.7983   78.6968  222.5762 H   0  0  0  0  0  0  0  0  0  0  0  0
  142.1941   77.6452  222.3144 H   0  0  0  0  0  0  0  0  0  0  0  0
  140.1319   78.6525  220.3062 H   0  0  0  0  0  0  0  0  0  0  0  0
  141.8239   78.4081  220.0223 H   0  0  0  0  0  0  0  0  0  0  0  0
  140.3303   76.4195  219.0906 H   0  0  0  0  0  0  0  0  0  0  0  0
  140.7491   73.9278  221.0340 H   0  0  0  0  0  0  0  0  0  0  0  0
  142.7507   72.4967  221.2063 H   0  0  0  0  0  0  0  0  0  0  0  0
  145.1395   75.7597  219.6699 H   0  0  0  0  0  0  0  0  0  0  0  0
  143.1052   77.1437  219.5200 H   0  0  0  0  0  0  0  0  0  0  0  0
  138.6031   69.7092  222.0739 H   0  0  0  0  0  0  0  0  0  0  0  0
  139.0243   68.1643  223.9776 H   0  0  0  0  0  0  0  0  0  0  0  0
  139.8796   67.8694  226.2136 H   0  0  0  0  0  0  0  0  0  0  0  0
  141.5602   71.2173  228.3728 H   0  0  0  0  0  0  0  0  0  0  0  0
  141.0946   72.7035  226.4042 H   0  0  0  0  0  0  0  0  0  0  0  0
  1  2  2  0
  2  3  1  0
  3  4  1  0
  4  5  1  0
  5  6  2  0
  5  7  1  0
  7  8  1  0
  8  9  1  0
  9 10  1  0
 10 11  1  0
 11 12  1  0
 12 13  2  0
 13 14  1  0
 14 15  2  0
 15 16  1  0
 15 17  1  0
 17 18  2  0
  2 19  1  0
 19 20  2  0
 20 21  1  0
 21 22  2  0
 22 23  1  0
 23 24  2  0
 24 25  1  0
 24 26  1  0
 26 27  2  0
 27 28  1  0
 28 29  2  0
 11  7  1  0
 18 12  1  0
 29 19  1  0
 28 22  1  0
  3 30  1  0
  4 31  1  0
  4 32  1  0
  8 33  1  0
  8 34  1  0
  9 35  1  0
  9 36  1  0
 10 37  1  0
 10 38  1  0
 11 39  1  6
 13 40  1  0
 14 41  1  0
 17 42  1  0
 18 43  1  0
 20 44  1  0
 21 45  1  0
 23 46  1  0
 26 47  1  0
 27 48  1  0
M  END
>  <smiles>  (4) 
O=C(NCC(=O)N1CCC[C@H]1c1ccc(Cl)cc1)c1ccc2cc(Cl)ccc2n1

>  <score_type>  (4) 
oracle

>  <origin>  (4) 
autodockgpu

>  <m_score__min__energy>  (4) 
-8.7400000000000002

>  <m_primary>  (4) 
energy

>  <rmsd>  (4) 
2.3337054660042993

>  <m_score__min__rmsd>  (4) 
2.3337054660042993

>  <meeko>  (4) 
{"free_energy": -8.37, "intermolecular_energy": -9.86, "internal_energy": -1.71, "cluster_size": 15, "cluster_id": 2, "rank_in_cluster": 6}

>  <energy>  (4) 
-8.67

>  <cluster_rmsd>  (4) 
0.35

>  <cluster>  (4) 
1

$$$$

     RDKit          3D

 48 51  0  0  0  0  0  0  0  0999 V2000
  138.4110   70.9060  221.3080 O   0  0  0  0  0  0  0  0  0  0  0  0
  138.7370   71.6610  222.2720 C   0  0  0  0  0  0  0  0  0  0  0  0
  138.4900   73.0540  222.0790 N   0  0  0  0  0  0  0  0  0  0  0  0
  137.9040   73.4540  220.8280 C   0  0  0  0  0  0  0  0  0  0  0  0
  138.8980   73.8090  219.8080 C   0  0  0  0  0  0  0  0  0  0  0  0
  138.9230   73.3560  218.6360 O   0  0  0  0  0  0  0  0  0  0  0  0
  139.9180   74.7350  220.1590 N   0  0  0  0  0  0  0  0  0  0  0  0
  140.5690   75.7270  219.3080 C   0  0  0  0  0  0  0  0  0  0  0  0
  141.9970   75.7820  219.8370 C   0  0  0  0  0  0  0  0  0  0  0  0
  142.0210   74.8420  221.0330 C   0  0  0  0  0  0  0  0  0  0  0  0
  140.5610   74.9160  221.4670 C   0  0  1  0  0  0  0  0  0  0  0  0
  140.1900   76.2210  222.0360 C   0  0  0  0  0  0  0  0  0  0  0  0
  141.0690   77.1850  222.4450 C   0  0  0  0  0  0  0  0  0  0  0  0
  140.6600   78.3920  222.9720 C   0  0  0  0  0  0  0  0  0  0  0  0
  139.2960   78.6410  223.0940 C   0  0  0  0  0  0  0  0  0  0  0  0
  138.7740   80.1790  223.7660 Cl  0  0  0  0  0  0  0  0  0  0  0  0
  138.3760   77.6790  222.6870 C   0  0  0  0  0  0  0  0  0  0  0  0
  138.8330   76.4920  222.1670 C   0  0  0  0  0  0  0  0  0  0  0  0
  139.3270   71.1460  223.5020 C   0  0  0  0  0  0  0  0  0  0  0  0
  140.3110   71.9030  224.1030 C   0  0  0  0  0  0  0  0  0  0  0  0
  140.9270   71.4980  225.2690 C   0  0  0  0  0  0  0  0  0  0  0  0
  140.5140   70.2820  225.8230 C   0  0  0  0  0  0  0  0  0  0  0  0
  141.0970   69.8430  226.9770 C   0  0  0  0  0  0  0  0  0  0  0  0
  140.6780   68.6450  227.5060 C   0  0  0  0  0  0  0  0  0  0  0  0
  141.4530   68.1110  228.9940 Cl  0  0  0  0  0  0  0  0  0  0  0  0
  139.6870   67.8670  226.9150 C   0  0  0  0  0  0  0  0  0  0  0  0
  139.1070   68.3290  225.7440 C   0  0  0  0  0  0  0  0  0  0  0  0
  139.5290   69.5310  225.2140 C   0  0  0  0  0  0  0  0  0  0  0  0
  138.9520   69.9770  224.0630 N   0  0  0  0  0  0  0  0  0  0  0  0
  138.7460   73.7030  222.8510 H   0  0  0  0  0  0  0  0  0  0  0  0
  137.2941   72.6219  220.4464 H   0  0  0  0  0  0  0  0  0  0  0  0
  137.3022   74.3538  221.0233 H   0  0  0  0  0  0  0  0  0  0  0  0
  140.5536   75.4099  218.2548 H   0  0  0  0  0  0  0  0  0  0  0  0
  140.0676   76.7057  219.3369 H   0  0  0  0  0  0  0  0  0  0  0  0
  142.7060   75.4435  219.0671 H   0  0  0  0  0  0  0  0  0  0  0  0
  142.2914   76.8049  220.1145 H   0  0  0  0  0  0  0  0  0  0  0  0
  142.3079   73.8207  220.7422 H   0  0  0  0  0  0  0  0  0  0  0  0
  142.7477   75.1094  221.8143 H   0  0  0  0  0  0  0  0  0  0  0  0
  140.2930   74.1992  222.2571 H   0  0  0  0  0  0  0  0  0  0  0  0
  142.1473   76.9897  222.3498 H   0  0  0  0  0  0  0  0  0  0  0  0
  141.3976   79.1436  223.2899 H   0  0  0  0  0  0  0  0  0  0  0  0
  137.2962   77.8667  222.7805 H   0  0  0  0  0  0  0  0  0  0  0  0
  138.1036   75.7341  221.8450 H   0  0  0  0  0  0  0  0  0  0  0  0
  140.6124   72.8544  223.6405 H   0  0  0  0  0  0  0  0  0  0  0  0
  141.7109   72.1065  225.7436 H   0  0  0  0  0  0  0  0  0  0  0  0
  141.8826   70.4333  227.4714 H   0  0  0  0  0  0  0  0  0  0  0  0
  139.3731   66.9132  227.3641 H   0  0  0  0  0  0  0  0  0  0  0  0
  138.3205   67.7450  225.2437 H   0  0  0  0  0  0  0  0  0  0  0  0
  1  2  2  0
  2  3  1  0
  3  4  1  0
  4  5  1  0
  5  6  2  0
  5  7  1  0
  7  8  1  0
  8  9  1  0
  9 10  1  0
 10 11  1  0
 11 12  1  0
 12 13  2  0
 13 14  1  0
 14 15  2  0
 15 16  1  0
 15 17  1  0
 17 18  2  0
  2 19  1  0
 19 20  2  0
 20 21  1  0
 21 22  2  0
 22 23  1  0
 23 24  2  0
 24 25  1  0
 24 26  1  0
 26 27  2  0
 27 28  1  0
 28 29  2  0
 11  7  1  0
 18 12  1  0
 29 19  1  0
 28 22  1  0
  3 30  1  0
  4 31  1  0
  4 32  1  0
  8 33  1  0
  8 34  1  0
  9 35  1  0
  9 36  1  0
 10 37  1  0
 10 38  1  0
 11 39  1  1
 13 40  1  0
 14 41  1  0
 17 42  1  0
 18 43  1  0
 20 44  1  0
 21 45  1  0
 23 46  1  0
 26 47  1  0
 27 48  1  0
M  END
>  <smiles>  (5) 
O=C(NCC(=O)N1CCC[C@H]1c1ccc(Cl)cc1)c1ccc2cc(Cl)ccc2n1

>  <score_type>  (5) 
oracle

>  <origin>  (5) 
autodockgpu

>  <m_score__min__energy>  (5) 
-8.7400000000000002

>  <m_primary>  (5) 
energy

>  <rmsd>  (5) 
2.9251447704292253

>  <m_score__min__rmsd>  (5) 
2.9251447704292253

>  <meeko>  (5) 
{"free_energy": -7.88, "intermolecular_energy": -9.37, "internal_energy": -1.46, "cluster_size": 29, "cluster_id": 1, "rank_in_cluster": 24}

>  <energy>  (5) 
-8.6

>  <cluster_rmsd>  (5) 
0.77

>  <cluster>  (5) 
1

$$$$

     RDKit          3D

 48 51  0  0  0  0  0  0  0  0999 V2000
  138.3010   71.3260  220.8870 O   0  0  0  0  0  0  0  0  0  0  0  0
  138.6590   71.8460  221.9850 C   0  0  0  0  0  0  0  0  0  0  0  0
  138.6540   73.2740  222.0270 N   0  0  0  0  0  0  0  0  0  0  0  0
  138.2490   73.9670  220.8330 C   0  0  0  0  0  0  0  0  0  0  0  0
  138.3390   75.4280  220.9510 C   0  0  0  0  0  0  0  0  0  0  0  0
  137.3650   76.2190  220.8820 O   0  0  0  0  0  0  0  0  0  0  0  0
  139.6210   76.0060  221.1590 N   0  0  0  0  0  0  0  0  0  0  0  0
  140.2400   76.4000  222.4210 C   0  0  0  0  0  0  0  0  0  0  0  0
  141.0670   77.6270  222.0560 C   0  0  0  0  0  0  0  0  0  0  0  0
  140.9050   77.7900  220.5520 C   0  0  0  0  0  0  0  0  0  0  0  0
  140.6330   76.3450  220.1490 C   0  0  1  0  0  0  0  0  0  0  0  0
  141.8070   75.4700  220.2970 C   0  0  0  0  0  0  0  0  0  0  0  0
  141.7780   74.1720  220.7220 C   0  0  0  0  0  0  0  0  0  0  0  0
  142.9150   73.4000  220.8420 C   0  0  0  0  0  0  0  0  0  0  0  0
  144.1440   73.9660  220.5150 C   0  0  0  0  0  0  0  0  0  0  0  0
  145.5930   72.9840  220.6670 Cl  0  0  0  0  0  0  0  0  0  0  0  0
  144.2070   75.2860  220.0800 C   0  0  0  0  0  0  0  0  0  0  0  0
  143.0460   76.0140  219.9770 C   0  0  0  0  0  0  0  0  0  0  0  0
  139.0510   71.0440  223.1380 C   0  0  0  0  0  0  0  0  0  0  0  0
  138.7650   69.6950  223.1020 C   0  0  0  0  0  0  0  0  0  0  0  0
  139.0980   68.8550  224.1450 C   0  0  0  0  0  0  0  0  0  0  0  0
  139.7410   69.4270  225.2480 C   0  0  0  0  0  0  0  0  0  0  0  0
  140.0880   68.6330  226.3040 C   0  0  0  0  0  0  0  0  0  0  0  0
  140.7180   69.2140  227.3790 C   0  0  0  0  0  0  0  0  0  0  0  0
  141.1510   68.1580  228.7200 Cl  0  0  0  0  0  0  0  0  0  0  0  0
  141.0160   70.5720  227.4330 C   0  0  0  0  0  0  0  0  0  0  0  0
  140.6550   71.3620  226.3530 C   0  0  0  0  0  0  0  0  0  0  0  0
  140.0210   70.7780  225.2750 C   0  0  0  0  0  0  0  0  0  0  0  0
  139.6720   71.5630  224.2180 N   0  0  0  0  0  0  0  0  0  0  0  0
  138.9420   73.7340  222.9130 H   0  0  0  0  0  0  0  0  0  0  0  0
  138.8962   73.6430  220.0046 H   0  0  0  0  0  0  0  0  0  0  0  0
  137.1923   73.7188  220.6546 H   0  0  0  0  0  0  0  0  0  0  0  0
  139.4751   76.6523  223.1702 H   0  0  0  0  0  0  0  0  0  0  0  0
  140.8460   75.5967  222.8654 H   0  0  0  0  0  0  0  0  0  0  0  0
  140.6896   78.5161  222.5824 H   0  0  0  0  0  0  0  0  0  0  0  0
  142.1222   77.5097  222.3436 H   0  0  0  0  0  0  0  0  0  0  0  0
  140.0595   78.4481  220.3027 H   0  0  0  0  0  0  0  0  0  0  0  0
  141.7625   78.2559  220.0444 H   0  0  0  0  0  0  0  0  0  0  0  0
  140.3449   76.2222  219.0945 H   0  0  0  0  0  0  0  0  0  0  0  0
  140.8071   73.7235  220.9794 H   0  0  0  0  0  0  0  0  0  0  0  0
  142.8517   72.3581  221.1891 H   0  0  0  0  0  0  0  0  0  0  0  0
  145.1744   75.7414  219.8216 H   0  0  0  0  0  0  0  0  0  0  0  0
  143.0983   77.0570  219.6315 H   0  0  0  0  0  0  0  0  0  0  0  0
  138.2584   69.2781  222.2191 H   0  0  0  0  0  0  0  0  0  0  0  0
  138.8674   67.7800  224.1106 H   0  0  0  0  0  0  0  0  0  0  0  0
  139.8687   67.5551  226.2945 H   0  0  0  0  0  0  0  0  0  0  0  0
  141.5233   71.0059  228.3073 H   0  0  0  0  0  0  0  0  0  0  0  0
  140.8710   72.4406  226.3549 H   0  0  0  0  0  0  0  0  0  0  0  0
  1  2  2  0
  2  3  1  0
  3  4  1  0
  4  5  1  0
  5  6  2  0
  5  7  1  0
  7  8  1  0
  8  9  1  0
  9 10  1  0
 10 11  1  0
 11 12  1  0
 12 13  2  0
 13 14  1  0
 14 15  2  0
 15 16  1  0
 15 17  1  0
 17 18  2  0
  2 19  1  0
 19 20  2  0
 20 21  1  0
 21 22  2  0
 22 23  1  0
 23 24  2  0
 24 25  1  0
 24 26  1  0
 26 27  2  0
 27 28  1  0
 28 29  2  0
 11  7  1  0
 18 12  1  0
 29 19  1  0
 28 22  1  0
  3 30  1  0
  4 31  1  0
  4 32  1  0
  8 33  1  0
  8 34  1  0
  9 35  1  0
  9 36  1  0
 10 37  1  0
 10 38  1  0
 11 39  1  6
 13 40  1  0
 14 41  1  0
 17 42  1  0
 18 43  1  0
 20 44  1  0
 21 45  1  0
 23 46  1  0
 26 47  1  0
 27 48  1  0
M  END
>  <smiles>  (6) 
O=C(NCC(=O)N1CCC[C@H]1c1ccc(Cl)cc1)c1ccc2cc(Cl)ccc2n1

>  <score_type>  (6) 
oracle

>  <origin>  (6) 
autodockgpu

>  <m_score__min__energy>  (6) 
-8.7400000000000002

>  <m_primary>  (6) 
energy

>  <rmsd>  (6) 
2.259017775198369

>  <m_score__min__rmsd>  (6) 
2.259017775198369

>  <meeko>  (6) 
{"free_energy": -8.27, "intermolecular_energy": -9.76, "internal_energy": -1.66, "cluster_size": 15, "cluster_id": 2, "rank_in_cluster": 12}

>  <energy>  (6) 
-8.57

>  <cluster_rmsd>  (6) 
0.58

>  <cluster>  (6) 
1

$$$$

     RDKit          3D

 48 51  0  0  0  0  0  0  0  0999 V2000
  139.8060   72.1110  220.8610 O   0  0  0  0  0  0  0  0  0  0  0  0
  139.2930   72.3150  222.0020 C   0  0  0  0  0  0  0  0  0  0  0  0
  138.4470   73.4600  222.1060 N   0  0  0  0  0  0  0  0  0  0  0  0
  138.2650   74.2570  220.9220 C   0  0  0  0  0  0  0  0  0  0  0  0
  138.3080   75.7010  221.1810 C   0  0  0  0  0  0  0  0  0  0  0  0
  137.3030   76.4300  221.3780 O   0  0  0  0  0  0  0  0  0  0  0  0
  139.5780   76.3400  221.2140 N   0  0  0  0  0  0  0  0  0  0  0  0
  140.2880   76.8800  222.3700 C   0  0  0  0  0  0  0  0  0  0  0  0
  141.0270   78.0900  221.8120 C   0  0  0  0  0  0  0  0  0  0  0  0
  140.7280   78.0940  220.3200 C   0  0  0  0  0  0  0  0  0  0  0  0
  140.4830   76.6070  220.0870 C   0  0  1  0  0  0  0  0  0  0  0  0
  141.7000   75.7920  220.2130 C   0  0  0  0  0  0  0  0  0  0  0  0
  141.7620   74.5400  220.7590 C   0  0  0  0  0  0  0  0  0  0  0  0
  142.9360   73.8230  220.8500 C   0  0  0  0  0  0  0  0  0  0  0  0
  144.1090   74.3950  220.3660 C   0  0  0  0  0  0  0  0  0  0  0  0
  145.6060   73.4820  220.4810 Cl  0  0  0  0  0  0  0  0  0  0  0  0
  144.0790   75.6690  219.8050 C   0  0  0  0  0  0  0  0  0  0  0  0
  142.8840   76.3440  219.7360 C   0  0  0  0  0  0  0  0  0  0  0  0
  139.5460   71.4380  223.1390 C   0  0  0  0  0  0  0  0  0  0  0  0
  139.2110   70.1070  223.0040 C   0  0  0  0  0  0  0  0  0  0  0  0
  139.4130   69.2010  224.0250 C   0  0  0  0  0  0  0  0  0  0  0  0
  139.9750   69.6870  225.2110 C   0  0  0  0  0  0  0  0  0  0  0  0
  140.1920   68.8260  226.2480 C   0  0  0  0  0  0  0  0  0  0  0  0
  140.7450   69.3220  227.4050 C   0  0  0  0  0  0  0  0  0  0  0  0
  141.0110   68.1810  228.7190 Cl  0  0  0  0  0  0  0  0  0  0  0  0
  141.0910   70.6610  227.5600 C   0  0  0  0  0  0  0  0  0  0  0  0
  140.8620   71.5210  226.4960 C   0  0  0  0  0  0  0  0  0  0  0  0
  140.3060   71.0210  225.3360 C   0  0  0  0  0  0  0  0  0  0  0  0
  140.0860   71.8740  224.2970 N   0  0  0  0  0  0  0  0  0  0  0  0
  138.0090   73.6570  223.0280 H   0  0  0  0  0  0  0  0  0  0  0  0
  139.0625   74.0068  220.2069 H   0  0  0  0  0  0  0  0  0  0  0  0
  137.2650   74.0271  220.5255 H   0  0  0  0  0  0  0  0  0  0  0  0
  139.5817   77.1814  223.1576 H   0  0  0  0  0  0  0  0  0  0  0  0
  140.9637   76.1465  222.8342 H   0  0  0  0  0  0  0  0  0  0  0  0
  140.6596   79.0149  222.2805 H   0  0  0  0  0  0  0  0  0  0  0  0
  142.1073   78.0375  222.0124 H   0  0  0  0  0  0  0  0  0  0  0  0
  139.8371   78.6949  220.0851 H   0  0  0  0  0  0  0  0  0  0  0  0
  141.5177   78.5342  219.6934 H   0  0  0  0  0  0  0  0  0  0  0  0
  140.1097   76.3676  219.0804 H   0  0  0  0  0  0  0  0  0  0  0  0
  140.8362   74.0857  221.1418 H   0  0  0  0  0  0  0  0  0  0  0  0
  142.9455   72.8178  221.2967 H   0  0  0  0  0  0  0  0  0  0  0  0
  145.0012   76.1298  219.4214 H   0  0  0  0  0  0  0  0  0  0  0  0
  142.8634   77.3497  219.2908 H   0  0  0  0  0  0  0  0  0  0  0  0
  138.7713   69.7586  222.0578 H   0  0  0  0  0  0  0  0  0  0  0  0
  139.1434   68.1406  223.9114 H   0  0  0  0  0  0  0  0  0  0  0  0
  139.9307   67.7611  226.1600 H   0  0  0  0  0  0  0  0  0  0  0  0
  141.5331   71.0266  228.4986 H   0  0  0  0  0  0  0  0  0  0  0  0
  141.1201   72.5873  226.5757 H   0  0  0  0  0  0  0  0  0  0  0  0
  1  2  2  0
  2  3  1  0
  3  4  1  0
  4  5  1  0
  5  6  2  0
  5  7  1  0
  7  8  1  0
  8  9  1  0
  9 10  1  0
 10 11  1  0
 11 12  1  0
 12 13  2  0
 13 14  1  0
 14 15  2  0
 15 16  1  0
 15 17  1  0
 17 18  2  0
  2 19  1  0
 19 20  2  0
 20 21  1  0
 21 22  2  0
 22 23  1  0
 23 24  2  0
 24 25  1  0
 24 26  1  0
 26 27  2  0
 27 28  1  0
 28 29  2  0
 11  7  1  0
 18 12  1  0
 29 19  1  0
 28 22  1  0
  3 30  1  0
  4 31  1  0
  4 32  1  0
  8 33  1  0
  8 34  1  0
  9 35  1  0
  9 36  1  0
 10 37  1  0
 10 38  1  0
 11 39  1  6
 13 40  1  0
 14 41  1  0
 17 42  1  0
 18 43  1  0
 20 44  1  0
 21 45  1  0
 23 46  1  0
 26 47  1  0
 27 48  1  0
M  END
>  <smiles>  (7) 
O=C(NCC(=O)N1CCC[C@H]1c1ccc(Cl)cc1)c1ccc2cc(Cl)ccc2n1

>  <score_type>  (7) 
oracle

>  <origin>  (7) 
autodockgpu

>  <m_score__min__energy>  (7) 
-8.7400000000000002

>  <m_primary>  (7) 
energy

>  <rmsd>  (7) 
2.325127088070741

>  <m_score__min__rmsd>  (7) 
2.325127088070741

>  <meeko>  (7) 
{"free_energy": -8.5, "intermolecular_energy": -9.99, "internal_energy": -1.64, "cluster_size": 15, "cluster_id": 2, "rank_in_cluster": 3}

>  <energy>  (7) 
-8.52

>  <cluster_rmsd>  (7) 
0.82

>  <cluster>  (7) 
1

$$$$

     RDKit          3D

 48 51  0  0  0  0  0  0  0  0999 V2000
  140.9060   73.5970  221.9970 O   0  0  0  0  0  0  0  0  0  0  0  0
  139.9270   72.8670  222.3330 C   0  0  0  0  0  0  0  0  0  0  0  0
  138.7270   73.0540  221.5800 N   0  0  0  0  0  0  0  0  0  0  0  0
  138.7520   74.0380  220.5310 C   0  0  0  0  0  0  0  0  0  0  0  0
  138.2560   75.3520  220.9560 C   0  0  0  0  0  0  0  0  0  0  0  0
  137.2770   75.5430  221.7200 O   0  0  0  0  0  0  0  0  0  0  0  0
  138.9250   76.5100  220.4710 N   0  0  0  0  0  0  0  0  0  0  0  0
  138.3420   77.7850  220.0610 C   0  0  0  0  0  0  0  0  0  0  0  0
  139.2440   78.2500  218.9240 C   0  0  0  0  0  0  0  0  0  0  0  0
  140.3460   77.2050  218.8290 C   0  0  0  0  0  0  0  0  0  0  0  0
  140.3670   76.6990  220.2670 C   0  0  1  0  0  0  0  0  0  0  0  0
  140.8860   77.6900  221.2230 C   0  0  0  0  0  0  0  0  0  0  0  0
  140.6660   77.6790  222.5720 C   0  0  0  0  0  0  0  0  0  0  0  0
  141.1800   78.6380  223.4200 C   0  0  0  0  0  0  0  0  0  0  0  0
  141.9560   79.6610  222.8810 C   0  0  0  0  0  0  0  0  0  0  0  0
  142.6110   80.8830  223.9600 Cl  0  0  0  0  0  0  0  0  0  0  0  0
  142.1980   79.7000  221.5100 C   0  0  0  0  0  0  0  0  0  0  0  0
  141.6640   78.7210  220.7070 C   0  0  0  0  0  0  0  0  0  0  0  0
  140.0120   71.8970  223.4180 C   0  0  0  0  0  0  0  0  0  0  0  0
  139.5750   70.6140  223.1620 C   0  0  0  0  0  0  0  0  0  0  0  0
  139.6170   69.6280  224.1250 C   0  0  0  0  0  0  0  0  0  0  0  0
  140.1240   69.9800  225.3810 C   0  0  0  0  0  0  0  0  0  0  0  0
  140.1840   69.0340  226.3640 C   0  0  0  0  0  0  0  0  0  0  0  0
  140.6840   69.3990  227.5920 C   0  0  0  0  0  0  0  0  0  0  0  0
  140.7460   68.1530  228.8340 Cl  0  0  0  0  0  0  0  0  0  0  0  0
  141.1310   70.6870  227.8700 C   0  0  0  0  0  0  0  0  0  0  0  0
  141.0620   71.6340  226.8580 C   0  0  0  0  0  0  0  0  0  0  0  0
  140.5580   71.2660  225.6270 C   0  0  0  0  0  0  0  0  0  0  0  0
  140.4960   72.2030  224.6410 N   0  0  0  0  0  0  0  0  0  0  0  0
  137.9030   72.4710  221.8300 H   0  0  0  0  0  0  0  0  0  0  0  0
  139.7895   74.1520  220.1839 H   0  0  0  0  0  0  0  0  0  0  0  0
  138.0849   73.6804  219.7328 H   0  0  0  0  0  0  0  0  0  0  0  0
  137.3085   77.6482  219.7101 H   0  0  0  0  0  0  0  0  0  0  0  0
  138.2880   78.5119  220.8848 H   0  0  0  0  0  0  0  0  0  0  0  0
  138.6796   78.3009  217.9812 H   0  0  0  0  0  0  0  0  0  0  0  0
  139.6491   79.2559  219.1085 H   0  0  0  0  0  0  0  0  0  0  0  0
  140.0878   76.4048  218.1198 H   0  0  0  0  0  0  0  0  0  0  0  0
  141.3103   77.5852  218.4608 H   0  0  0  0  0  0  0  0  0  0  0  0
  141.0111   75.8208  220.4219 H   0  0  0  0  0  0  0  0  0  0  0  0
  140.0534   76.8715  222.9994 H   0  0  0  0  0  0  0  0  0  0  0  0
  140.9807   78.5955  224.5010 H   0  0  0  0  0  0  0  0  0  0  0  0
  142.8091   80.5047  221.0752 H   0  0  0  0  0  0  0  0  0  0  0  0
  141.8575   78.7537  219.6246 H   0  0  0  0  0  0  0  0  0  0  0  0
  139.1827   70.3710  222.1635 H   0  0  0  0  0  0  0  0  0  0  0  0
  139.2664   68.6068  223.9147 H   0  0  0  0  0  0  0  0  0  0  0  0
  139.8409   68.0055  226.1782 H   0  0  0  0  0  0  0  0  0  0  0  0
  141.5274   70.9469  228.8626 H   0  0  0  0  0  0  0  0  0  0  0  0
  141.4045   72.6643  227.0346 H   0  0  0  0  0  0  0  0  0  0  0  0
  1  2  2  0
  2  3  1  0
  3  4  1  0
  4  5  1  0
  5  6  2  0
  5  7  1  0
  7  8  1  0
  8  9  1  0
  9 10  1  0
 10 11  1  0
 11 12  1  0
 12 13  2  0
 13 14  1  0
 14 15  2  0
 15 16  1  0
 15 17  1  0
 17 18  2  0
  2 19  1  0
 19 20  2  0
 20 21  1  0
 21 22  2  0
 22 23  1  0
 23 24  2  0
 24 25  1  0
 24 26  1  0
 26 27  2  0
 27 28  1  0
 28 29  2  0
 11  7  1  0
 18 12  1  0
 29 19  1  0
 28 22  1  0
  3 30  1  0
  4 31  1  0
  4 32  1  0
  8 33  1  0
  8 34  1  0
  9 35  1  0
  9 36  1  0
 10 37  1  0
 10 38  1  0
 11 39  1  6
 13 40  1  0
 14 41  1  0
 17 42  1  0
 18 43  1  0
 20 44  1  0
 21 45  1  0
 23 46  1  0
 26 47  1  0
 27 48  1  0
M  END
>  <smiles>  (8) 
O=C(NCC(=O)N1CCC[C@H]1c1ccc(Cl)cc1)c1ccc2cc(Cl)ccc2n1

>  <score_type>  (8) 
oracle

>  <origin>  (8) 
autodockgpu

>  <m_score__min__energy>  (8) 
-8.7400000000000002

>  <m_primary>  (8) 
energy

>  <rmsd>  (8) 
1.8597252999943021

>  <m_score__min__rmsd>  (8) 
1.8597252999943021

>  <meeko>  (8) 
{"free_energy": -8.14, "intermolecular_energy": -9.63, "internal_energy": -1.32, "cluster_size": 29, "cluster_id": 1, "rank_in_cluster": 18}

>  <energy>  (8) 
-8.48

>  <cluster_rmsd>  (8) 
0.57

>  <cluster>  (8) 
1

$$$$

     RDKit          3D

 48 51  0  0  0  0  0  0  0  0999 V2000
  137.7810   71.3690  221.6450 O   0  0  0  0  0  0  0  0  0  0  0  0
  138.5720   71.8230  222.5240 C   0  0  0  0  0  0  0  0  0  0  0  0
  138.9790   73.1810  222.3500 N   0  0  0  0  0  0  0  0  0  0  0  0
  138.4570   73.8850  221.2100 C   0  0  0  0  0  0  0  0  0  0  0  0
  138.4240   75.3420  221.3920 C   0  0  0  0  0  0  0  0  0  0  0  0
  137.3920   76.0170  221.6340 O   0  0  0  0  0  0  0  0  0  0  0  0
  139.6480   76.0580  221.2900 N   0  0  0  0  0  0  0  0  0  0  0  0
  140.3970   76.7240  222.3520 C   0  0  0  0  0  0  0  0  0  0  0  0
  141.0150   77.9340  221.6620 C   0  0  0  0  0  0  0  0  0  0  0  0
  140.6150   77.8110  220.1980 C   0  0  0  0  0  0  0  0  0  0  0  0
  140.4550   76.2990  220.0860 C   0  0  1  0  0  0  0  0  0  0  0  0
  141.7300   75.5710  220.1780 C   0  0  0  0  0  0  0  0  0  0  0  0
  142.9520   76.0660  219.8180 C   0  0  0  0  0  0  0  0  0  0  0  0
  144.1160   75.3340  219.9280 C   0  0  0  0  0  0  0  0  0  0  0  0
  144.0450   74.0360  220.4250 C   0  0  0  0  0  0  0  0  0  0  0  0
  145.5260   73.1010  220.5650 Cl  0  0  0  0  0  0  0  0  0  0  0  0
  142.8150   73.5020  220.7990 C   0  0  0  0  0  0  0  0  0  0  0  0
  141.6830   74.2720  220.6720 C   0  0  0  0  0  0  0  0  0  0  0  0
  139.0410   71.0150  223.6440 C   0  0  0  0  0  0  0  0  0  0  0  0
  138.8510   69.6510  223.5700 C   0  0  0  0  0  0  0  0  0  0  0  0
  139.2610   68.8060  224.5810 C   0  0  0  0  0  0  0  0  0  0  0  0
  139.8810   69.3890  225.6910 C   0  0  0  0  0  0  0  0  0  0  0  0
  140.3030   68.5900  226.7160 C   0  0  0  0  0  0  0  0  0  0  0  0
  140.9090   69.1810  227.7980 C   0  0  0  0  0  0  0  0  0  0  0  0
  141.4390   68.1190  229.0990 Cl  0  0  0  0  0  0  0  0  0  0  0  0
  141.1110   70.5550  227.8910 C   0  0  0  0  0  0  0  0  0  0  0  0
  140.6750   71.3500  226.8420 C   0  0  0  0  0  0  0  0  0  0  0  0
  140.0660   70.7550  225.7560 C   0  0  0  0  0  0  0  0  0  0  0  0
  139.6430   71.5450  224.7300 N   0  0  0  0  0  0  0  0  0  0  0  0
  139.6290   73.5860  223.0540 H   0  0  0  0  0  0  0  0  0  0  0  0
  139.0887   73.6562  220.3391 H   0  0  0  0  0  0  0  0  0  0  0  0
  137.4186   73.5508  221.0682 H   0  0  0  0  0  0  0  0  0  0  0  0
  139.7269   77.0377  223.1660 H   0  0  0  0  0  0  0  0  0  0  0  0
  141.1501   76.0691  222.8145 H   0  0  0  0  0  0  0  0  0  0  0  0
  140.6198   78.8661  222.0922 H   0  0  0  0  0  0  0  0  0  0  0  0
  142.1075   77.9632  221.7871 H   0  0  0  0  0  0  0  0  0  0  0  0
  139.6719   78.3368  219.9881 H   0  0  0  0  0  0  0  0  0  0  0  0
  141.3286   78.2526  219.4868 H   0  0  0  0  0  0  0  0  0  0  0  0
  140.0312   75.9650  219.1274 H   0  0  0  0  0  0  0  0  0  0  0  0
  143.0097   77.0914  219.4239 H   0  0  0  0  0  0  0  0  0  0  0  0
  145.0815   75.7678  219.6287 H   0  0  0  0  0  0  0  0  0  0  0  0
  142.7495   72.4764  221.1914 H   0  0  0  0  0  0  0  0  0  0  0  0
  140.7125   73.8484  220.9697 H   0  0  0  0  0  0  0  0  0  0  0  0
  138.3600   69.2257  222.6823 H   0  0  0  0  0  0  0  0  0  0  0  0
  139.1066   67.7188  224.5166 H   0  0  0  0  0  0  0  0  0  0  0  0
  140.1609   67.5000  226.6758 H   0  0  0  0  0  0  0  0  0  0  0  0
  141.6019   70.9970  228.7706 H   0  0  0  0  0  0  0  0  0  0  0  0
  140.8128   72.4408  226.8750 H   0  0  0  0  0  0  0  0  0  0  0  0
  1  2  2  0
  2  3  1  0
  3  4  1  0
  4  5  1  0
  5  6  2  0
  5  7  1  0
  7  8  1  0
  8  9  1  0
  9 10  1  0
 10 11  1  0
 11 12  1  0
 12 13  2  0
 13 14  1  0
 14 15  2  0
 15 16  1  0
 15 17  1  0
 17 18  2  0
  2 19  1  0
 19 20  2  0
 20 21  1  0
 21 22  2  0
 22 23  1  0
 23 24  2  0
 24 25  1  0
 24 26  1  0
 26 27  2  0
 27 28  1  0
 28 29  2  0
 11  7  1  0
 18 12  1  0
 29 19  1  0
 28 22  1  0
  3 30  1  0
  4 31  1  0
  4 32  1  0
  8 33  1  0
  8 34  1  0
  9 35  1  0
  9 36  1  0
 10 37  1  0
 10 38  1  0
 11 39  1  6
 13 40  1  0
 14 41  1  0
 17 42  1  0
 18 43  1  0
 20 44  1  0
 21 45  1  0
 23 46  1  0
 26 47  1  0
 27 48  1  0
M  END
>  <smiles>  (9) 
O=C(NCC(=O)N1CCC[C@H]1c1ccc(Cl)cc1)c1ccc2cc(Cl)ccc2n1

>  <score_type>  (9) 
oracle

>  <origin>  (9) 
autodockgpu

>  <m_score__min__energy>  (9) 
-8.7400000000000002

>  <m_primary>  (9) 
energy

>  <rmsd>  (9) 
2.2389485445108734

>  <m_score__min__rmsd>  (9) 
2.2389485445108734

>  <meeko>  (9) 
{"free_energy": -8.29, "intermolecular_energy": -9.79, "internal_energy": -1.54, "cluster_size": 15, "cluster_id": 2, "rank_in_cluster": 11}

>  <energy>  (9) 
-8.47

>  <cluster_rmsd>  (9) 
0.86

>  <cluster>  (9) 
1

$$$$

     RDKit          3D

 48 51  0  0  0  0  0  0  0  0999 V2000
  139.0990   71.2410  221.1870 O   0  0  0  0  0  0  0  0  0  0  0  0
  138.7380   71.6470  222.3320 C   0  0  0  0  0  0  0  0  0  0  0  0
  137.7160   72.6440  222.3440 N   0  0  0  0  0  0  0  0  0  0  0  0
  137.2060   73.0820  221.0720 C   0  0  0  0  0  0  0  0  0  0  0  0
  137.3950   74.5180  220.8330 C   0  0  0  0  0  0  0  0  0  0  0  0
  136.4730   75.3370  220.5910 O   0  0  0  0  0  0  0  0  0  0  0  0
  138.7180   75.0360  220.8750 N   0  0  0  0  0  0  0  0  0  0  0  0
  139.5120   75.5760  219.7750 C   0  0  0  0  0  0  0  0  0  0  0  0
  140.9400   75.1710  220.1210 C   0  0  0  0  0  0  0  0  0  0  0  0
  140.8460   74.4770  221.4720 C   0  0  0  0  0  0  0  0  0  0  0  0
  139.6040   75.1540  222.0410 C   0  0  1  0  0  0  0  0  0  0  0  0
  139.8170   76.5720  222.3730 C   0  0  0  0  0  0  0  0  0  0  0  0
  138.8470   77.5340  222.3890 C   0  0  0  0  0  0  0  0  0  0  0  0
  139.1070   78.8510  222.7080 C   0  0  0  0  0  0  0  0  0  0  0  0
  140.4120   79.2160  223.0280 C   0  0  0  0  0  0  0  0  0  0  0  0
  140.7460   80.8930  223.4340 Cl  0  0  0  0  0  0  0  0  0  0  0  0
  141.4230   78.2580  223.0190 C   0  0  0  0  0  0  0  0  0  0  0  0
  141.1130   76.9590  222.6950 C   0  0  0  0  0  0  0  0  0  0  0  0
  139.3260   71.1310  223.5630 C   0  0  0  0  0  0  0  0  0  0  0  0
  140.3100   71.8870  224.1660 C   0  0  0  0  0  0  0  0  0  0  0  0
  140.9240   71.4810  225.3320 C   0  0  0  0  0  0  0  0  0  0  0  0
  140.5070   70.2660  225.8860 C   0  0  0  0  0  0  0  0  0  0  0  0
  141.0880   69.8260  227.0420 C   0  0  0  0  0  0  0  0  0  0  0  0
  140.6650   68.6290  227.5700 C   0  0  0  0  0  0  0  0  0  0  0  0
  141.4370   68.0950  229.0600 Cl  0  0  0  0  0  0  0  0  0  0  0  0
  139.6740   67.8530  226.9790 C   0  0  0  0  0  0  0  0  0  0  0  0
  139.0960   68.3160  225.8060 C   0  0  0  0  0  0  0  0  0  0  0  0
  139.5220   69.5170  225.2760 C   0  0  0  0  0  0  0  0  0  0  0  0
  138.9470   69.9630  224.1250 N   0  0  0  0  0  0  0  0  0  0  0  0
  137.3960   72.9990  223.2670 H   0  0  0  0  0  0  0  0  0  0  0  0
  137.7242   72.5248  220.2776 H   0  0  0  0  0  0  0  0  0  0  0  0
  136.1225   72.8921  221.0730 H   0  0  0  0  0  0  0  0  0  0  0  0
  139.2019   75.1361  218.8156 H   0  0  0  0  0  0  0  0  0  0  0  0
  139.3951   76.6638  219.6613 H   0  0  0  0  0  0  0  0  0  0  0  0
  141.3398   74.4829  219.3616 H   0  0  0  0  0  0  0  0  0  0  0  0
  141.6155   76.0386  220.1524 H   0  0  0  0  0  0  0  0  0  0  0  0
  140.7039   73.3917  221.3629 H   0  0  0  0  0  0  0  0  0  0  0  0
  141.7460   74.5653  222.0983 H   0  0  0  0  0  0  0  0  0  0  0  0
  139.2471   74.7141  222.9840 H   0  0  0  0  0  0  0  0  0  0  0  0
  137.8155   77.2466  222.1370 H   0  0  0  0  0  0  0  0  0  0  0  0
  138.2993   79.5978  222.7095 H   0  0  0  0  0  0  0  0  0  0  0  0
  142.4572   78.5379  223.2682 H   0  0  0  0  0  0  0  0  0  0  0  0
  141.9129   76.2040  222.6903 H   0  0  0  0  0  0  0  0  0  0  0  0
  140.6127   72.8386  223.7045 H   0  0  0  0  0  0  0  0  0  0  0  0
  141.7093   72.0875  225.8069 H   0  0  0  0  0  0  0  0  0  0  0  0
  141.8742   70.4145  227.5376 H   0  0  0  0  0  0  0  0  0  0  0  0
  139.3577   66.9001  227.4284 H   0  0  0  0  0  0  0  0  0  0  0  0
  138.3086   67.7337  225.3050 H   0  0  0  0  0  0  0  0  0  0  0  0
  1  2  2  0
  2  3  1  0
  3  4  1  0
  4  5  1  0
  5  6  2  0
  5  7  1  0
  7  8  1  0
  8  9  1  0
  9 10  1  0
 10 11  1  0
 11 12  1  0
 12 13  2  0
 13 14  1  0
 14 15  2  0
 15 16  1  0
 15 17  1  0
 17 18  2  0
  2 19  1  0
 19 20  2  0
 20 21  1  0
 21 22  2  0
 22 23  1  0
 23 24  2  0
 24 25  1  0
 24 26  1  0
 26 27  2  0
 27 28  1  0
 28 29  2  0
 11  7  1  0
 18 12  1  0
 29 19  1  0
 28 22  1  0
  3 30  1  0
  4 31  1  0
  4 32  1  0
  8 33  1  0
  8 34  1  0
  9 35  1  0
  9 36  1  0
 10 37  1  0
 10 38  1  0
 11 39  1  1
 13 40  1  0
 14 41  1  0
 17 42  1  0
 18 43  1  0
 20 44  1  0
 21 45  1  0
 23 46  1  0
 26 47  1  0
 27 48  1  0
M  END
>  <smiles>  (10) 
O=C(NCC(=O)N1CCC[C@H]1c1ccc(Cl)cc1)c1ccc2cc(Cl)ccc2n1

>  <score_type>  (10) 
oracle

>  <origin>  (10) 
autodockgpu

>  <m_score__min__energy>  (10) 
-8.7400000000000002

>  <m_primary>  (10) 
energy

>  <rmsd>  (10) 
3.027542876790966

>  <m_score__min__rmsd>  (10) 
3.027542876790966

>  <meeko>  (10) 
{"free_energy": -8.02, "intermolecular_energy": -9.51, "internal_energy": -1.62, "cluster_size": 29, "cluster_id": 1, "rank_in_cluster": 23}

>  <energy>  (10) 
-8.42

>  <cluster_rmsd>  (10) 
0.88

>  <cluster>  (10) 
1

$$$$

     RDKit          3D

 48 51  0  0  0  0  0  0  0  0999 V2000
  139.5000   71.9090  220.6620 O   0  0  0  0  0  0  0  0  0  0  0  0
  139.0920   72.2260  221.8190 C   0  0  0  0  0  0  0  0  0  0  0  0
  138.3450   73.4400  221.9020 N   0  0  0  0  0  0  0  0  0  0  0  0
  138.1330   74.1700  220.6800 C   0  0  0  0  0  0  0  0  0  0  0  0
  138.2790   75.6220  220.8380 C   0  0  0  0  0  0  0  0  0  0  0  0
  137.3440   76.4570  220.7400 O   0  0  0  0  0  0  0  0  0  0  0  0
  139.5720   76.1390  221.1240 N   0  0  0  0  0  0  0  0  0  0  0  0
  140.1610   76.4290  222.4290 C   0  0  0  0  0  0  0  0  0  0  0  0
  141.0400   77.6470  222.1710 C   0  0  0  0  0  0  0  0  0  0  0  0
  140.9350   77.9120  220.6770 C   0  0  0  0  0  0  0  0  0  0  0  0
  140.6290   76.5060  220.1710 C   0  0  1  0  0  0  0  0  0  0  0  0
  141.7660   75.5820  220.2990 C   0  0  0  0  0  0  0  0  0  0  0  0
  141.6890   74.2860  220.7240 C   0  0  0  0  0  0  0  0  0  0  0  0
  142.7940   73.4660  220.8240 C   0  0  0  0  0  0  0  0  0  0  0  0
  144.0410   73.9790  220.4780 C   0  0  0  0  0  0  0  0  0  0  0  0
  145.4500   72.9360  220.6050 Cl  0  0  0  0  0  0  0  0  0  0  0  0
  144.1530   75.2960  220.0430 C   0  0  0  0  0  0  0  0  0  0  0  0
  143.0220   76.0730  219.9600 C   0  0  0  0  0  0  0  0  0  0  0  0
  139.3650   71.4080  222.9940 C   0  0  0  0  0  0  0  0  0  0  0  0
  138.9860   70.0820  222.9500 C   0  0  0  0  0  0  0  0  0  0  0  0
  139.2020   69.2300  224.0130 C   0  0  0  0  0  0  0  0  0  0  0  0
  139.8260   69.7650  225.1460 C   0  0  0  0  0  0  0  0  0  0  0  0
  140.0600   68.9570  226.2220 C   0  0  0  0  0  0  0  0  0  0  0  0
  140.6730   69.5000  227.3260 C   0  0  0  0  0  0  0  0  0  0  0  0
  140.9590   68.4280  228.6930 Cl  0  0  0  0  0  0  0  0  0  0  0  0
  141.0640   70.8340  227.3900 C   0  0  0  0  0  0  0  0  0  0  0  0
  140.8180   71.6390  226.2870 C   0  0  0  0  0  0  0  0  0  0  0  0
  140.2010   71.0920  225.1810 C   0  0  0  0  0  0  0  0  0  0  0  0
  139.9650   71.8910  224.1030 N   0  0  0  0  0  0  0  0  0  0  0  0
  137.9950   73.7310  222.8360 H   0  0  0  0  0  0  0  0  0  0  0  0
  138.8653   73.8245  219.9354 H   0  0  0  0  0  0  0  0  0  0  0  0
  137.0972   73.9795  220.3623 H   0  0  0  0  0  0  0  0  0  0  0  0
  139.3800   76.6594  223.1685 H   0  0  0  0  0  0  0  0  0  0  0  0
  140.7245   75.5779  222.8390 H   0  0  0  0  0  0  0  0  0  0  0  0
  140.6745   78.5132  222.7421 H   0  0  0  0  0  0  0  0  0  0  0  0
  142.0804   77.4741  222.4836 H   0  0  0  0  0  0  0  0  0  0  0  0
  140.1209   78.6142  220.4446 H   0  0  0  0  0  0  0  0  0  0  0  0
  141.8244   78.3789  220.2288 H   0  0  0  0  0  0  0  0  0  0  0  0
  140.3740   76.4621  219.1019 H   0  0  0  0  0  0  0  0  0  0  0  0
  140.7045   73.8791  220.9980 H   0  0  0  0  0  0  0  0  0  0  0  0
  142.6917   72.4270  221.1704 H   0  0  0  0  0  0  0  0  0  0  0  0
  145.1345   75.7103  219.7689 H   0  0  0  0  0  0  0  0  0  0  0  0
  143.1133   77.1136  219.6153 H   0  0  0  0  0  0  0  0  0  0  0  0
  138.4987   69.6941  222.0433 H   0  0  0  0  0  0  0  0  0  0  0  0
  138.8966   68.1740  223.9721 H   0  0  0  0  0  0  0  0  0  0  0  0
  139.7650   67.8974  226.2055 H   0  0  0  0  0  0  0  0  0  0  0  0
  141.5535   71.2382  228.2883 H   0  0  0  0  0  0  0  0  0  0  0  0
  141.1110   72.6992  226.2943 H   0  0  0  0  0  0  0  0  0  0  0  0
  1  2  2  0
  2  3  1  0
  3  4  1  0
  4  5  1  0
  5  6  2  0
  5  7  1  0
  7  8  1  0
  8  9  1  0
  9 10  1  0
 10 11  1  0
 11 12  1  0
 12 13  2  0
 13 14  1  0
 14 15  2  0
 15 16  1  0
 15 17  1  0
 17 18  2  0
  2 19  1  0
 19 20  2  0
 20 21  1  0
 21 22  2  0
 22 23  1  0
 23 24  2  0
 24 25  1  0
 24 26  1  0
 26 27  2  0
 27 28  1  0
 28 29  2  0
 11  7  1  0
 18 12  1  0
 29 19  1  0
 28 22  1  0
  3 30  1  0
  4 31  1  0
  4 32  1  0
  8 33  1  0
  8 34  1  0
  9 35  1  0
  9 36  1  0
 10 37  1  0
 10 38  1  0
 11 39  1  6
 13 40  1  0
 14 41  1  0
 17 42  1  0
 18 43  1  0
 20 44  1  0
 21 45  1  0
 23 46  1  0
 26 47  1  0
 27 48  1  0
M  END
>  <smiles>  (11) 
O=C(NCC(=O)N1CCC[C@H]1c1ccc(Cl)cc1)c1ccc2cc(Cl)ccc2n1

>  <score_type>  (11) 
oracle

>  <origin>  (11) 
autodockgpu

>  <m_score__min__energy>  (11) 
-8.7400000000000002

>  <m_primary>  (11) 
energy

>  <rmsd>  (11) 
2.3382247764069124

>  <m_score__min__rmsd>  (11) 
2.3382247764069124

>  <meeko>  (11) 
{"free_energy": -8.31, "intermolecular_energy": -9.8, "internal_energy": -1.73, "cluster_size": 15, "cluster_id": 2, "rank_in_cluster": 10}

>  <energy>  (11) 
-8.34

>  <cluster_rmsd>  (11) 
1.24

>  <cluster>  (11) 
1

$$$$

     RDKit          3D

 48 51  0  0  0  0  0  0  0  0999 V2000
  140.8340   72.9050  221.5620 O   0  0  0  0  0  0  0  0  0  0  0  0
  139.8870   72.7180  222.3820 C   0  0  0  0  0  0  0  0  0  0  0  0
  138.7090   73.4920  222.1580 N   0  0  0  0  0  0  0  0  0  0  0  0
  138.7160   74.3960  221.0390 C   0  0  0  0  0  0  0  0  0  0  0  0
  138.5050   75.7970  221.4210 C   0  0  0  0  0  0  0  0  0  0  0  0
  137.6540   76.1980  222.2550 O   0  0  0  0  0  0  0  0  0  0  0  0
  139.3190   76.7900  220.8090 N   0  0  0  0  0  0  0  0  0  0  0  0
  138.8950   77.9660  220.0540 C   0  0  0  0  0  0  0  0  0  0  0  0
  139.9790   78.1300  218.9950 C   0  0  0  0  0  0  0  0  0  0  0  0
  141.0020   77.0440  219.2920 C   0  0  0  0  0  0  0  0  0  0  0  0
  140.7860   76.8680  220.7910 C   0  0  1  0  0  0  0  0  0  0  0  0
  141.2390   78.0230  221.5820 C   0  0  0  0  0  0  0  0  0  0  0  0
  141.8700   79.1260  221.0810 C   0  0  0  0  0  0  0  0  0  0  0  0
  142.2730   80.1800  221.8750 C   0  0  0  0  0  0  0  0  0  0  0  0
  142.0280   80.1180  223.2440 C   0  0  0  0  0  0  0  0  0  0  0  0
  142.5420   81.4590  224.2570 Cl  0  0  0  0  0  0  0  0  0  0  0  0
  141.3880   79.0060  223.7850 C   0  0  0  0  0  0  0  0  0  0  0  0
  141.0050   77.9820  222.9530 C   0  0  0  0  0  0  0  0  0  0  0  0
  139.9880   71.7710  223.4870 C   0  0  0  0  0  0  0  0  0  0  0  0
  139.5800   70.4740  223.2540 C   0  0  0  0  0  0  0  0  0  0  0  0
  139.6370   69.5080  224.2370 C   0  0  0  0  0  0  0  0  0  0  0  0
  140.1300   69.8960  225.4880 C   0  0  0  0  0  0  0  0  0  0  0  0
  140.2050   68.9720  226.4910 C   0  0  0  0  0  0  0  0  0  0  0  0
  140.6910   69.3720  227.7130 C   0  0  0  0  0  0  0  0  0  0  0  0
  140.7730   68.1530  228.9810 Cl  0  0  0  0  0  0  0  0  0  0  0  0
  141.1090   70.6740  227.9670 C   0  0  0  0  0  0  0  0  0  0  0  0
  141.0250   71.5990  226.9370 C   0  0  0  0  0  0  0  0  0  0  0  0
  140.5360   71.1960  225.7110 C   0  0  0  0  0  0  0  0  0  0  0  0
  140.4590   72.1110  224.7060 N   0  0  0  0  0  0  0  0  0  0  0  0
  137.9120   73.3630  222.8120 H   0  0  0  0  0  0  0  0  0  0  0  0
  139.6887   74.3155  220.5317 H   0  0  0  0  0  0  0  0  0  0  0  0
  137.8806   74.1085  220.3837 H   0  0  0  0  0  0  0  0  0  0  0  0
  137.9133   77.7986  219.5869 H   0  0  0  0  0  0  0  0  0  0  0  0
  138.7805   78.8586  220.6866 H   0  0  0  0  0  0  0  0  0  0  0  0
  139.5568   77.9959  217.9882 H   0  0  0  0  0  0  0  0  0  0  0  0
  140.4285   79.1336  219.0219 H   0  0  0  0  0  0  0  0  0  0  0  0
  140.7854   76.1185  218.7383 H   0  0  0  0  0  0  0  0  0  0  0  0
  142.0337   77.2918  219.0017 H   0  0  0  0  0  0  0  0  0  0  0  0
  141.3356   76.0196  221.2248 H   0  0  0  0  0  0  0  0  0  0  0  0
  142.0650   79.1761  219.9996 H   0  0  0  0  0  0  0  0  0  0  0  0
  142.7781   81.0524  221.4348 H   0  0  0  0  0  0  0  0  0  0  0  0
  141.1914   78.9481  224.8657 H   0  0  0  0  0  0  0  0  0  0  0  0
  140.4991   77.1049  223.3828 H   0  0  0  0  0  0  0  0  0  0  0  0
  139.1992   70.2030  222.2582 H   0  0  0  0  0  0  0  0  0  0  0  0
  139.3086   68.4757  224.0456 H   0  0  0  0  0  0  0  0  0  0  0  0
  139.8843   67.9330  226.3249 H   0  0  0  0  0  0  0  0  0  0  0  0
  141.4950   70.9617  228.9560 H   0  0  0  0  0  0  0  0  0  0  0  0
  141.3438   72.6398  227.0951 H   0  0  0  0  0  0  0  0  0  0  0  0
  1  2  2  0
  2  3  1  0
  3  4  1  0
  4  5  1  0
  5  6  2  0
  5  7  1  0
  7  8  1  0
  8  9  1  0
  9 10  1  0
 10 11  1  0
 11 12  1  0
 12 13  2  0
 13 14  1  0
 14 15  2  0
 15 16  1  0
 15 17  1  0
 17 18  2  0
  2 19  1  0
 19 20  2  0
 20 21  1  0
 21 22  2  0
 22 23  1  0
 23 24  2  0
 24 25  1  0
 24 26  1  0
 26 27  2  0
 27 28  1  0
 28 29  2  0
 11  7  1  0
 18 12  1  0
 29 19  1  0
 28 22  1  0
  3 30  1  0
  4 31  1  0
  4 32  1  0
  8 33  1  0
  8 34  1  0
  9 35  1  0
  9 36  1  0
 10 37  1  0
 10 38  1  0
 11 39  1  1
 13 40  1  0
 14 41  1  0
 17 42  1  0
 18 43  1  0
 20 44  1  0
 21 45  1  0
 23 46  1  0
 26 47  1  0
 27 48  1  0
M  END
>  <smiles>  (12) 
O=C(NCC(=O)N1CCC[C@H]1c1ccc(Cl)cc1)c1ccc2cc(Cl)ccc2n1

>  <score_type>  (12) 
oracle

>  <origin>  (12) 
autodockgpu

>  <m_score__min__energy>  (12) 
-8.7400000000000002

>  <m_primary>  (12) 
energy

>  <rmsd>  (12) 
1.7932225508902508

>  <m_score__min__rmsd>  (12) 
1.7932225508902508

>  <meeko>  (12) 
{"free_energy": -8.69, "intermolecular_energy": -10.19, "internal_energy": -1.22, "cluster_size": 29, "cluster_id": 1, "rank_in_cluster": 3}

>  <energy>  (12) 
-8.33

>  <cluster_rmsd>  (12) 
0.6

>  <cluster>  (12) 
1

$$$$

     RDKit          3D

 48 51  0  0  0  0  0  0  0  0999 V2000
  140.6490   72.6740  220.9950 O   0  0  0  0  0  0  0  0  0  0  0  0
  140.2030   72.9610  222.1460 C   0  0  0  0  0  0  0  0  0  0  0  0
  139.7230   74.2960  222.3090 N   0  0  0  0  0  0  0  0  0  0  0  0
  139.7940   75.1680  221.1670 C   0  0  0  0  0  0  0  0  0  0  0  0
  141.0410   75.9380  221.1000 C   0  0  0  0  0  0  0  0  0  0  0  0
  142.1670   75.4660  220.8000 O   0  0  0  0  0  0  0  0  0  0  0  0
  140.9880   77.3280  221.3960 N   0  0  0  0  0  0  0  0  0  0  0  0
  140.8350   78.4440  220.4670 C   0  0  0  0  0  0  0  0  0  0  0  0
  141.6600   79.5600  221.0970 C   0  0  0  0  0  0  0  0  0  0  0  0
  142.1690   78.9920  222.4130 C   0  0  0  0  0  0  0  0  0  0  0  0
  141.0730   77.9740  222.7130 C   0  0  1  0  0  0  0  0  0  0  0  0
  139.7840   78.5930  223.0560 C   0  0  0  0  0  0  0  0  0  0  0  0
  138.5550   78.0950  222.7260 C   0  0  0  0  0  0  0  0  0  0  0  0
  137.3770   78.7220  223.0770 C   0  0  0  0  0  0  0  0  0  0  0  0
  137.4410   79.9120  223.7970 C   0  0  0  0  0  0  0  0  0  0  0  0
  135.9420   80.7110  224.2440 Cl  0  0  0  0  0  0  0  0  0  0  0  0
  138.6780   80.4440  224.1480 C   0  0  0  0  0  0  0  0  0  0  0  0
  139.8240   79.7820  223.7760 C   0  0  0  0  0  0  0  0  0  0  0  0
  140.1780   71.9950  223.2370 C   0  0  0  0  0  0  0  0  0  0  0  0
  139.6250   70.7570  222.9800 C   0  0  0  0  0  0  0  0  0  0  0  0
  139.5570   69.7780  223.9490 C   0  0  0  0  0  0  0  0  0  0  0  0
  140.0740   70.0890  225.2120 C   0  0  0  0  0  0  0  0  0  0  0  0
  140.0270   69.1490  226.2020 C   0  0  0  0  0  0  0  0  0  0  0  0
  140.5380   69.4740  227.4350 C   0  0  0  0  0  0  0  0  0  0  0  0
  140.4610   68.2360  228.6860 Cl  0  0  0  0  0  0  0  0  0  0  0  0
  141.1010   70.7160  227.7140 C   0  0  0  0  0  0  0  0  0  0  0  0
  141.1390   71.6570  226.6970 C   0  0  0  0  0  0  0  0  0  0  0  0
  140.6230   71.3300  225.4590 C   0  0  0  0  0  0  0  0  0  0  0  0
  140.6670   72.2620  224.4670 N   0  0  0  0  0  0  0  0  0  0  0  0
  139.3490   74.5670  223.2410 H   0  0  0  0  0  0  0  0  0  0  0  0
  139.7118   74.5571  220.2559 H   0  0  0  0  0  0  0  0  0  0  0  0
  138.9699   75.8908  221.2580 H   0  0  0  0  0  0  0  0  0  0  0  0
  141.2255   78.1820  219.4726 H   0  0  0  0  0  0  0  0  0  0  0  0
  139.7834   78.7280  220.3140 H   0  0  0  0  0  0  0  0  0  0  0  0
  142.5022   79.8319  220.4437 H   0  0  0  0  0  0  0  0  0  0  0  0
  141.0655   80.4731  221.2481 H   0  0  0  0  0  0  0  0  0  0  0  0
  143.1509   78.5101  222.2956 H   0  0  0  0  0  0  0  0  0  0  0  0
  142.3327   79.7387  223.2040 H   0  0  0  0  0  0  0  0  0  0  0  0
  141.2893   77.3245  223.5740 H   0  0  0  0  0  0  0  0  0  0  0  0
  138.5026   77.1552  222.1568 H   0  0  0  0  0  0  0  0  0  0  0  0
  136.4060   78.2900  222.7934 H   0  0  0  0  0  0  0  0  0  0  0  0
  138.7382   81.3837  224.7167 H   0  0  0  0  0  0  0  0  0  0  0  0
  140.8002   80.2048  224.0558 H   0  0  0  0  0  0  0  0  0  0  0  0
  139.2281   70.5456  221.9761 H   0  0  0  0  0  0  0  0  0  0  0  0
  139.1147   68.7932  223.7380 H   0  0  0  0  0  0  0  0  0  0  0  0
  139.5908   68.1564  226.0165 H   0  0  0  0  0  0  0  0  0  0  0  0
  141.5038   70.9440  228.7119 H   0  0  0  0  0  0  0  0  0  0  0  0
  141.5747   72.6514  226.8740 H   0  0  0  0  0  0  0  0  0  0  0  0
  1  2  2  0
  2  3  1  0
  3  4  1  0
  4  5  1  0
  5  6  2  0
  5  7  1  0
  7  8  1  0
  8  9  1  0
  9 10  1  0
 10 11  1  0
 11 12  1  0
 12 13  2  0
 13 14  1  0
 14 15  2  0
 15 16  1  0
 15 17  1  0
 17 18  2  0
  2 19  1  0
 19 20  2  0
 20 21  1  0
 21 22  2  0
 22 23  1  0
 23 24  2  0
 24 25  1  0
 24 26  1  0
 26 27  2  0
 27 28  1  0
 28 29  2  0
 11  7  1  0
 18 12  1  0
 29 19  1  0
 28 22  1  0
  3 30  1  0
  4 31  1  0
  4 32  1  0
  8 33  1  0
  8 34  1  0
  9 35  1  0
  9 36  1  0
 10 37  1  0
 10 38  1  0
 11 39  1  1
 13 40  1  0
 14 41  1  0
 17 42  1  0
 18 43  1  0
 20 44  1  0
 21 45  1  0
 23 46  1  0
 26 47  1  0
 27 48  1  0
M  END
>  <smiles>  (13) 
O=C(NCC(=O)N1CCC[C@H]1c1ccc(Cl)cc1)c1ccc2cc(Cl)ccc2n1

>  <score_type>  (13) 
oracle

>  <origin>  (13) 
autodockgpu

>  <m_score__min__energy>  (13) 
-8.7400000000000002

>  <m_primary>  (13) 
energy

>  <rmsd>  (13) 
2.8782439462492144

>  <m_score__min__rmsd>  (13) 
2.8782439462492144

>  <meeko>  (13) 
{"free_energy": -8.47, "intermolecular_energy": -9.97, "internal_energy": -1.31, "cluster_size": 4, "cluster_id": 3, "rank_in_cluster": 1}

>  <energy>  (13) 
-8.32

>  <cluster_rmsd>  (13) 
0.79

>  <cluster>  (13) 
1

$$$$

     RDKit          3D

 48 51  0  0  0  0  0  0  0  0999 V2000
  140.9990   72.2580  221.1980 O   0  0  0  0  0  0  0  0  0  0  0  0
  140.1630   72.3850  222.1420 C   0  0  0  0  0  0  0  0  0  0  0  0
  139.2220   73.4490  221.9980 N   0  0  0  0  0  0  0  0  0  0  0  0
  139.3160   74.2580  220.8130 C   0  0  0  0  0  0  0  0  0  0  0  0
  140.3170   75.3270  220.9170 C   0  0  0  0  0  0  0  0  0  0  0  0
  141.5500   75.1490  221.0860 O   0  0  0  0  0  0  0  0  0  0  0  0
  139.8720   76.6740  220.8210 N   0  0  0  0  0  0  0  0  0  0  0  0
  138.6730   77.2720  221.4010 C   0  0  0  0  0  0  0  0  0  0  0  0
  138.2520   78.3180  220.3750 C   0  0  0  0  0  0  0  0  0  0  0  0
  139.3250   78.2790  219.2970 C   0  0  0  0  0  0  0  0  0  0  0  0
  140.5160   77.7900  220.1150 C   0  0  1  0  0  0  0  0  0  0  0  0
  141.0050   78.7850  221.0810 C   0  0  0  0  0  0  0  0  0  0  0  0
  141.0700   80.1320  220.8650 C   0  0  0  0  0  0  0  0  0  0  0  0
  141.5410   81.0190  221.8120 C   0  0  0  0  0  0  0  0  0  0  0  0
  141.9680   80.5210  223.0400 C   0  0  0  0  0  0  0  0  0  0  0  0
  142.5670   81.6480  224.2470 Cl  0  0  0  0  0  0  0  0  0  0  0  0
  141.9150   79.1520  223.2900 C   0  0  0  0  0  0  0  0  0  0  0  0
  141.4370   78.3100  222.3150 C   0  0  0  0  0  0  0  0  0  0  0  0
  140.1580   71.5030  223.3030 C   0  0  0  0  0  0  0  0  0  0  0  0
  139.6260   70.2410  223.1430 C   0  0  0  0  0  0  0  0  0  0  0  0
  139.5770   69.3360  224.1830 C   0  0  0  0  0  0  0  0  0  0  0  0
  140.0920   69.7510  225.4170 C   0  0  0  0  0  0  0  0  0  0  0  0
  140.0640   68.8880  226.4750 C   0  0  0  0  0  0  0  0  0  0  0  0
  140.5730   69.3130  227.6790 C   0  0  0  0  0  0  0  0  0  0  0  0
  140.5200   68.1720  229.0190 Cl  0  0  0  0  0  0  0  0  0  0  0  0
  141.1140   70.5820  227.8610 C   0  0  0  0  0  0  0  0  0  0  0  0
  141.1330   71.4450  226.7750 C   0  0  0  0  0  0  0  0  0  0  0  0
  140.6200   71.0160  225.5680 C   0  0  0  0  0  0  0  0  0  0  0  0
  140.6450   71.8710  224.5080 N   0  0  0  0  0  0  0  0  0  0  0  0
  138.5210   73.5820  222.7550 H   0  0  0  0  0  0  0  0  0  0  0  0
  139.5857   73.6083  219.9673 H   0  0  0  0  0  0  0  0  0  0  0  0
  138.3379   74.7406  220.6698 H   0  0  0  0  0  0  0  0  0  0  0  0
  137.8849   76.5166  221.5358 H   0  0  0  0  0  0  0  0  0  0  0  0
  138.8531   77.7030  222.3969 H   0  0  0  0  0  0  0  0  0  0  0  0
  137.2693   78.0664  219.9495 H   0  0  0  0  0  0  0  0  0  0  0  0
  138.1584   79.3178  220.8240 H   0  0  0  0  0  0  0  0  0  0  0  0
  139.0677   77.5749  218.4920 H   0  0  0  0  0  0  0  0  0  0  0  0
  139.4866   79.2329  218.7737 H   0  0  0  0  0  0  0  0  0  0  0  0
  141.4048   77.5518  219.5123 H   0  0  0  0  0  0  0  0  0  0  0  0
  140.7327   80.5268  219.8953 H   0  0  0  0  0  0  0  0  0  0  0  0
  141.5782   82.0979  221.6006 H   0  0  0  0  0  0  0  0  0  0  0  0
  142.2518   78.7494  224.2567 H   0  0  0  0  0  0  0  0  0  0  0  0
  141.3947   77.2294  222.5161 H   0  0  0  0  0  0  0  0  0  0  0  0
  139.2300   69.9479  222.1595 H   0  0  0  0  0  0  0  0  0  0  0  0
  139.1512   68.3307  224.0484 H   0  0  0  0  0  0  0  0  0  0  0  0
  139.6442   67.8771  226.3663 H   0  0  0  0  0  0  0  0  0  0  0  0
  141.5149   70.8918  228.8374 H   0  0  0  0  0  0  0  0  0  0  0  0
  141.5513   72.4575  226.8747 H   0  0  0  0  0  0  0  0  0  0  0  0
  1  2  2  0
  2  3  1  0
  3  4  1  0
  4  5  1  0
  5  6  2  0
  5  7  1  0
  7  8  1  0
  8  9  1  0
  9 10  1  0
 10 11  1  0
 11 12  1  0
 12 13  2  0
 13 14  1  0
 14 15  2  0
 15 16  1  0
 15 17  1  0
 17 18  2  0
  2 19  1  0
 19 20  2  0
 20 21  1  0
 21 22  2  0
 22 23  1  0
 23 24  2  0
 24 25  1  0
 24 26  1  0
 26 27  2  0
 27 28  1  0
 28 29  2  0
 11  7  1  0
 18 12  1  0
 29 19  1  0
 28 22  1  0
  3 30  1  0
  4 31  1  0
  4 32  1  0
  8 33  1  0
  8 34  1  0
  9 35  1  0
  9 36  1  0
 10 37  1  0
 10 38  1  0
 11 39  1  6
 13 40  1  0
 14 41  1  0
 17 42  1  0
 18 43  1  0
 20 44  1  0
 21 45  1  0
 23 46  1  0
 26 47  1  0
 27 48  1  0
M  END
>  <smiles>  (14) 
O=C(NCC(=O)N1CCC[C@H]1c1ccc(Cl)cc1)c1ccc2cc(Cl)ccc2n1

>  <score_type>  (14) 
oracle

>  <origin>  (14) 
autodockgpu

>  <m_score__min__energy>  (14) 
-8.7400000000000002

>  <m_primary>  (14) 
energy

>  <rmsd>  (14) 
2.0009192865356122

>  <m_score__min__rmsd>  (14) 
2.0009192865356122

>  <meeko>  (14) 
{"free_energy": -8.42, "intermolecular_energy": -9.91, "internal_energy": -1.15, "cluster_size": 29, "cluster_id": 1, "rank_in_cluster": 10}

>  <energy>  (14) 
-8.32

>  <cluster_rmsd>  (14) 
1.17

>  <cluster>  (14) 
1

$$$$

     RDKit          3D

 48 51  0  0  0  0  0  0  0  0999 V2000
  140.5050   72.6200  220.8960 O   0  0  0  0  0  0  0  0  0  0  0  0
  140.0580   72.9180  222.0430 C   0  0  0  0  0  0  0  0  0  0  0  0
  139.5780   74.2550  222.1940 N   0  0  0  0  0  0  0  0  0  0  0  0
  139.6520   75.1160  221.0450 C   0  0  0  0  0  0  0  0  0  0  0  0
  140.8960   75.8910  220.9780 C   0  0  0  0  0  0  0  0  0  0  0  0
  142.0280   75.4190  220.7040 O   0  0  0  0  0  0  0  0  0  0  0  0
  140.8320   77.2870  221.2410 N   0  0  0  0  0  0  0  0  0  0  0  0
  140.6280   78.3770  220.2910 C   0  0  0  0  0  0  0  0  0  0  0  0
  141.4570   79.5210  220.8630 C   0  0  0  0  0  0  0  0  0  0  0  0
  142.0210   78.9940  222.1740 C   0  0  0  0  0  0  0  0  0  0  0  0
  140.9540   77.9680  222.5370 C   0  0  1  0  0  0  0  0  0  0  0  0
  139.6680   78.5760  222.9120 C   0  0  0  0  0  0  0  0  0  0  0  0
  138.4350   78.0600  222.6240 C   0  0  0  0  0  0  0  0  0  0  0  0
  137.2610   78.6780  223.0020 C   0  0  0  0  0  0  0  0  0  0  0  0
  137.3330   79.8760  223.7060 C   0  0  0  0  0  0  0  0  0  0  0  0
  135.8380   80.6640  224.1880 Cl  0  0  0  0  0  0  0  0  0  0  0  0
  138.5730   80.4280  224.0140 C   0  0  0  0  0  0  0  0  0  0  0  0
  139.7150   79.7740  223.6160 C   0  0  0  0  0  0  0  0  0  0  0  0
  140.0310   71.9610  223.1430 C   0  0  0  0  0  0  0  0  0  0  0  0
  139.4560   70.7300  222.9030 C   0  0  0  0  0  0  0  0  0  0  0  0
  139.3840   69.7600  223.8820 C   0  0  0  0  0  0  0  0  0  0  0  0
  139.9200   70.0740  225.1350 C   0  0  0  0  0  0  0  0  0  0  0  0
  139.8700   69.1430  226.1330 C   0  0  0  0  0  0  0  0  0  0  0  0
  140.4020   69.4700  227.3580 C   0  0  0  0  0  0  0  0  0  0  0  0
  140.3190   68.2440  228.6200 Cl  0  0  0  0  0  0  0  0  0  0  0  0
  140.9870   70.7050  227.6200 C   0  0  0  0  0  0  0  0  0  0  0  0
  141.0270   71.6370  226.5940 C   0  0  0  0  0  0  0  0  0  0  0  0
  140.4920   71.3080  225.3660 C   0  0  0  0  0  0  0  0  0  0  0  0
  140.5390   72.2310  224.3650 N   0  0  0  0  0  0  0  0  0  0  0  0
  139.2040   74.5330  223.1230 H   0  0  0  0  0  0  0  0  0  0  0  0
  139.5779   74.4962  220.1393 H   0  0  0  0  0  0  0  0  0  0  0  0
  138.8242   75.8360  221.1243 H   0  0  0  0  0  0  0  0  0  0  0  0
  140.9868   78.0960  219.2899 H   0  0  0  0  0  0  0  0  0  0  0  0
  139.5671   78.6411  220.1694 H   0  0  0  0  0  0  0  0  0  0  0  0
  142.2712   79.7886  220.1735 H   0  0  0  0  0  0  0  0  0  0  0  0
  140.8540   80.4288  221.0123 H   0  0  0  0  0  0  0  0  0  0  0  0
  143.0059   78.5246  222.0338 H   0  0  0  0  0  0  0  0  0  0  0  0
  142.2000   79.7627  222.9402 H   0  0  0  0  0  0  0  0  0  0  0  0
  141.2119   77.3433  223.4049 H   0  0  0  0  0  0  0  0  0  0  0  0
  138.3767   77.1128  222.0678 H   0  0  0  0  0  0  0  0  0  0  0  0
  136.2870   78.2324  222.7517 H   0  0  0  0  0  0  0  0  0  0  0  0
  138.6385   81.3755  224.5689 H   0  0  0  0  0  0  0  0  0  0  0  0
  140.6941   80.2112  223.8616 H   0  0  0  0  0  0  0  0  0  0  0  0
  139.0443   70.5162  221.9056 H   0  0  0  0  0  0  0  0  0  0  0  0
  138.9241   68.7804  223.6850 H   0  0  0  0  0  0  0  0  0  0  0  0
  139.4155   68.1562  225.9611 H   0  0  0  0  0  0  0  0  0  0  0  0
  141.4051   70.9351  228.6111 H   0  0  0  0  0  0  0  0  0  0  0  0
  141.4796   72.6262  226.7574 H   0  0  0  0  0  0  0  0  0  0  0  0
  1  2  2  0
  2  3  1  0
  3  4  1  0
  4  5  1  0
  5  6  2  0
  5  7  1  0
  7  8  1  0
  8  9  1  0
  9 10  1  0
 10 11  1  0
 11 12  1  0
 12 13  2  0
 13 14  1  0
 14 15  2  0
 15 16  1  0
 15 17  1  0
 17 18  2  0
  2 19  1  0
 19 20  2  0
 20 21  1  0
 21 22  2  0
 22 23  1  0
 23 24  2  0
 24 25  1  0
 24 26  1  0
 26 27  2  0
 27 28  1  0
 28 29  2  0
 11  7  1  0
 18 12  1  0
 29 19  1  0
 28 22  1  0
  3 30  1  0
  4 31  1  0
  4 32  1  0
  8 33  1  0
  8 34  1  0
  9 35  1  0
  9 36  1  0
 10 37  1  0
 10 38  1  0
 11 39  1  1
 13 40  1  0
 14 41  1  0
 17 42  1  0
 18 43  1  0
 20 44  1  0
 21 45  1  0
 23 46  1  0
 26 47  1  0
 27 48  1  0
M  END
>  <smiles>  (15) 
O=C(NCC(=O)N1CCC[C@H]1c1ccc(Cl)cc1)c1ccc2cc(Cl)ccc2n1

>  <score_type>  (15) 
oracle

>  <origin>  (15) 
autodockgpu

>  <m_score__min__energy>  (15) 
-8.7400000000000002

>  <m_primary>  (15) 
energy

>  <rmsd>  (15) 
2.738332497757462

>  <m_score__min__rmsd>  (15) 
2.738332497757462

>  <meeko>  (15) 
{"free_energy": -8.36, "intermolecular_energy": -9.85, "internal_energy": -1.3, "cluster_size": 4, "cluster_id": 3, "rank_in_cluster": 2}

>  <energy>  (15) 
-8.32

>  <cluster_rmsd>  (15) 
0.62

>  <cluster>  (15) 
1

$$$$

     RDKit          3D

 48 51  0  0  0  0  0  0  0  0999 V2000
  138.6860   71.4990  221.1510 O   0  0  0  0  0  0  0  0  0  0  0  0
  139.0110   71.9950  222.2700 C   0  0  0  0  0  0  0  0  0  0  0  0
  139.0310   73.4220  222.3330 N   0  0  0  0  0  0  0  0  0  0  0  0
  138.6870   74.1410  221.1360 C   0  0  0  0  0  0  0  0  0  0  0  0
  138.7270   75.5990  221.3020 C   0  0  0  0  0  0  0  0  0  0  0  0
  137.7490   76.3160  221.6310 O   0  0  0  0  0  0  0  0  0  0  0  0
  139.9630   76.2650  221.0740 N   0  0  0  0  0  0  0  0  0  0  0  0
  140.7210   77.1030  221.9990 C   0  0  0  0  0  0  0  0  0  0  0  0
  141.3580   78.1560  221.1000 C   0  0  0  0  0  0  0  0  0  0  0  0
  140.9580   77.7740  219.6830 C   0  0  0  0  0  0  0  0  0  0  0  0
  140.7740   76.2690  219.8490 C   0  0  1  0  0  0  0  0  0  0  0  0
  142.0370   75.5510  220.0780 C   0  0  0  0  0  0  0  0  0  0  0  0
  143.2860   76.0540  219.8450 C   0  0  0  0  0  0  0  0  0  0  0  0
  144.4380   75.3310  220.0790 C   0  0  0  0  0  0  0  0  0  0  0  0
  144.3240   74.0340  220.5730 C   0  0  0  0  0  0  0  0  0  0  0  0
  145.7890   73.1120  220.8710 Cl  0  0  0  0  0  0  0  0  0  0  0  0
  143.0650   73.4930  220.8190 C   0  0  0  0  0  0  0  0  0  0  0  0
  141.9480   74.2540  220.5700 C   0  0  0  0  0  0  0  0  0  0  0  0
  139.3420   71.1680  223.4240 C   0  0  0  0  0  0  0  0  0  0  0  0
  139.0520   69.8220  223.3480 C   0  0  0  0  0  0  0  0  0  0  0  0
  139.3290   68.9600  224.3890 C   0  0  0  0  0  0  0  0  0  0  0  0
  139.9200   69.5070  225.5330 C   0  0  0  0  0  0  0  0  0  0  0  0
  140.2120   68.6900  226.5880 C   0  0  0  0  0  0  0  0  0  0  0  0
  140.7920   69.2460  227.7040 C   0  0  0  0  0  0  0  0  0  0  0  0
  141.1540   68.1620  229.0430 Cl  0  0  0  0  0  0  0  0  0  0  0  0
  141.0930   70.6010  227.8000 C   0  0  0  0  0  0  0  0  0  0  0  0
  140.7890   71.4150  226.7180 C   0  0  0  0  0  0  0  0  0  0  0  0
  140.2060   70.8550  225.6000 C   0  0  0  0  0  0  0  0  0  0  0  0
  139.9120   71.6630  224.5430 N   0  0  0  0  0  0  0  0  0  0  0  0
  139.2940   73.8630  223.2370 H   0  0  0  0  0  0  0  0  0  0  0  0
  139.3969   73.8603  220.3440 H   0  0  0  0  0  0  0  0  0  0  0  0
  137.6519   73.8708  220.8801 H   0  0  0  0  0  0  0  0  0  0  0  0
  140.0550   77.5709  222.7390 H   0  0  0  0  0  0  0  0  0  0  0  0
  141.4632   76.5332  222.5774 H   0  0  0  0  0  0  0  0  0  0  0  0
  140.9772   79.1571  221.3506 H   0  0  0  0  0  0  0  0  0  0  0  0
  142.4508   78.1900  221.2212 H   0  0  0  0  0  0  0  0  0  0  0  0
  140.0236   78.2671  219.3768 H   0  0  0  0  0  0  0  0  0  0  0  0
  141.6792   78.0671  218.9058 H   0  0  0  0  0  0  0  0  0  0  0  0
  140.3456   75.7720  218.9661 H   0  0  0  0  0  0  0  0  0  0  0  0
  143.3770   77.0783  219.4545 H   0  0  0  0  0  0  0  0  0  0  0  0
  145.4264   75.7704  219.8793 H   0  0  0  0  0  0  0  0  0  0  0  0
  142.9655   72.4689  221.2079 H   0  0  0  0  0  0  0  0  0  0  0  0
  140.9546   73.8242  220.7658 H   0  0  0  0  0  0  0  0  0  0  0  0
  138.5876   69.4251  222.4333 H   0  0  0  0  0  0  0  0  0  0  0  0
  139.0949   67.8873  224.3223 H   0  0  0  0  0  0  0  0  0  0  0  0
  139.9887   67.6137  226.5459 H   0  0  0  0  0  0  0  0  0  0  0  0
  141.5582   71.0148  228.7068 H   0  0  0  0  0  0  0  0  0  0  0  0
  141.0099   72.4921  226.7513 H   0  0  0  0  0  0  0  0  0  0  0  0
  1  2  2  0
  2  3  1  0
  3  4  1  0
  4  5  1  0
  5  6  2  0
  5  7  1  0
  7  8  1  0
  8  9  1  0
  9 10  1  0
 10 11  1  0
 11 12  1  0
 12 13  2  0
 13 14  1  0
 14 15  2  0
 15 16  1  0
 15 17  1  0
 17 18  2  0
  2 19  1  0
 19 20  2  0
 20 21  1  0
 21 22  2  0
 22 23  1  0
 23 24  2  0
 24 25  1  0
 24 26  1  0
 26 27  2  0
 27 28  1  0
 28 29  2  0
 11  7  1  0
 18 12  1  0
 29 19  1  0
 28 22  1  0
  3 30  1  0
  4 31  1  0
  4 32  1  0
  8 33  1  0
  8 34  1  0
  9 35  1  0
  9 36  1  0
 10 37  1  0
 10 38  1  0
 11 39  1  6
 13 40  1  0
 14 41  1  0
 17 42  1  0
 18 43  1  0
 20 44  1  0
 21 45  1  0
 23 46  1  0
 26 47  1  0
 27 48  1  0
M  END
>  <smiles>  (16) 
O=C(NCC(=O)N1CCC[C@H]1c1ccc(Cl)cc1)c1ccc2cc(Cl)ccc2n1

>  <score_type>  (16) 
oracle

>  <origin>  (16) 
autodockgpu

>  <m_score__min__energy>  (16) 
-8.7400000000000002

>  <m_primary>  (16) 
energy

>  <rmsd>  (16) 
2.1451888175626252

>  <m_score__min__rmsd>  (16) 
2.1451888175626252

>  <meeko>  (16) 
{"free_energy": -8.36, "intermolecular_energy": -9.85, "internal_energy": -1.57, "cluster_size": 15, "cluster_id": 2, "rank_in_cluster": 7}

>  <energy>  (16) 
-8.24

>  <cluster_rmsd>  (16) 
0.63

>  <cluster>  (16) 
1

$$$$

     RDKit          3D

 48 51  0  0  0  0  0  0  0  0999 V2000
  140.1540   71.9460  220.9070 O   0  0  0  0  0  0  0  0  0  0  0  0
  139.7760   72.3060  222.0620 C   0  0  0  0  0  0  0  0  0  0  0  0
  139.2240   73.6200  222.1520 N   0  0  0  0  0  0  0  0  0  0  0  0
  139.1560   74.3920  220.9410 C   0  0  0  0  0  0  0  0  0  0  0  0
  140.3490   75.2140  220.7070 C   0  0  0  0  0  0  0  0  0  0  0  0
  141.5290   74.7830  220.6760 O   0  0  0  0  0  0  0  0  0  0  0  0
  140.1720   76.6100  220.4980 N   0  0  0  0  0  0  0  0  0  0  0  0
  138.9640   77.4060  220.6960 C   0  0  0  0  0  0  0  0  0  0  0  0
  139.0420   78.4660  219.6040 C   0  0  0  0  0  0  0  0  0  0  0  0
  140.3690   78.2240  218.9000 C   0  0  0  0  0  0  0  0  0  0  0  0
  141.1660   77.5860  220.0320 C   0  0  1  0  0  0  0  0  0  0  0  0
  141.4940   78.5280  221.1140 C   0  0  0  0  0  0  0  0  0  0  0  0
  141.4750   78.2380  222.4490 C   0  0  0  0  0  0  0  0  0  0  0  0
  141.7920   79.1660  223.4190 C   0  0  0  0  0  0  0  0  0  0  0  0
  142.1470   80.4520  223.0230 C   0  0  0  0  0  0  0  0  0  0  0  0
  142.5520   81.6360  224.2580 Cl  0  0  0  0  0  0  0  0  0  0  0  0
  142.1750   80.7790  221.6700 C   0  0  0  0  0  0  0  0  0  0  0  0
  141.8510   79.8200  220.7420 C   0  0  0  0  0  0  0  0  0  0  0  0
  139.8920   71.4370  223.2270 C   0  0  0  0  0  0  0  0  0  0  0  0
  139.4910   70.1250  223.0870 C   0  0  0  0  0  0  0  0  0  0  0  0
  139.5630   69.2290  224.1330 C   0  0  0  0  0  0  0  0  0  0  0  0
  140.0640   69.7040  225.3500 C   0  0  0  0  0  0  0  0  0  0  0  0
  140.1530   68.8510  226.4130 C   0  0  0  0  0  0  0  0  0  0  0  0
  140.6470   69.3360  227.6000 C   0  0  0  0  0  0  0  0  0  0  0  0
  140.7480   68.2060  228.9480 Cl  0  0  0  0  0  0  0  0  0  0  0  0
  141.0580   70.6550  227.7620 C   0  0  0  0  0  0  0  0  0  0  0  0
  140.9590   71.5070  226.6720 C   0  0  0  0  0  0  0  0  0  0  0  0
  140.4620   71.0180  225.4810 C   0  0  0  0  0  0  0  0  0  0  0  0
  140.3700   71.8630  224.4160 N   0  0  0  0  0  0  0  0  0  0  0  0
  138.9040   73.9480  223.0850 H   0  0  0  0  0  0  0  0  0  0  0  0
  139.0365   73.7013  220.0932 H   0  0  0  0  0  0  0  0  0  0  0  0
  138.3025   75.0787  221.0407 H   0  0  0  0  0  0  0  0  0  0  0  0
  138.0629   76.7865  220.5767 H   0  0  0  0  0  0  0  0  0  0  0  0
  138.9017   77.8395  221.7050 H   0  0  0  0  0  0  0  0  0  0  0  0
  138.2058   78.3537  218.8982 H   0  0  0  0  0  0  0  0  0  0  0  0
  138.9774   79.4837  220.0164 H   0  0  0  0  0  0  0  0  0  0  0  0
  140.2575   77.5405  218.0453 H   0  0  0  0  0  0  0  0  0  0  0  0
  140.8288   79.1227  218.4630 H   0  0  0  0  0  0  0  0  0  0  0  0
  142.1446   77.1910  219.7215 H   0  0  0  0  0  0  0  0  0  0  0  0
  141.1951   77.2217  222.7635 H   0  0  0  0  0  0  0  0  0  0  0  0
  141.7647   78.8949  224.4847 H   0  0  0  0  0  0  0  0  0  0  0  0
  142.4533   81.7934  221.3482 H   0  0  0  0  0  0  0  0  0  0  0  0
  141.8744   80.0810  219.6737 H   0  0  0  0  0  0  0  0  0  0  0  0
  139.1035   69.7842  222.1156 H   0  0  0  0  0  0  0  0  0  0  0  0
  139.2399   68.1841  224.0153 H   0  0  0  0  0  0  0  0  0  0  0  0
  139.8369   67.8014  226.3211 H   0  0  0  0  0  0  0  0  0  0  0  0
  141.4499   71.0118  228.7259 H   0  0  0  0  0  0  0  0  0  0  0  0
  141.2723   72.5581  226.7557 H   0  0  0  0  0  0  0  0  0  0  0  0
  1  2  2  0
  2  3  1  0
  3  4  1  0
  4  5  1  0
  5  6  2  0
  5  7  1  0
  7  8  1  0
  8  9  1  0
  9 10  1  0
 10 11  1  0
 11 12  1  0
 12 13  2  0
 13 14  1  0
 14 15  2  0
 15 16  1  0
 15 17  1  0
 17 18  2  0
  2 19  1  0
 19 20  2  0
 20 21  1  0
 21 22  2  0
 22 23  1  0
 23 24  2  0
 24 25  1  0
 24 26  1  0
 26 27  2  0
 27 28  1  0
 28 29  2  0
 11  7  1  0
 18 12  1  0
 29 19  1  0
 28 22  1  0
  3 30  1  0
  4 31  1  0
  4 32  1  0
  8 33  1  0
  8 34  1  0
  9 35  1  0
  9 36  1  0
 10 37  1  0
 10 38  1  0
 11 39  1  6
 13 40  1  0
 14 41  1  0
 17 42  1  0
 18 43  1  0
 20 44  1  0
 21 45  1  0
 23 46  1  0
 26 47  1  0
 27 48  1  0
M  END
>  <smiles>  (17) 
O=C(NCC(=O)N1CCC[C@H]1c1ccc(Cl)cc1)c1ccc2cc(Cl)ccc2n1

>  <score_type>  (17) 
oracle

>  <origin>  (17) 
autodockgpu

>  <m_score__min__energy>  (17) 
-8.7400000000000002

>  <m_primary>  (17) 
energy

>  <rmsd>  (17) 
1.685531976405174

>  <m_score__min__rmsd>  (17) 
1.685531976405174

>  <meeko>  (17) 
{"free_energy": -8.6, "intermolecular_energy": -10.09, "internal_energy": -1.24, "cluster_size": 29, "cluster_id": 1, "rank_in_cluster": 5}

>  <energy>  (17) 
-8.21

>  <cluster_rmsd>  (17) 
1.73

>  <cluster>  (17) 
1

$$$$

     RDKit          3D

 48 51  0  0  0  0  0  0  0  0999 V2000
  138.7510   71.4650  220.5830 O   0  0  0  0  0  0  0  0  0  0  0  0
  138.7910   71.9950  221.7330 C   0  0  0  0  0  0  0  0  0  0  0  0
  138.4620   73.3830  221.7890 N   0  0  0  0  0  0  0  0  0  0  0  0
  138.1240   74.0320  220.5500 C   0  0  0  0  0  0  0  0  0  0  0  0
  138.3860   75.4760  220.5590 C   0  0  0  0  0  0  0  0  0  0  0  0
  137.5710   76.3600  220.1920 O   0  0  0  0  0  0  0  0  0  0  0  0
  139.6550   75.9240  221.0160 N   0  0  0  0  0  0  0  0  0  0  0  0
  140.1290   76.0440  222.3920 C   0  0  0  0  0  0  0  0  0  0  0  0
  141.0450   77.2620  222.3590 C   0  0  0  0  0  0  0  0  0  0  0  0
  141.0780   77.7030  220.9030 C   0  0  0  0  0  0  0  0  0  0  0  0
  140.7980   76.3740  220.2090 C   0  0  1  0  0  0  0  0  0  0  0  0
  141.9060   75.4140  220.3250 C   0  0  0  0  0  0  0  0  0  0  0  0
  141.7850   74.1070  220.7030 C   0  0  0  0  0  0  0  0  0  0  0  0
  142.8640   73.2520  220.7930 C   0  0  0  0  0  0  0  0  0  0  0  0
  144.1310   73.7410  220.4870 C   0  0  0  0  0  0  0  0  0  0  0  0
  145.5070   72.6540  220.6020 Cl  0  0  0  0  0  0  0  0  0  0  0  0
  144.2880   75.0690  220.0990 C   0  0  0  0  0  0  0  0  0  0  0  0
  143.1820   75.8800  220.0240 C   0  0  0  0  0  0  0  0  0  0  0  0
  139.1480   71.2390  222.9280 C   0  0  0  0  0  0  0  0  0  0  0  0
  138.8270   69.8980  222.9540 C   0  0  0  0  0  0  0  0  0  0  0  0
  139.1250   69.1020  224.0400 C   0  0  0  0  0  0  0  0  0  0  0  0
  139.7700   69.7100  225.1230 C   0  0  0  0  0  0  0  0  0  0  0  0
  140.0840   68.9600  226.2200 C   0  0  0  0  0  0  0  0  0  0  0  0
  140.7160   69.5750  227.2730 C   0  0  0  0  0  0  0  0  0  0  0  0
  141.1050   68.5750  228.6700 Cl  0  0  0  0  0  0  0  0  0  0  0  0
  141.0490   70.9260  227.2660 C   0  0  0  0  0  0  0  0  0  0  0  0
  140.7220   71.6720  226.1440 C   0  0  0  0  0  0  0  0  0  0  0  0
  140.0860   71.0530  225.0880 C   0  0  0  0  0  0  0  0  0  0  0  0
  139.7700   71.7950  223.9900 N   0  0  0  0  0  0  0  0  0  0  0  0
  138.4840   73.8500  222.7170 H   0  0  0  0  0  0  0  0  0  0  0  0
  138.7166   73.5750  219.7438 H   0  0  0  0  0  0  0  0  0  0  0  0
  137.0428   73.8987  220.3975 H   0  0  0  0  0  0  0  0  0  0  0  0
  139.2884   76.2051  223.0829 H   0  0  0  0  0  0  0  0  0  0  0  0
  140.6416   75.1370  222.7448 H   0  0  0  0  0  0  0  0  0  0  0  0
  140.6421   78.0640  222.9950 H   0  0  0  0  0  0  0  0  0  0  0  0
  142.0506   77.0282  222.7386 H   0  0  0  0  0  0  0  0  0  0  0  0
  140.2983   78.4478  220.6856 H   0  0  0  0  0  0  0  0  0  0  0  0
  142.0106   78.1969  220.5926 H   0  0  0  0  0  0  0  0  0  0  0  0
  140.6384   76.4618  219.1242 H   0  0  0  0  0  0  0  0  0  0  0  0
  140.7846   73.7196  220.9460 H   0  0  0  0  0  0  0  0  0  0  0  0
  142.7259   72.2049  221.1004 H   0  0  0  0  0  0  0  0  0  0  0  0
  145.2854   75.4637  219.8555 H   0  0  0  0  0  0  0  0  0  0  0  0
  143.3088   76.9286  219.7170 H   0  0  0  0  0  0  0  0  0  0  0  0
  138.3200   69.4517  222.0858 H   0  0  0  0  0  0  0  0  0  0  0  0
  138.8663   68.0329  224.0544 H   0  0  0  0  0  0  0  0  0  0  0  0
  139.8367   67.8889  226.2595 H   0  0  0  0  0  0  0  0  0  0  0  0
  141.5567   71.3885  228.1253 H   0  0  0  0  0  0  0  0  0  0  0  0
  140.9665   72.7434  226.0965 H   0  0  0  0  0  0  0  0  0  0  0  0
  1  2  2  0
  2  3  1  0
  3  4  1  0
  4  5  1  0
  5  6  2  0
  5  7  1  0
  7  8  1  0
  8  9  1  0
  9 10  1  0
 10 11  1  0
 11 12  1  0
 12 13  2  0
 13 14  1  0
 14 15  2  0
 15 16  1  0
 15 17  1  0
 17 18  2  0
  2 19  1  0
 19 20  2  0
 20 21  1  0
 21 22  2  0
 22 23  1  0
 23 24  2  0
 24 25  1  0
 24 26  1  0
 26 27  2  0
 27 28  1  0
 28 29  2  0
 11  7  1  0
 18 12  1  0
 29 19  1  0
 28 22  1  0
  3 30  1  0
  4 31  1  0
  4 32  1  0
  8 33  1  0
  8 34  1  0
  9 35  1  0
  9 36  1  0
 10 37  1  0
 10 38  1  0
 11 39  1  6
 13 40  1  0
 14 41  1  0
 17 42  1  0
 18 43  1  0
 20 44  1  0
 21 45  1  0
 23 46  1  0
 26 47  1  0
 27 48  1  0
M  END
>  <smiles>  (18) 
O=C(NCC(=O)N1CCC[C@H]1c1ccc(Cl)cc1)c1ccc2cc(Cl)ccc2n1

>  <score_type>  (18) 
oracle

>  <origin>  (18) 
autodockgpu

>  <m_score__min__energy>  (18) 
-8.7400000000000002

>  <m_primary>  (18) 
energy

>  <rmsd>  (18) 
2.3177636770282684

>  <m_score__min__rmsd>  (18) 
2.3177636770282684

>  <meeko>  (18) 
{"free_energy": -7.98, "intermolecular_energy": -9.47, "internal_energy": -1.73, "cluster_size": 15, "cluster_id": 2, "rank_in_cluster": 15}

>  <energy>  (18) 
-8.14

>  <cluster_rmsd>  (18) 
0.61

>  <cluster>  (18) 
1

$$$$

     RDKit          3D

 48 51  0  0  0  0  0  0  0  0999 V2000
  139.5840   72.0170  220.8010 O   0  0  0  0  0  0  0  0  0  0  0  0
  139.2620   72.3360  221.9830 C   0  0  0  0  0  0  0  0  0  0  0  0
  138.6140   73.6000  222.1300 N   0  0  0  0  0  0  0  0  0  0  0  0
  138.3960   74.3730  220.9370 C   0  0  0  0  0  0  0  0  0  0  0  0
  138.3060   75.8170  221.1870 C   0  0  0  0  0  0  0  0  0  0  0  0
  137.3320   76.3970  221.7290 O   0  0  0  0  0  0  0  0  0  0  0  0
  139.3990   76.6350  220.7890 N   0  0  0  0  0  0  0  0  0  0  0  0
  139.4100   77.7100  219.8010 C   0  0  0  0  0  0  0  0  0  0  0  0
  140.7990   77.6230  219.1810 C   0  0  0  0  0  0  0  0  0  0  0  0
  141.5140   76.5190  219.9460 C   0  0  0  0  0  0  0  0  0  0  0  0
  140.7830   76.5950  221.2820 C   0  0  1  0  0  0  0  0  0  0  0  0
  141.0850   77.8190  222.0400 C   0  0  0  0  0  0  0  0  0  0  0  0
  140.3600   78.2940  223.0960 C   0  0  0  0  0  0  0  0  0  0  0  0
  140.6930   79.4510  223.7700 C   0  0  0  0  0  0  0  0  0  0  0  0
  141.8140   80.1660  223.3570 C   0  0  0  0  0  0  0  0  0  0  0  0
  142.2390   81.6400  224.2130 Cl  0  0  0  0  0  0  0  0  0  0  0  0
  142.5720   79.7080  222.2830 C   0  0  0  0  0  0  0  0  0  0  0  0
  142.2000   78.5490  221.6450 C   0  0  0  0  0  0  0  0  0  0  0  0
  139.5320   71.4720  223.1260 C   0  0  0  0  0  0  0  0  0  0  0  0
  139.2180   70.1350  223.0030 C   0  0  0  0  0  0  0  0  0  0  0  0
  139.4370   69.2400  224.0290 C   0  0  0  0  0  0  0  0  0  0  0  0
  139.9950   69.7440  225.2100 C   0  0  0  0  0  0  0  0  0  0  0  0
  140.2300   68.8930  226.2520 C   0  0  0  0  0  0  0  0  0  0  0  0
  140.7780   69.4070  227.4040 C   0  0  0  0  0  0  0  0  0  0  0  0
  141.0660   68.2800  228.7260 Cl  0  0  0  0  0  0  0  0  0  0  0  0
  141.1020   70.7520  227.5480 C   0  0  0  0  0  0  0  0  0  0  0  0
  140.8570   71.6000  226.4790 C   0  0  0  0  0  0  0  0  0  0  0  0
  140.3060   71.0830  225.3240 C   0  0  0  0  0  0  0  0  0  0  0  0
  140.0690   71.9250  224.2790 N   0  0  0  0  0  0  0  0  0  0  0  0
  138.3360   73.8940  223.0880 H   0  0  0  0  0  0  0  0  0  0  0  0
  139.2316   74.1902  220.2453 H   0  0  0  0  0  0  0  0  0  0  0  0
  137.4308   74.0553  220.5157 H   0  0  0  0  0  0  0  0  0  0  0  0
  138.6312   77.5508  219.0406 H   0  0  0  0  0  0  0  0  0  0  0  0
  139.2039   78.6956  220.2439 H   0  0  0  0  0  0  0  0  0  0  0  0
  140.7287   77.3681  218.1133 H   0  0  0  0  0  0  0  0  0  0  0  0
  141.3368   78.5804  219.2459 H   0  0  0  0  0  0  0  0  0  0  0  0
  141.3813   75.5388  219.4648 H   0  0  0  0  0  0  0  0  0  0  0  0
  142.6057   76.6370  220.0114 H   0  0  0  0  0  0  0  0  0  0  0  0
  141.0404   75.7843  221.9795 H   0  0  0  0  0  0  0  0  0  0  0  0
  139.4736   77.7304  223.4226 H   0  0  0  0  0  0  0  0  0  0  0  0
  140.0848   79.8015  224.6169 H   0  0  0  0  0  0  0  0  0  0  0  0
  143.4584   80.2672  221.9489 H   0  0  0  0  0  0  0  0  0  0  0  0
  142.8018   78.1888  220.7976 H   0  0  0  0  0  0  0  0  0  0  0  0
  138.7810   69.7725  222.0609 H   0  0  0  0  0  0  0  0  0  0  0  0
  139.1839   68.1747  223.9239 H   0  0  0  0  0  0  0  0  0  0  0  0
  139.9870   67.8232  226.1719 H   0  0  0  0  0  0  0  0  0  0  0  0
  141.5399   71.1318  228.4829 H   0  0  0  0  0  0  0  0  0  0  0  0
  141.0985   72.6708  226.5504 H   0  0  0  0  0  0  0  0  0  0  0  0
  1  2  2  0
  2  3  1  0
  3  4  1  0
  4  5  1  0
  5  6  2  0
  5  7  1  0
  7  8  1  0
  8  9  1  0
  9 10  1  0
 10 11  1  0
 11 12  1  0
 12 13  2  0
 13 14  1  0
 14 15  2  0
 15 16  1  0
 15 17  1  0
 17 18  2  0
  2 19  1  0
 19 20  2  0
 20 21  1  0
 21 22  2  0
 22 23  1  0
 23 24  2  0
 24 25  1  0
 24 26  1  0
 26 27  2  0
 27 28  1  0
 28 29  2  0
 11  7  1  0
 18 12  1  0
 29 19  1  0
 28 22  1  0
  3 30  1  0
  4 31  1  0
  4 32  1  0
  8 33  1  0
  8 34  1  0
  9 35  1  0
  9 36  1  0
 10 37  1  0
 10 38  1  0
 11 39  1  1
 13 40  1  0
 14 41  1  0
 17 42  1  0
 18 43  1  0
 20 44  1  0
 21 45  1  0
 23 46  1  0
 26 47  1  0
 27 48  1  0
M  END
>  <smiles>  (19) 
O=C(NCC(=O)N1CCC[C@H]1c1ccc(Cl)cc1)c1ccc2cc(Cl)ccc2n1

>  <score_type>  (19) 
oracle

>  <origin>  (19) 
autodockgpu

>  <m_score__min__energy>  (19) 
-8.7400000000000002

>  <m_primary>  (19) 
energy

>  <rmsd>  (19) 
1.7182889333643978

>  <m_score__min__rmsd>  (19) 
1.7182889333643978

>  <meeko>  (19) 
{"free_energy": -8.57, "intermolecular_energy": -10.06, "internal_energy": -1.23, "cluster_size": 29, "cluster_id": 1, "rank_in_cluster": 6}

>  <energy>  (19) 
-8.13

>  <cluster_rmsd>  (19) 
1.74

>  <cluster>  (19) 
1

$$$$

     RDKit          3D

 48 51  0  0  0  0  0  0  0  0999 V2000
  140.1890   71.8550  220.8850 O   0  0  0  0  0  0  0  0  0  0  0  0
  139.5710   72.0900  221.9650 C   0  0  0  0  0  0  0  0  0  0  0  0
  138.7060   73.2260  221.9510 N   0  0  0  0  0  0  0  0  0  0  0  0
  138.6260   73.9790  220.7270 C   0  0  0  0  0  0  0  0  0  0  0  0
  139.4510   75.1930  220.7370 C   0  0  0  0  0  0  0  0  0  0  0  0
  140.5600   75.3180  220.1590 O   0  0  0  0  0  0  0  0  0  0  0  0
  138.9710   76.3240  221.4520 N   0  0  0  0  0  0  0  0  0  0  0  0
  138.4080   76.3690  222.7990 C   0  0  0  0  0  0  0  0  0  0  0  0
  137.3570   77.4700  222.7200 C   0  0  0  0  0  0  0  0  0  0  0  0
  137.4650   78.0310  221.3100 C   0  0  0  0  0  0  0  0  0  0  0  0
  138.9270   77.7230  221.0050 C   0  0  1  0  0  0  0  0  0  0  0  0
  139.8680   78.5350  221.7940 C   0  0  0  0  0  0  0  0  0  0  0  0
  141.0510   78.0920  222.3140 C   0  0  0  0  0  0  0  0  0  0  0  0
  141.8930   78.9020  223.0480 C   0  0  0  0  0  0  0  0  0  0  0  0
  141.5230   80.2260  223.2680 C   0  0  0  0  0  0  0  0  0  0  0  0
  142.5950   81.2590  224.2030 Cl  0  0  0  0  0  0  0  0  0  0  0  0
  140.3230   80.7070  222.7510 C   0  0  0  0  0  0  0  0  0  0  0  0
  139.5190   79.8610  222.0270 C   0  0  0  0  0  0  0  0  0  0  0  0
  139.7270   71.2570  223.1520 C   0  0  0  0  0  0  0  0  0  0  0  0
  139.3110   69.9440  223.0680 C   0  0  0  0  0  0  0  0  0  0  0  0
  139.4190   69.0800  224.1380 C   0  0  0  0  0  0  0  0  0  0  0  0
  139.9700   69.5880  225.3190 C   0  0  0  0  0  0  0  0  0  0  0  0
  140.0960   68.7670  226.4030 C   0  0  0  0  0  0  0  0  0  0  0  0
  140.6400   69.2840  227.5550 C   0  0  0  0  0  0  0  0  0  0  0  0
  140.7860   68.1950  228.9310 Cl  0  0  0  0  0  0  0  0  0  0  0  0
  141.0660   70.6040  227.6590 C   0  0  0  0  0  0  0  0  0  0  0  0
  140.9300   71.4230  226.5480 C   0  0  0  0  0  0  0  0  0  0  0  0
  140.3830   70.9020  225.3930 C   0  0  0  0  0  0  0  0  0  0  0  0
  140.2550   71.7140  224.3070 N   0  0  0  0  0  0  0  0  0  0  0  0
  138.1830   73.4490  222.8210 H   0  0  0  0  0  0  0  0  0  0  0  0
  138.9606   73.3364  219.8993 H   0  0  0  0  0  0  0  0  0  0  0  0
  137.5798   74.2972  220.6081 H   0  0  0  0  0  0  0  0  0  0  0  0
  137.9468   75.4058  223.0629 H   0  0  0  0  0  0  0  0  0  0  0  0
  139.1680   76.5624  223.5703 H   0  0  0  0  0  0  0  0  0  0  0  0
  136.3526   77.0565  222.8938 H   0  0  0  0  0  0  0  0  0  0  0  0
  137.5192   78.2460  223.4826 H   0  0  0  0  0  0  0  0  0  0  0  0
  136.7868   77.5156  220.6140 H   0  0  0  0  0  0  0  0  0  0  0  0
  137.1883   79.0913  221.2140 H   0  0  0  0  0  0  0  0  0  0  0  0
  139.2172   77.9220  219.9628 H   0  0  0  0  0  0  0  0  0  0  0  0
  141.3445   77.0462  222.1403 H   0  0  0  0  0  0  0  0  0  0  0  0
  142.8380   78.5094  223.4514 H   0  0  0  0  0  0  0  0  0  0  0  0
  140.0226   81.7516  222.9203 H   0  0  0  0  0  0  0  0  0  0  0  0
  138.5715   80.2433  221.6195 H   0  0  0  0  0  0  0  0  0  0  0  0
  138.8824   69.5769  222.1238 H   0  0  0  0  0  0  0  0  0  0  0  0
  139.0854   68.0343  224.0654 H   0  0  0  0  0  0  0  0  0  0  0  0
  139.7701   67.7174  226.3556 H   0  0  0  0  0  0  0  0  0  0  0  0
  141.4982   70.9872  228.5952 H   0  0  0  0  0  0  0  0  0  0  0  0
  141.2537   72.4736  226.5869 H   0  0  0  0  0  0  0  0  0  0  0  0
  1  2  2  0
  2  3  1  0
  3  4  1  0
  4  5  1  0
  5  6  2  0
  5  7  1  0
  7  8  1  0
  8  9  1  0
  9 10  1  0
 10 11  1  0
 11 12  1  0
 12 13  2  0
 13 14  1  0
 14 15  2  0
 15 16  1  0
 15 17  1  0
 17 18  2  0
  2 19  1  0
 19 20  2  0
 20 21  1  0
 21 22  2  0
 22 23  1  0
 23 24  2  0
 24 25  1  0
 24 26  1  0
 26 27  2  0
 27 28  1  0
 28 29  2  0
 11  7  1  0
 18 12  1  0
 29 19  1  0
 28 22  1  0
  3 30  1  0
  4 31  1  0
  4 32  1  0
  8 33  1  0
  8 34  1  0
  9 35  1  0
  9 36  1  0
 10 37  1  0
 10 38  1  0
 11 39  1  6
 13 40  1  0
 14 41  1  0
 17 42  1  0
 18 43  1  0
 20 44  1  0
 21 45  1  0
 23 46  1  0
 26 47  1  0
 27 48  1  0
M  END
>  <smiles>  (20) 
O=C(NCC(=O)N1CCC[C@H]1c1ccc(Cl)cc1)c1ccc2cc(Cl)ccc2n1

>  <score_type>  (20) 
oracle

>  <origin>  (20) 
autodockgpu

>  <m_score__min__energy>  (20) 
-8.7400000000000002

>  <m_primary>  (20) 
energy

>  <rmsd>  (20) 
2.7339535231277305

>  <m_score__min__rmsd>  (20) 
2.7339535231277305

>  <meeko>  (20) 
{"free_energy": -8.32, "intermolecular_energy": -9.81, "internal_energy": -1.26, "cluster_size": 29, "cluster_id": 1, "rank_in_cluster": 14}

>  <energy>  (20) 
-8.09

>  <cluster_rmsd>  (20) 
1.72

>  <cluster>  (20) 
1

$$$$

     RDKit          3D

 48 51  0  0  0  0  0  0  0  0999 V2000
  138.6740   70.8950  221.2500 O   0  0  0  0  0  0  0  0  0  0  0  0
  138.8840   71.6380  222.2540 C   0  0  0  0  0  0  0  0  0  0  0  0
  138.5480   73.0160  222.0870 N   0  0  0  0  0  0  0  0  0  0  0  0
  138.0130   73.4150  220.8130 C   0  0  0  0  0  0  0  0  0  0  0  0
  138.1870   74.8450  220.5320 C   0  0  0  0  0  0  0  0  0  0  0  0
  137.3580   75.5680  219.9240 O   0  0  0  0  0  0  0  0  0  0  0  0
  139.3830   75.4740  220.9740 N   0  0  0  0  0  0  0  0  0  0  0  0
  139.8280   75.7060  222.3450 C   0  0  0  0  0  0  0  0  0  0  0  0
  140.5750   77.0330  222.2680 C   0  0  0  0  0  0  0  0  0  0  0  0
  140.5580   77.4200  220.7970 C   0  0  0  0  0  0  0  0  0  0  0  0
  140.4620   76.0420  220.1530 C   0  0  1  0  0  0  0  0  0  0  0  0
  141.6870   75.2420  220.3060 C   0  0  0  0  0  0  0  0  0  0  0  0
  141.7360   73.9400  220.7170 C   0  0  0  0  0  0  0  0  0  0  0  0
  142.9180   73.2400  220.8420 C   0  0  0  0  0  0  0  0  0  0  0  0
  144.1130   73.8870  220.5380 C   0  0  0  0  0  0  0  0  0  0  0  0
  145.6200   72.9970  220.6970 Cl  0  0  0  0  0  0  0  0  0  0  0  0
  144.0970   75.2140  220.1170 C   0  0  0  0  0  0  0  0  0  0  0  0
  142.8930   75.8680  220.0080 C   0  0  0  0  0  0  0  0  0  0  0  0
  139.4330   71.1240  223.5030 C   0  0  0  0  0  0  0  0  0  0  0  0
  140.3540   71.9090  224.1650 C   0  0  0  0  0  0  0  0  0  0  0  0
  140.9280   71.5080  225.3530 C   0  0  0  0  0  0  0  0  0  0  0  0
  140.5380   70.2670  225.8660 C   0  0  0  0  0  0  0  0  0  0  0  0
  141.0810   69.8300  227.0410 C   0  0  0  0  0  0  0  0  0  0  0  0
  140.6850   68.6070  227.5290 C   0  0  0  0  0  0  0  0  0  0  0  0
  141.4070   68.0780  229.0460 Cl  0  0  0  0  0  0  0  0  0  0  0  0
  139.7570   67.8010  226.8770 C   0  0  0  0  0  0  0  0  0  0  0  0
  139.2170   68.2610  225.6860 C   0  0  0  0  0  0  0  0  0  0  0  0
  139.6160   69.4880  225.1970 C   0  0  0  0  0  0  0  0  0  0  0  0
  139.0790   69.9310  224.0260 N   0  0  0  0  0  0  0  0  0  0  0  0
  138.7080   73.6540  222.8920 H   0  0  0  0  0  0  0  0  0  0  0  0
  138.5217   72.8400  220.0252 H   0  0  0  0  0  0  0  0  0  0  0  0
  136.9312   73.2173  220.8378 H   0  0  0  0  0  0  0  0  0  0  0  0
  138.9690   75.7794  223.0282 H   0  0  0  0  0  0  0  0  0  0  0  0
  140.4539   74.8885  222.7321 H   0  0  0  0  0  0  0  0  0  0  0  0
  140.0655   77.7973  222.8732 H   0  0  0  0  0  0  0  0  0  0  0  0
  141.6003   76.9490  222.6576 H   0  0  0  0  0  0  0  0  0  0  0  0
  139.6873   78.0456  220.5509 H   0  0  0  0  0  0  0  0  0  0  0  0
  141.4186   78.0219  220.4696 H   0  0  0  0  0  0  0  0  0  0  0  0
  140.2999   76.0681  219.0653 H   0  0  0  0  0  0  0  0  0  0  0  0
  140.7928   73.4282  220.9585 H   0  0  0  0  0  0  0  0  0  0  0  0
  142.9166   72.1917  221.1752 H   0  0  0  0  0  0  0  0  0  0  0  0
  145.0363   75.7326  219.8746 H   0  0  0  0  0  0  0  0  0  0  0  0
  142.8828   76.9165  219.6756 H   0  0  0  0  0  0  0  0  0  0  0  0
  140.6381   72.8803  223.7339 H   0  0  0  0  0  0  0  0  0  0  0  0
  141.6624   72.1384  225.8756 H   0  0  0  0  0  0  0  0  0  0  0  0
  141.8170   70.4416  227.5834 H   0  0  0  0  0  0  0  0  0  0  0  0
  139.4606   66.8274  227.2943 H   0  0  0  0  0  0  0  0  0  0  0  0
  138.4800   67.6557  225.1379 H   0  0  0  0  0  0  0  0  0  0  0  0
  1  2  2  0
  2  3  1  0
  3  4  1  0
  4  5  1  0
  5  6  2  0
  5  7  1  0
  7  8  1  0
  8  9  1  0
  9 10  1  0
 10 11  1  0
 11 12  1  0
 12 13  2  0
 13 14  1  0
 14 15  2  0
 15 16  1  0
 15 17  1  0
 17 18  2  0
  2 19  1  0
 19 20  2  0
 20 21  1  0
 21 22  2  0
 22 23  1  0
 23 24  2  0
 24 25  1  0
 24 26  1  0
 26 27  2  0
 27 28  1  0
 28 29  2  0
 11  7  1  0
 18 12  1  0
 29 19  1  0
 28 22  1  0
  3 30  1  0
  4 31  1  0
  4 32  1  0
  8 33  1  0
  8 34  1  0
  9 35  1  0
  9 36  1  0
 10 37  1  0
 10 38  1  0
 11 39  1  6
 13 40  1  0
 14 41  1  0
 17 42  1  0
 18 43  1  0
 20 44  1  0
 21 45  1  0
 23 46  1  0
 26 47  1  0
 27 48  1  0
M  END
>  <smiles>  (21) 
O=C(NCC(=O)N1CCC[C@H]1c1ccc(Cl)cc1)c1ccc2cc(Cl)ccc2n1

>  <score_type>  (21) 
oracle

>  <origin>  (21) 
autodockgpu

>  <m_score__min__energy>  (21) 
-8.7400000000000002

>  <m_primary>  (21) 
energy

>  <rmsd>  (21) 
3.110503705262528

>  <m_score__min__rmsd>  (21) 
3.110503705262528

>  <meeko>  (21) 
{"free_energy": -8.25, "intermolecular_energy": -9.74, "internal_energy": -1.54, "cluster_size": 15, "cluster_id": 2, "rank_in_cluster": 13}

>  <energy>  (21) 
-8.08

>  <cluster_rmsd>  (21) 
1.35

>  <cluster>  (21) 
1

$$$$

     RDKit          3D

 48 51  0  0  0  0  0  0  0  0999 V2000
  138.5690   72.1870  220.8000 O   0  0  0  0  0  0  0  0  0  0  0  0
  138.1890   72.4230  221.9850 C   0  0  0  0  0  0  0  0  0  0  0  0
  137.3450   73.5630  222.1500 N   0  0  0  0  0  0  0  0  0  0  0  0
  137.0180   74.3180  220.9700 C   0  0  0  0  0  0  0  0  0  0  0  0
  137.4300   75.7250  221.0470 C   0  0  0  0  0  0  0  0  0  0  0  0
  136.6460   76.7050  221.1120 O   0  0  0  0  0  0  0  0  0  0  0  0
  138.8220   76.0160  221.0480 N   0  0  0  0  0  0  0  0  0  0  0  0
  139.6670   76.3920  219.9190 C   0  0  0  0  0  0  0  0  0  0  0  0
  141.0160   75.7620  220.2450 C   0  0  0  0  0  0  0  0  0  0  0  0
  140.8410   75.1230  221.6150 C   0  0  0  0  0  0  0  0  0  0  0  0
  139.7440   76.0100  222.1920 C   0  0  1  0  0  0  0  0  0  0  0  0
  140.1970   77.3790  222.4830 C   0  0  0  0  0  0  0  0  0  0  0  0
  139.5060   78.5200  222.1880 C   0  0  0  0  0  0  0  0  0  0  0  0
  139.9840   79.7800  222.4860 C   0  0  0  0  0  0  0  0  0  0  0  0
  141.2220   79.8950  223.1130 C   0  0  0  0  0  0  0  0  0  0  0  0
  141.8320   81.4980  223.4930 Cl  0  0  0  0  0  0  0  0  0  0  0  0
  141.9500   78.7500  223.4260 C   0  0  0  0  0  0  0  0  0  0  0  0
  141.4310   77.5180  223.1090 C   0  0  0  0  0  0  0  0  0  0  0  0
  138.5830   71.5870  223.1120 C   0  0  0  0  0  0  0  0  0  0  0  0
  137.8490   70.4430  223.3450 C   0  0  0  0  0  0  0  0  0  0  0  0
  138.1460   69.5900  224.3880 C   0  0  0  0  0  0  0  0  0  0  0  0
  139.2280   69.9310  225.2060 C   0  0  0  0  0  0  0  0  0  0  0  0
  139.5580   69.1140  226.2500 C   0  0  0  0  0  0  0  0  0  0  0  0
  140.6250   69.4660  227.0430 C   0  0  0  0  0  0  0  0  0  0  0  0
  141.0200   68.3890  228.3780 Cl  0  0  0  0  0  0  0  0  0  0  0  0
  141.3790   70.6150  226.8240 C   0  0  0  0  0  0  0  0  0  0  0  0
  141.0280   71.4320  225.7590 C   0  0  0  0  0  0  0  0  0  0  0  0
  139.9570   71.0770  224.9650 C   0  0  0  0  0  0  0  0  0  0  0  0
  139.6220   71.8860  223.9210 N   0  0  0  0  0  0  0  0  0  0  0  0
  137.0140   73.7870  223.1090 H   0  0  0  0  0  0  0  0  0  0  0  0
  137.5204   73.8539  220.1085 H   0  0  0  0  0  0  0  0  0  0  0  0
  135.9228   74.3048  220.8684 H   0  0  0  0  0  0  0  0  0  0  0  0
  139.2644   75.9896  218.9777 H   0  0  0  0  0  0  0  0  0  0  0  0
  139.7300   77.4814  219.7806 H   0  0  0  0  0  0  0  0  0  0  0  0
  141.2767   75.0005  219.4953 H   0  0  0  0  0  0  0  0  0  0  0  0
  141.8272   76.5049  220.2399 H   0  0  0  0  0  0  0  0  0  0  0  0
  140.5174   74.0746  221.5366 H   0  0  0  0  0  0  0  0  0  0  0  0
  141.7583   75.0732  222.2201 H   0  0  0  0  0  0  0  0  0  0  0  0
  139.3430   75.6565  223.1534 H   0  0  0  0  0  0  0  0  0  0  0  0
  138.5280   78.4308  221.6924 H   0  0  0  0  0  0  0  0  0  0  0  0
  139.3983   80.6761  222.2331 H   0  0  0  0  0  0  0  0  0  0  0  0
  142.9289   78.8309  223.9211 H   0  0  0  0  0  0  0  0  0  0  0  0
  142.0084   76.6153  223.3576 H   0  0  0  0  0  0  0  0  0  0  0  0
  137.0045   70.2043  222.6818 H   0  0  0  0  0  0  0  0  0  0  0  0
  137.5561   68.6793  224.5687 H   0  0  0  0  0  0  0  0  0  0  0  0
  138.9844   68.1972  226.4514 H   0  0  0  0  0  0  0  0  0  0  0  0
  142.2281   70.8680  227.4760 H   0  0  0  0  0  0  0  0  0  0  0  0
  141.5961   72.3506  225.5504 H   0  0  0  0  0  0  0  0  0  0  0  0
  1  2  2  0
  2  3  1  0
  3  4  1  0
  4  5  1  0
  5  6  2  0
  5  7  1  0
  7  8  1  0
  8  9  1  0
  9 10  1  0
 10 11  1  0
 11 12  1  0
 12 13  2  0
 13 14  1  0
 14 15  2  0
 15 16  1  0
 15 17  1  0
 17 18  2  0
  2 19  1  0
 19 20  2  0
 20 21  1  0
 21 22  2  0
 22 23  1  0
 23 24  2  0
 24 25  1  0
 24 26  1  0
 26 27  2  0
 27 28  1  0
 28 29  2  0
 11  7  1  0
 18 12  1  0
 29 19  1  0
 28 22  1  0
  3 30  1  0
  4 31  1  0
  4 32  1  0
  8 33  1  0
  8 34  1  0
  9 35  1  0
  9 36  1  0
 10 37  1  0
 10 38  1  0
 11 39  1  1
 13 40  1  0
 14 41  1  0
 17 42  1  0
 18 43  1  0
 20 44  1  0
 21 45  1  0
 23 46  1  0
 26 47  1  0
 27 48  1  0
M  END
>  <smiles>  (22) 
O=C(NCC(=O)N1CCC[C@H]1c1ccc(Cl)cc1)c1ccc2cc(Cl)ccc2n1

>  <score_type>  (22) 
oracle

>  <origin>  (22) 
autodockgpu

>  <m_score__min__energy>  (22) 
-8.7400000000000002

>  <m_primary>  (22) 
energy

>  <rmsd>  (22) 
2.2826593933326973

>  <m_score__min__rmsd>  (22) 
2.2826593933326973

>  <meeko>  (22) 
{"free_energy": -7.87, "intermolecular_energy": -9.36, "internal_energy": -1.55, "cluster_size": 29, "cluster_id": 1, "rank_in_cluster": 27}

>  <energy>  (22) 
-8.07

>  <cluster_rmsd>  (22) 
1.79

>  <cluster>  (22) 
1

$$$$

     RDKit          3D

 48 51  0  0  0  0  0  0  0  0999 V2000
  138.6300   71.8370  220.9290 O   0  0  0  0  0  0  0  0  0  0  0  0
  138.9490   72.2980  222.0650 C   0  0  0  0  0  0  0  0  0  0  0  0
  138.9840   73.7220  222.1690 N   0  0  0  0  0  0  0  0  0  0  0  0
  138.6590   74.4780  220.9900 C   0  0  0  0  0  0  0  0  0  0  0  0
  137.2250   74.4840  220.6800 C   0  0  0  0  0  0  0  0  0  0  0  0
  136.6990   73.9250  219.6850 O   0  0  0  0  0  0  0  0  0  0  0  0
  136.3500   75.1710  221.5660 N   0  0  0  0  0  0  0  0  0  0  0  0
  134.9710   75.5890  221.3300 C   0  0  0  0  0  0  0  0  0  0  0  0
  134.8460   76.8950  222.1050 C   0  0  0  0  0  0  0  0  0  0  0  0
  136.1860   77.0790  222.8040 C   0  0  0  0  0  0  0  0  0  0  0  0
  136.6260   75.6250  222.9360 C   0  0  1  0  0  0  0  0  0  0  0  0
  135.8170   74.8580  223.8950 C   0  0  0  0  0  0  0  0  0  0  0  0
  135.1150   75.3890  224.9400 C   0  0  0  0  0  0  0  0  0  0  0  0
  134.3720   74.6160  225.8090 C   0  0  0  0  0  0  0  0  0  0  0  0
  134.3360   73.2380  225.6150 C   0  0  0  0  0  0  0  0  0  0  0  0
  133.3910   72.2530  226.7210 Cl  0  0  0  0  0  0  0  0  0  0  0  0
  135.0410   72.6670  224.5590 C   0  0  0  0  0  0  0  0  0  0  0  0
  135.7660   73.4790  223.7200 C   0  0  0  0  0  0  0  0  0  0  0  0
  139.2600   71.4340  223.1970 C   0  0  0  0  0  0  0  0  0  0  0  0
  138.8700   70.1130  223.1190 C   0  0  0  0  0  0  0  0  0  0  0  0
  139.1200   69.2210  224.1400 C   0  0  0  0  0  0  0  0  0  0  0  0
  139.7900   69.7090  225.2670 C   0  0  0  0  0  0  0  0  0  0  0  0
  140.0590   68.8600  226.3030 C   0  0  0  0  0  0  0  0  0  0  0  0
  140.7170   69.3580  227.4020 C   0  0  0  0  0  0  0  0  0  0  0  0
  141.0460   68.2330  228.7160 Cl  0  0  0  0  0  0  0  0  0  0  0  0
  141.1200   70.6860  227.5010 C   0  0  0  0  0  0  0  0  0  0  0  0
  140.8380   71.5330  226.4390 C   0  0  0  0  0  0  0  0  0  0  0  0
  140.1760   71.0320  225.3370 C   0  0  0  0  0  0  0  0  0  0  0  0
  139.9050   71.8720  224.3000 N   0  0  0  0  0  0  0  0  0  0  0  0
  139.2420   74.1340  223.0880 H   0  0  0  0  0  0  0  0  0  0  0  0
  138.9879   75.5169  221.1400 H   0  0  0  0  0  0  0  0  0  0  0  0
  139.1727   73.9980  220.1440 H   0  0  0  0  0  0  0  0  0  0  0  0
  134.7895   75.7516  220.2573 H   0  0  0  0  0  0  0  0  0  0  0  0
  134.2382   74.8338  221.6504 H   0  0  0  0  0  0  0  0  0  0  0  0
  134.6513   77.7326  221.4191 H   0  0  0  0  0  0  0  0  0  0  0  0
  134.0111   76.8681  222.8207 H   0  0  0  0  0  0  0  0  0  0  0  0
  136.8883   77.6627  222.1907 H   0  0  0  0  0  0  0  0  0  0  0  0
  136.1382   77.6337  223.7527 H   0  0  0  0  0  0  0  0  0  0  0  0
  137.6553   75.5017  223.3038 H   0  0  0  0  0  0  0  0  0  0  0  0
  135.1432   76.4776  225.0951 H   0  0  0  0  0  0  0  0  0  0  0  0
  133.8189   75.0799  226.6390 H   0  0  0  0  0  0  0  0  0  0  0  0
  135.0180   71.5791  224.3981 H   0  0  0  0  0  0  0  0  0  0  0  0
  136.3219   73.0254  222.8862 H   0  0  0  0  0  0  0  0  0  0  0  0
  138.3455   69.7620  222.2180 H   0  0  0  0  0  0  0  0  0  0  0  0
  138.8057   68.1691  224.0714 H   0  0  0  0  0  0  0  0  0  0  0  0
  139.7563   67.8034  226.2586 H   0  0  0  0  0  0  0  0  0  0  0  0
  141.6463   71.0533  228.3944 H   0  0  0  0  0  0  0  0  0  0  0  0
  141.1384   72.5906  226.4751 H   0  0  0  0  0  0  0  0  0  0  0  0
  1  2  2  0
  2  3  1  0
  3  4  1  0
  4  5  1  0
  5  6  2  0
  5  7  1  0
  7  8  1  0
  8  9  1  0
  9 10  1  0
 10 11  1  0
 11 12  1  0
 12 13  2  0
 13 14  1  0
 14 15  2  0
 15 16  1  0
 15 17  1  0
 17 18  2  0
  2 19  1  0
 19 20  2  0
 20 21  1  0
 21 22  2  0
 22 23  1  0
 23 24  2  0
 24 25  1  0
 24 26  1  0
 26 27  2  0
 27 28  1  0
 28 29  2  0
 11  7  1  0
 18 12  1  0
 29 19  1  0
 28 22  1  0
  3 30  1  0
  4 31  1  0
  4 32  1  0
  8 33  1  0
  8 34  1  0
  9 35  1  0
  9 36  1  0
 10 37  1  0
 10 38  1  0
 11 39  1  1
 13 40  1  0
 14 41  1  0
 17 42  1  0
 18 43  1  0
 20 44  1  0
 21 45  1  0
 23 46  1  0
 26 47  1  0
 27 48  1  0
M  END
>  <smiles>  (23) 
O=C(NCC(=O)N1CCC[C@H]1c1ccc(Cl)cc1)c1ccc2cc(Cl)ccc2n1

>  <score_type>  (23) 
oracle

>  <origin>  (23) 
autodockgpu

>  <m_score__min__energy>  (23) 
-8.7400000000000002

>  <m_primary>  (23) 
energy

>  <rmsd>  (23) 
3.6204863749990905

>  <m_score__min__rmsd>  (23) 
3.6204863749990905

>  <meeko>  (23) 
{"free_energy": -7.2, "intermolecular_energy": -8.69, "internal_energy": -1.95, "cluster_size": 1, "cluster_id": 5, "rank_in_cluster": 1}

>  <energy>  (23) 
-8.02

>  <cluster_rmsd>  (23) 
1.51

>  <cluster>  (23) 
1

$$$$

     RDKit          3D

 48 51  0  0  0  0  0  0  0  0999 V2000
  139.9400   72.0260  220.7870 O   0  0  0  0  0  0  0  0  0  0  0  0
  139.6430   72.3850  221.9650 C   0  0  0  0  0  0  0  0  0  0  0  0
  139.1380   73.7140  222.1000 N   0  0  0  0  0  0  0  0  0  0  0  0
  139.0200   74.5000  220.9010 C   0  0  0  0  0  0  0  0  0  0  0  0
  138.5890   75.8810  221.1510 C   0  0  0  0  0  0  0  0  0  0  0  0
  137.5900   76.2120  221.8380 O   0  0  0  0  0  0  0  0  0  0  0  0
  139.3500   76.9350  220.5760 N   0  0  0  0  0  0  0  0  0  0  0  0
  138.8650   78.1440  219.9150 C   0  0  0  0  0  0  0  0  0  0  0  0
  139.9030   78.4100  218.8320 C   0  0  0  0  0  0  0  0  0  0  0  0
  140.9680   77.3390  219.0210 C   0  0  0  0  0  0  0  0  0  0  0  0
  140.8130   77.0610  220.5120 C   0  0  1  0  0  0  0  0  0  0  0  0
  141.2610   78.1760  221.3610 C   0  0  0  0  0  0  0  0  0  0  0  0
  141.8460   79.3260  220.9110 C   0  0  0  0  0  0  0  0  0  0  0  0
  142.2470   80.3390  221.7580 C   0  0  0  0  0  0  0  0  0  0  0  0
  142.0500   80.1840  223.1270 C   0  0  0  0  0  0  0  0  0  0  0  0
  142.5610   81.4730  224.2060 Cl  0  0  0  0  0  0  0  0  0  0  0  0
  141.4580   79.0230  223.6160 C   0  0  0  0  0  0  0  0  0  0  0  0
  141.0740   78.0430  222.7320 C   0  0  0  0  0  0  0  0  0  0  0  0
  139.8040   71.5020  223.1140 C   0  0  0  0  0  0  0  0  0  0  0  0
  139.4170   70.1870  222.9660 C   0  0  0  0  0  0  0  0  0  0  0  0
  139.5310   69.2770  223.9970 C   0  0  0  0  0  0  0  0  0  0  0  0
  140.0580   69.7420  225.2060 C   0  0  0  0  0  0  0  0  0  0  0  0
  140.1890   68.8750  226.2540 C   0  0  0  0  0  0  0  0  0  0  0  0
  140.7090   69.3510  227.4340 C   0  0  0  0  0  0  0  0  0  0  0  0
  140.8630   68.2040  228.7620 Cl  0  0  0  0  0  0  0  0  0  0  0  0
  141.1060   70.6740  227.6030 C   0  0  0  0  0  0  0  0  0  0  0  0
  140.9650   71.5390  226.5290 C   0  0  0  0  0  0  0  0  0  0  0  0
  140.4420   71.0600  225.3450 C   0  0  0  0  0  0  0  0  0  0  0  0
  140.3090   71.9180  224.2950 N   0  0  0  0  0  0  0  0  0  0  0  0
  138.8850   74.0420  223.0530 H   0  0  0  0  0  0  0  0  0  0  0  0
  140.0002   74.5252  220.4024 H   0  0  0  0  0  0  0  0  0  0  0  0
  138.2485   74.0264  220.2760 H   0  0  0  0  0  0  0  0  0  0  0  0
  137.8718   77.9768  219.4727 H   0  0  0  0  0  0  0  0  0  0  0  0
  138.7490   78.9897  220.6088 H   0  0  0  0  0  0  0  0  0  0  0  0
  139.4476   78.3281  217.8340 H   0  0  0  0  0  0  0  0  0  0  0  0
  140.3238   79.4234  218.9088 H   0  0  0  0  0  0  0  0  0  0  0  0
  140.7576   76.4446  218.4162 H   0  0  0  0  0  0  0  0  0  0  0  0
  141.9805   77.6367  218.7109 H   0  0  0  0  0  0  0  0  0  0  0  0
  141.4034   76.2048  220.8701 H   0  0  0  0  0  0  0  0  0  0  0  0
  142.0037   79.4493  219.8294 H   0  0  0  0  0  0  0  0  0  0  0  0
  142.7135   81.2517  221.3587 H   0  0  0  0  0  0  0  0  0  0  0  0
  141.2994   78.8914  224.6965 H   0  0  0  0  0  0  0  0  0  0  0  0
  140.6052   77.1270  223.1207 H   0  0  0  0  0  0  0  0  0  0  0  0
  139.0067   69.8546  222.0010 H   0  0  0  0  0  0  0  0  0  0  0  0
  139.2202   68.2291  223.8730 H   0  0  0  0  0  0  0  0  0  0  0  0
  139.8858   67.8222  226.1558 H   0  0  0  0  0  0  0  0  0  0  0  0
  141.5195   71.0231  228.5607 H   0  0  0  0  0  0  0  0  0  0  0  0
  141.2659   72.5932  226.6192 H   0  0  0  0  0  0  0  0  0  0  0  0
  1  2  2  0
  2  3  1  0
  3  4  1  0
  4  5  1  0
  5  6  2  0
  5  7  1  0
  7  8  1  0
  8  9  1  0
  9 10  1  0
 10 11  1  0
 11 12  1  0
 12 13  2  0
 13 14  1  0
 14 15  2  0
 15 16  1  0
 15 17  1  0
 17 18  2  0
  2 19  1  0
 19 20  2  0
 20 21  1  0
 21 22  2  0
 22 23  1  0
 23 24  2  0
 24 25  1  0
 24 26  1  0
 26 27  2  0
 27 28  1  0
 28 29  2  0
 11  7  1  0
 18 12  1  0
 29 19  1  0
 28 22  1  0
  3 30  1  0
  4 31  1  0
  4 32  1  0
  8 33  1  0
  8 34  1  0
  9 35  1  0
  9 36  1  0
 10 37  1  0
 10 38  1  0
 11 39  1  1
 13 40  1  0
 14 41  1  0
 17 42  1  0
 18 43  1  0
 20 44  1  0
 21 45  1  0
 23 46  1  0
 26 47  1  0
 27 48  1  0
M  END
>  <smiles>  (24) 
O=C(NCC(=O)N1CCC[C@H]1c1ccc(Cl)cc1)c1ccc2cc(Cl)ccc2n1

>  <score_type>  (24) 
oracle

>  <origin>  (24) 
autodockgpu

>  <m_score__min__energy>  (24) 
-8.7400000000000002

>  <m_primary>  (24) 
energy

>  <rmsd>  (24) 
1.742097961325438

>  <m_score__min__rmsd>  (24) 
1.742097961325438

>  <meeko>  (24) 
{"free_energy": -8.67, "intermolecular_energy": -10.16, "internal_energy": -1.23, "cluster_size": 29, "cluster_id": 1, "rank_in_cluster": 4}

>  <energy>  (24) 
-7.88

>  <cluster_rmsd>  (24) 
1.78

>  <cluster>  (24) 
1

$$$$

     RDKit          3D

 48 51  0  0  0  0  0  0  0  0999 V2000
  132.6410   69.7380  226.4720 O   0  0  0  0  0  0  0  0  0  0  0  0
  133.3830   70.7540  226.3240 C   0  0  0  0  0  0  0  0  0  0  0  0
  134.6600   70.5080  225.7330 N   0  0  0  0  0  0  0  0  0  0  0  0
  134.9700   69.1510  225.3720 C   0  0  0  0  0  0  0  0  0  0  0  0
  135.7100   69.0410  224.1090 C   0  0  0  0  0  0  0  0  0  0  0  0
  135.5010   68.1750  223.2220 O   0  0  0  0  0  0  0  0  0  0  0  0
  136.7480   69.9800  223.8550 N   0  0  0  0  0  0  0  0  0  0  0  0
  136.6530   71.4350  223.7940 C   0  0  0  0  0  0  0  0  0  0  0  0
  137.6750   71.8240  222.7310 C   0  0  0  0  0  0  0  0  0  0  0  0
  138.3410   70.5210  222.3160 C   0  0  0  0  0  0  0  0  0  0  0  0
  138.1680   69.7070  223.5940 C   0  0  1  0  0  0  0  0  0  0  0  0
  138.9890   70.1970  224.7110 C   0  0  0  0  0  0  0  0  0  0  0  0
  139.9150   71.2000  224.6320 C   0  0  0  0  0  0  0  0  0  0  0  0
  140.6580   71.6170  225.7170 C   0  0  0  0  0  0  0  0  0  0  0  0
  140.4580   70.9920  226.9450 C   0  0  0  0  0  0  0  0  0  0  0  0
  141.4030   71.5220  228.3280 Cl  0  0  0  0  0  0  0  0  0  0  0  0
  139.5230   69.9670  227.0570 C   0  0  0  0  0  0  0  0  0  0  0  0
  138.8070   69.5870  225.9470 C   0  0  0  0  0  0  0  0  0  0  0  0
  132.9650   72.0910  226.7280 C   0  0  0  0  0  0  0  0  0  0  0  0
  131.8040   72.2010  227.4640 C   0  0  0  0  0  0  0  0  0  0  0  0
  131.3290   73.4230  227.8920 C   0  0  0  0  0  0  0  0  0  0  0  0
  132.0750   74.5560  227.5480 C   0  0  0  0  0  0  0  0  0  0  0  0
  131.6420   75.7870  227.9510 C   0  0  0  0  0  0  0  0  0  0  0  0
  132.3880   76.8880  227.6030 C   0  0  0  0  0  0  0  0  0  0  0  0
  131.7980   78.4580  228.1400 Cl  0  0  0  0  0  0  0  0  0  0  0  0
  133.5620   76.7980  226.8620 C   0  0  0  0  0  0  0  0  0  0  0  0
  133.9860   75.5400  226.4620 C   0  0  0  0  0  0  0  0  0  0  0  0
  133.2350   74.4360  226.8110 C   0  0  0  0  0  0  0  0  0  0  0  0
  133.6610   73.2040  226.4140 N   0  0  0  0  0  0  0  0  0  0  0  0
  135.2950   71.3200  225.5970 H   0  0  0  0  0  0  0  0  0  0  0  0
  135.5789   68.7069  226.1733 H   0  0  0  0  0  0  0  0  0  0  0  0
  134.0144   68.6233  225.2368 H   0  0  0  0  0  0  0  0  0  0  0  0
  135.6413   71.7492  223.4980 H   0  0  0  0  0  0  0  0  0  0  0  0
  136.8468   71.9143  224.7650 H   0  0  0  0  0  0  0  0  0  0  0  0
  137.1757   72.2924  221.8700 H   0  0  0  0  0  0  0  0  0  0  0  0
  138.4048   72.5534  223.1123 H   0  0  0  0  0  0  0  0  0  0  0  0
  137.8260   70.0543  221.4634 H   0  0  0  0  0  0  0  0  0  0  0  0
  139.3812   70.6245  221.9734 H   0  0  0  0  0  0  0  0  0  0  0  0
  138.4632   68.6520  223.4945 H   0  0  0  0  0  0  0  0  0  0  0  0
  140.0741   71.6951  223.6627 H   0  0  0  0  0  0  0  0  0  0  0  0
  141.3943   72.4277  225.6139 H   0  0  0  0  0  0  0  0  0  0  0  0
  139.3590   69.4668  228.0229 H   0  0  0  0  0  0  0  0  0  0  0  0
  138.0687   68.7768  226.0392 H   0  0  0  0  0  0  0  0  0  0  0  0
  131.2418   71.2898  227.7164 H   0  0  0  0  0  0  0  0  0  0  0  0
  130.4024   73.5037  228.4793 H   0  0  0  0  0  0  0  0  0  0  0  0
  130.7190   75.8948  228.5396 H   0  0  0  0  0  0  0  0  0  0  0  0
  134.1371   77.6986  226.6011 H   0  0  0  0  0  0  0  0  0  0  0  0
  134.9086   75.4235  225.8744 H   0  0  0  0  0  0  0  0  0  0  0  0
  1  2  2  0
  2  3  1  0
  3  4  1  0
  4  5  1  0
  5  6  2  0
  5  7  1  0
  7  8  1  0
  8  9  1  0
  9 10  1  0
 10 11  1  0
 11 12  1  0
 12 13  2  0
 13 14  1  0
 14 15  2  0
 15 16  1  0
 15 17  1  0
 17 18  2  0
  2 19  1  0
 19 20  2  0
 20 21  1  0
 21 22  2  0
 22 23  1  0
 23 24  2  0
 24 25  1  0
 24 26  1  0
 26 27  2  0
 27 28  1  0
 28 29  2  0
 11  7  1  0
 18 12  1  0
 29 19  1  0
 28 22  1  0
  3 30  1  0
  4 31  1  0
  4 32  1  0
  8 33  1  0
  8 34  1  0
  9 35  1  0
  9 36  1  0
 10 37  1  0
 10 38  1  0
 11 39  1  6
 13 40  1  0
 14 41  1  0
 17 42  1  0
 18 43  1  0
 20 44  1  0
 21 45  1  0
 23 46  1  0
 26 47  1  0
 27 48  1  0
M  END
>  <smiles>  (25) 
O=C(NCC(=O)N1CCC[C@H]1c1ccc(Cl)cc1)c1ccc2cc(Cl)ccc2n1

>  <score_type>  (25) 
oracle

>  <origin>  (25) 
autodockgpu

>  <m_score__min__energy>  (25) 
-8.7400000000000002

>  <m_primary>  (25) 
energy

>  <rmsd>  (25) 
8.419309916896289

>  <m_score__min__rmsd>  (25) 
8.419309916896289

>  <meeko>  (25) 
{"free_energy": -8.29, "intermolecular_energy": -9.78, "internal_energy": -1.38, "cluster_size": 1, "cluster_id": 4, "rank_in_cluster": 1}

>  <energy>  (25) 
-7.88

>  <cluster_rmsd>  (25) 
1.79

>  <cluster>  (25) 
1

$$$$

     RDKit          3D

 48 51  0  0  0  0  0  0  0  0999 V2000
  140.0800   74.1180  222.1880 O   0  0  0  0  0  0  0  0  0  0  0  0
  140.2510   72.8720  222.0360 C   0  0  0  0  0  0  0  0  0  0  0  0
  140.4800   72.4360  220.6950 N   0  0  0  0  0  0  0  0  0  0  0  0
  140.4930   73.4430  219.6670 C   0  0  0  0  0  0  0  0  0  0  0  0
  141.7310   74.2300  219.6410 C   0  0  0  0  0  0  0  0  0  0  0  0
  142.8850   73.7680  219.8270 O   0  0  0  0  0  0  0  0  0  0  0  0
  141.6330   75.6260  219.3860 N   0  0  0  0  0  0  0  0  0  0  0  0
  140.6410   76.3290  218.5780 C   0  0  0  0  0  0  0  0  0  0  0  0
  141.4210   77.4860  217.9650 C   0  0  0  0  0  0  0  0  0  0  0  0
  142.8200   77.3860  218.5540 C   0  0  0  0  0  0  0  0  0  0  0  0
  142.5100   76.6970  219.8790 C   0  0  1  0  0  0  0  0  0  0  0  0
  141.7770   77.5550  220.8220 C   0  0  0  0  0  0  0  0  0  0  0  0
  141.8230   78.9210  220.8480 C   0  0  0  0  0  0  0  0  0  0  0  0
  141.1120   79.6740  221.7600 C   0  0  0  0  0  0  0  0  0  0  0  0
  140.3140   79.0170  222.6930 C   0  0  0  0  0  0  0  0  0  0  0  0
  139.4080   79.9750  223.8540 Cl  0  0  0  0  0  0  0  0  0  0  0  0
  140.2470   77.6270  222.6920 C   0  0  0  0  0  0  0  0  0  0  0  0
  140.9740   76.9210  221.7630 C   0  0  0  0  0  0  0  0  0  0  0  0
  140.2170   71.9370  223.1540 C   0  0  0  0  0  0  0  0  0  0  0  0
  139.6940   70.6820  222.9210 C   0  0  0  0  0  0  0  0  0  0  0  0
  139.6200   69.7300  223.9170 C   0  0  0  0  0  0  0  0  0  0  0  0
  140.1010   70.0880  225.1810 C   0  0  0  0  0  0  0  0  0  0  0  0
  140.0480   69.1760  226.1970 C   0  0  0  0  0  0  0  0  0  0  0  0
  140.5250   69.5460  227.4320 C   0  0  0  0  0  0  0  0  0  0  0  0
  140.4400   68.3440  228.7160 Cl  0  0  0  0  0  0  0  0  0  0  0  0
  141.0570   70.8060  227.6870 C   0  0  0  0  0  0  0  0  0  0  0  0
  141.1020   71.7180  226.6440 C   0  0  0  0  0  0  0  0  0  0  0  0
  140.6230   71.3450  225.4050 C   0  0  0  0  0  0  0  0  0  0  0  0
  140.6720   72.2490  224.3860 N   0  0  0  0  0  0  0  0  0  0  0  0
  140.6240   71.4190  220.5330 H   0  0  0  0  0  0  0  0  0  0  0  0
  140.3734   72.9481  218.6919 H   0  0  0  0  0  0  0  0  0  0  0  0
  139.6690   74.1391  219.8824 H   0  0  0  0  0  0  0  0  0  0  0  0
  140.2367   75.6710  217.7947 H   0  0  0  0  0  0  0  0  0  0  0  0
  139.7754   76.6659  219.1673 H   0  0  0  0  0  0  0  0  0  0  0  0
  141.4565   77.3890  216.8699 H   0  0  0  0  0  0  0  0  0  0  0  0
  140.9529   78.4570  218.1842 H   0  0  0  0  0  0  0  0  0  0  0  0
  143.4841   76.7762  217.9239 H   0  0  0  0  0  0  0  0  0  0  0  0
  143.3497   78.3455  218.6472 H   0  0  0  0  0  0  0  0  0  0  0  0
  143.4033   76.3902  220.4428 H   0  0  0  0  0  0  0  0  0  0  0  0
  142.4528   79.4415  220.1115 H   0  0  0  0  0  0  0  0  0  0  0  0
  141.1744   80.7722  221.7501 H   0  0  0  0  0  0  0  0  0  0  0  0
  139.6198   77.0995  223.4258 H   0  0  0  0  0  0  0  0  0  0  0  0
  140.9186   75.8224  221.7644 H   0  0  0  0  0  0  0  0  0  0  0  0
  139.3262   70.4336  221.9145 H   0  0  0  0  0  0  0  0  0  0  0  0
  139.2004   68.7314  223.7252 H   0  0  0  0  0  0  0  0  0  0  0  0
  139.6339   68.1706  226.0308 H   0  0  0  0  0  0  0  0  0  0  0  0
  141.4310   71.0708  228.6870 H   0  0  0  0  0  0  0  0  0  0  0  0
  141.5141   72.7256  226.8020 H   0  0  0  0  0  0  0  0  0  0  0  0
  1  2  2  0
  2  3  1  0
  3  4  1  0
  4  5  1  0
  5  6  2  0
  5  7  1  0
  7  8  1  0
  8  9  1  0
  9 10  1  0
 10 11  1  0
 11 12  1  0
 12 13  2  0
 13 14  1  0
 14 15  2  0
 15 16  1  0
 15 17  1  0
 17 18  2  0
  2 19  1  0
 19 20  2  0
 20 21  1  0
 21 22  2  0
 22 23  1  0
 23 24  2  0
 24 25  1  0
 24 26  1  0
 26 27  2  0
 27 28  1  0
 28 29  2  0
 11  7  1  0
 18 12  1  0
 29 19  1  0
 28 22  1  0
  3 30  1  0
  4 31  1  0
  4 32  1  0
  8 33  1  0
  8 34  1  0
  9 35  1  0
  9 36  1  0
 10 37  1  0
 10 38  1  0
 11 39  1  1
 13 40  1  0
 14 41  1  0
 17 42  1  0
 18 43  1  0
 20 44  1  0
 21 45  1  0
 23 46  1  0
 26 47  1  0
 27 48  1  0
M  END
>  <smiles>  (26) 
O=C(NCC(=O)N1CCC[C@H]1c1ccc(Cl)cc1)c1ccc2cc(Cl)ccc2n1

>  <score_type>  (26) 
oracle

>  <origin>  (26) 
autodockgpu

>  <m_score__min__energy>  (26) 
-8.7400000000000002

>  <m_primary>  (26) 
energy

>  <rmsd>  (26) 
2.0281440580470393

>  <m_score__min__rmsd>  (26) 
2.0281440580470393

>  <meeko>  (26) 
{"free_energy": -8.13, "intermolecular_energy": -9.62, "internal_energy": -1.45, "cluster_size": 29, "cluster_id": 1, "rank_in_cluster": 19}

>  <energy>  (26) 
-7.87

>  <cluster_rmsd>  (26) 
1.6

>  <cluster>  (26) 
1

$$$$

     RDKit          3D

 48 51  0  0  0  0  0  0  0  0999 V2000
  139.5350   71.9780  220.7740 O   0  0  0  0  0  0  0  0  0  0  0  0
  139.2410   72.3140  221.9600 C   0  0  0  0  0  0  0  0  0  0  0  0
  138.6270   73.5950  222.1070 N   0  0  0  0  0  0  0  0  0  0  0  0
  138.4080   74.3630  220.9110 C   0  0  0  0  0  0  0  0  0  0  0  0
  138.5600   75.8090  221.1130 C   0  0  0  0  0  0  0  0  0  0  0  0
  137.6130   76.6260  221.2320 O   0  0  0  0  0  0  0  0  0  0  0  0
  139.8770   76.3410  221.1800 N   0  0  0  0  0  0  0  0  0  0  0  0
  140.5910   76.8400  222.3530 C   0  0  0  0  0  0  0  0  0  0  0  0
  141.4460   77.9760  221.8050 C   0  0  0  0  0  0  0  0  0  0  0  0
  141.1970   77.9820  220.3040 C   0  0  0  0  0  0  0  0  0  0  0  0
  140.8370   76.5160  220.0820 C   0  0  1  0  0  0  0  0  0  0  0  0
  141.9790   75.6050  220.2590 C   0  0  0  0  0  0  0  0  0  0  0  0
  141.8990   74.3130  220.6960 C   0  0  0  0  0  0  0  0  0  0  0  0
  143.0080   73.5050  220.8430 C   0  0  0  0  0  0  0  0  0  0  0  0
  144.2610   74.0270  220.5340 C   0  0  0  0  0  0  0  0  0  0  0  0
  145.6740   73.0000  220.7210 Cl  0  0  0  0  0  0  0  0  0  0  0  0
  144.3750   75.3400  220.0870 C   0  0  0  0  0  0  0  0  0  0  0  0
  143.2410   76.1050  219.9570 C   0  0  0  0  0  0  0  0  0  0  0  0
  139.5100   71.4520  223.1050 C   0  0  0  0  0  0  0  0  0  0  0  0
  139.1960   70.1140  222.9830 C   0  0  0  0  0  0  0  0  0  0  0  0
  139.4140   69.2220  224.0120 C   0  0  0  0  0  0  0  0  0  0  0  0
  139.9690   69.7280  225.1930 C   0  0  0  0  0  0  0  0  0  0  0  0
  140.2020   68.8800  226.2370 C   0  0  0  0  0  0  0  0  0  0  0  0
  140.7480   69.3960  227.3890 C   0  0  0  0  0  0  0  0  0  0  0  0
  141.0330   68.2720  228.7140 Cl  0  0  0  0  0  0  0  0  0  0  0  0
  141.0720   70.7420  227.5310 C   0  0  0  0  0  0  0  0  0  0  0  0
  140.8280   71.5880  226.4590 C   0  0  0  0  0  0  0  0  0  0  0  0
  140.2790   71.0680  225.3050 C   0  0  0  0  0  0  0  0  0  0  0  0
  140.0440   71.9080  224.2580 N   0  0  0  0  0  0  0  0  0  0  0  0
  138.3720   73.9030  223.0670 H   0  0  0  0  0  0  0  0  0  0  0  0
  139.1333   74.0387  220.1502 H   0  0  0  0  0  0  0  0  0  0  0  0
  137.3691   74.1857  220.5958 H   0  0  0  0  0  0  0  0  0  0  0  0
  139.8863   77.2113  223.1116 H   0  0  0  0  0  0  0  0  0  0  0  0
  141.1880   76.0610  222.8497 H   0  0  0  0  0  0  0  0  0  0  0  0
  141.1420   78.9352  222.2493 H   0  0  0  0  0  0  0  0  0  0  0  0
  142.5111   77.8372  222.0422 H   0  0  0  0  0  0  0  0  0  0  0  0
  140.3671   78.6507  220.0317 H   0  0  0  0  0  0  0  0  0  0  0  0
  142.0403   78.3460  219.6987 H   0  0  0  0  0  0  0  0  0  0  0  0
  140.4777   76.2929  219.0665 H   0  0  0  0  0  0  0  0  0  0  0  0
  140.9095   73.8997  220.9408 H   0  0  0  0  0  0  0  0  0  0  0  0
  142.9040   72.4689  221.1974 H   0  0  0  0  0  0  0  0  0  0  0  0
  145.3612   75.7604  219.8407 H   0  0  0  0  0  0  0  0  0  0  0  0
  143.3341   77.1426  219.6039 H   0  0  0  0  0  0  0  0  0  0  0  0
  138.7606   69.7494  222.0409 H   0  0  0  0  0  0  0  0  0  0  0  0
  139.1619   68.1563  223.9087 H   0  0  0  0  0  0  0  0  0  0  0  0
  139.9590   67.8100  226.1588 H   0  0  0  0  0  0  0  0  0  0  0  0
  141.5087   71.1238  228.4657 H   0  0  0  0  0  0  0  0  0  0  0  0
  141.0690   72.6590  226.5281 H   0  0  0  0  0  0  0  0  0  0  0  0
  1  2  2  0
  2  3  1  0
  3  4  1  0
  4  5  1  0
  5  6  2  0
  5  7  1  0
  7  8  1  0
  8  9  1  0
  9 10  1  0
 10 11  1  0
 11 12  1  0
 12 13  2  0
 13 14  1  0
 14 15  2  0
 15 16  1  0
 15 17  1  0
 17 18  2  0
  2 19  1  0
 19 20  2  0
 20 21  1  0
 21 22  2  0
 22 23  1  0
 23 24  2  0
 24 25  1  0
 24 26  1  0
 26 27  2  0
 27 28  1  0
 28 29  2  0
 11  7  1  0
 18 12  1  0
 29 19  1  0
 28 22  1  0
  3 30  1  0
  4 31  1  0
  4 32  1  0
  8 33  1  0
  8 34  1  0
  9 35  1  0
  9 36  1  0
 10 37  1  0
 10 38  1  0
 11 39  1  6
 13 40  1  0
 14 41  1  0
 17 42  1  0
 18 43  1  0
 20 44  1  0
 21 45  1  0
 23 46  1  0
 26 47  1  0
 27 48  1  0
M  END
>  <smiles>  (27) 
O=C(NCC(=O)N1CCC[C@H]1c1ccc(Cl)cc1)c1ccc2cc(Cl)ccc2n1

>  <score_type>  (27) 
oracle

>  <origin>  (27) 
autodockgpu

>  <m_score__min__energy>  (27) 
-8.7400000000000002

>  <m_primary>  (27) 
energy

>  <rmsd>  (27) 
2.32754552175066

>  <m_score__min__rmsd>  (27) 
2.32754552175066

>  <meeko>  (27) 
{"free_energy": -8.48, "intermolecular_energy": -9.97, "internal_energy": -1.69, "cluster_size": 15, "cluster_id": 2, "rank_in_cluster": 4}

>  <energy>  (27) 
-7.87

>  <cluster_rmsd>  (27) 
1.31

>  <cluster>  (27) 
1

$$$$

     RDKit          3D

 48 51  0  0  0  0  0  0  0  0999 V2000
  139.6550   72.3590  220.3080 O   0  0  0  0  0  0  0  0  0  0  0  0
  140.2650   72.6560  221.3780 C   0  0  0  0  0  0  0  0  0  0  0  0
  141.0760   73.8300  221.3240 N   0  0  0  0  0  0  0  0  0  0  0  0
  141.1200   74.5460  220.0780 C   0  0  0  0  0  0  0  0  0  0  0  0
  139.9460   75.4000  219.8570 C   0  0  0  0  0  0  0  0  0  0  0  0
  139.3390   75.5260  218.7640 O   0  0  0  0  0  0  0  0  0  0  0  0
  139.4470   76.1500  220.9570 N   0  0  0  0  0  0  0  0  0  0  0  0
  139.2810   75.7210  222.3430 C   0  0  0  0  0  0  0  0  0  0  0  0
  138.0350   76.4640  222.8100 C   0  0  0  0  0  0  0  0  0  0  0  0
  137.6250   77.3410  221.6370 C   0  0  0  0  0  0  0  0  0  0  0  0
  138.9770   77.5430  220.9610 C   0  0  1  0  0  0  0  0  0  0  0  0
  139.8970   78.3840  221.7420 C   0  0  0  0  0  0  0  0  0  0  0  0
  139.5300   79.2430  222.7390 C   0  0  0  0  0  0  0  0  0  0  0  0
  140.4410   80.0080  223.4380 C   0  0  0  0  0  0  0  0  0  0  0  0
  141.7910   79.9020  223.1140 C   0  0  0  0  0  0  0  0  0  0  0  0
  142.9530   80.8770  224.0020 Cl  0  0  0  0  0  0  0  0  0  0  0  0
  142.1960   79.0370  222.1020 C   0  0  0  0  0  0  0  0  0  0  0  0
  141.2510   78.2950  221.4350 C   0  0  0  0  0  0  0  0  0  0  0  0
  140.1480   71.8550  222.5900 C   0  0  0  0  0  0  0  0  0  0  0  0
  139.4420   70.6730  222.5080 C   0  0  0  0  0  0  0  0  0  0  0  0
  139.2770   69.8480  223.6020 C   0  0  0  0  0  0  0  0  0  0  0  0
  139.8600   70.2580  224.8060 C   0  0  0  0  0  0  0  0  0  0  0  0
  139.7220   69.4720  225.9150 C   0  0  0  0  0  0  0  0  0  0  0  0
  140.3010   69.8920  227.0890 C   0  0  0  0  0  0  0  0  0  0  0  0
  140.1030   68.8520  228.4960 Cl  0  0  0  0  0  0  0  0  0  0  0  0
  141.0180   71.0800  227.1920 C   0  0  0  0  0  0  0  0  0  0  0  0
  141.1460   71.8650  226.0560 C   0  0  0  0  0  0  0  0  0  0  0  0
  140.5640   71.4420  224.8780 C   0  0  0  0  0  0  0  0  0  0  0  0
  140.6970   72.2200  223.7680 N   0  0  0  0  0  0  0  0  0  0  0  0
  141.5910   74.1030  222.1850 H   0  0  0  0  0  0  0  0  0  0  0  0
  142.0190   75.1798  220.0711 H   0  0  0  0  0  0  0  0  0  0  0  0
  141.1345   73.7972  219.2723 H   0  0  0  0  0  0  0  0  0  0  0  0
  139.1323   74.6326  222.4007 H   0  0  0  0  0  0  0  0  0  0  0  0
  140.1627   75.9397  222.9633 H   0  0  0  0  0  0  0  0  0  0  0  0
  137.2331   75.7530  223.0578 H   0  0  0  0  0  0  0  0  0  0  0  0
  138.2275   77.0566  223.7165 H   0  0  0  0  0  0  0  0  0  0  0  0
  136.9118   76.8279  220.9751 H   0  0  0  0  0  0  0  0  0  0  0  0
  137.1068   78.2703  221.9163 H   0  0  0  0  0  0  0  0  0  0  0  0
  138.9183   78.0522  219.9877 H   0  0  0  0  0  0  0  0  0  0  0  0
  138.4636   79.3283  222.9952 H   0  0  0  0  0  0  0  0  0  0  0  0
  140.1073   80.6882  224.2355 H   0  0  0  0  0  0  0  0  0  0  0  0
  143.2604   78.9482  221.8390 H   0  0  0  0  0  0  0  0  0  0  0  0
  141.5742   77.6115  220.6360 H   0  0  0  0  0  0  0  0  0  0  0  0
  138.9986   70.3800  221.5449 H   0  0  0  0  0  0  0  0  0  0  0  0
  138.7109   68.9076  223.5304 H   0  0  0  0  0  0  0  0  0  0  0  0
  139.1615   68.5266  225.8696 H   0  0  0  0  0  0  0  0  0  0  0  0
  141.4701   71.3875  228.1465 H   0  0  0  0  0  0  0  0  0  0  0  0
  141.7040   72.8123  226.0932 H   0  0  0  0  0  0  0  0  0  0  0  0
  1  2  2  0
  2  3  1  0
  3  4  1  0
  4  5  1  0
  5  6  2  0
  5  7  1  0
  7  8  1  0
  8  9  1  0
  9 10  1  0
 10 11  1  0
 11 12  1  0
 12 13  2  0
 13 14  1  0
 14 15  2  0
 15 16  1  0
 15 17  1  0
 17 18  2  0
  2 19  1  0
 19 20  2  0
 20 21  1  0
 21 22  2  0
 22 23  1  0
 23 24  2  0
 24 25  1  0
 24 26  1  0
 26 27  2  0
 27 28  1  0
 28 29  2  0
 11  7  1  0
 18 12  1  0
 29 19  1  0
 28 22  1  0
  3 30  1  0
  4 31  1  0
  4 32  1  0
  8 33  1  0
  8 34  1  0
  9 35  1  0
  9 36  1  0
 10 37  1  0
 10 38  1  0
 11 39  1  6
 13 40  1  0
 14 41  1  0
 17 42  1  0
 18 43  1  0
 20 44  1  0
 21 45  1  0
 23 46  1  0
 26 47  1  0
 27 48  1  0
M  END
>  <smiles>  (28) 
O=C(NCC(=O)N1CCC[C@H]1c1ccc(Cl)cc1)c1ccc2cc(Cl)ccc2n1

>  <score_type>  (28) 
oracle

>  <origin>  (28) 
autodockgpu

>  <m_score__min__energy>  (28) 
-8.7400000000000002

>  <m_primary>  (28) 
energy

>  <rmsd>  (28) 
3.077719038916929

>  <m_score__min__rmsd>  (28) 
3.077719038916929

>  <meeko>  (28) 
{"free_energy": -7.75, "intermolecular_energy": -9.24, "internal_energy": -1.57, "cluster_size": 29, "cluster_id": 1, "rank_in_cluster": 28}

>  <energy>  (28) 
-7.75

>  <cluster_rmsd>  (28) 
1.55

>  <cluster>  (28) 
1

$$$$

     RDKit          3D

 48 51  0  0  0  0  0  0  0  0999 V2000
  139.9690   72.0990  220.8970 O   0  0  0  0  0  0  0  0  0  0  0  0
  139.4740   72.3410  222.0380 C   0  0  0  0  0  0  0  0  0  0  0  0
  138.6990   73.5370  222.1370 N   0  0  0  0  0  0  0  0  0  0  0  0
  138.5620   74.3350  220.9480 C   0  0  0  0  0  0  0  0  0  0  0  0
  138.6510   75.7770  221.2030 C   0  0  0  0  0  0  0  0  0  0  0  0
  137.6720   76.5350  221.4180 O   0  0  0  0  0  0  0  0  0  0  0  0
  139.9400   76.3780  221.2100 N   0  0  0  0  0  0  0  0  0  0  0  0
  140.6740   76.9290  222.3460 C   0  0  0  0  0  0  0  0  0  0  0  0
  141.4450   78.1010  221.7510 C   0  0  0  0  0  0  0  0  0  0  0  0
  141.1350   78.0730  220.2610 C   0  0  0  0  0  0  0  0  0  0  0  0
  140.8440   76.5880  220.0710 C   0  0  1  0  0  0  0  0  0  0  0  0
  142.0380   75.7410  220.2120 C   0  0  0  0  0  0  0  0  0  0  0  0
  143.3190   76.1260  219.9340 C   0  0  0  0  0  0  0  0  0  0  0  0
  144.4020   75.2840  220.0850 C   0  0  0  0  0  0  0  0  0  0  0  0
  144.1810   73.9870  220.5390 C   0  0  0  0  0  0  0  0  0  0  0  0
  145.5590   72.9130  220.7320 Cl  0  0  0  0  0  0  0  0  0  0  0  0
  142.8870   73.5640  220.8300 C   0  0  0  0  0  0  0  0  0  0  0  0
  141.8420   74.4400  220.6640 C   0  0  0  0  0  0  0  0  0  0  0  0
  139.6770   71.4580  223.1800 C   0  0  0  0  0  0  0  0  0  0  0  0
  139.3330   70.1310  223.0300 C   0  0  0  0  0  0  0  0  0  0  0  0
  139.4900   69.2200  224.0540 C   0  0  0  0  0  0  0  0  0  0  0  0
  140.0150   69.6960  225.2600 C   0  0  0  0  0  0  0  0  0  0  0  0
  140.1870   68.8290  226.3010 C   0  0  0  0  0  0  0  0  0  0  0  0
  140.7030   69.3160  227.4780 C   0  0  0  0  0  0  0  0  0  0  0  0
  140.9110   68.1690  228.7980 Cl  0  0  0  0  0  0  0  0  0  0  0  0
  141.0580   70.6510  227.6500 C   0  0  0  0  0  0  0  0  0  0  0  0
  140.8750   71.5160  226.5820 C   0  0  0  0  0  0  0  0  0  0  0  0
  140.3560   71.0260  225.4010 C   0  0  0  0  0  0  0  0  0  0  0  0
  140.1820   71.8840  224.3580 N   0  0  0  0  0  0  0  0  0  0  0  0
  138.2780   73.7660  223.0590 H   0  0  0  0  0  0  0  0  0  0  0  0
  139.3608   74.0548  220.2456 H   0  0  0  0  0  0  0  0  0  0  0  0
  137.5607   74.1381  220.5373 H   0  0  0  0  0  0  0  0  0  0  0  0
  139.9823   77.2729  223.1292 H   0  0  0  0  0  0  0  0  0  0  0  0
  141.3313   76.1887  222.8256 H   0  0  0  0  0  0  0  0  0  0  0  0
  141.1088   79.0489  222.1965 H   0  0  0  0  0  0  0  0  0  0  0  0
  142.5247   78.0221  221.9461 H   0  0  0  0  0  0  0  0  0  0  0  0
  140.2607   78.6937  220.0155 H   0  0  0  0  0  0  0  0  0  0  0  0
  141.9327   78.4719  219.6172 H   0  0  0  0  0  0  0  0  0  0  0  0
  140.4560   76.3328  219.0738 H   0  0  0  0  0  0  0  0  0  0  0  0
  143.4947   77.1507  219.5745 H   0  0  0  0  0  0  0  0  0  0  0  0
  145.4193   75.6309  219.8513 H   0  0  0  0  0  0  0  0  0  0  0  0
  142.7035   72.5404  221.1886 H   0  0  0  0  0  0  0  0  0  0  0  0
  140.8207   74.1030  220.8951 H   0  0  0  0  0  0  0  0  0  0  0  0
  138.9224   69.7898  222.0682 H   0  0  0  0  0  0  0  0  0  0  0  0
  139.2137   68.1628  223.9273 H   0  0  0  0  0  0  0  0  0  0  0  0
  139.9191   67.7669  226.1999 H   0  0  0  0  0  0  0  0  0  0  0  0
  141.4713   71.0089  228.6045 H   0  0  0  0  0  0  0  0  0  0  0  0
  141.1402   72.5795  226.6749 H   0  0  0  0  0  0  0  0  0  0  0  0
  1  2  2  0
  2  3  1  0
  3  4  1  0
  4  5  1  0
  5  6  2  0
  5  7  1  0
  7  8  1  0
  8  9  1  0
  9 10  1  0
 10 11  1  0
 11 12  1  0
 12 13  2  0
 13 14  1  0
 14 15  2  0
 15 16  1  0
 15 17  1  0
 17 18  2  0
  2 19  1  0
 19 20  2  0
 20 21  1  0
 21 22  2  0
 22 23  1  0
 23 24  2  0
 24 25  1  0
 24 26  1  0
 26 27  2  0
 27 28  1  0
 28 29  2  0
 11  7  1  0
 18 12  1  0
 29 19  1  0
 28 22  1  0
  3 30  1  0
  4 31  1  0
  4 32  1  0
  8 33  1  0
  8 34  1  0
  9 35  1  0
  9 36  1  0
 10 37  1  0
 10 38  1  0
 11 39  1  6
 13 40  1  0
 14 41  1  0
 17 42  1  0
 18 43  1  0
 20 44  1  0
 21 45  1  0
 23 46  1  0
 26 47  1  0
 27 48  1  0
M  END
>  <smiles>  (29) 
O=C(NCC(=O)N1CCC[C@H]1c1ccc(Cl)cc1)c1ccc2cc(Cl)ccc2n1

>  <score_type>  (29) 
oracle

>  <origin>  (29) 
autodockgpu

>  <m_score__min__energy>  (29) 
-8.7400000000000002

>  <m_primary>  (29) 
energy

>  <rmsd>  (29) 
2.339397703177211

>  <m_score__min__rmsd>  (29) 
2.339397703177211

>  <meeko>  (29) 
{"free_energy": -8.54, "intermolecular_energy": -10.03, "internal_energy": -1.65, "cluster_size": 15, "cluster_id": 2, "rank_in_cluster": 1}

>  <energy>  (29) 
-7.71

>  <cluster_rmsd>  (29) 
1.72

>  <cluster>  (29) 
1

$$$$

     RDKit          3D

 48 51  0  0  0  0  0  0  0  0999 V2000
  139.5890   71.9970  220.7710 O   0  0  0  0  0  0  0  0  0  0  0  0
  139.3280   72.3460  221.9610 C   0  0  0  0  0  0  0  0  0  0  0  0
  138.7720   73.6520  222.1170 N   0  0  0  0  0  0  0  0  0  0  0  0
  138.5700   74.4300  220.9240 C   0  0  0  0  0  0  0  0  0  0  0  0
  138.7080   75.8750  221.1420 C   0  0  0  0  0  0  0  0  0  0  0  0
  137.7860   76.6390  221.5240 O   0  0  0  0  0  0  0  0  0  0  0  0
  139.9770   76.4700  220.9070 N   0  0  0  0  0  0  0  0  0  0  0  0
  140.7550   77.3230  221.8010 C   0  0  0  0  0  0  0  0  0  0  0  0
  141.4600   78.2940  220.8610 C   0  0  0  0  0  0  0  0  0  0  0  0
  141.0710   77.8500  219.4580 C   0  0  0  0  0  0  0  0  0  0  0  0
  140.8130   76.3670  219.7020 C   0  0  1  0  0  0  0  0  0  0  0  0
  142.0360   75.6060  220.0000 C   0  0  0  0  0  0  0  0  0  0  0  0
  143.3130   76.0520  219.8030 C   0  0  0  0  0  0  0  0  0  0  0  0
  144.4240   75.2900  220.1020 C   0  0  0  0  0  0  0  0  0  0  0  0
  144.2380   74.0140  220.6250 C   0  0  0  0  0  0  0  0  0  0  0  0
  145.6520   73.0420  221.0060 Cl  0  0  0  0  0  0  0  0  0  0  0  0
  142.9500   73.5310  220.8360 C   0  0  0  0  0  0  0  0  0  0  0  0
  141.8750   74.3280  220.5230 C   0  0  0  0  0  0  0  0  0  0  0  0
  139.5740   71.4720  223.1020 C   0  0  0  0  0  0  0  0  0  0  0  0
  139.2770   70.1330  222.9560 C   0  0  0  0  0  0  0  0  0  0  0  0
  139.4760   69.2300  223.9800 C   0  0  0  0  0  0  0  0  0  0  0  0
  139.9960   69.7270  225.1800 C   0  0  0  0  0  0  0  0  0  0  0  0
  140.2100   68.8680  226.2200 C   0  0  0  0  0  0  0  0  0  0  0  0
  140.7210   69.3750  227.3910 C   0  0  0  0  0  0  0  0  0  0  0  0
  140.9830   68.2370  228.7100 Cl  0  0  0  0  0  0  0  0  0  0  0  0
  141.0290   70.7220  227.5580 C   0  0  0  0  0  0  0  0  0  0  0  0
  140.8040   71.5780  226.4910 C   0  0  0  0  0  0  0  0  0  0  0  0
  140.2900   71.0680  225.3160 C   0  0  0  0  0  0  0  0  0  0  0  0
  140.0750   71.9180  224.2740 N   0  0  0  0  0  0  0  0  0  0  0  0
  138.5450   73.9700  223.0800 H   0  0  0  0  0  0  0  0  0  0  0  0
  139.3117   74.1178  220.1740 H   0  0  0  0  0  0  0  0  0  0  0  0
  137.5384   74.2486  220.5879 H   0  0  0  0  0  0  0  0  0  0  0  0
  140.0969   77.8619  222.4985 H   0  0  0  0  0  0  0  0  0  0  0  0
  141.4577   76.7526  222.4262 H   0  0  0  0  0  0  0  0  0  0  0  0
  141.1217   79.3241  221.0467 H   0  0  0  0  0  0  0  0  0  0  0  0
  142.5504   78.2858  221.0058 H   0  0  0  0  0  0  0  0  0  0  0  0
  140.1672   78.3672  219.1036 H   0  0  0  0  0  0  0  0  0  0  0  0
  141.8213   78.0649  218.6829 H   0  0  0  0  0  0  0  0  0  0  0  0
  140.3803   75.8409  218.8383 H   0  0  0  0  0  0  0  0  0  0  0  0
  143.4612   77.0602  219.3889 H   0  0  0  0  0  0  0  0  0  0  0  0
  145.4367   75.6836  219.9303 H   0  0  0  0  0  0  0  0  0  0  0  0
  142.7942   72.5232  221.2484 H   0  0  0  0  0  0  0  0  0  0  0  0
  140.8581   73.9437  220.6911 H   0  0  0  0  0  0  0  0  0  0  0  0
  138.8709   69.7758  221.9982 H   0  0  0  0  0  0  0  0  0  0  0  0
  139.2358   68.1635  223.8580 H   0  0  0  0  0  0  0  0  0  0  0  0
  139.9792   67.7969  226.1229 H   0  0  0  0  0  0  0  0  0  0  0  0
  141.4386   71.0961  228.5079 H   0  0  0  0  0  0  0  0  0  0  0  0
  141.0323   72.6504  226.5797 H   0  0  0  0  0  0  0  0  0  0  0  0
  1  2  2  0
  2  3  1  0
  3  4  1  0
  4  5  1  0
  5  6  2  0
  5  7  1  0
  7  8  1  0
  8  9  1  0
  9 10  1  0
 10 11  1  0
 11 12  1  0
 12 13  2  0
 13 14  1  0
 14 15  2  0
 15 16  1  0
 15 17  1  0
 17 18  2  0
  2 19  1  0
 19 20  2  0
 20 21  1  0
 21 22  2  0
 22 23  1  0
 23 24  2  0
 24 25  1  0
 24 26  1  0
 26 27  2  0
 27 28  1  0
 28 29  2  0
 11  7  1  0
 18 12  1  0
 29 19  1  0
 28 22  1  0
  3 30  1  0
  4 31  1  0
  4 32  1  0
  8 33  1  0
  8 34  1  0
  9 35  1  0
  9 36  1  0
 10 37  1  0
 10 38  1  0
 11 39  1  6
 13 40  1  0
 14 41  1  0
 17 42  1  0
 18 43  1  0
 20 44  1  0
 21 45  1  0
 23 46  1  0
 26 47  1  0
 27 48  1  0
M  END
>  <smiles>  (30) 
O=C(NCC(=O)N1CCC[C@H]1c1ccc(Cl)cc1)c1ccc2cc(Cl)ccc2n1

>  <score_type>  (30) 
oracle

>  <origin>  (30) 
autodockgpu

>  <m_score__min__energy>  (30) 
-8.7400000000000002

>  <m_primary>  (30) 
energy

>  <rmsd>  (30) 
2.176243499526122

>  <m_score__min__rmsd>  (30) 
2.176243499526122

>  <meeko>  (30) 
{"free_energy": -8.4, "intermolecular_energy": -9.89, "internal_energy": -1.65, "cluster_size": 15, "cluster_id": 2, "rank_in_cluster": 5}

>  <energy>  (30) 
-8.54

>  <cluster_rmsd>  (30) 
0.0

>  <cluster>  (30) 
2

$$$$

     RDKit          3D

 48 51  0  0  0  0  0  0  0  0999 V2000
  140.6910   72.4090  221.3200 O   0  0  0  0  0  0  0  0  0  0  0  0
  139.8940   72.4760  222.3030 C   0  0  0  0  0  0  0  0  0  0  0  0
  138.8970   73.4960  222.2250 N   0  0  0  0  0  0  0  0  0  0  0  0
  138.8990   74.3320  221.0550 C   0  0  0  0  0  0  0  0  0  0  0  0
  138.5080   75.7200  221.3320 C   0  0  0  0  0  0  0  0  0  0  0  0
  137.5510   76.0680  222.0670 O   0  0  0  0  0  0  0  0  0  0  0  0
  139.2640   76.7620  220.7270 N   0  0  0  0  0  0  0  0  0  0  0  0
  138.7720   77.9690  220.0690 C   0  0  0  0  0  0  0  0  0  0  0  0
  139.7820   78.2160  218.9550 C   0  0  0  0  0  0  0  0  0  0  0  0
  140.8410   77.1370  219.1240 C   0  0  0  0  0  0  0  0  0  0  0  0
  140.7250   76.8730  220.6210 C   0  0  1  0  0  0  0  0  0  0  0  0
  141.2080   77.9900  221.4470 C   0  0  0  0  0  0  0  0  0  0  0  0
  141.8360   79.1090  220.9750 C   0  0  0  0  0  0  0  0  0  0  0  0
  142.2680   80.1260  221.8010 C   0  0  0  0  0  0  0  0  0  0  0  0
  142.0560   80.0100  223.1720 C   0  0  0  0  0  0  0  0  0  0  0  0
  142.6060   81.3050  224.2250 Cl  0  0  0  0  0  0  0  0  0  0  0  0
  141.4200   78.8820  223.6830 C   0  0  0  0  0  0  0  0  0  0  0  0
  141.0070   77.8960  222.8190 C   0  0  0  0  0  0  0  0  0  0  0  0
  139.9840   71.5720  223.4430 C   0  0  0  0  0  0  0  0  0  0  0  0
  139.5590   70.2720  223.2620 C   0  0  0  0  0  0  0  0  0  0  0  0
  139.6060   69.3450  224.2810 C   0  0  0  0  0  0  0  0  0  0  0  0
  140.1040   69.7750  225.5160 C   0  0  0  0  0  0  0  0  0  0  0  0
  140.1680   68.8890  226.5540 C   0  0  0  0  0  0  0  0  0  0  0  0
  140.6600   69.3310  227.7600 C   0  0  0  0  0  0  0  0  0  0  0  0
  140.7280   68.1610  229.0740 Cl  0  0  0  0  0  0  0  0  0  0  0  0
  141.0950   70.6370  227.9630 C   0  0  0  0  0  0  0  0  0  0  0  0
  141.0210   71.5210  226.8970 C   0  0  0  0  0  0  0  0  0  0  0  0
  140.5260   71.0770  225.6880 C   0  0  0  0  0  0  0  0  0  0  0  0
  140.4600   71.9540  224.6480 N   0  0  0  0  0  0  0  0  0  0  0  0
  138.2260   73.5790  223.0140 H   0  0  0  0  0  0  0  0  0  0  0  0
  139.9130   74.3334  220.6287 H   0  0  0  0  0  0  0  0  0  0  0  0
  138.1565   73.9175  220.3572 H   0  0  0  0  0  0  0  0  0  0  0  0
  137.7654   77.8071  219.6560 H   0  0  0  0  0  0  0  0  0  0  0  0
  138.6830   78.8218  220.7580 H   0  0  0  0  0  0  0  0  0  0  0  0
  139.2983   78.1299  217.9708 H   0  0  0  0  0  0  0  0  0  0  0  0
  140.2142   79.2260  219.0109 H   0  0  0  0  0  0  0  0  0  0  0  0
  140.6055   76.2396  218.5331 H   0  0  0  0  0  0  0  0  0  0  0  0
  141.8473   77.4224  218.7836 H   0  0  0  0  0  0  0  0  0  0  0  0
  141.3165   76.0138  220.9701 H   0  0  0  0  0  0  0  0  0  0  0  0
  142.0037   79.2022  219.8919 H   0  0  0  0  0  0  0  0  0  0  0  0
  142.7703   81.0115  221.3843 H   0  0  0  0  0  0  0  0  0  0  0  0
  141.2500   78.7810  224.7651 H   0  0  0  0  0  0  0  0  0  0  0  0
  140.5028   77.0068  223.2252 H   0  0  0  0  0  0  0  0  0  0  0  0
  139.1724   69.9672  222.2783 H   0  0  0  0  0  0  0  0  0  0  0  0
  139.2660   68.3099  224.1296 H   0  0  0  0  0  0  0  0  0  0  0  0
  139.8344   67.8483  226.4284 H   0  0  0  0  0  0  0  0  0  0  0  0
  141.4858   70.9586  228.9396 H   0  0  0  0  0  0  0  0  0  0  0  0
  141.3528   72.5632  227.0139 H   0  0  0  0  0  0  0  0  0  0  0  0
  1  2  2  0
  2  3  1  0
  3  4  1  0
  4  5  1  0
  5  6  2  0
  5  7  1  0
  7  8  1  0
  8  9  1  0
  9 10  1  0
 10 11  1  0
 11 12  1  0
 12 13  2  0
 13 14  1  0
 14 15  2  0
 15 16  1  0
 15 17  1  0
 17 18  2  0
  2 19  1  0
 19 20  2  0
 20 21  1  0
 21 22  2  0
 22 23  1  0
 23 24  2  0
 24 25  1  0
 24 26  1  0
 26 27  2  0
 27 28  1  0
 28 29  2  0
 11  7  1  0
 18 12  1  0
 29 19  1  0
 28 22  1  0
  3 30  1  0
  4 31  1  0
  4 32  1  0
  8 33  1  0
  8 34  1  0
  9 35  1  0
  9 36  1  0
 10 37  1  0
 10 38  1  0
 11 39  1  1
 13 40  1  0
 14 41  1  0
 17 42  1  0
 18 43  1  0
 20 44  1  0
 21 45  1  0
 23 46  1  0
 26 47  1  0
 27 48  1  0
M  END
>  <smiles>  (31) 
O=C(NCC(=O)N1CCC[C@H]1c1ccc(Cl)cc1)c1ccc2cc(Cl)ccc2n1

>  <score_type>  (31) 
oracle

>  <origin>  (31) 
autodockgpu

>  <m_score__min__energy>  (31) 
-8.7400000000000002

>  <m_primary>  (31) 
energy

>  <rmsd>  (31) 
1.7438978919965251

>  <m_score__min__rmsd>  (31) 
1.7438978919965251

>  <meeko>  (31) 
{"free_energy": -8.7, "intermolecular_energy": -10.2, "internal_energy": -1.25, "cluster_size": 29, "cluster_id": 1, "rank_in_cluster": 2}

>  <energy>  (31) 
-8.51

>  <cluster_rmsd>  (31) 
0.07

>  <cluster>  (31) 
2

$$$$

     RDKit          3D

 48 51  0  0  0  0  0  0  0  0999 V2000
  138.7670   70.9350  221.2640 O   0  0  0  0  0  0  0  0  0  0  0  0
  138.8220   71.6370  222.3170 C   0  0  0  0  0  0  0  0  0  0  0  0
  138.2920   72.9590  222.2100 N   0  0  0  0  0  0  0  0  0  0  0  0
  137.7580   73.3550  220.9340 C   0  0  0  0  0  0  0  0  0  0  0  0
  138.7890   73.5530  219.9080 C   0  0  0  0  0  0  0  0  0  0  0  0
  138.8510   72.9320  218.8170 O   0  0  0  0  0  0  0  0  0  0  0  0
  139.8040   74.5180  220.1540 N   0  0  0  0  0  0  0  0  0  0  0  0
  140.3470   75.5130  219.2340 C   0  0  0  0  0  0  0  0  0  0  0  0
  141.8120   75.6240  219.6370 C   0  0  0  0  0  0  0  0  0  0  0  0
  141.9690   74.7090  220.8430 C   0  0  0  0  0  0  0  0  0  0  0  0
  140.5500   74.7450  221.4000 C   0  0  1  0  0  0  0  0  0  0  0  0
  140.1860   76.0490  221.9760 C   0  0  0  0  0  0  0  0  0  0  0  0
  141.0670   77.0250  222.3460 C   0  0  0  0  0  0  0  0  0  0  0  0
  140.6650   78.2300  222.8830 C   0  0  0  0  0  0  0  0  0  0  0  0
  139.3030   78.4630  223.0560 C   0  0  0  0  0  0  0  0  0  0  0  0
  138.7890   79.9980  223.7400 Cl  0  0  0  0  0  0  0  0  0  0  0  0
  138.3800   77.4880  222.6890 C   0  0  0  0  0  0  0  0  0  0  0  0
  138.8310   76.3040  222.1580 C   0  0  0  0  0  0  0  0  0  0  0  0
  139.3870   71.1320  223.5620 C   0  0  0  0  0  0  0  0  0  0  0  0
  140.3090   71.9260  224.2120 C   0  0  0  0  0  0  0  0  0  0  0  0
  140.8980   71.5340  225.3960 C   0  0  0  0  0  0  0  0  0  0  0  0
  140.5220   70.2910  225.9170 C   0  0  0  0  0  0  0  0  0  0  0  0
  141.0800   69.8630  227.0880 C   0  0  0  0  0  0  0  0  0  0  0  0
  140.6980   68.6390  227.5840 C   0  0  0  0  0  0  0  0  0  0  0  0
  141.4390   68.1210  229.0950 Cl  0  0  0  0  0  0  0  0  0  0  0  0
  139.7690   67.8240  226.9450 C   0  0  0  0  0  0  0  0  0  0  0  0
  139.2140   68.2750  225.7570 C   0  0  0  0  0  0  0  0  0  0  0  0
  139.5990   69.5040  225.2600 C   0  0  0  0  0  0  0  0  0  0  0  0
  139.0460   69.9380  224.0930 N   0  0  0  0  0  0  0  0  0  0  0  0
  138.3210   73.5630  223.0560 H   0  0  0  0  0  0  0  0  0  0  0  0
  137.0664   72.5730  220.5873 H   0  0  0  0  0  0  0  0  0  0  0  0
  137.2530   74.3215  221.0785 H   0  0  0  0  0  0  0  0  0  0  0  0
  140.2524   75.1749  218.1915 H   0  0  0  0  0  0  0  0  0  0  0  0
  139.8177   76.4757  219.2897 H   0  0  0  0  0  0  0  0  0  0  0  0
  142.4636   75.2927  218.8150 H   0  0  0  0  0  0  0  0  0  0  0  0
  142.0950   76.6611  219.8703 H   0  0  0  0  0  0  0  0  0  0  0  0
  142.2639   73.6917  220.5462 H   0  0  0  0  0  0  0  0  0  0  0  0
  142.7503   75.0152  221.5542 H   0  0  0  0  0  0  0  0  0  0  0  0
  140.3741   74.0360  222.2224 H   0  0  0  0  0  0  0  0  0  0  0  0
  142.1431   76.8421  222.2098 H   0  0  0  0  0  0  0  0  0  0  0  0
  141.4053   78.9917  223.1689 H   0  0  0  0  0  0  0  0  0  0  0  0
  137.3023   77.6634  222.8225 H   0  0  0  0  0  0  0  0  0  0  0  0
  138.0993   75.5354  221.8684 H   0  0  0  0  0  0  0  0  0  0  0  0
  140.5817   72.8977  223.7744 H   0  0  0  0  0  0  0  0  0  0  0  0
  141.6326   72.1719  225.9092 H   0  0  0  0  0  0  0  0  0  0  0  0
  141.8166   70.4822  227.6209 H   0  0  0  0  0  0  0  0  0  0  0  0
  139.4831   66.8504  227.3697 H   0  0  0  0  0  0  0  0  0  0  0  0
  138.4769   67.6618  225.2179 H   0  0  0  0  0  0  0  0  0  0  0  0
  1  2  2  0
  2  3  1  0
  3  4  1  0
  4  5  1  0
  5  6  2  0
  5  7  1  0
  7  8  1  0
  8  9  1  0
  9 10  1  0
 10 11  1  0
 11 12  1  0
 12 13  2  0
 13 14  1  0
 14 15  2  0
 15 16  1  0
 15 17  1  0
 17 18  2  0
  2 19  1  0
 19 20  2  0
 20 21  1  0
 21 22  2  0
 22 23  1  0
 23 24  2  0
 24 25  1  0
 24 26  1  0
 26 27  2  0
 27 28  1  0
 28 29  2  0
 11  7  1  0
 18 12  1  0
 29 19  1  0
 28 22  1  0
  3 30  1  0
  4 31  1  0
  4 32  1  0
  8 33  1  0
  8 34  1  0
  9 35  1  0
  9 36  1  0
 10 37  1  0
 10 38  1  0
 11 39  1  1
 13 40  1  0
 14 41  1  0
 17 42  1  0
 18 43  1  0
 20 44  1  0
 21 45  1  0
 23 46  1  0
 26 47  1  0
 27 48  1  0
M  END
>  <smiles>  (32) 
O=C(NCC(=O)N1CCC[C@H]1c1ccc(Cl)cc1)c1ccc2cc(Cl)ccc2n1

>  <score_type>  (32) 
oracle

>  <origin>  (32) 
autodockgpu

>  <m_score__min__energy>  (32) 
-8.7400000000000002

>  <m_primary>  (32) 
energy

>  <rmsd>  (32) 
2.9049939403579415

>  <m_score__min__rmsd>  (32) 
2.9049939403579415

>  <meeko>  (32) 
{"free_energy": -7.88, "intermolecular_energy": -9.37, "internal_energy": -1.56, "cluster_size": 29, "cluster_id": 1, "rank_in_cluster": 25}

>  <energy>  (32) 
-8.5

>  <cluster_rmsd>  (32) 
0.31

>  <cluster>  (32) 
2

$$$$

     RDKit          3D

 48 51  0  0  0  0  0  0  0  0999 V2000
  138.8600   71.5840  221.1490 O   0  0  0  0  0  0  0  0  0  0  0  0
  139.1620   72.0650  222.2810 C   0  0  0  0  0  0  0  0  0  0  0  0
  139.1930   73.4910  222.3610 N   0  0  0  0  0  0  0  0  0  0  0  0
  138.8830   74.2260  221.1650 C   0  0  0  0  0  0  0  0  0  0  0  0
  138.5250   75.6260  221.4190 C   0  0  0  0  0  0  0  0  0  0  0  0
  137.5170   76.0090  222.0650 O   0  0  0  0  0  0  0  0  0  0  0  0
  139.3760   76.6400  220.8990 N   0  0  0  0  0  0  0  0  0  0  0  0
  139.0100   77.8000  220.0900 C   0  0  0  0  0  0  0  0  0  0  0  0
  140.2060   77.9930  219.1660 C   0  0  0  0  0  0  0  0  0  0  0  0
  141.2180   76.9400  219.5910 C   0  0  0  0  0  0  0  0  0  0  0  0
  140.8310   76.7650  221.0550 C   0  0  1  0  0  0  0  0  0  0  0  0
  141.1520   77.9360  221.8850 C   0  0  0  0  0  0  0  0  0  0  0  0
  140.5400   78.2640  223.0610 C   0  0  0  0  0  0  0  0  0  0  0  0
  140.8850   79.3790  223.7970 C   0  0  0  0  0  0  0  0  0  0  0  0
  141.8990   80.2060  223.3220 C   0  0  0  0  0  0  0  0  0  0  0  0
  142.3400   81.6260  224.2580 Cl  0  0  0  0  0  0  0  0  0  0  0  0
  142.5420   79.8990  222.1260 C   0  0  0  0  0  0  0  0  0  0  0  0
  142.1630   78.7770  221.4300 C   0  0  0  0  0  0  0  0  0  0  0  0
  139.4600   71.2220  223.4330 C   0  0  0  0  0  0  0  0  0  0  0  0
  139.1910   69.8740  223.3240 C   0  0  0  0  0  0  0  0  0  0  0  0
  139.4380   68.9980  224.3600 C   0  0  0  0  0  0  0  0  0  0  0  0
  139.9780   69.5320  225.5350 C   0  0  0  0  0  0  0  0  0  0  0  0
  140.2390   68.7010  226.5870 C   0  0  0  0  0  0  0  0  0  0  0  0
  140.7680   69.2450  227.7340 C   0  0  0  0  0  0  0  0  0  0  0  0
  141.0910   68.1420  229.0680 Cl  0  0  0  0  0  0  0  0  0  0  0  0
  141.0470   70.6020  227.8640 C   0  0  0  0  0  0  0  0  0  0  0  0
  140.7740   71.4300  226.7860 C   0  0  0  0  0  0  0  0  0  0  0  0
  140.2430   70.8830  225.6360 C   0  0  0  0  0  0  0  0  0  0  0  0
  139.9800   71.7050  224.5820 N   0  0  0  0  0  0  0  0  0  0  0  0
  139.4370   73.9200  223.2760 H   0  0  0  0  0  0  0  0  0  0  0  0
  139.7626   74.2051  220.5048 H   0  0  0  0  0  0  0  0  0  0  0  0
  138.0072   73.7446  220.7053 H   0  0  0  0  0  0  0  0  0  0  0  0
  138.0961   77.6010  219.5111 H   0  0  0  0  0  0  0  0  0  0  0  0
  138.7950   78.6911  220.6981 H   0  0  0  0  0  0  0  0  0  0  0  0
  139.9106   77.8419  218.1172 H   0  0  0  0  0  0  0  0  0  0  0  0
  140.6188   79.0100  219.2378 H   0  0  0  0  0  0  0  0  0  0  0  0
  141.0959   76.0057  219.0233 H   0  0  0  0  0  0  0  0  0  0  0  0
  142.2691   77.2174  219.4227 H   0  0  0  0  0  0  0  0  0  0  0  0
  141.3510   75.9368  221.5587 H   0  0  0  0  0  0  0  0  0  0  0  0
  139.7382   77.6118  223.4374 H   0  0  0  0  0  0  0  0  0  0  0  0
  140.3689   79.6098  224.7406 H   0  0  0  0  0  0  0  0  0  0  0  0
  143.3440   80.5471  221.7429 H   0  0  0  0  0  0  0  0  0  0  0  0
  142.6734   78.5364  220.4857 H   0  0  0  0  0  0  0  0  0  0  0  0
  138.7679   69.4869  222.3853 H   0  0  0  0  0  0  0  0  0  0  0  0
  139.2195   67.9240  224.2664 H   0  0  0  0  0  0  0  0  0  0  0  0
  140.0312   67.6230  226.5185 H   0  0  0  0  0  0  0  0  0  0  0  0
  141.4717   71.0060  228.7948 H   0  0  0  0  0  0  0  0  0  0  0  0
  140.9781   72.5092  226.8468 H   0  0  0  0  0  0  0  0  0  0  0  0
  1  2  2  0
  2  3  1  0
  3  4  1  0
  4  5  1  0
  5  6  2  0
  5  7  1  0
  7  8  1  0
  8  9  1  0
  9 10  1  0
 10 11  1  0
 11 12  1  0
 12 13  2  0
 13 14  1  0
 14 15  2  0
 15 16  1  0
 15 17  1  0
 17 18  2  0
  2 19  1  0
 19 20  2  0
 20 21  1  0
 21 22  2  0
 22 23  1  0
 23 24  2  0
 24 25  1  0
 24 26  1  0
 26 27  2  0
 27 28  1  0
 28 29  2  0
 11  7  1  0
 18 12  1  0
 29 19  1  0
 28 22  1  0
  3 30  1  0
  4 31  1  0
  4 32  1  0
  8 33  1  0
  8 34  1  0
  9 35  1  0
  9 36  1  0
 10 37  1  0
 10 38  1  0
 11 39  1  1
 13 40  1  0
 14 41  1  0
 17 42  1  0
 18 43  1  0
 20 44  1  0
 21 45  1  0
 23 46  1  0
 26 47  1  0
 27 48  1  0
M  END
>  <smiles>  (33) 
O=C(NCC(=O)N1CCC[C@H]1c1ccc(Cl)cc1)c1ccc2cc(Cl)ccc2n1

>  <score_type>  (33) 
oracle

>  <origin>  (33) 
autodockgpu

>  <m_score__min__energy>  (33) 
-8.7400000000000002

>  <m_primary>  (33) 
energy

>  <rmsd>  (33) 
1.642025326755367

>  <m_score__min__rmsd>  (33) 
1.642025326755367

>  <meeko>  (33) 
{"free_energy": -8.48, "intermolecular_energy": -9.97, "internal_energy": -1.32, "cluster_size": 29, "cluster_id": 1, "rank_in_cluster": 8}

>  <energy>  (33) 
-8.48

>  <cluster_rmsd>  (33) 
0.16

>  <cluster>  (33) 
2

$$$$

     RDKit          3D

 48 51  0  0  0  0  0  0  0  0999 V2000
  139.9540   71.8930  220.6500 O   0  0  0  0  0  0  0  0  0  0  0  0
  139.4910   72.2230  221.7820 C   0  0  0  0  0  0  0  0  0  0  0  0
  138.7790   73.4610  221.8240 N   0  0  0  0  0  0  0  0  0  0  0  0
  138.6630   74.1980  220.5940 C   0  0  0  0  0  0  0  0  0  0  0  0
  139.4340   75.4470  220.5900 C   0  0  0  0  0  0  0  0  0  0  0  0
  140.4970   75.6380  219.9490 O   0  0  0  0  0  0  0  0  0  0  0  0
  138.9510   76.5350  221.3680 N   0  0  0  0  0  0  0  0  0  0  0  0
  138.4140   76.5070  222.7260 C   0  0  0  0  0  0  0  0  0  0  0  0
  137.3460   77.5940  222.7200 C   0  0  0  0  0  0  0  0  0  0  0  0
  137.4180   78.2230  221.3360 C   0  0  0  0  0  0  0  0  0  0  0  0
  138.8780   77.9530  220.9900 C   0  0  1  0  0  0  0  0  0  0  0  0
  139.8220   78.7400  221.7990 C   0  0  0  0  0  0  0  0  0  0  0  0
  139.5000   79.8400  222.5440 C   0  0  0  0  0  0  0  0  0  0  0  0
  140.4310   80.5390  223.2840 C   0  0  0  0  0  0  0  0  0  0  0  0
  141.7550   80.1080  223.2720 C   0  0  0  0  0  0  0  0  0  0  0  0
  142.9420   80.9980  224.2130 Cl  0  0  0  0  0  0  0  0  0  0  0  0
  142.1140   78.9920  222.5220 C   0  0  0  0  0  0  0  0  0  0  0  0
  141.1500   78.3280  221.8020 C   0  0  0  0  0  0  0  0  0  0  0  0
  139.6680   71.3960  222.9690 C   0  0  0  0  0  0  0  0  0  0  0  0
  139.2520   70.0830  222.8990 C   0  0  0  0  0  0  0  0  0  0  0  0
  139.3790   69.2240  223.9710 C   0  0  0  0  0  0  0  0  0  0  0  0
  139.9500   69.7380  225.1400 C   0  0  0  0  0  0  0  0  0  0  0  0
  140.0940   68.9230  226.2260 C   0  0  0  0  0  0  0  0  0  0  0  0
  140.6570   69.4460  227.3660 C   0  0  0  0  0  0  0  0  0  0  0  0
  140.8270   68.3650  228.7450 Cl  0  0  0  0  0  0  0  0  0  0  0  0
  141.0830   70.7680  227.4570 C   0  0  0  0  0  0  0  0  0  0  0  0
  140.9280   71.5810  226.3440 C   0  0  0  0  0  0  0  0  0  0  0  0
  140.3620   71.0530  225.2010 C   0  0  0  0  0  0  0  0  0  0  0  0
  140.2150   71.8600  224.1130 N   0  0  0  0  0  0  0  0  0  0  0  0
  138.3850   73.7630  222.7370 H   0  0  0  0  0  0  0  0  0  0  0  0
  139.0231   73.5629  219.7712 H   0  0  0  0  0  0  0  0  0  0  0  0
  137.6035   74.4690  220.4756 H   0  0  0  0  0  0  0  0  0  0  0  0
  137.9721   75.5253  222.9520 H   0  0  0  0  0  0  0  0  0  0  0  0
  139.1862   76.6751  223.4912 H   0  0  0  0  0  0  0  0  0  0  0  0
  136.3513   77.1573  222.8931 H   0  0  0  0  0  0  0  0  0  0  0  0
  137.5120   78.3353  223.5156 H   0  0  0  0  0  0  0  0  0  0  0  0
  136.7343   77.7304  220.6290 H   0  0  0  0  0  0  0  0  0  0  0  0
  137.1234   79.2820  221.2956 H   0  0  0  0  0  0  0  0  0  0  0  0
  139.1451   78.2067  219.9535 H   0  0  0  0  0  0  0  0  0  0  0  0
  138.4546   80.1821  222.5538 H   0  0  0  0  0  0  0  0  0  0  0  0
  140.1333   81.4197  223.8720 H   0  0  0  0  0  0  0  0  0  0  0  0
  143.1578   78.6452  222.5057 H   0  0  0  0  0  0  0  0  0  0  0  0
  141.4371   77.4456  221.2113 H   0  0  0  0  0  0  0  0  0  0  0  0
  138.8074   69.7110  221.9642 H   0  0  0  0  0  0  0  0  0  0  0  0
  139.0450   68.1778  223.9090 H   0  0  0  0  0  0  0  0  0  0  0  0
  139.7674   67.8732  226.1896 H   0  0  0  0  0  0  0  0  0  0  0  0
  141.5294   71.1565  228.3842 H   0  0  0  0  0  0  0  0  0  0  0  0
  141.2516   72.6320  226.3717 H   0  0  0  0  0  0  0  0  0  0  0  0
  1  2  2  0
  2  3  1  0
  3  4  1  0
  4  5  1  0
  5  6  2  0
  5  7  1  0
  7  8  1  0
  8  9  1  0
  9 10  1  0
 10 11  1  0
 11 12  1  0
 12 13  2  0
 13 14  1  0
 14 15  2  0
 15 16  1  0
 15 17  1  0
 17 18  2  0
  2 19  1  0
 19 20  2  0
 20 21  1  0
 21 22  2  0
 22 23  1  0
 23 24  2  0
 24 25  1  0
 24 26  1  0
 26 27  2  0
 27 28  1  0
 28 29  2  0
 11  7  1  0
 18 12  1  0
 29 19  1  0
 28 22  1  0
  3 30  1  0
  4 31  1  0
  4 32  1  0
  8 33  1  0
  8 34  1  0
  9 35  1  0
  9 36  1  0
 10 37  1  0
 10 38  1  0
 11 39  1  6
 13 40  1  0
 14 41  1  0
 17 42  1  0
 18 43  1  0
 20 44  1  0
 21 45  1  0
 23 46  1  0
 26 47  1  0
 27 48  1  0
M  END
>  <smiles>  (34) 
O=C(NCC(=O)N1CCC[C@H]1c1ccc(Cl)cc1)c1ccc2cc(Cl)ccc2n1

>  <score_type>  (34) 
oracle

>  <origin>  (34) 
autodockgpu

>  <m_score__min__energy>  (34) 
-8.7400000000000002

>  <m_primary>  (34) 
energy

>  <rmsd>  (34) 
2.790119072603777

>  <m_score__min__rmsd>  (34) 
2.790119072603777

>  <meeko>  (34) 
{"free_energy": -8.34, "intermolecular_energy": -9.83, "internal_energy": -1.26, "cluster_size": 29, "cluster_id": 1, "rank_in_cluster": 11}

>  <energy>  (34) 
-8.4

>  <cluster_rmsd>  (34) 
0.3

>  <cluster>  (34) 
2

$$$$

     RDKit          3D

 48 51  0  0  0  0  0  0  0  0999 V2000
  139.9710   72.3370  221.2860 O   0  0  0  0  0  0  0  0  0  0  0  0
  139.2580   72.3270  222.3330 C   0  0  0  0  0  0  0  0  0  0  0  0
  138.1580   73.2380  222.3420 N   0  0  0  0  0  0  0  0  0  0  0  0
  137.9740   74.0640  221.1790 C   0  0  0  0  0  0  0  0  0  0  0  0
  138.0100   75.5010  221.4740 C   0  0  0  0  0  0  0  0  0  0  0  0
  137.2160   76.1010  222.2410 O   0  0  0  0  0  0  0  0  0  0  0  0
  139.0170   76.2890  220.8510 N   0  0  0  0  0  0  0  0  0  0  0  0
  138.8590   77.2890  219.7990 C   0  0  0  0  0  0  0  0  0  0  0  0
  140.1340   77.1580  218.9740 C   0  0  0  0  0  0  0  0  0  0  0  0
  140.9730   76.1120  219.6930 C   0  0  0  0  0  0  0  0  0  0  0  0
  140.4610   76.2840  221.1190 C   0  0  1  0  0  0  0  0  0  0  0  0
  140.8650   77.5600  221.7300 C   0  0  0  0  0  0  0  0  0  0  0  0
  141.8720   78.3680  221.2830 C   0  0  0  0  0  0  0  0  0  0  0  0
  142.2060   79.5560  221.9000 C   0  0  0  0  0  0  0  0  0  0  0  0
  141.4880   79.9490  223.0260 C   0  0  0  0  0  0  0  0  0  0  0  0
  141.9130   81.4620  223.8140 Cl  0  0  0  0  0  0  0  0  0  0  0  0
  140.4580   79.1470  223.5070 C   0  0  0  0  0  0  0  0  0  0  0  0
  140.1620   77.9730  222.8570 C   0  0  0  0  0  0  0  0  0  0  0  0
  139.5350   71.4430  223.4590 C   0  0  0  0  0  0  0  0  0  0  0  0
  139.2710   70.1000  223.2950 C   0  0  0  0  0  0  0  0  0  0  0  0
  139.5010   69.1870  224.3040 C   0  0  0  0  0  0  0  0  0  0  0  0
  140.0180   69.6790  225.5070 C   0  0  0  0  0  0  0  0  0  0  0  0
  140.2620   68.8110  226.5330 C   0  0  0  0  0  0  0  0  0  0  0  0
  140.7690   69.3130  227.7070 C   0  0  0  0  0  0  0  0  0  0  0  0
  141.0710   68.1630  229.0070 Cl  0  0  0  0  0  0  0  0  0  0  0  0
  141.0440   70.6650  227.8920 C   0  0  0  0  0  0  0  0  0  0  0  0
  140.7890   71.5310  226.8390 C   0  0  0  0  0  0  0  0  0  0  0  0
  140.2790   71.0250  225.6610 C   0  0  0  0  0  0  0  0  0  0  0  0
  140.0340   71.8850  224.6330 N   0  0  0  0  0  0  0  0  0  0  0  0
  137.5510   73.2560  223.1860 H   0  0  0  0  0  0  0  0  0  0  0  0
  138.7736   73.8356  220.4589 H   0  0  0  0  0  0  0  0  0  0  0  0
  136.9754   73.8399  220.7759 H   0  0  0  0  0  0  0  0  0  0  0  0
  137.9718   77.0743  219.1851 H   0  0  0  0  0  0  0  0  0  0  0  0
  138.7138   78.3041  220.1971 H   0  0  0  0  0  0  0  0  0  0  0  0
  139.8989   76.8269  217.9517 H   0  0  0  0  0  0  0  0  0  0  0  0
  140.6643   78.1176  218.8842 H   0  0  0  0  0  0  0  0  0  0  0  0
  140.7772   75.0997  219.3097 H   0  0  0  0  0  0  0  0  0  0  0  0
  142.0599   76.2345  219.5765 H   0  0  0  0  0  0  0  0  0  0  0  0
  140.8343   75.5251  221.8223 H   0  0  0  0  0  0  0  0  0  0  0  0
  142.4405   78.0583  220.3937 H   0  0  0  0  0  0  0  0  0  0  0  0
  143.0234   80.1802  221.5099 H   0  0  0  0  0  0  0  0  0  0  0  0
  139.8871   79.4492  224.3974 H   0  0  0  0  0  0  0  0  0  0  0  0
  139.3459   77.3419  223.2388 H   0  0  0  0  0  0  0  0  0  0  0  0
  138.8665   69.7469  222.3350 H   0  0  0  0  0  0  0  0  0  0  0  0
  139.2867   68.1167  224.1678 H   0  0  0  0  0  0  0  0  0  0  0  0
  140.0575   67.7359  226.4219 H   0  0  0  0  0  0  0  0  0  0  0  0
  141.4512   71.0353  228.8444 H   0  0  0  0  0  0  0  0  0  0  0  0
  140.9908   72.6074  226.9417 H   0  0  0  0  0  0  0  0  0  0  0  0
  1  2  2  0
  2  3  1  0
  3  4  1  0
  4  5  1  0
  5  6  2  0
  5  7  1  0
  7  8  1  0
  8  9  1  0
  9 10  1  0
 10 11  1  0
 11 12  1  0
 12 13  2  0
 13 14  1  0
 14 15  2  0
 15 16  1  0
 15 17  1  0
 17 18  2  0
  2 19  1  0
 19 20  2  0
 20 21  1  0
 21 22  2  0
 22 23  1  0
 23 24  2  0
 24 25  1  0
 24 26  1  0
 26 27  2  0
 27 28  1  0
 28 29  2  0
 11  7  1  0
 18 12  1  0
 29 19  1  0
 28 22  1  0
  3 30  1  0
  4 31  1  0
  4 32  1  0
  8 33  1  0
  8 34  1  0
  9 35  1  0
  9 36  1  0
 10 37  1  0
 10 38  1  0
 11 39  1  1
 13 40  1  0
 14 41  1  0
 17 42  1  0
 18 43  1  0
 20 44  1  0
 21 45  1  0
 23 46  1  0
 26 47  1  0
 27 48  1  0
M  END
>  <smiles>  (35) 
O=C(NCC(=O)N1CCC[C@H]1c1ccc(Cl)cc1)c1ccc2cc(Cl)ccc2n1

>  <score_type>  (35) 
oracle

>  <origin>  (35) 
autodockgpu

>  <m_score__min__energy>  (35) 
-8.7400000000000002

>  <m_primary>  (35) 
energy

>  <rmsd>  (35) 
1.5981951444812244

>  <m_score__min__rmsd>  (35) 
1.5981951444812244

>  <meeko>  (35) 
{"free_energy": -8.33, "intermolecular_energy": -9.83, "internal_energy": -1.35, "cluster_size": 29, "cluster_id": 1, "rank_in_cluster": 12}

>  <energy>  (35) 
-8.37

>  <cluster_rmsd>  (35) 
0.31

>  <cluster>  (35) 
2

$$$$

     RDKit          3D

 48 51  0  0  0  0  0  0  0  0999 V2000
  139.3610   71.8230  220.6770 O   0  0  0  0  0  0  0  0  0  0  0  0
  139.1190   72.2150  221.8560 C   0  0  0  0  0  0  0  0  0  0  0  0
  138.5410   73.5160  221.9720 N   0  0  0  0  0  0  0  0  0  0  0  0
  138.2980   74.2400  220.7530 C   0  0  0  0  0  0  0  0  0  0  0  0
  138.3880   75.6960  220.9140 C   0  0  0  0  0  0  0  0  0  0  0  0
  137.4150   76.4900  220.8640 O   0  0  0  0  0  0  0  0  0  0  0  0
  139.6690   76.2670  221.1460 N   0  0  0  0  0  0  0  0  0  0  0  0
  140.2920   76.6000  222.4240 C   0  0  0  0  0  0  0  0  0  0  0  0
  141.1140   77.8460  222.1170 C   0  0  0  0  0  0  0  0  0  0  0  0
  140.9450   78.0830  220.6230 C   0  0  0  0  0  0  0  0  0  0  0  0
  140.6760   76.6590  220.1500 C   0  0  1  0  0  0  0  0  0  0  0  0
  141.8530   75.7820  220.2490 C   0  0  0  0  0  0  0  0  0  0  0  0
  143.1390   76.1500  219.9740 C   0  0  0  0  0  0  0  0  0  0  0  0
  144.2050   75.2800  220.0860 C   0  0  0  0  0  0  0  0  0  0  0  0
  143.9600   73.9720  220.4960 C   0  0  0  0  0  0  0  0  0  0  0  0
  145.3160   72.8630  220.6380 Cl  0  0  0  0  0  0  0  0  0  0  0  0
  142.6600   73.5670  220.7830 C   0  0  0  0  0  0  0  0  0  0  0  0
  141.6320   74.4700  220.6570 C   0  0  0  0  0  0  0  0  0  0  0  0
  139.4070   71.3940  223.0260 C   0  0  0  0  0  0  0  0  0  0  0  0
  139.0590   70.0600  222.9710 C   0  0  0  0  0  0  0  0  0  0  0  0
  139.2920   69.2050  224.0280 C   0  0  0  0  0  0  0  0  0  0  0  0
  139.9000   69.7450  225.1670 C   0  0  0  0  0  0  0  0  0  0  0  0
  140.1500   68.9350  226.2370 C   0  0  0  0  0  0  0  0  0  0  0  0
  140.7480   69.4840  227.3470 C   0  0  0  0  0  0  0  0  0  0  0  0
  141.0550   68.4080  228.7070 Cl  0  0  0  0  0  0  0  0  0  0  0  0
  141.1080   70.8260  227.4220 C   0  0  0  0  0  0  0  0  0  0  0  0
  140.8460   71.6330  226.3250 C   0  0  0  0  0  0  0  0  0  0  0  0
  140.2450   71.0800  225.2130 C   0  0  0  0  0  0  0  0  0  0  0  0
  139.9930   71.8820  224.1410 N   0  0  0  0  0  0  0  0  0  0  0  0
  138.3290   73.8690  222.9260 H   0  0  0  0  0  0  0  0  0  0  0  0
  139.0413   73.9249  220.0058 H   0  0  0  0  0  0  0  0  0  0  0  0
  137.2695   74.0104  220.4375 H   0  0  0  0  0  0  0  0  0  0  0  0
  139.5293   76.8125  223.1876 H   0  0  0  0  0  0  0  0  0  0  0  0
  140.9020   75.7775  222.8258 H   0  0  0  0  0  0  0  0  0  0  0  0
  140.7364   78.7067  222.6885 H   0  0  0  0  0  0  0  0  0  0  0  0
  142.1708   77.7178  222.3941 H   0  0  0  0  0  0  0  0  0  0  0  0
  140.0964   78.7497  220.4101 H   0  0  0  0  0  0  0  0  0  0  0  0
  141.7988   78.5765  220.1356 H   0  0  0  0  0  0  0  0  0  0  0  0
  140.3839   76.5876  219.0919 H   0  0  0  0  0  0  0  0  0  0  0  0
  143.3337   77.1829  219.6497 H   0  0  0  0  0  0  0  0  0  0  0  0
  145.2277   75.6134  219.8559 H   0  0  0  0  0  0  0  0  0  0  0  0
  142.4576   72.5355  221.1071 H   0  0  0  0  0  0  0  0  0  0  0  0
  140.6056   74.1468  220.8850 H   0  0  0  0  0  0  0  0  0  0  0  0
  138.5831   69.6679  222.0600 H   0  0  0  0  0  0  0  0  0  0  0  0
  139.0115   68.1426  223.9778 H   0  0  0  0  0  0  0  0  0  0  0  0
  139.8797   67.8690  226.2119 H   0  0  0  0  0  0  0  0  0  0  0  0
  141.5861   71.2346  228.3245 H   0  0  0  0  0  0  0  0  0  0  0  0
  141.1138   72.6998  226.3412 H   0  0  0  0  0  0  0  0  0  0  0  0
  1  2  2  0
  2  3  1  0
  3  4  1  0
  4  5  1  0
  5  6  2  0
  5  7  1  0
  7  8  1  0
  8  9  1  0
  9 10  1  0
 10 11  1  0
 11 12  1  0
 12 13  2  0
 13 14  1  0
 14 15  2  0
 15 16  1  0
 15 17  1  0
 17 18  2  0
  2 19  1  0
 19 20  2  0
 20 21  1  0
 21 22  2  0
 22 23  1  0
 23 24  2  0
 24 25  1  0
 24 26  1  0
 26 27  2  0
 27 28  1  0
 28 29  2  0
 11  7  1  0
 18 12  1  0
 29 19  1  0
 28 22  1  0
  3 30  1  0
  4 31  1  0
  4 32  1  0
  8 33  1  0
  8 34  1  0
  9 35  1  0
  9 36  1  0
 10 37  1  0
 10 38  1  0
 11 39  1  6
 13 40  1  0
 14 41  1  0
 17 42  1  0
 18 43  1  0
 20 44  1  0
 21 45  1  0
 23 46  1  0
 26 47  1  0
 27 48  1  0
M  END
>  <smiles>  (36) 
O=C(NCC(=O)N1CCC[C@H]1c1ccc(Cl)cc1)c1ccc2cc(Cl)ccc2n1

>  <score_type>  (36) 
oracle

>  <origin>  (36) 
autodockgpu

>  <m_score__min__energy>  (36) 
-8.7400000000000002

>  <m_primary>  (36) 
energy

>  <rmsd>  (36) 
2.350952341395455

>  <m_score__min__rmsd>  (36) 
2.350952341395455

>  <meeko>  (36) 
{"free_energy": -8.31, "intermolecular_energy": -9.8, "internal_energy": -1.67, "cluster_size": 15, "cluster_id": 2, "rank_in_cluster": 9}

>  <energy>  (36) 
-8.36

>  <cluster_rmsd>  (36) 
0.48

>  <cluster>  (36) 
2

$$$$

     RDKit          3D

 48 51  0  0  0  0  0  0  0  0999 V2000
  139.9960   73.3680  220.3410 O   0  0  0  0  0  0  0  0  0  0  0  0
  139.7960   73.5120  221.5840 C   0  0  0  0  0  0  0  0  0  0  0  0
  139.6070   74.8560  222.0300 N   0  0  0  0  0  0  0  0  0  0  0  0
  139.6620   75.8950  221.0360 C   0  0  0  0  0  0  0  0  0  0  0  0
  140.9600   76.5780  220.9800 C   0  0  0  0  0  0  0  0  0  0  0  0
  142.0250   76.0710  220.5450 O   0  0  0  0  0  0  0  0  0  0  0  0
  141.0340   77.9170  221.4530 N   0  0  0  0  0  0  0  0  0  0  0  0
  141.0540   79.1510  220.6720 C   0  0  0  0  0  0  0  0  0  0  0  0
  141.9510   80.0810  221.4800 C   0  0  0  0  0  0  0  0  0  0  0  0
  142.3190   79.3000  222.7320 C   0  0  0  0  0  0  0  0  0  0  0  0
  141.1080   78.3800  222.8450 C   0  0  1  0  0  0  0  0  0  0  0  0
  139.8710   79.0890  223.2080 C   0  0  0  0  0  0  0  0  0  0  0  0
  139.8100   80.2930  223.8510 C   0  0  0  0  0  0  0  0  0  0  0  0
  138.6170   80.9110  224.1650 C   0  0  0  0  0  0  0  0  0  0  0  0
  137.4250   80.2830  223.8130 C   0  0  0  0  0  0  0  0  0  0  0  0
  135.9050   81.0690  224.2130 Cl  0  0  0  0  0  0  0  0  0  0  0  0
  137.4550   79.0560  223.1580 C   0  0  0  0  0  0  0  0  0  0  0  0
  138.6690   78.4800  222.8660 C   0  0  0  0  0  0  0  0  0  0  0  0
  139.7600   72.3830  222.5050 C   0  0  0  0  0  0  0  0  0  0  0  0
  139.0540   71.2640  222.1150 C   0  0  0  0  0  0  0  0  0  0  0  0
  138.9620   70.1470  222.9190 C   0  0  0  0  0  0  0  0  0  0  0  0
  139.6190   70.1910  224.1540 C   0  0  0  0  0  0  0  0  0  0  0  0
  139.5550   69.1070  224.9820 C   0  0  0  0  0  0  0  0  0  0  0  0
  140.2060   69.1700  226.1920 C   0  0  0  0  0  0  0  0  0  0  0  0
  140.1010   67.7530  227.2320 Cl  0  0  0  0  0  0  0  0  0  0  0  0
  140.9240   70.2880  226.6030 C   0  0  0  0  0  0  0  0  0  0  0  0
  140.9770   71.3790  225.7490 C   0  0  0  0  0  0  0  0  0  0  0  0
  140.3220   71.3150  224.5360 C   0  0  0  0  0  0  0  0  0  0  0  0
  140.3820   72.3920  223.7040 N   0  0  0  0  0  0  0  0  0  0  0  0
  139.4410   75.0120  223.0440 H   0  0  0  0  0  0  0  0  0  0  0  0
  139.4605   75.4472  220.0517 H   0  0  0  0  0  0  0  0  0  0  0  0
  138.9094   76.6486  221.3110 H   0  0  0  0  0  0  0  0  0  0  0  0
  141.4742   78.9739  219.6710 H   0  0  0  0  0  0  0  0  0  0  0  0
  140.0486   79.5666  220.5092 H   0  0  0  0  0  0  0  0  0  0  0  0
  142.8543   80.3380  220.9073 H   0  0  0  0  0  0  0  0  0  0  0  0
  141.4462   81.0279  221.7221 H   0  0  0  0  0  0  0  0  0  0  0  0
  143.2510   78.7314  222.5977 H   0  0  0  0  0  0  0  0  0  0  0  0
  142.5116   79.9189  223.6207 H   0  0  0  0  0  0  0  0  0  0  0  0
  141.2054   77.6078  223.6223 H   0  0  0  0  0  0  0  0  0  0  0  0
  140.7508   80.7901  224.1298 H   0  0  0  0  0  0  0  0  0  0  0  0
  138.6077   81.8811  224.6834 H   0  0  0  0  0  0  0  0  0  0  0  0
  136.5183   78.5524  222.8769 H   0  0  0  0  0  0  0  0  0  0  0  0
  138.6896   77.5102  222.3473 H   0  0  0  0  0  0  0  0  0  0  0  0
  138.5510   71.2624  221.1368 H   0  0  0  0  0  0  0  0  0  0  0  0
  138.3958   69.2586  222.6027 H   0  0  0  0  0  0  0  0  0  0  0  0
  138.9967   68.2058  224.6886 H   0  0  0  0  0  0  0  0  0  0  0  0
  141.4348   70.3061  227.5770 H   0  0  0  0  0  0  0  0  0  0  0  0
  141.5338   72.2837  226.0346 H   0  0  0  0  0  0  0  0  0  0  0  0
  1  2  2  0
  2  3  1  0
  3  4  1  0
  4  5  1  0
  5  6  2  0
  5  7  1  0
  7  8  1  0
  8  9  1  0
  9 10  1  0
 10 11  1  0
 11 12  1  0
 12 13  2  0
 13 14  1  0
 14 15  2  0
 15 16  1  0
 15 17  1  0
 17 18  2  0
  2 19  1  0
 19 20  2  0
 20 21  1  0
 21 22  2  0
 22 23  1  0
 23 24  2  0
 24 25  1  0
 24 26  1  0
 26 27  2  0
 27 28  1  0
 28 29  2  0
 11  7  1  0
 18 12  1  0
 29 19  1  0
 28 22  1  0
  3 30  1  0
  4 31  1  0
  4 32  1  0
  8 33  1  0
  8 34  1  0
  9 35  1  0
  9 36  1  0
 10 37  1  0
 10 38  1  0
 11 39  1  1
 13 40  1  0
 14 41  1  0
 17 42  1  0
 18 43  1  0
 20 44  1  0
 21 45  1  0
 23 46  1  0
 26 47  1  0
 27 48  1  0
M  END
>  <smiles>  (37) 
O=C(NCC(=O)N1CCC[C@H]1c1ccc(Cl)cc1)c1ccc2cc(Cl)ccc2n1

>  <score_type>  (37) 
oracle

>  <origin>  (37) 
autodockgpu

>  <m_score__min__energy>  (37) 
-8.7400000000000002

>  <m_primary>  (37) 
energy

>  <rmsd>  (37) 
3.3667196726145994

>  <m_score__min__rmsd>  (37) 
3.3667196726145994

>  <meeko>  (37) 
{"free_energy": -8.12, "intermolecular_energy": -9.62, "internal_energy": -1.31, "cluster_size": 4, "cluster_id": 3, "rank_in_cluster": 4}

>  <energy>  (37) 
-8.36

>  <cluster_rmsd>  (37) 
0.35

>  <cluster>  (37) 
2

$$$$

     RDKit          3D

 48 51  0  0  0  0  0  0  0  0999 V2000
  139.6210   71.9960  220.7300 O   0  0  0  0  0  0  0  0  0  0  0  0
  139.1580   72.2620  221.8790 C   0  0  0  0  0  0  0  0  0  0  0  0
  138.3540   73.4390  221.9670 N   0  0  0  0  0  0  0  0  0  0  0  0
  138.1550   74.1940  220.7590 C   0  0  0  0  0  0  0  0  0  0  0  0
  138.2870   75.6430  220.9510 C   0  0  0  0  0  0  0  0  0  0  0  0
  137.3360   76.4650  220.9220 O   0  0  0  0  0  0  0  0  0  0  0  0
  139.5850   76.1730  221.1880 N   0  0  0  0  0  0  0  0  0  0  0  0
  140.2110   76.4880  222.4690 C   0  0  0  0  0  0  0  0  0  0  0  0
  141.0750   77.7060  222.1640 C   0  0  0  0  0  0  0  0  0  0  0  0
  140.9230   77.9440  220.6690 C   0  0  0  0  0  0  0  0  0  0  0  0
  140.6100   76.5280  220.1970 C   0  0  1  0  0  0  0  0  0  0  0  0
  141.7560   75.6130  220.3060 C   0  0  0  0  0  0  0  0  0  0  0  0
  141.7020   74.3280  220.7660 C   0  0  0  0  0  0  0  0  0  0  0  0
  142.8140   73.5160  220.8450 C   0  0  0  0  0  0  0  0  0  0  0  0
  144.0450   74.0260  220.4410 C   0  0  0  0  0  0  0  0  0  0  0  0
  145.4630   72.9930  220.5420 Cl  0  0  0  0  0  0  0  0  0  0  0  0
  144.1330   75.3320  219.9680 C   0  0  0  0  0  0  0  0  0  0  0  0
  142.9960   76.1020  219.9080 C   0  0  0  0  0  0  0  0  0  0  0  0
  139.4240   71.4220  223.0410 C   0  0  0  0  0  0  0  0  0  0  0  0
  139.0460   70.0980  222.9710 C   0  0  0  0  0  0  0  0  0  0  0  0
  139.2560   69.2270  224.0190 C   0  0  0  0  0  0  0  0  0  0  0  0
  139.8740   69.7400  225.1650 C   0  0  0  0  0  0  0  0  0  0  0  0
  140.1020   68.9130  226.2270 C   0  0  0  0  0  0  0  0  0  0  0  0
  140.7090   69.4370  227.3440 C   0  0  0  0  0  0  0  0  0  0  0  0
  140.9870   68.3400  228.6930 Cl  0  0  0  0  0  0  0  0  0  0  0  0
  141.0990   70.7690  227.4340 C   0  0  0  0  0  0  0  0  0  0  0  0
  140.8590   71.5940  226.3450 C   0  0  0  0  0  0  0  0  0  0  0  0
  140.2480   71.0670  225.2260 C   0  0  0  0  0  0  0  0  0  0  0  0
  140.0180   71.8850  224.1610 N   0  0  0  0  0  0  0  0  0  0  0  0
  137.9570   73.6860  222.8950 H   0  0  0  0  0  0  0  0  0  0  0  0
  138.9013   73.8706  220.0184 H   0  0  0  0  0  0  0  0  0  0  0  0
  137.1257   74.0028  220.4214 H   0  0  0  0  0  0  0  0  0  0  0  0
  139.4513   76.7270  223.2278 H   0  0  0  0  0  0  0  0  0  0  0  0
  140.7914   75.6469  222.8762 H   0  0  0  0  0  0  0  0  0  0  0  0
  140.7220   78.5801  222.7309 H   0  0  0  0  0  0  0  0  0  0  0  0
  142.1253   77.5444  222.4481 H   0  0  0  0  0  0  0  0  0  0  0  0
  140.0981   78.6377  220.4493 H   0  0  0  0  0  0  0  0  0  0  0  0
  141.7958   78.4076  220.1859 H   0  0  0  0  0  0  0  0  0  0  0  0
  140.3226   76.4633  219.1372 H   0  0  0  0  0  0  0  0  0  0  0  0
  140.7306   73.9238  221.0870 H   0  0  0  0  0  0  0  0  0  0  0  0
  142.7300   72.4853  221.2200 H   0  0  0  0  0  0  0  0  0  0  0  0
  145.1011   75.7431  219.6460 H   0  0  0  0  0  0  0  0  0  0  0  0
  143.0687   77.1342  219.5347 H   0  0  0  0  0  0  0  0  0  0  0  0
  138.5640   69.7266  222.0546 H   0  0  0  0  0  0  0  0  0  0  0  0
  138.9503   68.1722  223.9569 H   0  0  0  0  0  0  0  0  0  0  0  0
  139.8075   67.8538  226.1901 H   0  0  0  0  0  0  0  0  0  0  0  0
  141.5836   71.1569  228.3422 H   0  0  0  0  0  0  0  0  0  0  0  0
  141.1518   72.6539  226.3733 H   0  0  0  0  0  0  0  0  0  0  0  0
  1  2  2  0
  2  3  1  0
  3  4  1  0
  4  5  1  0
  5  6  2  0
  5  7  1  0
  7  8  1  0
  8  9  1  0
  9 10  1  0
 10 11  1  0
 11 12  1  0
 12 13  2  0
 13 14  1  0
 14 15  2  0
 15 16  1  0
 15 17  1  0
 17 18  2  0
  2 19  1  0
 19 20  2  0
 20 21  1  0
 21 22  2  0
 22 23  1  0
 23 24  2  0
 24 25  1  0
 24 26  1  0
 26 27  2  0
 27 28  1  0
 28 29  2  0
 11  7  1  0
 18 12  1  0
 29 19  1  0
 28 22  1  0
  3 30  1  0
  4 31  1  0
  4 32  1  0
  8 33  1  0
  8 34  1  0
  9 35  1  0
  9 36  1  0
 10 37  1  0
 10 38  1  0
 11 39  1  6
 13 40  1  0
 14 41  1  0
 17 42  1  0
 18 43  1  0
 20 44  1  0
 21 45  1  0
 23 46  1  0
 26 47  1  0
 27 48  1  0
M  END
>  <smiles>  (38) 
O=C(NCC(=O)N1CCC[C@H]1c1ccc(Cl)cc1)c1ccc2cc(Cl)ccc2n1

>  <score_type>  (38) 
oracle

>  <origin>  (38) 
autodockgpu

>  <m_score__min__energy>  (38) 
-8.7400000000000002

>  <m_primary>  (38) 
energy

>  <rmsd>  (38) 
2.352057905818366

>  <m_score__min__rmsd>  (38) 
2.352057905818366

>  <meeko>  (38) 
{"free_energy": -8.36, "intermolecular_energy": -9.85, "internal_energy": -1.71, "cluster_size": 15, "cluster_id": 2, "rank_in_cluster": 8}

>  <energy>  (38) 
-8.31

>  <cluster_rmsd>  (38) 
0.33

>  <cluster>  (38) 
2

$$$$

     RDKit          3D

 48 51  0  0  0  0  0  0  0  0999 V2000
  139.5250   71.8110  220.9360 O   0  0  0  0  0  0  0  0  0  0  0  0
  139.6060   72.2610  222.1170 C   0  0  0  0  0  0  0  0  0  0  0  0
  139.5080   73.6800  222.2490 N   0  0  0  0  0  0  0  0  0  0  0  0
  139.3290   74.4440  221.0430 C   0  0  0  0  0  0  0  0  0  0  0  0
  140.4750   75.3030  220.7240 C   0  0  0  0  0  0  0  0  0  0  0  0
  141.6710   74.9200  220.6660 O   0  0  0  0  0  0  0  0  0  0  0  0
  140.2290   76.6780  220.4580 N   0  0  0  0  0  0  0  0  0  0  0  0
  139.0020   77.4360  220.6850 C   0  0  0  0  0  0  0  0  0  0  0  0
  138.9750   78.4420  219.5400 C   0  0  0  0  0  0  0  0  0  0  0  0
  140.2700   78.2150  218.7740 C   0  0  0  0  0  0  0  0  0  0  0  0
  141.1540   77.6670  219.8880 C   0  0  1  0  0  0  0  0  0  0  0  0
  141.5020   78.6750  220.9020 C   0  0  0  0  0  0  0  0  0  0  0  0
  141.8020   79.9830  220.6460 C   0  0  0  0  0  0  0  0  0  0  0  0
  142.1220   80.8840  221.6410 C   0  0  0  0  0  0  0  0  0  0  0  0
  142.1400   80.4430  222.9610 C   0  0  0  0  0  0  0  0  0  0  0  0
  142.5480   81.5890  224.2290 Cl  0  0  0  0  0  0  0  0  0  0  0  0
  141.8400   79.1160  223.2540 C   0  0  0  0  0  0  0  0  0  0  0  0
  141.5270   78.2570  222.2280 C   0  0  0  0  0  0  0  0  0  0  0  0
  139.7880   71.3910  223.2730 C   0  0  0  0  0  0  0  0  0  0  0  0
  139.4410   70.0640  223.1330 C   0  0  0  0  0  0  0  0  0  0  0  0
  139.5780   69.1650  224.1700 C   0  0  0  0  0  0  0  0  0  0  0  0
  140.0860   69.6530  225.3790 C   0  0  0  0  0  0  0  0  0  0  0  0
  140.2380   68.7980  226.4330 C   0  0  0  0  0  0  0  0  0  0  0  0
  140.7390   69.2970  227.6120 C   0  0  0  0  0  0  0  0  0  0  0  0
  140.9210   68.1640  228.9480 Cl  0  0  0  0  0  0  0  0  0  0  0  0
  141.0960   70.6320  227.7730 C   0  0  0  0  0  0  0  0  0  0  0  0
  140.9340   71.4860  226.6920 C   0  0  0  0  0  0  0  0  0  0  0  0
  140.4300   70.9830  225.5090 C   0  0  0  0  0  0  0  0  0  0  0  0
  140.2760   71.8300  224.4530 N   0  0  0  0  0  0  0  0  0  0  0  0
  139.5700   74.0840  223.2050 H   0  0  0  0  0  0  0  0  0  0  0  0
  139.1729   73.7458  220.2075 H   0  0  0  0  0  0  0  0  0  0  0  0
  138.4623   75.1027  221.2006 H   0  0  0  0  0  0  0  0  0  0  0  0
  138.1222   76.7768  220.6475 H   0  0  0  0  0  0  0  0  0  0  0  0
  138.9779   77.9179  221.6735 H   0  0  0  0  0  0  0  0  0  0  0  0
  138.1063   78.2620  218.8897 H   0  0  0  0  0  0  0  0  0  0  0  0
  138.8910   79.4762  219.9052 H   0  0  0  0  0  0  0  0  0  0  0  0
  140.1396   77.4848  217.9617 H   0  0  0  0  0  0  0  0  0  0  0  0
  140.6676   79.1071  218.2679 H   0  0  0  0  0  0  0  0  0  0  0  0
  142.1293   77.2948  219.5412 H   0  0  0  0  0  0  0  0  0  0  0  0
  141.7879   80.3326  219.6031 H   0  0  0  0  0  0  0  0  0  0  0  0
  142.3582   81.9300  221.3958 H   0  0  0  0  0  0  0  0  0  0  0  0
  141.8533   78.7590  224.2944 H   0  0  0  0  0  0  0  0  0  0  0  0
  141.2894   77.2088  222.4624 H   0  0  0  0  0  0  0  0  0  0  0  0
  139.0444   69.7130  222.1689 H   0  0  0  0  0  0  0  0  0  0  0  0
  139.2993   68.1075  224.0514 H   0  0  0  0  0  0  0  0  0  0  0  0
  139.9662   67.7361  226.3409 H   0  0  0  0  0  0  0  0  0  0  0  0
  141.4951   70.9997  228.7298 H   0  0  0  0  0  0  0  0  0  0  0  0
  141.2033   72.5492  226.7760 H   0  0  0  0  0  0  0  0  0  0  0  0
  1  2  2  0
  2  3  1  0
  3  4  1  0
  4  5  1  0
  5  6  2  0
  5  7  1  0
  7  8  1  0
  8  9  1  0
  9 10  1  0
 10 11  1  0
 11 12  1  0
 12 13  2  0
 13 14  1  0
 14 15  2  0
 15 16  1  0
 15 17  1  0
 17 18  2  0
  2 19  1  0
 19 20  2  0
 20 21  1  0
 21 22  2  0
 22 23  1  0
 23 24  2  0
 24 25  1  0
 24 26  1  0
 26 27  2  0
 27 28  1  0
 28 29  2  0
 11  7  1  0
 18 12  1  0
 29 19  1  0
 28 22  1  0
  3 30  1  0
  4 31  1  0
  4 32  1  0
  8 33  1  0
  8 34  1  0
  9 35  1  0
  9 36  1  0
 10 37  1  0
 10 38  1  0
 11 39  1  6
 13 40  1  0
 14 41  1  0
 17 42  1  0
 18 43  1  0
 20 44  1  0
 21 45  1  0
 23 46  1  0
 26 47  1  0
 27 48  1  0
M  END
>  <smiles>  (39) 
O=C(NCC(=O)N1CCC[C@H]1c1ccc(Cl)cc1)c1ccc2cc(Cl)ccc2n1

>  <score_type>  (39) 
oracle

>  <origin>  (39) 
autodockgpu

>  <m_score__min__energy>  (39) 
-8.7400000000000002

>  <m_primary>  (39) 
energy

>  <rmsd>  (39) 
1.7020722004712763

>  <m_score__min__rmsd>  (39) 
1.7020722004712763

>  <meeko>  (39) 
{"free_energy": -8.47, "intermolecular_energy": -9.96, "internal_energy": -1.28, "cluster_size": 29, "cluster_id": 1, "rank_in_cluster": 9}

>  <energy>  (39) 
-8.31

>  <cluster_rmsd>  (39) 
0.4

>  <cluster>  (39) 
2

$$$$

     RDKit          3D

 48 51  0  0  0  0  0  0  0  0999 V2000
  140.0310   72.5720  220.8580 O   0  0  0  0  0  0  0  0  0  0  0  0
  139.8770   72.9020  222.0720 C   0  0  0  0  0  0  0  0  0  0  0  0
  139.6160   74.2860  222.3100 N   0  0  0  0  0  0  0  0  0  0  0  0
  139.5540   75.1530  221.1650 C   0  0  0  0  0  0  0  0  0  0  0  0
  140.8060   75.8790  220.9170 C   0  0  0  0  0  0  0  0  0  0  0  0
  141.8670   75.3630  220.4870 O   0  0  0  0  0  0  0  0  0  0  0  0
  140.8330   77.2760  221.1800 N   0  0  0  0  0  0  0  0  0  0  0  0
  140.6620   78.3770  220.2360 C   0  0  0  0  0  0  0  0  0  0  0  0
  141.5770   79.4690  220.7770 C   0  0  0  0  0  0  0  0  0  0  0  0
  142.1550   78.9080  222.0690 C   0  0  0  0  0  0  0  0  0  0  0  0
  141.0410   77.9470  222.4710 C   0  0  1  0  0  0  0  0  0  0  0  0
  139.8070   78.6310  222.8890 C   0  0  0  0  0  0  0  0  0  0  0  0
  139.7490   79.8330  223.5350 C   0  0  0  0  0  0  0  0  0  0  0  0
  138.5580   80.4250  223.9040 C   0  0  0  0  0  0  0  0  0  0  0  0
  137.3660   79.7720  223.6050 C   0  0  0  0  0  0  0  0  0  0  0  0
  135.8490   80.5250  224.0740 Cl  0  0  0  0  0  0  0  0  0  0  0  0
  137.3920   78.5450  222.9480 C   0  0  0  0  0  0  0  0  0  0  0  0
  138.6040   77.9960  222.6010 C   0  0  0  0  0  0  0  0  0  0  0  0
  139.9610   71.9350  223.1600 C   0  0  0  0  0  0  0  0  0  0  0  0
  139.5230   70.6520  222.9070 C   0  0  0  0  0  0  0  0  0  0  0  0
  139.5630   69.6680  223.8740 C   0  0  0  0  0  0  0  0  0  0  0  0
  140.0680   70.0240  225.1290 C   0  0  0  0  0  0  0  0  0  0  0  0
  140.1250   69.0820  226.1160 C   0  0  0  0  0  0  0  0  0  0  0  0
  140.6240   69.4510  227.3430 C   0  0  0  0  0  0  0  0  0  0  0  0
  140.6830   68.2090  228.5900 Cl  0  0  0  0  0  0  0  0  0  0  0  0
  141.0710   70.7390  227.6180 C   0  0  0  0  0  0  0  0  0  0  0  0
  141.0040   71.6830  226.6030 C   0  0  0  0  0  0  0  0  0  0  0  0
  140.5030   71.3110  225.3720 C   0  0  0  0  0  0  0  0  0  0  0  0
  140.4420   72.2450  224.3830 N   0  0  0  0  0  0  0  0  0  0  0  0
  139.4840   74.5920  223.2950 H   0  0  0  0  0  0  0  0  0  0  0  0
  139.3220   74.5444  220.2785 H   0  0  0  0  0  0  0  0  0  0  0  0
  138.7766   75.9044  221.3674 H   0  0  0  0  0  0  0  0  0  0  0  0
  140.9685   78.0756  219.2235 H   0  0  0  0  0  0  0  0  0  0  0  0
  139.6152   78.7042  220.1509 H   0  0  0  0  0  0  0  0  0  0  0  0
  142.3809   79.6884  220.0589 H   0  0  0  0  0  0  0  0  0  0  0  0
  141.0346   80.4109  220.9463 H   0  0  0  0  0  0  0  0  0  0  0  0
  143.1044   78.3805  221.8948 H   0  0  0  0  0  0  0  0  0  0  0  0
  142.4069   79.6640  222.8273 H   0  0  0  0  0  0  0  0  0  0  0  0
  141.2911   77.3075  223.3303 H   0  0  0  0  0  0  0  0  0  0  0  0
  140.6904   80.3507  223.7710 H   0  0  0  0  0  0  0  0  0  0  0  0
  138.5512   81.3941  224.4243 H   0  0  0  0  0  0  0  0  0  0  0  0
  136.4546   78.0211  222.7094 H   0  0  0  0  0  0  0  0  0  0  0  0
  138.6224   77.0270  222.0808 H   0  0  0  0  0  0  0  0  0  0  0  0
  139.1316   70.4066  221.9087 H   0  0  0  0  0  0  0  0  0  0  0  0
  139.2124   68.6463  223.6664 H   0  0  0  0  0  0  0  0  0  0  0  0
  139.7802   68.0534  225.9340 H   0  0  0  0  0  0  0  0  0  0  0  0
  141.4659   71.0016  228.6105 H   0  0  0  0  0  0  0  0  0  0  0  0
  141.3456   72.7140  226.7773 H   0  0  0  0  0  0  0  0  0  0  0  0
  1  2  2  0
  2  3  1  0
  3  4  1  0
  4  5  1  0
  5  6  2  0
  5  7  1  0
  7  8  1  0
  8  9  1  0
  9 10  1  0
 10 11  1  0
 11 12  1  0
 12 13  2  0
 13 14  1  0
 14 15  2  0
 15 16  1  0
 15 17  1  0
 17 18  2  0
  2 19  1  0
 19 20  2  0
 20 21  1  0
 21 22  2  0
 22 23  1  0
 23 24  2  0
 24 25  1  0
 24 26  1  0
 26 27  2  0
 27 28  1  0
 28 29  2  0
 11  7  1  0
 18 12  1  0
 29 19  1  0
 28 22  1  0
  3 30  1  0
  4 31  1  0
  4 32  1  0
  8 33  1  0
  8 34  1  0
  9 35  1  0
  9 36  1  0
 10 37  1  0
 10 38  1  0
 11 39  1  1
 13 40  1  0
 14 41  1  0
 17 42  1  0
 18 43  1  0
 20 44  1  0
 21 45  1  0
 23 46  1  0
 26 47  1  0
 27 48  1  0
M  END
>  <smiles>  (40) 
O=C(NCC(=O)N1CCC[C@H]1c1ccc(Cl)cc1)c1ccc2cc(Cl)ccc2n1

>  <score_type>  (40) 
oracle

>  <origin>  (40) 
autodockgpu

>  <m_score__min__energy>  (40) 
-8.7400000000000002

>  <m_primary>  (40) 
energy

>  <rmsd>  (40) 
2.6967721664649242

>  <m_score__min__rmsd>  (40) 
2.6967721664649242

>  <meeko>  (40) 
{"free_energy": -8.25, "intermolecular_energy": -9.74, "internal_energy": -1.34, "cluster_size": 4, "cluster_id": 3, "rank_in_cluster": 3}

>  <energy>  (40) 
-8.29

>  <cluster_rmsd>  (40) 
0.73

>  <cluster>  (40) 
2

$$$$

     RDKit          3D

 48 51  0  0  0  0  0  0  0  0999 V2000
  140.7100   73.6530  222.0500 O   0  0  0  0  0  0  0  0  0  0  0  0
  139.7750   72.8640  222.3770 C   0  0  0  0  0  0  0  0  0  0  0  0
  138.5690   72.9830  221.6190 N   0  0  0  0  0  0  0  0  0  0  0  0
  138.5400   73.9740  220.5780 C   0  0  0  0  0  0  0  0  0  0  0  0
  138.3180   75.3360  221.0780 C   0  0  0  0  0  0  0  0  0  0  0  0
  137.5430   75.6440  222.0170 O   0  0  0  0  0  0  0  0  0  0  0  0
  139.0300   76.4010  220.4600 N   0  0  0  0  0  0  0  0  0  0  0  0
  138.4940   77.6290  219.8780 C   0  0  0  0  0  0  0  0  0  0  0  0
  139.4260   77.9170  218.7080 C   0  0  0  0  0  0  0  0  0  0  0  0
  140.4950   76.8360  218.7680 C   0  0  0  0  0  0  0  0  0  0  0  0
  140.4810   76.5210  220.2600 C   0  0  1  0  0  0  0  0  0  0  0  0
  141.0170   77.6110  221.0890 C   0  0  0  0  0  0  0  0  0  0  0  0
  141.7120   78.6910  220.6230 C   0  0  0  0  0  0  0  0  0  0  0  0
  142.1920   79.6850  221.4520 C   0  0  0  0  0  0  0  0  0  0  0  0
  141.9590   79.5830  222.8210 C   0  0  0  0  0  0  0  0  0  0  0  0
  142.5690   80.8480  223.8780 Cl  0  0  0  0  0  0  0  0  0  0  0  0
  141.2550   78.4940  223.3260 C   0  0  0  0  0  0  0  0  0  0  0  0
  140.7970   77.5310  222.4600 C   0  0  0  0  0  0  0  0  0  0  0  0
  139.9140   71.8920  223.4550 C   0  0  0  0  0  0  0  0  0  0  0  0
  139.5360   70.5910  223.1940 C   0  0  0  0  0  0  0  0  0  0  0  0
  139.6320   69.6020  224.1510 C   0  0  0  0  0  0  0  0  0  0  0  0
  140.1300   69.9710  225.4050 C   0  0  0  0  0  0  0  0  0  0  0  0
  140.2420   69.0240  226.3830 C   0  0  0  0  0  0  0  0  0  0  0  0
  140.7330   69.4050  227.6090 C   0  0  0  0  0  0  0  0  0  0  0  0
  140.8630   68.1560  228.8440 Cl  0  0  0  0  0  0  0  0  0  0  0  0
  141.1200   70.7110  227.8920 C   0  0  0  0  0  0  0  0  0  0  0  0
  140.9990   71.6590  226.8870 C   0  0  0  0  0  0  0  0  0  0  0  0
  140.5050   71.2750  225.6570 C   0  0  0  0  0  0  0  0  0  0  0  0
  140.3910   72.2140  224.6770 N   0  0  0  0  0  0  0  0  0  0  0  0
  137.7810   72.3500  221.8610 H   0  0  0  0  0  0  0  0  0  0  0  0
  139.5027   73.9500  220.0464 H   0  0  0  0  0  0  0  0  0  0  0  0
  137.6952   73.7279  219.9178 H   0  0  0  0  0  0  0  0  0  0  0  0
  137.4620   77.4784  219.5284 H   0  0  0  0  0  0  0  0  0  0  0  0
  138.4514   78.4575  220.6004 H   0  0  0  0  0  0  0  0  0  0  0  0
  138.8770   77.8631  217.7563 H   0  0  0  0  0  0  0  0  0  0  0  0
  139.8602   78.9258  218.7693 H   0  0  0  0  0  0  0  0  0  0  0  0
  140.2206   75.9584  218.1642 H   0  0  0  0  0  0  0  0  0  0  0  0
  141.4757   77.1358  218.3700 H   0  0  0  0  0  0  0  0  0  0  0  0
  141.0961   75.6529  220.5392 H   0  0  0  0  0  0  0  0  0  0  0  0
  141.8969   78.7719  219.5417 H   0  0  0  0  0  0  0  0  0  0  0  0
  142.7473   80.5403  221.0395 H   0  0  0  0  0  0  0  0  0  0  0  0
  141.0674   78.4053  224.4063 H   0  0  0  0  0  0  0  0  0  0  0  0
  140.2402   76.6719  222.8624 H   0  0  0  0  0  0  0  0  0  0  0  0
  139.1480   70.3357  222.1969 H   0  0  0  0  0  0  0  0  0  0  0  0
  139.3295   68.5663  223.9369 H   0  0  0  0  0  0  0  0  0  0  0  0
  139.9464   67.9815  226.1940 H   0  0  0  0  0  0  0  0  0  0  0  0
  141.5104   70.9836  228.8836 H   0  0  0  0  0  0  0  0  0  0  0  0
  141.2930   72.7034  227.0680 H   0  0  0  0  0  0  0  0  0  0  0  0
  1  2  2  0
  2  3  1  0
  3  4  1  0
  4  5  1  0
  5  6  2  0
  5  7  1  0
  7  8  1  0
  8  9  1  0
  9 10  1  0
 10 11  1  0
 11 12  1  0
 12 13  2  0
 13 14  1  0
 14 15  2  0
 15 16  1  0
 15 17  1  0
 17 18  2  0
  2 19  1  0
 19 20  2  0
 20 21  1  0
 21 22  2  0
 22 23  1  0
 23 24  2  0
 24 25  1  0
 24 26  1  0
 26 27  2  0
 27 28  1  0
 28 29  2  0
 11  7  1  0
 18 12  1  0
 29 19  1  0
 28 22  1  0
  3 30  1  0
  4 31  1  0
  4 32  1  0
  8 33  1  0
  8 34  1  0
  9 35  1  0
  9 36  1  0
 10 37  1  0
 10 38  1  0
 11 39  1  6
 13 40  1  0
 14 41  1  0
 17 42  1  0
 18 43  1  0
 20 44  1  0
 21 45  1  0
 23 46  1  0
 26 47  1  0
 27 48  1  0
M  END
>  <smiles>  (41) 
O=C(NCC(=O)N1CCC[C@H]1c1ccc(Cl)cc1)c1ccc2cc(Cl)ccc2n1

>  <score_type>  (41) 
oracle

>  <origin>  (41) 
autodockgpu

>  <m_score__min__energy>  (41) 
-8.7400000000000002

>  <m_primary>  (41) 
energy

>  <rmsd>  (41) 
1.7467378143205359

>  <m_score__min__rmsd>  (41) 
1.7467378143205359

>  <meeko>  (41) 
{"free_energy": -8.24, "intermolecular_energy": -9.73, "internal_energy": -1.37, "cluster_size": 29, "cluster_id": 1, "rank_in_cluster": 16}

>  <energy>  (41) 
-8.27

>  <cluster_rmsd>  (41) 
0.58

>  <cluster>  (41) 
2

$$$$

     RDKit          3D

 48 51  0  0  0  0  0  0  0  0999 V2000
  139.8810   74.0540  222.2900 O   0  0  0  0  0  0  0  0  0  0  0  0
  140.2840   72.8610  222.1560 C   0  0  0  0  0  0  0  0  0  0  0  0
  140.7720   72.5120  220.8600 N   0  0  0  0  0  0  0  0  0  0  0  0
  140.7550   73.5370  219.8510 C   0  0  0  0  0  0  0  0  0  0  0  0
  141.9000   74.4520  219.9330 C   0  0  0  0  0  0  0  0  0  0  0  0
  143.0590   74.1290  220.2980 O   0  0  0  0  0  0  0  0  0  0  0  0
  141.6980   75.8130  219.5750 N   0  0  0  0  0  0  0  0  0  0  0  0
  140.6160   76.3860  218.7790 C   0  0  0  0  0  0  0  0  0  0  0  0
  141.2830   77.5320  218.0260 C   0  0  0  0  0  0  0  0  0  0  0  0
  142.7180   77.5640  218.5300 C   0  0  0  0  0  0  0  0  0  0  0  0
  142.5320   76.9710  219.9230 C   0  0  1  0  0  0  0  0  0  0  0  0
  141.8030   77.8610  220.8400 C   0  0  0  0  0  0  0  0  0  0  0  0
  141.8230   79.2270  220.8000 C   0  0  0  0  0  0  0  0  0  0  0  0
  141.1170   80.0100  221.6900 C   0  0  0  0  0  0  0  0  0  0  0  0
  140.3510   79.3840  222.6700 C   0  0  0  0  0  0  0  0  0  0  0  0
  139.4520   80.3800  223.8040 Cl  0  0  0  0  0  0  0  0  0  0  0  0
  140.3110   77.9940  222.7370 C   0  0  0  0  0  0  0  0  0  0  0  0
  141.0310   77.2580  221.8270 C   0  0  0  0  0  0  0  0  0  0  0  0
  140.2550   71.9000  223.2530 C   0  0  0  0  0  0  0  0  0  0  0  0
  139.7500   70.6450  222.9870 C   0  0  0  0  0  0  0  0  0  0  0  0
  139.6820   69.6690  223.9600 C   0  0  0  0  0  0  0  0  0  0  0  0
  140.1500   70.0040  225.2360 C   0  0  0  0  0  0  0  0  0  0  0  0
  140.1030   69.0680  226.2300 C   0  0  0  0  0  0  0  0  0  0  0  0
  140.5660   69.4160  227.4770 C   0  0  0  0  0  0  0  0  0  0  0  0
  140.4890   68.1830  228.7320 Cl  0  0  0  0  0  0  0  0  0  0  0  0
  141.0810   70.6760  227.7640 C   0  0  0  0  0  0  0  0  0  0  0  0
  141.1210   71.6130  226.7420 C   0  0  0  0  0  0  0  0  0  0  0  0
  140.6540   71.2620  225.4920 C   0  0  0  0  0  0  0  0  0  0  0  0
  140.6990   72.1900  224.4950 N   0  0  0  0  0  0  0  0  0  0  0  0
  141.1110   71.5400  220.7150 H   0  0  0  0  0  0  0  0  0  0  0  0
  140.7641   73.0541  218.8627 H   0  0  0  0  0  0  0  0  0  0  0  0
  139.8468   74.1366  220.0112 H   0  0  0  0  0  0  0  0  0  0  0  0
  140.2088   75.6419  218.0787 H   0  0  0  0  0  0  0  0  0  0  0  0
  139.7671   76.7193  219.3940 H   0  0  0  0  0  0  0  0  0  0  0  0
  141.2596   77.3458  216.9421 H   0  0  0  0  0  0  0  0  0  0  0  0
  140.7677   78.4888  218.1964 H   0  0  0  0  0  0  0  0  0  0  0  0
  143.3812   76.9438  217.9091 H   0  0  0  0  0  0  0  0  0  0  0  0
  143.1898   78.5575  218.5122 H   0  0  0  0  0  0  0  0  0  0  0  0
  143.4750   76.7653  220.4508 H   0  0  0  0  0  0  0  0  0  0  0  0
  142.4272   79.7228  220.0260 H   0  0  0  0  0  0  0  0  0  0  0  0
  141.1584   81.1074  221.6267 H   0  0  0  0  0  0  0  0  0  0  0  0
  139.7103   77.4910  223.5091 H   0  0  0  0  0  0  0  0  0  0  0  0
  140.9957   76.1599  221.8808 H   0  0  0  0  0  0  0  0  0  0  0  0
  139.3919   70.4157  221.9725 H   0  0  0  0  0  0  0  0  0  0  0  0
  139.2771   68.6697  223.7421 H   0  0  0  0  0  0  0  0  0  0  0  0
  139.7046   68.0609  226.0375 H   0  0  0  0  0  0  0  0  0  0  0  0
  141.4459   70.9221  228.7721 H   0  0  0  0  0  0  0  0  0  0  0  0
  141.5194   72.6217  226.9255 H   0  0  0  0  0  0  0  0  0  0  0  0
  1  2  2  0
  2  3  1  0
  3  4  1  0
  4  5  1  0
  5  6  2  0
  5  7  1  0
  7  8  1  0
  8  9  1  0
  9 10  1  0
 10 11  1  0
 11 12  1  0
 12 13  2  0
 13 14  1  0
 14 15  2  0
 15 16  1  0
 15 17  1  0
 17 18  2  0
  2 19  1  0
 19 20  2  0
 20 21  1  0
 21 22  2  0
 22 23  1  0
 23 24  2  0
 24 25  1  0
 24 26  1  0
 26 27  2  0
 27 28  1  0
 28 29  2  0
 11  7  1  0
 18 12  1  0
 29 19  1  0
 28 22  1  0
  3 30  1  0
  4 31  1  0
  4 32  1  0
  8 33  1  0
  8 34  1  0
  9 35  1  0
  9 36  1  0
 10 37  1  0
 10 38  1  0
 11 39  1  1
 13 40  1  0
 14 41  1  0
 17 42  1  0
 18 43  1  0
 20 44  1  0
 21 45  1  0
 23 46  1  0
 26 47  1  0
 27 48  1  0
M  END
>  <smiles>  (42) 
O=C(NCC(=O)N1CCC[C@H]1c1ccc(Cl)cc1)c1ccc2cc(Cl)ccc2n1

>  <score_type>  (42) 
oracle

>  <origin>  (42) 
autodockgpu

>  <m_score__min__energy>  (42) 
-8.7400000000000002

>  <m_primary>  (42) 
energy

>  <rmsd>  (42) 
2.0274632430995037

>  <m_score__min__rmsd>  (42) 
2.0274632430995037

>  <meeko>  (42) 
{"free_energy": -8.21, "intermolecular_energy": -9.7, "internal_energy": -1.41, "cluster_size": 29, "cluster_id": 1, "rank_in_cluster": 17}

>  <energy>  (42) 
-8.25

>  <cluster_rmsd>  (42) 
0.98

>  <cluster>  (42) 
2

$$$$

     RDKit          3D

 48 51  0  0  0  0  0  0  0  0999 V2000
  140.3070   73.9890  222.1440 O   0  0  0  0  0  0  0  0  0  0  0  0
  139.7670   72.8440  222.1140 C   0  0  0  0  0  0  0  0  0  0  0  0
  139.0470   72.5280  220.9220 N   0  0  0  0  0  0  0  0  0  0  0  0
  139.0090   73.5290  219.8900 C   0  0  0  0  0  0  0  0  0  0  0  0
  137.7640   74.3070  219.8800 C   0  0  0  0  0  0  0  0  0  0  0  0
  136.8790   74.2440  218.9900 O   0  0  0  0  0  0  0  0  0  0  0  0
  137.5260   75.2060  220.9560 N   0  0  0  0  0  0  0  0  0  0  0  0
  137.3350   74.8920  222.3700 C   0  0  0  0  0  0  0  0  0  0  0  0
  136.3400   75.9440  222.8460 C   0  0  0  0  0  0  0  0  0  0  0  0
  136.0970   76.8440  221.6440 C   0  0  0  0  0  0  0  0  0  0  0  0
  137.4180   76.6700  220.9020 C   0  0  1  0  0  0  0  0  0  0  0  0
  138.5590   77.2870  221.5960 C   0  0  0  0  0  0  0  0  0  0  0  0
  139.8450   76.8250  221.5690 C   0  0  0  0  0  0  0  0  0  0  0  0
  140.8760   77.4480  222.2420 C   0  0  0  0  0  0  0  0  0  0  0  0
  140.5960   78.5950  222.9800 C   0  0  0  0  0  0  0  0  0  0  0  0
  141.9080   79.3890  223.8380 Cl  0  0  0  0  0  0  0  0  0  0  0  0
  139.2960   79.0890  223.0270 C   0  0  0  0  0  0  0  0  0  0  0  0
  138.3030   78.4340  222.3390 C   0  0  0  0  0  0  0  0  0  0  0  0
  139.8710   71.9030  223.2230 C   0  0  0  0  0  0  0  0  0  0  0  0
  139.4220   70.6160  223.0120 C   0  0  0  0  0  0  0  0  0  0  0  0
  139.4800   69.6560  224.0010 C   0  0  0  0  0  0  0  0  0  0  0  0
  140.0150   70.0390  225.2350 C   0  0  0  0  0  0  0  0  0  0  0  0
  140.0910   69.1210  226.2430 C   0  0  0  0  0  0  0  0  0  0  0  0
  140.6180   69.5160  227.4490 C   0  0  0  0  0  0  0  0  0  0  0  0
  140.7000   68.3040  228.7240 Cl  0  0  0  0  0  0  0  0  0  0  0  0
  141.0770   70.8090  227.6820 C   0  0  0  0  0  0  0  0  0  0  0  0
  140.9910   71.7280  226.6470 C   0  0  0  0  0  0  0  0  0  0  0  0
  140.4600   71.3290  225.4380 C   0  0  0  0  0  0  0  0  0  0  0  0
  140.3810   72.2400  224.4270 N   0  0  0  0  0  0  0  0  0  0  0  0
  138.5910   71.5960  220.8630 H   0  0  0  0  0  0  0  0  0  0  0  0
  139.8511   74.2200  220.0429 H   0  0  0  0  0  0  0  0  0  0  0  0
  139.0726   73.0044  218.9253 H   0  0  0  0  0  0  0  0  0  0  0  0
  136.9238   73.8793  222.4943 H   0  0  0  0  0  0  0  0  0  0  0  0
  138.2758   74.9083  222.9398 H   0  0  0  0  0  0  0  0  0  0  0  0
  135.4013   75.4686  223.1667 H   0  0  0  0  0  0  0  0  0  0  0  0
  136.7233   76.5086  223.7087 H   0  0  0  0  0  0  0  0  0  0  0  0
  135.2436   76.4980  221.0424 H   0  0  0  0  0  0  0  0  0  0  0  0
  135.8419   77.8848  221.8922 H   0  0  0  0  0  0  0  0  0  0  0  0
  137.4351   77.1341  219.9048 H   0  0  0  0  0  0  0  0  0  0  0  0
  140.0674   75.9188  220.9865 H   0  0  0  0  0  0  0  0  0  0  0  0
  141.8990   77.0464  222.1964 H   0  0  0  0  0  0  0  0  0  0  0  0
  139.0657   79.9939  223.6085 H   0  0  0  0  0  0  0  0  0  0  0  0
  137.2768   78.8282  222.3772 H   0  0  0  0  0  0  0  0  0  0  0  0
  139.0068   70.3480  222.0293 H   0  0  0  0  0  0  0  0  0  0  0  0
  139.1202   68.6313  223.8262 H   0  0  0  0  0  0  0  0  0  0  0  0
  139.7387   68.0898  226.0931 H   0  0  0  0  0  0  0  0  0  0  0  0
  141.4957   71.0937  228.6585 H   0  0  0  0  0  0  0  0  0  0  0  0
  141.3414   72.7611  226.7882 H   0  0  0  0  0  0  0  0  0  0  0  0
  1  2  2  0
  2  3  1  0
  3  4  1  0
  4  5  1  0
  5  6  2  0
  5  7  1  0
  7  8  1  0
  8  9  1  0
  9 10  1  0
 10 11  1  0
 11 12  1  0
 12 13  2  0
 13 14  1  0
 14 15  2  0
 15 16  1  0
 15 17  1  0
 17 18  2  0
  2 19  1  0
 19 20  2  0
 20 21  1  0
 21 22  2  0
 22 23  1  0
 23 24  2  0
 24 25  1  0
 24 26  1  0
 26 27  2  0
 27 28  1  0
 28 29  2  0
 11  7  1  0
 18 12  1  0
 29 19  1  0
 28 22  1  0
  3 30  1  0
  4 31  1  0
  4 32  1  0
  8 33  1  0
  8 34  1  0
  9 35  1  0
  9 36  1  0
 10 37  1  0
 10 38  1  0
 11 39  1  6
 13 40  1  0
 14 41  1  0
 17 42  1  0
 18 43  1  0
 20 44  1  0
 21 45  1  0
 23 46  1  0
 26 47  1  0
 27 48  1  0
M  END
>  <smiles>  (43) 
O=C(NCC(=O)N1CCC[C@H]1c1ccc(Cl)cc1)c1ccc2cc(Cl)ccc2n1

>  <score_type>  (43) 
oracle

>  <origin>  (43) 
autodockgpu

>  <m_score__min__energy>  (43) 
-8.7400000000000002

>  <m_primary>  (43) 
energy

>  <rmsd>  (43) 
3.350563979845596

>  <m_score__min__rmsd>  (43) 
3.350563979845596

>  <meeko>  (43) 
{"free_energy": -7.71, "intermolecular_energy": -9.2, "internal_energy": -1.58, "cluster_size": 29, "cluster_id": 1, "rank_in_cluster": 29}

>  <energy>  (43) 
-8.14

>  <cluster_rmsd>  (43) 
0.56

>  <cluster>  (43) 
2

$$$$

     RDKit          3D

 48 51  0  0  0  0  0  0  0  0999 V2000
  138.2580   71.4260  220.8950 O   0  0  0  0  0  0  0  0  0  0  0  0
  138.6620   71.9490  221.9760 C   0  0  0  0  0  0  0  0  0  0  0  0
  138.7160   73.3760  221.9920 N   0  0  0  0  0  0  0  0  0  0  0  0
  138.3110   74.0660  220.7970 C   0  0  0  0  0  0  0  0  0  0  0  0
  138.3930   75.5270  220.9130 C   0  0  0  0  0  0  0  0  0  0  0  0
  137.4190   76.3150  220.8090 O   0  0  0  0  0  0  0  0  0  0  0  0
  139.6650   76.1100  221.1620 N   0  0  0  0  0  0  0  0  0  0  0  0
  140.2770   76.4270  222.4500 C   0  0  0  0  0  0  0  0  0  0  0  0
  141.0840   77.6890  222.1700 C   0  0  0  0  0  0  0  0  0  0  0  0
  140.9200   77.9520  220.6800 C   0  0  0  0  0  0  0  0  0  0  0  0
  140.6720   76.5330  220.1790 C   0  0  1  0  0  0  0  0  0  0  0  0
  141.8600   75.6690  220.2690 C   0  0  0  0  0  0  0  0  0  0  0  0
  143.1410   76.0540  219.9880 C   0  0  0  0  0  0  0  0  0  0  0  0
  144.2170   75.1960  220.0910 C   0  0  0  0  0  0  0  0  0  0  0  0
  143.9900   73.8840  220.4980 C   0  0  0  0  0  0  0  0  0  0  0  0
  145.3590   72.7910  220.6280 Cl  0  0  0  0  0  0  0  0  0  0  0  0
  142.6960   73.4620  220.7900 C   0  0  0  0  0  0  0  0  0  0  0  0
  141.6570   74.3540  220.6730 C   0  0  0  0  0  0  0  0  0  0  0  0
  139.0490   71.1500  223.1320 C   0  0  0  0  0  0  0  0  0  0  0  0
  138.7560   69.8020  223.1030 C   0  0  0  0  0  0  0  0  0  0  0  0
  139.0830   68.9660  224.1500 C   0  0  0  0  0  0  0  0  0  0  0  0
  139.7280   69.5400  225.2510 C   0  0  0  0  0  0  0  0  0  0  0  0
  140.0700   68.7490  226.3110 C   0  0  0  0  0  0  0  0  0  0  0  0
  140.7020   69.3320  227.3840 C   0  0  0  0  0  0  0  0  0  0  0  0
  141.1280   68.2800  228.7300 Cl  0  0  0  0  0  0  0  0  0  0  0  0
  141.0070   70.6890  227.4320 C   0  0  0  0  0  0  0  0  0  0  0  0
  140.6520   71.4760  226.3470 C   0  0  0  0  0  0  0  0  0  0  0  0
  140.0160   70.8900  225.2720 C   0  0  0  0  0  0  0  0  0  0  0  0
  139.6720   71.6720  224.2110 N   0  0  0  0  0  0  0  0  0  0  0  0
  139.0440   73.8390  222.8640 H   0  0  0  0  0  0  0  0  0  0  0  0
  138.9621   73.7445  219.9707 H   0  0  0  0  0  0  0  0  0  0  0  0
  137.2559   73.8126  220.6167 H   0  0  0  0  0  0  0  0  0  0  0  0
  139.5077   76.6154  223.2133 H   0  0  0  0  0  0  0  0  0  0  0  0
  140.8954   75.6052  222.8402 H   0  0  0  0  0  0  0  0  0  0  0  0
  140.6922   78.5340  222.7553 H   0  0  0  0  0  0  0  0  0  0  0  0
  142.1410   77.5690  222.4501 H   0  0  0  0  0  0  0  0  0  0  0  0
  140.0639   78.6116  220.4749 H   0  0  0  0  0  0  0  0  0  0  0  0
  141.7698   78.4657  220.2067 H   0  0  0  0  0  0  0  0  0  0  0  0
  140.3868   76.4774  219.1181 H   0  0  0  0  0  0  0  0  0  0  0  0
  143.3217   77.0903  219.6666 H   0  0  0  0  0  0  0  0  0  0  0  0
  145.2344   75.5420  219.8561 H   0  0  0  0  0  0  0  0  0  0  0  0
  142.5073   72.4268  221.1106 H   0  0  0  0  0  0  0  0  0  0  0  0
  140.6357   74.0181  220.9056 H   0  0  0  0  0  0  0  0  0  0  0  0
  138.2483   69.3831  222.2217 H   0  0  0  0  0  0  0  0  0  0  0  0
  138.8465   67.8921  224.1207 H   0  0  0  0  0  0  0  0  0  0  0  0
  139.8453   67.6722  226.3062 H   0  0  0  0  0  0  0  0  0  0  0  0
  141.5149   71.1245  228.3052 H   0  0  0  0  0  0  0  0  0  0  0  0
  140.8745   72.5533  226.3434 H   0  0  0  0  0  0  0  0  0  0  0  0
  1  2  2  0
  2  3  1  0
  3  4  1  0
  4  5  1  0
  5  6  2  0
  5  7  1  0
  7  8  1  0
  8  9  1  0
  9 10  1  0
 10 11  1  0
 11 12  1  0
 12 13  2  0
 13 14  1  0
 14 15  2  0
 15 16  1  0
 15 17  1  0
 17 18  2  0
  2 19  1  0
 19 20  2  0
 20 21  1  0
 21 22  2  0
 22 23  1  0
 23 24  2  0
 24 25  1  0
 24 26  1  0
 26 27  2  0
 27 28  1  0
 28 29  2  0
 11  7  1  0
 18 12  1  0
 29 19  1  0
 28 22  1  0
  3 30  1  0
  4 31  1  0
  4 32  1  0
  8 33  1  0
  8 34  1  0
  9 35  1  0
  9 36  1  0
 10 37  1  0
 10 38  1  0
 11 39  1  6
 13 40  1  0
 14 41  1  0
 17 42  1  0
 18 43  1  0
 20 44  1  0
 21 45  1  0
 23 46  1  0
 26 47  1  0
 27 48  1  0
M  END
>  <smiles>  (44) 
O=C(NCC(=O)N1CCC[C@H]1c1ccc(Cl)cc1)c1ccc2cc(Cl)ccc2n1

>  <score_type>  (44) 
oracle

>  <origin>  (44) 
autodockgpu

>  <m_score__min__energy>  (44) 
-8.7400000000000002

>  <m_primary>  (44) 
energy

>  <rmsd>  (44) 
2.3092496036927552

>  <m_score__min__rmsd>  (44) 
2.3092496036927552

>  <meeko>  (44) 
{"free_energy": -8.14, "intermolecular_energy": -9.63, "internal_energy": -1.64, "cluster_size": 15, "cluster_id": 2, "rank_in_cluster": 14}

>  <energy>  (44) 
-7.98

>  <cluster_rmsd>  (44) 
0.6

>  <cluster>  (44) 
2

$$$$

     RDKit          3D

 48 51  0  0  0  0  0  0  0  0999 V2000
  140.0080   72.1820  220.7960 O   0  0  0  0  0  0  0  0  0  0  0  0
  139.6870   72.5260  221.9720 C   0  0  0  0  0  0  0  0  0  0  0  0
  139.1870   73.8570  222.1140 N   0  0  0  0  0  0  0  0  0  0  0  0
  139.1010   74.6600  220.9250 C   0  0  0  0  0  0  0  0  0  0  0  0
  140.3580   75.3410  220.5900 C   0  0  0  0  0  0  0  0  0  0  0  0
  141.4950   74.8060  220.6040 O   0  0  0  0  0  0  0  0  0  0  0  0
  140.2990   76.7130  220.2200 N   0  0  0  0  0  0  0  0  0  0  0  0
  139.1250   77.5760  220.1350 C   0  0  0  0  0  0  0  0  0  0  0  0
  139.4420   78.5110  218.9730 C   0  0  0  0  0  0  0  0  0  0  0  0
  140.8480   78.1390  218.5280 C   0  0  0  0  0  0  0  0  0  0  0  0
  141.4120   77.5920  219.8350 C   0  0  1  0  0  0  0  0  0  0  0  0
  141.6150   78.6280  220.8590 C   0  0  0  0  0  0  0  0  0  0  0  0
  141.8870   79.9440  220.6110 C   0  0  0  0  0  0  0  0  0  0  0  0
  142.0680   80.8710  221.6160 C   0  0  0  0  0  0  0  0  0  0  0  0
  141.9710   80.4500  222.9400 C   0  0  0  0  0  0  0  0  0  0  0  0
  142.2020   81.6310  224.2210 Cl  0  0  0  0  0  0  0  0  0  0  0  0
  141.6950   79.1160  223.2250 C   0  0  0  0  0  0  0  0  0  0  0  0
  141.5220   78.2300  222.1890 C   0  0  0  0  0  0  0  0  0  0  0  0
  139.8160   71.6260  223.1110 C   0  0  0  0  0  0  0  0  0  0  0  0
  139.4020   70.3210  222.9430 C   0  0  0  0  0  0  0  0  0  0  0  0
  139.4840   69.3960  223.9630 C   0  0  0  0  0  0  0  0  0  0  0  0
  140.0090   69.8340  225.1830 C   0  0  0  0  0  0  0  0  0  0  0  0
  140.1100   68.9520  226.2210 C   0  0  0  0  0  0  0  0  0  0  0  0
  140.6280   69.4010  227.4130 C   0  0  0  0  0  0  0  0  0  0  0  0
  140.7420   68.2350  228.7270 Cl  0  0  0  0  0  0  0  0  0  0  0  0
  141.0520   70.7120  227.6020 C   0  0  0  0  0  0  0  0  0  0  0  0
  140.9420   71.5940  226.5370 C   0  0  0  0  0  0  0  0  0  0  0  0
  140.4210   71.1410  225.3420 C   0  0  0  0  0  0  0  0  0  0  0  0
  140.3180   72.0150  224.3030 N   0  0  0  0  0  0  0  0  0  0  0  0
  138.9140   74.1720  223.0660 H   0  0  0  0  0  0  0  0  0  0  0  0
  138.8221   74.0087  220.0836 H   0  0  0  0  0  0  0  0  0  0  0  0
  138.3488   75.4402  221.1133 H   0  0  0  0  0  0  0  0  0  0  0  0
  138.2198   76.9864  219.9275 H   0  0  0  0  0  0  0  0  0  0  0  0
  138.9261   78.1160  221.0725 H   0  0  0  0  0  0  0  0  0  0  0  0
  138.7259   78.3608  218.1517 H   0  0  0  0  0  0  0  0  0  0  0  0
  139.3723   79.5685  219.2678 H   0  0  0  0  0  0  0  0  0  0  0  0
  140.8357   77.3735  217.7381 H   0  0  0  0  0  0  0  0  0  0  0  0
  141.4252   78.9654  218.0877 H   0  0  0  0  0  0  0  0  0  0  0  0
  142.4033   77.1261  219.7336 H   0  0  0  0  0  0  0  0  0  0  0  0
  141.9648   80.2780  219.5658 H   0  0  0  0  0  0  0  0  0  0  0  0
  142.2848   81.9225  221.3765 H   0  0  0  0  0  0  0  0  0  0  0  0
  141.6163   78.7748  224.2678 H   0  0  0  0  0  0  0  0  0  0  0  0
  141.3038   77.1764  222.4176 H   0  0  0  0  0  0  0  0  0  0  0  0
  138.9955   70.0096  221.9694 H   0  0  0  0  0  0  0  0  0  0  0  0
  139.1504   68.3572  223.8227 H   0  0  0  0  0  0  0  0  0  0  0  0
  139.7847   67.9075  226.1061 H   0  0  0  0  0  0  0  0  0  0  0  0
  141.4628   71.0401  228.5683 H   0  0  0  0  0  0  0  0  0  0  0  0
  141.2655   72.6399  226.6435 H   0  0  0  0  0  0  0  0  0  0  0  0
  1  2  2  0
  2  3  1  0
  3  4  1  0
  4  5  1  0
  5  6  2  0
  5  7  1  0
  7  8  1  0
  8  9  1  0
  9 10  1  0
 10 11  1  0
 11 12  1  0
 12 13  2  0
 13 14  1  0
 14 15  2  0
 15 16  1  0
 15 17  1  0
 17 18  2  0
  2 19  1  0
 19 20  2  0
 20 21  1  0
 21 22  2  0
 22 23  1  0
 23 24  2  0
 24 25  1  0
 24 26  1  0
 26 27  2  0
 27 28  1  0
 28 29  2  0
 11  7  1  0
 18 12  1  0
 29 19  1  0
 28 22  1  0
  3 30  1  0
  4 31  1  0
  4 32  1  0
  8 33  1  0
  8 34  1  0
  9 35  1  0
  9 36  1  0
 10 37  1  0
 10 38  1  0
 11 39  1  6
 13 40  1  0
 14 41  1  0
 17 42  1  0
 18 43  1  0
 20 44  1  0
 21 45  1  0
 23 46  1  0
 26 47  1  0
 27 48  1  0
M  END
>  <smiles>  (45) 
O=C(NCC(=O)N1CCC[C@H]1c1ccc(Cl)cc1)c1ccc2cc(Cl)ccc2n1

>  <score_type>  (45) 
oracle

>  <origin>  (45) 
autodockgpu

>  <m_score__min__energy>  (45) 
-8.7400000000000002

>  <m_primary>  (45) 
energy

>  <rmsd>  (45) 
1.6382007397703513

>  <m_score__min__rmsd>  (45) 
1.6382007397703513

>  <meeko>  (45) 
{"free_energy": -8.52, "intermolecular_energy": -10.01, "internal_energy": -1.26, "cluster_size": 29, "cluster_id": 1, "rank_in_cluster": 7}

>  <energy>  (45) 
-8.47

>  <cluster_rmsd>  (45) 
0.0

>  <cluster>  (45) 
3

$$$$

     RDKit          3D

 48 51  0  0  0  0  0  0  0  0999 V2000
  140.0540   72.0700  220.7520 O   0  0  0  0  0  0  0  0  0  0  0  0
  139.5470   72.3410  221.8810 C   0  0  0  0  0  0  0  0  0  0  0  0
  138.7910   73.5520  221.9470 N   0  0  0  0  0  0  0  0  0  0  0  0
  138.6850   74.3300  220.7430 C   0  0  0  0  0  0  0  0  0  0  0  0
  137.4560   75.1300  220.6730 C   0  0  0  0  0  0  0  0  0  0  0  0
  136.5410   74.9760  219.8250 O   0  0  0  0  0  0  0  0  0  0  0  0
  137.2730   76.1620  221.6340 N   0  0  0  0  0  0  0  0  0  0  0  0
  137.0450   76.0300  223.0700 C   0  0  0  0  0  0  0  0  0  0  0  0
  136.1230   77.1960  223.4040 C   0  0  0  0  0  0  0  0  0  0  0  0
  135.9570   77.9650  222.1010 C   0  0  0  0  0  0  0  0  0  0  0  0
  137.2690   77.6140  221.4090 C   0  0  1  0  0  0  0  0  0  0  0  0
  138.4440   78.2270  222.0470 C   0  0  0  0  0  0  0  0  0  0  0  0
  138.4370   79.3840  222.7740 C   0  0  0  0  0  0  0  0  0  0  0  0
  139.5740   79.9110  223.3500 C   0  0  0  0  0  0  0  0  0  0  0  0
  140.7810   79.2380  223.1840 C   0  0  0  0  0  0  0  0  0  0  0  0
  142.2310   79.9080  223.9170 Cl  0  0  0  0  0  0  0  0  0  0  0  0
  140.8220   78.0570  222.4480 C   0  0  0  0  0  0  0  0  0  0  0  0
  139.6620   77.5720  221.8940 C   0  0  0  0  0  0  0  0  0  0  0  0
  139.7180   71.4760  223.0420 C   0  0  0  0  0  0  0  0  0  0  0  0
  139.3140   70.1620  222.9230 C   0  0  0  0  0  0  0  0  0  0  0  0
  139.4360   69.2690  223.9670 C   0  0  0  0  0  0  0  0  0  0  0  0
  139.9900   69.7480  225.1590 C   0  0  0  0  0  0  0  0  0  0  0  0
  140.1300   68.8970  226.2180 C   0  0  0  0  0  0  0  0  0  0  0  0
  140.6760   69.3870  227.3810 C   0  0  0  0  0  0  0  0  0  0  0  0
  140.8410   68.2600  228.7250 Cl  0  0  0  0  0  0  0  0  0  0  0  0
  141.0910   70.7080  227.5210 C   0  0  0  0  0  0  0  0  0  0  0  0
  140.9400   71.5560  226.4340 C   0  0  0  0  0  0  0  0  0  0  0  0
  140.3910   71.0630  225.2680 C   0  0  0  0  0  0  0  0  0  0  0  0
  140.2490   71.9050  224.2070 N   0  0  0  0  0  0  0  0  0  0  0  0
  138.3600   73.8050  222.8590 H   0  0  0  0  0  0  0  0  0  0  0  0
  139.5476   75.0105  220.6903 H   0  0  0  0  0  0  0  0  0  0  0  0
  138.6613   73.6233  219.9003 H   0  0  0  0  0  0  0  0  0  0  0  0
  136.5615   75.0698  223.3028 H   0  0  0  0  0  0  0  0  0  0  0  0
  137.9789   76.0481  223.6510 H   0  0  0  0  0  0  0  0  0  0  0  0
  135.1497   76.8274  223.7602 H   0  0  0  0  0  0  0  0  0  0  0  0
  136.5363   77.8289  224.2031 H   0  0  0  0  0  0  0  0  0  0  0  0
  135.0872   77.6116  221.5278 H   0  0  0  0  0  0  0  0  0  0  0  0
  135.7743   79.0429  222.2224 H   0  0  0  0  0  0  0  0  0  0  0  0
  137.3283   77.9561  220.3652 H   0  0  0  0  0  0  0  0  0  0  0  0
  137.4842   79.9177  222.9054 H   0  0  0  0  0  0  0  0  0  0  0  0
  139.5278   80.8450  223.9293 H   0  0  0  0  0  0  0  0  0  0  0  0
  141.7716   77.5187  222.3117 H   0  0  0  0  0  0  0  0  0  0  0  0
  139.6972   76.6388  221.3127 H   0  0  0  0  0  0  0  0  0  0  0  0
  138.8835   69.8179  221.9710 H   0  0  0  0  0  0  0  0  0  0  0  0
  139.1110   68.2229  223.8665 H   0  0  0  0  0  0  0  0  0  0  0  0
  139.8140   67.8461  226.1425 H   0  0  0  0  0  0  0  0  0  0  0  0
  141.5255   71.0685  228.4650 H   0  0  0  0  0  0  0  0  0  0  0  0
  141.2539   72.6082  226.5005 H   0  0  0  0  0  0  0  0  0  0  0  0
  1  2  2  0
  2  3  1  0
  3  4  1  0
  4  5  1  0
  5  6  2  0
  5  7  1  0
  7  8  1  0
  8  9  1  0
  9 10  1  0
 10 11  1  0
 11 12  1  0
 12 13  2  0
 13 14  1  0
 14 15  2  0
 15 16  1  0
 15 17  1  0
 17 18  2  0
  2 19  1  0
 19 20  2  0
 20 21  1  0
 21 22  2  0
 22 23  1  0
 23 24  2  0
 24 25  1  0
 24 26  1  0
 26 27  2  0
 27 28  1  0
 28 29  2  0
 11  7  1  0
 18 12  1  0
 29 19  1  0
 28 22  1  0
  3 30  1  0
  4 31  1  0
  4 32  1  0
  8 33  1  0
  8 34  1  0
  9 35  1  0
  9 36  1  0
 10 37  1  0
 10 38  1  0
 11 39  1  6
 13 40  1  0
 14 41  1  0
 17 42  1  0
 18 43  1  0
 20 44  1  0
 21 45  1  0
 23 46  1  0
 26 47  1  0
 27 48  1  0
M  END
>  <smiles>  (46) 
O=C(NCC(=O)N1CCC[C@H]1c1ccc(Cl)cc1)c1ccc2cc(Cl)ccc2n1

>  <score_type>  (46) 
oracle

>  <origin>  (46) 
autodockgpu

>  <m_score__min__energy>  (46) 
-8.7400000000000002

>  <m_primary>  (46) 
energy

>  <rmsd>  (46) 
3.5062032681067086

>  <m_score__min__rmsd>  (46) 
3.5062032681067086

>  <meeko>  (46) 
{"free_energy": -7.87, "intermolecular_energy": -9.36, "internal_energy": -1.31, "cluster_size": 29, "cluster_id": 1, "rank_in_cluster": 26}

>  <energy>  (46) 
-8.36

>  <cluster_rmsd>  (46) 
0.19

>  <cluster>  (46) 
3

$$$$

     RDKit          3D

 48 51  0  0  0  0  0  0  0  0999 V2000
  140.5500   72.3320  221.2530 O   0  0  0  0  0  0  0  0  0  0  0  0
  139.8100   72.4360  222.2760 C   0  0  0  0  0  0  0  0  0  0  0  0
  138.8500   73.4930  222.2420 N   0  0  0  0  0  0  0  0  0  0  0  0
  138.8230   74.3220  221.0680 C   0  0  0  0  0  0  0  0  0  0  0  0
  138.4830   75.7220  221.3520 C   0  0  0  0  0  0  0  0  0  0  0  0
  137.5480   76.1000  222.1020 O   0  0  0  0  0  0  0  0  0  0  0  0
  139.2630   76.7390  220.7380 N   0  0  0  0  0  0  0  0  0  0  0  0
  138.8000   77.9340  220.0370 C   0  0  0  0  0  0  0  0  0  0  0  0
  139.8380   78.1400  218.9400 C   0  0  0  0  0  0  0  0  0  0  0  0
  140.8800   77.0550  219.1610 C   0  0  0  0  0  0  0  0  0  0  0  0
  140.7280   76.8320  220.6620 C   0  0  1  0  0  0  0  0  0  0  0  0
  141.2040   77.9660  221.4690 C   0  0  0  0  0  0  0  0  0  0  0  0
  141.8340   79.0750  220.9800 C   0  0  0  0  0  0  0  0  0  0  0  0
  142.2600   80.1090  221.7880 C   0  0  0  0  0  0  0  0  0  0  0  0
  142.0400   80.0190  223.1600 C   0  0  0  0  0  0  0  0  0  0  0  0
  142.5830   81.3350  224.1910 Cl  0  0  0  0  0  0  0  0  0  0  0  0
  141.4020   78.9010  223.6890 C   0  0  0  0  0  0  0  0  0  0  0  0
  140.9960   77.8980  222.8420 C   0  0  0  0  0  0  0  0  0  0  0  0
  139.9240   71.5350  223.4170 C   0  0  0  0  0  0  0  0  0  0  0  0
  139.5220   70.2280  223.2400 C   0  0  0  0  0  0  0  0  0  0  0  0
  139.5920   69.3020  224.2600 C   0  0  0  0  0  0  0  0  0  0  0  0
  140.0920   69.7430  225.4910 C   0  0  0  0  0  0  0  0  0  0  0  0
  140.1790   68.8600  226.5300 C   0  0  0  0  0  0  0  0  0  0  0  0
  140.6720   69.3120  227.7310 C   0  0  0  0  0  0  0  0  0  0  0  0
  140.7700   68.1450  229.0460 Cl  0  0  0  0  0  0  0  0  0  0  0  0
  141.0840   70.6260  227.9290 C   0  0  0  0  0  0  0  0  0  0  0  0
  140.9870   71.5080  226.8630 C   0  0  0  0  0  0  0  0  0  0  0  0
  140.4910   71.0530  225.6580 C   0  0  0  0  0  0  0  0  0  0  0  0
  140.4010   71.9270  224.6180 N   0  0  0  0  0  0  0  0  0  0  0  0
  138.2250   73.6070  223.0650 H   0  0  0  0  0  0  0  0  0  0  0  0
  139.8168   74.2928  220.5973 H   0  0  0  0  0  0  0  0  0  0  0  0
  138.0388   73.9244  220.4069 H   0  0  0  0  0  0  0  0  0  0  0  0
  137.8012   77.7724  219.6055 H   0  0  0  0  0  0  0  0  0  0  0  0
  138.7055   78.8058  220.7011 H   0  0  0  0  0  0  0  0  0  0  0  0
  139.3756   78.0331  217.9477 H   0  0  0  0  0  0  0  0  0  0  0  0
  140.2806   79.1463  218.9794 H   0  0  0  0  0  0  0  0  0  0  0  0
  140.6473   76.1448  218.5888 H   0  0  0  0  0  0  0  0  0  0  0  0
  141.8968   77.3204  218.8358 H   0  0  0  0  0  0  0  0  0  0  0  0
  141.3025   75.9765  221.0467 H   0  0  0  0  0  0  0  0  0  0  0  0
  142.0091   79.1467  219.8964 H   0  0  0  0  0  0  0  0  0  0  0  0
  142.7634   80.9870  221.3570 H   0  0  0  0  0  0  0  0  0  0  0  0
  141.2249   78.8212  224.7717 H   0  0  0  0  0  0  0  0  0  0  0  0
  140.4917   77.0155  223.2626 H   0  0  0  0  0  0  0  0  0  0  0  0
  139.1350   69.9153  222.2589 H   0  0  0  0  0  0  0  0  0  0  0  0
  139.2686   68.2610  224.1124 H   0  0  0  0  0  0  0  0  0  0  0  0
  139.8625   67.8136  226.4085 H   0  0  0  0  0  0  0  0  0  0  0  0
  141.4753   70.9558  228.9027 H   0  0  0  0  0  0  0  0  0  0  0  0
  141.3011   72.5561  226.9764 H   0  0  0  0  0  0  0  0  0  0  0  0
  1  2  2  0
  2  3  1  0
  3  4  1  0
  4  5  1  0
  5  6  2  0
  5  7  1  0
  7  8  1  0
  8  9  1  0
  9 10  1  0
 10 11  1  0
 11 12  1  0
 12 13  2  0
 13 14  1  0
 14 15  2  0
 15 16  1  0
 15 17  1  0
 17 18  2  0
  2 19  1  0
 19 20  2  0
 20 21  1  0
 21 22  2  0
 22 23  1  0
 23 24  2  0
 24 25  1  0
 24 26  1  0
 26 27  2  0
 27 28  1  0
 28 29  2  0
 11  7  1  0
 18 12  1  0
 29 19  1  0
 28 22  1  0
  3 30  1  0
  4 31  1  0
  4 32  1  0
  8 33  1  0
  8 34  1  0
  9 35  1  0
  9 36  1  0
 10 37  1  0
 10 38  1  0
 11 39  1  1
 13 40  1  0
 14 41  1  0
 17 42  1  0
 18 43  1  0
 20 44  1  0
 21 45  1  0
 23 46  1  0
 26 47  1  0
 27 48  1  0
M  END
>  <smiles>  (47) 
O=C(NCC(=O)N1CCC[C@H]1c1ccc(Cl)cc1)c1ccc2cc(Cl)ccc2n1

>  <score_type>  (47) 
oracle

>  <origin>  (47) 
autodockgpu

>  <m_score__min__energy>  (47) 
-8.7400000000000002

>  <m_primary>  (47) 
energy

>  <rmsd>  (47) 
1.7112390269700395

>  <m_score__min__rmsd>  (47) 
1.7112390269700395

>  <meeko>  (47) 
{"free_energy": -8.74, "intermolecular_energy": -10.23, "internal_energy": -1.23, "cluster_size": 29, "cluster_id": 1, "rank_in_cluster": 1}

>  <energy>  (47) 
-8.25

>  <cluster_rmsd>  (47) 
0.26

>  <cluster>  (47) 
3

$$$$

     RDKit          3D

 48 51  0  0  0  0  0  0  0  0999 V2000
  139.8870   74.0410  222.0680 O   0  0  0  0  0  0  0  0  0  0  0  0
  140.2260   72.8250  221.9670 C   0  0  0  0  0  0  0  0  0  0  0  0
  140.6440   72.4030  220.6680 N   0  0  0  0  0  0  0  0  0  0  0  0
  140.6380   73.3880  219.6200 C   0  0  0  0  0  0  0  0  0  0  0  0
  141.8400   74.2310  219.6070 C   0  0  0  0  0  0  0  0  0  0  0  0
  143.0170   73.8130  219.7450 O   0  0  0  0  0  0  0  0  0  0  0  0
  141.6740   75.6310  219.4260 N   0  0  0  0  0  0  0  0  0  0  0  0
  140.6690   76.3260  218.6250 C   0  0  0  0  0  0  0  0  0  0  0  0
  141.4040   77.5540  218.1010 C   0  0  0  0  0  0  0  0  0  0  0  0
  142.7890   77.4940  218.7280 C   0  0  0  0  0  0  0  0  0  0  0  0
  142.4770   76.7180  220.0030 C   0  0  1  0  0  0  0  0  0  0  0  0
  141.6730   77.4830  220.9680 C   0  0  0  0  0  0  0  0  0  0  0  0
  140.7590   76.9520  221.8340 C   0  0  0  0  0  0  0  0  0  0  0  0
  140.0320   77.7230  222.7170 C   0  0  0  0  0  0  0  0  0  0  0  0
  140.2360   79.1000  222.7280 C   0  0  0  0  0  0  0  0  0  0  0  0
  139.3110   80.0830  223.8530 Cl  0  0  0  0  0  0  0  0  0  0  0  0
  141.1590   79.6710  221.8570 C   0  0  0  0  0  0  0  0  0  0  0  0
  141.8600   78.8610  220.9960 C   0  0  0  0  0  0  0  0  0  0  0  0
  140.1940   71.9100  223.1020 C   0  0  0  0  0  0  0  0  0  0  0  0
  139.6310   70.6660  222.9020 C   0  0  0  0  0  0  0  0  0  0  0  0
  139.5560   69.7330  223.9150 C   0  0  0  0  0  0  0  0  0  0  0  0
  140.0780   70.0970  225.1620 C   0  0  0  0  0  0  0  0  0  0  0  0
  140.0240   69.2040  226.1930 C   0  0  0  0  0  0  0  0  0  0  0  0
  140.5410   69.5800  227.4100 C   0  0  0  0  0  0  0  0  0  0  0  0
  140.4550   68.4020  228.7160 Cl  0  0  0  0  0  0  0  0  0  0  0  0
  141.1140   70.8290  227.6320 C   0  0  0  0  0  0  0  0  0  0  0  0
  141.1580   71.7230  226.5720 C   0  0  0  0  0  0  0  0  0  0  0  0
  140.6380   71.3440  225.3520 C   0  0  0  0  0  0  0  0  0  0  0  0
  140.6880   72.2290  224.3170 N   0  0  0  0  0  0  0  0  0  0  0  0
  140.9300   71.4100  220.5500 H   0  0  0  0  0  0  0  0  0  0  0  0
  140.5658   72.8684  218.6532 H   0  0  0  0  0  0  0  0  0  0  0  0
  139.7783   74.0500  219.8007 H   0  0  0  0  0  0  0  0  0  0  0  0
  140.3236   75.6926  217.7947 H   0  0  0  0  0  0  0  0  0  0  0  0
  139.7696   76.5842  219.2033 H   0  0  0  0  0  0  0  0  0  0  0  0
  141.4764   77.5202  217.0039 H   0  0  0  0  0  0  0  0  0  0  0  0
  140.8787   78.4857  218.3578 H   0  0  0  0  0  0  0  0  0  0  0  0
  143.5027   76.9549  218.0877 H   0  0  0  0  0  0  0  0  0  0  0  0
  143.2644   78.4728  218.8892 H   0  0  0  0  0  0  0  0  0  0  0  0
  143.3688   76.4276  220.5778 H   0  0  0  0  0  0  0  0  0  0  0  0
  140.5962   75.8641  221.8266 H   0  0  0  0  0  0  0  0  0  0  0  0
  139.3049   77.2586  223.3994 H   0  0  0  0  0  0  0  0  0  0  0  0
  141.3256   80.7583  221.8576 H   0  0  0  0  0  0  0  0  0  0  0  0
  142.5896   79.3154  220.3096 H   0  0  0  0  0  0  0  0  0  0  0  0
  139.2317   70.4120  221.9090 H   0  0  0  0  0  0  0  0  0  0  0  0
  139.1046   68.7436  223.7499 H   0  0  0  0  0  0  0  0  0  0  0  0
  139.5779   68.2083  226.0535 H   0  0  0  0  0  0  0  0  0  0  0  0
  141.5197   71.0990  228.6182 H   0  0  0  0  0  0  0  0  0  0  0  0
  141.6018   72.7210  226.7028 H   0  0  0  0  0  0  0  0  0  0  0  0
  1  2  2  0
  2  3  1  0
  3  4  1  0
  4  5  1  0
  5  6  2  0
  5  7  1  0
  7  8  1  0
  8  9  1  0
  9 10  1  0
 10 11  1  0
 11 12  1  0
 12 13  2  0
 13 14  1  0
 14 15  2  0
 15 16  1  0
 15 17  1  0
 17 18  2  0
  2 19  1  0
 19 20  2  0
 20 21  1  0
 21 22  2  0
 22 23  1  0
 23 24  2  0
 24 25  1  0
 24 26  1  0
 26 27  2  0
 27 28  1  0
 28 29  2  0
 11  7  1  0
 18 12  1  0
 29 19  1  0
 28 22  1  0
  3 30  1  0
  4 31  1  0
  4 32  1  0
  8 33  1  0
  8 34  1  0
  9 35  1  0
  9 36  1  0
 10 37  1  0
 10 38  1  0
 11 39  1  1
 13 40  1  0
 14 41  1  0
 17 42  1  0
 18 43  1  0
 20 44  1  0
 21 45  1  0
 23 46  1  0
 26 47  1  0
 27 48  1  0
M  END
>  <smiles>  (48) 
O=C(NCC(=O)N1CCC[C@H]1c1ccc(Cl)cc1)c1ccc2cc(Cl)ccc2n1

>  <score_type>  (48) 
oracle

>  <origin>  (48) 
autodockgpu

>  <m_score__min__energy>  (48) 
-8.7400000000000002

>  <m_primary>  (48) 
energy

>  <rmsd>  (48) 
2.0632921935389517

>  <m_score__min__rmsd>  (48) 
2.0632921935389517

>  <meeko>  (48) 
{"free_energy": -8.07, "intermolecular_energy": -9.56, "internal_energy": -1.45, "cluster_size": 29, "cluster_id": 1, "rank_in_cluster": 22}

>  <energy>  (48) 
-8.12

>  <cluster_rmsd>  (48) 
0.77

>  <cluster>  (48) 
3

$$$$

     RDKit          3D

 48 51  0  0  0  0  0  0  0  0999 V2000
  140.0480   72.1350  220.8740 O   0  0  0  0  0  0  0  0  0  0  0  0
  139.5300   72.3690  222.0060 C   0  0  0  0  0  0  0  0  0  0  0  0
  138.7360   73.5530  222.0930 N   0  0  0  0  0  0  0  0  0  0  0  0
  138.6060   74.3490  220.9020 C   0  0  0  0  0  0  0  0  0  0  0  0
  138.6790   75.7930  221.1570 C   0  0  0  0  0  0  0  0  0  0  0  0
  137.6890   76.5460  221.3350 O   0  0  0  0  0  0  0  0  0  0  0  0
  139.9640   76.4000  221.2080 N   0  0  0  0  0  0  0  0  0  0  0  0
  140.6720   76.9180  222.3760 C   0  0  0  0  0  0  0  0  0  0  0  0
  141.4480   78.1120  221.8330 C   0  0  0  0  0  0  0  0  0  0  0  0
  141.1670   78.1300  220.3370 C   0  0  0  0  0  0  0  0  0  0  0  0
  140.8890   76.6500  220.0950 C   0  0  1  0  0  0  0  0  0  0  0  0
  142.0850   75.8050  220.2320 C   0  0  0  0  0  0  0  0  0  0  0  0
  143.3650   76.1920  219.9490 C   0  0  0  0  0  0  0  0  0  0  0  0
  144.4490   75.3520  220.0970 C   0  0  0  0  0  0  0  0  0  0  0  0
  144.2320   74.0550  220.5540 C   0  0  0  0  0  0  0  0  0  0  0  0
  145.6120   72.9840  220.7430 Cl  0  0  0  0  0  0  0  0  0  0  0  0
  142.9400   73.6300  220.8500 C   0  0  0  0  0  0  0  0  0  0  0  0
  141.8930   74.5050  220.6860 C   0  0  0  0  0  0  0  0  0  0  0  0
  139.7280   71.4890  223.1520 C   0  0  0  0  0  0  0  0  0  0  0  0
  139.3620   70.1670  223.0110 C   0  0  0  0  0  0  0  0  0  0  0  0
  139.5110   69.2590  224.0390 C   0  0  0  0  0  0  0  0  0  0  0  0
  140.0540   69.7340  225.2380 C   0  0  0  0  0  0  0  0  0  0  0  0
  140.2200   68.8690  226.2830 C   0  0  0  0  0  0  0  0  0  0  0  0
  140.7540   69.3540  227.4530 C   0  0  0  0  0  0  0  0  0  0  0  0
  140.9530   68.2100  228.7770 Cl  0  0  0  0  0  0  0  0  0  0  0  0
  141.1310   70.6840  227.6150 C   0  0  0  0  0  0  0  0  0  0  0  0
  140.9540   71.5460  226.5430 C   0  0  0  0  0  0  0  0  0  0  0  0
  140.4170   71.0580  225.3700 C   0  0  0  0  0  0  0  0  0  0  0  0
  140.2490   71.9140  224.3230 N   0  0  0  0  0  0  0  0  0  0  0  0
  138.2950   73.7750  223.0080 H   0  0  0  0  0  0  0  0  0  0  0  0
  139.4156   74.0755  220.2093 H   0  0  0  0  0  0  0  0  0  0  0  0
  137.6114   74.1429  220.4797 H   0  0  0  0  0  0  0  0  0  0  0  0
  139.9630   77.2335  223.1556 H   0  0  0  0  0  0  0  0  0  0  0  0
  141.3233   76.1662  222.8457 H   0  0  0  0  0  0  0  0  0  0  0  0
  141.0982   79.0437  222.3016 H   0  0  0  0  0  0  0  0  0  0  0  0
  142.5241   78.0318  222.0462 H   0  0  0  0  0  0  0  0  0  0  0  0
  140.2937   78.7533  220.0943 H   0  0  0  0  0  0  0  0  0  0  0  0
  141.9743   78.5538  219.7216 H   0  0  0  0  0  0  0  0  0  0  0  0
  140.5225   76.4238  219.0828 H   0  0  0  0  0  0  0  0  0  0  0  0
  143.5379   77.2166  219.5880 H   0  0  0  0  0  0  0  0  0  0  0  0
  145.4649   75.7000  219.8586 H   0  0  0  0  0  0  0  0  0  0  0  0
  142.7593   72.6066  221.2107 H   0  0  0  0  0  0  0  0  0  0  0  0
  140.8730   74.1668  220.9209 H   0  0  0  0  0  0  0  0  0  0  0  0
  138.9401   69.8274  222.0536 H   0  0  0  0  0  0  0  0  0  0  0  0
  139.2154   68.2060  223.9211 H   0  0  0  0  0  0  0  0  0  0  0  0
  139.9334   67.8111  226.1901 H   0  0  0  0  0  0  0  0  0  0  0  0
  141.5565   71.0407  228.5646 H   0  0  0  0  0  0  0  0  0  0  0  0
  141.2382   72.6053  226.6272 H   0  0  0  0  0  0  0  0  0  0  0  0
  1  2  2  0
  2  3  1  0
  3  4  1  0
  4  5  1  0
  5  6  2  0
  5  7  1  0
  7  8  1  0
  8  9  1  0
  9 10  1  0
 10 11  1  0
 11 12  1  0
 12 13  2  0
 13 14  1  0
 14 15  2  0
 15 16  1  0
 15 17  1  0
 17 18  2  0
  2 19  1  0
 19 20  2  0
 20 21  1  0
 21 22  2  0
 22 23  1  0
 23 24  2  0
 24 25  1  0
 24 26  1  0
 26 27  2  0
 27 28  1  0
 28 29  2  0
 11  7  1  0
 18 12  1  0
 29 19  1  0
 28 22  1  0
  3 30  1  0
  4 31  1  0
  4 32  1  0
  8 33  1  0
  8 34  1  0
  9 35  1  0
  9 36  1  0
 10 37  1  0
 10 38  1  0
 11 39  1  6
 13 40  1  0
 14 41  1  0
 17 42  1  0
 18 43  1  0
 20 44  1  0
 21 45  1  0
 23 46  1  0
 26 47  1  0
 27 48  1  0
M  END
>  <smiles>  (49) 
O=C(NCC(=O)N1CCC[C@H]1c1ccc(Cl)cc1)c1ccc2cc(Cl)ccc2n1

>  <score_type>  (49) 
oracle

>  <origin>  (49) 
autodockgpu

>  <m_score__min__energy>  (49) 
-8.7400000000000002

>  <m_primary>  (49) 
energy

>  <rmsd>  (49) 
2.368881528852703

>  <m_score__min__rmsd>  (49) 
2.368881528852703

>  <meeko>  (49) 
{"free_energy": -8.51, "intermolecular_energy": -10.0, "internal_energy": -1.65, "cluster_size": 15, "cluster_id": 2, "rank_in_cluster": 2}

>  <energy>  (49) 
-8.29

>  <cluster_rmsd>  (49) 
0.0

>  <cluster>  (49) 
4

$$$$

     RDKit          3D

 48 51  0  0  0  0  0  0  0  0999 V2000
  140.5420   73.7650  222.1740 O   0  0  0  0  0  0  0  0  0  0  0  0
  139.7370   72.8000  222.3330 C   0  0  0  0  0  0  0  0  0  0  0  0
  138.6780   72.7120  221.3790 N   0  0  0  0  0  0  0  0  0  0  0  0
  138.6330   73.7140  220.3490 C   0  0  0  0  0  0  0  0  0  0  0  0
  138.4760   75.0770  220.8700 C   0  0  0  0  0  0  0  0  0  0  0  0
  137.6090   75.4350  221.7080 O   0  0  0  0  0  0  0  0  0  0  0  0
  139.3650   76.0820  220.4000 N   0  0  0  0  0  0  0  0  0  0  0  0
  139.0750   77.2000  219.5070 C   0  0  0  0  0  0  0  0  0  0  0  0
  140.3600   77.3730  218.7060 C   0  0  0  0  0  0  0  0  0  0  0  0
  141.3340   76.3550  219.2820 C   0  0  0  0  0  0  0  0  0  0  0  0
  140.7950   76.2350  220.7030 C   0  0  1  0  0  0  0  0  0  0  0  0
  141.0130   77.4460  221.5100 C   0  0  0  0  0  0  0  0  0  0  0  0
  140.3830   77.7350  222.6880 C   0  0  0  0  0  0  0  0  0  0  0  0
  140.6290   78.8900  223.4020 C   0  0  0  0  0  0  0  0  0  0  0  0
  141.5580   79.8000  222.9030 C   0  0  0  0  0  0  0  0  0  0  0  0
  141.8720   81.2710  223.8100 Cl  0  0  0  0  0  0  0  0  0  0  0  0
  142.2150   79.5330  221.7050 C   0  0  0  0  0  0  0  0  0  0  0  0
  141.9360   78.3690  221.0310 C   0  0  0  0  0  0  0  0  0  0  0  0
  139.8780   71.8360  223.4190 C   0  0  0  0  0  0  0  0  0  0  0  0
  139.4790   70.5390  223.1760 C   0  0  0  0  0  0  0  0  0  0  0  0
  139.5730   69.5580  224.1400 C   0  0  0  0  0  0  0  0  0  0  0  0
  140.0940   69.9310  225.3840 C   0  0  0  0  0  0  0  0  0  0  0  0
  140.2060   68.9910  226.3690 C   0  0  0  0  0  0  0  0  0  0  0  0
  140.7200   69.3770  227.5840 C   0  0  0  0  0  0  0  0  0  0  0  0
  140.8490   68.1380  228.8290 Cl  0  0  0  0  0  0  0  0  0  0  0  0
  141.1290   70.6800  227.8500 C   0  0  0  0  0  0  0  0  0  0  0  0
  141.0070   71.6200  226.8370 C   0  0  0  0  0  0  0  0  0  0  0  0
  140.4900   71.2310  225.6180 C   0  0  0  0  0  0  0  0  0  0  0  0
  140.3760   72.1630  224.6310 N   0  0  0  0  0  0  0  0  0  0  0  0
  137.9980   71.9310  221.4800 H   0  0  0  0  0  0  0  0  0  0  0  0
  139.5697   73.6659  219.7742 H   0  0  0  0  0  0  0  0  0  0  0  0
  137.7521   73.5005  219.7257 H   0  0  0  0  0  0  0  0  0  0  0  0
  138.2298   76.9623  218.8443 H   0  0  0  0  0  0  0  0  0  0  0  0
  138.7876   78.1126  220.0497 H   0  0  0  0  0  0  0  0  0  0  0  0
  140.1791   77.1723  217.6397 H   0  0  0  0  0  0  0  0  0  0  0  0
  140.7510   78.3988  218.7755 H   0  0  0  0  0  0  0  0  0  0  0  0
  141.2845   75.3959  218.7457 H   0  0  0  0  0  0  0  0  0  0  0  0
  142.3936   76.6426  219.2145 H   0  0  0  0  0  0  0  0  0  0  0  0
  141.2670   75.4361  221.2938 H   0  0  0  0  0  0  0  0  0  0  0  0
  139.6494   77.0171  223.0834 H   0  0  0  0  0  0  0  0  0  0  0  0
  140.1017   79.0882  224.3468 H   0  0  0  0  0  0  0  0  0  0  0  0
  142.9494   80.2462  221.3026 H   0  0  0  0  0  0  0  0  0  0  0  0
  142.4578   78.1612  220.0852 H   0  0  0  0  0  0  0  0  0  0  0  0
  139.0748   70.2799  222.1863 H   0  0  0  0  0  0  0  0  0  0  0  0
  139.2519   68.5252  223.9397 H   0  0  0  0  0  0  0  0  0  0  0  0
  139.8927   67.9512  226.1942 H   0  0  0  0  0  0  0  0  0  0  0  0
  141.5367   70.9564  228.8336 H   0  0  0  0  0  0  0  0  0  0  0  0
  141.3183   72.6618  227.0033 H   0  0  0  0  0  0  0  0  0  0  0  0
  1  2  2  0
  2  3  1  0
  3  4  1  0
  4  5  1  0
  5  6  2  0
  5  7  1  0
  7  8  1  0
  8  9  1  0
  9 10  1  0
 10 11  1  0
 11 12  1  0
 12 13  2  0
 13 14  1  0
 14 15  2  0
 15 16  1  0
 15 17  1  0
 17 18  2  0
  2 19  1  0
 19 20  2  0
 20 21  1  0
 21 22  2  0
 22 23  1  0
 23 24  2  0
 24 25  1  0
 24 26  1  0
 26 27  2  0
 27 28  1  0
 28 29  2  0
 11  7  1  0
 18 12  1  0
 29 19  1  0
 28 22  1  0
  3 30  1  0
  4 31  1  0
  4 32  1  0
  8 33  1  0
  8 34  1  0
  9 35  1  0
  9 36  1  0
 10 37  1  0
 10 38  1  0
 11 39  1  1
 13 40  1  0
 14 41  1  0
 17 42  1  0
 18 43  1  0
 20 44  1  0
 21 45  1  0
 23 46  1  0
 26 47  1  0
 27 48  1  0
M  END
>  <smiles>  (50) 
O=C(NCC(=O)N1CCC[C@H]1c1ccc(Cl)cc1)c1ccc2cc(Cl)ccc2n1

>  <score_type>  (50) 
oracle

>  <origin>  (50) 
autodockgpu

>  <m_score__min__energy>  (50) 
-8.7400000000000002

>  <m_primary>  (50) 
energy

>  <rmsd>  (50) 
1.6544609080486397

>  <m_score__min__rmsd>  (50) 
1.6544609080486397

>  <meeko>  (50) 
{"free_energy": -8.32, "intermolecular_energy": -9.82, "internal_energy": -1.22, "cluster_size": 29, "cluster_id": 1, "rank_in_cluster": 13}

>  <energy>  (50) 
-7.2

>  <cluster_rmsd>  (50) 
0.0

>  <cluster>  (50) 
5

$$$$
