
     RDKit          3D

 65 69  0  0  0  0  0  0  0  0999 V2000
  141.8440   81.7320  222.6540 C   0  0  0  0  0  0  0  0  0  0  0  0
  141.8590   81.0090  223.8470 C   0  0  0  0  0  0  0  0  0  0  0  0
  141.4490   79.6830  223.8850 C   0  0  0  0  0  0  0  0  0  0  0  0
  141.0180   79.0560  222.7360 C   0  0  0  0  0  0  0  0  0  0  0  0
  141.0080   79.7920  221.5540 C   0  0  0  0  0  0  0  0  0  0  0  0
  141.4120   81.1080  221.5010 C   0  0  0  0  0  0  0  0  0  0  0  0
  140.5280   79.0480  220.3430 C   0  0  0  0  0  0  0  0  0  0  0  0
  141.4200   77.8030  220.2760 C   0  0  0  0  0  0  0  0  0  0  0  0
  141.0890   77.0280  221.4710 N   0  0  0  0  0  0  0  0  0  0  0  0
  141.3030   75.6190  221.4040 C   0  0  0  0  0  0  0  0  0  0  0  0
  140.4940   74.8030  222.0730 N   0  0  0  0  0  0  0  0  0  0  0  0
  140.6790   73.4670  222.0240 C   0  0  0  0  0  0  0  0  0  0  0  0
  139.7850   72.6310  222.7550 N   0  0  0  0  0  0  0  0  0  0  0  0
  140.1810   71.3410  223.2760 C   0  0  0  0  0  0  0  0  0  0  0  0
  139.6000   71.1300  224.6560 C   0  0  0  0  0  0  0  0  0  0  0  0
  140.7470   70.7280  225.5740 C   0  0  2  0  0  0  0  0  0  0  0  0
  140.4030   69.4300  226.2060 C   0  0  0  0  0  0  0  0  0  0  0  0
  140.6710   69.3760  227.6870 C   0  0  0  0  0  0  0  0  0  0  0  0
  140.0830   70.6240  228.3010 C   0  0  0  0  0  0  0  0  0  0  0  0
  140.8550   71.7760  227.7730 C   0  0  0  0  0  0  0  0  0  0  0  0
  141.1950   71.7740  226.4070 N   0  0  0  0  0  0  0  0  0  0  0  0
  141.6970   73.0040  221.2840 N   0  0  0  0  0  0  0  0  0  0  0  0
  142.5350   73.7980  220.5960 C   0  0  0  0  0  0  0  0  0  0  0  0
  143.5930   73.2400  219.8300 N   0  0  0  0  0  0  0  0  0  0  0  0
  144.1120   71.9160  220.1060 C   0  0  0  0  0  0  0  0  0  0  0  0
  145.5930   71.9730  219.7170 C   0  0  0  0  0  0  0  0  0  0  0  0
  145.6440   72.0650  218.2920 N   0  0  0  0  0  0  0  0  0  0  0  0
  144.8390   73.1110  217.7240 C   0  0  0  0  0  0  0  0  0  0  0  0
  144.1720   73.9890  218.7550 C   0  0  0  0  0  0  0  0  0  0  0  0
  142.3230   75.1280  220.6640 N   0  0  0  0  0  0  0  0  0  0  0  0
  140.5650   77.6560  222.6760 C   0  0  0  0  0  0  0  0  0  0  0  0
  142.1710   82.7820  222.6325 H   0  0  0  0  0  0  0  0  0  0  0  0
  142.2009   81.4969  224.7717 H   0  0  0  0  0  0  0  0  0  0  0  0
  141.4683   79.1307  224.8361 H   0  0  0  0  0  0  0  0  0  0  0  0
  141.3905   81.6569  220.5480 H   0  0  0  0  0  0  0  0  0  0  0  0
  139.4715   78.7633  220.4555 H   0  0  0  0  0  0  0  0  0  0  0  0
  140.5900   79.6556  219.4281 H   0  0  0  0  0  0  0  0  0  0  0  0
  141.2034   77.2220  219.3674 H   0  0  0  0  0  0  0  0  0  0  0  0
  142.4878   78.0644  220.2389 H   0  0  0  0  0  0  0  0  0  0  0  0
  138.8200   73.0080  222.8930 H   0  0  0  0  0  0  0  0  0  0  0  0
  139.8154   70.5507  222.6039 H   0  0  0  0  0  0  0  0  0  0  0  0
  141.2784   71.3035  223.3409 H   0  0  0  0  0  0  0  0  0  0  0  0
  139.1381   72.0610  225.0163 H   0  0  0  0  0  0  0  0  0  0  0  0
  138.8248   70.3498  224.6369 H   0  0  0  0  0  0  0  0  0  0  0  0
  141.6690   70.5469  225.0021 H   0  0  0  0  0  0  0  0  0  0  0  0
  139.3322   69.2390  226.0417 H   0  0  0  0  0  0  0  0  0  0  0  0
  141.0471   68.6700  225.7396 H   0  0  0  0  0  0  0  0  0  0  0  0
  140.1966   68.4841  228.1221 H   0  0  0  0  0  0  0  0  0  0  0  0
  141.7519   69.3203  227.8831 H   0  0  0  0  0  0  0  0  0  0  0  0
  139.0237   70.7194  228.0204 H   0  0  0  0  0  0  0  0  0  0  0  0
  140.1406   70.5845  229.3988 H   0  0  0  0  0  0  0  0  0  0  0  0
  140.2599   72.6819  227.9605 H   0  0  0  0  0  0  0  0  0  0  0  0
  141.8210   71.7220  228.2964 H   0  0  0  0  0  0  0  0  0  0  0  0
  141.0130   72.6780  225.9150 H   0  0  0  0  0  0  0  0  0  0  0  0
  144.0031   71.6743  221.1736 H   0  0  0  0  0  0  0  0  0  0  0  0
  143.5708   71.1386  219.5468 H   0  0  0  0  0  0  0  0  0  0  0  0
  146.0696   72.8546  220.1704 H   0  0  0  0  0  0  0  0  0  0  0  0
  146.1286   71.0809  220.0736 H   0  0  0  0  0  0  0  0  0  0  0  0
  145.4690   71.1660  217.8280 H   0  0  0  0  0  0  0  0  0  0  0  0
  145.4832   73.7423  217.0943 H   0  0  0  0  0  0  0  0  0  0  0  0
  144.0378   72.6244  217.1484 H   0  0  0  0  0  0  0  0  0  0  0  0
  144.9234   74.6766  219.1703 H   0  0  0  0  0  0  0  0  0  0  0  0
  143.3574   74.5308  218.2520 H   0  0  0  0  0  0  0  0  0  0  0  0
  139.4656   77.6268  222.6564 H   0  0  0  0  0  0  0  0  0  0  0  0
  140.9302   77.1139  223.5608 H   0  0  0  0  0  0  0  0  0  0  0  0
  1  2  2  0
  2  3  1  0
  3  4  2  0
  4  5  1  0
  5  6  2  0
  5  7  1  0
  7  8  1  0
  8  9  1  0
  9 10  1  0
 10 11  2  0
 11 12  1  0
 12 13  1  0
 13 14  1  0
 14 15  1  0
 15 16  1  0
 16 17  1  0
 17 18  1  0
 18 19  1  0
 19 20  1  0
 20 21  1  0
 12 22  2  0
 22 23  1  0
 23 24  1  0
 24 25  1  0
 25 26  1  0
 26 27  1  0
 27 28  1  0
 28 29  1  0
 23 30  2  0
  9 31  1  0
  6  1  1  0
 30 10  1  0
 31  4  1  0
 21 16  1  0
 29 24  1  0
  1 32  1  0
  2 33  1  0
  3 34  1  0
  6 35  1  0
  7 36  1  0
  7 37  1  0
  8 38  1  0
  8 39  1  0
 13 40  1  0
 14 41  1  0
 14 42  1  0
 15 43  1  0
 15 44  1  0
 16 45  1  6
 17 46  1  0
 17 47  1  0
 18 48  1  0
 18 49  1  0
 19 50  1  0
 19 51  1  0
 20 52  1  0
 20 53  1  0
 21 54  1  0
 25 55  1  0
 25 56  1  0
 26 57  1  0
 26 58  1  0
 27 59  1  0
 28 60  1  0
 28 61  1  0
 29 62  1  0
 29 63  1  0
 31 64  1  0
 31 65  1  0
M  END
>  <smiles>  (1) 
c1ccc2c(c1)CCN(c1nc(NCCC3CCCCN3)nc(N3CCNCC3)n1)C2

>  <score_type>  (1) 
oracle

>  <origin>  (1) 
autodockgpu

>  <m_score__min__energy>  (1) 
-10.199999999999999

>  <m_primary>  (1) 
energy

>  <rmsd>  (1) 
5.063712685822994

>  <m_score__min__rmsd>  (1) 
5.063712685822994

>  <meeko>  (1) 
{"free_energy": -9.74, "intermolecular_energy": -11.53, "internal_energy": -0.76, "cluster_size": 38, "cluster_id": 1, "rank_in_cluster": 13}

>  <energy>  (1) 
-10.2

>  <cluster_rmsd>  (1) 
0.0

>  <cluster>  (1) 
1

$$$$

     RDKit          3D

 65 69  0  0  0  0  0  0  0  0999 V2000
  141.9860   81.5470  222.5620 C   0  0  0  0  0  0  0  0  0  0  0  0
  141.9020   80.8760  223.7820 C   0  0  0  0  0  0  0  0  0  0  0  0
  141.4360   79.5690  223.8490 C   0  0  0  0  0  0  0  0  0  0  0  0
  141.0470   78.9110  222.7030 C   0  0  0  0  0  0  0  0  0  0  0  0
  141.1360   79.5960  221.4940 C   0  0  0  0  0  0  0  0  0  0  0  0
  141.5960   80.8920  221.4120 C   0  0  0  0  0  0  0  0  0  0  0  0
  140.6970   78.8210  220.2870 C   0  0  0  0  0  0  0  0  0  0  0  0
  141.5390   77.5400  220.3240 C   0  0  0  0  0  0  0  0  0  0  0  0
  141.1070   76.8300  221.5270 N   0  0  0  0  0  0  0  0  0  0  0  0
  141.2670   75.4120  221.5300 C   0  0  0  0  0  0  0  0  0  0  0  0
  140.3140   74.6490  222.0590 N   0  0  0  0  0  0  0  0  0  0  0  0
  140.4450   73.3060  222.0720 C   0  0  0  0  0  0  0  0  0  0  0  0
  139.3980   72.5290  222.6470 N   0  0  0  0  0  0  0  0  0  0  0  0
  139.5720   71.1390  223.0090 C   0  0  0  0  0  0  0  0  0  0  0  0
  139.1470   70.9110  224.4420 C   0  0  0  0  0  0  0  0  0  0  0  0
  140.3850   70.4850  225.2200 C   0  0  2  0  0  0  0  0  0  0  0  0
  139.9800   69.4560  226.2110 C   0  0  0  0  0  0  0  0  0  0  0  0
  140.5510   69.6700  227.5880 C   0  0  0  0  0  0  0  0  0  0  0  0
  140.3230   71.1160  227.9560 C   0  0  0  0  0  0  0  0  0  0  0  0
  141.1380   71.9380  227.0270 C   0  0  0  0  0  0  0  0  0  0  0  0
  141.1680   71.5680  225.6700 N   0  0  0  0  0  0  0  0  0  0  0  0
  141.5570   72.7820  221.5390 N   0  0  0  0  0  0  0  0  0  0  0  0
  142.5400   73.5210  220.9960 C   0  0  0  0  0  0  0  0  0  0  0  0
  143.6920   72.8980  220.4470 N   0  0  0  0  0  0  0  0  0  0  0  0
  145.0250   73.2250  220.9100 C   0  0  0  0  0  0  0  0  0  0  0  0
  145.9340   73.0400  219.6900 C   0  0  0  0  0  0  0  0  0  0  0  0
  146.0010   71.6350  219.4340 N   0  0  0  0  0  0  0  0  0  0  0  0
  144.7280   70.9760  219.3330 C   0  0  0  0  0  0  0  0  0  0  0  0
  143.5510   71.9190  219.4110 C   0  0  0  0  0  0  0  0  0  0  0  0
  142.3800   74.8590  220.9970 N   0  0  0  0  0  0  0  0  0  0  0  0
  140.5400   77.5290  222.6720 C   0  0  0  0  0  0  0  0  0  0  0  0
  142.3571   82.5815  222.5175 H   0  0  0  0  0  0  0  0  0  0  0  0
  142.2094   81.3895  224.7049 H   0  0  0  0  0  0  0  0  0  0  0  0
  141.3774   79.0575  224.8211 H   0  0  0  0  0  0  0  0  0  0  0  0
  141.6519   81.4002  220.4380 H   0  0  0  0  0  0  0  0  0  0  0  0
  139.6247   78.5830  220.3470 H   0  0  0  0  0  0  0  0  0  0  0  0
  140.8375   79.3863  219.3539 H   0  0  0  0  0  0  0  0  0  0  0  0
  141.3519   76.9297  219.4281 H   0  0  0  0  0  0  0  0  0  0  0  0
  142.6171   77.7578  220.3408 H   0  0  0  0  0  0  0  0  0  0  0  0
  138.4900   73.0250  222.7920 H   0  0  0  0  0  0  0  0  0  0  0  0
  138.9590   70.5119  222.3449 H   0  0  0  0  0  0  0  0  0  0  0  0
  140.6343   70.8732  222.9050 H   0  0  0  0  0  0  0  0  0  0  0  0
  138.7377   71.8401  224.8655 H   0  0  0  0  0  0  0  0  0  0  0  0
  138.3669   70.1376  224.4981 H   0  0  0  0  0  0  0  0  0  0  0  0
  141.1180   69.9947  224.5626 H   0  0  0  0  0  0  0  0  0  0  0  0
  138.8827   69.4628  226.2872 H   0  0  0  0  0  0  0  0  0  0  0  0
  140.3749   68.4950  225.8497 H   0  0  0  0  0  0  0  0  0  0  0  0
  140.0434   69.0143  228.3108 H   0  0  0  0  0  0  0  0  0  0  0  0
  141.6248   69.4320  227.6026 H   0  0  0  0  0  0  0  0  0  0  0  0
  139.2580   71.3691  227.8481 H   0  0  0  0  0  0  0  0  0  0  0  0
  140.6123   71.3038  229.0005 H   0  0  0  0  0  0  0  0  0  0  0  0
  140.7525   72.9670  227.0769 H   0  0  0  0  0  0  0  0  0  0  0  0
  142.1729   71.7982  227.3726 H   0  0  0  0  0  0  0  0  0  0  0  0
  141.0330   72.3620  225.0030 H   0  0  0  0  0  0  0  0  0  0  0  0
  145.0648   74.2651  221.2659 H   0  0  0  0  0  0  0  0  0  0  0  0
  145.3342   72.5882  221.7520 H   0  0  0  0  0  0  0  0  0  0  0  0
  145.5113   73.5637  218.8199 H   0  0  0  0  0  0  0  0  0  0  0  0
  146.9353   73.4552  219.8772 H   0  0  0  0  0  0  0  0  0  0  0  0
  146.6270   71.1420  220.0820 H   0  0  0  0  0  0  0  0  0  0  0  0
  144.6860   70.4464  218.3698 H   0  0  0  0  0  0  0  0  0  0  0  0
  144.6502   70.2915  220.1906 H   0  0  0  0  0  0  0  0  0  0  0  0
  143.4529   72.4393  218.4468 H   0  0  0  0  0  0  0  0  0  0  0  0
  142.6595   71.3176  219.6426 H   0  0  0  0  0  0  0  0  0  0  0  0
  139.4433   77.5425  222.5872 H   0  0  0  0  0  0  0  0  0  0  0  0
  140.8296   77.0111  223.5982 H   0  0  0  0  0  0  0  0  0  0  0  0
  1  2  2  0
  2  3  1  0
  3  4  2  0
  4  5  1  0
  5  6  2  0
  5  7  1  0
  7  8  1  0
  8  9  1  0
  9 10  1  0
 10 11  2  0
 11 12  1  0
 12 13  1  0
 13 14  1  0
 14 15  1  0
 15 16  1  0
 16 17  1  0
 17 18  1  0
 18 19  1  0
 19 20  1  0
 20 21  1  0
 12 22  2  0
 22 23  1  0
 23 24  1  0
 24 25  1  0
 25 26  1  0
 26 27  1  0
 27 28  1  0
 28 29  1  0
 23 30  2  0
  9 31  1  0
  6  1  1  0
 30 10  1  0
 31  4  1  0
 21 16  1  0
 29 24  1  0
  1 32  1  0
  2 33  1  0
  3 34  1  0
  6 35  1  0
  7 36  1  0
  7 37  1  0
  8 38  1  0
  8 39  1  0
 13 40  1  0
 14 41  1  0
 14 42  1  0
 15 43  1  0
 15 44  1  0
 16 45  1  6
 17 46  1  0
 17 47  1  0
 18 48  1  0
 18 49  1  0
 19 50  1  0
 19 51  1  0
 20 52  1  0
 20 53  1  0
 21 54  1  0
 25 55  1  0
 25 56  1  0
 26 57  1  0
 26 58  1  0
 27 59  1  0
 28 60  1  0
 28 61  1  0
 29 62  1  0
 29 63  1  0
 31 64  1  0
 31 65  1  0
M  END
>  <smiles>  (2) 
c1ccc2c(c1)CCN(c1nc(NCCC3CCCCN3)nc(N3CCNCC3)n1)C2

>  <score_type>  (2) 
oracle

>  <origin>  (2) 
autodockgpu

>  <m_score__min__energy>  (2) 
-10.199999999999999

>  <m_primary>  (2) 
energy

>  <rmsd>  (2) 
4.980487025731915

>  <m_score__min__rmsd>  (2) 
4.980487025731915

>  <meeko>  (2) 
{"free_energy": -10.18, "intermolecular_energy": -11.97, "internal_energy": -0.87, "cluster_size": 38, "cluster_id": 1, "rank_in_cluster": 2}

>  <energy>  (2) 
-10.18

>  <cluster_rmsd>  (2) 
0.16

>  <cluster>  (2) 
1

$$$$

     RDKit          3D

 65 69  0  0  0  0  0  0  0  0999 V2000
  141.4660   82.0340  222.5000 C   0  0  0  0  0  0  0  0  0  0  0  0
  142.0590   81.3660  223.5710 C   0  0  0  0  0  0  0  0  0  0  0  0
  141.8560   80.0060  223.7670 C   0  0  0  0  0  0  0  0  0  0  0  0
  141.0600   79.2900  222.8990 C   0  0  0  0  0  0  0  0  0  0  0  0
  140.4760   79.9720  221.8360 C   0  0  0  0  0  0  0  0  0  0  0  0
  140.6680   81.3210  221.6280 C   0  0  0  0  0  0  0  0  0  0  0  0
  139.6230   79.1340  220.9310 C   0  0  0  0  0  0  0  0  0  0  0  0
  140.5410   77.9880  220.4870 C   0  0  0  0  0  0  0  0  0  0  0  0
  140.8290   77.2320  221.7050 N   0  0  0  0  0  0  0  0  0  0  0  0
  141.1550   75.8520  221.5440 C   0  0  0  0  0  0  0  0  0  0  0  0
  140.3640   74.9270  222.0810 N   0  0  0  0  0  0  0  0  0  0  0  0
  140.6540   73.6170  221.9420 C   0  0  0  0  0  0  0  0  0  0  0  0
  139.7770   72.6610  222.5330 N   0  0  0  0  0  0  0  0  0  0  0  0
  140.0660   71.2440  222.5410 C   0  0  0  0  0  0  0  0  0  0  0  0
  139.0280   70.5000  223.3500 C   0  0  0  0  0  0  0  0  0  0  0  0
  139.2860   70.8140  224.8180 C   0  0  2  0  0  0  0  0  0  0  0  0
  140.7080   71.2160  224.9630 C   0  0  0  0  0  0  0  0  0  0  0  0
  141.4140   70.5710  226.1260 C   0  0  0  0  0  0  0  0  0  0  0  0
  141.1120   69.0920  226.0790 C   0  0  0  0  0  0  0  0  0  0  0  0
  139.6570   68.9350  226.3260 C   0  0  0  0  0  0  0  0  0  0  0  0
  138.7790   69.8380  225.7010 N   0  0  0  0  0  0  0  0  0  0  0  0
  141.7550   73.2910  221.2490 N   0  0  0  0  0  0  0  0  0  0  0  0
  142.5760   74.1980  220.6920 C   0  0  0  0  0  0  0  0  0  0  0  0
  143.7260   73.7820  219.9690 N   0  0  0  0  0  0  0  0  0  0  0  0
  143.9960   74.2630  218.6300 C   0  0  0  0  0  0  0  0  0  0  0  0
  144.7360   73.1170  217.9300 C   0  0  0  0  0  0  0  0  0  0  0  0
  146.0320   73.0370  218.5270 N   0  0  0  0  0  0  0  0  0  0  0  0
  146.0340   72.9580  219.9620 C   0  0  0  0  0  0  0  0  0  0  0  0
  144.6530   72.8660  220.5650 C   0  0  0  0  0  0  0  0  0  0  0  0
  142.2590   75.4980  220.8490 N   0  0  0  0  0  0  0  0  0  0  0  0
  140.7860   77.8490  223.0240 C   0  0  0  0  0  0  0  0  0  0  0  0
  141.6315   83.1114  222.3525 H   0  0  0  0  0  0  0  0  0  0  0  0
  142.6973   81.9247  224.2713 H   0  0  0  0  0  0  0  0  0  0  0  0
  142.3325   79.4982  224.6185 H   0  0  0  0  0  0  0  0  0  0  0  0
  140.1898   81.8247  220.7751 H   0  0  0  0  0  0  0  0  0  0  0  0
  138.7487   78.7438  221.4727 H   0  0  0  0  0  0  0  0  0  0  0  0
  139.2295   79.7077  220.0789 H   0  0  0  0  0  0  0  0  0  0  0  0
  140.0324   77.3505  219.7488 H   0  0  0  0  0  0  0  0  0  0  0  0
  141.4587   78.3593  220.0075 H   0  0  0  0  0  0  0  0  0  0  0  0
  138.9070   73.0480  222.9630 H   0  0  0  0  0  0  0  0  0  0  0  0
  140.0593   70.8667  221.5078 H   0  0  0  0  0  0  0  0  0  0  0  0
  141.0550   71.0837  222.9950 H   0  0  0  0  0  0  0  0  0  0  0  0
  138.0192   70.8336  223.0655 H   0  0  0  0  0  0  0  0  0  0  0  0
  139.0941   69.4175  223.1663 H   0  0  0  0  0  0  0  0  0  0  0  0
  138.6941   71.6800  225.1493 H   0  0  0  0  0  0  0  0  0  0  0  0
  141.2403   70.9414  224.0404 H   0  0  0  0  0  0  0  0  0  0  0  0
  140.7135   72.2999  225.1503 H   0  0  0  0  0  0  0  0  0  0  0  0
  142.4986   70.7353  226.0446 H   0  0  0  0  0  0  0  0  0  0  0  0
  141.0706   71.0058  227.0763 H   0  0  0  0  0  0  0  0  0  0  0  0
  141.3730   68.6849  225.0910 H   0  0  0  0  0  0  0  0  0  0  0  0
  141.6980   68.5488  226.8350 H   0  0  0  0  0  0  0  0  0  0  0  0
  139.3765   67.9242  225.9950 H   0  0  0  0  0  0  0  0  0  0  0  0
  139.5381   69.1364  227.4008 H   0  0  0  0  0  0  0  0  0  0  0  0
  137.9510   69.3910  225.2450 H   0  0  0  0  0  0  0  0  0  0  0  0
  143.0563   74.4918  218.1060 H   0  0  0  0  0  0  0  0  0  0  0  0
  144.5892   75.1893  218.6388 H   0  0  0  0  0  0  0  0  0  0  0  0
  144.1932   72.1713  218.0749 H   0  0  0  0  0  0  0  0  0  0  0  0
  144.8105   73.2981  216.8476 H   0  0  0  0  0  0  0  0  0  0  0  0
  146.6700   73.7680  218.1920 H   0  0  0  0  0  0  0  0  0  0  0  0
  146.6036   72.0655  220.2602 H   0  0  0  0  0  0  0  0  0  0  0  0
  146.4872   73.8882  220.3353 H   0  0  0  0  0  0  0  0  0  0  0  0
  144.2754   71.8424  220.4247 H   0  0  0  0  0  0  0  0  0  0  0  0
  144.7382   73.1263  221.6304 H   0  0  0  0  0  0  0  0  0  0  0  0
  139.7893   77.7019  223.4656 H   0  0  0  0  0  0  0  0  0  0  0  0
  141.5450   77.3855  223.6713 H   0  0  0  0  0  0  0  0  0  0  0  0
  1  2  2  0
  2  3  1  0
  3  4  2  0
  4  5  1  0
  5  6  2  0
  5  7  1  0
  7  8  1  0
  8  9  1  0
  9 10  1  0
 10 11  2  0
 11 12  1  0
 12 13  1  0
 13 14  1  0
 14 15  1  0
 15 16  1  0
 16 17  1  0
 17 18  1  0
 18 19  1  0
 19 20  1  0
 20 21  1  0
 12 22  2  0
 22 23  1  0
 23 24  1  0
 24 25  1  0
 25 26  1  0
 26 27  1  0
 27 28  1  0
 28 29  1  0
 23 30  2  0
  9 31  1  0
  6  1  1  0
 30 10  1  0
 31  4  1  0
 21 16  1  0
 29 24  1  0
  1 32  1  0
  2 33  1  0
  3 34  1  0
  6 35  1  0
  7 36  1  0
  7 37  1  0
  8 38  1  0
  8 39  1  0
 13 40  1  0
 14 41  1  0
 14 42  1  0
 15 43  1  0
 15 44  1  0
 16 45  1  1
 17 46  1  0
 17 47  1  0
 18 48  1  0
 18 49  1  0
 19 50  1  0
 19 51  1  0
 20 52  1  0
 20 53  1  0
 21 54  1  0
 25 55  1  0
 25 56  1  0
 26 57  1  0
 26 58  1  0
 27 59  1  0
 28 60  1  0
 28 61  1  0
 29 62  1  0
 29 63  1  0
 31 64  1  0
 31 65  1  0
M  END
>  <smiles>  (3) 
c1ccc2c(c1)CCN(c1nc(NCCC3CCCCN3)nc(N3CCNCC3)n1)C2

>  <score_type>  (3) 
oracle

>  <origin>  (3) 
autodockgpu

>  <m_score__min__energy>  (3) 
-10.199999999999999

>  <m_primary>  (3) 
energy

>  <rmsd>  (3) 
5.082679666866225

>  <m_score__min__rmsd>  (3) 
5.082679666866225

>  <meeko>  (3) 
{"free_energy": -9.3, "intermolecular_energy": -11.09, "internal_energy": -0.84, "cluster_size": 38, "cluster_id": 1, "rank_in_cluster": 27}

>  <energy>  (3) 
-10.17

>  <cluster_rmsd>  (3) 
0.28

>  <cluster>  (3) 
1

$$$$

     RDKit          3D

 65 69  0  0  0  0  0  0  0  0999 V2000
  141.9330   81.5220  222.5300 C   0  0  0  0  0  0  0  0  0  0  0  0
  141.8650   80.8600  223.7560 C   0  0  0  0  0  0  0  0  0  0  0  0
  141.4060   79.5520  223.8390 C   0  0  0  0  0  0  0  0  0  0  0  0
  141.0090   78.8830  222.7010 C   0  0  0  0  0  0  0  0  0  0  0  0
  141.0830   79.5570  221.4870 C   0  0  0  0  0  0  0  0  0  0  0  0
  141.5350   80.8550  221.3890 C   0  0  0  0  0  0  0  0  0  0  0  0
  140.6360   78.7700  220.2910 C   0  0  0  0  0  0  0  0  0  0  0  0
  141.4850   77.4940  220.3290 C   0  0  0  0  0  0  0  0  0  0  0  0
  141.0690   76.7920  221.5420 N   0  0  0  0  0  0  0  0  0  0  0  0
  141.2360   75.3750  221.5550 C   0  0  0  0  0  0  0  0  0  0  0  0
  140.2930   74.6110  222.1000 N   0  0  0  0  0  0  0  0  0  0  0  0
  140.4300   73.2690  222.1230 C   0  0  0  0  0  0  0  0  0  0  0  0
  139.3930   72.4910  222.7150 N   0  0  0  0  0  0  0  0  0  0  0  0
  139.6280   71.1730  223.2630 C   0  0  0  0  0  0  0  0  0  0  0  0
  139.2090   71.1240  224.7150 C   0  0  0  0  0  0  0  0  0  0  0  0
  140.4290   70.7040  225.5240 C   0  0  2  0  0  0  0  0  0  0  0  0
  139.9830   69.7680  226.5850 C   0  0  0  0  0  0  0  0  0  0  0  0
  140.5630   70.0560  227.9450 C   0  0  0  0  0  0  0  0  0  0  0  0
  140.3950   71.5330  228.2080 C   0  0  0  0  0  0  0  0  0  0  0  0
  141.2430   72.2520  227.2240 C   0  0  0  0  0  0  0  0  0  0  0  0
  141.2560   71.7850  225.8970 N   0  0  0  0  0  0  0  0  0  0  0  0
  141.5400   72.7460  221.5830 N   0  0  0  0  0  0  0  0  0  0  0  0
  142.5140   73.4860  221.0240 C   0  0  0  0  0  0  0  0  0  0  0  0
  143.6630   72.8650  220.4690 N   0  0  0  0  0  0  0  0  0  0  0  0
  144.9990   73.1970  220.9210 C   0  0  0  0  0  0  0  0  0  0  0  0
  145.8990   73.0100  219.6940 C   0  0  0  0  0  0  0  0  0  0  0  0
  145.9690   71.6040  219.4430 N   0  0  0  0  0  0  0  0  0  0  0  0
  144.6960   70.9420  219.3530 C   0  0  0  0  0  0  0  0  0  0  0  0
  143.5170   71.8810  219.4370 C   0  0  0  0  0  0  0  0  0  0  0  0
  142.3460   74.8230  221.0160 N   0  0  0  0  0  0  0  0  0  0  0  0
  140.5100   77.4970  222.6870 C   0  0  0  0  0  0  0  0  0  0  0  0
  142.2977   82.5582  222.4735 H   0  0  0  0  0  0  0  0  0  0  0  0
  142.1799   81.3823  224.6714 H   0  0  0  0  0  0  0  0  0  0  0  0
  141.3591   79.0483  224.8158 H   0  0  0  0  0  0  0  0  0  0  0  0
  141.5783   81.3551  220.4102 H   0  0  0  0  0  0  0  0  0  0  0  0
  139.5657   78.5267  220.3640 H   0  0  0  0  0  0  0  0  0  0  0  0
  140.7640   79.3287  219.3521 H   0  0  0  0  0  0  0  0  0  0  0  0
  141.2917   76.8756  219.4401 H   0  0  0  0  0  0  0  0  0  0  0  0
  142.5621   77.7171  220.3324 H   0  0  0  0  0  0  0  0  0  0  0  0
  138.4460   72.9320  222.7300 H   0  0  0  0  0  0  0  0  0  0  0  0
  139.0460   70.4341  222.6926 H   0  0  0  0  0  0  0  0  0  0  0  0
  140.7016   70.9436  223.1933 H   0  0  0  0  0  0  0  0  0  0  0  0
  138.8644   72.1164  225.0411 H   0  0  0  0  0  0  0  0  0  0  0  0
  138.3826   70.4123  224.8582 H   0  0  0  0  0  0  0  0  0  0  0  0
  141.1405   70.1372  224.9055 H   0  0  0  0  0  0  0  0  0  0  0  0
  138.8869   69.8259  226.6579 H   0  0  0  0  0  0  0  0  0  0  0  0
  140.3381   68.7682  226.2948 H   0  0  0  0  0  0  0  0  0  0  0  0
  140.0290   69.4752  228.7115 H   0  0  0  0  0  0  0  0  0  0  0  0
  141.6260   69.7754  227.9795 H   0  0  0  0  0  0  0  0  0  0  0  0
  139.3413   71.8214  228.0797 H   0  0  0  0  0  0  0  0  0  0  0  0
  140.6923   71.7833  229.2371 H   0  0  0  0  0  0  0  0  0  0  0  0
  140.9010   73.2972  227.1995 H   0  0  0  0  0  0  0  0  0  0  0  0
  142.2715   72.0942  227.5807 H   0  0  0  0  0  0  0  0  0  0  0  0
  141.1540   72.5330  225.1740 H   0  0  0  0  0  0  0  0  0  0  0  0
  145.0390   74.2383  221.2731 H   0  0  0  0  0  0  0  0  0  0  0  0
  145.3164   72.5641  221.7628 H   0  0  0  0  0  0  0  0  0  0  0  0
  145.4674   73.5287  218.8253 H   0  0  0  0  0  0  0  0  0  0  0  0
  146.9003   73.4294  219.8715 H   0  0  0  0  0  0  0  0  0  0  0  0
  146.6000   71.1150  220.0880 H   0  0  0  0  0  0  0  0  0  0  0  0
  144.6484   70.4098  218.3915 H   0  0  0  0  0  0  0  0  0  0  0  0
  144.6263   70.2604  220.2135 H   0  0  0  0  0  0  0  0  0  0  0  0
  143.4095   72.3974  218.4717 H   0  0  0  0  0  0  0  0  0  0  0  0
  142.6295   71.2775  219.6780 H   0  0  0  0  0  0  0  0  0  0  0  0
  139.4124   77.5031  222.6139 H   0  0  0  0  0  0  0  0  0  0  0  0
  140.8126   76.9887  223.6144 H   0  0  0  0  0  0  0  0  0  0  0  0
  1  2  2  0
  2  3  1  0
  3  4  2  0
  4  5  1  0
  5  6  2  0
  5  7  1  0
  7  8  1  0
  8  9  1  0
  9 10  1  0
 10 11  2  0
 11 12  1  0
 12 13  1  0
 13 14  1  0
 14 15  1  0
 15 16  1  0
 16 17  1  0
 17 18  1  0
 18 19  1  0
 19 20  1  0
 20 21  1  0
 12 22  2  0
 22 23  1  0
 23 24  1  0
 24 25  1  0
 25 26  1  0
 26 27  1  0
 27 28  1  0
 28 29  1  0
 23 30  2  0
  9 31  1  0
  6  1  1  0
 30 10  1  0
 31  4  1  0
 21 16  1  0
 29 24  1  0
  1 32  1  0
  2 33  1  0
  3 34  1  0
  6 35  1  0
  7 36  1  0
  7 37  1  0
  8 38  1  0
  8 39  1  0
 13 40  1  0
 14 41  1  0
 14 42  1  0
 15 43  1  0
 15 44  1  0
 16 45  1  6
 17 46  1  0
 17 47  1  0
 18 48  1  0
 18 49  1  0
 19 50  1  0
 19 51  1  0
 20 52  1  0
 20 53  1  0
 21 54  1  0
 25 55  1  0
 25 56  1  0
 26 57  1  0
 26 58  1  0
 27 59  1  0
 28 60  1  0
 28 61  1  0
 29 62  1  0
 29 63  1  0
 31 64  1  0
 31 65  1  0
M  END
>  <smiles>  (4) 
c1ccc2c(c1)CCN(c1nc(NCCC3CCCCN3)nc(N3CCNCC3)n1)C2

>  <score_type>  (4) 
oracle

>  <origin>  (4) 
autodockgpu

>  <m_score__min__energy>  (4) 
-10.199999999999999

>  <m_primary>  (4) 
energy

>  <rmsd>  (4) 
4.952438302855017

>  <m_score__min__rmsd>  (4) 
4.952438302855017

>  <meeko>  (4) 
{"free_energy": -10.17, "intermolecular_energy": -11.96, "internal_energy": -0.86, "cluster_size": 38, "cluster_id": 1, "rank_in_cluster": 3}

>  <energy>  (4) 
-10.17

>  <cluster_rmsd>  (4) 
0.2

>  <cluster>  (4) 
1

$$$$

     RDKit          3D

 65 69  0  0  0  0  0  0  0  0999 V2000
  140.6530   81.6320  221.9820 C   0  0  0  0  0  0  0  0  0  0  0  0
  141.8400   81.1960  222.5720 C   0  0  0  0  0  0  0  0  0  0  0  0
  142.0110   79.8680  222.9400 C   0  0  0  0  0  0  0  0  0  0  0  0
  141.0030   78.9530  222.7250 C   0  0  0  0  0  0  0  0  0  0  0  0
  139.8260   79.4030  222.1360 C   0  0  0  0  0  0  0  0  0  0  0  0
  139.6410   80.7180  221.7660 C   0  0  0  0  0  0  0  0  0  0  0  0
  138.7730   78.3560  221.9320 C   0  0  0  0  0  0  0  0  0  0  0  0
  139.4740   77.2560  221.1250 C   0  0  0  0  0  0  0  0  0  0  0  0
  140.5050   76.7250  222.0140 N   0  0  0  0  0  0  0  0  0  0  0  0
  140.9170   75.3770  221.7910 C   0  0  0  0  0  0  0  0  0  0  0  0
  140.1860   74.3810  222.2850 N   0  0  0  0  0  0  0  0  0  0  0  0
  140.5570   73.0990  222.0860 C   0  0  0  0  0  0  0  0  0  0  0  0
  139.7420   72.0650  222.6310 N   0  0  0  0  0  0  0  0  0  0  0  0
  140.2170   71.1630  223.6580 C   0  0  0  0  0  0  0  0  0  0  0  0
  139.4250   69.8750  223.6340 C   0  0  0  0  0  0  0  0  0  0  0  0
  139.0430   69.5510  225.0720 C   0  0  2  0  0  0  0  0  0  0  0  0
  139.9510   70.3030  225.9750 C   0  0  0  0  0  0  0  0  0  0  0  0
  140.5060   69.4860  227.1110 C   0  0  0  0  0  0  0  0  0  0  0  0
  141.0210   68.1910  226.5310 C   0  0  0  0  0  0  0  0  0  0  0  0
  139.8480   67.4480  226.0080 C   0  0  0  0  0  0  0  0  0  0  0  0
  138.8630   68.1720  225.3110 N   0  0  0  0  0  0  0  0  0  0  0  0
  141.6750   72.8750  221.3810 N   0  0  0  0  0  0  0  0  0  0  0  0
  142.4380   73.8550  220.8670 C   0  0  0  0  0  0  0  0  0  0  0  0
  143.6100   73.5450  220.1280 N   0  0  0  0  0  0  0  0  0  0  0  0
  143.8030   74.0240  218.7750 C   0  0  0  0  0  0  0  0  0  0  0  0
  144.6440   72.9470  218.0810 C   0  0  0  0  0  0  0  0  0  0  0  0
  145.9530   73.0130  218.6510 N   0  0  0  0  0  0  0  0  0  0  0  0
  145.9910   72.9630  220.0870 C   0  0  0  0  0  0  0  0  0  0  0  0
  144.6380   72.7420  220.7200 C   0  0  0  0  0  0  0  0  0  0  0  0
  142.0400   75.1250  221.0830 N   0  0  0  0  0  0  0  0  0  0  0  0
  141.0910   77.5260  223.0810 C   0  0  0  0  0  0  0  0  0  0  0  0
  140.5257   82.6859  221.6939 H   0  0  0  0  0  0  0  0  0  0  0  0
  142.6530   81.9156  222.7484 H   0  0  0  0  0  0  0  0  0  0  0  0
  142.9543   79.5452  223.4047 H   0  0  0  0  0  0  0  0  0  0  0  0
  138.6954   81.0363  221.3028 H   0  0  0  0  0  0  0  0  0  0  0  0
  138.4216   77.9650  222.8982 H   0  0  0  0  0  0  0  0  0  0  0  0
  137.8855   78.7512  221.4161 H   0  0  0  0  0  0  0  0  0  0  0  0
  138.7598   76.4665  220.8480 H   0  0  0  0  0  0  0  0  0  0  0  0
  139.8997   77.6426  220.1873 H   0  0  0  0  0  0  0  0  0  0  0  0
  138.7750   71.9960  222.2430 H   0  0  0  0  0  0  0  0  0  0  0  0
  141.2793   70.9389  223.4809 H   0  0  0  0  0  0  0  0  0  0  0  0
  140.0910   71.6418  224.6403 H   0  0  0  0  0  0  0  0  0  0  0  0
  138.5189   70.0017  223.0233 H   0  0  0  0  0  0  0  0  0  0  0  0
  140.0203   69.0601  223.1963 H   0  0  0  0  0  0  0  0  0  0  0  0
  138.0282   69.9075  225.3025 H   0  0  0  0  0  0  0  0  0  0  0  0
  140.7939   70.6825  225.3789 H   0  0  0  0  0  0  0  0  0  0  0  0
  139.3526   71.1078  226.4269 H   0  0  0  0  0  0  0  0  0  0  0  0
  141.3270   70.0313  227.5994 H   0  0  0  0  0  0  0  0  0  0  0  0
  139.7277   69.2905  227.8633 H   0  0  0  0  0  0  0  0  0  0  0  0
  141.7298   68.3986  225.7159 H   0  0  0  0  0  0  0  0  0  0  0  0
  141.5470   67.6019  227.2966 H   0  0  0  0  0  0  0  0  0  0  0  0
  140.2291   66.6741  225.3254 H   0  0  0  0  0  0  0  0  0  0  0  0
  139.3328   67.0805  226.9078 H   0  0  0  0  0  0  0  0  0  0  0  0
  138.5520   67.7290  224.4170 H   0  0  0  0  0  0  0  0  0  0  0  0
  142.8348   74.1437  218.2668 H   0  0  0  0  0  0  0  0  0  0  0  0
  144.2969   75.0067  218.7543 H   0  0  0  0  0  0  0  0  0  0  0  0
  144.2050   71.9535  218.2550 H   0  0  0  0  0  0  0  0  0  0  0  0
  144.6784   73.1131  216.9941 H   0  0  0  0  0  0  0  0  0  0  0  0
  146.5060   73.7980  218.2900 H   0  0  0  0  0  0  0  0  0  0  0  0
  146.6549   72.1395  220.3889 H   0  0  0  0  0  0  0  0  0  0  0  0
  146.3538   73.9416  220.4345 H   0  0  0  0  0  0  0  0  0  0  0  0
  144.3656   71.6824  220.6060 H   0  0  0  0  0  0  0  0  0  0  0  0
  144.7163   73.0318  221.7782 H   0  0  0  0  0  0  0  0  0  0  0  0
  140.5431   77.3468  224.0179 H   0  0  0  0  0  0  0  0  0  0  0  0
  142.1459   77.2447  223.2152 H   0  0  0  0  0  0  0  0  0  0  0  0
  1  2  2  0
  2  3  1  0
  3  4  2  0
  4  5  1  0
  5  6  2  0
  5  7  1  0
  7  8  1  0
  8  9  1  0
  9 10  1  0
 10 11  2  0
 11 12  1  0
 12 13  1  0
 13 14  1  0
 14 15  1  0
 15 16  1  0
 16 17  1  0
 17 18  1  0
 18 19  1  0
 19 20  1  0
 20 21  1  0
 12 22  2  0
 22 23  1  0
 23 24  1  0
 24 25  1  0
 25 26  1  0
 26 27  1  0
 27 28  1  0
 28 29  1  0
 23 30  2  0
  9 31  1  0
  6  1  1  0
 30 10  1  0
 31  4  1  0
 21 16  1  0
 29 24  1  0
  1 32  1  0
  2 33  1  0
  3 34  1  0
  6 35  1  0
  7 36  1  0
  7 37  1  0
  8 38  1  0
  8 39  1  0
 13 40  1  0
 14 41  1  0
 14 42  1  0
 15 43  1  0
 15 44  1  0
 16 45  1  1
 17 46  1  0
 17 47  1  0
 18 48  1  0
 18 49  1  0
 19 50  1  0
 19 51  1  0
 20 52  1  0
 20 53  1  0
 21 54  1  0
 25 55  1  0
 25 56  1  0
 26 57  1  0
 26 58  1  0
 27 59  1  0
 28 60  1  0
 28 61  1  0
 29 62  1  0
 29 63  1  0
 31 64  1  0
 31 65  1  0
M  END
>  <smiles>  (5) 
c1ccc2c(c1)CCN(c1nc(NCCC3CCCCN3)nc(N3CCNCC3)n1)C2

>  <score_type>  (5) 
oracle

>  <origin>  (5) 
autodockgpu

>  <m_score__min__energy>  (5) 
-10.199999999999999

>  <m_primary>  (5) 
energy

>  <rmsd>  (5) 
4.727911930973542

>  <m_score__min__rmsd>  (5) 
4.727911930973542

>  <meeko>  (5) 
{"free_energy": -9.6, "intermolecular_energy": -11.39, "internal_energy": -0.77, "cluster_size": 38, "cluster_id": 1, "rank_in_cluster": 20}

>  <energy>  (5) 
-10.13

>  <cluster_rmsd>  (5) 
0.2

>  <cluster>  (5) 
1

$$$$

     RDKit          3D

 65 69  0  0  0  0  0  0  0  0999 V2000
  141.9180   81.4910  222.5730 C   0  0  0  0  0  0  0  0  0  0  0  0
  141.8350   80.8230  223.7950 C   0  0  0  0  0  0  0  0  0  0  0  0
  141.3720   79.5160  223.8650 C   0  0  0  0  0  0  0  0  0  0  0  0
  140.9840   78.8540  222.7210 C   0  0  0  0  0  0  0  0  0  0  0  0
  141.0730   79.5350  221.5100 C   0  0  0  0  0  0  0  0  0  0  0  0
  141.5300   80.8320  221.4240 C   0  0  0  0  0  0  0  0  0  0  0  0
  140.6360   78.7550  220.3060 C   0  0  0  0  0  0  0  0  0  0  0  0
  141.4800   77.4760  220.3460 C   0  0  0  0  0  0  0  0  0  0  0  0
  141.0500   76.7690  221.5510 N   0  0  0  0  0  0  0  0  0  0  0  0
  141.2130   75.3510  221.5580 C   0  0  0  0  0  0  0  0  0  0  0  0
  140.2650   74.5880  222.0950 N   0  0  0  0  0  0  0  0  0  0  0  0
  140.3990   73.2460  222.1120 C   0  0  0  0  0  0  0  0  0  0  0  0
  139.3570   72.4680  222.6960 N   0  0  0  0  0  0  0  0  0  0  0  0
  139.4850   71.0450  222.9230 C   0  0  0  0  0  0  0  0  0  0  0  0
  139.0890   70.7010  224.3420 C   0  0  0  0  0  0  0  0  0  0  0  0
  140.3650   70.3520  225.0960 C   0  0  2  0  0  0  0  0  0  0  0  0
  140.0350   69.3310  226.1210 C   0  0  0  0  0  0  0  0  0  0  0  0
  140.6290   69.6050  227.4770 C   0  0  0  0  0  0  0  0  0  0  0  0
  140.3420   71.0470  227.8180 C   0  0  0  0  0  0  0  0  0  0  0  0
  141.0940   71.8830  226.8490 C   0  0  0  0  0  0  0  0  0  0  0  0
  141.1070   71.4820  225.5000 N   0  0  0  0  0  0  0  0  0  0  0  0
  141.5090   72.7220  221.5740 N   0  0  0  0  0  0  0  0  0  0  0  0
  142.4880   73.4610  221.0240 C   0  0  0  0  0  0  0  0  0  0  0  0
  143.6380   72.8390  220.4700 N   0  0  0  0  0  0  0  0  0  0  0  0
  144.9730   73.1670  220.9280 C   0  0  0  0  0  0  0  0  0  0  0  0
  145.8770   72.9820  219.7040 C   0  0  0  0  0  0  0  0  0  0  0  0
  145.9440   71.5770  219.4490 N   0  0  0  0  0  0  0  0  0  0  0  0
  144.6710   70.9180  219.3520 C   0  0  0  0  0  0  0  0  0  0  0  0
  143.4940   71.8600  219.4340 C   0  0  0  0  0  0  0  0  0  0  0  0
  142.3240   74.7990  221.0210 N   0  0  0  0  0  0  0  0  0  0  0  0
  140.4810   77.4700  222.6940 C   0  0  0  0  0  0  0  0  0  0  0  0
  142.2867   82.5263  222.5260 H   0  0  0  0  0  0  0  0  0  0  0  0
  142.1410   81.3395  224.7167 H   0  0  0  0  0  0  0  0  0  0  0  0
  141.3147   79.0068  224.8384 H   0  0  0  0  0  0  0  0  0  0  0  0
  141.5851   81.3376  220.4486 H   0  0  0  0  0  0  0  0  0  0  0  0
  139.5642   78.5150  220.3669 H   0  0  0  0  0  0  0  0  0  0  0  0
  140.7759   79.3178  219.3713 H   0  0  0  0  0  0  0  0  0  0  0  0
  141.2934   76.8629  219.4520 H   0  0  0  0  0  0  0  0  0  0  0  0
  142.5577   77.6956  220.3614 H   0  0  0  0  0  0  0  0  0  0  0  0
  138.4880   72.9890  222.9510 H   0  0  0  0  0  0  0  0  0  0  0  0
  138.8301   70.5057  222.2228 H   0  0  0  0  0  0  0  0  0  0  0  0
  140.5326   70.7503  222.7629 H   0  0  0  0  0  0  0  0  0  0  0  0
  138.5962   71.5633  224.8149 H   0  0  0  0  0  0  0  0  0  0  0  0
  138.3848   69.8560  224.3559 H   0  0  0  0  0  0  0  0  0  0  0  0
  141.1029   69.8798  224.4307 H   0  0  0  0  0  0  0  0  0  0  0  0
  138.9408   69.2881  226.2257 H   0  0  0  0  0  0  0  0  0  0  0  0
  140.4667   68.3813  225.7723 H   0  0  0  0  0  0  0  0  0  0  0  0
  140.1713   68.9438  228.2276 H   0  0  0  0  0  0  0  0  0  0  0  0
  141.7130   69.4183  227.4688 H   0  0  0  0  0  0  0  0  0  0  0  0
  139.2638   71.2476  227.7322 H   0  0  0  0  0  0  0  0  0  0  0  0
  140.6477   71.2734  228.8501 H   0  0  0  0  0  0  0  0  0  0  0  0
  140.6623   72.8941  226.8854 H   0  0  0  0  0  0  0  0  0  0  0  0
  142.1427   71.7993  227.1703 H   0  0  0  0  0  0  0  0  0  0  0  0
  140.9180   72.2520  224.8180 H   0  0  0  0  0  0  0  0  0  0  0  0
  145.0138   74.2072  221.2835 H   0  0  0  0  0  0  0  0  0  0  0  0
  145.2860   72.5309  221.7691 H   0  0  0  0  0  0  0  0  0  0  0  0
  145.4500   73.5046  218.8354 H   0  0  0  0  0  0  0  0  0  0  0  0
  146.8787   73.3984  219.8864 H   0  0  0  0  0  0  0  0  0  0  0  0
  146.5720   71.0850  220.0940 H   0  0  0  0  0  0  0  0  0  0  0  0
  144.6261   70.3887  218.3888 H   0  0  0  0  0  0  0  0  0  0  0  0
  144.5963   70.2336  220.2099 H   0  0  0  0  0  0  0  0  0  0  0  0
  143.3925   72.3804  218.4702 H   0  0  0  0  0  0  0  0  0  0  0  0
  142.6036   71.2581  219.6683 H   0  0  0  0  0  0  0  0  0  0  0  0
  139.3843   77.4800  222.6092 H   0  0  0  0  0  0  0  0  0  0  0  0
  140.7723   76.9558  223.6217 H   0  0  0  0  0  0  0  0  0  0  0  0
  1  2  2  0
  2  3  1  0
  3  4  2  0
  4  5  1  0
  5  6  2  0
  5  7  1  0
  7  8  1  0
  8  9  1  0
  9 10  1  0
 10 11  2  0
 11 12  1  0
 12 13  1  0
 13 14  1  0
 14 15  1  0
 15 16  1  0
 16 17  1  0
 17 18  1  0
 18 19  1  0
 19 20  1  0
 20 21  1  0
 12 22  2  0
 22 23  1  0
 23 24  1  0
 24 25  1  0
 25 26  1  0
 26 27  1  0
 27 28  1  0
 28 29  1  0
 23 30  2  0
  9 31  1  0
  6  1  1  0
 30 10  1  0
 31  4  1  0
 21 16  1  0
 29 24  1  0
  1 32  1  0
  2 33  1  0
  3 34  1  0
  6 35  1  0
  7 36  1  0
  7 37  1  0
  8 38  1  0
  8 39  1  0
 13 40  1  0
 14 41  1  0
 14 42  1  0
 15 43  1  0
 15 44  1  0
 16 45  1  6
 17 46  1  0
 17 47  1  0
 18 48  1  0
 18 49  1  0
 19 50  1  0
 19 51  1  0
 20 52  1  0
 20 53  1  0
 21 54  1  0
 25 55  1  0
 25 56  1  0
 26 57  1  0
 26 58  1  0
 27 59  1  0
 28 60  1  0
 28 61  1  0
 29 62  1  0
 29 63  1  0
 31 64  1  0
 31 65  1  0
M  END
>  <smiles>  (6) 
c1ccc2c(c1)CCN(c1nc(NCCC3CCCCN3)nc(N3CCNCC3)n1)C2

>  <score_type>  (6) 
oracle

>  <origin>  (6) 
autodockgpu

>  <m_score__min__energy>  (6) 
-10.199999999999999

>  <m_primary>  (6) 
energy

>  <rmsd>  (6) 
4.963156213226999

>  <m_score__min__rmsd>  (6) 
4.963156213226999

>  <meeko>  (6) 
{"free_energy": -10.13, "intermolecular_energy": -11.92, "internal_energy": -0.91, "cluster_size": 38, "cluster_id": 1, "rank_in_cluster": 5}

>  <energy>  (6) 
-9.93

>  <cluster_rmsd>  (6) 
0.45

>  <cluster>  (6) 
1

$$$$

     RDKit          3D

 65 69  0  0  0  0  0  0  0  0999 V2000
  141.9750   81.5450  222.5580 C   0  0  0  0  0  0  0  0  0  0  0  0
  141.8860   80.8760  223.7790 C   0  0  0  0  0  0  0  0  0  0  0  0
  141.4200   79.5690  223.8460 C   0  0  0  0  0  0  0  0  0  0  0  0
  141.0360   78.9090  222.6980 C   0  0  0  0  0  0  0  0  0  0  0  0
  141.1320   79.5910  221.4890 C   0  0  0  0  0  0  0  0  0  0  0  0
  141.5910   80.8870  221.4070 C   0  0  0  0  0  0  0  0  0  0  0  0
  140.6990   78.8140  220.2820 C   0  0  0  0  0  0  0  0  0  0  0  0
  141.5410   77.5330  220.3250 C   0  0  0  0  0  0  0  0  0  0  0  0
  141.1040   76.8250  221.5270 N   0  0  0  0  0  0  0  0  0  0  0  0
  141.2630   75.4070  221.5330 C   0  0  0  0  0  0  0  0  0  0  0  0
  140.3130   74.6450  222.0670 N   0  0  0  0  0  0  0  0  0  0  0  0
  140.4440   73.3030  222.0840 C   0  0  0  0  0  0  0  0  0  0  0  0
  139.3990   72.5260  222.6650 N   0  0  0  0  0  0  0  0  0  0  0  0
  139.5810   71.1430  223.0490 C   0  0  0  0  0  0  0  0  0  0  0  0
  139.1510   70.9350  224.4830 C   0  0  0  0  0  0  0  0  0  0  0  0
  140.3800   70.4930  225.2660 C   0  0  2  0  0  0  0  0  0  0  0  0
  139.9460   69.5290  226.3070 C   0  0  0  0  0  0  0  0  0  0  0  0
  140.5440   69.7810  227.6670 C   0  0  0  0  0  0  0  0  0  0  0  0
  140.3800   71.2510  227.9710 C   0  0  0  0  0  0  0  0  0  0  0  0
  141.2160   71.9950  226.9960 C   0  0  0  0  0  0  0  0  0  0  0  0
  141.2130   71.5630  225.6570 N   0  0  0  0  0  0  0  0  0  0  0  0
  141.5550   72.7770  221.5490 N   0  0  0  0  0  0  0  0  0  0  0  0
  142.5360   73.5150  221.0010 C   0  0  0  0  0  0  0  0  0  0  0  0
  143.6860   72.8910  220.4490 N   0  0  0  0  0  0  0  0  0  0  0  0
  145.0210   73.2270  220.9000 C   0  0  0  0  0  0  0  0  0  0  0  0
  145.9230   73.0330  219.6760 C   0  0  0  0  0  0  0  0  0  0  0  0
  145.9930   71.6260  219.4320 N   0  0  0  0  0  0  0  0  0  0  0  0
  144.7210   70.9630  219.3450 C   0  0  0  0  0  0  0  0  0  0  0  0
  143.5420   71.9030  219.4220 C   0  0  0  0  0  0  0  0  0  0  0  0
  142.3750   74.8530  220.9990 N   0  0  0  0  0  0  0  0  0  0  0  0
  140.5310   77.5260  222.6680 C   0  0  0  0  0  0  0  0  0  0  0  0
  142.3451   82.5799  222.5133 H   0  0  0  0  0  0  0  0  0  0  0  0
  142.1893   81.3911  224.7024 H   0  0  0  0  0  0  0  0  0  0  0  0
  141.3571   79.0588  224.8185 H   0  0  0  0  0  0  0  0  0  0  0  0
  141.6511   81.3935  220.4324 H   0  0  0  0  0  0  0  0  0  0  0  0
  139.6265   78.5760  220.3374 H   0  0  0  0  0  0  0  0  0  0  0  0
  140.8439   79.3777  219.3486 H   0  0  0  0  0  0  0  0  0  0  0  0
  141.3579   76.9212  219.4294 H   0  0  0  0  0  0  0  0  0  0  0  0
  142.6190   77.7510  220.3463 H   0  0  0  0  0  0  0  0  0  0  0  0
  138.4870   73.0180  222.7970 H   0  0  0  0  0  0  0  0  0  0  0  0
  138.9754   70.5014  222.3920 H   0  0  0  0  0  0  0  0  0  0  0  0
  140.6455   70.8826  222.9536 H   0  0  0  0  0  0  0  0  0  0  0  0
  138.7584   71.8750  224.8982 H   0  0  0  0  0  0  0  0  0  0  0  0
  138.3569   70.1763  224.5448 H   0  0  0  0  0  0  0  0  0  0  0  0
  141.0836   69.9422  224.6244 H   0  0  0  0  0  0  0  0  0  0  0  0
  138.8510   69.5857  226.3953 H   0  0  0  0  0  0  0  0  0  0  0  0
  140.2957   68.5367  225.9858 H   0  0  0  0  0  0  0  0  0  0  0  0
  140.0197   69.1802  228.4248 H   0  0  0  0  0  0  0  0  0  0  0  0
  141.6073   69.4994  227.6804 H   0  0  0  0  0  0  0  0  0  0  0  0
  139.3249   71.5430  227.8634 H   0  0  0  0  0  0  0  0  0  0  0  0
  140.6900   71.4741  229.0026 H   0  0  0  0  0  0  0  0  0  0  0  0
  140.8741   73.0405  227.0030 H   0  0  0  0  0  0  0  0  0  0  0  0
  142.2486   71.8275  227.3360 H   0  0  0  0  0  0  0  0  0  0  0  0
  141.1020   72.3300  224.9550 H   0  0  0  0  0  0  0  0  0  0  0  0
  145.0596   74.2707  221.2454 H   0  0  0  0  0  0  0  0  0  0  0  0
  145.3378   72.5995  221.7461 H   0  0  0  0  0  0  0  0  0  0  0  0
  145.4933   73.5475  218.8038 H   0  0  0  0  0  0  0  0  0  0  0  0
  146.9242   73.4526  219.8536 H   0  0  0  0  0  0  0  0  0  0  0  0
  146.6240   71.1410  220.0800 H   0  0  0  0  0  0  0  0  0  0  0  0
  144.6744   70.4247  218.3868 H   0  0  0  0  0  0  0  0  0  0  0  0
  144.6506   70.2863  220.2094 H   0  0  0  0  0  0  0  0  0  0  0  0
  143.4369   72.4149  218.4541 H   0  0  0  0  0  0  0  0  0  0  0  0
  142.6537   71.3010  219.6638 H   0  0  0  0  0  0  0  0  0  0  0  0
  139.4347   77.5377  222.5784 H   0  0  0  0  0  0  0  0  0  0  0  0
  140.8173   77.0107  223.5967 H   0  0  0  0  0  0  0  0  0  0  0  0
  1  2  2  0
  2  3  1  0
  3  4  2  0
  4  5  1  0
  5  6  2  0
  5  7  1  0
  7  8  1  0
  8  9  1  0
  9 10  1  0
 10 11  2  0
 11 12  1  0
 12 13  1  0
 13 14  1  0
 14 15  1  0
 15 16  1  0
 16 17  1  0
 17 18  1  0
 18 19  1  0
 19 20  1  0
 20 21  1  0
 12 22  2  0
 22 23  1  0
 23 24  1  0
 24 25  1  0
 25 26  1  0
 26 27  1  0
 27 28  1  0
 28 29  1  0
 23 30  2  0
  9 31  1  0
  6  1  1  0
 30 10  1  0
 31  4  1  0
 21 16  1  0
 29 24  1  0
  1 32  1  0
  2 33  1  0
  3 34  1  0
  6 35  1  0
  7 36  1  0
  7 37  1  0
  8 38  1  0
  8 39  1  0
 13 40  1  0
 14 41  1  0
 14 42  1  0
 15 43  1  0
 15 44  1  0
 16 45  1  6
 17 46  1  0
 17 47  1  0
 18 48  1  0
 18 49  1  0
 19 50  1  0
 19 51  1  0
 20 52  1  0
 20 53  1  0
 21 54  1  0
 25 55  1  0
 25 56  1  0
 26 57  1  0
 26 58  1  0
 27 59  1  0
 28 60  1  0
 28 61  1  0
 29 62  1  0
 29 63  1  0
 31 64  1  0
 31 65  1  0
M  END
>  <smiles>  (7) 
c1ccc2c(c1)CCN(c1nc(NCCC3CCCCN3)nc(N3CCNCC3)n1)C2

>  <score_type>  (7) 
oracle

>  <origin>  (7) 
autodockgpu

>  <m_score__min__energy>  (7) 
-10.199999999999999

>  <m_primary>  (7) 
energy

>  <rmsd>  (7) 
4.975723946056703

>  <m_score__min__rmsd>  (7) 
4.975723946056703

>  <meeko>  (7) 
{"free_energy": -10.17, "intermolecular_energy": -11.96, "internal_energy": -0.87, "cluster_size": 38, "cluster_id": 1, "rank_in_cluster": 4}

>  <energy>  (7) 
-9.92

>  <cluster_rmsd>  (7) 
0.48

>  <cluster>  (7) 
1

$$$$

     RDKit          3D

 65 69  0  0  0  0  0  0  0  0999 V2000
  142.1690   81.5450  222.6270 C   0  0  0  0  0  0  0  0  0  0  0  0
  142.0880   80.8480  223.8330 C   0  0  0  0  0  0  0  0  0  0  0  0
  141.5880   79.5540  223.8790 C   0  0  0  0  0  0  0  0  0  0  0  0
  141.1600   78.9330  222.7250 C   0  0  0  0  0  0  0  0  0  0  0  0
  141.2480   79.6420  221.5310 C   0  0  0  0  0  0  0  0  0  0  0  0
  141.7410   80.9260  221.4690 C   0  0  0  0  0  0  0  0  0  0  0  0
  140.7660   78.9070  220.3150 C   0  0  0  0  0  0  0  0  0  0  0  0
  141.5720   77.6020  220.3080 C   0  0  0  0  0  0  0  0  0  0  0  0
  141.1430   76.8780  221.5030 N   0  0  0  0  0  0  0  0  0  0  0  0
  141.2630   75.4560  221.4710 C   0  0  0  0  0  0  0  0  0  0  0  0
  140.2720   74.7060  221.9460 N   0  0  0  0  0  0  0  0  0  0  0  0
  140.3650   73.3600  221.9260 C   0  0  0  0  0  0  0  0  0  0  0  0
  139.2780   72.5980  222.4430 N   0  0  0  0  0  0  0  0  0  0  0  0
  138.1740   72.1610  221.6160 C   0  0  0  0  0  0  0  0  0  0  0  0
  137.7240   73.2800  220.7040 C   0  0  0  0  0  0  0  0  0  0  0  0
  136.7820   74.1670  221.5070 C   0  0  2  0  0  0  0  0  0  0  0  0
  135.8630   74.8460  220.5590 C   0  0  0  0  0  0  0  0  0  0  0  0
  135.6830   76.3180  220.8230 C   0  0  0  0  0  0  0  0  0  0  0  0
  137.0570   76.9180  221.0090 C   0  0  0  0  0  0  0  0  0  0  0  0
  137.6260   76.3320  222.2470 C   0  0  0  0  0  0  0  0  0  0  0  0
  137.4390   74.9560  222.4750 N   0  0  0  0  0  0  0  0  0  0  0  0
  141.4800   72.8190  221.4170 N   0  0  0  0  0  0  0  0  0  0  0  0
  142.5020   73.5440  220.9280 C   0  0  0  0  0  0  0  0  0  0  0  0
  143.6540   72.9040  220.4010 N   0  0  0  0  0  0  0  0  0  0  0  0
  144.9840   73.2150  220.8870 C   0  0  0  0  0  0  0  0  0  0  0  0
  145.9110   73.0130  219.6830 C   0  0  0  0  0  0  0  0  0  0  0  0
  145.9640   71.6060  219.4330 N   0  0  0  0  0  0  0  0  0  0  0  0
  144.6830   70.9650  219.3110 C   0  0  0  0  0  0  0  0  0  0  0  0
  143.5180   71.9240  219.3650 C   0  0  0  0  0  0  0  0  0  0  0  0
  142.3780   74.8860  220.9620 N   0  0  0  0  0  0  0  0  0  0  0  0
  140.6150   77.5650  222.6730 C   0  0  0  0  0  0  0  0  0  0  0  0
  142.5670   82.5701  222.5990 H   0  0  0  0  0  0  0  0  0  0  0  0
  142.4256   81.3314  224.7616 H   0  0  0  0  0  0  0  0  0  0  0  0
  141.5330   79.0218  224.8401 H   0  0  0  0  0  0  0  0  0  0  0  0
  141.7935   81.4542  220.5055 H   0  0  0  0  0  0  0  0  0  0  0  0
  139.6886   78.6978  220.3892 H   0  0  0  0  0  0  0  0  0  0  0  0
  140.9062   79.4893  219.3923 H   0  0  0  0  0  0  0  0  0  0  0  0
  141.3508   77.0172  219.4029 H   0  0  0  0  0  0  0  0  0  0  0  0
  142.6560   77.7892  220.3086 H   0  0  0  0  0  0  0  0  0  0  0  0
  139.3240   72.3720  223.4620 H   0  0  0  0  0  0  0  0  0  0  0  0
  138.4949   71.3034  221.0065 H   0  0  0  0  0  0  0  0  0  0  0  0
  137.3349   71.8702  222.2651 H   0  0  0  0  0  0  0  0  0  0  0  0
  138.5934   73.8629  220.3660 H   0  0  0  0  0  0  0  0  0  0  0  0
  137.2169   72.8777  219.8146 H   0  0  0  0  0  0  0  0  0  0  0  0
  136.1398   73.5679  222.1694 H   0  0  0  0  0  0  0  0  0  0  0  0
  136.2643   74.7242  219.5421 H   0  0  0  0  0  0  0  0  0  0  0  0
  134.8754   74.3784  220.6855 H   0  0  0  0  0  0  0  0  0  0  0  0
  135.1781   76.7936  219.9692 H   0  0  0  0  0  0  0  0  0  0  0  0
  135.0661   76.4780  221.7196 H   0  0  0  0  0  0  0  0  0  0  0  0
  137.6955   76.6725  220.1476 H   0  0  0  0  0  0  0  0  0  0  0  0
  136.9981   78.0137  221.0862 H   0  0  0  0  0  0  0  0  0  0  0  0
  138.7104   76.5155  222.2269 H   0  0  0  0  0  0  0  0  0  0  0  0
  137.0728   76.8223  223.0616 H   0  0  0  0  0  0  0  0  0  0  0  0
  138.3000   74.4460  222.7750 H   0  0  0  0  0  0  0  0  0  0  0  0
  145.0318   74.2557  221.2400 H   0  0  0  0  0  0  0  0  0  0  0  0
  145.2700   72.5777  221.7367 H   0  0  0  0  0  0  0  0  0  0  0  0
  145.5099   73.5388  218.8040 H   0  0  0  0  0  0  0  0  0  0  0  0
  146.9144   73.4156  219.8858 H   0  0  0  0  0  0  0  0  0  0  0  0
  146.5700   71.1070  220.0930 H   0  0  0  0  0  0  0  0  0  0  0  0
  144.6509   70.4331  218.3487 H   0  0  0  0  0  0  0  0  0  0  0  0
  144.5802   70.2849  220.1695 H   0  0  0  0  0  0  0  0  0  0  0  0
  143.4446   72.4428  218.3978 H   0  0  0  0  0  0  0  0  0  0  0  0
  142.6142   71.3357  219.5818 H   0  0  0  0  0  0  0  0  0  0  0  0
  139.5178   77.6093  222.6084 H   0  0  0  0  0  0  0  0  0  0  0  0
  140.9063   77.0188  223.5823 H   0  0  0  0  0  0  0  0  0  0  0  0
  1  2  2  0
  2  3  1  0
  3  4  2  0
  4  5  1  0
  5  6  2  0
  5  7  1  0
  7  8  1  0
  8  9  1  0
  9 10  1  0
 10 11  2  0
 11 12  1  0
 12 13  1  0
 13 14  1  0
 14 15  1  0
 15 16  1  0
 16 17  1  0
 17 18  1  0
 18 19  1  0
 19 20  1  0
 20 21  1  0
 12 22  2  0
 22 23  1  0
 23 24  1  0
 24 25  1  0
 25 26  1  0
 26 27  1  0
 27 28  1  0
 28 29  1  0
 23 30  2  0
  9 31  1  0
  6  1  1  0
 30 10  1  0
 31  4  1  0
 21 16  1  0
 29 24  1  0
  1 32  1  0
  2 33  1  0
  3 34  1  0
  6 35  1  0
  7 36  1  0
  7 37  1  0
  8 38  1  0
  8 39  1  0
 13 40  1  0
 14 41  1  0
 14 42  1  0
 15 43  1  0
 15 44  1  0
 16 45  1  1
 17 46  1  0
 17 47  1  0
 18 48  1  0
 18 49  1  0
 19 50  1  0
 19 51  1  0
 20 52  1  0
 20 53  1  0
 21 54  1  0
 25 55  1  0
 25 56  1  0
 26 57  1  0
 26 58  1  0
 27 59  1  0
 28 60  1  0
 28 61  1  0
 29 62  1  0
 29 63  1  0
 31 64  1  0
 31 65  1  0
M  END
>  <smiles>  (8) 
c1ccc2c(c1)CCN(c1nc(NCCC3CCCCN3)nc(N3CCNCC3)n1)C2

>  <score_type>  (8) 
oracle

>  <origin>  (8) 
autodockgpu

>  <m_score__min__energy>  (8) 
-10.199999999999999

>  <m_primary>  (8) 
energy

>  <rmsd>  (8) 
5.043304245273537

>  <m_score__min__rmsd>  (8) 
5.043304245273537

>  <meeko>  (8) 
{"free_energy": -7.49, "intermolecular_energy": -9.28, "internal_energy": -2.17, "cluster_size": 38, "cluster_id": 1, "rank_in_cluster": 37}

>  <energy>  (8) 
-9.92

>  <cluster_rmsd>  (8) 
0.94

>  <cluster>  (8) 
1

$$$$

     RDKit          3D

 65 69  0  0  0  0  0  0  0  0999 V2000
  141.9860   81.4030  222.6360 C   0  0  0  0  0  0  0  0  0  0  0  0
  141.9530   80.7060  223.8440 C   0  0  0  0  0  0  0  0  0  0  0  0
  141.4950   79.3960  223.9020 C   0  0  0  0  0  0  0  0  0  0  0  0
  141.0630   78.7600  222.7580 C   0  0  0  0  0  0  0  0  0  0  0  0
  141.1030   79.4700  221.5620 C   0  0  0  0  0  0  0  0  0  0  0  0
  141.5540   80.7700  221.4880 C   0  0  0  0  0  0  0  0  0  0  0  0
  140.6190   78.7180  220.3570 C   0  0  0  0  0  0  0  0  0  0  0  0
  141.4660   77.4400  220.3340 C   0  0  0  0  0  0  0  0  0  0  0  0
  141.0850   76.7040  221.5380 N   0  0  0  0  0  0  0  0  0  0  0  0
  141.2500   75.2870  221.5050 C   0  0  0  0  0  0  0  0  0  0  0  0
  140.3850   74.5140  222.1550 N   0  0  0  0  0  0  0  0  0  0  0  0
  140.5220   73.1710  222.1380 C   0  0  0  0  0  0  0  0  0  0  0  0
  139.5690   72.3830  222.8470 N   0  0  0  0  0  0  0  0  0  0  0  0
  139.8460   71.0270  223.2700 C   0  0  0  0  0  0  0  0  0  0  0  0
  139.3640   70.8110  224.6870 C   0  0  0  0  0  0  0  0  0  0  0  0
  140.5910   70.5350  225.5460 C   0  0  2  0  0  0  0  0  0  0  0  0
  140.2150   69.5500  226.5910 C   0  0  0  0  0  0  0  0  0  0  0  0
  140.7020   69.9010  227.9720 C   0  0  0  0  0  0  0  0  0  0  0  0
  140.3520   71.3480  228.2240 C   0  0  0  0  0  0  0  0  0  0  0  0
  141.1500   72.1620  227.2730 C   0  0  0  0  0  0  0  0  0  0  0  0
  141.2710   71.7030  225.9490 N   0  0  0  0  0  0  0  0  0  0  0  0
  141.5500   72.6580  221.4480 N   0  0  0  0  0  0  0  0  0  0  0  0
  142.4440   73.4070  220.7800 C   0  0  0  0  0  0  0  0  0  0  0  0
  143.5100   72.7960  220.0680 N   0  0  0  0  0  0  0  0  0  0  0  0
  143.3320   71.5440  219.3620 C   0  0  0  0  0  0  0  0  0  0  0  0
  144.6940   70.8450  219.4280 C   0  0  0  0  0  0  0  0  0  0  0  0
  145.5800   71.5840  218.5850 N   0  0  0  0  0  0  0  0  0  0  0  0
  145.6240   72.9980  218.8440 C   0  0  0  0  0  0  0  0  0  0  0  0
  144.8000   73.4200  220.0360 C   0  0  0  0  0  0  0  0  0  0  0  0
  142.2800   74.7450  220.8160 N   0  0  0  0  0  0  0  0  0  0  0  0
  140.5610   77.3760  222.7190 C   0  0  0  0  0  0  0  0  0  0  0  0
  142.3504   82.4402  222.5990 H   0  0  0  0  0  0  0  0  0  0  0  0
  142.2949   81.2014  224.7647 H   0  0  0  0  0  0  0  0  0  0  0  0
  141.4770   78.8640  224.8646 H   0  0  0  0  0  0  0  0  0  0  0  0
  141.5696   81.2982  220.5233 H   0  0  0  0  0  0  0  0  0  0  0  0
  139.5507   78.4744  220.4543 H   0  0  0  0  0  0  0  0  0  0  0  0
  140.7207   79.3031  219.4310 H   0  0  0  0  0  0  0  0  0  0  0  0
  141.2452   76.8474  219.4340 H   0  0  0  0  0  0  0  0  0  0  0  0
  142.5432   77.6619  220.3122 H   0  0  0  0  0  0  0  0  0  0  0  0
  138.6530   72.8450  223.0430 H   0  0  0  0  0  0  0  0  0  0  0  0
  139.3287   70.3248  222.5996 H   0  0  0  0  0  0  0  0  0  0  0  0
  140.9317   70.8545  223.2309 H   0  0  0  0  0  0  0  0  0  0  0  0
  138.8455   71.7109  225.0495 H   0  0  0  0  0  0  0  0  0  0  0  0
  138.6584   69.9685  224.7340 H   0  0  0  0  0  0  0  0  0  0  0  0
  141.3881   70.0570  224.9577 H   0  0  0  0  0  0  0  0  0  0  0  0
  139.1177   69.4789  226.6196 H   0  0  0  0  0  0  0  0  0  0  0  0
  140.6959   68.5992  226.3177 H   0  0  0  0  0  0  0  0  0  0  0  0
  140.2091   69.2602  228.7179 H   0  0  0  0  0  0  0  0  0  0  0  0
  141.7883   69.7465  228.0500 H   0  0  0  0  0  0  0  0  0  0  0  0
  139.2780   71.5119  228.0521 H   0  0  0  0  0  0  0  0  0  0  0  0
  140.5754   71.6295  229.2636 H   0  0  0  0  0  0  0  0  0  0  0  0
  140.6905   73.1606  227.2320 H   0  0  0  0  0  0  0  0  0  0  0  0
  142.1746   72.1229  227.6714 H   0  0  0  0  0  0  0  0  0  0  0  0
  141.1110   72.4360  225.2210 H   0  0  0  0  0  0  0  0  0  0  0  0
  142.5606   70.9317  219.8520 H   0  0  0  0  0  0  0  0  0  0  0  0
  143.0020   71.7017  218.3246 H   0  0  0  0  0  0  0  0  0  0  0  0
  145.0689   70.8435  220.4621 H   0  0  0  0  0  0  0  0  0  0  0  0
  144.6165   69.7987  219.0974 H   0  0  0  0  0  0  0  0  0  0  0  0
  145.4340   71.3920  217.5880 H   0  0  0  0  0  0  0  0  0  0  0  0
  146.6701   73.2860  219.0249 H   0  0  0  0  0  0  0  0  0  0  0  0
  145.1979   73.5006  217.9632 H   0  0  0  0  0  0  0  0  0  0  0  0
  145.3441   73.1496  220.9530 H   0  0  0  0  0  0  0  0  0  0  0  0
  144.6411   74.5059  219.9612 H   0  0  0  0  0  0  0  0  0  0  0  0
  139.4618   77.3854  222.6784 H   0  0  0  0  0  0  0  0  0  0  0  0
  140.8893   76.8407  223.6221 H   0  0  0  0  0  0  0  0  0  0  0  0
  1  2  2  0
  2  3  1  0
  3  4  2  0
  4  5  1  0
  5  6  2  0
  5  7  1  0
  7  8  1  0
  8  9  1  0
  9 10  1  0
 10 11  2  0
 11 12  1  0
 12 13  1  0
 13 14  1  0
 14 15  1  0
 15 16  1  0
 16 17  1  0
 17 18  1  0
 18 19  1  0
 19 20  1  0
 20 21  1  0
 12 22  2  0
 22 23  1  0
 23 24  1  0
 24 25  1  0
 25 26  1  0
 26 27  1  0
 27 28  1  0
 28 29  1  0
 23 30  2  0
  9 31  1  0
  6  1  1  0
 30 10  1  0
 31  4  1  0
 21 16  1  0
 29 24  1  0
  1 32  1  0
  2 33  1  0
  3 34  1  0
  6 35  1  0
  7 36  1  0
  7 37  1  0
  8 38  1  0
  8 39  1  0
 13 40  1  0
 14 41  1  0
 14 42  1  0
 15 43  1  0
 15 44  1  0
 16 45  1  6
 17 46  1  0
 17 47  1  0
 18 48  1  0
 18 49  1  0
 19 50  1  0
 19 51  1  0
 20 52  1  0
 20 53  1  0
 21 54  1  0
 25 55  1  0
 25 56  1  0
 26 57  1  0
 26 58  1  0
 27 59  1  0
 28 60  1  0
 28 61  1  0
 29 62  1  0
 29 63  1  0
 31 64  1  0
 31 65  1  0
M  END
>  <smiles>  (9) 
c1ccc2c(c1)CCN(c1nc(NCCC3CCCCN3)nc(N3CCNCC3)n1)C2

>  <score_type>  (9) 
oracle

>  <origin>  (9) 
autodockgpu

>  <m_score__min__energy>  (9) 
-10.199999999999999

>  <m_primary>  (9) 
energy

>  <rmsd>  (9) 
4.989518227102679

>  <m_score__min__rmsd>  (9) 
4.989518227102679

>  <meeko>  (9) 
{"free_energy": -9.89, "intermolecular_energy": -11.67, "internal_energy": -0.84, "cluster_size": 38, "cluster_id": 1, "rank_in_cluster": 9}

>  <energy>  (9) 
-9.89

>  <cluster_rmsd>  (9) 
0.61

>  <cluster>  (9) 
1

$$$$

     RDKit          3D

 65 69  0  0  0  0  0  0  0  0999 V2000
  140.8500   81.9690  221.9830 C   0  0  0  0  0  0  0  0  0  0  0  0
  142.1130   81.4900  222.3290 C   0  0  0  0  0  0  0  0  0  0  0  0
  142.3010   80.1620  222.6900 C   0  0  0  0  0  0  0  0  0  0  0  0
  141.2340   79.2910  222.7120 C   0  0  0  0  0  0  0  0  0  0  0  0
  139.9800   79.7850  222.3650 C   0  0  0  0  0  0  0  0  0  0  0  0
  139.7780   81.1000  222.0050 C   0  0  0  0  0  0  0  0  0  0  0  0
  138.8640   78.7840  222.4100 C   0  0  0  0  0  0  0  0  0  0  0  0
  139.3370   77.6380  221.5070 C   0  0  0  0  0  0  0  0  0  0  0  0
  140.5070   77.0760  222.1790 N   0  0  0  0  0  0  0  0  0  0  0  0
  140.8060   75.7070  221.9130 C   0  0  0  0  0  0  0  0  0  0  0  0
  139.9710   74.7620  222.3360 N   0  0  0  0  0  0  0  0  0  0  0  0
  140.2350   73.4600  222.0950 C   0  0  0  0  0  0  0  0  0  0  0  0
  139.3110   72.4830  222.5650 N   0  0  0  0  0  0  0  0  0  0  0  0
  139.6650   71.0880  222.7140 C   0  0  0  0  0  0  0  0  0  0  0  0
  139.2990   70.5970  224.0960 C   0  0  0  0  0  0  0  0  0  0  0  0
  140.5940   70.4590  224.8860 C   0  0  2  0  0  0  0  0  0  0  0  0
  140.4740   69.2730  225.7710 C   0  0  0  0  0  0  0  0  0  0  0  0
  140.9410   69.5100  227.1830 C   0  0  0  0  0  0  0  0  0  0  0  0
  140.3140   70.7980  227.6600 C   0  0  0  0  0  0  0  0  0  0  0  0
  140.8840   71.8930  226.8370 C   0  0  0  0  0  0  0  0  0  0  0  0
  141.0380   71.6710  225.4560 N   0  0  0  0  0  0  0  0  0  0  0  0
  141.3570   73.1650  221.4230 N   0  0  0  0  0  0  0  0  0  0  0  0
  142.2240   74.0930  220.9810 C   0  0  0  0  0  0  0  0  0  0  0  0
  143.3940   73.7080  220.2740 N   0  0  0  0  0  0  0  0  0  0  0  0
  143.6770   74.2120  218.9450 C   0  0  0  0  0  0  0  0  0  0  0  0
  144.4510   73.0900  218.2440 C   0  0  0  0  0  0  0  0  0  0  0  0
  145.7390   73.0270  218.8620 N   0  0  0  0  0  0  0  0  0  0  0  0
  145.7170   72.9280  220.2960 C   0  0  0  0  0  0  0  0  0  0  0  0
  144.3280   72.8020  220.8730 C   0  0  0  0  0  0  0  0  0  0  0  0
  141.9320   75.3830  221.2370 N   0  0  0  0  0  0  0  0  0  0  0  0
  141.3330   77.8690  223.0800 C   0  0  0  0  0  0  0  0  0  0  0  0
  140.7104   83.0220  221.6973 H   0  0  0  0  0  0  0  0  0  0  0  0
  142.9739   82.1745  222.3158 H   0  0  0  0  0  0  0  0  0  0  0  0
  143.3058   79.8044  222.9594 H   0  0  0  0  0  0  0  0  0  0  0  0
  138.7713   81.4538  221.7376 H   0  0  0  0  0  0  0  0  0  0  0  0
  138.7031   78.4275  223.4381 H   0  0  0  0  0  0  0  0  0  0  0  0
  137.9066   79.2107  222.0763 H   0  0  0  0  0  0  0  0  0  0  0  0
  138.5489   76.8774  221.4048 H   0  0  0  0  0  0  0  0  0  0  0  0
  139.5754   77.9873  220.4916 H   0  0  0  0  0  0  0  0  0  0  0  0
  138.3550   72.8350  222.7960 H   0  0  0  0  0  0  0  0  0  0  0  0
  139.1233   70.4942  221.9630 H   0  0  0  0  0  0  0  0  0  0  0  0
  140.7501   70.9777  222.5716 H   0  0  0  0  0  0  0  0  0  0  0  0
  138.6331   71.3209  224.5884 H   0  0  0  0  0  0  0  0  0  0  0  0
  138.7728   69.6327  224.0397 H   0  0  0  0  0  0  0  0  0  0  0  0
  141.4452   70.2508  224.2211 H   0  0  0  0  0  0  0  0  0  0  0  0
  139.4167   68.9713  225.8028 H   0  0  0  0  0  0  0  0  0  0  0  0
  141.1254   68.4941  225.3479 H   0  0  0  0  0  0  0  0  0  0  0  0
  140.6242   68.6771  227.8278 H   0  0  0  0  0  0  0  0  0  0  0  0
  142.0383   69.5766  227.2214 H   0  0  0  0  0  0  0  0  0  0  0  0
  139.2225   70.7571  227.5295 H   0  0  0  0  0  0  0  0  0  0  0  0
  140.5220   70.9623  228.7276 H   0  0  0  0  0  0  0  0  0  0  0  0
  140.2274   72.7675  226.9564 H   0  0  0  0  0  0  0  0  0  0  0  0
  141.9113   72.0118  227.2120 H   0  0  0  0  0  0  0  0  0  0  0  0
  140.6990   72.4540  224.8520 H   0  0  0  0  0  0  0  0  0  0  0  0
  142.7419   74.4290  218.4079 H   0  0  0  0  0  0  0  0  0  0  0  0
  144.2512   75.1497  218.9754 H   0  0  0  0  0  0  0  0  0  0  0  0
  143.9244   72.1322  218.3679 H   0  0  0  0  0  0  0  0  0  0  0  0
  144.5403   73.2867  217.1654 H   0  0  0  0  0  0  0  0  0  0  0  0
  146.3680   73.7740  218.5490 H   0  0  0  0  0  0  0  0  0  0  0  0
  146.2980   72.0421  220.5921 H   0  0  0  0  0  0  0  0  0  0  0  0
  146.1458   73.8613  220.6898 H   0  0  0  0  0  0  0  0  0  0  0  0
  143.9726   71.7735  220.7122 H   0  0  0  0  0  0  0  0  0  0  0  0
  144.3900   73.0496  221.9430 H   0  0  0  0  0  0  0  0  0  0  0  0
  140.9832   77.7325  224.1139 H   0  0  0  0  0  0  0  0  0  0  0  0
  142.3802   77.5417  223.0013 H   0  0  0  0  0  0  0  0  0  0  0  0
  1  2  2  0
  2  3  1  0
  3  4  2  0
  4  5  1  0
  5  6  2  0
  5  7  1  0
  7  8  1  0
  8  9  1  0
  9 10  1  0
 10 11  2  0
 11 12  1  0
 12 13  1  0
 13 14  1  0
 14 15  1  0
 15 16  1  0
 16 17  1  0
 17 18  1  0
 18 19  1  0
 19 20  1  0
 20 21  1  0
 12 22  2  0
 22 23  1  0
 23 24  1  0
 24 25  1  0
 25 26  1  0
 26 27  1  0
 27 28  1  0
 28 29  1  0
 23 30  2  0
  9 31  1  0
  6  1  1  0
 30 10  1  0
 31  4  1  0
 21 16  1  0
 29 24  1  0
  1 32  1  0
  2 33  1  0
  3 34  1  0
  6 35  1  0
  7 36  1  0
  7 37  1  0
  8 38  1  0
  8 39  1  0
 13 40  1  0
 14 41  1  0
 14 42  1  0
 15 43  1  0
 15 44  1  0
 16 45  1  6
 17 46  1  0
 17 47  1  0
 18 48  1  0
 18 49  1  0
 19 50  1  0
 19 51  1  0
 20 52  1  0
 20 53  1  0
 21 54  1  0
 25 55  1  0
 25 56  1  0
 26 57  1  0
 26 58  1  0
 27 59  1  0
 28 60  1  0
 28 61  1  0
 29 62  1  0
 29 63  1  0
 31 64  1  0
 31 65  1  0
M  END
>  <smiles>  (10) 
c1ccc2c(c1)CCN(c1nc(NCCC3CCCCN3)nc(N3CCNCC3)n1)C2

>  <score_type>  (10) 
oracle

>  <origin>  (10) 
autodockgpu

>  <m_score__min__energy>  (10) 
-10.199999999999999

>  <m_primary>  (10) 
energy

>  <rmsd>  (10) 
4.901504344157144

>  <m_score__min__rmsd>  (10) 
4.901504344157144

>  <meeko>  (10) 
{"free_energy": -9.76, "intermolecular_energy": -11.55, "internal_energy": -0.9, "cluster_size": 38, "cluster_id": 1, "rank_in_cluster": 12}

>  <energy>  (10) 
-9.83

>  <cluster_rmsd>  (10) 
0.93

>  <cluster>  (10) 
1

$$$$

     RDKit          3D

 65 69  0  0  0  0  0  0  0  0999 V2000
  139.2220   69.7440  228.0960 C   0  0  0  0  0  0  0  0  0  0  0  0
  140.3270   70.5800  228.2630 C   0  0  0  0  0  0  0  0  0  0  0  0
  141.0360   71.0560  227.1680 C   0  0  0  0  0  0  0  0  0  0  0  0
  140.6570   70.7070  225.8900 C   0  0  0  0  0  0  0  0  0  0  0  0
  139.5530   69.8720  225.7410 C   0  0  0  0  0  0  0  0  0  0  0  0
  138.8400   69.3920  226.8170 C   0  0  0  0  0  0  0  0  0  0  0  0
  139.1960   69.5330  224.3240 C   0  0  0  0  0  0  0  0  0  0  0  0
  139.0280   70.8920  223.6330 C   0  0  0  0  0  0  0  0  0  0  0  0
  140.3570   71.5010  223.6550 N   0  0  0  0  0  0  0  0  0  0  0  0
  140.6460   72.4520  222.6300 C   0  0  0  0  0  0  0  0  0  0  0  0
  139.7460   73.3840  222.3310 N   0  0  0  0  0  0  0  0  0  0  0  0
  139.9990   74.2920  221.3660 C   0  0  0  0  0  0  0  0  0  0  0  0
  139.0050   75.2740  221.0820 N   0  0  0  0  0  0  0  0  0  0  0  0
  139.0530   76.6090  221.6360 C   0  0  0  0  0  0  0  0  0  0  0  0
  140.2810   76.7750  222.5040 C   0  0  0  0  0  0  0  0  0  0  0  0
  141.2270   77.7190  221.7740 C   0  0  2  0  0  0  0  0  0  0  0  0
  140.4500   78.9020  221.3270 C   0  0  0  0  0  0  0  0  0  0  0  0
  140.7220   79.3170  219.9050 C   0  0  0  0  0  0  0  0  0  0  0  0
  140.6510   78.0760  219.0480 C   0  0  0  0  0  0  0  0  0  0  0  0
  141.7760   77.1980  219.4560 C   0  0  0  0  0  0  0  0  0  0  0  0
  142.0510   77.0710  220.8300 N   0  0  0  0  0  0  0  0  0  0  0  0
  141.1770   74.2170  220.7310 N   0  0  0  0  0  0  0  0  0  0  0  0
  142.1100   73.2890  221.0060 C   0  0  0  0  0  0  0  0  0  0  0  0
  143.3390   73.2690  220.2940 N   0  0  0  0  0  0  0  0  0  0  0  0
  143.6790   74.3020  219.3370 C   0  0  0  0  0  0  0  0  0  0  0  0
  144.5480   73.6070  218.2840 C   0  0  0  0  0  0  0  0  0  0  0  0
  145.7970   73.3050  218.9110 N   0  0  0  0  0  0  0  0  0  0  0  0
  145.6920   72.5960  220.1570 C   0  0  0  0  0  0  0  0  0  0  0  0
  144.2770   72.2090  220.5160 C   0  0  0  0  0  0  0  0  0  0  0  0
  141.8280   72.3970  221.9760 N   0  0  0  0  0  0  0  0  0  0  0  0
  141.3450   71.1600  224.6690 C   0  0  0  0  0  0  0  0  0  0  0  0
  138.6650   69.3720  228.9686 H   0  0  0  0  0  0  0  0  0  0  0  0
  140.6411   70.8662  229.2776 H   0  0  0  0  0  0  0  0  0  0  0  0
  141.9038   71.7144  227.3214 H   0  0  0  0  0  0  0  0  0  0  0  0
  137.9732   68.7335  226.6586 H   0  0  0  0  0  0  0  0  0  0  0  0
  140.0004   68.9523  223.8489 H   0  0  0  0  0  0  0  0  0  0  0  0
  138.2878   68.9159  224.2583 H   0  0  0  0  0  0  0  0  0  0  0  0
  138.6824   70.7579  222.5973 H   0  0  0  0  0  0  0  0  0  0  0  0
  138.2798   71.5202  224.1385 H   0  0  0  0  0  0  0  0  0  0  0  0
  138.2350   74.9700  220.4450 H   0  0  0  0  0  0  0  0  0  0  0  0
  139.0871   77.3410  220.8156 H   0  0  0  0  0  0  0  0  0  0  0  0
  138.1559   76.7729  222.2512 H   0  0  0  0  0  0  0  0  0  0  0  0
  139.9990   77.2030  223.4773 H   0  0  0  0  0  0  0  0  0  0  0  0
  140.7637   75.8035  222.6858 H   0  0  0  0  0  0  0  0  0  0  0  0
  142.0009   78.1086  222.4517 H   0  0  0  0  0  0  0  0  0  0  0  0
  139.3794   78.6666  221.4190 H   0  0  0  0  0  0  0  0  0  0  0  0
  140.7576   79.7426  221.9663 H   0  0  0  0  0  0  0  0  0  0  0  0
  139.9661   80.0448  219.5751 H   0  0  0  0  0  0  0  0  0  0  0  0
  141.7122   79.7887  219.8220 H   0  0  0  0  0  0  0  0  0  0  0  0
  139.6927   77.5606  219.2092 H   0  0  0  0  0  0  0  0  0  0  0  0
  140.7224   78.3329  217.9808 H   0  0  0  0  0  0  0  0  0  0  0  0
  141.5604   76.1903  219.0712 H   0  0  0  0  0  0  0  0  0  0  0  0
  142.6699   77.6869  219.0413 H   0  0  0  0  0  0  0  0  0  0  0  0
  142.1990   76.0880  221.1530 H   0  0  0  0  0  0  0  0  0  0  0  0
  142.7696   74.7139  218.8752 H   0  0  0  0  0  0  0  0  0  0  0  0
  144.2042   75.1440  219.8115 H   0  0  0  0  0  0  0  0  0  0  0  0
  144.0618   72.6809  217.9435 H   0  0  0  0  0  0  0  0  0  0  0  0
  144.6941   74.2523  217.4052 H   0  0  0  0  0  0  0  0  0  0  0  0
  146.4070   74.1250  218.9980 H   0  0  0  0  0  0  0  0  0  0  0  0
  146.2960   71.6793  220.0873 H   0  0  0  0  0  0  0  0  0  0  0  0
  146.0502   73.2747  220.9451 H   0  0  0  0  0  0  0  0  0  0  0  0
  143.9825   71.3447  219.9026 H   0  0  0  0  0  0  0  0  0  0  0  0
  144.2606   71.9713  221.5899 H   0  0  0  0  0  0  0  0  0  0  0  0
  141.9937   70.3550  224.2932 H   0  0  0  0  0  0  0  0  0  0  0  0
  141.9561   72.0453  224.8987 H   0  0  0  0  0  0  0  0  0  0  0  0
  1  2  2  0
  2  3  1  0
  3  4  2  0
  4  5  1  0
  5  6  2  0
  5  7  1  0
  7  8  1  0
  8  9  1  0
  9 10  1  0
 10 11  2  0
 11 12  1  0
 12 13  1  0
 13 14  1  0
 14 15  1  0
 15 16  1  0
 16 17  1  0
 17 18  1  0
 18 19  1  0
 19 20  1  0
 20 21  1  0
 12 22  2  0
 22 23  1  0
 23 24  1  0
 24 25  1  0
 25 26  1  0
 26 27  1  0
 27 28  1  0
 28 29  1  0
 23 30  2  0
  9 31  1  0
  6  1  1  0
 30 10  1  0
 31  4  1  0
 21 16  1  0
 29 24  1  0
  1 32  1  0
  2 33  1  0
  3 34  1  0
  6 35  1  0
  7 36  1  0
  7 37  1  0
  8 38  1  0
  8 39  1  0
 13 40  1  0
 14 41  1  0
 14 42  1  0
 15 43  1  0
 15 44  1  0
 16 45  1  1
 17 46  1  0
 17 47  1  0
 18 48  1  0
 18 49  1  0
 19 50  1  0
 19 51  1  0
 20 52  1  0
 20 53  1  0
 21 54  1  0
 25 55  1  0
 25 56  1  0
 26 57  1  0
 26 58  1  0
 27 59  1  0
 28 60  1  0
 28 61  1  0
 29 62  1  0
 29 63  1  0
 31 64  1  0
 31 65  1  0
M  END
>  <smiles>  (11) 
c1ccc2c(c1)CCN(c1nc(NCCC3CCCCN3)nc(N3CCNCC3)n1)C2

>  <score_type>  (11) 
oracle

>  <origin>  (11) 
autodockgpu

>  <m_score__min__energy>  (11) 
-10.199999999999999

>  <m_primary>  (11) 
energy

>  <rmsd>  (11) 
10.884867833168995

>  <m_score__min__rmsd>  (11) 
10.884867833168995

>  <meeko>  (11) 
{"free_energy": -7.91, "intermolecular_energy": -9.7, "internal_energy": -2.07, "cluster_size": 5, "cluster_id": 2, "rank_in_cluster": 3}

>  <energy>  (11) 
-9.81

>  <cluster_rmsd>  (11) 
1.24

>  <cluster>  (11) 
1

$$$$

     RDKit          3D

 65 69  0  0  0  0  0  0  0  0999 V2000
  139.9190   69.6350  228.2860 C   0  0  0  0  0  0  0  0  0  0  0  0
  140.7100   70.7830  228.2530 C   0  0  0  0  0  0  0  0  0  0  0  0
  141.0010   71.4190  227.0530 C   0  0  0  0  0  0  0  0  0  0  0  0
  140.5070   70.9210  225.8670 C   0  0  0  0  0  0  0  0  0  0  0  0
  139.7190   69.7750  225.9170 C   0  0  0  0  0  0  0  0  0  0  0  0
  139.4230   69.1330  227.0990 C   0  0  0  0  0  0  0  0  0  0  0  0
  139.2150   69.2890  224.5900 C   0  0  0  0  0  0  0  0  0  0  0  0
  138.4910   70.4980  223.9850 C   0  0  0  0  0  0  0  0  0  0  0  0
  139.5340   71.4970  223.7600 N   0  0  0  0  0  0  0  0  0  0  0  0
  139.2970   72.4520  222.7260 C   0  0  0  0  0  0  0  0  0  0  0  0
  138.0720   72.5830  222.2260 N   0  0  0  0  0  0  0  0  0  0  0  0
  137.8270   73.4800  221.2480 C   0  0  0  0  0  0  0  0  0  0  0  0
  136.4980   73.5870  220.7440 N   0  0  0  0  0  0  0  0  0  0  0  0
  135.3940   74.0460  221.5580 C   0  0  0  0  0  0  0  0  0  0  0  0
  135.7260   73.9010  223.0260 C   0  0  0  0  0  0  0  0  0  0  0  0
  136.1980   75.2620  223.5210 C   0  0  2  0  0  0  0  0  0  0  0  0
  135.0790   76.2250  223.3700 C   0  0  0  0  0  0  0  0  0  0  0  0
  135.4790   77.5450  222.7660 C   0  0  0  0  0  0  0  0  0  0  0  0
  136.3110   77.2510  221.5410 C   0  0  0  0  0  0  0  0  0  0  0  0
  137.5610   76.6020  222.0070 C   0  0  0  0  0  0  0  0  0  0  0  0
  137.4650   75.6340  223.0230 N   0  0  0  0  0  0  0  0  0  0  0  0
  138.8530   74.2220  220.8090 N   0  0  0  0  0  0  0  0  0  0  0  0
  140.1040   74.1170  221.2910 C   0  0  0  0  0  0  0  0  0  0  0  0
  141.1450   74.9370  220.7790 N   0  0  0  0  0  0  0  0  0  0  0  0
  141.1620   76.3680  221.0000 C   0  0  0  0  0  0  0  0  0  0  0  0
  141.8500   76.9600  219.7650 C   0  0  0  0  0  0  0  0  0  0  0  0
  143.2290   76.5910  219.8430 N   0  0  0  0  0  0  0  0  0  0  0  0
  143.4690   75.1880  220.0430 C   0  0  0  0  0  0  0  0  0  0  0  0
  142.2130   74.3500  220.0260 C   0  0  0  0  0  0  0  0  0  0  0  0
  140.3170   73.2130  222.2670 N   0  0  0  0  0  0  0  0  0  0  0  0
  140.7590   71.5240  224.5470 C   0  0  0  0  0  0  0  0  0  0  0  0
  139.6940   69.1379  229.2411 H   0  0  0  0  0  0  0  0  0  0  0  0
  141.1100   71.1915  229.1927 H   0  0  0  0  0  0  0  0  0  0  0  0
  141.6277   72.3230  227.0494 H   0  0  0  0  0  0  0  0  0  0  0  0
  138.7971   68.2284  227.0975 H   0  0  0  0  0  0  0  0  0  0  0  0
  140.0515   68.9760  223.9479 H   0  0  0  0  0  0  0  0  0  0  0  0
  138.5553   68.4143  224.6891 H   0  0  0  0  0  0  0  0  0  0  0  0
  138.0089   70.2232  223.0352 H   0  0  0  0  0  0  0  0  0  0  0  0
  137.6971   70.8748  224.6466 H   0  0  0  0  0  0  0  0  0  0  0  0
  136.3670   73.3120  219.7450 H   0  0  0  0  0  0  0  0  0  0  0  0
  135.1941   75.1043  221.3343 H   0  0  0  0  0  0  0  0  0  0  0  0
  134.5061   73.4377  221.3310 H   0  0  0  0  0  0  0  0  0  0  0  0
  134.8321   73.5867  223.5847 H   0  0  0  0  0  0  0  0  0  0  0  0
  136.5067   73.1405  223.1751 H   0  0  0  0  0  0  0  0  0  0  0  0
  136.4272   75.2358  224.5965 H   0  0  0  0  0  0  0  0  0  0  0  0
  134.3147   75.7676  222.7245 H   0  0  0  0  0  0  0  0  0  0  0  0
  134.7076   76.4400  224.3829 H   0  0  0  0  0  0  0  0  0  0  0  0
  134.5821   78.1154  222.4826 H   0  0  0  0  0  0  0  0  0  0  0  0
  136.0526   78.1435  223.4890 H   0  0  0  0  0  0  0  0  0  0  0  0
  135.7640   76.5755  220.8668 H   0  0  0  0  0  0  0  0  0  0  0  0
  136.5330   78.1755  220.9879 H   0  0  0  0  0  0  0  0  0  0  0  0
  138.0215   76.1154  221.1345 H   0  0  0  0  0  0  0  0  0  0  0  0
  138.1412   77.4189  222.4608 H   0  0  0  0  0  0  0  0  0  0  0  0
  138.0080   74.7590  222.8400 H   0  0  0  0  0  0  0  0  0  0  0  0
  140.1368   76.7557  221.0928 H   0  0  0  0  0  0  0  0  0  0  0  0
  141.6880   76.6332  221.9290 H   0  0  0  0  0  0  0  0  0  0  0  0
  141.3999   76.5510  218.8484 H   0  0  0  0  0  0  0  0  0  0  0  0
  141.7354   78.0536  219.7359 H   0  0  0  0  0  0  0  0  0  0  0  0
  143.7560   77.1600  220.5150 H   0  0  0  0  0  0  0  0  0  0  0  0
  144.1351   74.8320  219.2433 H   0  0  0  0  0  0  0  0  0  0  0  0
  143.9165   75.0771  221.0417 H   0  0  0  0  0  0  0  0  0  0  0  0
  141.8839   74.2308  218.9832 H   0  0  0  0  0  0  0  0  0  0  0  0
  142.4536   73.3824  220.4906 H   0  0  0  0  0  0  0  0  0  0  0  0
  141.5421   70.9532  224.0264 H   0  0  0  0  0  0  0  0  0  0  0  0
  141.0893   72.5652  224.6762 H   0  0  0  0  0  0  0  0  0  0  0  0
  1  2  2  0
  2  3  1  0
  3  4  2  0
  4  5  1  0
  5  6  2  0
  5  7  1  0
  7  8  1  0
  8  9  1  0
  9 10  1  0
 10 11  2  0
 11 12  1  0
 12 13  1  0
 13 14  1  0
 14 15  1  0
 15 16  1  0
 16 17  1  0
 17 18  1  0
 18 19  1  0
 19 20  1  0
 20 21  1  0
 12 22  2  0
 22 23  1  0
 23 24  1  0
 24 25  1  0
 25 26  1  0
 26 27  1  0
 27 28  1  0
 28 29  1  0
 23 30  2  0
  9 31  1  0
  6  1  1  0
 30 10  1  0
 31  4  1  0
 21 16  1  0
 29 24  1  0
  1 32  1  0
  2 33  1  0
  3 34  1  0
  6 35  1  0
  7 36  1  0
  7 37  1  0
  8 38  1  0
  8 39  1  0
 13 40  1  0
 14 41  1  0
 14 42  1  0
 15 43  1  0
 15 44  1  0
 16 45  1  1
 17 46  1  0
 17 47  1  0
 18 48  1  0
 18 49  1  0
 19 50  1  0
 19 51  1  0
 20 52  1  0
 20 53  1  0
 21 54  1  0
 25 55  1  0
 25 56  1  0
 26 57  1  0
 26 58  1  0
 27 59  1  0
 28 60  1  0
 28 61  1  0
 29 62  1  0
 29 63  1  0
 31 64  1  0
 31 65  1  0
M  END
>  <smiles>  (12) 
c1ccc2c(c1)CCN(c1nc(NCCC3CCCCN3)nc(N3CCNCC3)n1)C2

>  <score_type>  (12) 
oracle

>  <origin>  (12) 
autodockgpu

>  <m_score__min__energy>  (12) 
-10.199999999999999

>  <m_primary>  (12) 
energy

>  <rmsd>  (12) 
10.874432344880699

>  <m_score__min__rmsd>  (12) 
10.874432344880699

>  <meeko>  (12) 
{"free_energy": -7.6, "intermolecular_energy": -9.39, "internal_energy": -2.24, "cluster_size": 3, "cluster_id": 3, "rank_in_cluster": 2}

>  <energy>  (12) 
-9.76

>  <cluster_rmsd>  (12) 
1.13

>  <cluster>  (12) 
1

$$$$

     RDKit          3D

 65 69  0  0  0  0  0  0  0  0999 V2000
  141.7590   81.8810  222.5100 C   0  0  0  0  0  0  0  0  0  0  0  0
  141.9100   81.1840  223.7090 C   0  0  0  0  0  0  0  0  0  0  0  0
  141.5450   79.8480  223.8110 C   0  0  0  0  0  0  0  0  0  0  0  0
  141.0240   79.1850  222.7210 C   0  0  0  0  0  0  0  0  0  0  0  0
  140.8800   79.8950  221.5330 C   0  0  0  0  0  0  0  0  0  0  0  0
  141.2370   81.2210  221.4160 C   0  0  0  0  0  0  0  0  0  0  0  0
  140.3080   79.1140  220.3870 C   0  0  0  0  0  0  0  0  0  0  0  0
  141.2260   77.8920  220.2580 C   0  0  0  0  0  0  0  0  0  0  0  0
  141.0340   77.1340  221.4930 N   0  0  0  0  0  0  0  0  0  0  0  0
  141.2820   75.7300  221.4320 C   0  0  0  0  0  0  0  0  0  0  0  0
  140.4790   74.8960  222.0860 N   0  0  0  0  0  0  0  0  0  0  0  0
  140.6960   73.5650  222.0420 C   0  0  0  0  0  0  0  0  0  0  0  0
  139.8080   72.7090  222.7560 N   0  0  0  0  0  0  0  0  0  0  0  0
  140.0530   71.2910  222.9110 C   0  0  0  0  0  0  0  0  0  0  0  0
  139.5160   70.8070  224.2390 C   0  0  0  0  0  0  0  0  0  0  0  0
  140.7140   70.4770  225.1190 C   0  0  2  0  0  0  0  0  0  0  0  0
  140.3410   69.3470  226.0070 C   0  0  0  0  0  0  0  0  0  0  0  0
  140.7440   69.5350  227.4460 C   0  0  0  0  0  0  0  0  0  0  0  0
  140.3070   70.9190  227.8630 C   0  0  0  0  0  0  0  0  0  0  0  0
  141.1040   71.8870  227.0700 C   0  0  0  0  0  0  0  0  0  0  0  0
  141.3120   71.6120  225.7060 N   0  0  0  0  0  0  0  0  0  0  0  0
  141.7380   73.1250  221.3230 N   0  0  0  0  0  0  0  0  0  0  0  0
  142.5710   73.9380  220.6500 C   0  0  0  0  0  0  0  0  0  0  0  0
  143.6570   73.4040  219.9060 N   0  0  0  0  0  0  0  0  0  0  0  0
  143.7570   73.5860  218.4720 C   0  0  0  0  0  0  0  0  0  0  0  0
  144.4750   72.3350  217.9550 C   0  0  0  0  0  0  0  0  0  0  0  0
  145.8310   72.4220  218.4010 N   0  0  0  0  0  0  0  0  0  0  0  0
  145.9900   72.6590  219.8100 C   0  0  0  0  0  0  0  0  0  0  0  0
  144.6870   72.6650  220.5740 C   0  0  0  0  0  0  0  0  0  0  0  0
  142.3280   75.2630  220.7130 N   0  0  0  0  0  0  0  0  0  0  0  0
  140.6090   77.7730  222.7310 C   0  0  0  0  0  0  0  0  0  0  0  0
  142.0511   82.9390  222.4377 H   0  0  0  0  0  0  0  0  0  0  0  0
  142.3246   81.7006  224.5872 H   0  0  0  0  0  0  0  0  0  0  0  0
  141.6723   79.3168  224.7658 H   0  0  0  0  0  0  0  0  0  0  0  0
  141.1071   81.7485  220.4595 H   0  0  0  0  0  0  0  0  0  0  0  0
  139.2756   78.8033  220.6052 H   0  0  0  0  0  0  0  0  0  0  0  0
  140.2644   79.7039  219.4595 H   0  0  0  0  0  0  0  0  0  0  0  0
  140.9406   77.2859  219.3855 H   0  0  0  0  0  0  0  0  0  0  0  0
  142.2772   78.1819  220.1137 H   0  0  0  0  0  0  0  0  0  0  0  0
  138.9620   73.1680  223.1630 H   0  0  0  0  0  0  0  0  0  0  0  0
  139.5532   70.7454  222.0970 H   0  0  0  0  0  0  0  0  0  0  0  0
  141.1374   71.1097  222.8764 H   0  0  0  0  0  0  0  0  0  0  0  0
  138.9092   71.5948  224.7093 H   0  0  0  0  0  0  0  0  0  0  0  0
  138.8782   69.9214  224.1016 H   0  0  0  0  0  0  0  0  0  0  0  0
  141.5617   70.1179  224.5169 H   0  0  0  0  0  0  0  0  0  0  0  0
  139.2487   69.2232  225.9678 H   0  0  0  0  0  0  0  0  0  0  0  0
  140.8830   68.4632  225.6393 H   0  0  0  0  0  0  0  0  0  0  0  0
  140.2509   68.7798  228.0758 H   0  0  0  0  0  0  0  0  0  0  0  0
  141.8320   69.4212  227.5615 H   0  0  0  0  0  0  0  0  0  0  0  0
  139.2351   71.0543  227.6563 H   0  0  0  0  0  0  0  0  0  0  0  0
  140.4666   71.0712  228.9407 H   0  0  0  0  0  0  0  0  0  0  0  0
  140.5942   72.8597  227.1334 H   0  0  0  0  0  0  0  0  0  0  0  0
  142.1091   71.8442  227.5148 H   0  0  0  0  0  0  0  0  0  0  0  0
  141.1480   72.4260  225.0710 H   0  0  0  0  0  0  0  0  0  0  0  0
  142.7561   73.6689  218.0234 H   0  0  0  0  0  0  0  0  0  0  0  0
  144.2994   74.5071  218.2123 H   0  0  0  0  0  0  0  0  0  0  0  0
  143.9999   71.4303  218.3622 H   0  0  0  0  0  0  0  0  0  0  0  0
  144.4237   72.2760  216.8578 H   0  0  0  0  0  0  0  0  0  0  0  0
  146.3920   73.0770  217.8460 H   0  0  0  0  0  0  0  0  0  0  0  0
  146.6326   71.8686  220.2251 H   0  0  0  0  0  0  0  0  0  0  0  0
  146.4328   73.6599  219.9204 H   0  0  0  0  0  0  0  0  0  0  0  0
  144.3487   71.6260  220.7008 H   0  0  0  0  0  0  0  0  0  0  0  0
  144.8719   73.1539  221.5419 H   0  0  0  0  0  0  0  0  0  0  0  0
  139.5140   77.7131  222.8176 H   0  0  0  0  0  0  0  0  0  0  0  0
  141.0727   77.2603  223.5866 H   0  0  0  0  0  0  0  0  0  0  0  0
  1  2  2  0
  2  3  1  0
  3  4  2  0
  4  5  1  0
  5  6  2  0
  5  7  1  0
  7  8  1  0
  8  9  1  0
  9 10  1  0
 10 11  2  0
 11 12  1  0
 12 13  1  0
 13 14  1  0
 14 15  1  0
 15 16  1  0
 16 17  1  0
 17 18  1  0
 18 19  1  0
 19 20  1  0
 20 21  1  0
 12 22  2  0
 22 23  1  0
 23 24  1  0
 24 25  1  0
 25 26  1  0
 26 27  1  0
 27 28  1  0
 28 29  1  0
 23 30  2  0
  9 31  1  0
  6  1  1  0
 30 10  1  0
 31  4  1  0
 21 16  1  0
 29 24  1  0
  1 32  1  0
  2 33  1  0
  3 34  1  0
  6 35  1  0
  7 36  1  0
  7 37  1  0
  8 38  1  0
  8 39  1  0
 13 40  1  0
 14 41  1  0
 14 42  1  0
 15 43  1  0
 15 44  1  0
 16 45  1  6
 17 46  1  0
 17 47  1  0
 18 48  1  0
 18 49  1  0
 19 50  1  0
 19 51  1  0
 20 52  1  0
 20 53  1  0
 21 54  1  0
 25 55  1  0
 25 56  1  0
 26 57  1  0
 26 58  1  0
 27 59  1  0
 28 60  1  0
 28 61  1  0
 29 62  1  0
 29 63  1  0
 31 64  1  0
 31 65  1  0
M  END
>  <smiles>  (13) 
c1ccc2c(c1)CCN(c1nc(NCCC3CCCCN3)nc(N3CCNCC3)n1)C2

>  <score_type>  (13) 
oracle

>  <origin>  (13) 
autodockgpu

>  <m_score__min__energy>  (13) 
-10.199999999999999

>  <m_primary>  (13) 
energy

>  <rmsd>  (13) 
5.035912761775616

>  <m_score__min__rmsd>  (13) 
5.035912761775616

>  <meeko>  (13) 
{"free_energy": -9.59, "intermolecular_energy": -11.38, "internal_energy": -0.81, "cluster_size": 38, "cluster_id": 1, "rank_in_cluster": 21}

>  <energy>  (13) 
-9.74

>  <cluster_rmsd>  (13) 
0.83

>  <cluster>  (13) 
1

$$$$

     RDKit          3D

 65 69  0  0  0  0  0  0  0  0999 V2000
  135.9220   77.9340  223.1170 C   0  0  0  0  0  0  0  0  0  0  0  0
  136.7620   79.0480  223.1510 C   0  0  0  0  0  0  0  0  0  0  0  0
  138.1240   78.9240  222.9100 C   0  0  0  0  0  0  0  0  0  0  0  0
  138.6710   77.6900  222.6320 C   0  0  0  0  0  0  0  0  0  0  0  0
  137.8200   76.5900  222.6030 C   0  0  0  0  0  0  0  0  0  0  0  0
  136.4670   76.6960  222.8400 C   0  0  0  0  0  0  0  0  0  0  0  0
  138.4810   75.2790  222.2940 C   0  0  0  0  0  0  0  0  0  0  0  0
  139.2110   75.5180  220.9670 C   0  0  0  0  0  0  0  0  0  0  0  0
  140.2410   76.5110  221.2680 N   0  0  0  0  0  0  0  0  0  0  0  0
  141.4000   76.5090  220.4350 C   0  0  0  0  0  0  0  0  0  0  0  0
  141.6360   77.5500  219.6430 N   0  0  0  0  0  0  0  0  0  0  0  0
  142.7250   77.5690  218.8460 C   0  0  0  0  0  0  0  0  0  0  0  0
  142.9390   78.7080  218.0160 N   0  0  0  0  0  0  0  0  0  0  0  0
  141.9900   79.7970  217.9330 C   0  0  0  0  0  0  0  0  0  0  0  0
  142.2140   80.7770  219.0620 C   0  0  0  0  0  0  0  0  0  0  0  0
  141.2770   80.3840  220.1960 C   0  0  2  0  0  0  0  0  0  0  0  0
  140.5120   81.5880  220.6060 C   0  0  0  0  0  0  0  0  0  0  0  0
  140.4310   81.7880  222.0960 C   0  0  0  0  0  0  0  0  0  0  0  0
  141.8250   81.6290  222.6540 C   0  0  0  0  0  0  0  0  0  0  0  0
  142.2240   80.2160  222.4370 C   0  0  0  0  0  0  0  0  0  0  0  0
  141.9020   79.6200  221.2040 N   0  0  0  0  0  0  0  0  0  0  0  0
  143.5460   76.5100  218.8870 N   0  0  0  0  0  0  0  0  0  0  0  0
  143.3390   75.4400  219.6740 C   0  0  0  0  0  0  0  0  0  0  0  0
  144.2520   74.3520  219.6670 N   0  0  0  0  0  0  0  0  0  0  0  0
  145.0470   74.0210  220.8320 C   0  0  0  0  0  0  0  0  0  0  0  0
  146.3490   73.4320  220.2780 C   0  0  0  0  0  0  0  0  0  0  0  0
  146.0230   72.1580  219.7200 N   0  0  0  0  0  0  0  0  0  0  0  0
  144.9310   72.1680  218.7850 C   0  0  0  0  0  0  0  0  0  0  0  0
  144.4020   73.5510  218.4880 C   0  0  0  0  0  0  0  0  0  0  0  0
  142.2430   75.4520  220.4580 N   0  0  0  0  0  0  0  0  0  0  0  0
  140.1010   77.4590  222.3640 C   0  0  0  0  0  0  0  0  0  0  0  0
  134.8439   78.0405  223.3077 H   0  0  0  0  0  0  0  0  0  0  0  0
  136.3389   80.0390  223.3720 H   0  0  0  0  0  0  0  0  0  0  0  0
  138.7690   79.8145  222.9411 H   0  0  0  0  0  0  0  0  0  0  0  0
  135.8265   75.8022  222.8088 H   0  0  0  0  0  0  0  0  0  0  0  0
  139.1942   75.0073  223.0862 H   0  0  0  0  0  0  0  0  0  0  0  0
  137.7585   74.4521  222.2299 H   0  0  0  0  0  0  0  0  0  0  0  0
  139.6686   74.5854  220.6053 H   0  0  0  0  0  0  0  0  0  0  0  0
  138.5264   75.8628  220.1781 H   0  0  0  0  0  0  0  0  0  0  0  0
  143.8280   78.7090  217.4670 H   0  0  0  0  0  0  0  0  0  0  0  0
  142.1170   80.3162  216.9716 H   0  0  0  0  0  0  0  0  0  0  0  0
  140.9711   79.3897  218.0103 H   0  0  0  0  0  0  0  0  0  0  0  0
  143.2588   80.7265  219.4025 H   0  0  0  0  0  0  0  0  0  0  0  0
  142.0128   81.8061  218.7298 H   0  0  0  0  0  0  0  0  0  0  0  0
  140.5268   79.6548  219.8562 H   0  0  0  0  0  0  0  0  0  0  0  0
  140.9964   82.4716  220.1649 H   0  0  0  0  0  0  0  0  0  0  0  0
  139.4814   81.4452  220.2490 H   0  0  0  0  0  0  0  0  0  0  0  0
  140.0503   82.7956  222.3191 H   0  0  0  0  0  0  0  0  0  0  0  0
  139.7477   81.0539  222.5479 H   0  0  0  0  0  0  0  0  0  0  0  0
  142.5200   82.3019  222.1303 H   0  0  0  0  0  0  0  0  0  0  0  0
  141.8494   81.8825  223.7241 H   0  0  0  0  0  0  0  0  0  0  0  0
  143.3170   80.1639  222.5498 H   0  0  0  0  0  0  0  0  0  0  0  0
  141.6396   79.6492  223.1767 H   0  0  0  0  0  0  0  0  0  0  0  0
  142.6860   79.0860  220.7640 H   0  0  0  0  0  0  0  0  0  0  0  0
  145.2542   74.9232  221.4262 H   0  0  0  0  0  0  0  0  0  0  0  0
  144.5273   73.3151  221.4965 H   0  0  0  0  0  0  0  0  0  0  0  0
  146.7617   74.0913  219.5002 H   0  0  0  0  0  0  0  0  0  0  0  0
  147.1053   73.3331  221.0706 H   0  0  0  0  0  0  0  0  0  0  0  0
  145.8970   71.4310  220.4330 H   0  0  0  0  0  0  0  0  0  0  0  0
  145.2760   71.7178  217.8425 H   0  0  0  0  0  0  0  0  0  0  0  0
  144.1084   71.5996  219.2436 H   0  0  0  0  0  0  0  0  0  0  0  0
  145.1018   74.0563  217.8062 H   0  0  0  0  0  0  0  0  0  0  0  0
  143.4056   73.4352  218.0366 H   0  0  0  0  0  0  0  0  0  0  0  0
  140.5821   77.0514  223.2654 H   0  0  0  0  0  0  0  0  0  0  0  0
  140.5817   78.4099  222.0907 H   0  0  0  0  0  0  0  0  0  0  0  0
  1  2  2  0
  2  3  1  0
  3  4  2  0
  4  5  1  0
  5  6  2  0
  5  7  1  0
  7  8  1  0
  8  9  1  0
  9 10  1  0
 10 11  2  0
 11 12  1  0
 12 13  1  0
 13 14  1  0
 14 15  1  0
 15 16  1  0
 16 17  1  0
 17 18  1  0
 18 19  1  0
 19 20  1  0
 20 21  1  0
 12 22  2  0
 22 23  1  0
 23 24  1  0
 24 25  1  0
 25 26  1  0
 26 27  1  0
 27 28  1  0
 28 29  1  0
 23 30  2  0
  9 31  1  0
  6  1  1  0
 30 10  1  0
 31  4  1  0
 21 16  1  0
 29 24  1  0
  1 32  1  0
  2 33  1  0
  3 34  1  0
  6 35  1  0
  7 36  1  0
  7 37  1  0
  8 38  1  0
  8 39  1  0
 13 40  1  0
 14 41  1  0
 14 42  1  0
 15 43  1  0
 15 44  1  0
 16 45  1  6
 17 46  1  0
 17 47  1  0
 18 48  1  0
 18 49  1  0
 19 50  1  0
 19 51  1  0
 20 52  1  0
 20 53  1  0
 21 54  1  0
 25 55  1  0
 25 56  1  0
 26 57  1  0
 26 58  1  0
 27 59  1  0
 28 60  1  0
 28 61  1  0
 29 62  1  0
 29 63  1  0
 31 64  1  0
 31 65  1  0
M  END
>  <smiles>  (14) 
c1ccc2c(c1)CCN(c1nc(NCCC3CCCCN3)nc(N3CCNCC3)n1)C2

>  <score_type>  (14) 
oracle

>  <origin>  (14) 
autodockgpu

>  <m_score__min__energy>  (14) 
-10.199999999999999

>  <m_primary>  (14) 
energy

>  <rmsd>  (14) 
5.0114602663759555

>  <m_score__min__rmsd>  (14) 
5.0114602663759555

>  <meeko>  (14) 
{"free_energy": -7.67, "intermolecular_energy": -9.46, "internal_energy": -2.22, "cluster_size": 2, "cluster_id": 4, "rank_in_cluster": 1}

>  <energy>  (14) 
-9.74

>  <cluster_rmsd>  (14) 
0.82

>  <cluster>  (14) 
1

$$$$

     RDKit          3D

 65 69  0  0  0  0  0  0  0  0999 V2000
  140.5290   81.7540  222.1790 C   0  0  0  0  0  0  0  0  0  0  0  0
  141.8420   81.3520  222.4220 C   0  0  0  0  0  0  0  0  0  0  0  0
  142.1420   80.0300  222.7220 C   0  0  0  0  0  0  0  0  0  0  0  0
  141.1380   79.0870  222.7860 C   0  0  0  0  0  0  0  0  0  0  0  0
  139.8340   79.5050  222.5420 C   0  0  0  0  0  0  0  0  0  0  0  0
  139.5200   80.8130  222.2430 C   0  0  0  0  0  0  0  0  0  0  0  0
  138.7920   78.4290  222.6270 C   0  0  0  0  0  0  0  0  0  0  0  0
  139.2760   77.3460  221.6550 C   0  0  0  0  0  0  0  0  0  0  0  0
  140.5240   76.8460  222.2270 N   0  0  0  0  0  0  0  0  0  0  0  0
  140.8940   75.5080  221.8930 C   0  0  0  0  0  0  0  0  0  0  0  0
  140.1110   74.5010  222.2680 N   0  0  0  0  0  0  0  0  0  0  0  0
  140.4420   73.2290  221.9630 C   0  0  0  0  0  0  0  0  0  0  0  0
  139.5710   72.1820  222.3830 N   0  0  0  0  0  0  0  0  0  0  0  0
  140.0620   70.9340  222.9260 C   0  0  0  0  0  0  0  0  0  0  0  0
  138.9080   70.0320  223.2990 C   0  0  0  0  0  0  0  0  0  0  0  0
  138.8170   70.0180  224.8190 C   0  0  2  0  0  0  0  0  0  0  0  0
  139.9350   70.8310  225.3590 C   0  0  0  0  0  0  0  0  0  0  0  0
  140.6670   70.1870  226.5070 C   0  0  0  0  0  0  0  0  0  0  0  0
  140.9730   68.7630  226.1100 C   0  0  0  0  0  0  0  0  0  0  0  0
  139.6750   68.0550  225.9840 C   0  0  0  0  0  0  0  0  0  0  0  0
  138.6110   68.7310  225.3600 N   0  0  0  0  0  0  0  0  0  0  0  0
  141.5760   73.0260  221.2780 N   0  0  0  0  0  0  0  0  0  0  0  0
  142.3920   74.0190  220.8820 C   0  0  0  0  0  0  0  0  0  0  0  0
  143.5790   73.7310  220.1570 N   0  0  0  0  0  0  0  0  0  0  0  0
  143.7160   74.0800  218.7580 C   0  0  0  0  0  0  0  0  0  0  0  0
  144.6380   73.0100  218.1630 C   0  0  0  0  0  0  0  0  0  0  0  0
  145.9430   73.2440  218.6980 N   0  0  0  0  0  0  0  0  0  0  0  0
  146.0000   73.3480  220.1310 C   0  0  0  0  0  0  0  0  0  0  0  0
  144.6770   73.0830  220.8100 C   0  0  0  0  0  0  0  0  0  0  0  0
  142.0330   75.2780  221.2020 N   0  0  0  0  0  0  0  0  0  0  0  0
  141.3570   77.6650  223.0970 C   0  0  0  0  0  0  0  0  0  0  0  0
  140.3007   82.8032  221.9403 H   0  0  0  0  0  0  0  0  0  0  0  0
  142.6528   82.0939  222.3753 H   0  0  0  0  0  0  0  0  0  0  0  0
  143.1847   79.7337  222.9094 H   0  0  0  0  0  0  0  0  0  0  0  0
  138.4759   81.1049  222.0571 H   0  0  0  0  0  0  0  0  0  0  0  0
  138.7267   78.0314  223.6505 H   0  0  0  0  0  0  0  0  0  0  0  0
  137.7877   78.7992  222.3734 H   0  0  0  0  0  0  0  0  0  0  0  0
  138.5349   76.5366  221.5796 H   0  0  0  0  0  0  0  0  0  0  0  0
  139.4195   77.7411  220.6385 H   0  0  0  0  0  0  0  0  0  0  0  0
  138.5490   72.3700  222.2750 H   0  0  0  0  0  0  0  0  0  0  0  0
  140.6861   70.4314  222.1724 H   0  0  0  0  0  0  0  0  0  0  0  0
  140.6554   71.1459  223.8276 H   0  0  0  0  0  0  0  0  0  0  0  0
  137.9727   70.4202  222.8695 H   0  0  0  0  0  0  0  0  0  0  0  0
  139.0663   69.0157  222.9090 H   0  0  0  0  0  0  0  0  0  0  0  0
  137.8954   70.5084  225.1657 H   0  0  0  0  0  0  0  0  0  0  0  0
  140.6553   71.0098  224.5471 H   0  0  0  0  0  0  0  0  0  0  0  0
  139.4921   71.7600  225.7473 H   0  0  0  0  0  0  0  0  0  0  0  0
  141.6024   70.7300  226.7076 H   0  0  0  0  0  0  0  0  0  0  0  0
  140.0531   70.2109  227.4195 H   0  0  0  0  0  0  0  0  0  0  0  0
  141.5066   68.7461  225.1483 H   0  0  0  0  0  0  0  0  0  0  0  0
  141.6123   68.2765  226.8614 H   0  0  0  0  0  0  0  0  0  0  0  0
  139.8590   67.1347  225.4102 H   0  0  0  0  0  0  0  0  0  0  0  0
  139.3385   67.9123  227.0215 H   0  0  0  0  0  0  0  0  0  0  0  0
  138.0940   68.1630  224.6500 H   0  0  0  0  0  0  0  0  0  0  0  0
  142.7357   74.0646  218.2592 H   0  0  0  0  0  0  0  0  0  0  0  0
  144.1243   75.0928  218.6259 H   0  0  0  0  0  0  0  0  0  0  0  0
  144.2867   72.0071  218.4471 H   0  0  0  0  0  0  0  0  0  0  0  0
  144.6468   73.0637  217.0643 H   0  0  0  0  0  0  0  0  0  0  0  0
  146.4230   74.0310  218.2470 H   0  0  0  0  0  0  0  0  0  0  0  0
  146.7343   72.6186  220.5036 H   0  0  0  0  0  0  0  0  0  0  0  0
  146.2822   74.3844  220.3681 H   0  0  0  0  0  0  0  0  0  0  0  0
  144.4941   71.9983  220.8124 H   0  0  0  0  0  0  0  0  0  0  0  0
  144.7413   73.4879  221.8307 H   0  0  0  0  0  0  0  0  0  0  0  0
  141.0904   77.4736  224.1469 H   0  0  0  0  0  0  0  0  0  0  0  0
  142.4155   77.4124  222.9366 H   0  0  0  0  0  0  0  0  0  0  0  0
  1  2  2  0
  2  3  1  0
  3  4  2  0
  4  5  1  0
  5  6  2  0
  5  7  1  0
  7  8  1  0
  8  9  1  0
  9 10  1  0
 10 11  2  0
 11 12  1  0
 12 13  1  0
 13 14  1  0
 14 15  1  0
 15 16  1  0
 16 17  1  0
 17 18  1  0
 18 19  1  0
 19 20  1  0
 20 21  1  0
 12 22  2  0
 22 23  1  0
 23 24  1  0
 24 25  1  0
 25 26  1  0
 26 27  1  0
 27 28  1  0
 28 29  1  0
 23 30  2  0
  9 31  1  0
  6  1  1  0
 30 10  1  0
 31  4  1  0
 21 16  1  0
 29 24  1  0
  1 32  1  0
  2 33  1  0
  3 34  1  0
  6 35  1  0
  7 36  1  0
  7 37  1  0
  8 38  1  0
  8 39  1  0
 13 40  1  0
 14 41  1  0
 14 42  1  0
 15 43  1  0
 15 44  1  0
 16 45  1  6
 17 46  1  0
 17 47  1  0
 18 48  1  0
 18 49  1  0
 19 50  1  0
 19 51  1  0
 20 52  1  0
 20 53  1  0
 21 54  1  0
 25 55  1  0
 25 56  1  0
 26 57  1  0
 26 58  1  0
 27 59  1  0
 28 60  1  0
 28 61  1  0
 29 62  1  0
 29 63  1  0
 31 64  1  0
 31 65  1  0
M  END
>  <smiles>  (15) 
c1ccc2c(c1)CCN(c1nc(NCCC3CCCCN3)nc(N3CCNCC3)n1)C2

>  <score_type>  (15) 
oracle

>  <origin>  (15) 
autodockgpu

>  <m_score__min__energy>  (15) 
-10.199999999999999

>  <m_primary>  (15) 
energy

>  <rmsd>  (15) 
4.87568577972692

>  <m_score__min__rmsd>  (15) 
4.87568577972692

>  <meeko>  (15) 
{"free_energy": -9.29, "intermolecular_energy": -11.08, "internal_energy": -0.84, "cluster_size": 38, "cluster_id": 1, "rank_in_cluster": 28}

>  <energy>  (15) 
-9.7

>  <cluster_rmsd>  (15) 
1.39

>  <cluster>  (15) 
1

$$$$

     RDKit          3D

 65 69  0  0  0  0  0  0  0  0999 V2000
  142.6930   82.8360  217.3440 C   0  0  0  0  0  0  0  0  0  0  0  0
  142.0660   82.8350  218.5900 C   0  0  0  0  0  0  0  0  0  0  0  0
  141.5020   81.6750  219.1060 C   0  0  0  0  0  0  0  0  0  0  0  0
  141.5530   80.4990  218.3890 C   0  0  0  0  0  0  0  0  0  0  0  0
  142.1810   80.5180  217.1470 C   0  0  0  0  0  0  0  0  0  0  0  0
  142.7450   81.6610  216.6220 C   0  0  0  0  0  0  0  0  0  0  0  0
  142.2010   79.2060  216.4220 C   0  0  0  0  0  0  0  0  0  0  0  0
  142.8430   78.2270  217.4120 C   0  0  0  0  0  0  0  0  0  0  0  0
  141.9030   78.1380  218.5280 N   0  0  0  0  0  0  0  0  0  0  0  0
  141.9250   76.9340  219.2940 C   0  0  0  0  0  0  0  0  0  0  0  0
  140.8920   76.6410  220.0790 N   0  0  0  0  0  0  0  0  0  0  0  0
  140.8920   75.5080  220.8120 C   0  0  0  0  0  0  0  0  0  0  0  0
  139.7630   75.2340  221.6370 N   0  0  0  0  0  0  0  0  0  0  0  0
  139.3090   76.1490  222.6610 C   0  0  0  0  0  0  0  0  0  0  0  0
  139.4540   77.5790  222.1900 C   0  0  0  0  0  0  0  0  0  0  0  0
  140.5020   78.2430  223.0740 C   0  0  2  0  0  0  0  0  0  0  0  0
  139.9400   79.5180  223.5840 C   0  0  0  0  0  0  0  0  0  0  0  0
  140.8850   80.6870  223.4940 C   0  0  0  0  0  0  0  0  0  0  0  0
  141.4700   80.6940  222.1020 C   0  0  0  0  0  0  0  0  0  0  0  0
  142.2970   79.4700  221.9690 C   0  0  0  0  0  0  0  0  0  0  0  0
  141.7900   78.2680  222.4980 N   0  0  0  0  0  0  0  0  0  0  0  0
  141.9600   74.7030  220.7170 N   0  0  0  0  0  0  0  0  0  0  0  0
  143.0210   74.9660  219.9350 C   0  0  0  0  0  0  0  0  0  0  0  0
  144.1190   74.0680  219.8810 N   0  0  0  0  0  0  0  0  0  0  0  0
  144.9180   73.7750  221.0530 C   0  0  0  0  0  0  0  0  0  0  0  0
  146.3270   73.4890  220.5210 C   0  0  0  0  0  0  0  0  0  0  0  0
  146.2630   72.2360  219.8350 N   0  0  0  0  0  0  0  0  0  0  0  0
  145.2240   72.1390  218.8480 C   0  0  0  0  0  0  0  0  0  0  0  0
  144.4580   73.4250  218.6460 C   0  0  0  0  0  0  0  0  0  0  0  0
  142.9910   76.1060  219.2150 N   0  0  0  0  0  0  0  0  0  0  0  0
  140.9850   79.2220  218.8510 C   0  0  0  0  0  0  0  0  0  0  0  0
  143.1388   83.7584  216.9434 H   0  0  0  0  0  0  0  0  0  0  0  0
  142.0174   83.7667  219.1728 H   0  0  0  0  0  0  0  0  0  0  0  0
  141.0127   81.6952  220.0910 H   0  0  0  0  0  0  0  0  0  0  0  0
  143.2323   81.6368  215.6361 H   0  0  0  0  0  0  0  0  0  0  0  0
  141.1794   78.8872  216.1678 H   0  0  0  0  0  0  0  0  0  0  0  0
  142.7541   79.2622  215.4728 H   0  0  0  0  0  0  0  0  0  0  0  0
  142.9811   77.2409  216.9445 H   0  0  0  0  0  0  0  0  0  0  0  0
  143.8374   78.5656  217.7384 H   0  0  0  0  0  0  0  0  0  0  0  0
  139.2780   74.3250  221.4580 H   0  0  0  0  0  0  0  0  0  0  0  0
  138.2514   75.9465  222.8854 H   0  0  0  0  0  0  0  0  0  0  0  0
  139.9203   76.0064  223.5643 H   0  0  0  0  0  0  0  0  0  0  0  0
  139.7806   77.5981  221.1398 H   0  0  0  0  0  0  0  0  0  0  0  0
  138.4935   78.1108  222.2581 H   0  0  0  0  0  0  0  0  0  0  0  0
  140.7147   77.6336  223.9647 H   0  0  0  0  0  0  0  0  0  0  0  0
  139.0391   79.7565  222.9996 H   0  0  0  0  0  0  0  0  0  0  0  0
  139.7260   79.3651  224.6521 H   0  0  0  0  0  0  0  0  0  0  0  0
  140.3401   81.6249  223.6767 H   0  0  0  0  0  0  0  0  0  0  0  0
  141.6814   80.5993  224.2477 H   0  0  0  0  0  0  0  0  0  0  0  0
  140.6635   80.6873  221.3540 H   0  0  0  0  0  0  0  0  0  0  0  0
  142.0776   81.5961  221.9378 H   0  0  0  0  0  0  0  0  0  0  0  0
  142.4697   79.3073  220.8949 H   0  0  0  0  0  0  0  0  0  0  0  0
  143.1937   79.6781  222.5713 H   0  0  0  0  0  0  0  0  0  0  0  0
  141.8730   77.4450  221.8580 H   0  0  0  0  0  0  0  0  0  0  0  0
  144.9316   74.6376  221.7355 H   0  0  0  0  0  0  0  0  0  0  0  0
  144.5143   72.9248  221.6224 H   0  0  0  0  0  0  0  0  0  0  0  0
  146.6390   74.2845  219.8283 H   0  0  0  0  0  0  0  0  0  0  0  0
  147.0589   73.4530  221.3414 H   0  0  0  0  0  0  0  0  0  0  0  0
  146.2480   71.4330  220.4740 H   0  0  0  0  0  0  0  0  0  0  0  0
  145.6810   71.8525  217.8893 H   0  0  0  0  0  0  0  0  0  0  0  0
  144.5049   71.3894  219.2101 H   0  0  0  0  0  0  0  0  0  0  0  0
  145.0759   74.1124  218.0496 H   0  0  0  0  0  0  0  0  0  0  0  0
  143.5175   73.1739  218.1337 H   0  0  0  0  0  0  0  0  0  0  0  0
  140.0208   79.0473  218.3513 H   0  0  0  0  0  0  0  0  0  0  0  0
  140.8316   79.2610  219.9396 H   0  0  0  0  0  0  0  0  0  0  0  0
  1  2  2  0
  2  3  1  0
  3  4  2  0
  4  5  1  0
  5  6  2  0
  5  7  1  0
  7  8  1  0
  8  9  1  0
  9 10  1  0
 10 11  2  0
 11 12  1  0
 12 13  1  0
 13 14  1  0
 14 15  1  0
 15 16  1  0
 16 17  1  0
 17 18  1  0
 18 19  1  0
 19 20  1  0
 20 21  1  0
 12 22  2  0
 22 23  1  0
 23 24  1  0
 24 25  1  0
 25 26  1  0
 26 27  1  0
 27 28  1  0
 28 29  1  0
 23 30  2  0
  9 31  1  0
  6  1  1  0
 30 10  1  0
 31  4  1  0
 21 16  1  0
 29 24  1  0
  1 32  1  0
  2 33  1  0
  3 34  1  0
  6 35  1  0
  7 36  1  0
  7 37  1  0
  8 38  1  0
  8 39  1  0
 13 40  1  0
 14 41  1  0
 14 42  1  0
 15 43  1  0
 15 44  1  0
 16 45  1  1
 17 46  1  0
 17 47  1  0
 18 48  1  0
 18 49  1  0
 19 50  1  0
 19 51  1  0
 20 52  1  0
 20 53  1  0
 21 54  1  0
 25 55  1  0
 25 56  1  0
 26 57  1  0
 26 58  1  0
 27 59  1  0
 28 60  1  0
 28 61  1  0
 29 62  1  0
 29 63  1  0
 31 64  1  0
 31 65  1  0
M  END
>  <smiles>  (16) 
c1ccc2c(c1)CCN(c1nc(NCCC3CCCCN3)nc(N3CCNCC3)n1)C2

>  <score_type>  (16) 
oracle

>  <origin>  (16) 
autodockgpu

>  <m_score__min__energy>  (16) 
-10.199999999999999

>  <m_primary>  (16) 
energy

>  <rmsd>  (16) 
5.112894789843172

>  <m_score__min__rmsd>  (16) 
5.112894789843172

>  <meeko>  (16) 
{"free_energy": -7.16, "intermolecular_energy": -8.95, "internal_energy": -2.32, "cluster_size": 1, "cluster_id": 5, "rank_in_cluster": 1}

>  <energy>  (16) 
-9.69

>  <cluster_rmsd>  (16) 
0.97

>  <cluster>  (16) 
1

$$$$

     RDKit          3D

 65 69  0  0  0  0  0  0  0  0999 V2000
  140.5940   81.6500  222.5350 C   0  0  0  0  0  0  0  0  0  0  0  0
  141.9110   81.2370  222.7350 C   0  0  0  0  0  0  0  0  0  0  0  0
  142.2180   79.8980  222.9400 C   0  0  0  0  0  0  0  0  0  0  0  0
  141.2180   78.9500  222.9490 C   0  0  0  0  0  0  0  0  0  0  0  0
  139.9100   79.3780  222.7480 C   0  0  0  0  0  0  0  0  0  0  0  0
  139.5890   80.7030  222.5440 C   0  0  0  0  0  0  0  0  0  0  0  0
  138.8720   78.2950  222.7700 C   0  0  0  0  0  0  0  0  0  0  0  0
  139.3480   77.2840  221.7200 C   0  0  0  0  0  0  0  0  0  0  0  0
  140.6050   76.7490  222.2420 N   0  0  0  0  0  0  0  0  0  0  0  0
  140.9750   75.4400  221.8130 C   0  0  0  0  0  0  0  0  0  0  0  0
  140.1270   74.4300  221.9900 N   0  0  0  0  0  0  0  0  0  0  0  0
  140.4580   73.1840  221.5920 C   0  0  0  0  0  0  0  0  0  0  0  0
  139.5160   72.1340  221.7990 N   0  0  0  0  0  0  0  0  0  0  0  0
  139.0240   71.7820  223.1130 C   0  0  0  0  0  0  0  0  0  0  0  0
  140.0760   71.0150  223.8820 C   0  0  0  0  0  0  0  0  0  0  0  0
  139.6170   70.9440  225.3320 C   0  0  2  0  0  0  0  0  0  0  0  0
  140.7150   71.4490  226.1930 C   0  0  0  0  0  0  0  0  0  0  0  0
  140.9910   70.5950  227.4020 C   0  0  0  0  0  0  0  0  0  0  0  0
  141.0770   69.1610  226.9370 C   0  0  0  0  0  0  0  0  0  0  0  0
  139.7300   68.7790  226.4470 C   0  0  0  0  0  0  0  0  0  0  0  0
  139.0180   69.7130  225.6730 N   0  0  0  0  0  0  0  0  0  0  0  0
  141.6570   73.0090  221.0200 N   0  0  0  0  0  0  0  0  0  0  0  0
  142.5400   74.0040  220.8250 C   0  0  0  0  0  0  0  0  0  0  0  0
  143.7940   73.7470  220.2110 N   0  0  0  0  0  0  0  0  0  0  0  0
  144.0550   74.1180  218.8350 C   0  0  0  0  0  0  0  0  0  0  0  0
  145.0480   73.0710  218.3170 C   0  0  0  0  0  0  0  0  0  0  0  0
  146.2930   73.3200  218.9750 N   0  0  0  0  0  0  0  0  0  0  0  0
  146.2130   73.4050  220.4070 C   0  0  0  0  0  0  0  0  0  0  0  0
  144.8380   73.1080  220.9560 C   0  0  0  0  0  0  0  0  0  0  0  0
  142.1800   75.2380  221.2330 N   0  0  0  0  0  0  0  0  0  0  0  0
  141.4440   77.5100  223.1580 C   0  0  0  0  0  0  0  0  0  0  0  0
  140.3597   82.7124  222.3728 H   0  0  0  0  0  0  0  0  0  0  0  0
  142.7191   81.9833  222.7303 H   0  0  0  0  0  0  0  0  0  0  0  0
  143.2634   79.5932  223.0958 H   0  0  0  0  0  0  0  0  0  0  0  0
  138.5420   81.0032  222.3898 H   0  0  0  0  0  0  0  0  0  0  0  0
  138.8195   77.8272  223.7642 H   0  0  0  0  0  0  0  0  0  0  0  0
  137.8637   78.6782  222.5542 H   0  0  0  0  0  0  0  0  0  0  0  0
  138.6083   76.4792  221.5968 H   0  0  0  0  0  0  0  0  0  0  0  0
  139.4791   77.7496  220.7320 H   0  0  0  0  0  0  0  0  0  0  0  0
  139.2010   71.6300  220.9400 H   0  0  0  0  0  0  0  0  0  0  0  0
  138.7705   72.7003  223.6631 H   0  0  0  0  0  0  0  0  0  0  0  0
  138.1312   71.1492  223.0019 H   0  0  0  0  0  0  0  0  0  0  0  0
  140.1783   70.0003  223.4697 H   0  0  0  0  0  0  0  0  0  0  0  0
  141.0534   71.5142  223.8075 H   0  0  0  0  0  0  0  0  0  0  0  0
  138.7644   71.6152  225.5123 H   0  0  0  0  0  0  0  0  0  0  0  0
  141.6327   71.4989  225.5886 H   0  0  0  0  0  0  0  0  0  0  0  0
  140.3978   72.4339  226.5663 H   0  0  0  0  0  0  0  0  0  0  0  0
  141.9418   70.8968  227.8655 H   0  0  0  0  0  0  0  0  0  0  0  0
  140.1918   70.7121  228.1487 H   0  0  0  0  0  0  0  0  0  0  0  0
  141.8133   69.0714  226.1247 H   0  0  0  0  0  0  0  0  0  0  0  0
  141.3960   68.5020  227.7580 H   0  0  0  0  0  0  0  0  0  0  0  0
  139.8495   67.8719  225.8364 H   0  0  0  0  0  0  0  0  0  0  0  0
  139.1282   68.6647  227.3607 H   0  0  0  0  0  0  0  0  0  0  0  0
  138.5820   69.3170  224.8090 H   0  0  0  0  0  0  0  0  0  0  0  0
  143.1262   74.0931  218.2461 H   0  0  0  0  0  0  0  0  0  0  0  0
  144.4552   75.1394  218.7537 H   0  0  0  0  0  0  0  0  0  0  0  0
  144.6896   72.0588  218.5555 H   0  0  0  0  0  0  0  0  0  0  0  0
  145.1588   73.1390  217.2247 H   0  0  0  0  0  0  0  0  0  0  0  0
  146.7990   74.1200  218.5800 H   0  0  0  0  0  0  0  0  0  0  0  0
  146.9225   72.6834  220.8381 H   0  0  0  0  0  0  0  0  0  0  0  0
  146.4519   74.4430  220.6816 H   0  0  0  0  0  0  0  0  0  0  0  0
  144.6753   72.0205  220.9276 H   0  0  0  0  0  0  0  0  0  0  0  0
  144.7995   73.4990  221.9834 H   0  0  0  0  0  0  0  0  0  0  0  0
  141.1888   77.2454  224.1948 H   0  0  0  0  0  0  0  0  0  0  0  0
  142.5015   77.2735  222.9691 H   0  0  0  0  0  0  0  0  0  0  0  0
  1  2  2  0
  2  3  1  0
  3  4  2  0
  4  5  1  0
  5  6  2  0
  5  7  1  0
  7  8  1  0
  8  9  1  0
  9 10  1  0
 10 11  2  0
 11 12  1  0
 12 13  1  0
 13 14  1  0
 14 15  1  0
 15 16  1  0
 16 17  1  0
 17 18  1  0
 18 19  1  0
 19 20  1  0
 20 21  1  0
 12 22  2  0
 22 23  1  0
 23 24  1  0
 24 25  1  0
 25 26  1  0
 26 27  1  0
 27 28  1  0
 28 29  1  0
 23 30  2  0
  9 31  1  0
  6  1  1  0
 30 10  1  0
 31  4  1  0
 21 16  1  0
 29 24  1  0
  1 32  1  0
  2 33  1  0
  3 34  1  0
  6 35  1  0
  7 36  1  0
  7 37  1  0
  8 38  1  0
  8 39  1  0
 13 40  1  0
 14 41  1  0
 14 42  1  0
 15 43  1  0
 15 44  1  0
 16 45  1  6
 17 46  1  0
 17 47  1  0
 18 48  1  0
 18 49  1  0
 19 50  1  0
 19 51  1  0
 20 52  1  0
 20 53  1  0
 21 54  1  0
 25 55  1  0
 25 56  1  0
 26 57  1  0
 26 58  1  0
 27 59  1  0
 28 60  1  0
 28 61  1  0
 29 62  1  0
 29 63  1  0
 31 64  1  0
 31 65  1  0
M  END
>  <smiles>  (17) 
c1ccc2c(c1)CCN(c1nc(NCCC3CCCCN3)nc(N3CCNCC3)n1)C2

>  <score_type>  (17) 
oracle

>  <origin>  (17) 
autodockgpu

>  <m_score__min__energy>  (17) 
-10.199999999999999

>  <m_primary>  (17) 
energy

>  <rmsd>  (17) 
4.995348384464101

>  <m_score__min__rmsd>  (17) 
4.995348384464101

>  <meeko>  (17) 
{"free_energy": -9.58, "intermolecular_energy": -11.37, "internal_energy": -0.84, "cluster_size": 38, "cluster_id": 1, "rank_in_cluster": 23}

>  <energy>  (17) 
-9.63

>  <cluster_rmsd>  (17) 
1.05

>  <cluster>  (17) 
1

$$$$

     RDKit          3D

 65 69  0  0  0  0  0  0  0  0999 V2000
  141.9070   81.5650  222.5960 C   0  0  0  0  0  0  0  0  0  0  0  0
  141.8690   80.8740  223.8070 C   0  0  0  0  0  0  0  0  0  0  0  0
  141.4230   79.5610  223.8690 C   0  0  0  0  0  0  0  0  0  0  0  0
  141.0070   78.9140  222.7260 C   0  0  0  0  0  0  0  0  0  0  0  0
  141.0500   79.6170  221.5250 C   0  0  0  0  0  0  0  0  0  0  0  0
  141.4900   80.9210  221.4480 C   0  0  0  0  0  0  0  0  0  0  0  0
  140.5840   78.8540  220.3210 C   0  0  0  0  0  0  0  0  0  0  0  0
  141.4430   77.5840  220.3130 C   0  0  0  0  0  0  0  0  0  0  0  0
  141.0580   76.8510  221.5180 N   0  0  0  0  0  0  0  0  0  0  0  0
  141.2360   75.4360  221.4950 C   0  0  0  0  0  0  0  0  0  0  0  0
  140.3380   74.6550  222.0890 N   0  0  0  0  0  0  0  0  0  0  0  0
  140.4870   73.3140  222.0800 C   0  0  0  0  0  0  0  0  0  0  0  0
  139.4990   72.5170  222.7280 N   0  0  0  0  0  0  0  0  0  0  0  0
  139.6950   71.1110  223.0040 C   0  0  0  0  0  0  0  0  0  0  0  0
  139.2610   70.7870  224.4170 C   0  0  0  0  0  0  0  0  0  0  0  0
  140.5190   70.4740  225.2160 C   0  0  2  0  0  0  0  0  0  0  0  0
  140.2180   69.3470  226.1340 C   0  0  0  0  0  0  0  0  0  0  0  0
  140.7150   69.5490  227.5410 C   0  0  0  0  0  0  0  0  0  0  0  0
  140.2940   70.9320  227.9780 C   0  0  0  0  0  0  0  0  0  0  0  0
  141.0270   71.9010  227.1260 C   0  0  0  0  0  0  0  0  0  0  0  0
  141.1450   71.6180  225.7530 N   0  0  0  0  0  0  0  0  0  0  0  0
  141.5610   72.8100  221.4560 N   0  0  0  0  0  0  0  0  0  0  0  0
  142.4880   73.5670  220.8450 C   0  0  0  0  0  0  0  0  0  0  0  0
  143.6020   72.9650  220.2010 N   0  0  0  0  0  0  0  0  0  0  0  0
  143.4320   71.9640  219.1680 C   0  0  0  0  0  0  0  0  0  0  0  0
  144.6510   71.0440  219.2910 C   0  0  0  0  0  0  0  0  0  0  0  0
  145.7830   71.7960  218.8480 N   0  0  0  0  0  0  0  0  0  0  0  0
  145.9410   73.0790  219.4760 C   0  0  0  0  0  0  0  0  0  0  0  0
  144.9330   73.3460  220.5690 C   0  0  0  0  0  0  0  0  0  0  0  0
  142.3110   74.9030  220.8710 N   0  0  0  0  0  0  0  0  0  0  0  0
  140.5180   77.5260  222.6900 C   0  0  0  0  0  0  0  0  0  0  0  0
  142.2630   82.6050  222.5562 H   0  0  0  0  0  0  0  0  0  0  0  0
  142.1978   81.3778  224.7279 H   0  0  0  0  0  0  0  0  0  0  0  0
  141.4016   79.0349  224.8348 H   0  0  0  0  0  0  0  0  0  0  0  0
  141.5088   81.4440  220.4805 H   0  0  0  0  0  0  0  0  0  0  0  0
  139.5172   78.6009  220.4103 H   0  0  0  0  0  0  0  0  0  0  0  0
  140.6884   79.4346  219.3925 H   0  0  0  0  0  0  0  0  0  0  0  0
  141.2359   76.9843  219.4144 H   0  0  0  0  0  0  0  0  0  0  0  0
  142.5182   77.8159  220.2997 H   0  0  0  0  0  0  0  0  0  0  0  0
  138.6170   73.0120  222.9920 H   0  0  0  0  0  0  0  0  0  0  0  0
  139.0994   70.5159  222.2961 H   0  0  0  0  0  0  0  0  0  0  0  0
  140.7627   70.8705  222.8939 H   0  0  0  0  0  0  0  0  0  0  0  0
  138.7398   71.6495  224.8579 H   0  0  0  0  0  0  0  0  0  0  0  0
  138.5706   69.9307  224.4259 H   0  0  0  0  0  0  0  0  0  0  0  0
  141.3274   70.1182  224.5603 H   0  0  0  0  0  0  0  0  0  0  0  0
  139.1268   69.2125  226.1693 H   0  0  0  0  0  0  0  0  0  0  0  0
  140.7427   68.4658  225.7363 H   0  0  0  0  0  0  0  0  0  0  0  0
  140.2727   68.7938  228.2074 H   0  0  0  0  0  0  0  0  0  0  0  0
  141.8093   69.4461  227.5834 H   0  0  0  0  0  0  0  0  0  0  0  0
  139.2094   71.0564  227.8434 H   0  0  0  0  0  0  0  0  0  0  0  0
  140.5241   71.0935  229.0415 H   0  0  0  0  0  0  0  0  0  0  0  0
  140.5139   72.8697  227.2171 H   0  0  0  0  0  0  0  0  0  0  0  0
  142.0602   71.8698  227.5021 H   0  0  0  0  0  0  0  0  0  0  0  0
  140.9310   72.4270  225.1250 H   0  0  0  0  0  0  0  0  0  0  0  0
  142.5035   71.3969  219.3302 H   0  0  0  0  0  0  0  0  0  0  0  0
  143.3588   72.4157  218.1677 H   0  0  0  0  0  0  0  0  0  0  0  0
  144.7879   70.7349  220.3378 H   0  0  0  0  0  0  0  0  0  0  0  0
  144.5210   70.1340  218.6868 H   0  0  0  0  0  0  0  0  0  0  0  0
  145.8360   71.8710  217.8260 H   0  0  0  0  0  0  0  0  0  0  0  0
  146.9493   73.1305  219.9127 H   0  0  0  0  0  0  0  0  0  0  0  0
  145.7824   73.8404  218.6981 H   0  0  0  0  0  0  0  0  0  0  0  0
  145.2264   72.7781  221.4642 H   0  0  0  0  0  0  0  0  0  0  0  0
  144.9275   74.4298  220.7573 H   0  0  0  0  0  0  0  0  0  0  0  0
  139.4192   77.5256  222.6395 H   0  0  0  0  0  0  0  0  0  0  0  0
  140.8436   76.9990  223.5990 H   0  0  0  0  0  0  0  0  0  0  0  0
  1  2  2  0
  2  3  1  0
  3  4  2  0
  4  5  1  0
  5  6  2  0
  5  7  1  0
  7  8  1  0
  8  9  1  0
  9 10  1  0
 10 11  2  0
 11 12  1  0
 12 13  1  0
 13 14  1  0
 14 15  1  0
 15 16  1  0
 16 17  1  0
 17 18  1  0
 18 19  1  0
 19 20  1  0
 20 21  1  0
 12 22  2  0
 22 23  1  0
 23 24  1  0
 24 25  1  0
 25 26  1  0
 26 27  1  0
 27 28  1  0
 28 29  1  0
 23 30  2  0
  9 31  1  0
  6  1  1  0
 30 10  1  0
 31  4  1  0
 21 16  1  0
 29 24  1  0
  1 32  1  0
  2 33  1  0
  3 34  1  0
  6 35  1  0
  7 36  1  0
  7 37  1  0
  8 38  1  0
  8 39  1  0
 13 40  1  0
 14 41  1  0
 14 42  1  0
 15 43  1  0
 15 44  1  0
 16 45  1  6
 17 46  1  0
 17 47  1  0
 18 48  1  0
 18 49  1  0
 19 50  1  0
 19 51  1  0
 20 52  1  0
 20 53  1  0
 21 54  1  0
 25 55  1  0
 25 56  1  0
 26 57  1  0
 26 58  1  0
 27 59  1  0
 28 60  1  0
 28 61  1  0
 29 62  1  0
 29 63  1  0
 31 64  1  0
 31 65  1  0
M  END
>  <smiles>  (18) 
c1ccc2c(c1)CCN(c1nc(NCCC3CCCCN3)nc(N3CCNCC3)n1)C2

>  <score_type>  (18) 
oracle

>  <origin>  (18) 
autodockgpu

>  <m_score__min__energy>  (18) 
-10.199999999999999

>  <m_primary>  (18) 
energy

>  <rmsd>  (18) 
4.995878551774388

>  <m_score__min__rmsd>  (18) 
4.995878551774388

>  <meeko>  (18) 
{"free_energy": -9.93, "intermolecular_energy": -11.72, "internal_energy": -0.85, "cluster_size": 38, "cluster_id": 1, "rank_in_cluster": 6}

>  <energy>  (18) 
-9.61

>  <cluster_rmsd>  (18) 
1.52

>  <cluster>  (18) 
1

$$$$

     RDKit          3D

 65 69  0  0  0  0  0  0  0  0999 V2000
  141.8510   81.5690  222.5900 C   0  0  0  0  0  0  0  0  0  0  0  0
  141.8480   80.8770  223.8020 C   0  0  0  0  0  0  0  0  0  0  0  0
  141.4140   79.5600  223.8730 C   0  0  0  0  0  0  0  0  0  0  0  0
  140.9760   78.9110  222.7390 C   0  0  0  0  0  0  0  0  0  0  0  0
  140.9850   79.6150  221.5390 C   0  0  0  0  0  0  0  0  0  0  0  0
  141.4120   80.9220  221.4520 C   0  0  0  0  0  0  0  0  0  0  0  0
  140.4960   78.8490  220.3450 C   0  0  0  0  0  0  0  0  0  0  0  0
  141.3640   77.5860  220.3150 C   0  0  0  0  0  0  0  0  0  0  0  0
  141.0150   76.8490  221.5290 N   0  0  0  0  0  0  0  0  0  0  0  0
  141.2030   75.4350  221.5000 C   0  0  0  0  0  0  0  0  0  0  0  0
  140.3190   74.6460  222.1040 N   0  0  0  0  0  0  0  0  0  0  0  0
  140.4780   73.3060  222.0890 C   0  0  0  0  0  0  0  0  0  0  0  0
  139.5040   72.5000  222.7470 N   0  0  0  0  0  0  0  0  0  0  0  0
  139.7290   71.1030  223.0490 C   0  0  0  0  0  0  0  0  0  0  0  0
  139.2760   70.7910  224.4580 C   0  0  0  0  0  0  0  0  0  0  0  0
  140.5210   70.4550  225.2690 C   0  0  2  0  0  0  0  0  0  0  0  0
  140.1690   69.3870  226.2380 C   0  0  0  0  0  0  0  0  0  0  0  0
  140.6810   69.6290  227.6340 C   0  0  0  0  0  0  0  0  0  0  0  0
  140.3280   71.0490  228.0080 C   0  0  0  0  0  0  0  0  0  0  0  0
  141.1030   71.9430  227.1110 C   0  0  0  0  0  0  0  0  0  0  0  0
  141.2020   71.5920  225.7520 N   0  0  0  0  0  0  0  0  0  0  0  0
  141.5480   72.8120  221.4510 N   0  0  0  0  0  0  0  0  0  0  0  0
  142.4620   73.5780  220.8310 C   0  0  0  0  0  0  0  0  0  0  0  0
  143.5730   72.9860  220.1720 N   0  0  0  0  0  0  0  0  0  0  0  0
  143.4050   72.1650  218.9900 C   0  0  0  0  0  0  0  0  0  0  0  0
  144.5420   71.1390  219.0460 C   0  0  0  0  0  0  0  0  0  0  0  0
  145.7550   71.8510  218.7930 N   0  0  0  0  0  0  0  0  0  0  0  0
  145.9600   73.0100  219.6170 C   0  0  0  0  0  0  0  0  0  0  0  0
  144.8980   73.1970  220.6740 C   0  0  0  0  0  0  0  0  0  0  0  0
  142.2750   74.9120  220.8620 N   0  0  0  0  0  0  0  0  0  0  0  0
  140.4970   77.5190  222.7140 C   0  0  0  0  0  0  0  0  0  0  0  0
  142.1972   82.6120  222.5422 H   0  0  0  0  0  0  0  0  0  0  0  0
  142.1949   81.3828  224.7152 H   0  0  0  0  0  0  0  0  0  0  0  0
  141.4198   79.0326  224.8383 H   0  0  0  0  0  0  0  0  0  0  0  0
  141.4033   81.4454  220.4845 H   0  0  0  0  0  0  0  0  0  0  0  0
  139.4337   78.5876  220.4595 H   0  0  0  0  0  0  0  0  0  0  0  0
  140.5738   79.4312  219.4150 H   0  0  0  0  0  0  0  0  0  0  0  0
  141.1392   76.9851  219.4215 H   0  0  0  0  0  0  0  0  0  0  0  0
  142.4367   77.8264  220.2753 H   0  0  0  0  0  0  0  0  0  0  0  0
  138.6110   72.9810  222.9990 H   0  0  0  0  0  0  0  0  0  0  0  0
  139.1618   70.4825  222.3397 H   0  0  0  0  0  0  0  0  0  0  0  0
  140.8041   70.8869  222.9627 H   0  0  0  0  0  0  0  0  0  0  0  0
  138.7680   71.6646  224.8924 H   0  0  0  0  0  0  0  0  0  0  0  0
  138.5686   69.9486  224.4626 H   0  0  0  0  0  0  0  0  0  0  0  0
  141.3099   70.0311  224.6303 H   0  0  0  0  0  0  0  0  0  0  0  0
  139.0727   69.3076  226.2812 H   0  0  0  0  0  0  0  0  0  0  0  0
  140.6485   68.4639  225.8802 H   0  0  0  0  0  0  0  0  0  0  0  0
  140.2060   68.9270  228.3351 H   0  0  0  0  0  0  0  0  0  0  0  0
  141.7694   69.4759  227.6791 H   0  0  0  0  0  0  0  0  0  0  0  0
  139.2500   71.2185  227.8699 H   0  0  0  0  0  0  0  0  0  0  0  0
  140.5701   71.2475  229.0625 H   0  0  0  0  0  0  0  0  0  0  0  0
  140.6365   72.9380  227.1585 H   0  0  0  0  0  0  0  0  0  0  0  0
  142.1351   71.8805  227.4864 H   0  0  0  0  0  0  0  0  0  0  0  0
  141.0250   72.3790  225.0880 H   0  0  0  0  0  0  0  0  0  0  0  0
  142.4283   71.6593  219.0077 H   0  0  0  0  0  0  0  0  0  0  0  0
  143.4369   72.7629  218.0672 H   0  0  0  0  0  0  0  0  0  0  0  0
  144.5792   70.6692  220.0399 H   0  0  0  0  0  0  0  0  0  0  0  0
  144.3906   70.3418  218.3033 H   0  0  0  0  0  0  0  0  0  0  0  0
  145.8880   72.0700  217.7990 H   0  0  0  0  0  0  0  0  0  0  0  0
  146.9349   72.9128  220.1172 H   0  0  0  0  0  0  0  0  0  0  0  0
  145.9142   73.8877  218.9555 H   0  0  0  0  0  0  0  0  0  0  0  0
  145.0833   72.4818  221.4890 H   0  0  0  0  0  0  0  0  0  0  0  0
  144.9581   74.2382  221.0238 H   0  0  0  0  0  0  0  0  0  0  0  0
  139.3973   77.5099  222.6892 H   0  0  0  0  0  0  0  0  0  0  0  0
  140.8475   76.9942  223.6149 H   0  0  0  0  0  0  0  0  0  0  0  0
  1  2  2  0
  2  3  1  0
  3  4  2  0
  4  5  1  0
  5  6  2  0
  5  7  1  0
  7  8  1  0
  8  9  1  0
  9 10  1  0
 10 11  2  0
 11 12  1  0
 12 13  1  0
 13 14  1  0
 14 15  1  0
 15 16  1  0
 16 17  1  0
 17 18  1  0
 18 19  1  0
 19 20  1  0
 20 21  1  0
 12 22  2  0
 22 23  1  0
 23 24  1  0
 24 25  1  0
 25 26  1  0
 26 27  1  0
 27 28  1  0
 28 29  1  0
 23 30  2  0
  9 31  1  0
  6  1  1  0
 30 10  1  0
 31  4  1  0
 21 16  1  0
 29 24  1  0
  1 32  1  0
  2 33  1  0
  3 34  1  0
  6 35  1  0
  7 36  1  0
  7 37  1  0
  8 38  1  0
  8 39  1  0
 13 40  1  0
 14 41  1  0
 14 42  1  0
 15 43  1  0
 15 44  1  0
 16 45  1  6
 17 46  1  0
 17 47  1  0
 18 48  1  0
 18 49  1  0
 19 50  1  0
 19 51  1  0
 20 52  1  0
 20 53  1  0
 21 54  1  0
 25 55  1  0
 25 56  1  0
 26 57  1  0
 26 58  1  0
 27 59  1  0
 28 60  1  0
 28 61  1  0
 29 62  1  0
 29 63  1  0
 31 64  1  0
 31 65  1  0
M  END
>  <smiles>  (19) 
c1ccc2c(c1)CCN(c1nc(NCCC3CCCCN3)nc(N3CCNCC3)n1)C2

>  <score_type>  (19) 
oracle

>  <origin>  (19) 
autodockgpu

>  <m_score__min__energy>  (19) 
-10.199999999999999

>  <m_primary>  (19) 
energy

>  <rmsd>  (19) 
4.990442381008233

>  <m_score__min__rmsd>  (19) 
4.990442381008233

>  <meeko>  (19) 
{"free_energy": -9.92, "intermolecular_energy": -11.71, "internal_energy": -0.84, "cluster_size": 38, "cluster_id": 1, "rank_in_cluster": 7}

>  <energy>  (19) 
-9.61

>  <cluster_rmsd>  (19) 
0.96

>  <cluster>  (19) 
1

$$$$

     RDKit          3D

 65 69  0  0  0  0  0  0  0  0999 V2000
  140.8530   81.7260  222.5330 C   0  0  0  0  0  0  0  0  0  0  0  0
  142.1350   81.2470  222.8040 C   0  0  0  0  0  0  0  0  0  0  0  0
  142.3600   79.8960  223.0360 C   0  0  0  0  0  0  0  0  0  0  0  0
  141.3120   79.0010  223.0010 C   0  0  0  0  0  0  0  0  0  0  0  0
  140.0400   79.4960  222.7300 C   0  0  0  0  0  0  0  0  0  0  0  0
  139.8000   80.8330  222.4980 C   0  0  0  0  0  0  0  0  0  0  0  0
  138.9470   78.4690  222.7070 C   0  0  0  0  0  0  0  0  0  0  0  0
  139.4210   77.4220  221.6920 C   0  0  0  0  0  0  0  0  0  0  0  0
  140.6190   76.8290  222.2830 N   0  0  0  0  0  0  0  0  0  0  0  0
  140.9410   75.4970  221.8840 C   0  0  0  0  0  0  0  0  0  0  0  0
  140.0960   74.5090  222.1640 N   0  0  0  0  0  0  0  0  0  0  0  0
  140.3810   73.2420  221.7970 C   0  0  0  0  0  0  0  0  0  0  0  0
  139.4450   72.2160  222.1170 N   0  0  0  0  0  0  0  0  0  0  0  0
  139.7980   71.0660  222.9210 C   0  0  0  0  0  0  0  0  0  0  0  0
  140.6840   71.4820  224.0730 C   0  0  0  0  0  0  0  0  0  0  0  0
  139.9240   71.1850  225.3590 C   0  0  2  0  0  0  0  0  0  0  0  0
  140.7720   71.5970  226.5060 C   0  0  0  0  0  0  0  0  0  0  0  0
  140.8340   70.5860  227.6200 C   0  0  0  0  0  0  0  0  0  0  0  0
  141.1140   69.2390  226.9980 C   0  0  0  0  0  0  0  0  0  0  0  0
  139.9350   68.8850  226.1700 C   0  0  0  0  0  0  0  0  0  0  0  0
  139.3480   69.8970  225.3880 N   0  0  0  0  0  0  0  0  0  0  0  0
  141.5340   73.0250  221.1480 N   0  0  0  0  0  0  0  0  0  0  0  0
  142.4120   73.9970  220.8470 C   0  0  0  0  0  0  0  0  0  0  0  0
  143.6140   73.6960  220.1560 N   0  0  0  0  0  0  0  0  0  0  0  0
  143.7940   74.0400  218.7600 C   0  0  0  0  0  0  0  0  0  0  0  0
  144.7200   72.9590  218.1920 C   0  0  0  0  0  0  0  0  0  0  0  0
  146.0120   73.1790  218.7630 N   0  0  0  0  0  0  0  0  0  0  0  0
  146.0310   73.2850  220.1960 C   0  0  0  0  0  0  0  0  0  0  0  0
  144.6870   73.0360  220.8390 C   0  0  0  0  0  0  0  0  0  0  0  0
  142.0980   75.2520  221.2270 N   0  0  0  0  0  0  0  0  0  0  0  0
  141.4500   77.5540  223.2340 C   0  0  0  0  0  0  0  0  0  0  0  0
  140.6836   82.7974  222.3502 H   0  0  0  0  0  0  0  0  0  0  0  0
  142.9806   81.9499  222.8344 H   0  0  0  0  0  0  0  0  0  0  0  0
  143.3785   79.5389  223.2485 H   0  0  0  0  0  0  0  0  0  0  0  0
  138.7796   81.1856  222.2870 H   0  0  0  0  0  0  0  0  0  0  0  0
  138.8190   78.0159  223.7011 H   0  0  0  0  0  0  0  0  0  0  0  0
  137.9732   78.9024  222.4352 H   0  0  0  0  0  0  0  0  0  0  0  0
  138.6470   76.6556  221.5385 H   0  0  0  0  0  0  0  0  0  0  0  0
  139.6262   77.8677  220.7075 H   0  0  0  0  0  0  0  0  0  0  0  0
  138.4820   72.3440  221.7330 H   0  0  0  0  0  0  0  0  0  0  0  0
  138.8811   70.6049  223.3168 H   0  0  0  0  0  0  0  0  0  0  0  0
  140.3425   70.3449  222.2937 H   0  0  0  0  0  0  0  0  0  0  0  0
  141.6237   70.9106  224.0506 H   0  0  0  0  0  0  0  0  0  0  0  0
  140.9334   72.5513  224.0061 H   0  0  0  0  0  0  0  0  0  0  0  0
  139.0099   71.7928  225.4298 H   0  0  0  0  0  0  0  0  0  0  0  0
  141.7941   71.7667  226.1364 H   0  0  0  0  0  0  0  0  0  0  0  0
  140.3159   72.5051  226.9272 H   0  0  0  0  0  0  0  0  0  0  0  0
  141.6389   70.8498  228.3218 H   0  0  0  0  0  0  0  0  0  0  0  0
  139.8854   70.5652  228.1765 H   0  0  0  0  0  0  0  0  0  0  0  0
  142.0141   69.2944  226.3681 H   0  0  0  0  0  0  0  0  0  0  0  0
  141.2888   68.4791  227.7739 H   0  0  0  0  0  0  0  0  0  0  0  0
  140.2454   68.0817  225.4857 H   0  0  0  0  0  0  0  0  0  0  0  0
  139.1574   68.6169  226.9004 H   0  0  0  0  0  0  0  0  0  0  0  0
  139.1390   69.6160  224.4030 H   0  0  0  0  0  0  0  0  0  0  0  0
  142.8278   74.0344  218.2343 H   0  0  0  0  0  0  0  0  0  0  0  0
  144.2176   75.0478  218.6378 H   0  0  0  0  0  0  0  0  0  0  0  0
  144.3496   71.9605  218.4672 H   0  0  0  0  0  0  0  0  0  0  0  0
  144.7601   73.0112  217.0940 H   0  0  0  0  0  0  0  0  0  0  0  0
  146.5140   73.9590  218.3240 H   0  0  0  0  0  0  0  0  0  0  0  0
  146.7466   72.5482  220.5897 H   0  0  0  0  0  0  0  0  0  0  0  0
  146.3182   74.3187  220.4391 H   0  0  0  0  0  0  0  0  0  0  0  0
  144.4917   71.9535  220.8372 H   0  0  0  0  0  0  0  0  0  0  0  0
  144.7284   73.4414  221.8607 H   0  0  0  0  0  0  0  0  0  0  0  0
  141.1288   77.3151  224.2586 H   0  0  0  0  0  0  0  0  0  0  0  0
  142.5016   77.2595  223.1019 H   0  0  0  0  0  0  0  0  0  0  0  0
  1  2  2  0
  2  3  1  0
  3  4  2  0
  4  5  1  0
  5  6  2  0
  5  7  1  0
  7  8  1  0
  8  9  1  0
  9 10  1  0
 10 11  2  0
 11 12  1  0
 12 13  1  0
 13 14  1  0
 14 15  1  0
 15 16  1  0
 16 17  1  0
 17 18  1  0
 18 19  1  0
 19 20  1  0
 20 21  1  0
 12 22  2  0
 22 23  1  0
 23 24  1  0
 24 25  1  0
 25 26  1  0
 26 27  1  0
 27 28  1  0
 28 29  1  0
 23 30  2  0
  9 31  1  0
  6  1  1  0
 30 10  1  0
 31  4  1  0
 21 16  1  0
 29 24  1  0
  1 32  1  0
  2 33  1  0
  3 34  1  0
  6 35  1  0
  7 36  1  0
  7 37  1  0
  8 38  1  0
  8 39  1  0
 13 40  1  0
 14 41  1  0
 14 42  1  0
 15 43  1  0
 15 44  1  0
 16 45  1  6
 17 46  1  0
 17 47  1  0
 18 48  1  0
 18 49  1  0
 19 50  1  0
 19 51  1  0
 20 52  1  0
 20 53  1  0
 21 54  1  0
 25 55  1  0
 25 56  1  0
 26 57  1  0
 26 58  1  0
 27 59  1  0
 28 60  1  0
 28 61  1  0
 29 62  1  0
 29 63  1  0
 31 64  1  0
 31 65  1  0
M  END
>  <smiles>  (20) 
c1ccc2c(c1)CCN(c1nc(NCCC3CCCCN3)nc(N3CCNCC3)n1)C2

>  <score_type>  (20) 
oracle

>  <origin>  (20) 
autodockgpu

>  <m_score__min__energy>  (20) 
-10.199999999999999

>  <m_primary>  (20) 
energy

>  <rmsd>  (20) 
5.05572932949647

>  <m_score__min__rmsd>  (20) 
5.05572932949647

>  <meeko>  (20) 
{"free_energy": -9.7, "intermolecular_energy": -11.49, "internal_energy": -0.83, "cluster_size": 38, "cluster_id": 1, "rank_in_cluster": 15}

>  <energy>  (20) 
-9.6

>  <cluster_rmsd>  (20) 
1.73

>  <cluster>  (20) 
1

$$$$

     RDKit          3D

 65 69  0  0  0  0  0  0  0  0999 V2000
  140.5820   81.6720  222.3860 C   0  0  0  0  0  0  0  0  0  0  0  0
  141.8970   81.2680  222.6160 C   0  0  0  0  0  0  0  0  0  0  0  0
  142.2050   79.9350  222.8560 C   0  0  0  0  0  0  0  0  0  0  0  0
  141.2070   78.9840  222.8710 C   0  0  0  0  0  0  0  0  0  0  0  0
  139.9010   79.4050  222.6410 C   0  0  0  0  0  0  0  0  0  0  0  0
  139.5800   80.7230  222.4020 C   0  0  0  0  0  0  0  0  0  0  0  0
  138.8660   78.3190  222.6720 C   0  0  0  0  0  0  0  0  0  0  0  0
  139.3600   77.2860  221.6530 C   0  0  0  0  0  0  0  0  0  0  0  0
  140.6100   76.7670  222.2060 N   0  0  0  0  0  0  0  0  0  0  0  0
  140.9900   75.4490  221.8120 C   0  0  0  0  0  0  0  0  0  0  0  0
  140.1760   74.4300  222.0700 N   0  0  0  0  0  0  0  0  0  0  0  0
  140.5160   73.1750  221.7070 C   0  0  0  0  0  0  0  0  0  0  0  0
  139.6110   72.1150  222.0020 N   0  0  0  0  0  0  0  0  0  0  0  0
  139.9990   70.9560  222.7770 C   0  0  0  0  0  0  0  0  0  0  0  0
  138.7920   70.3460  223.4530 C   0  0  0  0  0  0  0  0  0  0  0  0
  138.9660   70.5430  224.9530 C   0  0  2  0  0  0  0  0  0  0  0  0
  140.2630   71.2260  225.1850 C   0  0  0  0  0  0  0  0  0  0  0  0
  141.0860   70.6240  226.2930 C   0  0  0  0  0  0  0  0  0  0  0  0
  141.1170   69.1300  226.0780 C   0  0  0  0  0  0  0  0  0  0  0  0
  139.7310   68.6330  226.2610 C   0  0  0  0  0  0  0  0  0  0  0  0
  138.6790   69.3880  225.7100 N   0  0  0  0  0  0  0  0  0  0  0  0
  141.6900   73.0030  221.0850 N   0  0  0  0  0  0  0  0  0  0  0  0
  142.5390   74.0080  220.8080 C   0  0  0  0  0  0  0  0  0  0  0  0
  143.7680   73.7530  220.1440 N   0  0  0  0  0  0  0  0  0  0  0  0
  143.9780   74.1360  218.7630 C   0  0  0  0  0  0  0  0  0  0  0  0
  144.9470   73.0920  218.1960 C   0  0  0  0  0  0  0  0  0  0  0  0
  146.2160   73.3290  218.8090 N   0  0  0  0  0  0  0  0  0  0  0  0
  146.1920   73.4000  220.2440 C   0  0  0  0  0  0  0  0  0  0  0  0
  144.8370   73.1030  220.8420 C   0  0  0  0  0  0  0  0  0  0  0  0
  142.1700   75.2490  221.1830 N   0  0  0  0  0  0  0  0  0  0  0  0
  141.4340   77.5500  223.1170 C   0  0  0  0  0  0  0  0  0  0  0  0
  140.3474   82.7296  222.1950 H   0  0  0  0  0  0  0  0  0  0  0  0
  142.7028   82.0167  222.6072 H   0  0  0  0  0  0  0  0  0  0  0  0
  143.2487   79.6371  223.0347 H   0  0  0  0  0  0  0  0  0  0  0  0
  138.5347   81.0165  222.2255 H   0  0  0  0  0  0  0  0  0  0  0  0
  138.8000   77.8738  223.6757 H   0  0  0  0  0  0  0  0  0  0  0  0
  137.8601   78.6940  222.4322 H   0  0  0  0  0  0  0  0  0  0  0  0
  138.6243   76.4765  221.5372 H   0  0  0  0  0  0  0  0  0  0  0  0
  139.5047   77.7291  220.6566 H   0  0  0  0  0  0  0  0  0  0  0  0
  138.6430   72.2240  221.6230 H   0  0  0  0  0  0  0  0  0  0  0  0
  140.4562   70.2104  222.1099 H   0  0  0  0  0  0  0  0  0  0  0  0
  140.7203   71.2668  223.5471 H   0  0  0  0  0  0  0  0  0  0  0  0
  137.8750   70.8483  223.1111 H   0  0  0  0  0  0  0  0  0  0  0  0
  138.7067   69.2771  223.2077 H   0  0  0  0  0  0  0  0  0  0  0  0
  138.1969   71.2178  225.3568 H   0  0  0  0  0  0  0  0  0  0  0  0
  140.8489   71.1795  224.2552 H   0  0  0  0  0  0  0  0  0  0  0  0
  140.0284   72.2569  225.4886 H   0  0  0  0  0  0  0  0  0  0  0  0
  142.1084   71.0286  226.2632 H   0  0  0  0  0  0  0  0  0  0  0  0
  140.6490   70.8644  227.2734 H   0  0  0  0  0  0  0  0  0  0  0  0
  141.4679   68.9026  225.0606 H   0  0  0  0  0  0  0  0  0  0  0  0
  141.8029   68.6467  226.7893 H   0  0  0  0  0  0  0  0  0  0  0  0
  139.6820   67.6292  225.8138 H   0  0  0  0  0  0  0  0  0  0  0  0
  139.5636   68.6814  227.3471 H   0  0  0  0  0  0  0  0  0  0  0  0
  137.9730   68.8250  225.1830 H   0  0  0  0  0  0  0  0  0  0  0  0
  143.0273   74.1197  218.2099 H   0  0  0  0  0  0  0  0  0  0  0  0
  144.3789   75.1567  218.6771 H   0  0  0  0  0  0  0  0  0  0  0  0
  144.5941   72.0782  218.4362 H   0  0  0  0  0  0  0  0  0  0  0  0
  145.0169   73.1725  217.1012 H   0  0  0  0  0  0  0  0  0  0  0  0
  146.7100   74.1320  218.4040 H   0  0  0  0  0  0  0  0  0  0  0  0
  146.9143   72.6711  220.6403 H   0  0  0  0  0  0  0  0  0  0  0  0
  146.4466   74.4340  220.5199 H   0  0  0  0  0  0  0  0  0  0  0  0
  144.6688   72.0164  220.8092 H   0  0  0  0  0  0  0  0  0  0  0  0
  144.8393   73.4844  221.8737 H   0  0  0  0  0  0  0  0  0  0  0  0
  141.1641   77.3085  224.1557 H   0  0  0  0  0  0  0  0  0  0  0  0
  142.4949   77.3118  222.9502 H   0  0  0  0  0  0  0  0  0  0  0  0
  1  2  2  0
  2  3  1  0
  3  4  2  0
  4  5  1  0
  5  6  2  0
  5  7  1  0
  7  8  1  0
  8  9  1  0
  9 10  1  0
 10 11  2  0
 11 12  1  0
 12 13  1  0
 13 14  1  0
 14 15  1  0
 15 16  1  0
 16 17  1  0
 17 18  1  0
 18 19  1  0
 19 20  1  0
 20 21  1  0
 12 22  2  0
 22 23  1  0
 23 24  1  0
 24 25  1  0
 25 26  1  0
 26 27  1  0
 27 28  1  0
 28 29  1  0
 23 30  2  0
  9 31  1  0
  6  1  1  0
 30 10  1  0
 31  4  1  0
 21 16  1  0
 29 24  1  0
  1 32  1  0
  2 33  1  0
  3 34  1  0
  6 35  1  0
  7 36  1  0
  7 37  1  0
  8 38  1  0
  8 39  1  0
 13 40  1  0
 14 41  1  0
 14 42  1  0
 15 43  1  0
 15 44  1  0
 16 45  1  1
 17 46  1  0
 17 47  1  0
 18 48  1  0
 18 49  1  0
 19 50  1  0
 19 51  1  0
 20 52  1  0
 20 53  1  0
 21 54  1  0
 25 55  1  0
 25 56  1  0
 26 57  1  0
 26 58  1  0
 27 59  1  0
 28 60  1  0
 28 61  1  0
 29 62  1  0
 29 63  1  0
 31 64  1  0
 31 65  1  0
M  END
>  <smiles>  (21) 
c1ccc2c(c1)CCN(c1nc(NCCC3CCCCN3)nc(N3CCNCC3)n1)C2

>  <score_type>  (21) 
oracle

>  <origin>  (21) 
autodockgpu

>  <m_score__min__energy>  (21) 
-10.199999999999999

>  <m_primary>  (21) 
energy

>  <rmsd>  (21) 
4.929988335173452

>  <m_score__min__rmsd>  (21) 
4.929988335173452

>  <meeko>  (21) 
{"free_energy": -9.18, "intermolecular_energy": -10.97, "internal_energy": -0.89, "cluster_size": 38, "cluster_id": 1, "rank_in_cluster": 32}

>  <energy>  (21) 
-9.59

>  <cluster_rmsd>  (21) 
0.8

>  <cluster>  (21) 
1

$$$$

     RDKit          3D

 65 69  0  0  0  0  0  0  0  0999 V2000
  140.6550   81.6570  222.5040 C   0  0  0  0  0  0  0  0  0  0  0  0
  141.9570   81.2300  222.7610 C   0  0  0  0  0  0  0  0  0  0  0  0
  142.2410   79.8890  222.9820 C   0  0  0  0  0  0  0  0  0  0  0  0
  141.2310   78.9510  222.9490 C   0  0  0  0  0  0  0  0  0  0  0  0
  139.9370   79.3930  222.6910 C   0  0  0  0  0  0  0  0  0  0  0  0
  139.6400   80.7210  222.4710 C   0  0  0  0  0  0  0  0  0  0  0  0
  138.8890   78.3210  222.6700 C   0  0  0  0  0  0  0  0  0  0  0  0
  139.3990   77.3030  221.6430 C   0  0  0  0  0  0  0  0  0  0  0  0
  140.6250   76.7560  222.2200 N   0  0  0  0  0  0  0  0  0  0  0  0
  141.0000   75.4410  221.8100 C   0  0  0  0  0  0  0  0  0  0  0  0
  140.1670   74.4270  222.0260 N   0  0  0  0  0  0  0  0  0  0  0  0
  140.5010   73.1770  221.6470 C   0  0  0  0  0  0  0  0  0  0  0  0
  139.5760   72.1220  221.8970 N   0  0  0  0  0  0  0  0  0  0  0  0
  139.1590   71.7560  223.2330 C   0  0  0  0  0  0  0  0  0  0  0  0
  140.3180   71.1630  224.0020 C   0  0  0  0  0  0  0  0  0  0  0  0
  139.8000   70.7880  225.3840 C   0  0  2  0  0  0  0  0  0  0  0  0
  140.8980   70.9910  226.3630 C   0  0  0  0  0  0  0  0  0  0  0  0
  141.0690   69.8580  227.3400 C   0  0  0  0  0  0  0  0  0  0  0  0
  141.0740   68.5720  226.5500 C   0  0  0  0  0  0  0  0  0  0  0  0
  139.7230   68.4190  225.9560 C   0  0  0  0  0  0  0  0  0  0  0  0
  139.1060   69.5600  225.4110 N   0  0  0  0  0  0  0  0  0  0  0  0
  141.6900   73.0020  221.0520 N   0  0  0  0  0  0  0  0  0  0  0  0
  142.5570   74.0020  220.8170 C   0  0  0  0  0  0  0  0  0  0  0  0
  143.8000   73.7440  220.1800 N   0  0  0  0  0  0  0  0  0  0  0  0
  144.0400   74.1240  218.8030 C   0  0  0  0  0  0  0  0  0  0  0  0
  145.0190   73.0780  218.2590 C   0  0  0  0  0  0  0  0  0  0  0  0
  146.2760   73.3170  218.8990 N   0  0  0  0  0  0  0  0  0  0  0  0
  146.2210   73.3910  220.3330 C   0  0  0  0  0  0  0  0  0  0  0  0
  144.8540   73.0960  220.9020 C   0  0  0  0  0  0  0  0  0  0  0  0
  142.1940   75.2390  221.2070 N   0  0  0  0  0  0  0  0  0  0  0  0
  141.4330   77.5090  223.1710 C   0  0  0  0  0  0  0  0  0  0  0  0
  140.4397   82.7217  222.3304 H   0  0  0  0  0  0  0  0  0  0  0  0
  142.7726   81.9675  222.7892 H   0  0  0  0  0  0  0  0  0  0  0  0
  143.2753   79.5739  223.1841 H   0  0  0  0  0  0  0  0  0  0  0  0
  138.6041   81.0324  222.2710 H   0  0  0  0  0  0  0  0  0  0  0  0
  138.7893   77.8557  223.6617 H   0  0  0  0  0  0  0  0  0  0  0  0
  137.8949   78.7139  222.4103 H   0  0  0  0  0  0  0  0  0  0  0  0
  138.6566   76.5061  221.4887 H   0  0  0  0  0  0  0  0  0  0  0  0
  139.5780   77.7650  220.6609 H   0  0  0  0  0  0  0  0  0  0  0  0
  139.2150   71.6240  221.0520 H   0  0  0  0  0  0  0  0  0  0  0  0
  138.7961   72.6520  223.7579 H   0  0  0  0  0  0  0  0  0  0  0  0
  138.3558   71.0076  223.1641 H   0  0  0  0  0  0  0  0  0  0  0  0
  140.6939   70.2677  223.4852 H   0  0  0  0  0  0  0  0  0  0  0  0
  141.1445   71.8848  224.0786 H   0  0  0  0  0  0  0  0  0  0  0  0
  138.9891   71.4607  225.7002 H   0  0  0  0  0  0  0  0  0  0  0  0
  141.8390   71.1119  225.8063 H   0  0  0  0  0  0  0  0  0  0  0  0
  140.6356   71.8814  226.9532 H   0  0  0  0  0  0  0  0  0  0  0  0
  142.0201   69.9696  227.8812 H   0  0  0  0  0  0  0  0  0  0  0  0
  140.2521   69.8561  228.0766 H   0  0  0  0  0  0  0  0  0  0  0  0
  141.8324   68.6208  225.7548 H   0  0  0  0  0  0  0  0  0  0  0  0
  141.3161   67.7161  227.1972 H   0  0  0  0  0  0  0  0  0  0  0  0
  139.8028   67.6744  225.1502 H   0  0  0  0  0  0  0  0  0  0  0  0
  139.0810   68.1394  226.8043 H   0  0  0  0  0  0  0  0  0  0  0  0
  138.6770   69.4120  224.4690 H   0  0  0  0  0  0  0  0  0  0  0  0
  143.1013   74.1079  218.2298 H   0  0  0  0  0  0  0  0  0  0  0  0
  144.4442   75.1440  218.7238 H   0  0  0  0  0  0  0  0  0  0  0  0
  144.6606   72.0651  218.4945 H   0  0  0  0  0  0  0  0  0  0  0  0
  145.1116   73.1547  217.1656 H   0  0  0  0  0  0  0  0  0  0  0  0
  146.7790   74.1190  218.5020 H   0  0  0  0  0  0  0  0  0  0  0  0
  146.9342   72.6626  220.7463 H   0  0  0  0  0  0  0  0  0  0  0  0
  146.4700   74.4254  220.6122 H   0  0  0  0  0  0  0  0  0  0  0  0
  144.6865   72.0094  220.8684 H   0  0  0  0  0  0  0  0  0  0  0  0
  144.8344   73.4805  221.9324 H   0  0  0  0  0  0  0  0  0  0  0  0
  141.1306   77.2494  224.1963 H   0  0  0  0  0  0  0  0  0  0  0  0
  142.4951   77.2602  223.0294 H   0  0  0  0  0  0  0  0  0  0  0  0
  1  2  2  0
  2  3  1  0
  3  4  2  0
  4  5  1  0
  5  6  2  0
  5  7  1  0
  7  8  1  0
  8  9  1  0
  9 10  1  0
 10 11  2  0
 11 12  1  0
 12 13  1  0
 13 14  1  0
 14 15  1  0
 15 16  1  0
 16 17  1  0
 17 18  1  0
 18 19  1  0
 19 20  1  0
 20 21  1  0
 12 22  2  0
 22 23  1  0
 23 24  1  0
 24 25  1  0
 25 26  1  0
 26 27  1  0
 27 28  1  0
 28 29  1  0
 23 30  2  0
  9 31  1  0
  6  1  1  0
 30 10  1  0
 31  4  1  0
 21 16  1  0
 29 24  1  0
  1 32  1  0
  2 33  1  0
  3 34  1  0
  6 35  1  0
  7 36  1  0
  7 37  1  0
  8 38  1  0
  8 39  1  0
 13 40  1  0
 14 41  1  0
 14 42  1  0
 15 43  1  0
 15 44  1  0
 16 45  1  1
 17 46  1  0
 17 47  1  0
 18 48  1  0
 18 49  1  0
 19 50  1  0
 19 51  1  0
 20 52  1  0
 20 53  1  0
 21 54  1  0
 25 55  1  0
 25 56  1  0
 26 57  1  0
 26 58  1  0
 27 59  1  0
 28 60  1  0
 28 61  1  0
 29 62  1  0
 29 63  1  0
 31 64  1  0
 31 65  1  0
M  END
>  <smiles>  (22) 
c1ccc2c(c1)CCN(c1nc(NCCC3CCCCN3)nc(N3CCNCC3)n1)C2

>  <score_type>  (22) 
oracle

>  <origin>  (22) 
autodockgpu

>  <m_score__min__energy>  (22) 
-10.199999999999999

>  <m_primary>  (22) 
energy

>  <rmsd>  (22) 
4.984275568235907

>  <m_score__min__rmsd>  (22) 
4.984275568235907

>  <meeko>  (22) 
{"free_energy": -9.61, "intermolecular_energy": -11.4, "internal_energy": -0.82, "cluster_size": 38, "cluster_id": 1, "rank_in_cluster": 18}

>  <energy>  (22) 
-9.58

>  <cluster_rmsd>  (22) 
1.61

>  <cluster>  (22) 
1

$$$$

     RDKit          3D

 65 69  0  0  0  0  0  0  0  0999 V2000
  141.4620   82.1030  222.3400 C   0  0  0  0  0  0  0  0  0  0  0  0
  142.1720   81.4670  223.3590 C   0  0  0  0  0  0  0  0  0  0  0  0
  142.0020   80.1120  223.6110 C   0  0  0  0  0  0  0  0  0  0  0  0
  141.1220   79.3690  222.8530 C   0  0  0  0  0  0  0  0  0  0  0  0
  140.4210   80.0200  221.8420 C   0  0  0  0  0  0  0  0  0  0  0  0
  140.5790   81.3630  221.5800 C   0  0  0  0  0  0  0  0  0  0  0  0
  139.4820   79.1530  221.0570 C   0  0  0  0  0  0  0  0  0  0  0  0
  140.3550   78.0000  220.5470 C   0  0  0  0  0  0  0  0  0  0  0  0
  140.7780   77.2790  221.7460 N   0  0  0  0  0  0  0  0  0  0  0  0
  141.0950   75.8960  221.5870 C   0  0  0  0  0  0  0  0  0  0  0  0
  140.2960   74.9770  222.1220 N   0  0  0  0  0  0  0  0  0  0  0  0
  140.5770   73.6650  221.9840 C   0  0  0  0  0  0  0  0  0  0  0  0
  139.6910   72.7160  222.5710 N   0  0  0  0  0  0  0  0  0  0  0  0
  139.8930   71.2880  222.4540 C   0  0  0  0  0  0  0  0  0  0  0  0
  139.4850   70.5920  223.7320 C   0  0  0  0  0  0  0  0  0  0  0  0
  140.7190   70.5180  224.6220 C   0  0  2  0  0  0  0  0  0  0  0  0
  140.6260   69.2850  225.4440 C   0  0  0  0  0  0  0  0  0  0  0  0
  140.9560   69.4890  226.8990 C   0  0  0  0  0  0  0  0  0  0  0  0
  140.1890   70.7000  227.3750 C   0  0  0  0  0  0  0  0  0  0  0  0
  140.7330   71.8750  226.6480 C   0  0  0  0  0  0  0  0  0  0  0  0
  141.0140   71.7320  225.2770 N   0  0  0  0  0  0  0  0  0  0  0  0
  141.6780   73.3310  221.2960 N   0  0  0  0  0  0  0  0  0  0  0  0
  142.5090   74.2320  220.7420 C   0  0  0  0  0  0  0  0  0  0  0  0
  143.6580   73.8070  220.0250 N   0  0  0  0  0  0  0  0  0  0  0  0
  143.8940   74.2200  218.6560 C   0  0  0  0  0  0  0  0  0  0  0  0
  144.6560   73.0570  218.0090 C   0  0  0  0  0  0  0  0  0  0  0  0
  145.9630   73.0460  218.5880 N   0  0  0  0  0  0  0  0  0  0  0  0
  145.9890   73.0470  220.0250 C   0  0  0  0  0  0  0  0  0  0  0  0
  144.6200   72.9520  220.6550 C   0  0  0  0  0  0  0  0  0  0  0  0
  142.2000   75.5350  220.8970 N   0  0  0  0  0  0  0  0  0  0  0  0
  140.8730   77.9310  223.0450 C   0  0  0  0  0  0  0  0  0  0  0  0
  141.6037   83.1764  222.1456 H   0  0  0  0  0  0  0  0  0  0  0  0
  142.8770   82.0477  223.9720 H   0  0  0  0  0  0  0  0  0  0  0  0
  142.5718   79.6294  224.4187 H   0  0  0  0  0  0  0  0  0  0  0  0
  140.0063   81.8417  220.7720 H   0  0  0  0  0  0  0  0  0  0  0  0
  138.6744   78.7735  221.7003 H   0  0  0  0  0  0  0  0  0  0  0  0
  138.9946   79.7013  220.2374 H   0  0  0  0  0  0  0  0  0  0  0  0
  139.7745   77.3404  219.8851 H   0  0  0  0  0  0  0  0  0  0  0  0
  141.2129   78.3622  219.9615 H   0  0  0  0  0  0  0  0  0  0  0  0
  138.8800   73.1150  223.0950 H   0  0  0  0  0  0  0  0  0  0  0  0
  139.2856   70.9030  221.6217 H   0  0  0  0  0  0  0  0  0  0  0  0
  140.9590   71.0926  222.2658 H   0  0  0  0  0  0  0  0  0  0  0  0
  138.6917   71.1641  224.2354 H   0  0  0  0  0  0  0  0  0  0  0  0
  139.0971   69.5847  223.5199 H   0  0  0  0  0  0  0  0  0  0  0  0
  141.6353   70.4092  224.0232 H   0  0  0  0  0  0  0  0  0  0  0  0
  139.5980   68.8999  225.3738 H   0  0  0  0  0  0  0  0  0  0  0  0
  141.3718   68.5815  225.0455 H   0  0  0  0  0  0  0  0  0  0  0  0
  140.6571   68.6036  227.4793 H   0  0  0  0  0  0  0  0  0  0  0  0
  142.0375   69.6391  227.0328 H   0  0  0  0  0  0  0  0  0  0  0  0
  139.1186   70.5805  227.1515 H   0  0  0  0  0  0  0  0  0  0  0  0
  140.2957   70.8285  228.4622 H   0  0  0  0  0  0  0  0  0  0  0  0
  140.0005   72.6895  226.7484 H   0  0  0  0  0  0  0  0  0  0  0  0
  141.7141   72.0547  227.1119 H   0  0  0  0  0  0  0  0  0  0  0  0
  140.6630   72.5140  224.6790 H   0  0  0  0  0  0  0  0  0  0  0  0
  142.9404   74.3929  218.1357 H   0  0  0  0  0  0  0  0  0  0  0  0
  144.4602   75.1616  218.6032 H   0  0  0  0  0  0  0  0  0  0  0  0
  144.1424   72.1064  218.2155 H   0  0  0  0  0  0  0  0  0  0  0  0
  144.7093   73.1792  216.9171 H   0  0  0  0  0  0  0  0  0  0  0  0
  146.5750   73.7740  218.2030 H   0  0  0  0  0  0  0  0  0  0  0  0
  146.5874   72.1879  220.3625 H   0  0  0  0  0  0  0  0  0  0  0  0
  146.4223   74.0081  220.3389 H   0  0  0  0  0  0  0  0  0  0  0  0
  144.2694   71.9122  220.5785 H   0  0  0  0  0  0  0  0  0  0  0  0
  144.7144   73.2750  221.7023 H   0  0  0  0  0  0  0  0  0  0  0  0
  139.9307   77.7919  223.5953 H   0  0  0  0  0  0  0  0  0  0  0  0
  141.7004   77.4882  223.6189 H   0  0  0  0  0  0  0  0  0  0  0  0
  1  2  2  0
  2  3  1  0
  3  4  2  0
  4  5  1  0
  5  6  2  0
  5  7  1  0
  7  8  1  0
  8  9  1  0
  9 10  1  0
 10 11  2  0
 11 12  1  0
 12 13  1  0
 13 14  1  0
 14 15  1  0
 15 16  1  0
 16 17  1  0
 17 18  1  0
 18 19  1  0
 19 20  1  0
 20 21  1  0
 12 22  2  0
 22 23  1  0
 23 24  1  0
 24 25  1  0
 25 26  1  0
 26 27  1  0
 27 28  1  0
 28 29  1  0
 23 30  2  0
  9 31  1  0
  6  1  1  0
 30 10  1  0
 31  4  1  0
 21 16  1  0
 29 24  1  0
  1 32  1  0
  2 33  1  0
  3 34  1  0
  6 35  1  0
  7 36  1  0
  7 37  1  0
  8 38  1  0
  8 39  1  0
 13 40  1  0
 14 41  1  0
 14 42  1  0
 15 43  1  0
 15 44  1  0
 16 45  1  6
 17 46  1  0
 17 47  1  0
 18 48  1  0
 18 49  1  0
 19 50  1  0
 19 51  1  0
 20 52  1  0
 20 53  1  0
 21 54  1  0
 25 55  1  0
 25 56  1  0
 26 57  1  0
 26 58  1  0
 27 59  1  0
 28 60  1  0
 28 61  1  0
 29 62  1  0
 29 63  1  0
 31 64  1  0
 31 65  1  0
M  END
>  <smiles>  (23) 
c1ccc2c(c1)CCN(c1nc(NCCC3CCCCN3)nc(N3CCNCC3)n1)C2

>  <score_type>  (23) 
oracle

>  <origin>  (23) 
autodockgpu

>  <m_score__min__energy>  (23) 
-10.199999999999999

>  <m_primary>  (23) 
energy

>  <rmsd>  (23) 
5.0481002333541465

>  <m_score__min__rmsd>  (23) 
5.0481002333541465

>  <meeko>  (23) 
{"free_energy": -9.63, "intermolecular_energy": -11.42, "internal_energy": -0.89, "cluster_size": 38, "cluster_id": 1, "rank_in_cluster": 17}

>  <energy>  (23) 
-9.58

>  <cluster_rmsd>  (23) 
1.52

>  <cluster>  (23) 
1

$$$$

     RDKit          3D

 65 69  0  0  0  0  0  0  0  0999 V2000
  141.9440   81.2870  222.5800 C   0  0  0  0  0  0  0  0  0  0  0  0
  141.9030   80.6100  223.7980 C   0  0  0  0  0  0  0  0  0  0  0  0
  141.4450   79.3020  223.8750 C   0  0  0  0  0  0  0  0  0  0  0  0
  141.0200   78.6470  222.7390 C   0  0  0  0  0  0  0  0  0  0  0  0
  141.0660   79.3370  221.5320 C   0  0  0  0  0  0  0  0  0  0  0  0
  141.5180   80.6360  221.4400 C   0  0  0  0  0  0  0  0  0  0  0  0
  140.5900   78.5660  220.3370 C   0  0  0  0  0  0  0  0  0  0  0  0
  141.4370   77.2880  220.3400 C   0  0  0  0  0  0  0  0  0  0  0  0
  141.0480   76.5710  221.5530 N   0  0  0  0  0  0  0  0  0  0  0  0
  141.2130   75.1540  221.5450 C   0  0  0  0  0  0  0  0  0  0  0  0
  140.2560   74.3820  222.0530 N   0  0  0  0  0  0  0  0  0  0  0  0
  140.3920   73.0400  222.0550 C   0  0  0  0  0  0  0  0  0  0  0  0
  139.3400   72.2530  222.6080 N   0  0  0  0  0  0  0  0  0  0  0  0
  139.5420   71.3680  223.7350 C   0  0  0  0  0  0  0  0  0  0  0  0
  140.6450   71.8940  224.6260 C   0  0  0  0  0  0  0  0  0  0  0  0
  141.1680   70.7200  225.4420 C   0  0  2  0  0  0  0  0  0  0  0  0
  140.3150   69.5390  225.1550 C   0  0  0  0  0  0  0  0  0  0  0  0
  139.8990   68.7690  226.3800 C   0  0  0  0  0  0  0  0  0  0  0  0
  139.3870   69.7650  227.3930 C   0  0  0  0  0  0  0  0  0  0  0  0
  140.5390   70.6110  227.7950 C   0  0  0  0  0  0  0  0  0  0  0  0
  141.4250   71.0410  226.7910 N   0  0  0  0  0  0  0  0  0  0  0  0
  141.5130   72.5240  221.5320 N   0  0  0  0  0  0  0  0  0  0  0  0
  142.5010   73.2720  221.0100 C   0  0  0  0  0  0  0  0  0  0  0  0
  143.6620   72.6590  220.4710 N   0  0  0  0  0  0  0  0  0  0  0  0
  144.9890   73.0010  220.9410 C   0  0  0  0  0  0  0  0  0  0  0  0
  145.9080   72.8200  219.7280 C   0  0  0  0  0  0  0  0  0  0  0  0
  145.9910   71.4150  219.4770 N   0  0  0  0  0  0  0  0  0  0  0  0
  144.7240   70.7440  219.3690 C   0  0  0  0  0  0  0  0  0  0  0  0
  143.5380   71.6760  219.4360 C   0  0  0  0  0  0  0  0  0  0  0  0
  142.3350   74.6100  221.0220 N   0  0  0  0  0  0  0  0  0  0  0  0
  140.5170   77.2630  222.7200 C   0  0  0  0  0  0  0  0  0  0  0  0
  142.3099   82.3231  222.5284 H   0  0  0  0  0  0  0  0  0  0  0  0
  142.2390   81.1205  224.7126 H   0  0  0  0  0  0  0  0  0  0  0  0
  141.4211   78.7861  224.8462 H   0  0  0  0  0  0  0  0  0  0  0  0
  141.5390   81.1489  220.4671 H   0  0  0  0  0  0  0  0  0  0  0  0
  139.5211   78.3239  220.4314 H   0  0  0  0  0  0  0  0  0  0  0  0
  140.6976   79.1360  219.4024 H   0  0  0  0  0  0  0  0  0  0  0  0
  141.2222   76.6812  219.4480 H   0  0  0  0  0  0  0  0  0  0  0  0
  142.5143   77.5096  220.3220 H   0  0  0  0  0  0  0  0  0  0  0  0
  138.4070   72.3530  222.1480 H   0  0  0  0  0  0  0  0  0  0  0  0
  138.6094   71.2998  224.3143 H   0  0  0  0  0  0  0  0  0  0  0  0
  139.8280   70.3736  223.3616 H   0  0  0  0  0  0  0  0  0  0  0  0
  141.4547   72.3164  224.0129 H   0  0  0  0  0  0  0  0  0  0  0  0
  140.2664   72.6884  225.2860 H   0  0  0  0  0  0  0  0  0  0  0  0
  142.1842   70.4391  225.1281 H   0  0  0  0  0  0  0  0  0  0  0  0
  139.4069   69.8857  224.6400 H   0  0  0  0  0  0  0  0  0  0  0  0
  140.9174   68.8546  224.5395 H   0  0  0  0  0  0  0  0  0  0  0  0
  139.1038   68.0542  226.1217 H   0  0  0  0  0  0  0  0  0  0  0  0
  140.7499   68.2045  226.7891 H   0  0  0  0  0  0  0  0  0  0  0  0
  138.5995   70.3884  226.9444 H   0  0  0  0  0  0  0  0  0  0  0  0
  138.9564   69.2504  228.2647 H   0  0  0  0  0  0  0  0  0  0  0  0
  140.1309   71.5109  228.2784 H   0  0  0  0  0  0  0  0  0  0  0  0
  141.1481   69.9581  228.4375 H   0  0  0  0  0  0  0  0  0  0  0  0
  141.6730   72.0560  226.8380 H   0  0  0  0  0  0  0  0  0  0  0  0
  145.0163   74.0429  221.2928 H   0  0  0  0  0  0  0  0  0  0  0  0
  145.2989   72.3705  221.7874 H   0  0  0  0  0  0  0  0  0  0  0  0
  145.4861   73.3364  218.8532 H   0  0  0  0  0  0  0  0  0  0  0  0
  146.9039   73.2454  219.9211 H   0  0  0  0  0  0  0  0  0  0  0  0
  146.6160   70.9300  220.1310 H   0  0  0  0  0  0  0  0  0  0  0  0
  144.6936   70.2113  218.4071 H   0  0  0  0  0  0  0  0  0  0  0  0
  144.6465   70.0615  220.2282 H   0  0  0  0  0  0  0  0  0  0  0  0
  143.4423   72.1931  218.4698 H   0  0  0  0  0  0  0  0  0  0  0  0
  142.6505   71.0668  219.6625 H   0  0  0  0  0  0  0  0  0  0  0  0
  139.4181   77.2726  222.6725 H   0  0  0  0  0  0  0  0  0  0  0  0
  140.8391   76.7424  223.6339 H   0  0  0  0  0  0  0  0  0  0  0  0
  1  2  2  0
  2  3  1  0
  3  4  2  0
  4  5  1  0
  5  6  2  0
  5  7  1  0
  7  8  1  0
  8  9  1  0
  9 10  1  0
 10 11  2  0
 11 12  1  0
 12 13  1  0
 13 14  1  0
 14 15  1  0
 15 16  1  0
 16 17  1  0
 17 18  1  0
 18 19  1  0
 19 20  1  0
 20 21  1  0
 12 22  2  0
 22 23  1  0
 23 24  1  0
 24 25  1  0
 25 26  1  0
 26 27  1  0
 27 28  1  0
 28 29  1  0
 23 30  2  0
  9 31  1  0
  6  1  1  0
 30 10  1  0
 31  4  1  0
 21 16  1  0
 29 24  1  0
  1 32  1  0
  2 33  1  0
  3 34  1  0
  6 35  1  0
  7 36  1  0
  7 37  1  0
  8 38  1  0
  8 39  1  0
 13 40  1  0
 14 41  1  0
 14 42  1  0
 15 43  1  0
 15 44  1  0
 16 45  1  6
 17 46  1  0
 17 47  1  0
 18 48  1  0
 18 49  1  0
 19 50  1  0
 19 51  1  0
 20 52  1  0
 20 53  1  0
 21 54  1  0
 25 55  1  0
 25 56  1  0
 26 57  1  0
 26 58  1  0
 27 59  1  0
 28 60  1  0
 28 61  1  0
 29 62  1  0
 29 63  1  0
 31 64  1  0
 31 65  1  0
M  END
>  <smiles>  (24) 
c1ccc2c(c1)CCN(c1nc(NCCC3CCCCN3)nc(N3CCNCC3)n1)C2

>  <score_type>  (24) 
oracle

>  <origin>  (24) 
autodockgpu

>  <m_score__min__energy>  (24) 
-10.199999999999999

>  <m_primary>  (24) 
energy

>  <rmsd>  (24) 
4.930452909774519

>  <m_score__min__rmsd>  (24) 
4.930452909774519

>  <meeko>  (24) 
{"free_energy": -9.11, "intermolecular_energy": -10.9, "internal_energy": -0.95, "cluster_size": 38, "cluster_id": 1, "rank_in_cluster": 33}

>  <energy>  (24) 
-9.55

>  <cluster_rmsd>  (24) 
0.97

>  <cluster>  (24) 
1

$$$$

     RDKit          3D

 65 69  0  0  0  0  0  0  0  0999 V2000
  139.7080   69.8130  228.3670 C   0  0  0  0  0  0  0  0  0  0  0  0
  140.6190   70.8690  228.3310 C   0  0  0  0  0  0  0  0  0  0  0  0
  141.0200   71.4270  227.1240 C   0  0  0  0  0  0  0  0  0  0  0  0
  140.5190   70.9430  225.9350 C   0  0  0  0  0  0  0  0  0  0  0  0
  139.6110   69.8900  225.9890 C   0  0  0  0  0  0  0  0  0  0  0  0
  139.2050   69.3250  227.1780 C   0  0  0  0  0  0  0  0  0  0  0  0
  139.1070   69.4130  224.6590 C   0  0  0  0  0  0  0  0  0  0  0  0
  138.5390   70.6700  223.9880 C   0  0  0  0  0  0  0  0  0  0  0  0
  139.6910   71.5440  223.7740 N   0  0  0  0  0  0  0  0  0  0  0  0
  139.5960   72.4820  222.7020 C   0  0  0  0  0  0  0  0  0  0  0  0
  138.4020   72.7740  222.1940 N   0  0  0  0  0  0  0  0  0  0  0  0
  138.2900   73.6580  221.1800 C   0  0  0  0  0  0  0  0  0  0  0  0
  136.9900   73.9420  220.6690 N   0  0  0  0  0  0  0  0  0  0  0  0
  136.1800   75.0300  221.1720 C   0  0  0  0  0  0  0  0  0  0  0  0
  136.0440   74.9340  222.6750 C   0  0  0  0  0  0  0  0  0  0  0  0
  136.9010   76.0380  223.2790 C   0  0  2  0  0  0  0  0  0  0  0  0
  136.2290   77.3380  223.0270 C   0  0  0  0  0  0  0  0  0  0  0  0
  137.1490   78.4210  222.5320 C   0  0  0  0  0  0  0  0  0  0  0  0
  137.9760   77.8390  221.4110 C   0  0  0  0  0  0  0  0  0  0  0  0
  138.8400   76.7880  222.0040 C   0  0  0  0  0  0  0  0  0  0  0  0
  138.2700   75.9270  222.9600 N   0  0  0  0  0  0  0  0  0  0  0  0
  139.4140   74.2200  220.7140 N   0  0  0  0  0  0  0  0  0  0  0  0
  140.6370   73.9490  221.2020 C   0  0  0  0  0  0  0  0  0  0  0  0
  141.7870   74.5820  220.6610 N   0  0  0  0  0  0  0  0  0  0  0  0
  142.9330   73.8190  220.2120 C   0  0  0  0  0  0  0  0  0  0  0  0
  144.1450   74.7240  220.4600 C   0  0  0  0  0  0  0  0  0  0  0  0
  144.0610   75.7950  219.5160 N   0  0  0  0  0  0  0  0  0  0  0  0
  142.8000   76.4830  219.4910 C   0  0  0  0  0  0  0  0  0  0  0  0
  141.8320   76.0100  220.5490 C   0  0  0  0  0  0  0  0  0  0  0  0
  140.7160   73.0620  222.2150 N   0  0  0  0  0  0  0  0  0  0  0  0
  140.8830   71.4690  224.6080 C   0  0  0  0  0  0  0  0  0  0  0  0
  139.3957   69.3765  229.3272 H   0  0  0  0  0  0  0  0  0  0  0  0
  141.0259   71.2657  229.2728 H   0  0  0  0  0  0  0  0  0  0  0  0
  141.7402   72.2584  227.1171 H   0  0  0  0  0  0  0  0  0  0  0  0
  138.4863   68.4923  227.1797 H   0  0  0  0  0  0  0  0  0  0  0  0
  139.9281   68.9908  224.0611 H   0  0  0  0  0  0  0  0  0  0  0  0
  138.3546   68.6168  224.7588 H   0  0  0  0  0  0  0  0  0  0  0  0
  138.0652   70.4145  223.0287 H   0  0  0  0  0  0  0  0  0  0  0  0
  137.7663   71.1519  224.6050 H   0  0  0  0  0  0  0  0  0  0  0  0
  136.6550   73.3140  219.9050 H   0  0  0  0  0  0  0  0  0  0  0  0
  136.6559   75.9869  220.9114 H   0  0  0  0  0  0  0  0  0  0  0  0
  135.1797   74.9698  220.7184 H   0  0  0  0  0  0  0  0  0  0  0  0
  134.9925   75.0713  222.9673 H   0  0  0  0  0  0  0  0  0  0  0  0
  136.3716   73.9469  223.0332 H   0  0  0  0  0  0  0  0  0  0  0  0
  136.9624   75.9392  224.3728 H   0  0  0  0  0  0  0  0  0  0  0  0
  135.4442   77.1803  222.2726 H   0  0  0  0  0  0  0  0  0  0  0  0
  135.8285   77.6798  223.9928 H   0  0  0  0  0  0  0  0  0  0  0  0
  136.5603   79.2729  222.1608 H   0  0  0  0  0  0  0  0  0  0  0  0
  137.7974   78.7792  223.3452 H   0  0  0  0  0  0  0  0  0  0  0  0
  137.3185   77.3995  220.6464 H   0  0  0  0  0  0  0  0  0  0  0  0
  138.5840   78.6185  220.9285 H   0  0  0  0  0  0  0  0  0  0  0  0
  139.2077   76.1619  221.1777 H   0  0  0  0  0  0  0  0  0  0  0  0
  139.6091   77.3450  222.5592 H   0  0  0  0  0  0  0  0  0  0  0  0
  138.4850   74.9140  222.8130 H   0  0  0  0  0  0  0  0  0  0  0  0
  143.0244   72.8864  220.7881 H   0  0  0  0  0  0  0  0  0  0  0  0
  142.8453   73.5325  219.1536 H   0  0  0  0  0  0  0  0  0  0  0  0
  144.1181   75.1203  221.4858 H   0  0  0  0  0  0  0  0  0  0  0  0
  145.0853   74.1658  220.3410 H   0  0  0  0  0  0  0  0  0  0  0  0
  144.3540   75.5180  218.5720 H   0  0  0  0  0  0  0  0  0  0  0  0
  142.9863   77.5561  219.6449 H   0  0  0  0  0  0  0  0  0  0  0  0
  142.3381   76.2743  218.5148 H   0  0  0  0  0  0  0  0  0  0  0  0
  142.1385   76.4292  221.5187 H   0  0  0  0  0  0  0  0  0  0  0  0
  140.8281   76.3514  220.2563 H   0  0  0  0  0  0  0  0  0  0  0  0
  141.6188   70.8004  224.1373 H   0  0  0  0  0  0  0  0  0  0  0  0
  141.3188   72.4730  224.7175 H   0  0  0  0  0  0  0  0  0  0  0  0
  1  2  2  0
  2  3  1  0
  3  4  2  0
  4  5  1  0
  5  6  2  0
  5  7  1  0
  7  8  1  0
  8  9  1  0
  9 10  1  0
 10 11  2  0
 11 12  1  0
 12 13  1  0
 13 14  1  0
 14 15  1  0
 15 16  1  0
 16 17  1  0
 17 18  1  0
 18 19  1  0
 19 20  1  0
 20 21  1  0
 12 22  2  0
 22 23  1  0
 23 24  1  0
 24 25  1  0
 25 26  1  0
 26 27  1  0
 27 28  1  0
 28 29  1  0
 23 30  2  0
  9 31  1  0
  6  1  1  0
 30 10  1  0
 31  4  1  0
 21 16  1  0
 29 24  1  0
  1 32  1  0
  2 33  1  0
  3 34  1  0
  6 35  1  0
  7 36  1  0
  7 37  1  0
  8 38  1  0
  8 39  1  0
 13 40  1  0
 14 41  1  0
 14 42  1  0
 15 43  1  0
 15 44  1  0
 16 45  1  1
 17 46  1  0
 17 47  1  0
 18 48  1  0
 18 49  1  0
 19 50  1  0
 19 51  1  0
 20 52  1  0
 20 53  1  0
 21 54  1  0
 25 55  1  0
 25 56  1  0
 26 57  1  0
 26 58  1  0
 27 59  1  0
 28 60  1  0
 28 61  1  0
 29 62  1  0
 29 63  1  0
 31 64  1  0
 31 65  1  0
M  END
>  <smiles>  (25) 
c1ccc2c(c1)CCN(c1nc(NCCC3CCCCN3)nc(N3CCNCC3)n1)C2

>  <score_type>  (25) 
oracle

>  <origin>  (25) 
autodockgpu

>  <m_score__min__energy>  (25) 
-10.199999999999999

>  <m_primary>  (25) 
energy

>  <rmsd>  (25) 
10.871935276596478

>  <m_score__min__rmsd>  (25) 
10.871935276596478

>  <meeko>  (25) 
{"free_energy": -7.44, "intermolecular_energy": -9.23, "internal_energy": -2.25, "cluster_size": 3, "cluster_id": 3, "rank_in_cluster": 3}

>  <energy>  (25) 
-9.44

>  <cluster_rmsd>  (25) 
1.47

>  <cluster>  (25) 
1

$$$$

     RDKit          3D

 65 69  0  0  0  0  0  0  0  0999 V2000
  140.1380   81.4010  222.2090 C   0  0  0  0  0  0  0  0  0  0  0  0
  141.4490   81.0620  222.5430 C   0  0  0  0  0  0  0  0  0  0  0  0
  141.7980   79.7490  222.8280 C   0  0  0  0  0  0  0  0  0  0  0  0
  140.8470   78.7520  222.7860 C   0  0  0  0  0  0  0  0  0  0  0  0
  139.5440   79.1080  222.4520 C   0  0  0  0  0  0  0  0  0  0  0  0
  139.1820   80.4060  222.1670 C   0  0  0  0  0  0  0  0  0  0  0  0
  138.5600   77.9750  222.4240 C   0  0  0  0  0  0  0  0  0  0  0  0
  139.1770   76.9520  221.4620 C   0  0  0  0  0  0  0  0  0  0  0  0
  140.4040   76.5000  222.1160 N   0  0  0  0  0  0  0  0  0  0  0  0
  140.8720   75.1960  221.7740 C   0  0  0  0  0  0  0  0  0  0  0  0
  140.1210   74.1370  222.0600 N   0  0  0  0  0  0  0  0  0  0  0  0
  140.5450   72.8950  221.7460 C   0  0  0  0  0  0  0  0  0  0  0  0
  139.7050   71.7900  222.0690 N   0  0  0  0  0  0  0  0  0  0  0  0
  138.7050   71.8540  223.1130 C   0  0  0  0  0  0  0  0  0  0  0  0
  138.7740   70.6200  223.9840 C   0  0  0  0  0  0  0  0  0  0  0  0
  140.1970   70.5210  224.5170 C   0  0  2  0  0  0  0  0  0  0  0  0
  140.2980   69.2940  225.3470 C   0  0  0  0  0  0  0  0  0  0  0  0
  141.0050   69.4960  226.6610 C   0  0  0  0  0  0  0  0  0  0  0  0
  140.4170   70.7260  227.3100 C   0  0  0  0  0  0  0  0  0  0  0  0
  140.7740   71.8850  226.4550 C   0  0  0  0  0  0  0  0  0  0  0  0
  140.6810   71.7300  225.0590 N   0  0  0  0  0  0  0  0  0  0  0  0
  141.7360   72.7760  221.1440 N   0  0  0  0  0  0  0  0  0  0  0  0
  142.5230   73.8230  220.8400 C   0  0  0  0  0  0  0  0  0  0  0  0
  143.7750   73.6240  220.2000 N   0  0  0  0  0  0  0  0  0  0  0  0
  143.9810   73.9770  218.8100 C   0  0  0  0  0  0  0  0  0  0  0  0
  145.0190   72.9770  218.2890 C   0  0  0  0  0  0  0  0  0  0  0  0
  146.2630   73.3110  218.9100 N   0  0  0  0  0  0  0  0  0  0  0  0
  146.2140   73.4240  220.3420 C   0  0  0  0  0  0  0  0  0  0  0  0
  144.8710   73.0620  220.9310 C   0  0  0  0  0  0  0  0  0  0  0  0
  142.0710   75.0500  221.1660 N   0  0  0  0  0  0  0  0  0  0  0  0
  141.1200   77.3340  223.0720 C   0  0  0  0  0  0  0  0  0  0  0  0
  139.8703   82.4437  221.9828 H   0  0  0  0  0  0  0  0  0  0  0  0
  142.2184   81.8472  222.5812 H   0  0  0  0  0  0  0  0  0  0  0  0
  142.8380   79.5031  223.0885 H   0  0  0  0  0  0  0  0  0  0  0  0
  138.1405   80.6476  221.9083 H   0  0  0  0  0  0  0  0  0  0  0  0
  138.4387   77.5408  223.4274 H   0  0  0  0  0  0  0  0  0  0  0  0
  137.5590   78.2991  222.1032 H   0  0  0  0  0  0  0  0  0  0  0  0
  138.4901   76.1073  221.3052 H   0  0  0  0  0  0  0  0  0  0  0  0
  139.3762   77.3878  220.4718 H   0  0  0  0  0  0  0  0  0  0  0  0
  139.8560   70.9240  221.5050 H   0  0  0  0  0  0  0  0  0  0  0  0
  138.8838   72.7454  223.7322 H   0  0  0  0  0  0  0  0  0  0  0  0
  137.7086   71.9094  222.6503 H   0  0  0  0  0  0  0  0  0  0  0  0
  138.0643   70.7090  224.8197 H   0  0  0  0  0  0  0  0  0  0  0  0
  138.5107   69.7211  223.4073 H   0  0  0  0  0  0  0  0  0  0  0  0
  140.9194   70.3888  223.6981 H   0  0  0  0  0  0  0  0  0  0  0  0
  139.2799   68.9329  225.5546 H   0  0  0  0  0  0  0  0  0  0  0  0
  140.8968   68.5716  224.7729 H   0  0  0  0  0  0  0  0  0  0  0  0
  140.8512   68.6201  227.3085 H   0  0  0  0  0  0  0  0  0  0  0  0
  142.0864   69.6214  226.5032 H   0  0  0  0  0  0  0  0  0  0  0  0
  139.3233   70.6302  227.3779 H   0  0  0  0  0  0  0  0  0  0  0  0
  140.8101   70.8561  228.3291 H   0  0  0  0  0  0  0  0  0  0  0  0
  140.1106   72.7159  226.7367 H   0  0  0  0  0  0  0  0  0  0  0  0
  141.8460   72.0450  226.6428 H   0  0  0  0  0  0  0  0  0  0  0  0
  140.2000   72.5180  224.5680 H   0  0  0  0  0  0  0  0  0  0  0  0
  143.0411   73.8860  218.2459 H   0  0  0  0  0  0  0  0  0  0  0  0
  144.3204   75.0172  218.6967 H   0  0  0  0  0  0  0  0  0  0  0  0
  144.7250   71.9516  218.5576 H   0  0  0  0  0  0  0  0  0  0  0  0
  145.0993   73.0266  217.1931 H   0  0  0  0  0  0  0  0  0  0  0  0
  146.7130   74.1300  218.4860 H   0  0  0  0  0  0  0  0  0  0  0  0
  146.9737   72.7535  220.7700 H   0  0  0  0  0  0  0  0  0  0  0  0
  146.4010   74.4795  220.5891 H   0  0  0  0  0  0  0  0  0  0  0  0
  144.7700   71.9666  220.9290 H   0  0  0  0  0  0  0  0  0  0  0  0
  144.8347   73.4731  221.9506 H   0  0  0  0  0  0  0  0  0  0  0  0
  140.7841   77.0942  224.0917 H   0  0  0  0  0  0  0  0  0  0  0  0
  142.2002   77.1440  222.9880 H   0  0  0  0  0  0  0  0  0  0  0  0
  1  2  2  0
  2  3  1  0
  3  4  2  0
  4  5  1  0
  5  6  2  0
  5  7  1  0
  7  8  1  0
  8  9  1  0
  9 10  1  0
 10 11  2  0
 11 12  1  0
 12 13  1  0
 13 14  1  0
 14 15  1  0
 15 16  1  0
 16 17  1  0
 17 18  1  0
 18 19  1  0
 19 20  1  0
 20 21  1  0
 12 22  2  0
 22 23  1  0
 23 24  1  0
 24 25  1  0
 25 26  1  0
 26 27  1  0
 27 28  1  0
 28 29  1  0
 23 30  2  0
  9 31  1  0
  6  1  1  0
 30 10  1  0
 31  4  1  0
 21 16  1  0
 29 24  1  0
  1 32  1  0
  2 33  1  0
  3 34  1  0
  6 35  1  0
  7 36  1  0
  7 37  1  0
  8 38  1  0
  8 39  1  0
 13 40  1  0
 14 41  1  0
 14 42  1  0
 15 43  1  0
 15 44  1  0
 16 45  1  6
 17 46  1  0
 17 47  1  0
 18 48  1  0
 18 49  1  0
 19 50  1  0
 19 51  1  0
 20 52  1  0
 20 53  1  0
 21 54  1  0
 25 55  1  0
 25 56  1  0
 26 57  1  0
 26 58  1  0
 27 59  1  0
 28 60  1  0
 28 61  1  0
 29 62  1  0
 29 63  1  0
 31 64  1  0
 31 65  1  0
M  END
>  <smiles>  (26) 
c1ccc2c(c1)CCN(c1nc(NCCC3CCCCN3)nc(N3CCNCC3)n1)C2

>  <score_type>  (26) 
oracle

>  <origin>  (26) 
autodockgpu

>  <m_score__min__energy>  (26) 
-10.199999999999999

>  <m_primary>  (26) 
energy

>  <rmsd>  (26) 
4.751125606975198

>  <m_score__min__rmsd>  (26) 
4.751125606975198

>  <meeko>  (26) 
{"free_energy": -9.24, "intermolecular_energy": -11.02, "internal_energy": -0.98, "cluster_size": 38, "cluster_id": 1, "rank_in_cluster": 29}

>  <energy>  (26) 
-9.41

>  <cluster_rmsd>  (26) 
1.47

>  <cluster>  (26) 
1

$$$$

     RDKit          3D

 65 69  0  0  0  0  0  0  0  0999 V2000
  140.2040   81.4030  222.1750 C   0  0  0  0  0  0  0  0  0  0  0  0
  141.4980   81.0590  222.5680 C   0  0  0  0  0  0  0  0  0  0  0  0
  141.8280   79.7430  222.8670 C   0  0  0  0  0  0  0  0  0  0  0  0
  140.8760   78.7510  222.7810 C   0  0  0  0  0  0  0  0  0  0  0  0
  139.5910   79.1110  222.3880 C   0  0  0  0  0  0  0  0  0  0  0  0
  139.2470   80.4120  222.0870 C   0  0  0  0  0  0  0  0  0  0  0  0
  138.6060   77.9830  222.3140 C   0  0  0  0  0  0  0  0  0  0  0  0
  139.2610   76.9580  221.3800 C   0  0  0  0  0  0  0  0  0  0  0  0
  140.4550   76.5010  222.0890 N   0  0  0  0  0  0  0  0  0  0  0  0
  140.9340   75.1960  221.7680 C   0  0  0  0  0  0  0  0  0  0  0  0
  140.1980   74.1340  222.0840 N   0  0  0  0  0  0  0  0  0  0  0  0
  140.6320   72.8910  221.7900 C   0  0  0  0  0  0  0  0  0  0  0  0
  139.8080   71.7830  222.1450 N   0  0  0  0  0  0  0  0  0  0  0  0
  139.3220   71.5780  223.4920 C   0  0  0  0  0  0  0  0  0  0  0  0
  140.3860   70.9230  224.3420 C   0  0  0  0  0  0  0  0  0  0  0  0
  139.7050   70.4050  225.6020 C   0  0  2  0  0  0  0  0  0  0  0  0
  140.5810   70.7080  226.7610 C   0  0  0  0  0  0  0  0  0  0  0  0
  140.7510   69.5600  227.7210 C   0  0  0  0  0  0  0  0  0  0  0  0
  141.0780   68.3310  226.9070 C   0  0  0  0  0  0  0  0  0  0  0  0
  139.8830   68.0210  226.0830 C   0  0  0  0  0  0  0  0  0  0  0  0
  139.2050   69.0930  225.4730 N   0  0  0  0  0  0  0  0  0  0  0  0
  141.8180   72.7720  221.1760 N   0  0  0  0  0  0  0  0  0  0  0  0
  142.5890   73.8210  220.8420 C   0  0  0  0  0  0  0  0  0  0  0  0
  143.8350   73.6230  220.1910 N   0  0  0  0  0  0  0  0  0  0  0  0
  144.0360   73.9970  218.8060 C   0  0  0  0  0  0  0  0  0  0  0  0
  145.0630   72.9980  218.2620 C   0  0  0  0  0  0  0  0  0  0  0  0
  146.3130   73.3120  218.8800 N   0  0  0  0  0  0  0  0  0  0  0  0
  146.2730   73.4020  220.3140 C   0  0  0  0  0  0  0  0  0  0  0  0
  144.9320   73.0410  220.9060 C   0  0  0  0  0  0  0  0  0  0  0  0
  142.1270   75.0500  221.1480 N   0  0  0  0  0  0  0  0  0  0  0  0
  141.1300   77.3310  223.0780 C   0  0  0  0  0  0  0  0  0  0  0  0
  139.9506   82.4471  221.9391 H   0  0  0  0  0  0  0  0  0  0  0  0
  142.2679   81.8411  222.6421 H   0  0  0  0  0  0  0  0  0  0  0  0
  142.8541   79.4920  223.1738 H   0  0  0  0  0  0  0  0  0  0  0  0
  138.2198   80.6578  221.7797 H   0  0  0  0  0  0  0  0  0  0  0  0
  138.4377   77.5485  223.3104 H   0  0  0  0  0  0  0  0  0  0  0  0
  137.6221   78.3117  221.9481 H   0  0  0  0  0  0  0  0  0  0  0  0
  138.5784   76.1162  221.1918 H   0  0  0  0  0  0  0  0  0  0  0  0
  139.5063   77.3929  220.3999 H   0  0  0  0  0  0  0  0  0  0  0  0
  139.5750   71.1230  221.3700 H   0  0  0  0  0  0  0  0  0  0  0  0
  139.0537   72.5497  223.9323 H   0  0  0  0  0  0  0  0  0  0  0  0
  138.4395   70.9222  223.4570 H   0  0  0  0  0  0  0  0  0  0  0  0
  140.8456   70.0883  223.7924 H   0  0  0  0  0  0  0  0  0  0  0  0
  141.1786   71.6422  224.5958 H   0  0  0  0  0  0  0  0  0  0  0  0
  138.7620   70.9384  225.7923 H   0  0  0  0  0  0  0  0  0  0  0  0
  141.5737   70.9889  226.3794 H   0  0  0  0  0  0  0  0  0  0  0  0
  140.0953   71.5204  227.3214 H   0  0  0  0  0  0  0  0  0  0  0  0
  141.5710   69.7751  228.4220 H   0  0  0  0  0  0  0  0  0  0  0  0
  139.8318   69.4043  228.3048 H   0  0  0  0  0  0  0  0  0  0  0  0
  141.9433   68.5284  226.2571 H   0  0  0  0  0  0  0  0  0  0  0  0
  141.3317   67.4844  227.5619 H   0  0  0  0  0  0  0  0  0  0  0  0
  140.2058   67.3398  225.2819 H   0  0  0  0  0  0  0  0  0  0  0  0
  139.1563   67.6072  226.7976 H   0  0  0  0  0  0  0  0  0  0  0  0
  138.9660   68.9360  224.4670 H   0  0  0  0  0  0  0  0  0  0  0  0
  143.0921   73.9226  218.2460 H   0  0  0  0  0  0  0  0  0  0  0  0
  144.3832   75.0362  218.7082 H   0  0  0  0  0  0  0  0  0  0  0  0
  144.7628   71.9706  218.5156 H   0  0  0  0  0  0  0  0  0  0  0  0
  145.1367   73.0652  217.1665 H   0  0  0  0  0  0  0  0  0  0  0  0
  146.7670   74.1340  218.4670 H   0  0  0  0  0  0  0  0  0  0  0  0
  147.0302   72.7189  220.7264 H   0  0  0  0  0  0  0  0  0  0  0  0
  146.4688   74.4521  220.5764 H   0  0  0  0  0  0  0  0  0  0  0  0
  144.8227   71.9466  220.8874 H   0  0  0  0  0  0  0  0  0  0  0  0
  144.9056   73.4362  221.9322 H   0  0  0  0  0  0  0  0  0  0  0  0
  140.7468   77.0917  224.0809 H   0  0  0  0  0  0  0  0  0  0  0  0
  142.2121   77.1365  223.0436 H   0  0  0  0  0  0  0  0  0  0  0  0
  1  2  2  0
  2  3  1  0
  3  4  2  0
  4  5  1  0
  5  6  2  0
  5  7  1  0
  7  8  1  0
  8  9  1  0
  9 10  1  0
 10 11  2  0
 11 12  1  0
 12 13  1  0
 13 14  1  0
 14 15  1  0
 15 16  1  0
 16 17  1  0
 17 18  1  0
 18 19  1  0
 19 20  1  0
 20 21  1  0
 12 22  2  0
 22 23  1  0
 23 24  1  0
 24 25  1  0
 25 26  1  0
 26 27  1  0
 27 28  1  0
 28 29  1  0
 23 30  2  0
  9 31  1  0
  6  1  1  0
 30 10  1  0
 31  4  1  0
 21 16  1  0
 29 24  1  0
  1 32  1  0
  2 33  1  0
  3 34  1  0
  6 35  1  0
  7 36  1  0
  7 37  1  0
  8 38  1  0
  8 39  1  0
 13 40  1  0
 14 41  1  0
 14 42  1  0
 15 43  1  0
 15 44  1  0
 16 45  1  1
 17 46  1  0
 17 47  1  0
 18 48  1  0
 18 49  1  0
 19 50  1  0
 19 51  1  0
 20 52  1  0
 20 53  1  0
 21 54  1  0
 25 55  1  0
 25 56  1  0
 26 57  1  0
 26 58  1  0
 27 59  1  0
 28 60  1  0
 28 61  1  0
 29 62  1  0
 29 63  1  0
 31 64  1  0
 31 65  1  0
M  END
>  <smiles>  (27) 
c1ccc2c(c1)CCN(c1nc(NCCC3CCCCN3)nc(N3CCNCC3)n1)C2

>  <score_type>  (27) 
oracle

>  <origin>  (27) 
autodockgpu

>  <m_score__min__energy>  (27) 
-10.199999999999999

>  <m_primary>  (27) 
energy

>  <rmsd>  (27) 
4.728758666247834

>  <m_score__min__rmsd>  (27) 
4.728758666247834

>  <meeko>  (27) 
{"free_energy": -9.58, "intermolecular_energy": -11.37, "internal_energy": -0.78, "cluster_size": 38, "cluster_id": 1, "rank_in_cluster": 22}

>  <energy>  (27) 
-9.3

>  <cluster_rmsd>  (27) 
1.39

>  <cluster>  (27) 
1

$$$$

     RDKit          3D

 65 69  0  0  0  0  0  0  0  0999 V2000
  140.9210   81.7210  222.6640 C   0  0  0  0  0  0  0  0  0  0  0  0
  142.1980   81.2030  222.8850 C   0  0  0  0  0  0  0  0  0  0  0  0
  142.3960   79.8410  223.0640 C   0  0  0  0  0  0  0  0  0  0  0  0
  141.3260   78.9720  223.0270 C   0  0  0  0  0  0  0  0  0  0  0  0
  140.0600   79.5050  222.8060 C   0  0  0  0  0  0  0  0  0  0  0  0
  139.8470   80.8550  222.6270 C   0  0  0  0  0  0  0  0  0  0  0  0
  138.9430   78.5050  222.7760 C   0  0  0  0  0  0  0  0  0  0  0  0
  139.3660   77.4840  221.7130 C   0  0  0  0  0  0  0  0  0  0  0  0
  140.5640   76.8430  222.2520 N   0  0  0  0  0  0  0  0  0  0  0  0
  140.8440   75.5180  221.7990 C   0  0  0  0  0  0  0  0  0  0  0  0
  139.9270   74.5680  221.9540 N   0  0  0  0  0  0  0  0  0  0  0  0
  140.1700   73.3090  221.5340 C   0  0  0  0  0  0  0  0  0  0  0  0
  139.1570   72.3240  221.7180 N   0  0  0  0  0  0  0  0  0  0  0  0
  138.8450   71.7640  223.0150 C   0  0  0  0  0  0  0  0  0  0  0  0
  140.1160   71.4690  223.7790 C   0  0  0  0  0  0  0  0  0  0  0  0
  139.7180   71.1580  225.2160 C   0  0  2  0  0  0  0  0  0  0  0  0
  140.9020   71.3770  226.0840 C   0  0  0  0  0  0  0  0  0  0  0  0
  141.1420   70.2790  227.0870 C   0  0  0  0  0  0  0  0  0  0  0  0
  141.0550   68.9630  226.3510 C   0  0  0  0  0  0  0  0  0  0  0  0
  139.6530   68.8140  225.8870 C   0  0  0  0  0  0  0  0  0  0  0  0
  139.0090   69.9460  225.3540 N   0  0  0  0  0  0  0  0  0  0  0  0
  141.3580   73.0610  220.9630 N   0  0  0  0  0  0  0  0  0  0  0  0
  142.3090   73.9950  220.7900 C   0  0  0  0  0  0  0  0  0  0  0  0
  143.5450   73.6620  220.1760 N   0  0  0  0  0  0  0  0  0  0  0  0
  143.8880   74.1400  218.8520 C   0  0  0  0  0  0  0  0  0  0  0  0
  144.7730   73.0470  218.2440 C   0  0  0  0  0  0  0  0  0  0  0  0
  146.0170   73.0830  218.9480 N   0  0  0  0  0  0  0  0  0  0  0  0
  145.9040   73.0290  220.3800 C   0  0  0  0  0  0  0  0  0  0  0  0
  144.4880   72.8350  220.8680 C   0  0  0  0  0  0  0  0  0  0  0  0
  142.0340   75.2430  221.2200 N   0  0  0  0  0  0  0  0  0  0  0  0
  141.4360   77.5150  223.2060 C   0  0  0  0  0  0  0  0  0  0  0  0
  140.7730   82.8017  222.5217 H   0  0  0  0  0  0  0  0  0  0  0  0
  143.0607   81.8846  222.9178 H   0  0  0  0  0  0  0  0  0  0  0  0
  143.4108   79.4531  223.2361 H   0  0  0  0  0  0  0  0  0  0  0  0
  138.8303   81.2386  222.4562 H   0  0  0  0  0  0  0  0  0  0  0  0
  138.8296   78.0200  223.7568 H   0  0  0  0  0  0  0  0  0  0  0  0
  137.9731   78.9699  222.5452 H   0  0  0  0  0  0  0  0  0  0  0  0
  138.5702   76.7416  221.5530 H   0  0  0  0  0  0  0  0  0  0  0  0
  139.5569   77.9594  220.7396 H   0  0  0  0  0  0  0  0  0  0  0  0
  138.6490   72.0280  220.8540 H   0  0  0  0  0  0  0  0  0  0  0  0
  138.2381   72.4834  223.5843 H   0  0  0  0  0  0  0  0  0  0  0  0
  138.2861   70.8269  222.8750 H   0  0  0  0  0  0  0  0  0  0  0  0
  140.6300   70.6038  223.3350 H   0  0  0  0  0  0  0  0  0  0  0  0
  140.8015   72.3285  223.7418 H   0  0  0  0  0  0  0  0  0  0  0  0
  138.9499   71.8583  225.5761 H   0  0  0  0  0  0  0  0  0  0  0  0
  141.7910   71.4579  225.4413 H   0  0  0  0  0  0  0  0  0  0  0  0
  140.7079   72.2944  226.6590 H   0  0  0  0  0  0  0  0  0  0  0  0
  142.1396   70.3925  227.5363 H   0  0  0  0  0  0  0  0  0  0  0  0
  140.3949   70.3215  227.8933 H   0  0  0  0  0  0  0  0  0  0  0  0
  141.7391   68.9665  225.4896 H   0  0  0  0  0  0  0  0  0  0  0  0
  141.3409   68.1278  227.0073 H   0  0  0  0  0  0  0  0  0  0  0  0
  139.6472   68.0375  225.1079 H   0  0  0  0  0  0  0  0  0  0  0  0
  139.0854   68.5796  226.7996 H   0  0  0  0  0  0  0  0  0  0  0  0
  138.4940   69.7710  224.4610 H   0  0  0  0  0  0  0  0  0  0  0  0
  142.9806   74.2821  218.2466 H   0  0  0  0  0  0  0  0  0  0  0  0
  144.4025   75.1116  218.8874 H   0  0  0  0  0  0  0  0  0  0  0  0
  144.2971   72.0629  218.3663 H   0  0  0  0  0  0  0  0  0  0  0  0
  144.9239   73.2150  217.1674 H   0  0  0  0  0  0  0  0  0  0  0  0
  146.6210   73.8580  218.6500 H   0  0  0  0  0  0  0  0  0  0  0  0
  146.5157   72.1911  220.7457 H   0  0  0  0  0  0  0  0  0  0  0  0
  146.2486   73.9991  220.7675 H   0  0  0  0  0  0  0  0  0  0  0  0
  144.2066   71.7819  220.7208 H   0  0  0  0  0  0  0  0  0  0  0  0
  144.4615   73.1194  221.9303 H   0  0  0  0  0  0  0  0  0  0  0  0
  141.1354   77.2473  224.2297 H   0  0  0  0  0  0  0  0  0  0  0  0
  142.4767   77.2016  223.0365 H   0  0  0  0  0  0  0  0  0  0  0  0
  1  2  2  0
  2  3  1  0
  3  4  2  0
  4  5  1  0
  5  6  2  0
  5  7  1  0
  7  8  1  0
  8  9  1  0
  9 10  1  0
 10 11  2  0
 11 12  1  0
 12 13  1  0
 13 14  1  0
 14 15  1  0
 15 16  1  0
 16 17  1  0
 17 18  1  0
 18 19  1  0
 19 20  1  0
 20 21  1  0
 12 22  2  0
 22 23  1  0
 23 24  1  0
 24 25  1  0
 25 26  1  0
 26 27  1  0
 27 28  1  0
 28 29  1  0
 23 30  2  0
  9 31  1  0
  6  1  1  0
 30 10  1  0
 31  4  1  0
 21 16  1  0
 29 24  1  0
  1 32  1  0
  2 33  1  0
  3 34  1  0
  6 35  1  0
  7 36  1  0
  7 37  1  0
  8 38  1  0
  8 39  1  0
 13 40  1  0
 14 41  1  0
 14 42  1  0
 15 43  1  0
 15 44  1  0
 16 45  1  1
 17 46  1  0
 17 47  1  0
 18 48  1  0
 18 49  1  0
 19 50  1  0
 19 51  1  0
 20 52  1  0
 20 53  1  0
 21 54  1  0
 25 55  1  0
 25 56  1  0
 26 57  1  0
 26 58  1  0
 27 59  1  0
 28 60  1  0
 28 61  1  0
 29 62  1  0
 29 63  1  0
 31 64  1  0
 31 65  1  0
M  END
>  <smiles>  (28) 
c1ccc2c(c1)CCN(c1nc(NCCC3CCCCN3)nc(N3CCNCC3)n1)C2

>  <score_type>  (28) 
oracle

>  <origin>  (28) 
autodockgpu

>  <m_score__min__energy>  (28) 
-10.199999999999999

>  <m_primary>  (28) 
energy

>  <rmsd>  (28) 
5.125835142843949

>  <m_score__min__rmsd>  (28) 
5.125835142843949

>  <meeko>  (28) 
{"free_energy": -9.44, "intermolecular_energy": -11.23, "internal_energy": -0.89, "cluster_size": 38, "cluster_id": 1, "rank_in_cluster": 25}

>  <energy>  (28) 
-9.29

>  <cluster_rmsd>  (28) 
1.68

>  <cluster>  (28) 
1

$$$$

     RDKit          3D

 65 69  0  0  0  0  0  0  0  0999 V2000
  140.6210   81.5920  222.7070 C   0  0  0  0  0  0  0  0  0  0  0  0
  141.9390   81.1570  222.8450 C   0  0  0  0  0  0  0  0  0  0  0  0
  142.2360   79.8080  222.9880 C   0  0  0  0  0  0  0  0  0  0  0  0
  141.2250   78.8710  222.9960 C   0  0  0  0  0  0  0  0  0  0  0  0
  139.9160   79.3220  222.8570 C   0  0  0  0  0  0  0  0  0  0  0  0
  139.6050   80.6570  222.7150 C   0  0  0  0  0  0  0  0  0  0  0  0
  138.8660   78.2500  222.8730 C   0  0  0  0  0  0  0  0  0  0  0  0
  139.2930   77.2750  221.7690 C   0  0  0  0  0  0  0  0  0  0  0  0
  140.5600   76.7070  222.2270 N   0  0  0  0  0  0  0  0  0  0  0  0
  140.8990   75.4110  221.7350 C   0  0  0  0  0  0  0  0  0  0  0  0
  139.9890   74.4420  221.7670 N   0  0  0  0  0  0  0  0  0  0  0  0
  140.2880   73.2090  221.3070 C   0  0  0  0  0  0  0  0  0  0  0  0
  139.2800   72.2020  221.3590 N   0  0  0  0  0  0  0  0  0  0  0  0
  138.9390   71.5080  222.5810 C   0  0  0  0  0  0  0  0  0  0  0  0
  140.1760   71.2800  223.4200 C   0  0  0  0  0  0  0  0  0  0  0  0
  139.7220   71.1320  224.8660 C   0  0  2  0  0  0  0  0  0  0  0  0
  140.8630   71.4830  225.7490 C   0  0  0  0  0  0  0  0  0  0  0  0
  141.0810   70.5200  226.8850 C   0  0  0  0  0  0  0  0  0  0  0  0
  141.0520   69.1240  226.3110 C   0  0  0  0  0  0  0  0  0  0  0  0
  139.6760   68.8850  225.8110 C   0  0  0  0  0  0  0  0  0  0  0  0
  139.0330   69.9280  225.1200 N   0  0  0  0  0  0  0  0  0  0  0  0
  141.5220   73.0050  220.8250 N   0  0  0  0  0  0  0  0  0  0  0  0
  142.4670   73.9600  220.7770 C   0  0  0  0  0  0  0  0  0  0  0  0
  143.7550   73.6740  220.2510 N   0  0  0  0  0  0  0  0  0  0  0  0
  144.0930   73.9620  218.8720 C   0  0  0  0  0  0  0  0  0  0  0  0
  145.1170   72.8930  218.4750 C   0  0  0  0  0  0  0  0  0  0  0  0
  146.3210   73.1890  219.1860 N   0  0  0  0  0  0  0  0  0  0  0  0
  146.1610   73.3610  220.6040 C   0  0  0  0  0  0  0  0  0  0  0  0
  144.7580   73.0890  221.0910 C   0  0  0  0  0  0  0  0  0  0  0  0
  142.1370   75.1810  221.2430 N   0  0  0  0  0  0  0  0  0  0  0  0
  141.4400   77.4210  223.1410 C   0  0  0  0  0  0  0  0  0  0  0  0
  140.3946   82.6625  222.5936 H   0  0  0  0  0  0  0  0  0  0  0  0
  142.7557   81.8938  222.8405 H   0  0  0  0  0  0  0  0  0  0  0  0
  143.2823   79.4858  223.0953 H   0  0  0  0  0  0  0  0  0  0  0  0
  138.5572   80.9747  222.6090 H   0  0  0  0  0  0  0  0  0  0  0  0
  138.8418   77.7445  223.8497 H   0  0  0  0  0  0  0  0  0  0  0  0
  137.8559   78.6525  222.7068 H   0  0  0  0  0  0  0  0  0  0  0  0
  138.5397   76.4838  221.6408 H   0  0  0  0  0  0  0  0  0  0  0  0
  139.3957   77.7764  220.7953 H   0  0  0  0  0  0  0  0  0  0  0  0
  138.7990   71.9940  220.4550 H   0  0  0  0  0  0  0  0  0  0  0  0
  138.2196   72.1127  223.1527 H   0  0  0  0  0  0  0  0  0  0  0  0
  138.4957   70.5340  222.3265 H   0  0  0  0  0  0  0  0  0  0  0  0
  140.6902   70.3648  223.0914 H   0  0  0  0  0  0  0  0  0  0  0  0
  140.8772   72.1212  223.3163 H   0  0  0  0  0  0  0  0  0  0  0  0
  138.9243   71.8499  225.1072 H   0  0  0  0  0  0  0  0  0  0  0  0
  141.7773   71.5087  225.1379 H   0  0  0  0  0  0  0  0  0  0  0  0
  140.6258   72.4575  226.2008 H   0  0  0  0  0  0  0  0  0  0  0  0
  142.0559   70.7113  227.3573 H   0  0  0  0  0  0  0  0  0  0  0  0
  140.2989   70.6401  227.6491 H   0  0  0  0  0  0  0  0  0  0  0  0
  141.7732   69.0410  225.4846 H   0  0  0  0  0  0  0  0  0  0  0  0
  141.3248   68.3813  227.0752 H   0  0  0  0  0  0  0  0  0  0  0  0
  139.7206   68.0213  225.1313 H   0  0  0  0  0  0  0  0  0  0  0  0
  139.0737   68.7467  226.7210 H   0  0  0  0  0  0  0  0  0  0  0  0
  138.5610   69.6340  224.2340 H   0  0  0  0  0  0  0  0  0  0  0  0
  143.1993   73.8952  218.2342 H   0  0  0  0  0  0  0  0  0  0  0  0
  144.4944   74.9791  218.7519 H   0  0  0  0  0  0  0  0  0  0  0  0
  144.7489   71.8944  218.7531 H   0  0  0  0  0  0  0  0  0  0  0  0
  145.2896   72.8964  217.3886 H   0  0  0  0  0  0  0  0  0  0  0  0
  146.8460   73.9680  218.7720 H   0  0  0  0  0  0  0  0  0  0  0  0
  146.8472   72.6716  221.1176 H   0  0  0  0  0  0  0  0  0  0  0  0
  146.3818   74.4150  220.8282 H   0  0  0  0  0  0  0  0  0  0  0  0
  144.6009   72.0007  221.1201 H   0  0  0  0  0  0  0  0  0  0  0  0
  144.6601   73.5424  222.0884 H   0  0  0  0  0  0  0  0  0  0  0  0
  141.2180   77.1188  224.1751 H   0  0  0  0  0  0  0  0  0  0  0  0
  142.4872   77.1799  222.9058 H   0  0  0  0  0  0  0  0  0  0  0  0
  1  2  2  0
  2  3  1  0
  3  4  2  0
  4  5  1  0
  5  6  2  0
  5  7  1  0
  7  8  1  0
  8  9  1  0
  9 10  1  0
 10 11  2  0
 11 12  1  0
 12 13  1  0
 13 14  1  0
 14 15  1  0
 15 16  1  0
 16 17  1  0
 17 18  1  0
 18 19  1  0
 19 20  1  0
 20 21  1  0
 12 22  2  0
 22 23  1  0
 23 24  1  0
 24 25  1  0
 25 26  1  0
 26 27  1  0
 27 28  1  0
 28 29  1  0
 23 30  2  0
  9 31  1  0
  6  1  1  0
 30 10  1  0
 31  4  1  0
 21 16  1  0
 29 24  1  0
  1 32  1  0
  2 33  1  0
  3 34  1  0
  6 35  1  0
  7 36  1  0
  7 37  1  0
  8 38  1  0
  8 39  1  0
 13 40  1  0
 14 41  1  0
 14 42  1  0
 15 43  1  0
 15 44  1  0
 16 45  1  1
 17 46  1  0
 17 47  1  0
 18 48  1  0
 18 49  1  0
 19 50  1  0
 19 51  1  0
 20 52  1  0
 20 53  1  0
 21 54  1  0
 25 55  1  0
 25 56  1  0
 26 57  1  0
 26 58  1  0
 27 59  1  0
 28 60  1  0
 28 61  1  0
 29 62  1  0
 29 63  1  0
 31 64  1  0
 31 65  1  0
M  END
>  <smiles>  (29) 
c1ccc2c(c1)CCN(c1nc(NCCC3CCCCN3)nc(N3CCNCC3)n1)C2

>  <score_type>  (29) 
oracle

>  <origin>  (29) 
autodockgpu

>  <m_score__min__energy>  (29) 
-10.199999999999999

>  <m_primary>  (29) 
energy

>  <rmsd>  (29) 
5.063643477198545

>  <m_score__min__rmsd>  (29) 
5.063643477198545

>  <meeko>  (29) 
{"free_energy": -9.11, "intermolecular_energy": -10.9, "internal_energy": -0.94, "cluster_size": 38, "cluster_id": 1, "rank_in_cluster": 34}

>  <energy>  (29) 
-9.24

>  <cluster_rmsd>  (29) 
1.32

>  <cluster>  (29) 
1

$$$$

     RDKit          3D

 65 69  0  0  0  0  0  0  0  0999 V2000
  140.4420   81.6070  222.2580 C   0  0  0  0  0  0  0  0  0  0  0  0
  141.7600   81.2390  222.5250 C   0  0  0  0  0  0  0  0  0  0  0  0
  142.0920   79.9200  222.8050 C   0  0  0  0  0  0  0  0  0  0  0  0
  141.1160   78.9470  222.8240 C   0  0  0  0  0  0  0  0  0  0  0  0
  139.8060   79.3320  222.5570 C   0  0  0  0  0  0  0  0  0  0  0  0
  139.4610   80.6360  222.2770 C   0  0  0  0  0  0  0  0  0  0  0  0
  138.7950   78.2240  222.5930 C   0  0  0  0  0  0  0  0  0  0  0  0
  139.3340   77.1770  221.6110 C   0  0  0  0  0  0  0  0  0  0  0  0
  140.5830   76.7010  222.2030 N   0  0  0  0  0  0  0  0  0  0  0  0
  141.0010   75.3820  221.8510 C   0  0  0  0  0  0  0  0  0  0  0  0
  140.2280   74.3460  222.1660 N   0  0  0  0  0  0  0  0  0  0  0  0
  140.6040   73.0920  221.8430 C   0  0  0  0  0  0  0  0  0  0  0  0
  139.7430   72.0130  222.1980 N   0  0  0  0  0  0  0  0  0  0  0  0
  140.0510   71.0970  223.2760 C   0  0  0  0  0  0  0  0  0  0  0  0
  140.0370   71.8220  224.6020 C   0  0  0  0  0  0  0  0  0  0  0  0
  141.0380   71.1220  225.5120 C   0  0  2  0  0  0  0  0  0  0  0  0
  140.5580   69.7380  225.7510 C   0  0  0  0  0  0  0  0  0  0  0  0
  140.6310   69.3020  227.1910 C   0  0  0  0  0  0  0  0  0  0  0  0
  140.0260   70.4010  228.0310 C   0  0  0  0  0  0  0  0  0  0  0  0
  140.9100   71.5860  227.9020 C   0  0  0  0  0  0  0  0  0  0  0  0
  141.4220   71.8940  226.6280 N   0  0  0  0  0  0  0  0  0  0  0  0
  141.7710   72.9350  221.2010 N   0  0  0  0  0  0  0  0  0  0  0  0
  142.5770   73.9570  220.8670 C   0  0  0  0  0  0  0  0  0  0  0  0
  143.8000   73.7190  220.1860 N   0  0  0  0  0  0  0  0  0  0  0  0
  143.9840   74.1010  218.8000 C   0  0  0  0  0  0  0  0  0  0  0  0
  144.9600   73.0700  218.2230 C   0  0  0  0  0  0  0  0  0  0  0  0
  146.2350   73.3290  218.8160 N   0  0  0  0  0  0  0  0  0  0  0  0
  146.2300   73.4050  220.2510 C   0  0  0  0  0  0  0  0  0  0  0  0
  144.8900   73.0880  220.8700 C   0  0  0  0  0  0  0  0  0  0  0  0
  142.1730   75.1990  221.2030 N   0  0  0  0  0  0  0  0  0  0  0  0
  141.3690   77.5250  223.1110 C   0  0  0  0  0  0  0  0  0  0  0  0
  140.1880   82.6540  222.0358 H   0  0  0  0  0  0  0  0  0  0  0  0
  142.5491   82.0053  222.5137 H   0  0  0  0  0  0  0  0  0  0  0  0
  143.1381   79.6506  223.0124 H   0  0  0  0  0  0  0  0  0  0  0  0
  138.4136   80.9010  222.0705 H   0  0  0  0  0  0  0  0  0  0  0  0
  138.7167   77.8024  223.6060 H   0  0  0  0  0  0  0  0  0  0  0  0
  137.7867   78.5702  222.3220 H   0  0  0  0  0  0  0  0  0  0  0  0
  138.6193   76.3481  221.5006 H   0  0  0  0  0  0  0  0  0  0  0  0
  139.4901   77.5981  220.6068 H   0  0  0  0  0  0  0  0  0  0  0  0
  138.8710   71.9210  221.6300 H   0  0  0  0  0  0  0  0  0  0  0  0
  139.3005   70.2930  223.2943 H   0  0  0  0  0  0  0  0  0  0  0  0
  141.0529   70.6743  223.1104 H   0  0  0  0  0  0  0  0  0  0  0  0
  140.3289   72.8729  224.4594 H   0  0  0  0  0  0  0  0  0  0  0  0
  139.0301   71.8046  225.0446 H   0  0  0  0  0  0  0  0  0  0  0  0
  142.0171   71.0190  225.0213 H   0  0  0  0  0  0  0  0  0  0  0  0
  139.5098   69.6745  225.4235 H   0  0  0  0  0  0  0  0  0  0  0  0
  141.2217   69.0695  225.1831 H   0  0  0  0  0  0  0  0  0  0  0  0
  140.0651   68.3690  227.3297 H   0  0  0  0  0  0  0  0  0  0  0  0
  141.6744   69.1188  227.4871 H   0  0  0  0  0  0  0  0  0  0  0  0
  139.0164   70.6420  227.6667 H   0  0  0  0  0  0  0  0  0  0  0  0
  139.9412   70.0885  229.0823 H   0  0  0  0  0  0  0  0  0  0  0  0
  140.3367   72.4603  228.2440 H   0  0  0  0  0  0  0  0  0  0  0  0
  141.7976   71.3324  228.5002 H   0  0  0  0  0  0  0  0  0  0  0  0
  141.3460   72.9020  226.3630 H   0  0  0  0  0  0  0  0  0  0  0  0
  143.0258   74.0684  218.2608 H   0  0  0  0  0  0  0  0  0  0  0  0
  144.3678   75.1275  218.7048 H   0  0  0  0  0  0  0  0  0  0  0  0
  144.6264   72.0520  218.4726 H   0  0  0  0  0  0  0  0  0  0  0  0
  145.0122   73.1470  217.1270 H   0  0  0  0  0  0  0  0  0  0  0  0
  146.7100   74.1380  218.4010 H   0  0  0  0  0  0  0  0  0  0  0  0
  146.9700   72.6898  220.6394 H   0  0  0  0  0  0  0  0  0  0  0  0
  146.4706   74.4443  220.5191 H   0  0  0  0  0  0  0  0  0  0  0  0
  144.7389   71.9988  220.8427 H   0  0  0  0  0  0  0  0  0  0  0  0
  144.9016   73.4722  221.9007 H   0  0  0  0  0  0  0  0  0  0  0  0
  141.0817   77.3034  224.1494 H   0  0  0  0  0  0  0  0  0  0  0  0
  142.4383   77.3068  222.9728 H   0  0  0  0  0  0  0  0  0  0  0  0
  1  2  2  0
  2  3  1  0
  3  4  2  0
  4  5  1  0
  5  6  2  0
  5  7  1  0
  7  8  1  0
  8  9  1  0
  9 10  1  0
 10 11  2  0
 11 12  1  0
 12 13  1  0
 13 14  1  0
 14 15  1  0
 15 16  1  0
 16 17  1  0
 17 18  1  0
 18 19  1  0
 19 20  1  0
 20 21  1  0
 12 22  2  0
 22 23  1  0
 23 24  1  0
 24 25  1  0
 25 26  1  0
 26 27  1  0
 27 28  1  0
 28 29  1  0
 23 30  2  0
  9 31  1  0
  6  1  1  0
 30 10  1  0
 31  4  1  0
 21 16  1  0
 29 24  1  0
  1 32  1  0
  2 33  1  0
  3 34  1  0
  6 35  1  0
  7 36  1  0
  7 37  1  0
  8 38  1  0
  8 39  1  0
 13 40  1  0
 14 41  1  0
 14 42  1  0
 15 43  1  0
 15 44  1  0
 16 45  1  6
 17 46  1  0
 17 47  1  0
 18 48  1  0
 18 49  1  0
 19 50  1  0
 19 51  1  0
 20 52  1  0
 20 53  1  0
 21 54  1  0
 25 55  1  0
 25 56  1  0
 26 57  1  0
 26 58  1  0
 27 59  1  0
 28 60  1  0
 28 61  1  0
 29 62  1  0
 29 63  1  0
 31 64  1  0
 31 65  1  0
M  END
>  <smiles>  (30) 
c1ccc2c(c1)CCN(c1nc(NCCC3CCCCN3)nc(N3CCNCC3)n1)C2

>  <score_type>  (30) 
oracle

>  <origin>  (30) 
autodockgpu

>  <m_score__min__energy>  (30) 
-10.199999999999999

>  <m_primary>  (30) 
energy

>  <rmsd>  (30) 
4.8424629653418085

>  <m_score__min__rmsd>  (30) 
4.8424629653418085

>  <meeko>  (30) 
{"free_energy": -9.81, "intermolecular_energy": -11.6, "internal_energy": -0.86, "cluster_size": 38, "cluster_id": 1, "rank_in_cluster": 11}

>  <energy>  (30) 
-9.21

>  <cluster_rmsd>  (30) 
1.45

>  <cluster>  (30) 
1

$$$$

     RDKit          3D

 65 69  0  0  0  0  0  0  0  0999 V2000
  142.0280   80.9040  222.6230 C   0  0  0  0  0  0  0  0  0  0  0  0
  141.9840   80.2100  223.8320 C   0  0  0  0  0  0  0  0  0  0  0  0
  141.5140   78.9040  223.8900 C   0  0  0  0  0  0  0  0  0  0  0  0
  141.0810   78.2700  222.7460 C   0  0  0  0  0  0  0  0  0  0  0  0
  141.1310   78.9770  221.5490 C   0  0  0  0  0  0  0  0  0  0  0  0
  141.5940   80.2730  221.4750 C   0  0  0  0  0  0  0  0  0  0  0  0
  140.6460   78.2280  220.3430 C   0  0  0  0  0  0  0  0  0  0  0  0
  141.4820   76.9420  220.3260 C   0  0  0  0  0  0  0  0  0  0  0  0
  141.0900   76.2120  221.5290 N   0  0  0  0  0  0  0  0  0  0  0  0
  141.2430   74.7930  221.4990 C   0  0  0  0  0  0  0  0  0  0  0  0
  140.3210   74.0250  222.0730 N   0  0  0  0  0  0  0  0  0  0  0  0
  140.4450   72.6810  222.0560 C   0  0  0  0  0  0  0  0  0  0  0  0
  139.4320   71.8980  222.6810 N   0  0  0  0  0  0  0  0  0  0  0  0
  139.4990   71.5100  224.0730 C   0  0  0  0  0  0  0  0  0  0  0  0
  139.9780   70.0810  224.1980 C   0  0  0  0  0  0  0  0  0  0  0  0
  139.2900   69.4770  225.4150 C   0  0  2  0  0  0  0  0  0  0  0  0
  139.8690   70.0990  226.6320 C   0  0  0  0  0  0  0  0  0  0  0  0
  140.2080   69.1180  227.7240 C   0  0  0  0  0  0  0  0  0  0  0  0
  140.9770   67.9820  227.0920 C   0  0  0  0  0  0  0  0  0  0  0  0
  140.0470   67.2850  226.1690 C   0  0  0  0  0  0  0  0  0  0  0  0
  139.1960   68.0700  225.3690 N   0  0  0  0  0  0  0  0  0  0  0  0
  141.5210   72.1620  221.4480 N   0  0  0  0  0  0  0  0  0  0  0  0
  142.4720   72.9060  220.8580 C   0  0  0  0  0  0  0  0  0  0  0  0
  143.5860   72.2880  220.2300 N   0  0  0  0  0  0  0  0  0  0  0  0
  144.9200   72.8410  220.3350 C   0  0  0  0  0  0  0  0  0  0  0  0
  145.6180   72.4680  219.0230 C   0  0  0  0  0  0  0  0  0  0  0  0
  145.8350   71.0550  219.0570 N   0  0  0  0  0  0  0  0  0  0  0  0
  144.6680   70.2710  219.3540 C   0  0  0  0  0  0  0  0  0  0  0  0
  143.4030   71.0870  219.4700 C   0  0  0  0  0  0  0  0  0  0  0  0
  142.3190   74.2450  220.8910 N   0  0  0  0  0  0  0  0  0  0  0  0
  140.5670   76.8900  222.7070 C   0  0  0  0  0  0  0  0  0  0  0  0
  142.4026   81.9376  222.5852 H   0  0  0  0  0  0  0  0  0  0  0  0
  142.3265   80.7041  224.7532 H   0  0  0  0  0  0  0  0  0  0  0  0
  141.4875   78.3738  224.8534 H   0  0  0  0  0  0  0  0  0  0  0  0
  141.6174   80.7997  220.5096 H   0  0  0  0  0  0  0  0  0  0  0  0
  139.5751   77.9941  220.4355 H   0  0  0  0  0  0  0  0  0  0  0  0
  140.7571   78.8108  219.4167 H   0  0  0  0  0  0  0  0  0  0  0  0
  141.2596   76.3497  219.4262 H   0  0  0  0  0  0  0  0  0  0  0  0
  142.5612   77.1544  220.3084 H   0  0  0  0  0  0  0  0  0  0  0  0
  138.6320   71.6190  222.0700 H   0  0  0  0  0  0  0  0  0  0  0  0
  140.1983   72.1745  224.6015 H   0  0  0  0  0  0  0  0  0  0  0  0
  138.4950   71.5904  224.5152 H   0  0  0  0  0  0  0  0  0  0  0  0
  139.7103   69.5139  223.2943 H   0  0  0  0  0  0  0  0  0  0  0  0
  141.0715   70.0456  224.3116 H   0  0  0  0  0  0  0  0  0  0  0  0
  138.2191   69.7278  225.4313 H   0  0  0  0  0  0  0  0  0  0  0  0
  140.7899   70.6275  226.3447 H   0  0  0  0  0  0  0  0  0  0  0  0
  139.1009   70.7729  227.0391 H   0  0  0  0  0  0  0  0  0  0  0  0
  140.8254   69.6085  228.4909 H   0  0  0  0  0  0  0  0  0  0  0  0
  139.2928   68.7446  228.2068 H   0  0  0  0  0  0  0  0  0  0  0  0
  141.8391   68.3750  226.5331 H   0  0  0  0  0  0  0  0  0  0  0  0
  141.3568   67.2918  227.8597 H   0  0  0  0  0  0  0  0  0  0  0  0
  140.6583   66.6711  225.4912 H   0  0  0  0  0  0  0  0  0  0  0  0
  139.3660   66.7317  226.8324 H   0  0  0  0  0  0  0  0  0  0  0  0
  139.1600   67.7830  224.3650 H   0  0  0  0  0  0  0  0  0  0  0  0
  144.8758   73.9340  220.4505 H   0  0  0  0  0  0  0  0  0  0  0  0
  145.4580   72.4494  221.2109 H   0  0  0  0  0  0  0  0  0  0  0  0
  144.9805   72.7326  218.1665 H   0  0  0  0  0  0  0  0  0  0  0  0
  146.5686   73.0106  218.9138 H   0  0  0  0  0  0  0  0  0  0  0  0
  146.6270   70.7880  219.6530 H   0  0  0  0  0  0  0  0  0  0  0  0
  144.5323   69.5319  218.5507 H   0  0  0  0  0  0  0  0  0  0  0  0
  144.8377   69.7995  220.3332 H   0  0  0  0  0  0  0  0  0  0  0  0
  143.0658   71.3586  218.4588 H   0  0  0  0  0  0  0  0  0  0  0  0
  142.6584   70.4717  219.9962 H   0  0  0  0  0  0  0  0  0  0  0  0
  139.4681   76.9088  222.6619 H   0  0  0  0  0  0  0  0  0  0  0  0
  140.8869   76.3531  223.6122 H   0  0  0  0  0  0  0  0  0  0  0  0
  1  2  2  0
  2  3  1  0
  3  4  2  0
  4  5  1  0
  5  6  2  0
  5  7  1  0
  7  8  1  0
  8  9  1  0
  9 10  1  0
 10 11  2  0
 11 12  1  0
 12 13  1  0
 13 14  1  0
 14 15  1  0
 15 16  1  0
 16 17  1  0
 17 18  1  0
 18 19  1  0
 19 20  1  0
 20 21  1  0
 12 22  2  0
 22 23  1  0
 23 24  1  0
 24 25  1  0
 25 26  1  0
 26 27  1  0
 27 28  1  0
 28 29  1  0
 23 30  2  0
  9 31  1  0
  6  1  1  0
 30 10  1  0
 31  4  1  0
 21 16  1  0
 29 24  1  0
  1 32  1  0
  2 33  1  0
  3 34  1  0
  6 35  1  0
  7 36  1  0
  7 37  1  0
  8 38  1  0
  8 39  1  0
 13 40  1  0
 14 41  1  0
 14 42  1  0
 15 43  1  0
 15 44  1  0
 16 45  1  6
 17 46  1  0
 17 47  1  0
 18 48  1  0
 18 49  1  0
 19 50  1  0
 19 51  1  0
 20 52  1  0
 20 53  1  0
 21 54  1  0
 25 55  1  0
 25 56  1  0
 26 57  1  0
 26 58  1  0
 27 59  1  0
 28 60  1  0
 28 61  1  0
 29 62  1  0
 29 63  1  0
 31 64  1  0
 31 65  1  0
M  END
>  <smiles>  (31) 
c1ccc2c(c1)CCN(c1nc(NCCC3CCCCN3)nc(N3CCNCC3)n1)C2

>  <score_type>  (31) 
oracle

>  <origin>  (31) 
autodockgpu

>  <m_score__min__energy>  (31) 
-10.199999999999999

>  <m_primary>  (31) 
energy

>  <rmsd>  (31) 
4.902485234369966

>  <m_score__min__rmsd>  (31) 
4.902485234369966

>  <meeko>  (31) 
{"free_energy": -9.19, "intermolecular_energy": -10.98, "internal_energy": -0.77, "cluster_size": 38, "cluster_id": 1, "rank_in_cluster": 31}

>  <energy>  (31) 
-9.19

>  <cluster_rmsd>  (31) 
1.43

>  <cluster>  (31) 
1

$$$$

     RDKit          3D

 65 69  0  0  0  0  0  0  0  0999 V2000
  140.7380   68.2490  227.9760 C   0  0  0  0  0  0  0  0  0  0  0  0
  141.0540   69.6030  228.0880 C   0  0  0  0  0  0  0  0  0  0  0  0
  140.7650   70.4920  227.0620 C   0  0  0  0  0  0  0  0  0  0  0  0
  140.1570   70.0470  225.9080 C   0  0  0  0  0  0  0  0  0  0  0  0
  139.8490   68.6940  225.8120 C   0  0  0  0  0  0  0  0  0  0  0  0
  140.1300   67.7990  226.8210 C   0  0  0  0  0  0  0  0  0  0  0  0
  139.1890   68.2780  224.5300 C   0  0  0  0  0  0  0  0  0  0  0  0
  137.9620   69.1900  224.4150 C   0  0  0  0  0  0  0  0  0  0  0  0
  138.4990   70.5400  224.2570 N   0  0  0  0  0  0  0  0  0  0  0  0
  137.6750   71.4850  223.5740 C   0  0  0  0  0  0  0  0  0  0  0  0
  137.9180   71.7600  222.2960 N   0  0  0  0  0  0  0  0  0  0  0  0
  137.1520   72.6500  221.6320 C   0  0  0  0  0  0  0  0  0  0  0  0
  137.4480   72.9120  220.2630 N   0  0  0  0  0  0  0  0  0  0  0  0
  138.1810   74.0850  219.8380 C   0  0  0  0  0  0  0  0  0  0  0  0
  138.1430   75.1470  220.9130 C   0  0  0  0  0  0  0  0  0  0  0  0
  139.5100   75.1620  221.5840 C   0  0  2  0  0  0  0  0  0  0  0  0
  140.5220   75.5450  220.5690 C   0  0  0  0  0  0  0  0  0  0  0  0
  141.7610   74.6880  220.5800 C   0  0  0  0  0  0  0  0  0  0  0  0
  141.3150   73.2460  220.6050 C   0  0  0  0  0  0  0  0  0  0  0  0
  140.6330   73.0210  221.9040 C   0  0  0  0  0  0  0  0  0  0  0  0
  139.7610   74.0200  222.3740 N   0  0  0  0  0  0  0  0  0  0  0  0
  136.1510   73.2360  222.3050 N   0  0  0  0  0  0  0  0  0  0  0  0
  135.8760   72.9840  223.5960 C   0  0  0  0  0  0  0  0  0  0  0  0
  134.7980   73.6410  224.2460 N   0  0  0  0  0  0  0  0  0  0  0  0
  134.7840   75.0780  224.4290 C   0  0  0  0  0  0  0  0  0  0  0  0
  134.0140   75.3120  225.7330 C   0  0  0  0  0  0  0  0  0  0  0  0
  132.6460   74.9930  225.4690 N   0  0  0  0  0  0  0  0  0  0  0  0
  132.4290   73.7030  224.8740 C   0  0  0  0  0  0  0  0  0  0  0  0
  133.6880   72.8800  224.7390 C   0  0  0  0  0  0  0  0  0  0  0  0
  136.6590   72.0890  224.2310 N   0  0  0  0  0  0  0  0  0  0  0  0
  139.8120   70.9120  224.7670 C   0  0  0  0  0  0  0  0  0  0  0  0
  140.9694   67.5513  228.7943 H   0  0  0  0  0  0  0  0  0  0  0  0
  141.5397   69.9719  229.0035 H   0  0  0  0  0  0  0  0  0  0  0  0
  141.0223   71.5560  227.1704 H   0  0  0  0  0  0  0  0  0  0  0  0
  139.8723   66.7357  226.7074 H   0  0  0  0  0  0  0  0  0  0  0  0
  139.8669   68.4292  223.6770 H   0  0  0  0  0  0  0  0  0  0  0  0
  138.9189   67.2117  224.5260 H   0  0  0  0  0  0  0  0  0  0  0  0
  137.3556   68.9117  223.5405 H   0  0  0  0  0  0  0  0  0  0  0  0
  137.3069   69.1094  225.2950 H   0  0  0  0  0  0  0  0  0  0  0  0
  137.1010   72.2020  219.5790 H   0  0  0  0  0  0  0  0  0  0  0  0
  139.2267   73.8070  219.6396 H   0  0  0  0  0  0  0  0  0  0  0  0
  137.7168   74.4847  218.9243 H   0  0  0  0  0  0  0  0  0  0  0  0
  137.9332   76.1292  220.4644 H   0  0  0  0  0  0  0  0  0  0  0  0
  137.3519   74.9307  221.6461 H   0  0  0  0  0  0  0  0  0  0  0  0
  139.5619   75.9362  222.3637 H   0  0  0  0  0  0  0  0  0  0  0  0
  140.0588   75.4694  219.5741 H   0  0  0  0  0  0  0  0  0  0  0  0
  140.8429   76.5686  220.8124 H   0  0  0  0  0  0  0  0  0  0  0  0
  142.3589   74.8806  219.6770 H   0  0  0  0  0  0  0  0  0  0  0  0
  142.3825   74.9166  221.4583 H   0  0  0  0  0  0  0  0  0  0  0  0
  140.6193   73.0521  219.7753 H   0  0  0  0  0  0  0  0  0  0  0  0
  142.1746   72.5690  220.4924 H   0  0  0  0  0  0  0  0  0  0  0  0
  140.0482   72.0941  221.8102 H   0  0  0  0  0  0  0  0  0  0  0  0
  141.4483   72.9986  222.6421 H   0  0  0  0  0  0  0  0  0  0  0  0
  138.8440   73.6630  222.7250 H   0  0  0  0  0  0  0  0  0  0  0  0
  135.8100   75.4658  224.5125 H   0  0  0  0  0  0  0  0  0  0  0  0
  134.3165   75.5953  223.5782 H   0  0  0  0  0  0  0  0  0  0  0  0
  134.4080   74.6609  226.5272 H   0  0  0  0  0  0  0  0  0  0  0  0
  134.1178   76.3537  226.0706 H   0  0  0  0  0  0  0  0  0  0  0  0
  132.1590   75.7310  224.9480 H   0  0  0  0  0  0  0  0  0  0  0  0
  131.7155   73.1469  225.4998 H   0  0  0  0  0  0  0  0  0  0  0  0
  132.0467   73.8769  223.8573 H   0  0  0  0  0  0  0  0  0  0  0  0
  133.9508   72.4747  225.7273 H   0  0  0  0  0  0  0  0  0  0  0  0
  133.4850   72.0804  224.0114 H   0  0  0  0  0  0  0  0  0  0  0  0
  140.5627   70.7883  223.9726 H   0  0  0  0  0  0  0  0  0  0  0  0
  139.7950   71.9621  225.0941 H   0  0  0  0  0  0  0  0  0  0  0  0
  1  2  2  0
  2  3  1  0
  3  4  2  0
  4  5  1  0
  5  6  2  0
  5  7  1  0
  7  8  1  0
  8  9  1  0
  9 10  1  0
 10 11  2  0
 11 12  1  0
 12 13  1  0
 13 14  1  0
 14 15  1  0
 15 16  1  0
 16 17  1  0
 17 18  1  0
 18 19  1  0
 19 20  1  0
 20 21  1  0
 12 22  2  0
 22 23  1  0
 23 24  1  0
 24 25  1  0
 25 26  1  0
 26 27  1  0
 27 28  1  0
 28 29  1  0
 23 30  2  0
  9 31  1  0
  6  1  1  0
 30 10  1  0
 31  4  1  0
 21 16  1  0
 29 24  1  0
  1 32  1  0
  2 33  1  0
  3 34  1  0
  6 35  1  0
  7 36  1  0
  7 37  1  0
  8 38  1  0
  8 39  1  0
 13 40  1  0
 14 41  1  0
 14 42  1  0
 15 43  1  0
 15 44  1  0
 16 45  1  1
 17 46  1  0
 17 47  1  0
 18 48  1  0
 18 49  1  0
 19 50  1  0
 19 51  1  0
 20 52  1  0
 20 53  1  0
 21 54  1  0
 25 55  1  0
 25 56  1  0
 26 57  1  0
 26 58  1  0
 27 59  1  0
 28 60  1  0
 28 61  1  0
 29 62  1  0
 29 63  1  0
 31 64  1  0
 31 65  1  0
M  END
>  <smiles>  (32) 
c1ccc2c(c1)CCN(c1nc(NCCC3CCCCN3)nc(N3CCNCC3)n1)C2

>  <score_type>  (32) 
oracle

>  <origin>  (32) 
autodockgpu

>  <m_score__min__energy>  (32) 
-10.199999999999999

>  <m_primary>  (32) 
energy

>  <rmsd>  (32) 
11.591880413977712

>  <m_score__min__rmsd>  (32) 
11.591880413977712

>  <meeko>  (32) 
{"free_energy": -7.0, "intermolecular_energy": -8.79, "internal_energy": -2.19, "cluster_size": 1, "cluster_id": 6, "rank_in_cluster": 1}

>  <energy>  (32) 
-9.18

>  <cluster_rmsd>  (32) 
1.58

>  <cluster>  (32) 
1

$$$$

     RDKit          3D

 65 69  0  0  0  0  0  0  0  0999 V2000
  140.8440   67.8420  227.7980 C   0  0  0  0  0  0  0  0  0  0  0  0
  140.1900   67.2380  226.7240 C   0  0  0  0  0  0  0  0  0  0  0  0
  139.5920   68.0010  225.7300 C   0  0  0  0  0  0  0  0  0  0  0  0
  139.6360   69.3770  225.7890 C   0  0  0  0  0  0  0  0  0  0  0  0
  140.2920   69.9630  226.8680 C   0  0  0  0  0  0  0  0  0  0  0  0
  140.8900   69.2200  227.8620 C   0  0  0  0  0  0  0  0  0  0  0  0
  140.3030   71.4630  226.8700 C   0  0  0  0  0  0  0  0  0  0  0  0
  140.9030   71.8470  225.5110 C   0  0  0  0  0  0  0  0  0  0  0  0
  139.9370   71.3800  224.5190 N   0  0  0  0  0  0  0  0  0  0  0  0
  139.9180   72.0650  223.2670 C   0  0  0  0  0  0  0  0  0  0  0  0
  138.7510   72.3860  222.7160 N   0  0  0  0  0  0  0  0  0  0  0  0
  138.7100   73.0340  221.5330 C   0  0  0  0  0  0  0  0  0  0  0  0
  137.4370   73.3600  220.9820 N   0  0  0  0  0  0  0  0  0  0  0  0
  136.8430   74.6720  221.1230 C   0  0  0  0  0  0  0  0  0  0  0  0
  136.6580   75.0110  222.5850 C   0  0  0  0  0  0  0  0  0  0  0  0
  137.7060   76.0560  222.9440 C   0  0  2  0  0  0  0  0  0  0  0  0
  137.2740   77.3590  222.3810 C   0  0  0  0  0  0  0  0  0  0  0  0
  138.3670   78.1190  221.6770 C   0  0  0  0  0  0  0  0  0  0  0  0
  139.0620   77.1570  220.7440 C   0  0  0  0  0  0  0  0  0  0  0  0
  139.7310   76.1360  221.5890 C   0  0  0  0  0  0  0  0  0  0  0  0
  139.0300   75.6340  222.7000 N   0  0  0  0  0  0  0  0  0  0  0  0
  139.8770   73.3350  220.9460 N   0  0  0  0  0  0  0  0  0  0  0  0
  141.0750   73.0270  221.4720 C   0  0  0  0  0  0  0  0  0  0  0  0
  142.2730   73.3780  220.7960 N   0  0  0  0  0  0  0  0  0  0  0  0
  142.5310   74.7370  220.3640 C   0  0  0  0  0  0  0  0  0  0  0  0
  143.3840   74.6040  219.0980 C   0  0  0  0  0  0  0  0  0  0  0  0
  144.6690   74.1330  219.5120 N   0  0  0  0  0  0  0  0  0  0  0  0
  144.6440   72.9570  220.3390 C   0  0  0  0  0  0  0  0  0  0  0  0
  143.2620   72.3770  220.5260 C   0  0  0  0  0  0  0  0  0  0  0  0
  141.0820   72.3800  222.6550 N   0  0  0  0  0  0  0  0  0  0  0  0
  139.0330   70.2700  224.7850 C   0  0  0  0  0  0  0  0  0  0  0  0
  141.3154   67.2300  228.5811 H   0  0  0  0  0  0  0  0  0  0  0  0
  140.1474   66.1405  226.6637 H   0  0  0  0  0  0  0  0  0  0  0  0
  139.0809   67.5049  224.8918 H   0  0  0  0  0  0  0  0  0  0  0  0
  141.3994   69.7202  228.6989 H   0  0  0  0  0  0  0  0  0  0  0  0
  139.2815   71.8588  226.9693 H   0  0  0  0  0  0  0  0  0  0  0  0
  140.8788   71.8750  227.7118 H   0  0  0  0  0  0  0  0  0  0  0  0
  141.0316   72.9372  225.4405 H   0  0  0  0  0  0  0  0  0  0  0  0
  141.8964   71.3996  225.3594 H   0  0  0  0  0  0  0  0  0  0  0  0
  136.9540   72.5900  220.4660 H   0  0  0  0  0  0  0  0  0  0  0  0
  137.5016   75.4202  220.6577 H   0  0  0  0  0  0  0  0  0  0  0  0
  135.8605   74.6745  220.6284 H   0  0  0  0  0  0  0  0  0  0  0  0
  135.6493   75.4165  222.7526 H   0  0  0  0  0  0  0  0  0  0  0  0
  136.7731   74.1134  223.2104 H   0  0  0  0  0  0  0  0  0  0  0  0
  137.7625   76.2039  224.0325 H   0  0  0  0  0  0  0  0  0  0  0  0
  136.4642   77.1722  221.6604 H   0  0  0  0  0  0  0  0  0  0  0  0
  136.9531   77.9800  223.2303 H   0  0  0  0  0  0  0  0  0  0  0  0
  137.9352   78.9524  221.1034 H   0  0  0  0  0  0  0  0  0  0  0  0
  139.0794   78.5351  222.4046 H   0  0  0  0  0  0  0  0  0  0  0  0
  138.3270   76.6761  220.0818 H   0  0  0  0  0  0  0  0  0  0  0  0
  139.7933   77.6831  220.1127 H   0  0  0  0  0  0  0  0  0  0  0  0
  139.9705   75.2807  220.9401 H   0  0  0  0  0  0  0  0  0  0  0  0
  140.5931   76.6627  222.0241 H   0  0  0  0  0  0  0  0  0  0  0  0
  139.0580   74.5930  222.7950 H   0  0  0  0  0  0  0  0  0  0  0  0
  141.5873   75.2558  220.1399 H   0  0  0  0  0  0  0  0  0  0  0  0
  143.0405   75.3247  221.1418 H   0  0  0  0  0  0  0  0  0  0  0  0
  142.9228   73.8853  218.4047 H   0  0  0  0  0  0  0  0  0  0  0  0
  143.4671   75.5684  218.5755 H   0  0  0  0  0  0  0  0  0  0  0  0
  145.2480   74.8700  219.9290 H   0  0  0  0  0  0  0  0  0  0  0  0
  145.2822   72.1913  219.8737 H   0  0  0  0  0  0  0  0  0  0  0  0
  145.0053   73.2555  221.3342 H   0  0  0  0  0  0  0  0  0  0  0  0
  142.9784   71.8409  219.6083 H   0  0  0  0  0  0  0  0  0  0  0  0
  143.2993   71.7044  221.3956 H   0  0  0  0  0  0  0  0  0  0  0  0
  138.0772   70.6586  225.1665 H   0  0  0  0  0  0  0  0  0  0  0  0
  138.8555   69.7100  223.8550 H   0  0  0  0  0  0  0  0  0  0  0  0
  1  2  2  0
  2  3  1  0
  3  4  2  0
  4  5  1  0
  5  6  2  0
  5  7  1  0
  7  8  1  0
  8  9  1  0
  9 10  1  0
 10 11  2  0
 11 12  1  0
 12 13  1  0
 13 14  1  0
 14 15  1  0
 15 16  1  0
 16 17  1  0
 17 18  1  0
 18 19  1  0
 19 20  1  0
 20 21  1  0
 12 22  2  0
 22 23  1  0
 23 24  1  0
 24 25  1  0
 25 26  1  0
 26 27  1  0
 27 28  1  0
 28 29  1  0
 23 30  2  0
  9 31  1  0
  6  1  1  0
 30 10  1  0
 31  4  1  0
 21 16  1  0
 29 24  1  0
  1 32  1  0
  2 33  1  0
  3 34  1  0
  6 35  1  0
  7 36  1  0
  7 37  1  0
  8 38  1  0
  8 39  1  0
 13 40  1  0
 14 41  1  0
 14 42  1  0
 15 43  1  0
 15 44  1  0
 16 45  1  1
 17 46  1  0
 17 47  1  0
 18 48  1  0
 18 49  1  0
 19 50  1  0
 19 51  1  0
 20 52  1  0
 20 53  1  0
 21 54  1  0
 25 55  1  0
 25 56  1  0
 26 57  1  0
 26 58  1  0
 27 59  1  0
 28 60  1  0
 28 61  1  0
 29 62  1  0
 29 63  1  0
 31 64  1  0
 31 65  1  0
M  END
>  <smiles>  (33) 
c1ccc2c(c1)CCN(c1nc(NCCC3CCCCN3)nc(N3CCNCC3)n1)C2

>  <score_type>  (33) 
oracle

>  <origin>  (33) 
autodockgpu

>  <m_score__min__energy>  (33) 
-10.199999999999999

>  <m_primary>  (33) 
energy

>  <rmsd>  (33) 
12.116246805290444

>  <m_score__min__rmsd>  (33) 
12.116246805290444

>  <meeko>  (33) 
{"free_energy": -7.56, "intermolecular_energy": -9.35, "internal_energy": -2.16, "cluster_size": 5, "cluster_id": 2, "rank_in_cluster": 4}

>  <energy>  (33) 
-9.11

>  <cluster_rmsd>  (33) 
0.65

>  <cluster>  (33) 
1

$$$$

     RDKit          3D

 65 69  0  0  0  0  0  0  0  0999 V2000
  142.0200   81.4890  222.5860 C   0  0  0  0  0  0  0  0  0  0  0  0
  141.9600   80.8030  223.8000 C   0  0  0  0  0  0  0  0  0  0  0  0
  141.4820   79.5010  223.8630 C   0  0  0  0  0  0  0  0  0  0  0  0
  141.0550   78.8620  222.7190 C   0  0  0  0  0  0  0  0  0  0  0  0
  141.1210   79.5600  221.5170 C   0  0  0  0  0  0  0  0  0  0  0  0
  141.5930   80.8520  221.4380 C   0  0  0  0  0  0  0  0  0  0  0  0
  140.6410   78.8050  220.3130 C   0  0  0  0  0  0  0  0  0  0  0  0
  141.4690   77.5150  220.3120 C   0  0  0  0  0  0  0  0  0  0  0  0
  141.0620   76.7950  221.5170 N   0  0  0  0  0  0  0  0  0  0  0  0
  141.2050   75.3750  221.4980 C   0  0  0  0  0  0  0  0  0  0  0  0
  140.2320   74.6140  221.9910 N   0  0  0  0  0  0  0  0  0  0  0  0
  140.3470   73.2700  221.9840 C   0  0  0  0  0  0  0  0  0  0  0  0
  139.2780   72.4940  222.5200 N   0  0  0  0  0  0  0  0  0  0  0  0
  139.1200   71.0860  222.2310 C   0  0  0  0  0  0  0  0  0  0  0  0
  139.8590   70.2530  223.2540 C   0  0  0  0  0  0  0  0  0  0  0  0
  139.4890   70.7910  224.6300 C   0  0  2  0  0  0  0  0  0  0  0  0
  140.6710   71.4940  225.1880 C   0  0  0  0  0  0  0  0  0  0  0  0
  140.9660   71.1570  226.6260 C   0  0  0  0  0  0  0  0  0  0  0  0
  140.9260   69.6530  226.7580 C   0  0  0  0  0  0  0  0  0  0  0  0
  139.5280   69.2280  226.5020 C   0  0  0  0  0  0  0  0  0  0  0  0
  138.8320   69.8460  225.4460 N   0  0  0  0  0  0  0  0  0  0  0  0
  141.4660   72.7420  221.4670 N   0  0  0  0  0  0  0  0  0  0  0  0
  142.4690   73.4790  220.9610 C   0  0  0  0  0  0  0  0  0  0  0  0
  143.6270   72.8530  220.4270 N   0  0  0  0  0  0  0  0  0  0  0  0
  144.9570   73.2050  220.8800 C   0  0  0  0  0  0  0  0  0  0  0  0
  145.8670   72.9950  219.6640 C   0  0  0  0  0  0  0  0  0  0  0  0
  145.9480   71.5850  219.4470 N   0  0  0  0  0  0  0  0  0  0  0  0
  144.6800   70.9110  219.3640 C   0  0  0  0  0  0  0  0  0  0  0  0
  143.4950   71.8450  219.4180 C   0  0  0  0  0  0  0  0  0  0  0  0
  142.3240   74.8190  220.9820 N   0  0  0  0  0  0  0  0  0  0  0  0
  140.5330   77.4850  222.6850 C   0  0  0  0  0  0  0  0  0  0  0  0
  142.4012   82.5200  222.5446 H   0  0  0  0  0  0  0  0  0  0  0  0
  142.2966   81.3015  224.7210 H   0  0  0  0  0  0  0  0  0  0  0  0
  141.4439   78.9775  224.8297 H   0  0  0  0  0  0  0  0  0  0  0  0
  141.6293   81.3713  220.4690 H   0  0  0  0  0  0  0  0  0  0  0  0
  139.5681   78.5780  220.3989 H   0  0  0  0  0  0  0  0  0  0  0  0
  140.7627   79.3802  219.3833 H   0  0  0  0  0  0  0  0  0  0  0  0
  141.2511   76.9179  219.4142 H   0  0  0  0  0  0  0  0  0  0  0  0
  142.5495   77.7210  220.3025 H   0  0  0  0  0  0  0  0  0  0  0  0
  138.6100   73.0070  223.1390 H   0  0  0  0  0  0  0  0  0  0  0  0
  138.0510   70.8281  222.2572 H   0  0  0  0  0  0  0  0  0  0  0  0
  139.5342   70.8773  221.2336 H   0  0  0  0  0  0  0  0  0  0  0  0
  139.5580   69.1984  223.1689 H   0  0  0  0  0  0  0  0  0  0  0  0
  140.9455   70.3120  223.0924 H   0  0  0  0  0  0  0  0  0  0  0  0
  138.6962   71.5503  224.5597 H   0  0  0  0  0  0  0  0  0  0  0  0
  141.5497   71.2255  224.5832 H   0  0  0  0  0  0  0  0  0  0  0  0
  140.4444   72.5699  225.1549 H   0  0  0  0  0  0  0  0  0  0  0  0
  141.9625   71.5318  226.9026 H   0  0  0  0  0  0  0  0  0  0  0  0
  140.2261   71.6239  227.2927 H   0  0  0  0  0  0  0  0  0  0  0  0
  141.6010   69.1919  226.0220 H   0  0  0  0  0  0  0  0  0  0  0  0
  141.2522   69.3399  227.7608 H   0  0  0  0  0  0  0  0  0  0  0  0
  139.5475   68.1482  226.2932 H   0  0  0  0  0  0  0  0  0  0  0  0
  138.9793   69.5298  227.4063 H   0  0  0  0  0  0  0  0  0  0  0  0
  138.3170   69.1840  224.8220 H   0  0  0  0  0  0  0  0  0  0  0  0
  144.9874   74.2547  221.2073 H   0  0  0  0  0  0  0  0  0  0  0  0
  145.2727   72.5947  221.7390 H   0  0  0  0  0  0  0  0  0  0  0  0
  145.4382   73.4901  218.7802 H   0  0  0  0  0  0  0  0  0  0  0  0
  146.8642   73.4252  219.8386 H   0  0  0  0  0  0  0  0  0  0  0  0
  146.5780   71.1150  220.1070 H   0  0  0  0  0  0  0  0  0  0  0  0
  144.6425   70.3560  218.4150 H   0  0  0  0  0  0  0  0  0  0  0  0
  144.6088   70.2482  220.2390 H   0  0  0  0  0  0  0  0  0  0  0  0
  143.3916   72.3382  218.4402 H   0  0  0  0  0  0  0  0  0  0  0  0
  142.6095   71.2418  219.6670 H   0  0  0  0  0  0  0  0  0  0  0  0
  139.4347   77.5103  222.6299 H   0  0  0  0  0  0  0  0  0  0  0  0
  140.8418   76.9528  223.5968 H   0  0  0  0  0  0  0  0  0  0  0  0
  1  2  2  0
  2  3  1  0
  3  4  2  0
  4  5  1  0
  5  6  2  0
  5  7  1  0
  7  8  1  0
  8  9  1  0
  9 10  1  0
 10 11  2  0
 11 12  1  0
 12 13  1  0
 13 14  1  0
 14 15  1  0
 15 16  1  0
 16 17  1  0
 17 18  1  0
 18 19  1  0
 19 20  1  0
 20 21  1  0
 12 22  2  0
 22 23  1  0
 23 24  1  0
 24 25  1  0
 25 26  1  0
 26 27  1  0
 27 28  1  0
 28 29  1  0
 23 30  2  0
  9 31  1  0
  6  1  1  0
 30 10  1  0
 31  4  1  0
 21 16  1  0
 29 24  1  0
  1 32  1  0
  2 33  1  0
  3 34  1  0
  6 35  1  0
  7 36  1  0
  7 37  1  0
  8 38  1  0
  8 39  1  0
 13 40  1  0
 14 41  1  0
 14 42  1  0
 15 43  1  0
 15 44  1  0
 16 45  1  6
 17 46  1  0
 17 47  1  0
 18 48  1  0
 18 49  1  0
 19 50  1  0
 19 51  1  0
 20 52  1  0
 20 53  1  0
 21 54  1  0
 25 55  1  0
 25 56  1  0
 26 57  1  0
 26 58  1  0
 27 59  1  0
 28 60  1  0
 28 61  1  0
 29 62  1  0
 29 63  1  0
 31 64  1  0
 31 65  1  0
M  END
>  <smiles>  (34) 
c1ccc2c(c1)CCN(c1nc(NCCC3CCCCN3)nc(N3CCNCC3)n1)C2

>  <score_type>  (34) 
oracle

>  <origin>  (34) 
autodockgpu

>  <m_score__min__energy>  (34) 
-10.199999999999999

>  <m_primary>  (34) 
energy

>  <rmsd>  (34) 
4.988367567851846

>  <m_score__min__rmsd>  (34) 
4.988367567851846

>  <meeko>  (34) 
{"free_energy": -9.55, "intermolecular_energy": -11.34, "internal_energy": -1.0, "cluster_size": 38, "cluster_id": 1, "rank_in_cluster": 24}

>  <energy>  (34) 
-9.11

>  <cluster_rmsd>  (34) 
1.49

>  <cluster>  (34) 
1

$$$$

     RDKit          3D

 65 69  0  0  0  0  0  0  0  0999 V2000
  141.8840   81.6070  222.6130 C   0  0  0  0  0  0  0  0  0  0  0  0
  141.6340   80.9320  223.8070 C   0  0  0  0  0  0  0  0  0  0  0  0
  141.1590   79.6270  223.8070 C   0  0  0  0  0  0  0  0  0  0  0  0
  140.9240   78.9740  222.6160 C   0  0  0  0  0  0  0  0  0  0  0  0
  141.1780   79.6620  221.4330 C   0  0  0  0  0  0  0  0  0  0  0  0
  141.6500   80.9560  221.4170 C   0  0  0  0  0  0  0  0  0  0  0  0
  140.9020   78.8930  220.1750 C   0  0  0  0  0  0  0  0  0  0  0  0
  141.7260   77.6080  220.3200 C   0  0  0  0  0  0  0  0  0  0  0  0
  141.1340   76.8960  221.4520 N   0  0  0  0  0  0  0  0  0  0  0  0
  141.2860   75.4770  221.4710 C   0  0  0  0  0  0  0  0  0  0  0  0
  140.3270   74.7250  222.0030 N   0  0  0  0  0  0  0  0  0  0  0  0
  140.4510   73.3820  222.0320 C   0  0  0  0  0  0  0  0  0  0  0  0
  139.3970   72.6160  222.6100 N   0  0  0  0  0  0  0  0  0  0  0  0
  139.5650   71.2320  222.9970 C   0  0  0  0  0  0  0  0  0  0  0  0
  140.5570   71.1200  224.1330 C   0  0  0  0  0  0  0  0  0  0  0  0
  139.7740   70.7420  225.3830 C   0  0  2  0  0  0  0  0  0  0  0  0
  140.5380   71.2050  226.5680 C   0  0  0  0  0  0  0  0  0  0  0  0
  140.6390   70.1870  227.6720 C   0  0  0  0  0  0  0  0  0  0  0  0
  141.0550   68.8770  227.0470 C   0  0  0  0  0  0  0  0  0  0  0  0
  139.9420   68.4400  226.1670 C   0  0  0  0  0  0  0  0  0  0  0  0
  139.3060   69.4110  225.3730 N   0  0  0  0  0  0  0  0  0  0  0  0
  141.5630   72.8460  221.5100 N   0  0  0  0  0  0  0  0  0  0  0  0
  142.5520   73.5740  220.9640 C   0  0  0  0  0  0  0  0  0  0  0  0
  143.7040   72.9390  220.4280 N   0  0  0  0  0  0  0  0  0  0  0  0
  145.0360   73.2640  220.8950 C   0  0  0  0  0  0  0  0  0  0  0  0
  145.9500   73.0610  219.6810 C   0  0  0  0  0  0  0  0  0  0  0  0
  146.0110   71.6530  219.4410 N   0  0  0  0  0  0  0  0  0  0  0  0
  144.7350   71.0000  219.3390 C   0  0  0  0  0  0  0  0  0  0  0  0
  143.5630   71.9500  219.4010 C   0  0  0  0  0  0  0  0  0  0  0  0
  142.3990   74.9130  220.9500 N   0  0  0  0  0  0  0  0  0  0  0  0
  140.4210   77.5940  222.5130 C   0  0  0  0  0  0  0  0  0  0  0  0
  142.2611   82.6403  222.6230 H   0  0  0  0  0  0  0  0  0  0  0  0
  141.8160   81.4415  224.7648 H   0  0  0  0  0  0  0  0  0  0  0  0
  140.9696   79.1127  224.7607 H   0  0  0  0  0  0  0  0  0  0  0  0
  141.8388   81.4663  220.4610 H   0  0  0  0  0  0  0  0  0  0  0  0
  139.8304   78.6598  220.0894 H   0  0  0  0  0  0  0  0  0  0  0  0
  141.1690   79.4606  219.2714 H   0  0  0  0  0  0  0  0  0  0  0  0
  141.6580   77.0013  219.4050 H   0  0  0  0  0  0  0  0  0  0  0  0
  142.7930   77.8209  220.4819 H   0  0  0  0  0  0  0  0  0  0  0  0
  138.4880   73.1170  222.7380 H   0  0  0  0  0  0  0  0  0  0  0  0
  138.5954   70.8258  223.3209 H   0  0  0  0  0  0  0  0  0  0  0  0
  139.9435   70.6634  222.1348 H   0  0  0  0  0  0  0  0  0  0  0  0
  141.3023   70.3433  223.9066 H   0  0  0  0  0  0  0  0  0  0  0  0
  141.0894   72.0713  224.2800 H   0  0  0  0  0  0  0  0  0  0  0  0
  138.8106   71.2713  225.4238 H   0  0  0  0  0  0  0  0  0  0  0  0
  141.5565   71.4635  226.2426 H   0  0  0  0  0  0  0  0  0  0  0  0
  139.9915   72.0660  226.9804 H   0  0  0  0  0  0  0  0  0  0  0  0
  141.3903   70.5063  228.4093 H   0  0  0  0  0  0  0  0  0  0  0  0
  139.6738   70.0798  228.1887 H   0  0  0  0  0  0  0  0  0  0  0  0
  141.9718   69.0157  226.4551 H   0  0  0  0  0  0  0  0  0  0  0  0
  141.2619   68.1226  227.8203 H   0  0  0  0  0  0  0  0  0  0  0  0
  140.3441   67.6743  225.4873 H   0  0  0  0  0  0  0  0  0  0  0  0
  139.1604   68.0997  226.8622 H   0  0  0  0  0  0  0  0  0  0  0  0
  139.1600   69.1290  224.3780 H   0  0  0  0  0  0  0  0  0  0  0  0
  145.0795   74.3076  221.2401 H   0  0  0  0  0  0  0  0  0  0  0  0
  145.3376   72.6351  221.7456 H   0  0  0  0  0  0  0  0  0  0  0  0
  145.5340   73.5771  218.8032 H   0  0  0  0  0  0  0  0  0  0  0  0
  146.9524   73.4734  219.8682 H   0  0  0  0  0  0  0  0  0  0  0  0
  146.6300   71.1630  220.0970 H   0  0  0  0  0  0  0  0  0  0  0  0
  144.6957   70.4613  218.3807 H   0  0  0  0  0  0  0  0  0  0  0  0
  144.6485   70.3243  220.2027 H   0  0  0  0  0  0  0  0  0  0  0  0
  143.4730   72.4609  218.4310 H   0  0  0  0  0  0  0  0  0  0  0  0
  142.6670   71.3559  219.6339 H   0  0  0  0  0  0  0  0  0  0  0  0
  139.3457   77.6118  222.2821 H   0  0  0  0  0  0  0  0  0  0  0  0
  140.5821   77.0725  223.4680 H   0  0  0  0  0  0  0  0  0  0  0  0
  1  2  2  0
  2  3  1  0
  3  4  2  0
  4  5  1  0
  5  6  2  0
  5  7  1  0
  7  8  1  0
  8  9  1  0
  9 10  1  0
 10 11  2  0
 11 12  1  0
 12 13  1  0
 13 14  1  0
 14 15  1  0
 15 16  1  0
 16 17  1  0
 17 18  1  0
 18 19  1  0
 19 20  1  0
 20 21  1  0
 12 22  2  0
 22 23  1  0
 23 24  1  0
 24 25  1  0
 25 26  1  0
 26 27  1  0
 27 28  1  0
 28 29  1  0
 23 30  2  0
  9 31  1  0
  6  1  1  0
 30 10  1  0
 31  4  1  0
 21 16  1  0
 29 24  1  0
  1 32  1  0
  2 33  1  0
  3 34  1  0
  6 35  1  0
  7 36  1  0
  7 37  1  0
  8 38  1  0
  8 39  1  0
 13 40  1  0
 14 41  1  0
 14 42  1  0
 15 43  1  0
 15 44  1  0
 16 45  1  6
 17 46  1  0
 17 47  1  0
 18 48  1  0
 18 49  1  0
 19 50  1  0
 19 51  1  0
 20 52  1  0
 20 53  1  0
 21 54  1  0
 25 55  1  0
 25 56  1  0
 26 57  1  0
 26 58  1  0
 27 59  1  0
 28 60  1  0
 28 61  1  0
 29 62  1  0
 29 63  1  0
 31 64  1  0
 31 65  1  0
M  END
>  <smiles>  (35) 
c1ccc2c(c1)CCN(c1nc(NCCC3CCCCN3)nc(N3CCNCC3)n1)C2

>  <score_type>  (35) 
oracle

>  <origin>  (35) 
autodockgpu

>  <m_score__min__energy>  (35) 
-10.199999999999999

>  <m_primary>  (35) 
energy

>  <rmsd>  (35) 
4.992349262161028

>  <m_score__min__rmsd>  (35) 
4.992349262161028

>  <meeko>  (35) 
{"free_energy": -9.92, "intermolecular_energy": -11.71, "internal_energy": -0.84, "cluster_size": 38, "cluster_id": 1, "rank_in_cluster": 8}

>  <energy>  (35) 
-8.93

>  <cluster_rmsd>  (35) 
1.98

>  <cluster>  (35) 
1

$$$$

     RDKit          3D

 65 69  0  0  0  0  0  0  0  0999 V2000
  141.2950   81.8570  222.6580 C   0  0  0  0  0  0  0  0  0  0  0  0
  142.4910   81.2640  223.0640 C   0  0  0  0  0  0  0  0  0  0  0  0
  142.5680   79.8990  223.3050 C   0  0  0  0  0  0  0  0  0  0  0  0
  141.4550   79.1020  223.1450 C   0  0  0  0  0  0  0  0  0  0  0  0
  140.2690   79.7080  222.7410 C   0  0  0  0  0  0  0  0  0  0  0  0
  140.1770   81.0620  222.4980 C   0  0  0  0  0  0  0  0  0  0  0  0
  139.0990   78.7830  222.5870 C   0  0  0  0  0  0  0  0  0  0  0  0
  139.5880   77.7000  221.6190 C   0  0  0  0  0  0  0  0  0  0  0  0
  140.6560   77.0000  222.3320 N   0  0  0  0  0  0  0  0  0  0  0  0
  140.9000   75.6450  221.9570 C   0  0  0  0  0  0  0  0  0  0  0  0
  140.0230   74.7050  222.2970 N   0  0  0  0  0  0  0  0  0  0  0  0
  140.2340   73.4180  221.9530 C   0  0  0  0  0  0  0  0  0  0  0  0
  139.2660   72.4450  222.3370 N   0  0  0  0  0  0  0  0  0  0  0  0
  139.3530   71.0600  221.9280 C   0  0  0  0  0  0  0  0  0  0  0  0
  139.9770   70.2260  223.0250 C   0  0  0  0  0  0  0  0  0  0  0  0
  139.5440   70.8300  224.3540 C   0  0  2  0  0  0  0  0  0  0  0  0
  140.7210   71.4930  224.9690 C   0  0  0  0  0  0  0  0  0  0  0  0
  140.9030   71.1920  226.4330 C   0  0  0  0  0  0  0  0  0  0  0  0
  140.7770   69.6970  226.6100 C   0  0  0  0  0  0  0  0  0  0  0  0
  139.3780   69.3330  226.2730 C   0  0  0  0  0  0  0  0  0  0  0  0
  138.7870   69.9470  225.1530 N   0  0  0  0  0  0  0  0  0  0  0  0
  141.3480   73.1310  221.2650 N   0  0  0  0  0  0  0  0  0  0  0  0
  142.2570   74.0530  220.9040 C   0  0  0  0  0  0  0  0  0  0  0  0
  143.4150   73.6780  220.1730 N   0  0  0  0  0  0  0  0  0  0  0  0
  143.6580   74.1680  218.8320 C   0  0  0  0  0  0  0  0  0  0  0  0
  144.4340   73.0490  218.1270 C   0  0  0  0  0  0  0  0  0  0  0  0
  145.7370   73.0160  218.7150 N   0  0  0  0  0  0  0  0  0  0  0  0
  145.7520   72.9370  220.1500 C   0  0  0  0  0  0  0  0  0  0  0  0
  144.3790   72.7970  220.7620 C   0  0  0  0  0  0  0  0  0  0  0  0
  142.0160   75.3300  221.2620 N   0  0  0  0  0  0  0  0  0  0  0  0
  141.4370   77.6480  223.3760 C   0  0  0  0  0  0  0  0  0  0  0  0
  141.2434   82.9393  222.4686 H   0  0  0  0  0  0  0  0  0  0  0  0
  143.3873   81.8881  223.1952 H   0  0  0  0  0  0  0  0  0  0  0  0
  143.5208   79.4519  223.6248 H   0  0  0  0  0  0  0  0  0  0  0  0
  139.2219   81.5051  222.1796 H   0  0  0  0  0  0  0  0  0  0  0  0
  138.8225   78.3418  223.5560 H   0  0  0  0  0  0  0  0  0  0  0  0
  138.2030   79.3016  222.2151 H   0  0  0  0  0  0  0  0  0  0  0  0
  138.7707   77.0065  221.3717 H   0  0  0  0  0  0  0  0  0  0  0  0
  139.9405   78.1276  220.6688 H   0  0  0  0  0  0  0  0  0  0  0  0
  138.4830   72.7940  222.9340 H   0  0  0  0  0  0  0  0  0  0  0  0
  138.3428   70.6808  221.7141 H   0  0  0  0  0  0  0  0  0  0  0  0
  139.9800   70.9921  221.0268 H   0  0  0  0  0  0  0  0  0  0  0  0
  139.6271   69.1857  222.9524 H   0  0  0  0  0  0  0  0  0  0  0  0
  141.0735   70.2236  222.9368 H   0  0  0  0  0  0  0  0  0  0  0  0
  138.7978   71.6244  224.2053 H   0  0  0  0  0  0  0  0  0  0  0  0
  141.6228   71.1611  224.4337 H   0  0  0  0  0  0  0  0  0  0  0  0
  140.5521   72.5769  224.8874 H   0  0  0  0  0  0  0  0  0  0  0  0
  141.8972   71.5266  226.7642 H   0  0  0  0  0  0  0  0  0  0  0  0
  140.1456   71.7177  227.0330 H   0  0  0  0  0  0  0  0  0  0  0  0
  141.4745   69.1774  225.9366 H   0  0  0  0  0  0  0  0  0  0  0  0
  141.0197   69.4035  227.6420 H   0  0  0  0  0  0  0  0  0  0  0  0
  139.3551   68.2468  226.1006 H   0  0  0  0  0  0  0  0  0  0  0  0
  138.7868   69.6935  227.1277 H   0  0  0  0  0  0  0  0  0  0  0  0
  138.2810   69.2910  224.5170 H   0  0  0  0  0  0  0  0  0  0  0  0
  142.7070   74.3625  218.3146 H   0  0  0  0  0  0  0  0  0  0  0  0
  144.2173   75.1152  218.8365 H   0  0  0  0  0  0  0  0  0  0  0  0
  143.9267   72.0844  218.2761 H   0  0  0  0  0  0  0  0  0  0  0  0
  144.4942   73.2322  217.0440 H   0  0  0  0  0  0  0  0  0  0  0  0
  146.3460   73.7690  218.3760 H   0  0  0  0  0  0  0  0  0  0  0  0
  146.3544   72.0648  220.4440 H   0  0  0  0  0  0  0  0  0  0  0  0
  146.1756   73.8821  220.5207 H   0  0  0  0  0  0  0  0  0  0  0  0
  144.0374   71.7604  220.6249 H   0  0  0  0  0  0  0  0  0  0  0  0
  144.4627   73.0624  221.8262 H   0  0  0  0  0  0  0  0  0  0  0  0
  140.9842   77.4381  224.3563 H   0  0  0  0  0  0  0  0  0  0  0  0
  142.4665   77.2611  223.3571 H   0  0  0  0  0  0  0  0  0  0  0  0
  1  2  2  0
  2  3  1  0
  3  4  2  0
  4  5  1  0
  5  6  2  0
  5  7  1  0
  7  8  1  0
  8  9  1  0
  9 10  1  0
 10 11  2  0
 11 12  1  0
 12 13  1  0
 13 14  1  0
 14 15  1  0
 15 16  1  0
 16 17  1  0
 17 18  1  0
 18 19  1  0
 19 20  1  0
 20 21  1  0
 12 22  2  0
 22 23  1  0
 23 24  1  0
 24 25  1  0
 25 26  1  0
 26 27  1  0
 27 28  1  0
 28 29  1  0
 23 30  2  0
  9 31  1  0
  6  1  1  0
 30 10  1  0
 31  4  1  0
 21 16  1  0
 29 24  1  0
  1 32  1  0
  2 33  1  0
  3 34  1  0
  6 35  1  0
  7 36  1  0
  7 37  1  0
  8 38  1  0
  8 39  1  0
 13 40  1  0
 14 41  1  0
 14 42  1  0
 15 43  1  0
 15 44  1  0
 16 45  1  6
 17 46  1  0
 17 47  1  0
 18 48  1  0
 18 49  1  0
 19 50  1  0
 19 51  1  0
 20 52  1  0
 20 53  1  0
 21 54  1  0
 25 55  1  0
 25 56  1  0
 26 57  1  0
 26 58  1  0
 27 59  1  0
 28 60  1  0
 28 61  1  0
 29 62  1  0
 29 63  1  0
 31 64  1  0
 31 65  1  0
M  END
>  <smiles>  (36) 
c1ccc2c(c1)CCN(c1nc(NCCC3CCCCN3)nc(N3CCNCC3)n1)C2

>  <score_type>  (36) 
oracle

>  <origin>  (36) 
autodockgpu

>  <m_score__min__energy>  (36) 
-10.199999999999999

>  <m_primary>  (36) 
energy

>  <rmsd>  (36) 
5.21765663874942

>  <m_score__min__rmsd>  (36) 
5.21765663874942

>  <meeko>  (36) 
{"free_energy": -9.21, "intermolecular_energy": -11.0, "internal_energy": -1.01, "cluster_size": 38, "cluster_id": 1, "rank_in_cluster": 30}

>  <energy>  (36) 
-8.91

>  <cluster_rmsd>  (36) 
1.34

>  <cluster>  (36) 
1

$$$$

     RDKit          3D

 65 69  0  0  0  0  0  0  0  0999 V2000
  142.1310   81.5400  222.6150 C   0  0  0  0  0  0  0  0  0  0  0  0
  142.0570   80.8470  223.8240 C   0  0  0  0  0  0  0  0  0  0  0  0
  141.5610   79.5510  223.8760 C   0  0  0  0  0  0  0  0  0  0  0  0
  141.1310   78.9250  222.7260 C   0  0  0  0  0  0  0  0  0  0  0  0
  141.2110   79.6310  221.5290 C   0  0  0  0  0  0  0  0  0  0  0  0
  141.7010   80.9170  221.4610 C   0  0  0  0  0  0  0  0  0  0  0  0
  140.7270   78.8900  220.3180 C   0  0  0  0  0  0  0  0  0  0  0  0
  141.5380   77.5890  220.3120 C   0  0  0  0  0  0  0  0  0  0  0  0
  141.1150   76.8660  221.5100 N   0  0  0  0  0  0  0  0  0  0  0  0
  141.2400   75.4450  221.4830 C   0  0  0  0  0  0  0  0  0  0  0  0
  140.2530   74.6940  221.9630 N   0  0  0  0  0  0  0  0  0  0  0  0
  140.3510   73.3480  221.9470 C   0  0  0  0  0  0  0  0  0  0  0  0
  139.2670   72.5830  222.4690 N   0  0  0  0  0  0  0  0  0  0  0  0
  139.1330   71.1630  222.2290 C   0  0  0  0  0  0  0  0  0  0  0  0
  139.9370   70.3790  223.2420 C   0  0  0  0  0  0  0  0  0  0  0  0
  139.5220   70.8670  224.6240 C   0  0  2  0  0  0  0  0  0  0  0  0
  140.6960   71.5160  225.2600 C   0  0  0  0  0  0  0  0  0  0  0  0
  140.9230   71.1100  226.6920 C   0  0  0  0  0  0  0  0  0  0  0  0
  140.8440   69.6040  226.7570 C   0  0  0  0  0  0  0  0  0  0  0  0
  139.4480   69.2250  226.4250 C   0  0  0  0  0  0  0  0  0  0  0  0
  138.8100   69.9040  225.3710 N   0  0  0  0  0  0  0  0  0  0  0  0
  141.4660   72.8090  221.4350 N   0  0  0  0  0  0  0  0  0  0  0  0
  142.4830   73.5360  220.9420 C   0  0  0  0  0  0  0  0  0  0  0  0
  143.6370   72.8980  220.4130 N   0  0  0  0  0  0  0  0  0  0  0  0
  144.9680   73.2340  220.8730 C   0  0  0  0  0  0  0  0  0  0  0  0
  145.8820   73.0170  219.6620 C   0  0  0  0  0  0  0  0  0  0  0  0
  145.9480   71.6060  219.4420 N   0  0  0  0  0  0  0  0  0  0  0  0
  144.6740   70.9480  219.3510 C   0  0  0  0  0  0  0  0  0  0  0  0
  143.4990   71.8940  219.4000 C   0  0  0  0  0  0  0  0  0  0  0  0
  142.3560   74.8770  220.9710 N   0  0  0  0  0  0  0  0  0  0  0  0
  140.5900   77.5560  222.6810 C   0  0  0  0  0  0  0  0  0  0  0  0
  142.5257   82.5662  222.5823 H   0  0  0  0  0  0  0  0  0  0  0  0
  142.3967   81.3346  224.7497 H   0  0  0  0  0  0  0  0  0  0  0  0
  141.5111   79.0219  224.8391 H   0  0  0  0  0  0  0  0  0  0  0  0
  141.7490   81.4423  220.4957 H   0  0  0  0  0  0  0  0  0  0  0  0
  139.6508   78.6766  220.3975 H   0  0  0  0  0  0  0  0  0  0  0  0
  140.8608   79.4696  219.3927 H   0  0  0  0  0  0  0  0  0  0  0  0
  141.3169   77.0012  219.4089 H   0  0  0  0  0  0  0  0  0  0  0  0
  142.6212   77.7807  220.3094 H   0  0  0  0  0  0  0  0  0  0  0  0
  138.5710   73.1130  223.0400 H   0  0  0  0  0  0  0  0  0  0  0  0
  138.0731   70.8801  222.3102 H   0  0  0  0  0  0  0  0  0  0  0  0
  139.5091   70.9344  221.2209 H   0  0  0  0  0  0  0  0  0  0  0  0
  139.7234   69.3046  223.1422 H   0  0  0  0  0  0  0  0  0  0  0  0
  141.0153   70.5281  223.0835 H   0  0  0  0  0  0  0  0  0  0  0  0
  138.7503   71.6478  224.5544 H   0  0  0  0  0  0  0  0  0  0  0  0
  141.5927   71.2522  224.6800 H   0  0  0  0  0  0  0  0  0  0  0  0
  140.4959   72.5976  225.2652 H   0  0  0  0  0  0  0  0  0  0  0  0
  141.9153   71.4483  227.0251 H   0  0  0  0  0  0  0  0  0  0  0  0
  140.1660   71.5654  227.3475 H   0  0  0  0  0  0  0  0  0  0  0  0
  141.5389   69.1581  226.0302 H   0  0  0  0  0  0  0  0  0  0  0  0
  141.1207   69.2405  227.7576 H   0  0  0  0  0  0  0  0  0  0  0  0
  139.4520   68.1551  226.1693 H   0  0  0  0  0  0  0  0  0  0  0  0
  138.8694   69.5016  227.3187 H   0  0  0  0  0  0  0  0  0  0  0  0
  138.3060   69.2830  224.6980 H   0  0  0  0  0  0  0  0  0  0  0  0
  145.0082   74.2826  221.2029 H   0  0  0  0  0  0  0  0  0  0  0  0
  145.2725   72.6179  221.7319 H   0  0  0  0  0  0  0  0  0  0  0  0
  145.4638   73.5191  218.7771 H   0  0  0  0  0  0  0  0  0  0  0  0
  146.8830   73.4355  219.8430 H   0  0  0  0  0  0  0  0  0  0  0  0
  146.5700   71.1280  220.1040 H   0  0  0  0  0  0  0  0  0  0  0  0
  144.6356   70.3950  218.4009 H   0  0  0  0  0  0  0  0  0  0  0  0
  144.5906   70.2855  220.2251 H   0  0  0  0  0  0  0  0  0  0  0  0
  143.4066   72.3908  218.4229 H   0  0  0  0  0  0  0  0  0  0  0  0
  142.6052   71.3001  219.6416 H   0  0  0  0  0  0  0  0  0  0  0  0
  139.4924   77.5970  222.6213 H   0  0  0  0  0  0  0  0  0  0  0  0
  140.8870   77.0136  223.5907 H   0  0  0  0  0  0  0  0  0  0  0  0
  1  2  2  0
  2  3  1  0
  3  4  2  0
  4  5  1  0
  5  6  2  0
  5  7  1  0
  7  8  1  0
  8  9  1  0
  9 10  1  0
 10 11  2  0
 11 12  1  0
 12 13  1  0
 13 14  1  0
 14 15  1  0
 15 16  1  0
 16 17  1  0
 17 18  1  0
 18 19  1  0
 19 20  1  0
 20 21  1  0
 12 22  2  0
 22 23  1  0
 23 24  1  0
 24 25  1  0
 25 26  1  0
 26 27  1  0
 27 28  1  0
 28 29  1  0
 23 30  2  0
  9 31  1  0
  6  1  1  0
 30 10  1  0
 31  4  1  0
 21 16  1  0
 29 24  1  0
  1 32  1  0
  2 33  1  0
  3 34  1  0
  6 35  1  0
  7 36  1  0
  7 37  1  0
  8 38  1  0
  8 39  1  0
 13 40  1  0
 14 41  1  0
 14 42  1  0
 15 43  1  0
 15 44  1  0
 16 45  1  6
 17 46  1  0
 17 47  1  0
 18 48  1  0
 18 49  1  0
 19 50  1  0
 19 51  1  0
 20 52  1  0
 20 53  1  0
 21 54  1  0
 25 55  1  0
 25 56  1  0
 26 57  1  0
 26 58  1  0
 27 59  1  0
 28 60  1  0
 28 61  1  0
 29 62  1  0
 29 63  1  0
 31 64  1  0
 31 65  1  0
M  END
>  <smiles>  (37) 
c1ccc2c(c1)CCN(c1nc(NCCC3CCCCN3)nc(N3CCNCC3)n1)C2

>  <score_type>  (37) 
oracle

>  <origin>  (37) 
autodockgpu

>  <m_score__min__energy>  (37) 
-10.199999999999999

>  <m_primary>  (37) 
energy

>  <rmsd>  (37) 
5.031053706495141

>  <m_score__min__rmsd>  (37) 
5.031053706495141

>  <meeko>  (37) 
{"free_energy": -9.61, "intermolecular_energy": -11.4, "internal_energy": -0.99, "cluster_size": 38, "cluster_id": 1, "rank_in_cluster": 19}

>  <energy>  (37) 
-7.49

>  <cluster_rmsd>  (37) 
1.99

>  <cluster>  (37) 
1

$$$$

     RDKit          3D

 65 69  0  0  0  0  0  0  0  0999 V2000
  142.0360   81.5700  222.5990 C   0  0  0  0  0  0  0  0  0  0  0  0
  141.8860   80.8930  223.8100 C   0  0  0  0  0  0  0  0  0  0  0  0
  141.3930   79.5950  223.8480 C   0  0  0  0  0  0  0  0  0  0  0  0
  141.0420   78.9510  222.6810 C   0  0  0  0  0  0  0  0  0  0  0  0
  141.1980   79.6410  221.4820 C   0  0  0  0  0  0  0  0  0  0  0  0
  141.6850   80.9290  221.4280 C   0  0  0  0  0  0  0  0  0  0  0  0
  140.7980   78.8820  220.2520 C   0  0  0  0  0  0  0  0  0  0  0  0
  141.6130   77.5840  220.3170 C   0  0  0  0  0  0  0  0  0  0  0  0
  141.1160   76.8760  221.4950 N   0  0  0  0  0  0  0  0  0  0  0  0
  141.2480   75.4550  221.4960 C   0  0  0  0  0  0  0  0  0  0  0  0
  140.2760   74.7090  222.0120 N   0  0  0  0  0  0  0  0  0  0  0  0
  140.3810   73.3640  222.0240 C   0  0  0  0  0  0  0  0  0  0  0  0
  139.3140   72.6050  222.5850 N   0  0  0  0  0  0  0  0  0  0  0  0
  139.4020   71.1750  222.7910 C   0  0  0  0  0  0  0  0  0  0  0  0
  140.4330   70.8590  223.8510 C   0  0  0  0  0  0  0  0  0  0  0  0
  139.7280   70.9160  225.1990 C   0  0  2  0  0  0  0  0  0  0  0  0
  140.6650   71.5060  226.1880 C   0  0  0  0  0  0  0  0  0  0  0  0
  140.7210   70.7680  227.5000 C   0  0  0  0  0  0  0  0  0  0  0  0
  140.8750   69.2990  227.1890 C   0  0  0  0  0  0  0  0  0  0  0  0
  139.6300   68.8620  226.5100 C   0  0  0  0  0  0  0  0  0  0  0  0
  139.0700   69.7160  225.5420 N   0  0  0  0  0  0  0  0  0  0  0  0
  141.4890   72.8200  221.5000 N   0  0  0  0  0  0  0  0  0  0  0  0
  142.4920   73.5420  220.9700 C   0  0  0  0  0  0  0  0  0  0  0  0
  143.6380   72.8990  220.4320 N   0  0  0  0  0  0  0  0  0  0  0  0
  144.9740   73.2170  220.8930 C   0  0  0  0  0  0  0  0  0  0  0  0
  145.8830   73.0050  219.6780 C   0  0  0  0  0  0  0  0  0  0  0  0
  145.9350   71.5960  219.4400 N   0  0  0  0  0  0  0  0  0  0  0  0
  144.6540   70.9510  219.3440 C   0  0  0  0  0  0  0  0  0  0  0  0
  143.4880   71.9080  219.4070 C   0  0  0  0  0  0  0  0  0  0  0  0
  142.3570   74.8830  220.9740 N   0  0  0  0  0  0  0  0  0  0  0  0
  140.5120   77.5790  222.6190 C   0  0  0  0  0  0  0  0  0  0  0  0
  142.4276   82.5977  222.5779 H   0  0  0  0  0  0  0  0  0  0  0  0
  142.1624   81.3950  224.7489 H   0  0  0  0  0  0  0  0  0  0  0  0
  141.2823   79.0790  224.8132 H   0  0  0  0  0  0  0  0  0  0  0  0
  141.7930   81.4415  220.4607 H   0  0  0  0  0  0  0  0  0  0  0  0
  139.7198   78.6646  220.2632 H   0  0  0  0  0  0  0  0  0  0  0  0
  140.9905   79.4501  219.3299 H   0  0  0  0  0  0  0  0  0  0  0  0
  141.4531   76.9826  219.4099 H   0  0  0  0  0  0  0  0  0  0  0  0
  142.6934   77.7806  220.3818 H   0  0  0  0  0  0  0  0  0  0  0  0
  138.4570   73.1450  222.8410 H   0  0  0  0  0  0  0  0  0  0  0  0
  138.4218   70.7940  223.1135 H   0  0  0  0  0  0  0  0  0  0  0  0
  139.7012   70.6957  221.8472 H   0  0  0  0  0  0  0  0  0  0  0  0
  140.8475   69.8537  223.6851 H   0  0  0  0  0  0  0  0  0  0  0  0
  141.2628   71.5801  223.8146 H   0  0  0  0  0  0  0  0  0  0  0  0
  138.8616   71.5929  225.1662 H   0  0  0  0  0  0  0  0  0  0  0  0
  141.6738   71.5077  225.7495 H   0  0  0  0  0  0  0  0  0  0  0  0
  140.2957   72.5182  226.4095 H   0  0  0  0  0  0  0  0  0  0  0  0
  141.5796   71.1185  228.0916 H   0  0  0  0  0  0  0  0  0  0  0  0
  139.8058   70.9462  228.0837 H   0  0  0  0  0  0  0  0  0  0  0  0
  141.7400   69.1423  226.5277 H   0  0  0  0  0  0  0  0  0  0  0  0
  141.0420   68.7202  228.1094 H   0  0  0  0  0  0  0  0  0  0  0  0
  139.8467   67.9040  226.0147 H   0  0  0  0  0  0  0  0  0  0  0  0
  138.8781   68.8260  227.3121 H   0  0  0  0  0  0  0  0  0  0  0  0
  138.7880   69.2400  224.6560 H   0  0  0  0  0  0  0  0  0  0  0  0
  145.0251   74.2613  221.2347 H   0  0  0  0  0  0  0  0  0  0  0  0
  145.2743   72.5882  221.7441 H   0  0  0  0  0  0  0  0  0  0  0  0
  145.4681   73.5220  218.8002 H   0  0  0  0  0  0  0  0  0  0  0  0
  146.8886   73.4109  219.8626 H   0  0  0  0  0  0  0  0  0  0  0  0
  146.5530   71.1050  220.0950 H   0  0  0  0  0  0  0  0  0  0  0  0
  144.6082   70.4099  218.3874 H   0  0  0  0  0  0  0  0  0  0  0  0
  144.5661   70.2788  220.2102 H   0  0  0  0  0  0  0  0  0  0  0  0
  143.3983   72.4172  218.4361 H   0  0  0  0  0  0  0  0  0  0  0  0
  142.5890   71.3199  219.6436 H   0  0  0  0  0  0  0  0  0  0  0  0
  139.4205   77.6131  222.4865 H   0  0  0  0  0  0  0  0  0  0  0  0
  140.7513   77.0506  223.5536 H   0  0  0  0  0  0  0  0  0  0  0  0
  1  2  2  0
  2  3  1  0
  3  4  2  0
  4  5  1  0
  5  6  2  0
  5  7  1  0
  7  8  1  0
  8  9  1  0
  9 10  1  0
 10 11  2  0
 11 12  1  0
 12 13  1  0
 13 14  1  0
 14 15  1  0
 15 16  1  0
 16 17  1  0
 17 18  1  0
 18 19  1  0
 19 20  1  0
 20 21  1  0
 12 22  2  0
 22 23  1  0
 23 24  1  0
 24 25  1  0
 25 26  1  0
 26 27  1  0
 27 28  1  0
 28 29  1  0
 23 30  2  0
  9 31  1  0
  6  1  1  0
 30 10  1  0
 31  4  1  0
 21 16  1  0
 29 24  1  0
  1 32  1  0
  2 33  1  0
  3 34  1  0
  6 35  1  0
  7 36  1  0
  7 37  1  0
  8 38  1  0
  8 39  1  0
 13 40  1  0
 14 41  1  0
 14 42  1  0
 15 43  1  0
 15 44  1  0
 16 45  1  6
 17 46  1  0
 17 47  1  0
 18 48  1  0
 18 49  1  0
 19 50  1  0
 19 51  1  0
 20 52  1  0
 20 53  1  0
 21 54  1  0
 25 55  1  0
 25 56  1  0
 26 57  1  0
 26 58  1  0
 27 59  1  0
 28 60  1  0
 28 61  1  0
 29 62  1  0
 29 63  1  0
 31 64  1  0
 31 65  1  0
M  END
>  <smiles>  (38) 
c1ccc2c(c1)CCN(c1nc(NCCC3CCCCN3)nc(N3CCNCC3)n1)C2

>  <score_type>  (38) 
oracle

>  <origin>  (38) 
autodockgpu

>  <m_score__min__energy>  (38) 
-10.199999999999999

>  <m_primary>  (38) 
energy

>  <rmsd>  (38) 
5.006909224527379

>  <m_score__min__rmsd>  (38) 
5.006909224527379

>  <meeko>  (38) 
{"free_energy": -9.83, "intermolecular_energy": -11.62, "internal_energy": -0.89, "cluster_size": 38, "cluster_id": 1, "rank_in_cluster": 10}

>  <energy>  (38) 
-7.42

>  <cluster_rmsd>  (38) 
1.95

>  <cluster>  (38) 
1

$$$$

     RDKit          3D

 65 69  0  0  0  0  0  0  0  0999 V2000
  135.8650   77.9160  223.1180 C   0  0  0  0  0  0  0  0  0  0  0  0
  136.7570   78.9790  223.2550 C   0  0  0  0  0  0  0  0  0  0  0  0
  138.1140   78.8110  223.0080 C   0  0  0  0  0  0  0  0  0  0  0  0
  138.6020   77.5820  222.6210 C   0  0  0  0  0  0  0  0  0  0  0  0
  137.6980   76.5320  222.4890 C   0  0  0  0  0  0  0  0  0  0  0  0
  136.3500   76.6830  222.7310 C   0  0  0  0  0  0  0  0  0  0  0  0
  138.2970   75.2230  222.0650 C   0  0  0  0  0  0  0  0  0  0  0  0
  139.0470   75.5450  220.7670 C   0  0  0  0  0  0  0  0  0  0  0  0
  140.1220   76.4540  221.1600 N   0  0  0  0  0  0  0  0  0  0  0  0
  141.2860   76.4710  220.3330 C   0  0  0  0  0  0  0  0  0  0  0  0
  141.4850   77.4930  219.5060 N   0  0  0  0  0  0  0  0  0  0  0  0
  142.5780   77.5290  218.7160 C   0  0  0  0  0  0  0  0  0  0  0  0
  142.7510   78.6460  217.8480 N   0  0  0  0  0  0  0  0  0  0  0  0
  142.0640   79.9030  218.0540 C   0  0  0  0  0  0  0  0  0  0  0  0
  142.5430   80.5610  219.3280 C   0  0  0  0  0  0  0  0  0  0  0  0
  141.5030   80.2760  220.4030 C   0  0  2  0  0  0  0  0  0  0  0  0
  140.9560   81.5720  220.8760 C   0  0  0  0  0  0  0  0  0  0  0  0
  140.8510   81.6860  222.3740 C   0  0  0  0  0  0  0  0  0  0  0  0
  142.1680   81.2340  222.9590 C   0  0  0  0  0  0  0  0  0  0  0  0
  142.3090   79.7890  222.6530 C   0  0  0  0  0  0  0  0  0  0  0  0
  141.9340   79.3440  221.3710 N   0  0  0  0  0  0  0  0  0  0  0  0
  143.4410   76.5060  218.7970 N   0  0  0  0  0  0  0  0  0  0  0  0
  143.2720   75.4560  219.6200 C   0  0  0  0  0  0  0  0  0  0  0  0
  144.2280   74.4070  219.6560 N   0  0  0  0  0  0  0  0  0  0  0  0
  144.9470   74.0760  220.8690 C   0  0  0  0  0  0  0  0  0  0  0  0
  146.3110   73.5560  220.4020 C   0  0  0  0  0  0  0  0  0  0  0  0
  146.0820   72.2850  219.7890 N   0  0  0  0  0  0  0  0  0  0  0  0
  145.0640   72.2780  218.7750 C   0  0  0  0  0  0  0  0  0  0  0  0
  144.5000   73.6450  218.4730 C   0  0  0  0  0  0  0  0  0  0  0  0
  142.1710   75.4510  220.3970 N   0  0  0  0  0  0  0  0  0  0  0  0
  140.0210   77.3060  222.3370 C   0  0  0  0  0  0  0  0  0  0  0  0
  134.7921   78.0578  223.3151 H   0  0  0  0  0  0  0  0  0  0  0  0
  136.3807   79.9656  223.5633 H   0  0  0  0  0  0  0  0  0  0  0  0
  138.8012   79.6623  223.1218 H   0  0  0  0  0  0  0  0  0  0  0  0
  135.6665   75.8287  222.6168 H   0  0  0  0  0  0  0  0  0  0  0  0
  138.9905   74.8466  222.8314 H   0  0  0  0  0  0  0  0  0  0  0  0
  137.5360   74.4412  221.9248 H   0  0  0  0  0  0  0  0  0  0  0  0
  139.4608   74.6276  220.3230 H   0  0  0  0  0  0  0  0  0  0  0  0
  138.3857   75.9934  220.0109 H   0  0  0  0  0  0  0  0  0  0  0  0
  143.4080   78.5030  217.0480 H   0  0  0  0  0  0  0  0  0  0  0  0
  142.2657   80.5703  217.2031 H   0  0  0  0  0  0  0  0  0  0  0  0
  140.9839   79.7110  218.1351 H   0  0  0  0  0  0  0  0  0  0  0  0
  143.5160   80.1426  219.6251 H   0  0  0  0  0  0  0  0  0  0  0  0
  142.6676   81.6444  219.1839 H   0  0  0  0  0  0  0  0  0  0  0  0
  140.6463   79.7232  219.9902 H   0  0  0  0  0  0  0  0  0  0  0  0
  141.6125   82.3768  220.5137 H   0  0  0  0  0  0  0  0  0  0  0  0
  139.9325   81.6474  220.4800 H   0  0  0  0  0  0  0  0  0  0  0  0
  140.6529   82.7301  222.6579 H   0  0  0  0  0  0  0  0  0  0  0  0
  140.0262   81.0642  222.7522 H   0  0  0  0  0  0  0  0  0  0  0  0
  142.9959   81.7983  222.5050 H   0  0  0  0  0  0  0  0  0  0  0  0
  142.1942   81.4084  224.0448 H   0  0  0  0  0  0  0  0  0  0  0  0
  143.3682   79.5271  222.7930 H   0  0  0  0  0  0  0  0  0  0  0  0
  141.6000   79.2943  223.3332 H   0  0  0  0  0  0  0  0  0  0  0  0
  142.6240   78.7040  220.9170 H   0  0  0  0  0  0  0  0  0  0  0  0
  145.0704   74.9689  221.4995 H   0  0  0  0  0  0  0  0  0  0  0  0
  144.4094   73.3309  221.4738 H   0  0  0  0  0  0  0  0  0  0  0  0
  146.7529   74.2529  219.6746 H   0  0  0  0  0  0  0  0  0  0  0  0
  147.0090   73.4659  221.2474 H   0  0  0  0  0  0  0  0  0  0  0  0
  145.9340   71.5340  220.4730 H   0  0  0  0  0  0  0  0  0  0  0  0
  145.4974   71.8690  217.8504 H   0  0  0  0  0  0  0  0  0  0  0  0
  144.2343   71.6646  219.1563 H   0  0  0  0  0  0  0  0  0  0  0  0
  145.2264   74.1971  217.8586 H   0  0  0  0  0  0  0  0  0  0  0  0
  143.5457   73.5005  217.9453 H   0  0  0  0  0  0  0  0  0  0  0  0
  140.4754   76.7961  223.1993 H   0  0  0  0  0  0  0  0  0  0  0  0
  140.5495   78.2527  222.1517 H   0  0  0  0  0  0  0  0  0  0  0  0
  1  2  2  0
  2  3  1  0
  3  4  2  0
  4  5  1  0
  5  6  2  0
  5  7  1  0
  7  8  1  0
  8  9  1  0
  9 10  1  0
 10 11  2  0
 11 12  1  0
 12 13  1  0
 13 14  1  0
 14 15  1  0
 15 16  1  0
 16 17  1  0
 17 18  1  0
 18 19  1  0
 19 20  1  0
 20 21  1  0
 12 22  2  0
 22 23  1  0
 23 24  1  0
 24 25  1  0
 25 26  1  0
 26 27  1  0
 27 28  1  0
 28 29  1  0
 23 30  2  0
  9 31  1  0
  6  1  1  0
 30 10  1  0
 31  4  1  0
 21 16  1  0
 29 24  1  0
  1 32  1  0
  2 33  1  0
  3 34  1  0
  6 35  1  0
  7 36  1  0
  7 37  1  0
  8 38  1  0
  8 39  1  0
 13 40  1  0
 14 41  1  0
 14 42  1  0
 15 43  1  0
 15 44  1  0
 16 45  1  6
 17 46  1  0
 17 47  1  0
 18 48  1  0
 18 49  1  0
 19 50  1  0
 19 51  1  0
 20 52  1  0
 20 53  1  0
 21 54  1  0
 25 55  1  0
 25 56  1  0
 26 57  1  0
 26 58  1  0
 27 59  1  0
 28 60  1  0
 28 61  1  0
 29 62  1  0
 29 63  1  0
 31 64  1  0
 31 65  1  0
M  END
>  <smiles>  (39) 
c1ccc2c(c1)CCN(c1nc(NCCC3CCCCN3)nc(N3CCNCC3)n1)C2

>  <score_type>  (39) 
oracle

>  <origin>  (39) 
autodockgpu

>  <m_score__min__energy>  (39) 
-10.199999999999999

>  <m_primary>  (39) 
energy

>  <rmsd>  (39) 
5.063130119191595

>  <m_score__min__rmsd>  (39) 
5.063130119191595

>  <meeko>  (39) 
{"free_energy": -7.45, "intermolecular_energy": -9.24, "internal_energy": -2.25, "cluster_size": 2, "cluster_id": 4, "rank_in_cluster": 2}

>  <energy>  (39) 
-8.59

>  <cluster_rmsd>  (39) 
0.0

>  <cluster>  (39) 
2

$$$$

     RDKit          3D

 65 69  0  0  0  0  0  0  0  0999 V2000
  141.9450   81.6280  222.6310 C   0  0  0  0  0  0  0  0  0  0  0  0
  141.7160   80.9500  223.8280 C   0  0  0  0  0  0  0  0  0  0  0  0
  141.2240   79.6510  223.8330 C   0  0  0  0  0  0  0  0  0  0  0  0
  140.9520   79.0070  222.6440 C   0  0  0  0  0  0  0  0  0  0  0  0
  141.1860   79.6980  221.4590 C   0  0  0  0  0  0  0  0  0  0  0  0
  141.6740   80.9870  221.4390 C   0  0  0  0  0  0  0  0  0  0  0  0
  140.8700   78.9390  220.2050 C   0  0  0  0  0  0  0  0  0  0  0  0
  141.6800   77.6430  220.3230 C   0  0  0  0  0  0  0  0  0  0  0  0
  141.1070   76.9330  221.4650 N   0  0  0  0  0  0  0  0  0  0  0  0
  141.2410   75.5130  221.4730 C   0  0  0  0  0  0  0  0  0  0  0  0
  140.2720   74.7680  221.9970 N   0  0  0  0  0  0  0  0  0  0  0  0
  140.3780   73.4230  222.0160 C   0  0  0  0  0  0  0  0  0  0  0  0
  139.3130   72.6660  222.5850 N   0  0  0  0  0  0  0  0  0  0  0  0
  139.3090   71.2190  222.5960 C   0  0  0  0  0  0  0  0  0  0  0  0
  140.3030   70.6980  223.6090 C   0  0  0  0  0  0  0  0  0  0  0  0
  139.6230   70.7340  224.9710 C   0  0  2  0  0  0  0  0  0  0  0  0
  140.4790   71.5170  225.8970 C   0  0  0  0  0  0  0  0  0  0  0  0
  140.6700   70.8790  227.2480 C   0  0  0  0  0  0  0  0  0  0  0  0
  141.0360   69.4320  227.0200 C   0  0  0  0  0  0  0  0  0  0  0  0
  139.8580   68.7740  226.4030 C   0  0  0  0  0  0  0  0  0  0  0  0
  139.1580   69.4740  225.4020 N   0  0  0  0  0  0  0  0  0  0  0  0
  141.4850   72.8780  221.4920 N   0  0  0  0  0  0  0  0  0  0  0  0
  142.4850   73.5970  220.9550 C   0  0  0  0  0  0  0  0  0  0  0  0
  143.6300   72.9530  220.4170 N   0  0  0  0  0  0  0  0  0  0  0  0
  144.9680   73.2810  220.8660 C   0  0  0  0  0  0  0  0  0  0  0  0
  145.8700   73.0590  219.6470 C   0  0  0  0  0  0  0  0  0  0  0  0
  145.9260   71.6480  219.4250 N   0  0  0  0  0  0  0  0  0  0  0  0
  144.6470   70.9970  219.3450 C   0  0  0  0  0  0  0  0  0  0  0  0
  143.4780   71.9500  219.4040 C   0  0  0  0  0  0  0  0  0  0  0  0
  142.3490   74.9390  220.9510 N   0  0  0  0  0  0  0  0  0  0  0  0
  140.4290   77.6340  222.5470 C   0  0  0  0  0  0  0  0  0  0  0  0
  142.3351   82.6565  222.6367 H   0  0  0  0  0  0  0  0  0  0  0  0
  141.9284   81.4519  224.7835 H   0  0  0  0  0  0  0  0  0  0  0  0
  141.0507   79.1342  224.7884 H   0  0  0  0  0  0  0  0  0  0  0  0
  141.8459   81.5003  220.4814 H   0  0  0  0  0  0  0  0  0  0  0  0
  139.7937   78.7201  220.1444 H   0  0  0  0  0  0  0  0  0  0  0  0
  141.1229   79.5079  219.2981 H   0  0  0  0  0  0  0  0  0  0  0  0
  141.5815   77.0422  219.4068 H   0  0  0  0  0  0  0  0  0  0  0  0
  142.7533   77.8411  220.4596 H   0  0  0  0  0  0  0  0  0  0  0  0
  138.5300   73.2220  222.9960 H   0  0  0  0  0  0  0  0  0  0  0  0
  138.3025   70.8611  222.8583 H   0  0  0  0  0  0  0  0  0  0  0  0
  139.5913   70.8533  221.5977 H   0  0  0  0  0  0  0  0  0  0  0  0
  140.5897   69.6659  223.3586 H   0  0  0  0  0  0  0  0  0  0  0  0
  141.2144   71.3139  223.6125 H   0  0  0  0  0  0  0  0  0  0  0  0
  138.6648   71.2720  224.9227 H   0  0  0  0  0  0  0  0  0  0  0  0
  141.4677   71.6414  225.4312 H   0  0  0  0  0  0  0  0  0  0  0  0
  139.9659   72.4747  226.0689 H   0  0  0  0  0  0  0  0  0  0  0  0
  141.4778   71.3891  227.7932 H   0  0  0  0  0  0  0  0  0  0  0  0
  139.7499   70.9559  227.8459 H   0  0  0  0  0  0  0  0  0  0  0  0
  141.9021   69.3640  226.3453 H   0  0  0  0  0  0  0  0  0  0  0  0
  141.3047   68.9429  227.9679 H   0  0  0  0  0  0  0  0  0  0  0  0
  140.2062   67.8297  225.9590 H   0  0  0  0  0  0  0  0  0  0  0  0
  139.1352   68.6770  227.2265 H   0  0  0  0  0  0  0  0  0  0  0  0
  138.9340   68.9060  224.5540 H   0  0  0  0  0  0  0  0  0  0  0  0
  145.0175   74.3292  221.1960 H   0  0  0  0  0  0  0  0  0  0  0  0
  145.2762   72.6627  221.7220 H   0  0  0  0  0  0  0  0  0  0  0  0
  145.4471   73.5643  218.7662 H   0  0  0  0  0  0  0  0  0  0  0  0
  146.8751   73.4711  219.8199 H   0  0  0  0  0  0  0  0  0  0  0  0
  146.5500   71.1660  220.0820 H   0  0  0  0  0  0  0  0  0  0  0  0
  144.5972   70.4442  218.3953 H   0  0  0  0  0  0  0  0  0  0  0  0
  144.5673   70.3349  220.2198 H   0  0  0  0  0  0  0  0  0  0  0  0
  143.3808   72.4480  218.4280 H   0  0  0  0  0  0  0  0  0  0  0  0
  142.5827   71.3612  219.6524 H   0  0  0  0  0  0  0  0  0  0  0  0
  139.3486   77.6665  222.3430 H   0  0  0  0  0  0  0  0  0  0  0  0
  140.6066   77.1055  223.4952 H   0  0  0  0  0  0  0  0  0  0  0  0
  1  2  2  0
  2  3  1  0
  3  4  2  0
  4  5  1  0
  5  6  2  0
  5  7  1  0
  7  8  1  0
  8  9  1  0
  9 10  1  0
 10 11  2  0
 11 12  1  0
 12 13  1  0
 13 14  1  0
 14 15  1  0
 15 16  1  0
 16 17  1  0
 17 18  1  0
 18 19  1  0
 19 20  1  0
 20 21  1  0
 12 22  2  0
 22 23  1  0
 23 24  1  0
 24 25  1  0
 25 26  1  0
 26 27  1  0
 27 28  1  0
 28 29  1  0
 23 30  2  0
  9 31  1  0
  6  1  1  0
 30 10  1  0
 31  4  1  0
 21 16  1  0
 29 24  1  0
  1 32  1  0
  2 33  1  0
  3 34  1  0
  6 35  1  0
  7 36  1  0
  7 37  1  0
  8 38  1  0
  8 39  1  0
 13 40  1  0
 14 41  1  0
 14 42  1  0
 15 43  1  0
 15 44  1  0
 16 45  1  6
 17 46  1  0
 17 47  1  0
 18 48  1  0
 18 49  1  0
 19 50  1  0
 19 51  1  0
 20 52  1  0
 20 53  1  0
 21 54  1  0
 25 55  1  0
 25 56  1  0
 26 57  1  0
 26 58  1  0
 27 59  1  0
 28 60  1  0
 28 61  1  0
 29 62  1  0
 29 63  1  0
 31 64  1  0
 31 65  1  0
M  END
>  <smiles>  (40) 
c1ccc2c(c1)CCN(c1nc(NCCC3CCCCN3)nc(N3CCNCC3)n1)C2

>  <score_type>  (40) 
oracle

>  <origin>  (40) 
autodockgpu

>  <m_score__min__energy>  (40) 
-10.199999999999999

>  <m_primary>  (40) 
energy

>  <rmsd>  (40) 
5.017616890884873

>  <m_score__min__rmsd>  (40) 
5.017616890884873

>  <meeko>  (40) 
{"free_energy": -9.69, "intermolecular_energy": -11.48, "internal_energy": -0.91, "cluster_size": 38, "cluster_id": 1, "rank_in_cluster": 16}

>  <energy>  (40) 
-8.33

>  <cluster_rmsd>  (40) 
1.76

>  <cluster>  (40) 
2

$$$$

     RDKit          3D

 65 69  0  0  0  0  0  0  0  0999 V2000
  138.1880   80.8750  224.1890 C   0  0  0  0  0  0  0  0  0  0  0  0
  137.1940   79.9600  223.8390 C   0  0  0  0  0  0  0  0  0  0  0  0
  137.4750   78.8780  223.0150 C   0  0  0  0  0  0  0  0  0  0  0  0
  138.7500   78.6900  222.5270 C   0  0  0  0  0  0  0  0  0  0  0  0
  139.7290   79.6110  222.8850 C   0  0  0  0  0  0  0  0  0  0  0  0
  139.4660   80.6900  223.7010 C   0  0  0  0  0  0  0  0  0  0  0  0
  141.0930   79.3460  222.3200 C   0  0  0  0  0  0  0  0  0  0  0  0
  141.4190   77.9120  222.7550 C   0  0  0  0  0  0  0  0  0  0  0  0
  140.4460   77.0690  222.0640 N   0  0  0  0  0  0  0  0  0  0  0  0
  140.8300   75.7180  221.8100 C   0  0  0  0  0  0  0  0  0  0  0  0
  140.0520   74.7270  222.2350 N   0  0  0  0  0  0  0  0  0  0  0  0
  140.3960   73.4430  222.0060 C   0  0  0  0  0  0  0  0  0  0  0  0
  139.5300   72.4140  222.4790 N   0  0  0  0  0  0  0  0  0  0  0  0
  140.0220   71.1260  222.9160 C   0  0  0  0  0  0  0  0  0  0  0  0
  138.8870   70.2860  223.4590 C   0  0  0  0  0  0  0  0  0  0  0  0
  138.9630   70.3500  224.9780 C   0  0  2  0  0  0  0  0  0  0  0  0
  140.1700   71.1290  225.3510 C   0  0  0  0  0  0  0  0  0  0  0  0
  140.9920   70.5030  226.4470 C   0  0  0  0  0  0  0  0  0  0  0  0
  141.1870   69.0480  226.0950 C   0  0  0  0  0  0  0  0  0  0  0  0
  139.8510   68.4030  226.1470 C   0  0  0  0  0  0  0  0  0  0  0  0
  138.7570   69.1030  225.6050 N   0  0  0  0  0  0  0  0  0  0  0  0
  141.5370   73.2110  221.3420 N   0  0  0  0  0  0  0  0  0  0  0  0
  142.3480   74.1860  220.8980 C   0  0  0  0  0  0  0  0  0  0  0  0
  143.5430   73.8690  220.1990 N   0  0  0  0  0  0  0  0  0  0  0  0
  143.8140   74.3990  218.8790 C   0  0  0  0  0  0  0  0  0  0  0  0
  144.6510   73.3250  218.1760 C   0  0  0  0  0  0  0  0  0  0  0  0
  145.9340   73.3210  218.8070 N   0  0  0  0  0  0  0  0  0  0  0  0
  145.9030   73.2080  220.2390 C   0  0  0  0  0  0  0  0  0  0  0  0
  144.5160   73.0060  220.8010 C   0  0  0  0  0  0  0  0  0  0  0  0
  141.9760   75.4590  221.1420 N   0  0  0  0  0  0  0  0  0  0  0  0
  139.1450   77.5750  221.6490 C   0  0  0  0  0  0  0  0  0  0  0  0
  137.9570   81.7291  224.8426 H   0  0  0  0  0  0  0  0  0  0  0  0
  136.1720   80.0980  224.2218 H   0  0  0  0  0  0  0  0  0  0  0  0
  136.6770   78.1685  222.7509 H   0  0  0  0  0  0  0  0  0  0  0  0
  140.2672   81.3974  223.9611 H   0  0  0  0  0  0  0  0  0  0  0  0
  141.0814   79.4260  221.2230 H   0  0  0  0  0  0  0  0  0  0  0  0
  141.8403   80.0704  222.6760 H   0  0  0  0  0  0  0  0  0  0  0  0
  142.4429   77.6423  222.4570 H   0  0  0  0  0  0  0  0  0  0  0  0
  141.3634   77.7920  223.8470 H   0  0  0  0  0  0  0  0  0  0  0  0
  138.5110   72.6470  222.4900 H   0  0  0  0  0  0  0  0  0  0  0  0
  140.4828   70.6055  222.0635 H   0  0  0  0  0  0  0  0  0  0  0  0
  140.7660   71.2788  223.7117 H   0  0  0  0  0  0  0  0  0  0  0  0
  137.9229   70.6871  223.1131 H   0  0  0  0  0  0  0  0  0  0  0  0
  138.9694   69.2466  223.1084 H   0  0  0  0  0  0  0  0  0  0  0  0
  138.1096   70.9044  225.3957 H   0  0  0  0  0  0  0  0  0  0  0  0
  140.8048   71.2308  224.4584 H   0  0  0  0  0  0  0  0  0  0  0  0
  139.8163   72.0977  225.7338 H   0  0  0  0  0  0  0  0  0  0  0  0
  141.9677   71.0059  226.5183 H   0  0  0  0  0  0  0  0  0  0  0  0
  140.4827   70.6015  227.4170 H   0  0  0  0  0  0  0  0  0  0  0  0
  141.6102   68.9580  225.0837 H   0  0  0  0  0  0  0  0  0  0  0  0
  141.8822   68.5652  226.7975 H   0  0  0  0  0  0  0  0  0  0  0  0
  139.9279   67.4478  225.6070 H   0  0  0  0  0  0  0  0  0  0  0  0
  139.6241   68.3282  227.2207 H   0  0  0  0  0  0  0  0  0  0  0  0
  138.1400   68.5290  224.9870 H   0  0  0  0  0  0  0  0  0  0  0  0
  142.8748   74.5737  218.3337 H   0  0  0  0  0  0  0  0  0  0  0  0
  144.3399   75.3641  218.9246 H   0  0  0  0  0  0  0  0  0  0  0  0
  144.1725   72.3406  218.2851 H   0  0  0  0  0  0  0  0  0  0  0  0
  144.7413   73.5369  217.1004 H   0  0  0  0  0  0  0  0  0  0  0  0
  146.5280   74.1020  218.5070 H   0  0  0  0  0  0  0  0  0  0  0  0
  146.5256   72.3503  220.5334 H   0  0  0  0  0  0  0  0  0  0  0  0
  146.2797   74.1583  220.6452 H   0  0  0  0  0  0  0  0  0  0  0  0
  144.2151   71.9622  220.6282 H   0  0  0  0  0  0  0  0  0  0  0  0
  144.5544   73.2467  221.8737 H   0  0  0  0  0  0  0  0  0  0  0  0
  139.2039   77.9298  220.6095 H   0  0  0  0  0  0  0  0  0  0  0  0
  138.3986   76.7701  221.7195 H   0  0  0  0  0  0  0  0  0  0  0  0
  1  2  2  0
  2  3  1  0
  3  4  2  0
  4  5  1  0
  5  6  2  0
  5  7  1  0
  7  8  1  0
  8  9  1  0
  9 10  1  0
 10 11  2  0
 11 12  1  0
 12 13  1  0
 13 14  1  0
 14 15  1  0
 15 16  1  0
 16 17  1  0
 17 18  1  0
 18 19  1  0
 19 20  1  0
 20 21  1  0
 12 22  2  0
 22 23  1  0
 23 24  1  0
 24 25  1  0
 25 26  1  0
 26 27  1  0
 27 28  1  0
 28 29  1  0
 23 30  2  0
  9 31  1  0
  6  1  1  0
 30 10  1  0
 31  4  1  0
 21 16  1  0
 29 24  1  0
  1 32  1  0
  2 33  1  0
  3 34  1  0
  6 35  1  0
  7 36  1  0
  7 37  1  0
  8 38  1  0
  8 39  1  0
 13 40  1  0
 14 41  1  0
 14 42  1  0
 15 43  1  0
 15 44  1  0
 16 45  1  1
 17 46  1  0
 17 47  1  0
 18 48  1  0
 18 49  1  0
 19 50  1  0
 19 51  1  0
 20 52  1  0
 20 53  1  0
 21 54  1  0
 25 55  1  0
 25 56  1  0
 26 57  1  0
 26 58  1  0
 27 59  1  0
 28 60  1  0
 28 61  1  0
 29 62  1  0
 29 63  1  0
 31 64  1  0
 31 65  1  0
M  END
>  <smiles>  (41) 
c1ccc2c(c1)CCN(c1nc(NCCC3CCCCN3)nc(N3CCNCC3)n1)C2

>  <score_type>  (41) 
oracle

>  <origin>  (41) 
autodockgpu

>  <m_score__min__energy>  (41) 
-10.199999999999999

>  <m_primary>  (41) 
energy

>  <rmsd>  (41) 
5.850648556988807

>  <m_score__min__rmsd>  (41) 
5.850648556988807

>  <meeko>  (41) 
{"free_energy": -8.93, "intermolecular_energy": -10.72, "internal_energy": -0.86, "cluster_size": 38, "cluster_id": 1, "rank_in_cluster": 35}

>  <energy>  (41) 
-7.91

>  <cluster_rmsd>  (41) 
1.18

>  <cluster>  (41) 
2

$$$$

     RDKit          3D

 65 69  0  0  0  0  0  0  0  0999 V2000
  141.8720   81.6330  222.6240 C   0  0  0  0  0  0  0  0  0  0  0  0
  141.7870   80.9070  223.8120 C   0  0  0  0  0  0  0  0  0  0  0  0
  141.3510   79.5890  223.8160 C   0  0  0  0  0  0  0  0  0  0  0  0
  140.9920   78.9730  222.6360 C   0  0  0  0  0  0  0  0  0  0  0  0
  141.0830   79.7120  221.4600 C   0  0  0  0  0  0  0  0  0  0  0  0
  141.5140   81.0200  221.4410 C   0  0  0  0  0  0  0  0  0  0  0  0
  140.6780   78.9810  220.2140 C   0  0  0  0  0  0  0  0  0  0  0  0
  141.5480   77.7180  220.2080 C   0  0  0  0  0  0  0  0  0  0  0  0
  141.1170   76.9470  221.3720 N   0  0  0  0  0  0  0  0  0  0  0  0
  141.3080   75.5340  221.3160 C   0  0  0  0  0  0  0  0  0  0  0  0
  140.4890   74.7370  221.9940 N   0  0  0  0  0  0  0  0  0  0  0  0
  140.6530   73.3980  221.9550 C   0  0  0  0  0  0  0  0  0  0  0  0
  139.7490   72.5820  222.6960 N   0  0  0  0  0  0  0  0  0  0  0  0
  140.1030   71.2610  223.1670 C   0  0  0  0  0  0  0  0  0  0  0  0
  139.5550   71.0320  224.5570 C   0  0  0  0  0  0  0  0  0  0  0  0
  140.7310   70.6680  225.4540 C   0  0  2  0  0  0  0  0  0  0  0  0
  140.4010   69.4070  226.1630 C   0  0  0  0  0  0  0  0  0  0  0  0
  140.7200   69.4270  227.6350 C   0  0  0  0  0  0  0  0  0  0  0  0
  140.1620   70.7090  228.2040 C   0  0  0  0  0  0  0  0  0  0  0  0
  140.9220   71.8270  227.5910 C   0  0  0  0  0  0  0  0  0  0  0  0
  141.2140   71.7520  226.2170 N   0  0  0  0  0  0  0  0  0  0  0  0
  141.6600   72.9130  221.2160 N   0  0  0  0  0  0  0  0  0  0  0  0
  142.5080   73.6880  220.5170 C   0  0  0  0  0  0  0  0  0  0  0  0
  143.5540   73.1070  219.7530 N   0  0  0  0  0  0  0  0  0  0  0  0
  144.0790   71.7920  220.0600 C   0  0  0  0  0  0  0  0  0  0  0  0
  145.5540   71.8390  219.6460 C   0  0  0  0  0  0  0  0  0  0  0  0
  145.5810   71.8860  218.2180 N   0  0  0  0  0  0  0  0  0  0  0  0
  144.7660   72.9150  217.6310 C   0  0  0  0  0  0  0  0  0  0  0  0
  144.1150   73.8230  218.6460 C   0  0  0  0  0  0  0  0  0  0  0  0
  142.3180   75.0210  220.5760 N   0  0  0  0  0  0  0  0  0  0  0  0
  140.5180   77.5820  222.5380 C   0  0  0  0  0  0  0  0  0  0  0  0
  142.2187   82.6769  222.6302 H   0  0  0  0  0  0  0  0  0  0  0  0
  142.0699   81.3864  224.7607 H   0  0  0  0  0  0  0  0  0  0  0  0
  141.2917   79.0342  224.7640 H   0  0  0  0  0  0  0  0  0  0  0  0
  141.5723   81.5711  220.4908 H   0  0  0  0  0  0  0  0  0  0  0  0
  139.6106   78.7174  220.2478 H   0  0  0  0  0  0  0  0  0  0  0  0
  140.8187   79.5894  219.3084 H   0  0  0  0  0  0  0  0  0  0  0  0
  141.3866   77.1434  219.2840 H   0  0  0  0  0  0  0  0  0  0  0  0
  142.6205   77.9588  220.2499 H   0  0  0  0  0  0  0  0  0  0  0  0
  138.8080   72.9980  222.8810 H   0  0  0  0  0  0  0  0  0  0  0  0
  139.6834   70.5081  222.4835 H   0  0  0  0  0  0  0  0  0  0  0  0
  141.1992   71.1752  223.1974 H   0  0  0  0  0  0  0  0  0  0  0  0
  139.0697   71.9477  224.9258 H   0  0  0  0  0  0  0  0  0  0  0  0
  138.8055   70.2268  224.5521 H   0  0  0  0  0  0  0  0  0  0  0  0
  141.6314   70.4506  224.8607 H   0  0  0  0  0  0  0  0  0  0  0  0
  139.3240   69.2164  226.0456 H   0  0  0  0  0  0  0  0  0  0  0  0
  141.0235   68.6188  225.7144 H   0  0  0  0  0  0  0  0  0  0  0  0
  140.2554   68.5624  228.1315 H   0  0  0  0  0  0  0  0  0  0  0  0
  141.8068   69.3729  227.7962 H   0  0  0  0  0  0  0  0  0  0  0  0
  139.0940   70.7983  227.9560 H   0  0  0  0  0  0  0  0  0  0  0  0
  140.2583   70.7251  229.2997 H   0  0  0  0  0  0  0  0  0  0  0  0
  140.3389   72.7458  227.7518 H   0  0  0  0  0  0  0  0  0  0  0  0
  141.9052   71.7931  228.0831 H   0  0  0  0  0  0  0  0  0  0  0  0
  141.0200   72.6310  225.6850 H   0  0  0  0  0  0  0  0  0  0  0  0
  143.9872   71.5820  221.1358 H   0  0  0  0  0  0  0  0  0  0  0  0
  143.5300   70.9978  219.5328 H   0  0  0  0  0  0  0  0  0  0  0  0
  146.0361   72.7352  220.0635 H   0  0  0  0  0  0  0  0  0  0  0  0
  146.0976   70.9598  220.0222 H   0  0  0  0  0  0  0  0  0  0  0  0
  145.3990   70.9740  217.7850 H   0  0  0  0  0  0  0  0  0  0  0  0
  145.3998   73.5273  216.9726 H   0  0  0  0  0  0  0  0  0  0  0  0
  143.9563   72.4115  217.0825 H   0  0  0  0  0  0  0  0  0  0  0  0
  144.8725   74.5232  219.0280 H   0  0  0  0  0  0  0  0  0  0  0  0
  143.2916   74.3484  218.1401 H   0  0  0  0  0  0  0  0  0  0  0  0
  139.4226   77.5739  222.4379 H   0  0  0  0  0  0  0  0  0  0  0  0
  140.8069   77.0309  223.4451 H   0  0  0  0  0  0  0  0  0  0  0  0
  1  2  2  0
  2  3  1  0
  3  4  2  0
  4  5  1  0
  5  6  2  0
  5  7  1  0
  7  8  1  0
  8  9  1  0
  9 10  1  0
 10 11  2  0
 11 12  1  0
 12 13  1  0
 13 14  1  0
 14 15  1  0
 15 16  1  0
 16 17  1  0
 17 18  1  0
 18 19  1  0
 19 20  1  0
 20 21  1  0
 12 22  2  0
 22 23  1  0
 23 24  1  0
 24 25  1  0
 25 26  1  0
 26 27  1  0
 27 28  1  0
 28 29  1  0
 23 30  2  0
  9 31  1  0
  6  1  1  0
 30 10  1  0
 31  4  1  0
 21 16  1  0
 29 24  1  0
  1 32  1  0
  2 33  1  0
  3 34  1  0
  6 35  1  0
  7 36  1  0
  7 37  1  0
  8 38  1  0
  8 39  1  0
 13 40  1  0
 14 41  1  0
 14 42  1  0
 15 43  1  0
 15 44  1  0
 16 45  1  6
 17 46  1  0
 17 47  1  0
 18 48  1  0
 18 49  1  0
 19 50  1  0
 19 51  1  0
 20 52  1  0
 20 53  1  0
 21 54  1  0
 25 55  1  0
 25 56  1  0
 26 57  1  0
 26 58  1  0
 27 59  1  0
 28 60  1  0
 28 61  1  0
 29 62  1  0
 29 63  1  0
 31 64  1  0
 31 65  1  0
M  END
>  <smiles>  (42) 
c1ccc2c(c1)CCN(c1nc(NCCC3CCCCN3)nc(N3CCNCC3)n1)C2

>  <score_type>  (42) 
oracle

>  <origin>  (42) 
autodockgpu

>  <m_score__min__energy>  (42) 
-10.199999999999999

>  <m_primary>  (42) 
energy

>  <rmsd>  (42) 
5.020625949262722

>  <m_score__min__rmsd>  (42) 
5.020625949262722

>  <meeko>  (42) 
{"free_energy": -9.74, "intermolecular_energy": -11.53, "internal_energy": -0.77, "cluster_size": 38, "cluster_id": 1, "rank_in_cluster": 14}

>  <energy>  (42) 
-7.56

>  <cluster_rmsd>  (42) 
1.94

>  <cluster>  (42) 
2

$$$$

     RDKit          3D

 65 69  0  0  0  0  0  0  0  0999 V2000
  139.1910   69.6710  228.1380 C   0  0  0  0  0  0  0  0  0  0  0  0
  140.2710   70.5330  228.3250 C   0  0  0  0  0  0  0  0  0  0  0  0
  140.9920   71.0220  227.2440 C   0  0  0  0  0  0  0  0  0  0  0  0
  140.6480   70.6600  225.9590 C   0  0  0  0  0  0  0  0  0  0  0  0
  139.5680   69.7990  225.7900 C   0  0  0  0  0  0  0  0  0  0  0  0
  138.8430   69.3050  226.8530 C   0  0  0  0  0  0  0  0  0  0  0  0
  139.2480   69.4470  224.3680 C   0  0  0  0  0  0  0  0  0  0  0  0
  139.0630   70.7990  223.6680 C   0  0  0  0  0  0  0  0  0  0  0  0
  140.3760   71.4400  223.7160 N   0  0  0  0  0  0  0  0  0  0  0  0
  140.6640   72.3940  222.6940 C   0  0  0  0  0  0  0  0  0  0  0  0
  139.8060   73.3850  222.4650 N   0  0  0  0  0  0  0  0  0  0  0  0
  140.0590   74.2980  221.5040 C   0  0  0  0  0  0  0  0  0  0  0  0
  139.1130   75.3430  221.2970 N   0  0  0  0  0  0  0  0  0  0  0  0
  139.5060   76.7280  221.1540 C   0  0  0  0  0  0  0  0  0  0  0  0
  140.8440   76.9670  221.8170 C   0  0  0  0  0  0  0  0  0  0  0  0
  140.6560   78.0950  222.8230 C   0  0  2  0  0  0  0  0  0  0  0  0
  139.9370   79.2040  222.1480 C   0  0  0  0  0  0  0  0  0  0  0  0
  140.5250   80.5660  222.4070 C   0  0  0  0  0  0  0  0  0  0  0  0
  142.0150   80.4690  222.1860 C   0  0  0  0  0  0  0  0  0  0  0  0
  142.5550   79.5670  223.2350 C   0  0  0  0  0  0  0  0  0  0  0  0
  141.8270   78.4050  223.5460 N   0  0  0  0  0  0  0  0  0  0  0  0
  141.1920   74.1660  220.8010 N   0  0  0  0  0  0  0  0  0  0  0  0
  142.0820   73.1790  221.0040 C   0  0  0  0  0  0  0  0  0  0  0  0
  143.2640   73.1000  220.2210 N   0  0  0  0  0  0  0  0  0  0  0  0
  144.2140   72.0200  220.3870 C   0  0  0  0  0  0  0  0  0  0  0  0
  145.5800   72.6260  220.0490 C   0  0  0  0  0  0  0  0  0  0  0  0
  145.5880   72.8680  218.6400 N   0  0  0  0  0  0  0  0  0  0  0  0
  144.4660   73.6200  218.1490 C   0  0  0  0  0  0  0  0  0  0  0  0
  143.5390   74.1050  219.2380 C   0  0  0  0  0  0  0  0  0  0  0  0
  141.8010   72.2830  221.9710 N   0  0  0  0  0  0  0  0  0  0  0  0
  141.3500   71.1250  224.7520 C   0  0  0  0  0  0  0  0  0  0  0  0
  138.6253   69.2887  229.0005 H   0  0  0  0  0  0  0  0  0  0  0  0
  140.5562   70.8302  229.3450 H   0  0  0  0  0  0  0  0  0  0  0  0
  141.8409   71.7008  227.4134 H   0  0  0  0  0  0  0  0  0  0  0  0
  137.9954   68.6258  226.6793 H   0  0  0  0  0  0  0  0  0  0  0  0
  140.0751   68.8833  223.9118 H   0  0  0  0  0  0  0  0  0  0  0  0
  138.3556   68.8091  224.2865 H   0  0  0  0  0  0  0  0  0  0  0  0
  138.7433   70.6529  222.6257 H   0  0  0  0  0  0  0  0  0  0  0  0
  138.2894   71.4109  224.1549 H   0  0  0  0  0  0  0  0  0  0  0  0
  138.1110   75.0480  221.2540 H   0  0  0  0  0  0  0  0  0  0  0  0
  139.5820   76.9747  220.0847 H   0  0  0  0  0  0  0  0  0  0  0  0
  138.7499   77.3652  221.6359 H   0  0  0  0  0  0  0  0  0  0  0  0
  141.1769   76.0542  222.3328 H   0  0  0  0  0  0  0  0  0  0  0  0
  141.6064   77.2341  221.0704 H   0  0  0  0  0  0  0  0  0  0  0  0
  140.0084   77.7824  223.6554 H   0  0  0  0  0  0  0  0  0  0  0  0
  139.9574   79.0195  221.0638 H   0  0  0  0  0  0  0  0  0  0  0  0
  138.9163   79.2161  222.5579 H   0  0  0  0  0  0  0  0  0  0  0  0
  140.0899   81.3005  221.7134 H   0  0  0  0  0  0  0  0  0  0  0  0
  140.3072   80.8919  223.4348 H   0  0  0  0  0  0  0  0  0  0  0  0
  142.2221   80.0540  221.1886 H   0  0  0  0  0  0  0  0  0  0  0  0
  142.4846   81.4620  222.2443 H   0  0  0  0  0  0  0  0  0  0  0  0
  143.5559   79.2482  222.9085 H   0  0  0  0  0  0  0  0  0  0  0  0
  142.5214   80.1667  224.1565 H   0  0  0  0  0  0  0  0  0  0  0  0
  142.4050   77.5360  223.6100 H   0  0  0  0  0  0  0  0  0  0  0  0
  144.2017   71.6523  221.4236 H   0  0  0  0  0  0  0  0  0  0  0  0
  143.9755   71.1618  219.7415 H   0  0  0  0  0  0  0  0  0  0  0  0
  145.7213   73.5698  220.5960 H   0  0  0  0  0  0  0  0  0  0  0  0
  146.3953   71.9461  220.3371 H   0  0  0  0  0  0  0  0  0  0  0  0
  145.7360   72.0140  218.0910 H   0  0  0  0  0  0  0  0  0  0  0  0
  144.8467   74.4948  217.6015 H   0  0  0  0  0  0  0  0  0  0  0  0
  143.8822   72.9449  217.5060 H   0  0  0  0  0  0  0  0  0  0  0  0
  144.0046   74.9673  219.7377 H   0  0  0  0  0  0  0  0  0  0  0  0
  142.5838   74.3750  218.7640 H   0  0  0  0  0  0  0  0  0  0  0  0
  142.0250   70.3343  224.3927 H   0  0  0  0  0  0  0  0  0  0  0  0
  141.9352   72.0251  224.9916 H   0  0  0  0  0  0  0  0  0  0  0  0
  1  2  2  0
  2  3  1  0
  3  4  2  0
  4  5  1  0
  5  6  2  0
  5  7  1  0
  7  8  1  0
  8  9  1  0
  9 10  1  0
 10 11  2  0
 11 12  1  0
 12 13  1  0
 13 14  1  0
 14 15  1  0
 15 16  1  0
 16 17  1  0
 17 18  1  0
 18 19  1  0
 19 20  1  0
 20 21  1  0
 12 22  2  0
 22 23  1  0
 23 24  1  0
 24 25  1  0
 25 26  1  0
 26 27  1  0
 27 28  1  0
 28 29  1  0
 23 30  2  0
  9 31  1  0
  6  1  1  0
 30 10  1  0
 31  4  1  0
 21 16  1  0
 29 24  1  0
  1 32  1  0
  2 33  1  0
  3 34  1  0
  6 35  1  0
  7 36  1  0
  7 37  1  0
  8 38  1  0
  8 39  1  0
 13 40  1  0
 14 41  1  0
 14 42  1  0
 15 43  1  0
 15 44  1  0
 16 45  1  1
 17 46  1  0
 17 47  1  0
 18 48  1  0
 18 49  1  0
 19 50  1  0
 19 51  1  0
 20 52  1  0
 20 53  1  0
 21 54  1  0
 25 55  1  0
 25 56  1  0
 26 57  1  0
 26 58  1  0
 27 59  1  0
 28 60  1  0
 28 61  1  0
 29 62  1  0
 29 63  1  0
 31 64  1  0
 31 65  1  0
M  END
>  <smiles>  (43) 
c1ccc2c(c1)CCN(c1nc(NCCC3CCCCN3)nc(N3CCNCC3)n1)C2

>  <score_type>  (43) 
oracle

>  <origin>  (43) 
autodockgpu

>  <m_score__min__energy>  (43) 
-10.199999999999999

>  <m_primary>  (43) 
energy

>  <rmsd>  (43) 
10.954858630298027

>  <m_score__min__rmsd>  (43) 
10.954858630298027

>  <meeko>  (43) 
{"free_energy": -8.59, "intermolecular_energy": -10.38, "internal_energy": -0.9, "cluster_size": 5, "cluster_id": 2, "rank_in_cluster": 1}

>  <energy>  (43) 
-7.54

>  <cluster_rmsd>  (43) 
1.23

>  <cluster>  (43) 
2

$$$$

     RDKit          3D

 65 69  0  0  0  0  0  0  0  0999 V2000
  141.5910   81.8360  222.3380 C   0  0  0  0  0  0  0  0  0  0  0  0
  142.3570   81.1930  223.3110 C   0  0  0  0  0  0  0  0  0  0  0  0
  142.1890   79.8400  223.5760 C   0  0  0  0  0  0  0  0  0  0  0  0
  141.2560   79.1060  222.8760 C   0  0  0  0  0  0  0  0  0  0  0  0
  140.5010   79.7620  221.9090 C   0  0  0  0  0  0  0  0  0  0  0  0
  140.6550   81.1040  221.6350 C   0  0  0  0  0  0  0  0  0  0  0  0
  139.5060   78.9040  221.1860 C   0  0  0  0  0  0  0  0  0  0  0  0
  140.3340   77.7420  220.6240 C   0  0  0  0  0  0  0  0  0  0  0  0
  140.8230   77.0180  221.7960 N   0  0  0  0  0  0  0  0  0  0  0  0
  141.1160   75.6320  221.6190 C   0  0  0  0  0  0  0  0  0  0  0  0
  140.3000   74.7210  222.1420 N   0  0  0  0  0  0  0  0  0  0  0  0
  140.5580   73.4050  221.9880 C   0  0  0  0  0  0  0  0  0  0  0  0
  139.6550   72.4650  222.5620 N   0  0  0  0  0  0  0  0  0  0  0  0
  139.9400   71.0480  222.6170 C   0  0  0  0  0  0  0  0  0  0  0  0
  138.9010   70.3330  223.4510 C   0  0  0  0  0  0  0  0  0  0  0  0
  139.2010   70.6420  224.9110 C   0  0  2  0  0  0  0  0  0  0  0  0
  140.6250   71.0480  225.0170 C   0  0  0  0  0  0  0  0  0  0  0  0
  141.3670   70.4010  226.1570 C   0  0  0  0  0  0  0  0  0  0  0  0
  141.0690   68.9210  226.1120 C   0  0  0  0  0  0  0  0  0  0  0  0
  139.6220   68.7580  226.4010 C   0  0  0  0  0  0  0  0  0  0  0  0
  138.7230   69.6600  225.8050 N   0  0  0  0  0  0  0  0  0  0  0  0
  141.6540   73.0610  221.2970 N   0  0  0  0  0  0  0  0  0  0  0  0
  142.5010   73.9530  220.7550 C   0  0  0  0  0  0  0  0  0  0  0  0
  143.6440   73.5180  220.0330 N   0  0  0  0  0  0  0  0  0  0  0  0
  144.4500   72.4040  220.4890 C   0  0  0  0  0  0  0  0  0  0  0  0
  145.8750   72.7150  220.0170 C   0  0  0  0  0  0  0  0  0  0  0  0
  145.8790   72.5760  218.5950 N   0  0  0  0  0  0  0  0  0  0  0  0
  144.8520   73.3120  217.9110 C   0  0  0  0  0  0  0  0  0  0  0  0
  144.0230   74.1840  218.8230 C   0  0  0  0  0  0  0  0  0  0  0  0
  142.2160   75.2600  220.9260 N   0  0  0  0  0  0  0  0  0  0  0  0
  141.0060   77.6700  223.0850 C   0  0  0  0  0  0  0  0  0  0  0  0
  141.7305   82.9080  222.1345 H   0  0  0  0  0  0  0  0  0  0  0  0
  143.1057   81.7667  223.8771 H   0  0  0  0  0  0  0  0  0  0  0  0
  142.8030   79.3524  224.3476 H   0  0  0  0  0  0  0  0  0  0  0  0
  140.0378   81.5873  220.8633 H   0  0  0  0  0  0  0  0  0  0  0  0
  138.7367   78.5331  221.8793 H   0  0  0  0  0  0  0  0  0  0  0  0
  138.9734   79.4564  220.3979 H   0  0  0  0  0  0  0  0  0  0  0  0
  139.7071   77.0878  220.0003 H   0  0  0  0  0  0  0  0  0  0  0  0
  141.1573   78.0948  219.9855 H   0  0  0  0  0  0  0  0  0  0  0  0
  138.7670   72.8620  222.9440 H   0  0  0  0  0  0  0  0  0  0  0  0
  139.9315   70.6368  221.5968 H   0  0  0  0  0  0  0  0  0  0  0  0
  140.9288   70.9006  223.0759 H   0  0  0  0  0  0  0  0  0  0  0  0
  137.8952   70.6932  223.1891 H   0  0  0  0  0  0  0  0  0  0  0  0
  138.9336   69.2488  223.2679 H   0  0  0  0  0  0  0  0  0  0  0  0
  138.6164   71.5051  225.2621 H   0  0  0  0  0  0  0  0  0  0  0  0
  141.1315   70.7788  224.0784 H   0  0  0  0  0  0  0  0  0  0  0  0
  140.6320   72.1311  225.2088 H   0  0  0  0  0  0  0  0  0  0  0  0
  142.4482   70.5698  226.0451 H   0  0  0  0  0  0  0  0  0  0  0  0
  141.0498   70.8306  227.1187 H   0  0  0  0  0  0  0  0  0  0  0  0
  141.3022   68.5193  225.1149 H   0  0  0  0  0  0  0  0  0  0  0  0
  141.6789   68.3763  226.8477 H   0  0  0  0  0  0  0  0  0  0  0  0
  139.3354   67.7473  226.0749 H   0  0  0  0  0  0  0  0  0  0  0  0
  139.5339   68.9554  227.4795 H   0  0  0  0  0  0  0  0  0  0  0  0
  137.8840   69.2120  225.3710 H   0  0  0  0  0  0  0  0  0  0  0  0
  144.4157   72.3272  221.5858 H   0  0  0  0  0  0  0  0  0  0  0  0
  144.0865   71.4451  220.0910 H   0  0  0  0  0  0  0  0  0  0  0  0
  146.1511   73.7421  220.2978 H   0  0  0  0  0  0  0  0  0  0  0  0
  146.6022   72.0332  220.4820 H   0  0  0  0  0  0  0  0  0  0  0  0
  145.9020   71.5960  218.2910 H   0  0  0  0  0  0  0  0  0  0  0  0
  145.3288   73.9537  217.1554 H   0  0  0  0  0  0  0  0  0  0  0  0
  144.1702   72.5738  217.4635 H   0  0  0  0  0  0  0  0  0  0  0  0
  144.6087   75.0782  219.0825 H   0  0  0  0  0  0  0  0  0  0  0  0
  143.0997   74.4436  218.2843 H   0  0  0  0  0  0  0  0  0  0  0  0
  140.0991   77.5402  223.6939 H   0  0  0  0  0  0  0  0  0  0  0  0
  141.8640   77.2198  223.6058 H   0  0  0  0  0  0  0  0  0  0  0  0
  1  2  2  0
  2  3  1  0
  3  4  2  0
  4  5  1  0
  5  6  2  0
  5  7  1  0
  7  8  1  0
  8  9  1  0
  9 10  1  0
 10 11  2  0
 11 12  1  0
 12 13  1  0
 13 14  1  0
 14 15  1  0
 15 16  1  0
 16 17  1  0
 17 18  1  0
 18 19  1  0
 19 20  1  0
 20 21  1  0
 12 22  2  0
 22 23  1  0
 23 24  1  0
 24 25  1  0
 25 26  1  0
 26 27  1  0
 27 28  1  0
 28 29  1  0
 23 30  2  0
  9 31  1  0
  6  1  1  0
 30 10  1  0
 31  4  1  0
 21 16  1  0
 29 24  1  0
  1 32  1  0
  2 33  1  0
  3 34  1  0
  6 35  1  0
  7 36  1  0
  7 37  1  0
  8 38  1  0
  8 39  1  0
 13 40  1  0
 14 41  1  0
 14 42  1  0
 15 43  1  0
 15 44  1  0
 16 45  1  1
 17 46  1  0
 17 47  1  0
 18 48  1  0
 18 49  1  0
 19 50  1  0
 19 51  1  0
 20 52  1  0
 20 53  1  0
 21 54  1  0
 25 55  1  0
 25 56  1  0
 26 57  1  0
 26 58  1  0
 27 59  1  0
 28 60  1  0
 28 61  1  0
 29 62  1  0
 29 63  1  0
 31 64  1  0
 31 65  1  0
M  END
>  <smiles>  (44) 
c1ccc2c(c1)CCN(c1nc(NCCC3CCCCN3)nc(N3CCNCC3)n1)C2

>  <score_type>  (44) 
oracle

>  <origin>  (44) 
autodockgpu

>  <m_score__min__energy>  (44) 
-10.199999999999999

>  <m_primary>  (44) 
energy

>  <rmsd>  (44) 
4.992011976774643

>  <m_score__min__rmsd>  (44) 
4.992011976774643

>  <meeko>  (44) 
{"free_energy": -8.91, "intermolecular_energy": -10.7, "internal_energy": -0.86, "cluster_size": 38, "cluster_id": 1, "rank_in_cluster": 36}

>  <energy>  (44) 
-7.74

>  <cluster_rmsd>  (44) 
0.0

>  <cluster>  (44) 
3

$$$$

     RDKit          3D

 65 69  0  0  0  0  0  0  0  0999 V2000
  139.9320   69.6340  228.3440 C   0  0  0  0  0  0  0  0  0  0  0  0
  140.7100   70.7920  228.3430 C   0  0  0  0  0  0  0  0  0  0  0  0
  141.0410   71.4300  227.1550 C   0  0  0  0  0  0  0  0  0  0  0  0
  140.6020   70.9250  225.9500 C   0  0  0  0  0  0  0  0  0  0  0  0
  139.8280   69.7690  225.9690 C   0  0  0  0  0  0  0  0  0  0  0  0
  139.4910   69.1250  227.1390 C   0  0  0  0  0  0  0  0  0  0  0  0
  139.3840   69.2750  224.6240 C   0  0  0  0  0  0  0  0  0  0  0  0
  138.6700   70.4750  223.9880 C   0  0  0  0  0  0  0  0  0  0  0  0
  139.7080   71.4870  223.8040 N   0  0  0  0  0  0  0  0  0  0  0  0
  139.5020   72.4380  222.7610 C   0  0  0  0  0  0  0  0  0  0  0  0
  138.2780   72.6180  222.2730 N   0  0  0  0  0  0  0  0  0  0  0  0
  138.0600   73.5120  221.2860 C   0  0  0  0  0  0  0  0  0  0  0  0
  136.7310   73.6720  220.7970 N   0  0  0  0  0  0  0  0  0  0  0  0
  135.8090   74.6360  221.3560 C   0  0  0  0  0  0  0  0  0  0  0  0
  135.7890   74.5320  222.8650 C   0  0  0  0  0  0  0  0  0  0  0  0
  136.5380   75.7390  223.4130 C   0  0  2  0  0  0  0  0  0  0  0  0
  135.6800   76.9370  223.2370 C   0  0  0  0  0  0  0  0  0  0  0  0
  136.4030   78.1370  222.6840 C   0  0  0  0  0  0  0  0  0  0  0  0
  137.2040   77.6750  221.4900 C   0  0  0  0  0  0  0  0  0  0  0  0
  138.2470   76.7470  221.9950 C   0  0  0  0  0  0  0  0  0  0  0  0
  137.8790   75.8140  222.9810 N   0  0  0  0  0  0  0  0  0  0  0  0
  139.1140   74.2000  220.8250 N   0  0  0  0  0  0  0  0  0  0  0  0
  140.3650   74.0460  221.2920 C   0  0  0  0  0  0  0  0  0  0  0  0
  141.4350   74.8110  220.7580 N   0  0  0  0  0  0  0  0  0  0  0  0
  141.4560   76.2560  220.8520 C   0  0  0  0  0  0  0  0  0  0  0  0
  142.2030   76.7320  219.6010 C   0  0  0  0  0  0  0  0  0  0  0  0
  143.5730   76.3630  219.7720 N   0  0  0  0  0  0  0  0  0  0  0  0
  143.7910   74.9820  220.1060 C   0  0  0  0  0  0  0  0  0  0  0  0
  142.5290   74.1540  220.1070 C   0  0  0  0  0  0  0  0  0  0  0  0
  140.5490   73.1460  222.2790 N   0  0  0  0  0  0  0  0  0  0  0  0
  140.9000   71.5300  224.6410 C   0  0  0  0  0  0  0  0  0  0  0  0
  139.6742   69.1347  229.2896 H   0  0  0  0  0  0  0  0  0  0  0  0
  141.0666   71.2059  229.2978 H   0  0  0  0  0  0  0  0  0  0  0  0
  141.6559   72.3419  227.1756 H   0  0  0  0  0  0  0  0  0  0  0  0
  138.8760   68.2133  227.1134 H   0  0  0  0  0  0  0  0  0  0  0  0
  140.2494   68.9713  224.0166 H   0  0  0  0  0  0  0  0  0  0  0  0
  138.7317   68.3924  224.6980 H   0  0  0  0  0  0  0  0  0  0  0  0
  138.2305   70.1932  223.0198 H   0  0  0  0  0  0  0  0  0  0  0  0
  137.8454   70.8423  224.6166 H   0  0  0  0  0  0  0  0  0  0  0  0
  136.4600   73.0470  220.0050 H   0  0  0  0  0  0  0  0  0  0  0  0
  136.1243   75.6493  221.0666 H   0  0  0  0  0  0  0  0  0  0  0  0
  134.7996   74.4299  220.9704 H   0  0  0  0  0  0  0  0  0  0  0  0
  134.7509   74.5364  223.2287 H   0  0  0  0  0  0  0  0  0  0  0  0
  136.2630   73.5965  223.1968 H   0  0  0  0  0  0  0  0  0  0  0  0
  136.7031   75.6456  224.4965 H   0  0  0  0  0  0  0  0  0  0  0  0
  134.8630   76.6782  222.5474 H   0  0  0  0  0  0  0  0  0  0  0  0
  135.3194   77.2179  224.2375 H   0  0  0  0  0  0  0  0  0  0  0  0
  135.6769   78.9034  222.3752 H   0  0  0  0  0  0  0  0  0  0  0  0
  137.0631   78.5764  223.4464 H   0  0  0  0  0  0  0  0  0  0  0  0
  136.5496   77.1540  220.7756 H   0  0  0  0  0  0  0  0  0  0  0  0
  137.6602   78.5306  220.9705 H   0  0  0  0  0  0  0  0  0  0  0  0
  138.6252   76.1791  221.1321 H   0  0  0  0  0  0  0  0  0  0  0  0
  138.9779   77.4003  222.4939 H   0  0  0  0  0  0  0  0  0  0  0  0
  138.2140   74.8400  222.8010 H   0  0  0  0  0  0  0  0  0  0  0  0
  140.4315   76.6562  220.8646 H   0  0  0  0  0  0  0  0  0  0  0  0
  141.9434   76.5998  221.7763 H   0  0  0  0  0  0  0  0  0  0  0  0
  141.7891   76.2462  218.7051 H   0  0  0  0  0  0  0  0  0  0  0  0
  142.1007   77.8194  219.4704 H   0  0  0  0  0  0  0  0  0  0  0  0
  144.0760   76.9860  220.4140 H   0  0  0  0  0  0  0  0  0  0  0  0
  144.4882   74.5525  219.3715 H   0  0  0  0  0  0  0  0  0  0  0  0
  144.1938   74.9573  221.1293 H   0  0  0  0  0  0  0  0  0  0  0  0
  142.2443   73.9458  219.0651 H   0  0  0  0  0  0  0  0  0  0  0  0
  142.7396   73.2295  220.6647 H   0  0  0  0  0  0  0  0  0  0  0  0
  141.7108   70.9688  224.1536 H   0  0  0  0  0  0  0  0  0  0  0  0
  141.2115   72.5754  224.7824 H   0  0  0  0  0  0  0  0  0  0  0  0
  1  2  2  0
  2  3  1  0
  3  4  2  0
  4  5  1  0
  5  6  2  0
  5  7  1  0
  7  8  1  0
  8  9  1  0
  9 10  1  0
 10 11  2  0
 11 12  1  0
 12 13  1  0
 13 14  1  0
 14 15  1  0
 15 16  1  0
 16 17  1  0
 17 18  1  0
 18 19  1  0
 19 20  1  0
 20 21  1  0
 12 22  2  0
 22 23  1  0
 23 24  1  0
 24 25  1  0
 25 26  1  0
 26 27  1  0
 27 28  1  0
 28 29  1  0
 23 30  2  0
  9 31  1  0
  6  1  1  0
 30 10  1  0
 31  4  1  0
 21 16  1  0
 29 24  1  0
  1 32  1  0
  2 33  1  0
  3 34  1  0
  6 35  1  0
  7 36  1  0
  7 37  1  0
  8 38  1  0
  8 39  1  0
 13 40  1  0
 14 41  1  0
 14 42  1  0
 15 43  1  0
 15 44  1  0
 16 45  1  1
 17 46  1  0
 17 47  1  0
 18 48  1  0
 18 49  1  0
 19 50  1  0
 19 51  1  0
 20 52  1  0
 20 53  1  0
 21 54  1  0
 25 55  1  0
 25 56  1  0
 26 57  1  0
 26 58  1  0
 27 59  1  0
 28 60  1  0
 28 61  1  0
 29 62  1  0
 29 63  1  0
 31 64  1  0
 31 65  1  0
M  END
>  <smiles>  (45) 
c1ccc2c(c1)CCN(c1nc(NCCC3CCCCN3)nc(N3CCNCC3)n1)C2

>  <score_type>  (45) 
oracle

>  <origin>  (45) 
autodockgpu

>  <m_score__min__energy>  (45) 
-10.199999999999999

>  <m_primary>  (45) 
energy

>  <rmsd>  (45) 
10.90406870658028

>  <m_score__min__rmsd>  (45) 
10.90406870658028

>  <meeko>  (45) 
{"free_energy": -7.74, "intermolecular_energy": -9.53, "internal_energy": -2.27, "cluster_size": 3, "cluster_id": 3, "rank_in_cluster": 1}

>  <energy>  (45) 
-7.6

>  <cluster_rmsd>  (45) 
0.43

>  <cluster>  (45) 
3

$$$$

     RDKit          3D

 65 69  0  0  0  0  0  0  0  0999 V2000
  139.3920   70.1940  228.3370 C   0  0  0  0  0  0  0  0  0  0  0  0
  140.3770   71.1810  228.3310 C   0  0  0  0  0  0  0  0  0  0  0  0
  141.0510   71.5130  227.1630 C   0  0  0  0  0  0  0  0  0  0  0  0
  140.7550   70.8660  225.9830 C   0  0  0  0  0  0  0  0  0  0  0  0
  139.7690   69.8840  226.0060 C   0  0  0  0  0  0  0  0  0  0  0  0
  139.0920   69.5440  227.1560 C   0  0  0  0  0  0  0  0  0  0  0  0
  139.4970   69.2220  224.6880 C   0  0  0  0  0  0  0  0  0  0  0  0
  139.1790   70.3790  223.7330 C   0  0  0  0  0  0  0  0  0  0  0  0
  140.4190   71.1460  223.6320 N   0  0  0  0  0  0  0  0  0  0  0  0
  140.6150   71.8980  222.4350 C   0  0  0  0  0  0  0  0  0  0  0  0
  139.5800   72.5230  221.8800 N   0  0  0  0  0  0  0  0  0  0  0  0
  139.7430   73.2400  220.7490 C   0  0  0  0  0  0  0  0  0  0  0  0
  138.6060   73.8950  220.1910 N   0  0  0  0  0  0  0  0  0  0  0  0
  138.2790   75.2720  220.4930 C   0  0  0  0  0  0  0  0  0  0  0  0
  138.2270   75.4850  221.9890 C   0  0  0  0  0  0  0  0  0  0  0  0
  139.4810   76.2560  222.3800 C   0  0  2  0  0  0  0  0  0  0  0  0
  139.3000   77.6730  221.9780 C   0  0  0  0  0  0  0  0  0  0  0  0
  140.4940   78.2730  221.2830 C   0  0  0  0  0  0  0  0  0  0  0  0
  140.9360   77.3000  220.2160 C   0  0  0  0  0  0  0  0  0  0  0  0
  141.4190   76.0800  220.9100 C   0  0  0  0  0  0  0  0  0  0  0  0
  140.6790   75.6080  222.0100 N   0  0  0  0  0  0  0  0  0  0  0  0
  140.9720   73.2950  220.2160 N   0  0  0  0  0  0  0  0  0  0  0  0
  142.0400   72.6760  220.7480 C   0  0  0  0  0  0  0  0  0  0  0  0
  143.3150   72.7780  220.1300 N   0  0  0  0  0  0  0  0  0  0  0  0
  143.4680   73.3010  218.7880 C   0  0  0  0  0  0  0  0  0  0  0  0
  144.6810   72.5690  218.2050 C   0  0  0  0  0  0  0  0  0  0  0  0
  145.8330   73.0630  218.8930 N   0  0  0  0  0  0  0  0  0  0  0  0
  145.7460   73.0200  220.3270 C   0  0  0  0  0  0  0  0  0  0  0  0
  144.4880   72.3580  220.8370 C   0  0  0  0  0  0  0  0  0  0  0  0
  141.8450   71.9690  221.8780 N   0  0  0  0  0  0  0  0  0  0  0  0
  141.4140   71.1470  224.6960 C   0  0  0  0  0  0  0  0  0  0  0  0
  138.8629   69.9375  229.2667 H   0  0  0  0  0  0  0  0  0  0  0  0
  140.6241   71.7049  229.2661 H   0  0  0  0  0  0  0  0  0  0  0  0
  141.8240   72.2954  227.1799 H   0  0  0  0  0  0  0  0  0  0  0  0
  138.3191   68.7616  227.1341 H   0  0  0  0  0  0  0  0  0  0  0  0
  140.3809   68.6654  224.3431 H   0  0  0  0  0  0  0  0  0  0  0  0
  138.6754   68.4931  224.7487 H   0  0  0  0  0  0  0  0  0  0  0  0
  138.8824   69.9939  222.7462 H   0  0  0  0  0  0  0  0  0  0  0  0
  138.3438   70.9949  224.0979 H   0  0  0  0  0  0  0  0  0  0  0  0
  138.0190   73.3180  219.5490 H   0  0  0  0  0  0  0  0  0  0  0  0
  139.0463   75.9303  220.0595 H   0  0  0  0  0  0  0  0  0  0  0  0
  137.2936   75.5072  220.0644 H   0  0  0  0  0  0  0  0  0  0  0  0
  137.3305   76.0639  222.2560 H   0  0  0  0  0  0  0  0  0  0  0  0
  138.1808   74.5219  222.5184 H   0  0  0  0  0  0  0  0  0  0  0  0
  139.6144   76.2705  223.4718 H   0  0  0  0  0  0  0  0  0  0  0  0
  138.4385   77.7313  221.2966 H   0  0  0  0  0  0  0  0  0  0  0  0
  139.1498   78.2483  222.9035 H   0  0  0  0  0  0  0  0  0  0  0  0
  140.2175   79.2336  220.8238 H   0  0  0  0  0  0  0  0  0  0  0  0
  141.3075   78.4564  222.0004 H   0  0  0  0  0  0  0  0  0  0  0  0
  140.0897   77.0503  219.5593 H   0  0  0  0  0  0  0  0  0  0  0  0
  141.7309   77.7366  219.5934 H   0  0  0  0  0  0  0  0  0  0  0  0
  141.4500   75.2709  220.1654 H   0  0  0  0  0  0  0  0  0  0  0  0
  142.3891   76.3735  221.3376 H   0  0  0  0  0  0  0  0  0  0  0  0
  140.4980   74.5790  222.0000 H   0  0  0  0  0  0  0  0  0  0  0  0
  142.5688   73.0944  218.1891 H   0  0  0  0  0  0  0  0  0  0  0  0
  143.6076   74.3921  218.7864 H   0  0  0  0  0  0  0  0  0  0  0  0
  144.5812   71.4851  218.3638 H   0  0  0  0  0  0  0  0  0  0  0  0
  144.7637   72.7435  217.1221 H   0  0  0  0  0  0  0  0  0  0  0  0
  146.1270   73.9900  218.5640 H   0  0  0  0  0  0  0  0  0  0  0  0
  146.6127   72.4623  220.7114 H   0  0  0  0  0  0  0  0  0  0  0  0
  145.7284   74.0615  220.6804 H   0  0  0  0  0  0  0  0  0  0  0  0
  144.5942   71.2687  220.7263 H   0  0  0  0  0  0  0  0  0  0  0  0
  144.3630   72.6504  221.8900 H   0  0  0  0  0  0  0  0  0  0  0  0
  142.1686   70.3727  224.4934 H   0  0  0  0  0  0  0  0  0  0  0  0
  141.9027   72.1315  224.7409 H   0  0  0  0  0  0  0  0  0  0  0  0
  1  2  2  0
  2  3  1  0
  3  4  2  0
  4  5  1  0
  5  6  2  0
  5  7  1  0
  7  8  1  0
  8  9  1  0
  9 10  1  0
 10 11  2  0
 11 12  1  0
 12 13  1  0
 13 14  1  0
 14 15  1  0
 15 16  1  0
 16 17  1  0
 17 18  1  0
 18 19  1  0
 19 20  1  0
 20 21  1  0
 12 22  2  0
 22 23  1  0
 23 24  1  0
 24 25  1  0
 25 26  1  0
 26 27  1  0
 27 28  1  0
 28 29  1  0
 23 30  2  0
  9 31  1  0
  6  1  1  0
 30 10  1  0
 31  4  1  0
 21 16  1  0
 29 24  1  0
  1 32  1  0
  2 33  1  0
  3 34  1  0
  6 35  1  0
  7 36  1  0
  7 37  1  0
  8 38  1  0
  8 39  1  0
 13 40  1  0
 14 41  1  0
 14 42  1  0
 15 43  1  0
 15 44  1  0
 16 45  1  1
 17 46  1  0
 17 47  1  0
 18 48  1  0
 18 49  1  0
 19 50  1  0
 19 51  1  0
 20 52  1  0
 20 53  1  0
 21 54  1  0
 25 55  1  0
 25 56  1  0
 26 57  1  0
 26 58  1  0
 27 59  1  0
 28 60  1  0
 28 61  1  0
 29 62  1  0
 29 63  1  0
 31 64  1  0
 31 65  1  0
M  END
>  <smiles>  (46) 
c1ccc2c(c1)CCN(c1nc(NCCC3CCCCN3)nc(N3CCNCC3)n1)C2

>  <score_type>  (46) 
oracle

>  <origin>  (46) 
autodockgpu

>  <m_score__min__energy>  (46) 
-10.199999999999999

>  <m_primary>  (46) 
energy

>  <rmsd>  (46) 
10.849881361162796

>  <m_score__min__rmsd>  (46) 
10.849881361162796

>  <meeko>  (46) 
{"free_energy": -7.54, "intermolecular_energy": -9.33, "internal_energy": -2.22, "cluster_size": 5, "cluster_id": 2, "rank_in_cluster": 5}

>  <energy>  (46) 
-7.44

>  <cluster_rmsd>  (46) 
0.6

>  <cluster>  (46) 
3

$$$$

     RDKit          3D

 65 69  0  0  0  0  0  0  0  0999 V2000
  142.1920   81.5640  222.5080 C   0  0  0  0  0  0  0  0  0  0  0  0
  142.2990   80.8710  223.7140 C   0  0  0  0  0  0  0  0  0  0  0  0
  141.8280   79.5700  223.8360 C   0  0  0  0  0  0  0  0  0  0  0  0
  141.2430   78.9390  222.7590 C   0  0  0  0  0  0  0  0  0  0  0  0
  141.1440   79.6450  221.5640 C   0  0  0  0  0  0  0  0  0  0  0  0
  141.6070   80.9360  221.4270 C   0  0  0  0  0  0  0  0  0  0  0  0
  140.4990   78.8990  220.4340 C   0  0  0  0  0  0  0  0  0  0  0  0
  141.3130   77.6050  220.3110 C   0  0  0  0  0  0  0  0  0  0  0  0
  141.0730   76.8800  221.5570 N   0  0  0  0  0  0  0  0  0  0  0  0
  141.2060   75.4590  221.5110 C   0  0  0  0  0  0  0  0  0  0  0  0
  140.2190   74.6960  221.9700 N   0  0  0  0  0  0  0  0  0  0  0  0
  140.3240   73.3510  221.9370 C   0  0  0  0  0  0  0  0  0  0  0  0
  139.2410   72.5730  222.4380 N   0  0  0  0  0  0  0  0  0  0  0  0
  137.9720   72.4750  221.7490 C   0  0  0  0  0  0  0  0  0  0  0  0
  137.7290   73.7120  220.9150 C   0  0  0  0  0  0  0  0  0  0  0  0
  136.8180   74.6300  221.7190 C   0  0  2  0  0  0  0  0  0  0  0  0
  135.9550   75.3760  220.7700 C   0  0  0  0  0  0  0  0  0  0  0  0
  135.8460   76.8490  221.0650 C   0  0  0  0  0  0  0  0  0  0  0  0
  137.2440   77.3730  221.2900 C   0  0  0  0  0  0  0  0  0  0  0  0
  137.7580   76.7300  222.5250 C   0  0  0  0  0  0  0  0  0  0  0  0
  137.4950   75.3610  222.7180 N   0  0  0  0  0  0  0  0  0  0  0  0
  141.4480   72.8250  221.4280 N   0  0  0  0  0  0  0  0  0  0  0  0
  142.4660   73.5650  220.9550 C   0  0  0  0  0  0  0  0  0  0  0  0
  143.6280   72.9410  220.4290 N   0  0  0  0  0  0  0  0  0  0  0  0
  144.9500   73.2520  220.9310 C   0  0  0  0  0  0  0  0  0  0  0  0
  145.8900   73.0760  219.7340 C   0  0  0  0  0  0  0  0  0  0  0  0
  145.9540   71.6740  219.4610 N   0  0  0  0  0  0  0  0  0  0  0  0
  144.6790   71.0260  219.3170 C   0  0  0  0  0  0  0  0  0  0  0  0
  143.5080   71.9770  219.3760 C   0  0  0  0  0  0  0  0  0  0  0  0
  142.3300   74.9050  221.0020 N   0  0  0  0  0  0  0  0  0  0  0  0
  140.7150   77.5650  222.7910 C   0  0  0  0  0  0  0  0  0  0  0  0
  142.5677   82.5941  222.4200 H   0  0  0  0  0  0  0  0  0  0  0  0
  142.7635   81.3624  224.5816 H   0  0  0  0  0  0  0  0  0  0  0  0
  141.9222   79.0411  224.7959 H   0  0  0  0  0  0  0  0  0  0  0  0
  141.5112   81.4609  220.4651 H   0  0  0  0  0  0  0  0  0  0  0  0
  139.4472   78.6757  220.6662 H   0  0  0  0  0  0  0  0  0  0  0  0
  140.4941   79.4794  219.4996 H   0  0  0  0  0  0  0  0  0  0  0  0
  140.9699   77.0142  219.4489 H   0  0  0  0  0  0  0  0  0  0  0  0
  142.3828   77.8063  220.1526 H   0  0  0  0  0  0  0  0  0  0  0  0
  139.4170   72.0750  223.3390 H   0  0  0  0  0  0  0  0  0  0  0  0
  137.9828   71.5919  221.0932 H   0  0  0  0  0  0  0  0  0  0  0  0
  137.1676   72.3827  222.4936 H   0  0  0  0  0  0  0  0  0  0  0  0
  138.6830   74.2180  220.7057 H   0  0  0  0  0  0  0  0  0  0  0  0
  137.2644   73.4478  219.9536 H   0  0  0  0  0  0  0  0  0  0  0  0
  136.1312   74.0517  222.3546 H   0  0  0  0  0  0  0  0  0  0  0  0
  136.3700   75.2561  219.7584 H   0  0  0  0  0  0  0  0  0  0  0  0
  134.9423   74.9576  220.8663 H   0  0  0  0  0  0  0  0  0  0  0  0
  135.3828   77.3690  220.2135 H   0  0  0  0  0  0  0  0  0  0  0  0
  135.2210   77.0203  221.9539 H   0  0  0  0  0  0  0  0  0  0  0  0
  137.8859   77.1146  220.4349 H   0  0  0  0  0  0  0  0  0  0  0  0
  137.2398   78.4683  221.3917 H   0  0  0  0  0  0  0  0  0  0  0  0
  138.8507   76.8564  222.5286 H   0  0  0  0  0  0  0  0  0  0  0  0
  137.2154   77.2306  223.3405 H   0  0  0  0  0  0  0  0  0  0  0  0
  138.3230   74.8010  223.0220 H   0  0  0  0  0  0  0  0  0  0  0  0
  144.9877   74.2871  221.3013 H   0  0  0  0  0  0  0  0  0  0  0  0
  145.2321   72.6020  221.7724 H   0  0  0  0  0  0  0  0  0  0  0  0
  145.4948   73.6142  218.8599 H   0  0  0  0  0  0  0  0  0  0  0  0
  146.8888   73.4811  219.9539 H   0  0  0  0  0  0  0  0  0  0  0  0
  146.5580   71.1680  220.1190 H   0  0  0  0  0  0  0  0  0  0  0  0
  144.6590   70.5095  218.3460 H   0  0  0  0  0  0  0  0  0  0  0  0
  144.5730   70.3307  220.1628 H   0  0  0  0  0  0  0  0  0  0  0  0
  143.4403   72.5110  218.4167 H   0  0  0  0  0  0  0  0  0  0  0  0
  142.6060   71.3797  219.5752 H   0  0  0  0  0  0  0  0  0  0  0  0
  139.6198   77.5950  222.8896 H   0  0  0  0  0  0  0  0  0  0  0  0
  141.1450   77.0262  223.6482 H   0  0  0  0  0  0  0  0  0  0  0  0
  1  2  2  0
  2  3  1  0
  3  4  2  0
  4  5  1  0
  5  6  2  0
  5  7  1  0
  7  8  1  0
  8  9  1  0
  9 10  1  0
 10 11  2  0
 11 12  1  0
 12 13  1  0
 13 14  1  0
 14 15  1  0
 15 16  1  0
 16 17  1  0
 17 18  1  0
 18 19  1  0
 19 20  1  0
 20 21  1  0
 12 22  2  0
 22 23  1  0
 23 24  1  0
 24 25  1  0
 25 26  1  0
 26 27  1  0
 27 28  1  0
 28 29  1  0
 23 30  2  0
  9 31  1  0
  6  1  1  0
 30 10  1  0
 31  4  1  0
 21 16  1  0
 29 24  1  0
  1 32  1  0
  2 33  1  0
  3 34  1  0
  6 35  1  0
  7 36  1  0
  7 37  1  0
  8 38  1  0
  8 39  1  0
 13 40  1  0
 14 41  1  0
 14 42  1  0
 15 43  1  0
 15 44  1  0
 16 45  1  1
 17 46  1  0
 17 47  1  0
 18 48  1  0
 18 49  1  0
 19 50  1  0
 19 51  1  0
 20 52  1  0
 20 53  1  0
 21 54  1  0
 25 55  1  0
 25 56  1  0
 26 57  1  0
 26 58  1  0
 27 59  1  0
 28 60  1  0
 28 61  1  0
 29 62  1  0
 29 63  1  0
 31 64  1  0
 31 65  1  0
M  END
>  <smiles>  (47) 
c1ccc2c(c1)CCN(c1nc(NCCC3CCCCN3)nc(N3CCNCC3)n1)C2

>  <score_type>  (47) 
oracle

>  <origin>  (47) 
autodockgpu

>  <m_score__min__energy>  (47) 
-10.199999999999999

>  <m_primary>  (47) 
energy

>  <rmsd>  (47) 
5.017972546968786

>  <m_score__min__rmsd>  (47) 
5.017972546968786

>  <meeko>  (47) 
{"free_energy": -7.42, "intermolecular_energy": -9.21, "internal_energy": -2.18, "cluster_size": 38, "cluster_id": 1, "rank_in_cluster": 38}

>  <energy>  (47) 
-7.67

>  <cluster_rmsd>  (47) 
0.0

>  <cluster>  (47) 
4

$$$$

     RDKit          3D

 65 69  0  0  0  0  0  0  0  0999 V2000
  137.6110   69.2810  225.5470 C   0  0  0  0  0  0  0  0  0  0  0  0
  138.9860   69.2100  225.7680 C   0  0  0  0  0  0  0  0  0  0  0  0
  139.8860   69.7620  224.8650 C   0  0  0  0  0  0  0  0  0  0  0  0
  139.4300   70.3930  223.7280 C   0  0  0  0  0  0  0  0  0  0  0  0
  138.0550   70.4550  223.5230 C   0  0  0  0  0  0  0  0  0  0  0  0
  137.1500   69.9120  224.4090 C   0  0  0  0  0  0  0  0  0  0  0  0
  137.6280   71.1560  222.2670 C   0  0  0  0  0  0  0  0  0  0  0  0
  138.2920   72.5350  222.3500 C   0  0  0  0  0  0  0  0  0  0  0  0
  139.7290   72.2750  222.2840 N   0  0  0  0  0  0  0  0  0  0  0  0
  140.5510   73.3240  221.7740 C   0  0  0  0  0  0  0  0  0  0  0  0
  140.1180   74.5800  221.8340 N   0  0  0  0  0  0  0  0  0  0  0  0
  140.8780   75.5880  221.3570 C   0  0  0  0  0  0  0  0  0  0  0  0
  140.3750   76.9180  221.4450 N   0  0  0  0  0  0  0  0  0  0  0  0
  139.3150   77.2880  222.3580 C   0  0  0  0  0  0  0  0  0  0  0  0
  139.6790   78.5540  223.1010 C   0  0  0  0  0  0  0  0  0  0  0  0
  141.1340   78.8660  222.7790 C   0  0  2  0  0  0  0  0  0  0  0  0
  141.7790   79.3920  224.0080 C   0  0  0  0  0  0  0  0  0  0  0  0
  142.6260   80.6170  223.7840 C   0  0  0  0  0  0  0  0  0  0  0  0
  141.8150   81.5860  222.9570 C   0  0  0  0  0  0  0  0  0  0  0  0
  141.6110   80.9610  221.6260 C   0  0  0  0  0  0  0  0  0  0  0  0
  141.3030   79.5890  221.5800 N   0  0  0  0  0  0  0  0  0  0  0  0
  142.0700   75.2740  220.8280 N   0  0  0  0  0  0  0  0  0  0  0  0
  142.5400   74.0170  220.7500 C   0  0  0  0  0  0  0  0  0  0  0  0
  143.8130   73.7570  220.1780 N   0  0  0  0  0  0  0  0  0  0  0  0
  144.0970   74.0590  218.7900 C   0  0  0  0  0  0  0  0  0  0  0  0
  145.1240   73.0100  218.3500 C   0  0  0  0  0  0  0  0  0  0  0  0
  146.3480   73.3220  219.0200 N   0  0  0  0  0  0  0  0  0  0  0  0
  146.2340   73.4830  220.4440 C   0  0  0  0  0  0  0  0  0  0  0  0
  144.8540   73.1840  220.9780 C   0  0  0  0  0  0  0  0  0  0  0  0
  141.7570   73.0330  221.2360 N   0  0  0  0  0  0  0  0  0  0  0  0
  140.3040   71.0080  222.7150 C   0  0  0  0  0  0  0  0  0  0  0  0
  136.9054   68.8415  226.2674 H   0  0  0  0  0  0  0  0  0  0  0  0
  139.3640   68.7091  226.6715 H   0  0  0  0  0  0  0  0  0  0  0  0
  140.9668   69.6951  225.0584 H   0  0  0  0  0  0  0  0  0  0  0  0
  136.0701   69.9807  224.2113 H   0  0  0  0  0  0  0  0  0  0  0  0
  137.9778   70.6093  221.3789 H   0  0  0  0  0  0  0  0  0  0  0  0
  136.5337   71.2242  222.1784 H   0  0  0  0  0  0  0  0  0  0  0  0
  137.9755   73.1666  221.5068 H   0  0  0  0  0  0  0  0  0  0  0  0
  138.0136   73.0699  223.2700 H   0  0  0  0  0  0  0  0  0  0  0  0
  140.8190   77.6160  220.8060 H   0  0  0  0  0  0  0  0  0  0  0  0
  138.3883   77.4549  221.7893 H   0  0  0  0  0  0  0  0  0  0  0  0
  139.1702   76.4757  223.0855 H   0  0  0  0  0  0  0  0  0  0  0  0
  139.0346   79.3823  222.7714 H   0  0  0  0  0  0  0  0  0  0  0  0
  139.5394   78.4234  224.1843 H   0  0  0  0  0  0  0  0  0  0  0  0
  141.6878   77.9522  222.5178 H   0  0  0  0  0  0  0  0  0  0  0  0
  140.9894   79.6458  224.7305 H   0  0  0  0  0  0  0  0  0  0  0  0
  142.4534   78.6036  224.3736 H   0  0  0  0  0  0  0  0  0  0  0  0
  142.8870   81.0746  224.7496 H   0  0  0  0  0  0  0  0  0  0  0  0
  143.5594   80.3526  223.2654 H   0  0  0  0  0  0  0  0  0  0  0  0
  140.8439   81.7724  223.4390 H   0  0  0  0  0  0  0  0  0  0  0  0
  142.3364   82.5498  222.8608 H   0  0  0  0  0  0  0  0  0  0  0  0
  140.7856   81.4980  221.1357 H   0  0  0  0  0  0  0  0  0  0  0  0
  142.5913   81.0388  221.1332 H   0  0  0  0  0  0  0  0  0  0  0  0
  140.5110   79.3450  220.9430 H   0  0  0  0  0  0  0  0  0  0  0  0
  143.1825   73.9809  218.1837 H   0  0  0  0  0  0  0  0  0  0  0  0
  144.4767   75.0835  218.6625 H   0  0  0  0  0  0  0  0  0  0  0  0
  144.7827   72.0037  218.6344 H   0  0  0  0  0  0  0  0  0  0  0  0
  145.2578   73.0231  217.2583 H   0  0  0  0  0  0  0  0  0  0  0  0
  146.8450   74.1120  218.5930 H   0  0  0  0  0  0  0  0  0  0  0  0
  146.9494   72.8027  220.9292 H   0  0  0  0  0  0  0  0  0  0  0  0
  146.4439   74.5396  220.6668 H   0  0  0  0  0  0  0  0  0  0  0  0
  144.7164   72.0930  221.0049 H   0  0  0  0  0  0  0  0  0  0  0  0
  144.7836   73.6291  221.9814 H   0  0  0  0  0  0  0  0  0  0  0  0
  140.3951   70.3336  221.8508 H   0  0  0  0  0  0  0  0  0  0  0  0
  141.2997   71.1850  223.1478 H   0  0  0  0  0  0  0  0  0  0  0  0
  1  2  2  0
  2  3  1  0
  3  4  2  0
  4  5  1  0
  5  6  2  0
  5  7  1  0
  7  8  1  0
  8  9  1  0
  9 10  1  0
 10 11  2  0
 11 12  1  0
 12 13  1  0
 13 14  1  0
 14 15  1  0
 15 16  1  0
 16 17  1  0
 17 18  1  0
 18 19  1  0
 19 20  1  0
 20 21  1  0
 12 22  2  0
 22 23  1  0
 23 24  1  0
 24 25  1  0
 25 26  1  0
 26 27  1  0
 27 28  1  0
 28 29  1  0
 23 30  2  0
  9 31  1  0
  6  1  1  0
 30 10  1  0
 31  4  1  0
 21 16  1  0
 29 24  1  0
  1 32  1  0
  2 33  1  0
  3 34  1  0
  6 35  1  0
  7 36  1  0
  7 37  1  0
  8 38  1  0
  8 39  1  0
 13 40  1  0
 14 41  1  0
 14 42  1  0
 15 43  1  0
 15 44  1  0
 16 45  1  6
 17 46  1  0
 17 47  1  0
 18 48  1  0
 18 49  1  0
 19 50  1  0
 19 51  1  0
 20 52  1  0
 20 53  1  0
 21 54  1  0
 25 55  1  0
 25 56  1  0
 26 57  1  0
 26 58  1  0
 27 59  1  0
 28 60  1  0
 28 61  1  0
 29 62  1  0
 29 63  1  0
 31 64  1  0
 31 65  1  0
M  END
>  <smiles>  (48) 
c1ccc2c(c1)CCN(c1nc(NCCC3CCCCN3)nc(N3CCNCC3)n1)C2

>  <score_type>  (48) 
oracle

>  <origin>  (48) 
autodockgpu

>  <m_score__min__energy>  (48) 
-10.199999999999999

>  <m_primary>  (48) 
energy

>  <rmsd>  (48) 
10.13408145733713

>  <m_score__min__rmsd>  (48) 
10.13408145733713

>  <meeko>  (48) 
{"free_energy": -8.33, "intermolecular_energy": -10.12, "internal_energy": -1.47, "cluster_size": 5, "cluster_id": 2, "rank_in_cluster": 2}

>  <energy>  (48) 
-7.45

>  <cluster_rmsd>  (48) 
0.29

>  <cluster>  (48) 
4

$$$$

     RDKit          3D

 65 69  0  0  0  0  0  0  0  0999 V2000
  141.9560   81.5450  222.5700 C   0  0  0  0  0  0  0  0  0  0  0  0
  141.8680   80.8650  223.7840 C   0  0  0  0  0  0  0  0  0  0  0  0
  141.3990   79.5590  223.8420 C   0  0  0  0  0  0  0  0  0  0  0  0
  141.0090   78.9100  222.6900 C   0  0  0  0  0  0  0  0  0  0  0  0
  141.1020   79.6030  221.4870 C   0  0  0  0  0  0  0  0  0  0  0  0
  141.5660   80.8990  221.4140 C   0  0  0  0  0  0  0  0  0  0  0  0
  140.6620   78.8380  220.2740 C   0  0  0  0  0  0  0  0  0  0  0  0
  141.5000   77.5540  220.3020 C   0  0  0  0  0  0  0  0  0  0  0  0
  141.0650   76.8370  221.5000 N   0  0  0  0  0  0  0  0  0  0  0  0
  141.2200   75.4190  221.4930 C   0  0  0  0  0  0  0  0  0  0  0  0
  140.2680   74.6550  222.0200 N   0  0  0  0  0  0  0  0  0  0  0  0
  140.3940   73.3120  222.0240 C   0  0  0  0  0  0  0  0  0  0  0  0
  139.3470   72.5330  222.5970 N   0  0  0  0  0  0  0  0  0  0  0  0
  139.5260   71.1480  222.9720 C   0  0  0  0  0  0  0  0  0  0  0  0
  139.2070   70.9540  224.4380 C   0  0  0  0  0  0  0  0  0  0  0  0
  140.5160   70.6360  225.1480 C   0  0  2  0  0  0  0  0  0  0  0  0
  140.3190   69.4080  225.9580 C   0  0  0  0  0  0  0  0  0  0  0  0
  140.8710   69.4980  227.3560 C   0  0  0  0  0  0  0  0  0  0  0  0
  140.3990   70.8030  227.9490 C   0  0  0  0  0  0  0  0  0  0  0  0
  141.0380   71.8940  227.1710 C   0  0  0  0  0  0  0  0  0  0  0  0
  141.1050   71.7560  225.7720 N   0  0  0  0  0  0  0  0  0  0  0  0
  141.5030   72.7880  221.4840 N   0  0  0  0  0  0  0  0  0  0  0  0
  142.4870   73.5270  220.9430 C   0  0  0  0  0  0  0  0  0  0  0  0
  143.6360   72.9050  220.3870 N   0  0  0  0  0  0  0  0  0  0  0  0
  144.9720   73.2380  220.8360 C   0  0  0  0  0  0  0  0  0  0  0  0
  145.8700   73.0490  219.6080 C   0  0  0  0  0  0  0  0  0  0  0  0
  145.9390   71.6430  219.3590 N   0  0  0  0  0  0  0  0  0  0  0  0
  144.6660   70.9810  219.2720 C   0  0  0  0  0  0  0  0  0  0  0  0
  143.4880   71.9210  219.3560 C   0  0  0  0  0  0  0  0  0  0  0  0
  142.3310   74.8660  220.9540 N   0  0  0  0  0  0  0  0  0  0  0  0
  140.4990   77.5300  222.6490 C   0  0  0  0  0  0  0  0  0  0  0  0
  142.3299   82.5789  222.5340 H   0  0  0  0  0  0  0  0  0  0  0  0
  142.1751   81.3712  224.7111 H   0  0  0  0  0  0  0  0  0  0  0  0
  141.3385   79.0408  224.8104 H   0  0  0  0  0  0  0  0  0  0  0  0
  141.6249   81.4137  220.4436 H   0  0  0  0  0  0  0  0  0  0  0  0
  139.5890   78.6028  220.3312 H   0  0  0  0  0  0  0  0  0  0  0  0
  140.8054   79.4098  219.3453 H   0  0  0  0  0  0  0  0  0  0  0  0
  141.3112   76.9507  219.4018 H   0  0  0  0  0  0  0  0  0  0  0  0
  142.5788   77.7680  220.3205 H   0  0  0  0  0  0  0  0  0  0  0  0
  138.4350   73.0260  222.7310 H   0  0  0  0  0  0  0  0  0  0  0  0
  138.8547   70.5193  222.3686 H   0  0  0  0  0  0  0  0  0  0  0  0
  140.5731   70.8621  222.7934 H   0  0  0  0  0  0  0  0  0  0  0  0
  138.7676   71.8733  224.8525 H   0  0  0  0  0  0  0  0  0  0  0  0
  138.4819   70.1381  224.5741 H   0  0  0  0  0  0  0  0  0  0  0  0
  141.3106   70.3938  224.4269 H   0  0  0  0  0  0  0  0  0  0  0  0
  139.2394   69.2081  226.0252 H   0  0  0  0  0  0  0  0  0  0  0  0
  140.8698   68.6021  225.4510 H   0  0  0  0  0  0  0  0  0  0  0  0
  140.5019   68.6561  227.9601 H   0  0  0  0  0  0  0  0  0  0  0  0
  141.9701   69.4551  227.3412 H   0  0  0  0  0  0  0  0  0  0  0  0
  139.3041   70.8774  227.8735 H   0  0  0  0  0  0  0  0  0  0  0  0
  140.6711   70.8702  229.0127 H   0  0  0  0  0  0  0  0  0  0  0  0
  140.4787   72.8173  227.3822 H   0  0  0  0  0  0  0  0  0  0  0  0
  142.0881   71.8864  227.4985 H   0  0  0  0  0  0  0  0  0  0  0  0
  140.8190   72.6080  225.2390 H   0  0  0  0  0  0  0  0  0  0  0  0
  145.0123   74.2800  221.1862 H   0  0  0  0  0  0  0  0  0  0  0  0
  145.2909   72.6067  221.6785 H   0  0  0  0  0  0  0  0  0  0  0  0
  145.4373   73.5666  218.7392 H   0  0  0  0  0  0  0  0  0  0  0  0
  146.8717   73.4683  219.7834 H   0  0  0  0  0  0  0  0  0  0  0  0
  146.5710   71.1550  220.0030 H   0  0  0  0  0  0  0  0  0  0  0  0
  144.6168   70.4471  218.3115 H   0  0  0  0  0  0  0  0  0  0  0  0
  144.5972   70.3005  220.1335 H   0  0  0  0  0  0  0  0  0  0  0  0
  143.3803   72.4369  218.3905 H   0  0  0  0  0  0  0  0  0  0  0  0
  142.5999   71.3187  219.5977 H   0  0  0  0  0  0  0  0  0  0  0  0
  139.4025   77.5468  222.5634 H   0  0  0  0  0  0  0  0  0  0  0  0
  140.7869   77.0052  223.5719 H   0  0  0  0  0  0  0  0  0  0  0  0
  1  2  2  0
  2  3  1  0
  3  4  2  0
  4  5  1  0
  5  6  2  0
  5  7  1  0
  7  8  1  0
  8  9  1  0
  9 10  1  0
 10 11  2  0
 11 12  1  0
 12 13  1  0
 13 14  1  0
 14 15  1  0
 15 16  1  0
 16 17  1  0
 17 18  1  0
 18 19  1  0
 19 20  1  0
 20 21  1  0
 12 22  2  0
 22 23  1  0
 23 24  1  0
 24 25  1  0
 25 26  1  0
 26 27  1  0
 27 28  1  0
 28 29  1  0
 23 30  2  0
  9 31  1  0
  6  1  1  0
 30 10  1  0
 31  4  1  0
 21 16  1  0
 29 24  1  0
  1 32  1  0
  2 33  1  0
  3 34  1  0
  6 35  1  0
  7 36  1  0
  7 37  1  0
  8 38  1  0
  8 39  1  0
 13 40  1  0
 14 41  1  0
 14 42  1  0
 15 43  1  0
 15 44  1  0
 16 45  1  6
 17 46  1  0
 17 47  1  0
 18 48  1  0
 18 49  1  0
 19 50  1  0
 19 51  1  0
 20 52  1  0
 20 53  1  0
 21 54  1  0
 25 55  1  0
 25 56  1  0
 26 57  1  0
 26 58  1  0
 27 59  1  0
 28 60  1  0
 28 61  1  0
 29 62  1  0
 29 63  1  0
 31 64  1  0
 31 65  1  0
M  END
>  <smiles>  (49) 
c1ccc2c(c1)CCN(c1nc(NCCC3CCCCN3)nc(N3CCNCC3)n1)C2

>  <score_type>  (49) 
oracle

>  <origin>  (49) 
autodockgpu

>  <m_score__min__energy>  (49) 
-10.199999999999999

>  <m_primary>  (49) 
energy

>  <rmsd>  (49) 
4.98102323046837

>  <m_score__min__rmsd>  (49) 
4.98102323046837

>  <meeko>  (49) 
{"free_energy": -10.2, "intermolecular_energy": -11.99, "internal_energy": -0.87, "cluster_size": 38, "cluster_id": 1, "rank_in_cluster": 1}

>  <energy>  (49) 
-7.16

>  <cluster_rmsd>  (49) 
0.0

>  <cluster>  (49) 
5

$$$$

     RDKit          3D

 65 69  0  0  0  0  0  0  0  0999 V2000
  140.7500   81.6670  222.6240 C   0  0  0  0  0  0  0  0  0  0  0  0
  142.0530   81.1940  222.7840 C   0  0  0  0  0  0  0  0  0  0  0  0
  142.3060   79.8390  222.9590 C   0  0  0  0  0  0  0  0  0  0  0  0
  141.2660   78.9350  222.9770 C   0  0  0  0  0  0  0  0  0  0  0  0
  139.9730   79.4240  222.8170 C   0  0  0  0  0  0  0  0  0  0  0  0
  139.7060   80.7640  222.6420 C   0  0  0  0  0  0  0  0  0  0  0  0
  138.8900   78.3860  222.8460 C   0  0  0  0  0  0  0  0  0  0  0  0
  139.2960   77.3740  221.7680 C   0  0  0  0  0  0  0  0  0  0  0  0
  140.5400   76.7770  222.2490 N   0  0  0  0  0  0  0  0  0  0  0  0
  140.8420   75.4600  221.7890 C   0  0  0  0  0  0  0  0  0  0  0  0
  139.9380   74.4950  221.9330 N   0  0  0  0  0  0  0  0  0  0  0  0
  140.2040   73.2430  221.5050 C   0  0  0  0  0  0  0  0  0  0  0  0
  139.2040   72.2410  221.6770 N   0  0  0  0  0  0  0  0  0  0  0  0
  138.9010   71.6620  222.9680 C   0  0  0  0  0  0  0  0  0  0  0  0
  140.1660   71.4840  223.7760 C   0  0  0  0  0  0  0  0  0  0  0  0
  139.7500   71.1780  225.2080 C   0  0  2  0  0  0  0  0  0  0  0  0
  140.9240   71.3960  226.0900 C   0  0  0  0  0  0  0  0  0  0  0  0
  141.1480   70.3000  227.0990 C   0  0  0  0  0  0  0  0  0  0  0  0
  141.0670   68.9830  226.3650 C   0  0  0  0  0  0  0  0  0  0  0  0
  139.6700   68.8360  225.8840 C   0  0  0  0  0  0  0  0  0  0  0  0
  139.0360   69.9680  225.3400 N   0  0  0  0  0  0  0  0  0  0  0  0
  141.3970   73.0160  220.9380 N   0  0  0  0  0  0  0  0  0  0  0  0
  142.3350   73.9660  220.7770 C   0  0  0  0  0  0  0  0  0  0  0  0
  143.5780   73.6570  220.1660 N   0  0  0  0  0  0  0  0  0  0  0  0
  143.9130   74.1340  218.8400 C   0  0  0  0  0  0  0  0  0  0  0  0
  144.8230   73.0570  218.2400 C   0  0  0  0  0  0  0  0  0  0  0  0
  146.0650   73.1240  218.9450 N   0  0  0  0  0  0  0  0  0  0  0  0
  145.9510   73.0760  220.3770 C   0  0  0  0  0  0  0  0  0  0  0  0
  144.5390   72.8540  220.8640 C   0  0  0  0  0  0  0  0  0  0  0  0
  142.0390   75.2070  221.2140 N   0  0  0  0  0  0  0  0  0  0  0  0
  141.4340   77.4830  223.1560 C   0  0  0  0  0  0  0  0  0  0  0  0
  140.5580   82.7413  222.4858 H   0  0  0  0  0  0  0  0  0  0  0  0
  142.8926   81.9046  222.7714 H   0  0  0  0  0  0  0  0  0  0  0  0
  143.3405   79.4865  223.0837 H   0  0  0  0  0  0  0  0  0  0  0  0
  138.6698   81.1115  222.5177 H   0  0  0  0  0  0  0  0  0  0  0  0
  138.8410   77.9033  223.8332 H   0  0  0  0  0  0  0  0  0  0  0  0
  137.8946   78.8161  222.6610 H   0  0  0  0  0  0  0  0  0  0  0  0
  138.5193   76.6040  221.6503 H   0  0  0  0  0  0  0  0  0  0  0  0
  139.4230   77.8507  220.7848 H   0  0  0  0  0  0  0  0  0  0  0  0
  138.7010   71.9470  220.8100 H   0  0  0  0  0  0  0  0  0  0  0  0
  138.2144   72.3277  223.5116 H   0  0  0  0  0  0  0  0  0  0  0  0
  138.4330   70.6781  222.8167 H   0  0  0  0  0  0  0  0  0  0  0  0
  140.7578   70.6505  223.3698 H   0  0  0  0  0  0  0  0  0  0  0  0
  140.7843   72.3929  223.7362 H   0  0  0  0  0  0  0  0  0  0  0  0
  138.9797   71.8813  225.5572 H   0  0  0  0  0  0  0  0  0  0  0  0
  141.8212   71.4723  225.4581 H   0  0  0  0  0  0  0  0  0  0  0  0
  140.7258   72.3158  226.6599 H   0  0  0  0  0  0  0  0  0  0  0  0
  142.1400   70.4120  227.5610 H   0  0  0  0  0  0  0  0  0  0  0  0
  140.3908   70.3465  227.8956 H   0  0  0  0  0  0  0  0  0  0  0  0
  141.7616   68.9831  225.5121 H   0  0  0  0  0  0  0  0  0  0  0  0
  141.3429   68.1486  227.0266 H   0  0  0  0  0  0  0  0  0  0  0  0
  139.6718   68.0572  225.1072 H   0  0  0  0  0  0  0  0  0  0  0  0
  139.0904   68.6055  226.7901 H   0  0  0  0  0  0  0  0  0  0  0  0
  138.5320   69.7920  224.4420 H   0  0  0  0  0  0  0  0  0  0  0  0
  143.0039   74.2525  218.2322 H   0  0  0  0  0  0  0  0  0  0  0  0
  144.4061   75.1168  218.8705 H   0  0  0  0  0  0  0  0  0  0  0  0
  144.3685   72.0634  218.3677 H   0  0  0  0  0  0  0  0  0  0  0  0
  144.9719   73.2223  217.1627 H   0  0  0  0  0  0  0  0  0  0  0  0
  146.6520   73.9100  218.6440 H   0  0  0  0  0  0  0  0  0  0  0  0
  146.5803   72.2539  220.7486 H   0  0  0  0  0  0  0  0  0  0  0  0
  146.2738   74.0556  220.7593 H   0  0  0  0  0  0  0  0  0  0  0  0
  144.2808   71.7942  220.7221 H   0  0  0  0  0  0  0  0  0  0  0  0
  144.5050   73.1438  221.9246 H   0  0  0  0  0  0  0  0  0  0  0  0
  141.1932   77.2110  224.1943 H   0  0  0  0  0  0  0  0  0  0  0  0
  142.4752   77.2039  222.9367 H   0  0  0  0  0  0  0  0  0  0  0  0
  1  2  2  0
  2  3  1  0
  3  4  2  0
  4  5  1  0
  5  6  2  0
  5  7  1  0
  7  8  1  0
  8  9  1  0
  9 10  1  0
 10 11  2  0
 11 12  1  0
 12 13  1  0
 13 14  1  0
 14 15  1  0
 15 16  1  0
 16 17  1  0
 17 18  1  0
 18 19  1  0
 19 20  1  0
 20 21  1  0
 12 22  2  0
 22 23  1  0
 23 24  1  0
 24 25  1  0
 25 26  1  0
 26 27  1  0
 27 28  1  0
 28 29  1  0
 23 30  2  0
  9 31  1  0
  6  1  1  0
 30 10  1  0
 31  4  1  0
 21 16  1  0
 29 24  1  0
  1 32  1  0
  2 33  1  0
  3 34  1  0
  6 35  1  0
  7 36  1  0
  7 37  1  0
  8 38  1  0
  8 39  1  0
 13 40  1  0
 14 41  1  0
 14 42  1  0
 15 43  1  0
 15 44  1  0
 16 45  1  1
 17 46  1  0
 17 47  1  0
 18 48  1  0
 18 49  1  0
 19 50  1  0
 19 51  1  0
 20 52  1  0
 20 53  1  0
 21 54  1  0
 25 55  1  0
 25 56  1  0
 26 57  1  0
 26 58  1  0
 27 59  1  0
 28 60  1  0
 28 61  1  0
 29 62  1  0
 29 63  1  0
 31 64  1  0
 31 65  1  0
M  END
>  <smiles>  (50) 
c1ccc2c(c1)CCN(c1nc(NCCC3CCCCN3)nc(N3CCNCC3)n1)C2

>  <score_type>  (50) 
oracle

>  <origin>  (50) 
autodockgpu

>  <m_score__min__energy>  (50) 
-10.199999999999999

>  <m_primary>  (50) 
energy

>  <rmsd>  (50) 
5.072615585688682

>  <m_score__min__rmsd>  (50) 
5.072615585688682

>  <meeko>  (50) 
{"free_energy": -9.41, "intermolecular_energy": -11.2, "internal_energy": -0.89, "cluster_size": 38, "cluster_id": 1, "rank_in_cluster": 26}

>  <energy>  (50) 
-7.0

>  <cluster_rmsd>  (50) 
0.0

>  <cluster>  (50) 
6

$$$$

     RDKit          3D

 65 69  0  0  0  0  0  0  0  0999 V2000
  140.3840   67.5220  226.2410 C   0  0  0  0  0  0  0  0  0  0  0  0
  141.1750   68.5030  226.8160 C   0  0  0  0  0  0  0  0  0  0  0  0
  141.1450   69.8110  226.3520 C   0  0  0  0  0  0  0  0  0  0  0  0
  140.3080   70.1360  225.2940 C   0  0  0  0  0  0  0  0  0  0  0  0
  139.5300   69.1410  224.7390 C   0  0  0  0  0  0  0  0  0  0  0  0
  139.5500   67.8420  225.1890 C   0  0  0  0  0  0  0  0  0  0  0  0
  138.6490   69.5750  223.5940 C   0  0  0  0  0  0  0  0  0  0  0  0
  139.5880   70.2950  222.6360 C   0  0  0  0  0  0  0  0  0  0  0  0
  140.1540   71.4820  223.2830 N   0  0  0  0  0  0  0  0  0  0  0  0
  140.5990   72.5240  222.4570 C   0  0  0  0  0  0  0  0  0  0  0  0
  139.7730   73.5710  222.2370 N   0  0  0  0  0  0  0  0  0  0  0  0
  140.1220   74.6260  221.4540 C   0  0  0  0  0  0  0  0  0  0  0  0
  139.1610   75.6590  221.3090 N   0  0  0  0  0  0  0  0  0  0  0  0
  139.1150   76.8110  222.2140 C   0  0  0  0  0  0  0  0  0  0  0  0
  140.5270   77.0680  222.6950 C   0  0  0  0  0  0  0  0  0  0  0  0
  140.8860   78.5510  222.5850 C   0  0  1  0  0  0  0  0  0  0  0  0
  141.5550   79.0120  223.8340 C   0  0  0  0  0  0  0  0  0  0  0  0
  142.5060   80.1450  223.7040 C   0  0  0  0  0  0  0  0  0  0  0  0
  142.5630   80.8330  222.3900 C   0  0  0  0  0  0  0  0  0  0  0  0
  141.9530   80.0960  221.2350 C   0  0  0  0  0  0  0  0  0  0  0  0
  141.8410   78.6630  221.4960 N   0  0  0  0  0  0  0  0  0  0  0  0
  141.3270   74.6340  220.8730 N   0  0  0  0  0  0  0  0  0  0  0  0
  142.1850   73.5900  221.0760 C   0  0  0  0  0  0  0  0  0  0  0  0
  143.4670   73.5470  220.4650 N   0  0  0  0  0  0  0  0  0  0  0  0
  144.4740   72.5630  220.8550 C   0  0  0  0  0  0  0  0  0  0  0  0
  145.8230   72.9060  220.2850 C   0  0  0  0  0  0  0  0  0  0  0  0
  145.7900   73.0310  218.8400 N   0  0  0  0  0  0  0  0  0  0  0  0
  144.5520   73.6120  218.3620 C   0  0  0  0  0  0  0  0  0  0  0  0
  143.8590   74.4720  219.4010 C   0  0  0  0  0  0  0  0  0  0  0  0
  141.8180   72.5480  221.8620 N   0  0  0  0  0  0  0  0  0  0  0  0
  140.2240   71.5190  224.7400 C   0  0  0  0  0  0  0  0  0  0  0  0
  140.4205   66.4907  226.6218 H   0  0  0  0  0  0  0  0  0  0  0  0
  141.8378   68.2413  227.6540 H   0  0  0  0  0  0  0  0  0  0  0  0
  141.7775   70.5811  226.8177 H   0  0  0  0  0  0  0  0  0  0  0  0
  138.9155   67.0749  224.7210 H   0  0  0  0  0  0  0  0  0  0  0  0
  138.1901   68.7029  223.1053 H   0  0  0  0  0  0  0  0  0  0  0  0
  137.8204   70.2175  223.9265 H   0  0  0  0  0  0  0  0  0  0  0  0
  140.4028   69.6155  222.3456 H   0  0  0  0  0  0  0  0  0  0  0  0
  139.0240   70.6054  221.7441 H   0  0  0  0  0  0  0  0  0  0  0  0
  138.4840   75.5510  220.5130 H   0  0  0  0  0  0  0  0  0  0  0  0
  138.7338   77.6936  221.6795 H   0  0  0  0  0  0  0  0  0  0  0  0
  138.4466   76.6095  223.0641 H   0  0  0  0  0  0  0  0  0  0  0  0
  140.6107   76.7553  223.7463 H   0  0  0  0  0  0  0  0  0  0  0  0
  141.2207   76.4933  222.0638 H   0  0  0  0  0  0  0  0  0  0  0  0
  139.9821   79.1554  222.4185 H   0  0  0  0  0  0  0  0  0  0  0  0
  140.7685   79.3168  224.5400 H   0  0  0  0  0  0  0  0  0  0  0  0
  142.1659   78.1594  224.1654 H   0  0  0  0  0  0  0  0  0  0  0  0
  142.2319   80.8960  224.4596 H   0  0  0  0  0  0  0  0  0  0  0  0
  143.5020   79.6966  223.8337 H   0  0  0  0  0  0  0  0  0  0  0  0
  142.0383   81.7946  222.4905 H   0  0  0  0  0  0  0  0  0  0  0  0
  143.6325   80.9267  222.1505 H   0  0  0  0  0  0  0  0  0  0  0  0
  140.9482   80.5018  221.0459 H   0  0  0  0  0  0  0  0  0  0  0  0
  142.6085   80.2315  220.3621 H   0  0  0  0  0  0  0  0  0  0  0  0
  142.7540   78.3040  221.8550 H   0  0  0  0  0  0  0  0  0  0  0  0
  144.5445   72.5382  221.9525 H   0  0  0  0  0  0  0  0  0  0  0  0
  144.1706   71.5814  220.4621 H   0  0  0  0  0  0  0  0  0  0  0  0
  146.1575   73.8612  220.7159 H   0  0  0  0  0  0  0  0  0  0  0  0
  146.5150   72.0893  220.5383 H   0  0  0  0  0  0  0  0  0  0  0  0
  146.5480   73.7290  218.5900 H   0  0  0  0  0  0  0  0  0  0  0  0
  144.7740   74.2352  217.4832 H   0  0  0  0  0  0  0  0  0  0  0  0
  143.8730   72.7820  218.1171 H   0  0  0  0  0  0  0  0  0  0  0  0
  144.5470   75.2374  219.7894 H   0  0  0  0  0  0  0  0  0  0  0  0
  142.9940   75.0066  218.9816 H   0  0  0  0  0  0  0  0  0  0  0  0
  141.1157   72.0861  225.0454 H   0  0  0  0  0  0  0  0  0  0  0  0
  139.3156   72.0032  225.1278 H   0  0  0  0  0  0  0  0  0  0  0  0
  1  2  2  0
  2  3  1  0
  3  4  2  0
  4  5  1  0
  5  6  2  0
  5  7  1  0
  7  8  1  0
  8  9  1  0
  9 10  1  0
 10 11  2  0
 11 12  1  0
 12 13  1  0
 13 14  1  0
 14 15  1  0
 15 16  1  0
 16 17  1  0
 17 18  1  0
 18 19  1  0
 19 20  1  0
 20 21  1  0
 12 22  2  0
 22 23  1  0
 23 24  1  0
 24 25  1  0
 25 26  1  0
 26 27  1  0
 27 28  1  0
 28 29  1  0
 23 30  2  0
  9 31  1  0
  6  1  1  0
 30 10  1  0
 31  4  1  0
 21 16  1  0
 29 24  1  0
  1 32  1  0
  2 33  1  0
  3 34  1  0
  6 35  1  0
  7 36  1  0
  7 37  1  0
  8 38  1  0
  8 39  1  0
 13 40  1  0
 14 41  1  0
 14 42  1  0
 15 43  1  0
 15 44  1  0
 16 45  1  6
 17 46  1  0
 17 47  1  0
 18 48  1  0
 18 49  1  0
 19 50  1  0
 19 51  1  0
 20 52  1  0
 20 53  1  0
 21 54  1  0
 25 55  1  0
 25 56  1  0
 26 57  1  0
 26 58  1  0
 27 59  1  0
 28 60  1  0
 28 61  1  0
 29 62  1  0
 29 63  1  0
 31 64  1  0
 31 65  1  0
M  END
>  <smiles>  (51) 
c1ccc2c(c1)CCN(c1nc(NCCC3CCCCN3)nc(N3CCNCC3)n1)C2

>  <score_type>  (51) 
oracle

>  <origin>  (51) 
autodockgpu

>  <m_score__min__energy>  (51) 
-10.109999999999999

>  <m_primary>  (51) 
energy

>  <rmsd>  (51) 
11.04005376687501

>  <m_score__min__rmsd>  (51) 
11.04005376687501

>  <meeko>  (51) 
{"free_energy": -10.11, "intermolecular_energy": -11.9, "internal_energy": -0.92, "cluster_size": 24, "cluster_id": 1, "rank_in_cluster": 1}

>  <energy>  (51) 
-10.11

>  <cluster_rmsd>  (51) 
0.0

>  <cluster>  (51) 
1

$$$$

     RDKit          3D

 65 69  0  0  0  0  0  0  0  0999 V2000
  140.3990   67.5340  226.3720 C   0  0  0  0  0  0  0  0  0  0  0  0
  141.1460   68.5470  226.9520 C   0  0  0  0  0  0  0  0  0  0  0  0
  141.0810   69.8480  226.4730 C   0  0  0  0  0  0  0  0  0  0  0  0
  140.2550   70.1350  225.3950 C   0  0  0  0  0  0  0  0  0  0  0  0
  139.5220   69.1080  224.8360 C   0  0  0  0  0  0  0  0  0  0  0  0
  139.5770   67.8160  225.2990 C   0  0  0  0  0  0  0  0  0  0  0  0
  138.6500   69.5010  223.6690 C   0  0  0  0  0  0  0  0  0  0  0  0
  139.5840   70.2430  222.7220 C   0  0  0  0  0  0  0  0  0  0  0  0
  140.0970   71.4550  223.3670 N   0  0  0  0  0  0  0  0  0  0  0  0
  140.5240   72.5020  222.5390 C   0  0  0  0  0  0  0  0  0  0  0  0
  139.6920   73.5490  222.3410 N   0  0  0  0  0  0  0  0  0  0  0  0
  140.0230   74.6090  221.5580 C   0  0  0  0  0  0  0  0  0  0  0  0
  139.0570   75.6420  221.4380 N   0  0  0  0  0  0  0  0  0  0  0  0
  138.7840   76.5810  222.5300 C   0  0  0  0  0  0  0  0  0  0  0  0
  139.1240   77.9690  222.0300 C   0  0  0  0  0  0  0  0  0  0  0  0
  140.5550   78.3570  222.4110 C   0  0  1  0  0  0  0  0  0  0  0  0
  141.1410   79.2450  221.3680 C   0  0  0  0  0  0  0  0  0  0  0  0
  142.1870   80.1990  221.8140 C   0  0  0  0  0  0  0  0  0  0  0  0
  142.6840   80.0570  223.2050 C   0  0  0  0  0  0  0  0  0  0  0  0
  141.8330   79.2330  224.1260 C   0  0  0  0  0  0  0  0  0  0  0  0
  140.4590   79.1160  223.6460 N   0  0  0  0  0  0  0  0  0  0  0  0
  141.2160   74.6240  220.9540 N   0  0  0  0  0  0  0  0  0  0  0  0
  142.0810   73.5800  221.1340 C   0  0  0  0  0  0  0  0  0  0  0  0
  143.3500   73.5440  220.4970 N   0  0  0  0  0  0  0  0  0  0  0  0
  144.3590   72.5470  220.8480 C   0  0  0  0  0  0  0  0  0  0  0  0
  145.7000   72.8950  220.2590 C   0  0  0  0  0  0  0  0  0  0  0  0
  145.6400   73.0500  218.8180 N   0  0  0  0  0  0  0  0  0  0  0  0
  144.3950   73.6460  218.3760 C   0  0  0  0  0  0  0  0  0  0  0  0
  143.7270   74.4880  219.4450 C   0  0  0  0  0  0  0  0  0  0  0  0
  141.7310   72.5330  221.9210 N   0  0  0  0  0  0  0  0  0  0  0  0
  140.1360   71.5080  224.8250 C   0  0  0  0  0  0  0  0  0  0  0  0
  140.4607   66.5085  226.7652 H   0  0  0  0  0  0  0  0  0  0  0  0
  141.8007   68.3163  227.8053 H   0  0  0  0  0  0  0  0  0  0  0  0
  141.6779   70.6435  226.9429 H   0  0  0  0  0  0  0  0  0  0  0  0
  138.9793   67.0233  224.8253 H   0  0  0  0  0  0  0  0  0  0  0  0
  138.2304   68.6092  223.1805 H   0  0  0  0  0  0  0  0  0  0  0  0
  137.7938   70.1185  223.9782 H   0  0  0  0  0  0  0  0  0  0  0  0
  140.4268   69.5883  222.4552 H   0  0  0  0  0  0  0  0  0  0  0  0
  139.0278   70.5254  221.8159 H   0  0  0  0  0  0  0  0  0  0  0  0
  138.5490   75.6930  220.5200 H   0  0  0  0  0  0  0  0  0  0  0  0
  137.7215   76.5324  222.8107 H   0  0  0  0  0  0  0  0  0  0  0  0
  139.3843   76.3301  223.4169 H   0  0  0  0  0  0  0  0  0  0  0  0
  139.0255   77.9904  220.9346 H   0  0  0  0  0  0  0  0  0  0  0  0
  138.4320   78.6869  222.4945 H   0  0  0  0  0  0  0  0  0  0  0  0
  141.1845   77.4607  222.5134 H   0  0  0  0  0  0  0  0  0  0  0  0
  141.5851   78.6017  220.5940 H   0  0  0  0  0  0  0  0  0  0  0  0
  140.3068   79.8727  221.0216 H   0  0  0  0  0  0  0  0  0  0  0  0
  143.0493   80.0835  221.1408 H   0  0  0  0  0  0  0  0  0  0  0  0
  141.7024   81.1860  221.7848 H   0  0  0  0  0  0  0  0  0  0  0  0
  143.6800   79.5921  223.1608 H   0  0  0  0  0  0  0  0  0  0  0  0
  142.6801   81.0729  223.6268 H   0  0  0  0  0  0  0  0  0  0  0  0
  142.2682   78.2258  224.2050 H   0  0  0  0  0  0  0  0  0  0  0  0
  141.8085   79.7349  225.1045 H   0  0  0  0  0  0  0  0  0  0  0  0
  140.0990   80.0630  223.3920 H   0  0  0  0  0  0  0  0  0  0  0  0
  144.4501   72.4996  221.9432 H   0  0  0  0  0  0  0  0  0  0  0  0
  144.0429   71.5751  220.4413 H   0  0  0  0  0  0  0  0  0  0  0  0
  146.0480   73.8393  220.7030 H   0  0  0  0  0  0  0  0  0  0  0  0
  146.3922   72.0697  220.4821 H   0  0  0  0  0  0  0  0  0  0  0  0
  146.3960   73.7490  218.5690 H   0  0  0  0  0  0  0  0  0  0  0  0
  144.6025   74.2855  217.5054 H   0  0  0  0  0  0  0  0  0  0  0  0
  143.7073   72.8240  218.1283 H   0  0  0  0  0  0  0  0  0  0  0  0
  144.4267   75.2416  219.8356 H   0  0  0  0  0  0  0  0  0  0  0  0
  142.8572   75.0356  219.0531 H   0  0  0  0  0  0  0  0  0  0  0  0
  141.0017   72.1079  225.1423 H   0  0  0  0  0  0  0  0  0  0  0  0
  139.2039   71.9647  225.1893 H   0  0  0  0  0  0  0  0  0  0  0  0
  1  2  2  0
  2  3  1  0
  3  4  2  0
  4  5  1  0
  5  6  2  0
  5  7  1  0
  7  8  1  0
  8  9  1  0
  9 10  1  0
 10 11  2  0
 11 12  1  0
 12 13  1  0
 13 14  1  0
 14 15  1  0
 15 16  1  0
 16 17  1  0
 17 18  1  0
 18 19  1  0
 19 20  1  0
 20 21  1  0
 12 22  2  0
 22 23  1  0
 23 24  1  0
 24 25  1  0
 25 26  1  0
 26 27  1  0
 27 28  1  0
 28 29  1  0
 23 30  2  0
  9 31  1  0
  6  1  1  0
 30 10  1  0
 31  4  1  0
 21 16  1  0
 29 24  1  0
  1 32  1  0
  2 33  1  0
  3 34  1  0
  6 35  1  0
  7 36  1  0
  7 37  1  0
  8 38  1  0
  8 39  1  0
 13 40  1  0
 14 41  1  0
 14 42  1  0
 15 43  1  0
 15 44  1  0
 16 45  1  1
 17 46  1  0
 17 47  1  0
 18 48  1  0
 18 49  1  0
 19 50  1  0
 19 51  1  0
 20 52  1  0
 20 53  1  0
 21 54  1  0
 25 55  1  0
 25 56  1  0
 26 57  1  0
 26 58  1  0
 27 59  1  0
 28 60  1  0
 28 61  1  0
 29 62  1  0
 29 63  1  0
 31 64  1  0
 31 65  1  0
M  END
>  <smiles>  (52) 
c1ccc2c(c1)CCN(c1nc(NCCC3CCCCN3)nc(N3CCNCC3)n1)C2

>  <score_type>  (52) 
oracle

>  <origin>  (52) 
autodockgpu

>  <m_score__min__energy>  (52) 
-10.109999999999999

>  <m_primary>  (52) 
energy

>  <rmsd>  (52) 
11.093524070419582

>  <m_score__min__rmsd>  (52) 
11.093524070419582

>  <meeko>  (52) 
{"free_energy": -9.41, "intermolecular_energy": -11.19, "internal_energy": -0.89, "cluster_size": 24, "cluster_id": 1, "rank_in_cluster": 12}

>  <energy>  (52) 
-10.1

>  <cluster_rmsd>  (52) 
0.32

>  <cluster>  (52) 
1

$$$$

     RDKit          3D

 65 69  0  0  0  0  0  0  0  0999 V2000
  140.3260   67.4730  226.2530 C   0  0  0  0  0  0  0  0  0  0  0  0
  141.2700   68.3660  226.7320 C   0  0  0  0  0  0  0  0  0  0  0  0
  141.2900   69.6860  226.3030 C   0  0  0  0  0  0  0  0  0  0  0  0
  140.3470   70.1130  225.3780 C   0  0  0  0  0  0  0  0  0  0  0  0
  139.4180   69.2040  224.9170 C   0  0  0  0  0  0  0  0  0  0  0  0
  139.3870   67.8950  225.3330 C   0  0  0  0  0  0  0  0  0  0  0  0
  138.4290   69.7460  223.9150 C   0  0  0  0  0  0  0  0  0  0  0  0
  139.2870   70.4160  222.8500 C   0  0  0  0  0  0  0  0  0  0  0  0
  140.0360   71.5310  223.4360 N   0  0  0  0  0  0  0  0  0  0  0  0
  140.4530   72.5580  222.5770 C   0  0  0  0  0  0  0  0  0  0  0  0
  139.6050   73.5830  222.3380 N   0  0  0  0  0  0  0  0  0  0  0  0
  139.9250   74.6230  221.5230 C   0  0  0  0  0  0  0  0  0  0  0  0
  138.9440   75.6340  221.3620 N   0  0  0  0  0  0  0  0  0  0  0  0
  139.2820   76.9770  220.8810 C   0  0  0  0  0  0  0  0  0  0  0  0
  139.2360   77.9100  222.0710 C   0  0  0  0  0  0  0  0  0  0  0  0
  140.6420   78.3690  222.4660 C   0  0  1  0  0  0  0  0  0  0  0  0
  141.1980   79.2780  221.4240 C   0  0  0  0  0  0  0  0  0  0  0  0
  142.1910   80.2840  221.8760 C   0  0  0  0  0  0  0  0  0  0  0  0
  142.6780   80.1740  223.2730 C   0  0  0  0  0  0  0  0  0  0  0  0
  141.8560   79.3160  224.1900 C   0  0  0  0  0  0  0  0  0  0  0  0
  140.4950   79.1310  223.6950 N   0  0  0  0  0  0  0  0  0  0  0  0
  141.1230   74.6370  220.9290 N   0  0  0  0  0  0  0  0  0  0  0  0
  142.0030   73.6150  221.1500 C   0  0  0  0  0  0  0  0  0  0  0  0
  143.2780   73.5790  220.5240 N   0  0  0  0  0  0  0  0  0  0  0  0
  144.2710   72.5600  220.8580 C   0  0  0  0  0  0  0  0  0  0  0  0
  145.6210   72.9060  220.2910 C   0  0  0  0  0  0  0  0  0  0  0  0
  145.5780   73.1000  218.8540 N   0  0  0  0  0  0  0  0  0  0  0  0
  144.3460   73.7250  218.4160 C   0  0  0  0  0  0  0  0  0  0  0  0
  143.6770   74.5460  219.5020 C   0  0  0  0  0  0  0  0  0  0  0  0
  141.6650   72.5880  221.9670 N   0  0  0  0  0  0  0  0  0  0  0  0
  140.3080   71.5150  224.8690 C   0  0  0  0  0  0  0  0  0  0  0  0
  140.3243   66.4307  226.6045 H   0  0  0  0  0  0  0  0  0  0  0  0
  142.0161   68.0237  227.4643 H   0  0  0  0  0  0  0  0  0  0  0  0
  142.0445   70.3858  226.6916 H   0  0  0  0  0  0  0  0  0  0  0  0
  138.6308   67.1985  224.9417 H   0  0  0  0  0  0  0  0  0  0  0  0
  137.8336   68.9311  223.4776 H   0  0  0  0  0  0  0  0  0  0  0  0
  137.7125   70.4440  224.3726 H   0  0  0  0  0  0  0  0  0  0  0  0
  139.9929   69.6810  222.4359 H   0  0  0  0  0  0  0  0  0  0  0  0
  138.6354   70.7998  222.0512 H   0  0  0  0  0  0  0  0  0  0  0  0
  137.9580   75.3640  221.6080 H   0  0  0  0  0  0  0  0  0  0  0  0
  140.2910   76.9763  220.4428 H   0  0  0  0  0  0  0  0  0  0  0  0
  138.5720   77.3015  220.1060 H   0  0  0  0  0  0  0  0  0  0  0  0
  138.6295   78.7909  221.8136 H   0  0  0  0  0  0  0  0  0  0  0  0
  138.7928   77.3705  222.9211 H   0  0  0  0  0  0  0  0  0  0  0  0
  141.3120   77.5043  222.5817 H   0  0  0  0  0  0  0  0  0  0  0  0
  141.6822   78.6520  220.6600 H   0  0  0  0  0  0  0  0  0  0  0  0
  140.3389   79.8627  221.0632 H   0  0  0  0  0  0  0  0  0  0  0  0
  143.0656   80.2069  221.2134 H   0  0  0  0  0  0  0  0  0  0  0  0
  141.6593   81.2461  221.8354 H   0  0  0  0  0  0  0  0  0  0  0  0
  143.6952   79.7564  223.2430 H   0  0  0  0  0  0  0  0  0  0  0  0
  142.6214   81.1911  223.6881 H   0  0  0  0  0  0  0  0  0  0  0  0
  142.3375   78.3311  224.2808 H   0  0  0  0  0  0  0  0  0  0  0  0
  141.7963   79.8221  225.1648 H   0  0  0  0  0  0  0  0  0  0  0  0
  140.0930   80.0580  223.4300 H   0  0  0  0  0  0  0  0  0  0  0  0
  144.3510   72.4827  221.9524 H   0  0  0  0  0  0  0  0  0  0  0  0
  143.9465   71.6031  220.4231 H   0  0  0  0  0  0  0  0  0  0  0  0
  145.9765   73.8337  220.7633 H   0  0  0  0  0  0  0  0  0  0  0  0
  146.3000   72.0658  220.4983 H   0  0  0  0  0  0  0  0  0  0  0  0
  146.3450   73.7960  218.6310 H   0  0  0  0  0  0  0  0  0  0  0  0
  144.5715   74.3860  217.5661 H   0  0  0  0  0  0  0  0  0  0  0  0
  143.6503   72.9197  218.1378 H   0  0  0  0  0  0  0  0  0  0  0  0
  144.3818   75.2800  219.9198 H   0  0  0  0  0  0  0  0  0  0  0  0
  142.8178   75.1145  219.1167 H   0  0  0  0  0  0  0  0  0  0  0  0
  141.2789   71.9960  225.0585 H   0  0  0  0  0  0  0  0  0  0  0  0
  139.5067   72.0601  225.3893 H   0  0  0  0  0  0  0  0  0  0  0  0
  1  2  2  0
  2  3  1  0
  3  4  2  0
  4  5  1  0
  5  6  2  0
  5  7  1  0
  7  8  1  0
  8  9  1  0
  9 10  1  0
 10 11  2  0
 11 12  1  0
 12 13  1  0
 13 14  1  0
 14 15  1  0
 15 16  1  0
 16 17  1  0
 17 18  1  0
 18 19  1  0
 19 20  1  0
 20 21  1  0
 12 22  2  0
 22 23  1  0
 23 24  1  0
 24 25  1  0
 25 26  1  0
 26 27  1  0
 27 28  1  0
 28 29  1  0
 23 30  2  0
  9 31  1  0
  6  1  1  0
 30 10  1  0
 31  4  1  0
 21 16  1  0
 29 24  1  0
  1 32  1  0
  2 33  1  0
  3 34  1  0
  6 35  1  0
  7 36  1  0
  7 37  1  0
  8 38  1  0
  8 39  1  0
 13 40  1  0
 14 41  1  0
 14 42  1  0
 15 43  1  0
 15 44  1  0
 16 45  1  1
 17 46  1  0
 17 47  1  0
 18 48  1  0
 18 49  1  0
 19 50  1  0
 19 51  1  0
 20 52  1  0
 20 53  1  0
 21 54  1  0
 25 55  1  0
 25 56  1  0
 26 57  1  0
 26 58  1  0
 27 59  1  0
 28 60  1  0
 28 61  1  0
 29 62  1  0
 29 63  1  0
 31 64  1  0
 31 65  1  0
M  END
>  <smiles>  (53) 
c1ccc2c(c1)CCN(c1nc(NCCC3CCCCN3)nc(N3CCNCC3)n1)C2

>  <score_type>  (53) 
oracle

>  <origin>  (53) 
autodockgpu

>  <m_score__min__energy>  (53) 
-10.109999999999999

>  <m_primary>  (53) 
energy

>  <rmsd>  (53) 
11.106637318971819

>  <m_score__min__rmsd>  (53) 
11.106637318971819

>  <meeko>  (53) 
{"free_energy": -9.28, "intermolecular_energy": -11.07, "internal_energy": -0.9, "cluster_size": 24, "cluster_id": 1, "rank_in_cluster": 14}

>  <energy>  (53) 
-9.94

>  <cluster_rmsd>  (53) 
0.36

>  <cluster>  (53) 
1

$$$$

     RDKit          3D

 65 69  0  0  0  0  0  0  0  0999 V2000
  138.6060   80.4460  224.0490 C   0  0  0  0  0  0  0  0  0  0  0  0
  139.9730   80.5240  223.8310 C   0  0  0  0  0  0  0  0  0  0  0  0
  140.6280   79.5870  223.0440 C   0  0  0  0  0  0  0  0  0  0  0  0
  139.8990   78.5560  222.4680 C   0  0  0  0  0  0  0  0  0  0  0  0
  138.5400   78.5000  222.7010 C   0  0  0  0  0  0  0  0  0  0  0  0
  137.8790   79.4210  223.4780 C   0  0  0  0  0  0  0  0  0  0  0  0
  137.8210   77.3500  222.0410 C   0  0  0  0  0  0  0  0  0  0  0  0
  138.6150   76.1150  222.4460 C   0  0  0  0  0  0  0  0  0  0  0  0
  139.9780   76.1970  221.9140 N   0  0  0  0  0  0  0  0  0  0  0  0
  140.6750   74.9960  221.7240 C   0  0  0  0  0  0  0  0  0  0  0  0
  140.1330   73.8520  222.1980 N   0  0  0  0  0  0  0  0  0  0  0  0
  140.7360   72.6420  222.0570 C   0  0  0  0  0  0  0  0  0  0  0  0
  140.0560   71.5220  222.5990 N   0  0  0  0  0  0  0  0  0  0  0  0
  138.6760   71.6100  223.0860 C   0  0  0  0  0  0  0  0  0  0  0  0
  138.3270   70.2740  223.7050 C   0  0  0  0  0  0  0  0  0  0  0  0
  139.0360   70.0870  225.0490 C   0  0  1  0  0  0  0  0  0  0  0  0
  138.7180   68.7460  225.6150 C   0  0  0  0  0  0  0  0  0  0  0  0
  139.7360   68.1400  226.5090 C   0  0  0  0  0  0  0  0  0  0  0  0
  140.8820   68.9950  226.9070 C   0  0  0  0  0  0  0  0  0  0  0  0
  141.0990   70.2290  226.0820 C   0  0  0  0  0  0  0  0  0  0  0  0
  140.4610   70.1320  224.7710 N   0  0  0  0  0  0  0  0  0  0  0  0
  141.9130   72.5730  221.4270 N   0  0  0  0  0  0  0  0  0  0  0  0
  142.4880   73.7110  220.9350 C   0  0  0  0  0  0  0  0  0  0  0  0
  143.7470   73.6880  220.2770 N   0  0  0  0  0  0  0  0  0  0  0  0
  144.9080   73.0170  220.8580 C   0  0  0  0  0  0  0  0  0  0  0  0
  146.1720   73.3810  220.1280 C   0  0  0  0  0  0  0  0  0  0  0  0
  146.0900   73.0840  218.7100 N   0  0  0  0  0  0  0  0  0  0  0  0
  144.7640   73.3130  218.1720 C   0  0  0  0  0  0  0  0  0  0  0  0
  143.9630   74.3190  218.9750 C   0  0  0  0  0  0  0  0  0  0  0  0
  141.8700   74.9080  221.0860 N   0  0  0  0  0  0  0  0  0  0  0  0
  140.5340   77.5120  221.6130 C   0  0  0  0  0  0  0  0  0  0  0  0
  138.1028   81.1980  224.6745 H   0  0  0  0  0  0  0  0  0  0  0  0
  140.5480   81.3421  224.2894 H   0  0  0  0  0  0  0  0  0  0  0  0
  141.7130   79.6607  222.8786 H   0  0  0  0  0  0  0  0  0  0  0  0
  136.7940   79.3430  223.6413 H   0  0  0  0  0  0  0  0  0  0  0  0
  136.7847   77.2811  222.4033 H   0  0  0  0  0  0  0  0  0  0  0  0
  137.7619   77.4675  220.9489 H   0  0  0  0  0  0  0  0  0  0  0  0
  138.6558   76.0522  223.5434 H   0  0  0  0  0  0  0  0  0  0  0  0
  138.1222   75.2200  222.0384 H   0  0  0  0  0  0  0  0  0  0  0  0
  140.6000   70.6240  222.6320 H   0  0  0  0  0  0  0  0  0  0  0  0
  138.5938   72.4065  223.8402 H   0  0  0  0  0  0  0  0  0  0  0  0
  137.9880   71.8467  222.2610 H   0  0  0  0  0  0  0  0  0  0  0  0
  137.2395   70.2242  223.8626 H   0  0  0  0  0  0  0  0  0  0  0  0
  138.6558   69.4763  223.0227 H   0  0  0  0  0  0  0  0  0  0  0  0
  138.7203   70.8614  225.7636 H   0  0  0  0  0  0  0  0  0  0  0  0
  137.7842   68.8396  226.1888 H   0  0  0  0  0  0  0  0  0  0  0  0
  138.6592   68.0730  224.7469 H   0  0  0  0  0  0  0  0  0  0  0  0
  139.2228   67.8244  227.4294 H   0  0  0  0  0  0  0  0  0  0  0  0
  140.1810   67.3238  225.9210 H   0  0  0  0  0  0  0  0  0  0  0  0
  140.7210   69.3104  227.9485 H   0  0  0  0  0  0  0  0  0  0  0  0
  141.7794   68.3767  226.7578 H   0  0  0  0  0  0  0  0  0  0  0  0
  140.6788   71.0927  226.6181 H   0  0  0  0  0  0  0  0  0  0  0  0
  142.1814   70.3456  225.9246 H   0  0  0  0  0  0  0  0  0  0  0  0
  140.7120   69.2200  224.3300 H   0  0  0  0  0  0  0  0  0  0  0  0
  145.0043   73.3161  221.9122 H   0  0  0  0  0  0  0  0  0  0  0  0
  144.7591   71.9304  220.7737 H   0  0  0  0  0  0  0  0  0  0  0  0
  146.3567   74.4580  220.2544 H   0  0  0  0  0  0  0  0  0  0  0  0
  146.9916   72.7823  220.5520 H   0  0  0  0  0  0  0  0  0  0  0  0
  146.7190   73.7870  218.2280 H   0  0  0  0  0  0  0  0  0  0  0  0
  144.8636   73.6865  217.1421 H   0  0  0  0  0  0  0  0  0  0  0  0
  144.2235   72.3558  218.2120 H   0  0  0  0  0  0  0  0  0  0  0  0
  144.5263   75.2568  219.0899 H   0  0  0  0  0  0  0  0  0  0  0  0
  143.0144   74.5765  218.4812 H   0  0  0  0  0  0  0  0  0  0  0  0
  141.6175   77.4989  221.8024 H   0  0  0  0  0  0  0  0  0  0  0  0
  140.3363   77.7485  220.5571 H   0  0  0  0  0  0  0  0  0  0  0  0
  1  2  2  0
  2  3  1  0
  3  4  2  0
  4  5  1  0
  5  6  2  0
  5  7  1  0
  7  8  1  0
  8  9  1  0
  9 10  1  0
 10 11  2  0
 11 12  1  0
 12 13  1  0
 13 14  1  0
 14 15  1  0
 15 16  1  0
 16 17  1  0
 17 18  1  0
 18 19  1  0
 19 20  1  0
 20 21  1  0
 12 22  2  0
 22 23  1  0
 23 24  1  0
 24 25  1  0
 25 26  1  0
 26 27  1  0
 27 28  1  0
 28 29  1  0
 23 30  2  0
  9 31  1  0
  6  1  1  0
 30 10  1  0
 31  4  1  0
 21 16  1  0
 29 24  1  0
  1 32  1  0
  2 33  1  0
  3 34  1  0
  6 35  1  0
  7 36  1  0
  7 37  1  0
  8 38  1  0
  8 39  1  0
 13 40  1  0
 14 41  1  0
 14 42  1  0
 15 43  1  0
 15 44  1  0
 16 45  1  1
 17 46  1  0
 17 47  1  0
 18 48  1  0
 18 49  1  0
 19 50  1  0
 19 51  1  0
 20 52  1  0
 20 53  1  0
 21 54  1  0
 25 55  1  0
 25 56  1  0
 26 57  1  0
 26 58  1  0
 27 59  1  0
 28 60  1  0
 28 61  1  0
 29 62  1  0
 29 63  1  0
 31 64  1  0
 31 65  1  0
M  END
>  <smiles>  (54) 
c1ccc2c(c1)CCN(c1nc(NCCC3CCCCN3)nc(N3CCNCC3)n1)C2

>  <score_type>  (54) 
oracle

>  <origin>  (54) 
autodockgpu

>  <m_score__min__energy>  (54) 
-10.109999999999999

>  <m_primary>  (54) 
energy

>  <rmsd>  (54) 
5.258250451077331

>  <m_score__min__rmsd>  (54) 
5.258250451077331

>  <meeko>  (54) 
{"free_energy": -8.87, "intermolecular_energy": -10.66, "internal_energy": -1.29, "cluster_size": 26, "cluster_id": 2, "rank_in_cluster": 24}

>  <energy>  (54) 
-9.77

>  <cluster_rmsd>  (54) 
0.72

>  <cluster>  (54) 
1

$$$$

     RDKit          3D

 65 69  0  0  0  0  0  0  0  0999 V2000
  141.3630   81.3010  223.8430 C   0  0  0  0  0  0  0  0  0  0  0  0
  142.6170   80.9270  223.3890 C   0  0  0  0  0  0  0  0  0  0  0  0
  142.7820   79.8190  222.5690 C   0  0  0  0  0  0  0  0  0  0  0  0
  141.6680   79.0770  222.2000 C   0  0  0  0  0  0  0  0  0  0  0  0
  140.4300   79.4710  222.6650 C   0  0  0  0  0  0  0  0  0  0  0  0
  140.2540   80.5650  223.4780 C   0  0  0  0  0  0  0  0  0  0  0  0
  139.2720   78.6130  222.2200 C   0  0  0  0  0  0  0  0  0  0  0  0
  139.6900   77.1900  222.5680 C   0  0  0  0  0  0  0  0  0  0  0  0
  140.8850   76.8160  221.8060 N   0  0  0  0  0  0  0  0  0  0  0  0
  141.1150   75.4510  221.5830 C   0  0  0  0  0  0  0  0  0  0  0  0
  140.3230   74.5530  222.2110 N   0  0  0  0  0  0  0  0  0  0  0  0
  140.4700   73.2110  222.0520 C   0  0  0  0  0  0  0  0  0  0  0  0
  139.5700   72.3810  222.7670 N   0  0  0  0  0  0  0  0  0  0  0  0
  139.8880   70.9870  223.0930 C   0  0  0  0  0  0  0  0  0  0  0  0
  139.1550   70.6410  224.3710 C   0  0  0  0  0  0  0  0  0  0  0  0
  140.1330   70.2360  225.4760 C   0  0  1  0  0  0  0  0  0  0  0  0
  140.5510   71.4350  226.2550 C   0  0  0  0  0  0  0  0  0  0  0  0
  140.9420   71.2100  227.6690 C   0  0  0  0  0  0  0  0  0  0  0  0
  141.0600   69.8020  228.1220 C   0  0  0  0  0  0  0  0  0  0  0  0
  140.4180   68.7710  227.2410 C   0  0  0  0  0  0  0  0  0  0  0  0
  139.4020   69.3530  226.3680 N   0  0  0  0  0  0  0  0  0  0  0  0
  141.4350   72.7540  221.2460 N   0  0  0  0  0  0  0  0  0  0  0  0
  142.2520   73.6370  220.5970 C   0  0  0  0  0  0  0  0  0  0  0  0
  143.3020   73.1960  219.7480 N   0  0  0  0  0  0  0  0  0  0  0  0
  143.9810   74.1060  218.8270 C   0  0  0  0  0  0  0  0  0  0  0  0
  144.8340   73.3520  217.8430 C   0  0  0  0  0  0  0  0  0  0  0  0
  145.8070   72.5010  218.5020 N   0  0  0  0  0  0  0  0  0  0  0  0
  145.2930   71.9160  219.7250 C   0  0  0  0  0  0  0  0  0  0  0  0
  143.7810   71.8140  219.7450 C   0  0  0  0  0  0  0  0  0  0  0  0
  142.0880   74.9710  220.7680 N   0  0  0  0  0  0  0  0  0  0  0  0
  141.7670   77.8740  221.3230 C   0  0  0  0  0  0  0  0  0  0  0  0
  141.2514   82.1818  224.4924 H   0  0  0  0  0  0  0  0  0  0  0  0
  143.4970   81.5179  223.6831 H   0  0  0  0  0  0  0  0  0  0  0  0
  143.7835   79.5323  222.2158 H   0  0  0  0  0  0  0  0  0  0  0  0
  139.2510   80.8479  223.8302 H   0  0  0  0  0  0  0  0  0  0  0  0
  138.3539   78.8905  222.7587 H   0  0  0  0  0  0  0  0  0  0  0  0
  139.0526   78.7325  221.1487 H   0  0  0  0  0  0  0  0  0  0  0  0
  139.9104   77.1283  223.6439 H   0  0  0  0  0  0  0  0  0  0  0  0
  138.8706   76.5015  222.3139 H   0  0  0  0  0  0  0  0  0  0  0  0
  138.6600   72.8230  223.0500 H   0  0  0  0  0  0  0  0  0  0  0  0
  139.5564   70.3257  222.2789 H   0  0  0  0  0  0  0  0  0  0  0  0
  140.9727   70.8563  223.2206 H   0  0  0  0  0  0  0  0  0  0  0  0
  138.5802   71.5178  224.7039 H   0  0  0  0  0  0  0  0  0  0  0  0
  138.4848   69.7922  224.1700 H   0  0  0  0  0  0  0  0  0  0  0  0
  141.0256   69.7579  225.0462 H   0  0  0  0  0  0  0  0  0  0  0  0
  141.4123   71.8839  225.7387 H   0  0  0  0  0  0  0  0  0  0  0  0
  139.6574   72.0748  226.3012 H   0  0  0  0  0  0  0  0  0  0  0  0
  141.9194   71.6906  227.8230 H   0  0  0  0  0  0  0  0  0  0  0  0
  140.1176   71.6317  228.2627 H   0  0  0  0  0  0  0  0  0  0  0  0
  142.1307   69.5612  228.1965 H   0  0  0  0  0  0  0  0  0  0  0  0
  140.5194   69.7523  229.0787 H   0  0  0  0  0  0  0  0  0  0  0  0
  141.1946   68.3024  226.6187 H   0  0  0  0  0  0  0  0  0  0  0  0
  139.9258   68.0302  227.8882 H   0  0  0  0  0  0  0  0  0  0  0  0
  138.7620   69.9550  226.9330 H   0  0  0  0  0  0  0  0  0  0  0  0
  143.2267   74.6868  218.2760 H   0  0  0  0  0  0  0  0  0  0  0  0
  144.6324   74.7710  219.4131 H   0  0  0  0  0  0  0  0  0  0  0  0
  144.1824   72.7257  217.2160 H   0  0  0  0  0  0  0  0  0  0  0  0
  145.3834   74.0883  217.2380 H   0  0  0  0  0  0  0  0  0  0  0  0
  145.9740   71.6860  217.8450 H   0  0  0  0  0  0  0  0  0  0  0  0
  145.7136   70.9054  219.8335 H   0  0  0  0  0  0  0  0  0  0  0  0
  145.5884   72.5760  220.5539 H   0  0  0  0  0  0  0  0  0  0  0  0
  143.4187   71.2824  218.8528 H   0  0  0  0  0  0  0  0  0  0  0  0
  143.4190   71.2521  220.6186 H   0  0  0  0  0  0  0  0  0  0  0  0
  142.8047   77.5092  221.3245 H   0  0  0  0  0  0  0  0  0  0  0  0
  141.4644   78.1515  220.3025 H   0  0  0  0  0  0  0  0  0  0  0  0
  1  2  2  0
  2  3  1  0
  3  4  2  0
  4  5  1  0
  5  6  2  0
  5  7  1  0
  7  8  1  0
  8  9  1  0
  9 10  1  0
 10 11  2  0
 11 12  1  0
 12 13  1  0
 13 14  1  0
 14 15  1  0
 15 16  1  0
 16 17  1  0
 17 18  1  0
 18 19  1  0
 19 20  1  0
 20 21  1  0
 12 22  2  0
 22 23  1  0
 23 24  1  0
 24 25  1  0
 25 26  1  0
 26 27  1  0
 27 28  1  0
 28 29  1  0
 23 30  2  0
  9 31  1  0
  6  1  1  0
 30 10  1  0
 31  4  1  0
 21 16  1  0
 29 24  1  0
  1 32  1  0
  2 33  1  0
  3 34  1  0
  6 35  1  0
  7 36  1  0
  7 37  1  0
  8 38  1  0
  8 39  1  0
 13 40  1  0
 14 41  1  0
 14 42  1  0
 15 43  1  0
 15 44  1  0
 16 45  1  6
 17 46  1  0
 17 47  1  0
 18 48  1  0
 18 49  1  0
 19 50  1  0
 19 51  1  0
 20 52  1  0
 20 53  1  0
 21 54  1  0
 25 55  1  0
 25 56  1  0
 26 57  1  0
 26 58  1  0
 27 59  1  0
 28 60  1  0
 28 61  1  0
 29 62  1  0
 29 63  1  0
 31 64  1  0
 31 65  1  0
M  END
>  <smiles>  (55) 
c1ccc2c(c1)CCN(c1nc(NCCC3CCCCN3)nc(N3CCNCC3)n1)C2

>  <score_type>  (55) 
oracle

>  <origin>  (55) 
autodockgpu

>  <m_score__min__energy>  (55) 
-10.109999999999999

>  <m_primary>  (55) 
energy

>  <rmsd>  (55) 
5.4123194470848235

>  <m_score__min__rmsd>  (55) 
5.4123194470848235

>  <meeko>  (55) 
{"free_energy": -9.65, "intermolecular_energy": -11.44, "internal_energy": -0.78, "cluster_size": 26, "cluster_id": 2, "rank_in_cluster": 4}

>  <energy>  (55) 
-9.72

>  <cluster_rmsd>  (55) 
0.77

>  <cluster>  (55) 
1

$$$$

     RDKit          3D

 65 69  0  0  0  0  0  0  0  0999 V2000
  141.0110   81.2700  223.6530 C   0  0  0  0  0  0  0  0  0  0  0  0
  142.2690   80.8940  223.2100 C   0  0  0  0  0  0  0  0  0  0  0  0
  142.4460   79.7490  222.4450 C   0  0  0  0  0  0  0  0  0  0  0  0
  141.3420   78.9710  222.1230 C   0  0  0  0  0  0  0  0  0  0  0  0
  140.1010   79.3680  222.5760 C   0  0  0  0  0  0  0  0  0  0  0  0
  139.9120   80.4990  223.3340 C   0  0  0  0  0  0  0  0  0  0  0  0
  138.9540   78.4700  222.1840 C   0  0  0  0  0  0  0  0  0  0  0  0
  139.3980   77.0740  222.6000 C   0  0  0  0  0  0  0  0  0  0  0  0
  140.5940   76.6810  221.8490 N   0  0  0  0  0  0  0  0  0  0  0  0
  140.8440   75.3110  221.6940 C   0  0  0  0  0  0  0  0  0  0  0  0
  140.0500   74.4320  222.3460 N   0  0  0  0  0  0  0  0  0  0  0  0
  140.2160   73.0860  222.2520 C   0  0  0  0  0  0  0  0  0  0  0  0
  139.3110   72.2770  222.9860 N   0  0  0  0  0  0  0  0  0  0  0  0
  139.7000   70.9750  223.5350 C   0  0  0  0  0  0  0  0  0  0  0  0
  140.7110   71.2280  224.6320 C   0  0  0  0  0  0  0  0  0  0  0  0
  140.7820   70.0450  225.6010 C   0  0  1  0  0  0  0  0  0  0  0  0
  140.7380   70.5310  227.0080 C   0  0  0  0  0  0  0  0  0  0  0  0
  140.1720   69.6020  228.0180 C   0  0  0  0  0  0  0  0  0  0  0  0
  139.8770   68.2180  227.5740 C   0  0  0  0  0  0  0  0  0  0  0  0
  139.8200   68.0020  226.0900 C   0  0  0  0  0  0  0  0  0  0  0  0
  139.5920   69.2480  225.3620 N   0  0  0  0  0  0  0  0  0  0  0  0
  141.2030   72.6050  221.4880 N   0  0  0  0  0  0  0  0  0  0  0  0
  142.0230   73.4670  220.8160 C   0  0  0  0  0  0  0  0  0  0  0  0
  143.0960   73.0020  220.0090 N   0  0  0  0  0  0  0  0  0  0  0  0
  143.3190   73.5090  218.6570 C   0  0  0  0  0  0  0  0  0  0  0  0
  144.3150   72.6620  217.9120 C   0  0  0  0  0  0  0  0  0  0  0  0
  145.5800   72.5610  218.6160 N   0  0  0  0  0  0  0  0  0  0  0  0
  145.4120   72.5160  220.0540 C   0  0  0  0  0  0  0  0  0  0  0  0
  144.0510   71.9990  220.4780 C   0  0  0  0  0  0  0  0  0  0  0  0
  141.8390   74.8060  220.9220 N   0  0  0  0  0  0  0  0  0  0  0  0
  141.4550   77.7270  221.3070 C   0  0  0  0  0  0  0  0  0  0  0  0
  140.8888   82.1809  224.2575 H   0  0  0  0  0  0  0  0  0  0  0  0
  143.1412   81.5125  223.4685 H   0  0  0  0  0  0  0  0  0  0  0  0
  143.4494   79.4615  222.0980 H   0  0  0  0  0  0  0  0  0  0  0  0
  138.9068   80.7832  223.6787 H   0  0  0  0  0  0  0  0  0  0  0  0
  138.0353   78.7595  222.7153 H   0  0  0  0  0  0  0  0  0  0  0  0
  138.7248   78.5316  221.1099 H   0  0  0  0  0  0  0  0  0  0  0  0
  139.6266   77.0705  223.6760 H   0  0  0  0  0  0  0  0  0  0  0  0
  138.5885   76.3603  222.3870 H   0  0  0  0  0  0  0  0  0  0  0  0
  138.3440   72.6680  223.1140 H   0  0  0  0  0  0  0  0  0  0  0  0
  138.8183   70.4628  223.9476 H   0  0  0  0  0  0  0  0  0  0  0  0
  140.1315   70.3367  222.7500 H   0  0  0  0  0  0  0  0  0  0  0  0
  141.7016   71.3810  224.1790 H   0  0  0  0  0  0  0  0  0  0  0  0
  140.4001   72.1211  225.1939 H   0  0  0  0  0  0  0  0  0  0  0  0
  141.7101   69.4747  225.4484 H   0  0  0  0  0  0  0  0  0  0  0  0
  141.7689   70.7654  227.3118 H   0  0  0  0  0  0  0  0  0  0  0  0
  140.0550   71.3932  226.9942 H   0  0  0  0  0  0  0  0  0  0  0  0
  140.8908   69.5374  228.8481 H   0  0  0  0  0  0  0  0  0  0  0  0
  139.1937   70.0305  228.2815 H   0  0  0  0  0  0  0  0  0  0  0  0
  140.6594   67.5601  227.9802 H   0  0  0  0  0  0  0  0  0  0  0  0
  138.8656   67.9963  227.9453 H   0  0  0  0  0  0  0  0  0  0  0  0
  140.7740   67.5666  225.7580 H   0  0  0  0  0  0  0  0  0  0  0  0
  138.9780   67.3266  225.8779 H   0  0  0  0  0  0  0  0  0  0  0  0
  138.7920   69.7610  225.7960 H   0  0  0  0  0  0  0  0  0  0  0  0
  142.3644   73.5036  218.1104 H   0  0  0  0  0  0  0  0  0  0  0  0
  143.7195   74.5308  218.7314 H   0  0  0  0  0  0  0  0  0  0  0  0
  143.8977   71.6521  217.7857 H   0  0  0  0  0  0  0  0  0  0  0  0
  144.5056   73.1394  216.9395 H   0  0  0  0  0  0  0  0  0  0  0  0
  145.9890   71.6210  218.3470 H   0  0  0  0  0  0  0  0  0  0  0  0
  146.1842   71.8561  220.4762 H   0  0  0  0  0  0  0  0  0  0  0  0
  145.5021   73.5468  220.4272 H   0  0  0  0  0  0  0  0  0  0  0  0
  143.8464   71.0240  220.0116 H   0  0  0  0  0  0  0  0  0  0  0  0
  143.9889   71.8497  221.5661 H   0  0  0  0  0  0  0  0  0  0  0  0
  142.4986   77.3795  221.3193 H   0  0  0  0  0  0  0  0  0  0  0  0
  141.1412   77.9477  220.2761 H   0  0  0  0  0  0  0  0  0  0  0  0
  1  2  2  0
  2  3  1  0
  3  4  2  0
  4  5  1  0
  5  6  2  0
  5  7  1  0
  7  8  1  0
  8  9  1  0
  9 10  1  0
 10 11  2  0
 11 12  1  0
 12 13  1  0
 13 14  1  0
 14 15  1  0
 15 16  1  0
 16 17  1  0
 17 18  1  0
 18 19  1  0
 19 20  1  0
 20 21  1  0
 12 22  2  0
 22 23  1  0
 23 24  1  0
 24 25  1  0
 25 26  1  0
 26 27  1  0
 27 28  1  0
 28 29  1  0
 23 30  2  0
  9 31  1  0
  6  1  1  0
 30 10  1  0
 31  4  1  0
 21 16  1  0
 29 24  1  0
  1 32  1  0
  2 33  1  0
  3 34  1  0
  6 35  1  0
  7 36  1  0
  7 37  1  0
  8 38  1  0
  8 39  1  0
 13 40  1  0
 14 41  1  0
 14 42  1  0
 15 43  1  0
 15 44  1  0
 16 45  1  1
 17 46  1  0
 17 47  1  0
 18 48  1  0
 18 49  1  0
 19 50  1  0
 19 51  1  0
 20 52  1  0
 20 53  1  0
 21 54  1  0
 25 55  1  0
 25 56  1  0
 26 57  1  0
 26 58  1  0
 27 59  1  0
 28 60  1  0
 28 61  1  0
 29 62  1  0
 29 63  1  0
 31 64  1  0
 31 65  1  0
M  END
>  <smiles>  (56) 
c1ccc2c(c1)CCN(c1nc(NCCC3CCCCN3)nc(N3CCNCC3)n1)C2

>  <score_type>  (56) 
oracle

>  <origin>  (56) 
autodockgpu

>  <m_score__min__energy>  (56) 
-10.109999999999999

>  <m_primary>  (56) 
energy

>  <rmsd>  (56) 
5.294643986184978

>  <m_score__min__rmsd>  (56) 
5.294643986184978

>  <meeko>  (56) 
{"free_energy": -9.61, "intermolecular_energy": -11.4, "internal_energy": -0.8, "cluster_size": 26, "cluster_id": 2, "rank_in_cluster": 9}

>  <energy>  (56) 
-9.67

>  <cluster_rmsd>  (56) 
0.78

>  <cluster>  (56) 
1

$$$$

     RDKit          3D

 65 69  0  0  0  0  0  0  0  0999 V2000
  141.0850   81.2730  223.7990 C   0  0  0  0  0  0  0  0  0  0  0  0
  142.3390   80.9480  223.3060 C   0  0  0  0  0  0  0  0  0  0  0  0
  142.5240   79.8350  222.4970 C   0  0  0  0  0  0  0  0  0  0  0  0
  141.4330   79.0380  222.1800 C   0  0  0  0  0  0  0  0  0  0  0  0
  140.1960   79.3830  222.6830 C   0  0  0  0  0  0  0  0  0  0  0  0
  139.9980   80.4820  223.4850 C   0  0  0  0  0  0  0  0  0  0  0  0
  139.0630   78.4670  222.2930 C   0  0  0  0  0  0  0  0  0  0  0  0
  139.5570   77.0700  222.6470 C   0  0  0  0  0  0  0  0  0  0  0  0
  140.7400   76.7380  221.8480 N   0  0  0  0  0  0  0  0  0  0  0  0
  141.0230   75.3810  221.6380 C   0  0  0  0  0  0  0  0  0  0  0  0
  140.2830   74.4590  222.2920 N   0  0  0  0  0  0  0  0  0  0  0  0
  140.4840   73.1220  222.1470 C   0  0  0  0  0  0  0  0  0  0  0  0
  139.6340   72.2630  222.8900 N   0  0  0  0  0  0  0  0  0  0  0  0
  140.0530   70.9210  223.3040 C   0  0  0  0  0  0  0  0  0  0  0  0
  138.9470   70.3440  224.1600 C   0  0  0  0  0  0  0  0  0  0  0  0
  139.3330   70.3540  225.6410 C   0  0  1  0  0  0  0  0  0  0  0  0
  139.6820   68.9770  226.0900 C   0  0  0  0  0  0  0  0  0  0  0  0
  140.6430   68.8650  227.2150 C   0  0  0  0  0  0  0  0  0  0  0  0
  141.0230   70.1210  227.9090 C   0  0  0  0  0  0  0  0  0  0  0  0
  140.7060   71.3950  227.1820 C   0  0  0  0  0  0  0  0  0  0  0  0
  140.5240   71.1780  225.7490 N   0  0  0  0  0  0  0  0  0  0  0  0
  141.4520   72.6960  221.3280 N   0  0  0  0  0  0  0  0  0  0  0  0
  142.2180   73.6030  220.6520 C   0  0  0  0  0  0  0  0  0  0  0  0
  143.2700   73.1970  219.7880 N   0  0  0  0  0  0  0  0  0  0  0  0
  143.9070   74.1280  218.8590 C   0  0  0  0  0  0  0  0  0  0  0  0
  144.7690   73.4020  217.8620 C   0  0  0  0  0  0  0  0  0  0  0  0
  145.7770   72.5820  218.5070 N   0  0  0  0  0  0  0  0  0  0  0  0
  145.3000   71.9800  219.7360 C   0  0  0  0  0  0  0  0  0  0  0  0
  143.7920   71.8300  219.7770 C   0  0  0  0  0  0  0  0  0  0  0  0
  142.0000   74.9320  220.8100 N   0  0  0  0  0  0  0  0  0  0  0  0
  141.5560   77.8260  221.3180 C   0  0  0  0  0  0  0  0  0  0  0  0
  140.9563   82.1586  224.4386 H   0  0  0  0  0  0  0  0  0  0  0  0
  143.2013   81.5820  223.5598 H   0  0  0  0  0  0  0  0  0  0  0  0
  143.5241   79.5876  222.1116 H   0  0  0  0  0  0  0  0  0  0  0  0
  138.9960   80.7256  223.8679 H   0  0  0  0  0  0  0  0  0  0  0  0
  138.1530   78.7121  222.8602 H   0  0  0  0  0  0  0  0  0  0  0  0
  138.8006   78.5588  221.2287 H   0  0  0  0  0  0  0  0  0  0  0  0
  139.8178   77.0358  223.7151 H   0  0  0  0  0  0  0  0  0  0  0  0
  138.7613   76.3412  222.4332 H   0  0  0  0  0  0  0  0  0  0  0  0
  138.6850   72.6470  223.1270 H   0  0  0  0  0  0  0  0  0  0  0  0
  140.2125   70.2875  222.4190 H   0  0  0  0  0  0  0  0  0  0  0  0
  140.9964   70.9660  223.8679 H   0  0  0  0  0  0  0  0  0  0  0  0
  138.0359   70.9447  224.0223 H   0  0  0  0  0  0  0  0  0  0  0  0
  138.7742   69.3024  223.8514 H   0  0  0  0  0  0  0  0  0  0  0  0
  138.5014   70.7307  226.2546 H   0  0  0  0  0  0  0  0  0  0  0  0
  138.7498   68.4807  226.3976 H   0  0  0  0  0  0  0  0  0  0  0  0
  140.1885   68.5131  225.2307 H   0  0  0  0  0  0  0  0  0  0  0  0
  140.1984   68.1939  227.9647 H   0  0  0  0  0  0  0  0  0  0  0  0
  141.5745   68.5003  226.7575 H   0  0  0  0  0  0  0  0  0  0  0  0
  140.4969   70.1445  228.8747 H   0  0  0  0  0  0  0  0  0  0  0  0
  142.1193   70.0929  227.9948 H   0  0  0  0  0  0  0  0  0  0  0  0
  139.7800   71.8195  227.5971 H   0  0  0  0  0  0  0  0  0  0  0  0
  141.5545   72.0821  227.3160 H   0  0  0  0  0  0  0  0  0  0  0  0
  141.3200   70.6100  225.3800 H   0  0  0  0  0  0  0  0  0  0  0  0
  143.1272   74.6855  218.3195 H   0  0  0  0  0  0  0  0  0  0  0  0
  144.5457   74.8123  219.4368 H   0  0  0  0  0  0  0  0  0  0  0  0
  144.1287   72.7559  217.2436 H   0  0  0  0  0  0  0  0  0  0  0  0
  145.2862   74.1552  217.2495 H   0  0  0  0  0  0  0  0  0  0  0  0
  145.9620   71.7730  217.8470 H   0  0  0  0  0  0  0  0  0  0  0  0
  145.7541   70.9832  219.8371 H   0  0  0  0  0  0  0  0  0  0  0  0
  145.5863   72.6479  220.5617 H   0  0  0  0  0  0  0  0  0  0  0  0
  143.4341   71.2877  218.8894 H   0  0  0  0  0  0  0  0  0  0  0  0
  143.4599   71.2563  220.6548 H   0  0  0  0  0  0  0  0  0  0  0  0
  142.6086   77.5080  221.2883 H   0  0  0  0  0  0  0  0  0  0  0  0
  141.2062   78.0726  220.3047 H   0  0  0  0  0  0  0  0  0  0  0  0
  1  2  2  0
  2  3  1  0
  3  4  2  0
  4  5  1  0
  5  6  2  0
  5  7  1  0
  7  8  1  0
  8  9  1  0
  9 10  1  0
 10 11  2  0
 11 12  1  0
 12 13  1  0
 13 14  1  0
 14 15  1  0
 15 16  1  0
 16 17  1  0
 17 18  1  0
 18 19  1  0
 19 20  1  0
 20 21  1  0
 12 22  2  0
 22 23  1  0
 23 24  1  0
 24 25  1  0
 25 26  1  0
 26 27  1  0
 27 28  1  0
 28 29  1  0
 23 30  2  0
  9 31  1  0
  6  1  1  0
 30 10  1  0
 31  4  1  0
 21 16  1  0
 29 24  1  0
  1 32  1  0
  2 33  1  0
  3 34  1  0
  6 35  1  0
  7 36  1  0
  7 37  1  0
  8 38  1  0
  8 39  1  0
 13 40  1  0
 14 41  1  0
 14 42  1  0
 15 43  1  0
 15 44  1  0
 16 45  1  1
 17 46  1  0
 17 47  1  0
 18 48  1  0
 18 49  1  0
 19 50  1  0
 19 51  1  0
 20 52  1  0
 20 53  1  0
 21 54  1  0
 25 55  1  0
 25 56  1  0
 26 57  1  0
 26 58  1  0
 27 59  1  0
 28 60  1  0
 28 61  1  0
 29 62  1  0
 29 63  1  0
 31 64  1  0
 31 65  1  0
M  END
>  <smiles>  (57) 
c1ccc2c(c1)CCN(c1nc(NCCC3CCCCN3)nc(N3CCNCC3)n1)C2

>  <score_type>  (57) 
oracle

>  <origin>  (57) 
autodockgpu

>  <m_score__min__energy>  (57) 
-10.109999999999999

>  <m_primary>  (57) 
energy

>  <rmsd>  (57) 
5.348556492753096

>  <m_score__min__rmsd>  (57) 
5.348556492753096

>  <meeko>  (57) 
{"free_energy": -9.42, "intermolecular_energy": -11.21, "internal_energy": -0.76, "cluster_size": 26, "cluster_id": 2, "rank_in_cluster": 13}

>  <energy>  (57) 
-9.63

>  <cluster_rmsd>  (57) 
0.51

>  <cluster>  (57) 
1

$$$$

     RDKit          3D

 65 69  0  0  0  0  0  0  0  0999 V2000
  139.9350   67.7360  225.6800 C   0  0  0  0  0  0  0  0  0  0  0  0
  140.7250   68.6340  226.3820 C   0  0  0  0  0  0  0  0  0  0  0  0
  140.7860   69.9720  226.0170 C   0  0  0  0  0  0  0  0  0  0  0  0
  140.0430   70.4130  224.9310 C   0  0  0  0  0  0  0  0  0  0  0  0
  139.2650   69.5000  224.2500 C   0  0  0  0  0  0  0  0  0  0  0  0
  139.1960   68.1730  224.5990 C   0  0  0  0  0  0  0  0  0  0  0  0
  138.4900   70.0590  223.0830 C   0  0  0  0  0  0  0  0  0  0  0  0
  139.5270   70.8000  222.2490 C   0  0  0  0  0  0  0  0  0  0  0  0
  140.0950   71.9080  223.0230 N   0  0  0  0  0  0  0  0  0  0  0  0
  140.6440   72.9840  222.3110 C   0  0  0  0  0  0  0  0  0  0  0  0
  139.9580   74.1470  222.2690 N   0  0  0  0  0  0  0  0  0  0  0  0
  140.4140   75.2430  221.6070 C   0  0  0  0  0  0  0  0  0  0  0  0
  139.5950   76.4010  221.6450 N   0  0  0  0  0  0  0  0  0  0  0  0
  139.1090   77.0510  220.4250 C   0  0  0  0  0  0  0  0  0  0  0  0
  139.6160   78.4770  220.4370 C   0  0  0  0  0  0  0  0  0  0  0  0
  140.8010   78.6330  221.3930 C   0  0  1  0  0  0  0  0  0  0  0  0
  141.5500   79.8830  221.0820 C   0  0  0  0  0  0  0  0  0  0  0  0
  142.2780   80.5220  222.2060 C   0  0  0  0  0  0  0  0  0  0  0  0
  142.3490   79.7690  223.4820 C   0  0  0  0  0  0  0  0  0  0  0  0
  141.3790   78.6350  223.6310 C   0  0  0  0  0  0  0  0  0  0  0  0
  140.2400   78.7650  222.7260 N   0  0  0  0  0  0  0  0  0  0  0  0
  141.5880   75.1740  220.9680 N   0  0  0  0  0  0  0  0  0  0  0  0
  142.3060   74.0120  220.9920 C   0  0  0  0  0  0  0  0  0  0  0  0
  143.5470   73.8870  220.3120 N   0  0  0  0  0  0  0  0  0  0  0  0
  144.6460   73.0920  220.8540 C   0  0  0  0  0  0  0  0  0  0  0  0
  145.9290   73.3540  220.1130 C   0  0  0  0  0  0  0  0  0  0  0  0
  145.7980   73.1060  218.6890 N   0  0  0  0  0  0  0  0  0  0  0  0
  144.4920   73.4760  218.1810 C   0  0  0  0  0  0  0  0  0  0  0  0
  143.8030   74.5310  219.0240 C   0  0  0  0  0  0  0  0  0  0  0  0
  141.8330   72.9310  221.6590 N   0  0  0  0  0  0  0  0  0  0  0  0
  140.0600   71.8350  224.4800 C   0  0  0  0  0  0  0  0  0  0  0  0
  139.8974   66.6794  225.9835 H   0  0  0  0  0  0  0  0  0  0  0  0
  141.3128   68.2804  227.2419 H   0  0  0  0  0  0  0  0  0  0  0  0
  141.4160   70.6746  226.5821 H   0  0  0  0  0  0  0  0  0  0  0  0
  138.5657   67.4741  224.0296 H   0  0  0  0  0  0  0  0  0  0  0  0
  138.0299   69.2483  222.4989 H   0  0  0  0  0  0  0  0  0  0  0  0
  137.6688   70.7160  223.4054 H   0  0  0  0  0  0  0  0  0  0  0  0
  140.3305   70.1045  221.9651 H   0  0  0  0  0  0  0  0  0  0  0  0
  139.0440   71.2011  221.3458 H   0  0  0  0  0  0  0  0  0  0  0  0
  139.3570   76.7650  222.6020 H   0  0  0  0  0  0  0  0  0  0  0  0
  139.4930   76.5232  219.5396 H   0  0  0  0  0  0  0  0  0  0  0  0
  138.0099   77.0307  220.3865 H   0  0  0  0  0  0  0  0  0  0  0  0
  139.9352   78.7532  219.4212 H   0  0  0  0  0  0  0  0  0  0  0  0
  138.8026   79.1339  220.7790 H   0  0  0  0  0  0  0  0  0  0  0  0
  141.4832   77.7745  221.3053 H   0  0  0  0  0  0  0  0  0  0  0  0
  142.2867   79.6443  220.3008 H   0  0  0  0  0  0  0  0  0  0  0  0
  140.7827   80.6124  220.7833 H   0  0  0  0  0  0  0  0  0  0  0  0
  143.3099   80.7041  221.8712 H   0  0  0  0  0  0  0  0  0  0  0  0
  141.6982   81.4265  222.4420 H   0  0  0  0  0  0  0  0  0  0  0  0
  143.3649   79.3572  223.5737 H   0  0  0  0  0  0  0  0  0  0  0  0
  142.0836   80.4915  224.2679 H   0  0  0  0  0  0  0  0  0  0  0  0
  141.9001   77.6912  223.4124 H   0  0  0  0  0  0  0  0  0  0  0  0
  140.9962   78.6494  224.6622 H   0  0  0  0  0  0  0  0  0  0  0  0
  139.8500   79.7320  222.7960 H   0  0  0  0  0  0  0  0  0  0  0  0
  144.7857   73.3499  221.9142 H   0  0  0  0  0  0  0  0  0  0  0  0
  144.3921   72.0276  220.7420 H   0  0  0  0  0  0  0  0  0  0  0  0
  146.2181   74.4044  220.2649 H   0  0  0  0  0  0  0  0  0  0  0  0
  146.6936   72.6684  220.5071 H   0  0  0  0  0  0  0  0  0  0  0  0
  146.4840   73.7590  218.2150 H   0  0  0  0  0  0  0  0  0  0  0  0
  144.6115   73.8670  217.1598 H   0  0  0  0  0  0  0  0  0  0  0  0
  143.8629   72.5740  218.2057 H   0  0  0  0  0  0  0  0  0  0  0  0
  144.4552   75.4072  219.1539 H   0  0  0  0  0  0  0  0  0  0  0  0
  142.8763   74.8918  218.5538 H   0  0  0  0  0  0  0  0  0  0  0  0
  140.9509   72.3340  224.8891 H   0  0  0  0  0  0  0  0  0  0  0  0
  139.1478   72.3335  224.8396 H   0  0  0  0  0  0  0  0  0  0  0  0
  1  2  2  0
  2  3  1  0
  3  4  2  0
  4  5  1  0
  5  6  2  0
  5  7  1  0
  7  8  1  0
  8  9  1  0
  9 10  1  0
 10 11  2  0
 11 12  1  0
 12 13  1  0
 13 14  1  0
 14 15  1  0
 15 16  1  0
 16 17  1  0
 17 18  1  0
 18 19  1  0
 19 20  1  0
 20 21  1  0
 12 22  2  0
 22 23  1  0
 23 24  1  0
 24 25  1  0
 25 26  1  0
 26 27  1  0
 27 28  1  0
 28 29  1  0
 23 30  2  0
  9 31  1  0
  6  1  1  0
 30 10  1  0
 31  4  1  0
 21 16  1  0
 29 24  1  0
  1 32  1  0
  2 33  1  0
  3 34  1  0
  6 35  1  0
  7 36  1  0
  7 37  1  0
  8 38  1  0
  8 39  1  0
 13 40  1  0
 14 41  1  0
 14 42  1  0
 15 43  1  0
 15 44  1  0
 16 45  1  1
 17 46  1  0
 17 47  1  0
 18 48  1  0
 18 49  1  0
 19 50  1  0
 19 51  1  0
 20 52  1  0
 20 53  1  0
 21 54  1  0
 25 55  1  0
 25 56  1  0
 26 57  1  0
 26 58  1  0
 27 59  1  0
 28 60  1  0
 28 61  1  0
 29 62  1  0
 29 63  1  0
 31 64  1  0
 31 65  1  0
M  END
>  <smiles>  (58) 
c1ccc2c(c1)CCN(c1nc(NCCC3CCCCN3)nc(N3CCNCC3)n1)C2

>  <score_type>  (58) 
oracle

>  <origin>  (58) 
autodockgpu

>  <m_score__min__energy>  (58) 
-10.109999999999999

>  <m_primary>  (58) 
energy

>  <rmsd>  (58) 
10.607350434079748

>  <m_score__min__rmsd>  (58) 
10.607350434079748

>  <meeko>  (58) 
{"free_energy": -8.66, "intermolecular_energy": -10.45, "internal_energy": -1.52, "cluster_size": 24, "cluster_id": 1, "rank_in_cluster": 17}

>  <energy>  (58) 
-9.6

>  <cluster_rmsd>  (58) 
0.84

>  <cluster>  (58) 
1

$$$$

     RDKit          3D

 65 69  0  0  0  0  0  0  0  0999 V2000
  138.6730   80.8640  223.9630 C   0  0  0  0  0  0  0  0  0  0  0  0
  140.0530   80.8880  223.8340 C   0  0  0  0  0  0  0  0  0  0  0  0
  140.7200   79.9240  223.0910 C   0  0  0  0  0  0  0  0  0  0  0  0
  139.9890   78.9200  222.4700 C   0  0  0  0  0  0  0  0  0  0  0  0
  138.6170   78.9180  222.6140 C   0  0  0  0  0  0  0  0  0  0  0  0
  137.9440   79.8670  223.3470 C   0  0  0  0  0  0  0  0  0  0  0  0
  137.8970   77.7950  221.9100 C   0  0  0  0  0  0  0  0  0  0  0  0
  138.6140   76.5310  222.3660 C   0  0  0  0  0  0  0  0  0  0  0  0
  140.0110   76.5580  221.9230 N   0  0  0  0  0  0  0  0  0  0  0  0
  140.6710   75.3300  221.7790 C   0  0  0  0  0  0  0  0  0  0  0  0
  140.1170   74.2300  222.3350 N   0  0  0  0  0  0  0  0  0  0  0  0
  140.6840   72.9980  222.2430 C   0  0  0  0  0  0  0  0  0  0  0  0
  139.9950   71.9280  222.8700 N   0  0  0  0  0  0  0  0  0  0  0  0
  139.2530   70.9240  222.1020 C   0  0  0  0  0  0  0  0  0  0  0  0
  139.5240   69.5770  222.7350 C   0  0  0  0  0  0  0  0  0  0  0  0
  139.3650   69.6400  224.2570 C   0  0  1  0  0  0  0  0  0  0  0  0
  139.1690   68.2700  224.8100 C   0  0  0  0  0  0  0  0  0  0  0  0
  139.6200   68.0430  226.2050 C   0  0  0  0  0  0  0  0  0  0  0  0
  140.0480   69.2340  226.9810 C   0  0  0  0  0  0  0  0  0  0  0  0
  140.3420   70.4680  226.1810 C   0  0  0  0  0  0  0  0  0  0  0  0
  140.6160   70.1610  224.7790 N   0  0  0  0  0  0  0  0  0  0  0  0
  141.8380   72.8620  221.5800 N   0  0  0  0  0  0  0  0  0  0  0  0
  142.4240   73.9550  221.0070 C   0  0  0  0  0  0  0  0  0  0  0  0
  143.6590   73.8610  220.3100 N   0  0  0  0  0  0  0  0  0  0  0  0
  144.7870   73.0990  220.8420 C   0  0  0  0  0  0  0  0  0  0  0  0
  146.0520   73.3930  220.0830 C   0  0  0  0  0  0  0  0  0  0  0  0
  145.9090   73.1350  218.6620 N   0  0  0  0  0  0  0  0  0  0  0  0
  144.5880   73.4660  218.1690 C   0  0  0  0  0  0  0  0  0  0  0  0
  143.8810   74.5060  219.0160 C   0  0  0  0  0  0  0  0  0  0  0  0
  141.8410   75.1740  221.1090 N   0  0  0  0  0  0  0  0  0  0  0  0
  140.6370   77.8490  221.6580 C   0  0  0  0  0  0  0  0  0  0  0  0
  138.1606   81.6371  224.5544 H   0  0  0  0  0  0  0  0  0  0  0  0
  140.6288   81.6841  224.3286 H   0  0  0  0  0  0  0  0  0  0  0  0
  141.8154   79.9550  222.9952 H   0  0  0  0  0  0  0  0  0  0  0  0
  136.8485   79.8323  223.4404 H   0  0  0  0  0  0  0  0  0  0  0  0
  136.8377   77.7681  222.2050 H   0  0  0  0  0  0  0  0  0  0  0  0
  137.9128   77.9112  220.8163 H   0  0  0  0  0  0  0  0  0  0  0  0
  138.5813   76.4699  223.4638 H   0  0  0  0  0  0  0  0  0  0  0  0
  138.1137   75.6548  221.9279 H   0  0  0  0  0  0  0  0  0  0  0  0
  140.0480   71.8980  223.9190 H   0  0  0  0  0  0  0  0  0  0  0  0
  138.1760   71.1453  222.1361 H   0  0  0  0  0  0  0  0  0  0  0  0
  139.5708   70.9286  221.0489 H   0  0  0  0  0  0  0  0  0  0  0  0
  138.8143   68.8406  222.3300 H   0  0  0  0  0  0  0  0  0  0  0  0
  140.5590   69.2847  222.5040 H   0  0  0  0  0  0  0  0  0  0  0  0
  138.5009   70.2636  224.5298 H   0  0  0  0  0  0  0  0  0  0  0  0
  138.0934   68.0439  224.7666 H   0  0  0  0  0  0  0  0  0  0  0  0
  139.8016   67.6159  224.1920 H   0  0  0  0  0  0  0  0  0  0  0  0
  138.7873   67.5744  226.7501 H   0  0  0  0  0  0  0  0  0  0  0  0
  140.5244   67.4235  226.1138 H   0  0  0  0  0  0  0  0  0  0  0  0
  139.2461   69.4777  227.6934 H   0  0  0  0  0  0  0  0  0  0  0  0
  141.0003   68.9533  227.4546 H   0  0  0  0  0  0  0  0  0  0  0  0
  139.4731   71.1404  226.2337 H   0  0  0  0  0  0  0  0  0  0  0  0
  141.2392   70.9418  226.6059 H   0  0  0  0  0  0  0  0  0  0  0  0
  141.3140   69.3860  224.7240 H   0  0  0  0  0  0  0  0  0  0  0  0
  144.9331   73.3661  221.8990 H   0  0  0  0  0  0  0  0  0  0  0  0
  144.5614   72.0273  220.7388 H   0  0  0  0  0  0  0  0  0  0  0  0
  146.3138   74.4517  220.2266 H   0  0  0  0  0  0  0  0  0  0  0  0
  146.8405   72.7307  220.4697 H   0  0  0  0  0  0  0  0  0  0  0  0
  146.5710   73.8050  218.1760 H   0  0  0  0  0  0  0  0  0  0  0  0
  144.6838   73.8550  217.1445 H   0  0  0  0  0  0  0  0  0  0  0  0
  143.9842   72.5472  218.2056 H   0  0  0  0  0  0  0  0  0  0  0  0
  144.5106   75.4003  219.1338 H   0  0  0  0  0  0  0  0  0  0  0  0
  142.9390   74.8394  218.5560 H   0  0  0  0  0  0  0  0  0  0  0  0
  141.7045   77.7938  221.9174 H   0  0  0  0  0  0  0  0  0  0  0  0
  140.5181   78.0899  220.5913 H   0  0  0  0  0  0  0  0  0  0  0  0
  1  2  2  0
  2  3  1  0
  3  4  2  0
  4  5  1  0
  5  6  2  0
  5  7  1  0
  7  8  1  0
  8  9  1  0
  9 10  1  0
 10 11  2  0
 11 12  1  0
 12 13  1  0
 13 14  1  0
 14 15  1  0
 15 16  1  0
 16 17  1  0
 17 18  1  0
 18 19  1  0
 19 20  1  0
 20 21  1  0
 12 22  2  0
 22 23  1  0
 23 24  1  0
 24 25  1  0
 25 26  1  0
 26 27  1  0
 27 28  1  0
 28 29  1  0
 23 30  2  0
  9 31  1  0
  6  1  1  0
 30 10  1  0
 31  4  1  0
 21 16  1  0
 29 24  1  0
  1 32  1  0
  2 33  1  0
  3 34  1  0
  6 35  1  0
  7 36  1  0
  7 37  1  0
  8 38  1  0
  8 39  1  0
 13 40  1  0
 14 41  1  0
 14 42  1  0
 15 43  1  0
 15 44  1  0
 16 45  1  6
 17 46  1  0
 17 47  1  0
 18 48  1  0
 18 49  1  0
 19 50  1  0
 19 51  1  0
 20 52  1  0
 20 53  1  0
 21 54  1  0
 25 55  1  0
 25 56  1  0
 26 57  1  0
 26 58  1  0
 27 59  1  0
 28 60  1  0
 28 61  1  0
 29 62  1  0
 29 63  1  0
 31 64  1  0
 31 65  1  0
M  END
>  <smiles>  (59) 
c1ccc2c(c1)CCN(c1nc(NCCC3CCCCN3)nc(N3CCNCC3)n1)C2

>  <score_type>  (59) 
oracle

>  <origin>  (59) 
autodockgpu

>  <m_score__min__energy>  (59) 
-10.109999999999999

>  <m_primary>  (59) 
energy

>  <rmsd>  (59) 
5.268588098353028

>  <m_score__min__rmsd>  (59) 
5.268588098353028

>  <meeko>  (59) 
{"free_energy": -8.47, "intermolecular_energy": -10.26, "internal_energy": -1.34, "cluster_size": 26, "cluster_id": 2, "rank_in_cluster": 25}

>  <energy>  (59) 
-9.54

>  <cluster_rmsd>  (59) 
0.76

>  <cluster>  (59) 
1

$$$$

     RDKit          3D

 65 69  0  0  0  0  0  0  0  0999 V2000
  140.3630   67.5320  226.5000 C   0  0  0  0  0  0  0  0  0  0  0  0
  141.0410   68.5880  227.0880 C   0  0  0  0  0  0  0  0  0  0  0  0
  140.9420   69.8750  226.5780 C   0  0  0  0  0  0  0  0  0  0  0  0
  140.1530   70.1030  225.4590 C   0  0  0  0  0  0  0  0  0  0  0  0
  139.4890   69.0340  224.8920 C   0  0  0  0  0  0  0  0  0  0  0  0
  139.5770   67.7550  225.3870 C   0  0  0  0  0  0  0  0  0  0  0  0
  138.6530   69.3640  223.6810 C   0  0  0  0  0  0  0  0  0  0  0  0
  139.5950   70.1260  222.7580 C   0  0  0  0  0  0  0  0  0  0  0  0
  140.0270   71.3720  223.3970 N   0  0  0  0  0  0  0  0  0  0  0  0
  140.4450   72.4190  222.5640 C   0  0  0  0  0  0  0  0  0  0  0  0
  139.5960   73.4470  222.3440 N   0  0  0  0  0  0  0  0  0  0  0  0
  139.9170   74.5060  221.5550 C   0  0  0  0  0  0  0  0  0  0  0  0
  138.9330   75.5180  221.4120 N   0  0  0  0  0  0  0  0  0  0  0  0
  137.6900   75.5100  222.1880 C   0  0  0  0  0  0  0  0  0  0  0  0
  136.5940   74.9870  221.2840 C   0  0  0  0  0  0  0  0  0  0  0  0
  136.0160   73.6750  221.8210 C   0  0  1  0  0  0  0  0  0  0  0  0
  136.4990   72.5280  221.0030 C   0  0  0  0  0  0  0  0  0  0  0  0
  136.5920   71.2130  221.6860 C   0  0  0  0  0  0  0  0  0  0  0  0
  136.0240   71.1190  223.0540 C   0  0  0  0  0  0  0  0  0  0  0  0
  135.7630   72.4230  223.7480 C   0  0  0  0  0  0  0  0  0  0  0  0
  136.5370   73.5180  223.1680 N   0  0  0  0  0  0  0  0  0  0  0  0
  141.1180   74.5380  220.9670 N   0  0  0  0  0  0  0  0  0  0  0  0
  142.0000   73.5140  221.1700 C   0  0  0  0  0  0  0  0  0  0  0  0
  143.2780   73.4960  220.5500 N   0  0  0  0  0  0  0  0  0  0  0  0
  144.2600   72.4530  220.8410 C   0  0  0  0  0  0  0  0  0  0  0  0
  145.6170   72.8130  220.2990 C   0  0  0  0  0  0  0  0  0  0  0  0
  145.5840   73.0750  218.8730 N   0  0  0  0  0  0  0  0  0  0  0  0
  144.3600   73.7310  218.4580 C   0  0  0  0  0  0  0  0  0  0  0  0
  143.6920   74.5060  219.5770 C   0  0  0  0  0  0  0  0  0  0  0  0
  141.6600   72.4670  221.9620 N   0  0  0  0  0  0  0  0  0  0  0  0
  140.0010   71.4580  224.8530 C   0  0  0  0  0  0  0  0  0  0  0  0
  140.4508   66.5187  226.9190 H   0  0  0  0  0  0  0  0  0  0  0  0
  141.6676   68.4032  227.9730 H   0  0  0  0  0  0  0  0  0  0  0  0
  141.4829   70.7053  227.0554 H   0  0  0  0  0  0  0  0  0  0  0  0
  139.0335   66.9276  224.9073 H   0  0  0  0  0  0  0  0  0  0  0  0
  138.2934   68.4448  223.1955 H   0  0  0  0  0  0  0  0  0  0  0  0
  137.7586   69.9500  223.9394 H   0  0  0  0  0  0  0  0  0  0  0  0
  140.4758   69.5033  222.5423 H   0  0  0  0  0  0  0  0  0  0  0  0
  139.0676   70.3649  221.8227 H   0  0  0  0  0  0  0  0  0  0  0  0
  139.1490   76.2760  220.7160 H   0  0  0  0  0  0  0  0  0  0  0  0
  137.7986   74.8547  223.0648 H   0  0  0  0  0  0  0  0  0  0  0  0
  137.4487   76.5223  222.5446 H   0  0  0  0  0  0  0  0  0  0  0  0
  135.7903   75.7356  221.2236 H   0  0  0  0  0  0  0  0  0  0  0  0
  137.0223   74.7986  220.2885 H   0  0  0  0  0  0  0  0  0  0  0  0
  134.9166   73.6970  221.7928 H   0  0  0  0  0  0  0  0  0  0  0  0
  135.8119   72.4133  220.1517 H   0  0  0  0  0  0  0  0  0  0  0  0
  137.5329   72.7844  220.7285 H   0  0  0  0  0  0  0  0  0  0  0  0
  136.0687   70.4763  221.0588 H   0  0  0  0  0  0  0  0  0  0  0  0
  137.6699   71.0344  221.8130 H   0  0  0  0  0  0  0  0  0  0  0  0
  135.0692   70.5770  222.9856 H   0  0  0  0  0  0  0  0  0  0  0  0
  136.7885   70.6089  223.6584 H   0  0  0  0  0  0  0  0  0  0  0  0
  134.6925   72.6617  223.6639 H   0  0  0  0  0  0  0  0  0  0  0  0
  136.0657   72.3138  224.7999 H   0  0  0  0  0  0  0  0  0  0  0  0
  137.5350   73.2250  223.0750 H   0  0  0  0  0  0  0  0  0  0  0  0
  144.3324   72.3231  221.9309 H   0  0  0  0  0  0  0  0  0  0  0  0
  143.9297   71.5210  220.3590 H   0  0  0  0  0  0  0  0  0  0  0  0
  145.9779   73.7140  220.8167 H   0  0  0  0  0  0  0  0  0  0  0  0
  146.2875   71.9580  220.4704 H   0  0  0  0  0  0  0  0  0  0  0  0
  146.3590   73.7740  218.6870 H   0  0  0  0  0  0  0  0  0  0  0  0
  144.5964   74.4289  217.6413 H   0  0  0  0  0  0  0  0  0  0  0  0
  143.6589   72.9458  218.1386 H   0  0  0  0  0  0  0  0  0  0  0  0
  144.4008   75.2130  220.0329 H   0  0  0  0  0  0  0  0  0  0  0  0
  142.8403   75.0999  219.2138 H   0  0  0  0  0  0  0  0  0  0  0  0
  140.8263   72.1011  225.1925 H   0  0  0  0  0  0  0  0  0  0  0  0
  139.0360   71.8822  225.1673 H   0  0  0  0  0  0  0  0  0  0  0  0
  1  2  2  0
  2  3  1  0
  3  4  2  0
  4  5  1  0
  5  6  2  0
  5  7  1  0
  7  8  1  0
  8  9  1  0
  9 10  1  0
 10 11  2  0
 11 12  1  0
 12 13  1  0
 13 14  1  0
 14 15  1  0
 15 16  1  0
 16 17  1  0
 17 18  1  0
 18 19  1  0
 19 20  1  0
 20 21  1  0
 12 22  2  0
 22 23  1  0
 23 24  1  0
 24 25  1  0
 25 26  1  0
 26 27  1  0
 27 28  1  0
 28 29  1  0
 23 30  2  0
  9 31  1  0
  6  1  1  0
 30 10  1  0
 31  4  1  0
 21 16  1  0
 29 24  1  0
  1 32  1  0
  2 33  1  0
  3 34  1  0
  6 35  1  0
  7 36  1  0
  7 37  1  0
  8 38  1  0
  8 39  1  0
 13 40  1  0
 14 41  1  0
 14 42  1  0
 15 43  1  0
 15 44  1  0
 16 45  1  1
 17 46  1  0
 17 47  1  0
 18 48  1  0
 18 49  1  0
 19 50  1  0
 19 51  1  0
 20 52  1  0
 20 53  1  0
 21 54  1  0
 25 55  1  0
 25 56  1  0
 26 57  1  0
 26 58  1  0
 27 59  1  0
 28 60  1  0
 28 61  1  0
 29 62  1  0
 29 63  1  0
 31 64  1  0
 31 65  1  0
M  END
>  <smiles>  (60) 
c1ccc2c(c1)CCN(c1nc(NCCC3CCCCN3)nc(N3CCNCC3)n1)C2

>  <score_type>  (60) 
oracle

>  <origin>  (60) 
autodockgpu

>  <m_score__min__energy>  (60) 
-10.109999999999999

>  <m_primary>  (60) 
energy

>  <rmsd>  (60) 
11.159650960833474

>  <m_score__min__rmsd>  (60) 
11.159650960833474

>  <meeko>  (60) 
{"free_energy": -7.64, "intermolecular_energy": -9.43, "internal_energy": -2.39, "cluster_size": 24, "cluster_id": 1, "rank_in_cluster": 23}

>  <energy>  (60) 
-9.51

>  <cluster_rmsd>  (60) 
0.86

>  <cluster>  (60) 
1

$$$$

     RDKit          3D

 65 69  0  0  0  0  0  0  0  0999 V2000
  138.8660   80.9520  224.0900 C   0  0  0  0  0  0  0  0  0  0  0  0
  140.2280   80.9340  223.8350 C   0  0  0  0  0  0  0  0  0  0  0  0
  140.7990   79.9350  223.0590 C   0  0  0  0  0  0  0  0  0  0  0  0
  139.9880   78.9390  222.5310 C   0  0  0  0  0  0  0  0  0  0  0  0
  138.6360   78.9790  222.8000 C   0  0  0  0  0  0  0  0  0  0  0  0
  138.0580   79.9630  223.5670 C   0  0  0  0  0  0  0  0  0  0  0  0
  137.8250   77.8630  222.1920 C   0  0  0  0  0  0  0  0  0  0  0  0
  138.5470   76.5890  222.6110 C   0  0  0  0  0  0  0  0  0  0  0  0
  139.8970   76.5650  222.0430 N   0  0  0  0  0  0  0  0  0  0  0  0
  140.5090   75.3160  221.8690 C   0  0  0  0  0  0  0  0  0  0  0  0
  139.8810   74.2190  222.3460 N   0  0  0  0  0  0  0  0  0  0  0  0
  140.3970   72.9670  222.2200 C   0  0  0  0  0  0  0  0  0  0  0  0
  139.6330   71.9030  222.7640 N   0  0  0  0  0  0  0  0  0  0  0  0
  139.9620   70.4980  222.5060 C   0  0  0  0  0  0  0  0  0  0  0  0
  139.5080   69.6980  223.7080 C   0  0  0  0  0  0  0  0  0  0  0  0
  139.6690   70.5020  225.0000 C   0  0  1  0  0  0  0  0  0  0  0  0
  139.3300   69.6550  226.1780 C   0  0  0  0  0  0  0  0  0  0  0  0
  139.9970   69.9960  227.4590 C   0  0  0  0  0  0  0  0  0  0  0  0
  140.7890   71.2500  227.4970 C   0  0  0  0  0  0  0  0  0  0  0  0
  141.1480   71.8420  226.1660 C   0  0  0  0  0  0  0  0  0  0  0  0
  141.0750   70.8570  225.0900 N   0  0  0  0  0  0  0  0  0  0  0  0
  141.5730   72.8090  221.6030 N   0  0  0  0  0  0  0  0  0  0  0  0
  142.2330   73.8990  221.1090 C   0  0  0  0  0  0  0  0  0  0  0  0
  143.4930   73.7800  220.4650 N   0  0  0  0  0  0  0  0  0  0  0  0
  144.4730   72.7740  220.8680 C   0  0  0  0  0  0  0  0  0  0  0  0
  145.8180   73.0390  220.2470 C   0  0  0  0  0  0  0  0  0  0  0  0
  145.7470   73.1060  218.7990 N   0  0  0  0  0  0  0  0  0  0  0  0
  144.5190   73.7150  218.3320 C   0  0  0  0  0  0  0  0  0  0  0  0
  143.8900   74.6440  219.3530 C   0  0  0  0  0  0  0  0  0  0  0  0
  141.7000   75.1380  221.2440 N   0  0  0  0  0  0  0  0  0  0  0  0
  140.5300   77.8320  221.6900 C   0  0  0  0  0  0  0  0  0  0  0  0
  138.4305   81.7517  224.7070 H   0  0  0  0  0  0  0  0  0  0  0  0
  140.8673   81.7247  224.2547 H   0  0  0  0  0  0  0  0  0  0  0  0
  141.8816   79.9322  222.8644 H   0  0  0  0  0  0  0  0  0  0  0  0
  136.9750   79.9619  223.7596 H   0  0  0  0  0  0  0  0  0  0  0  0
  136.7969   77.8729  222.5830 H   0  0  0  0  0  0  0  0  0  0  0  0
  137.7432   77.9552  221.0989 H   0  0  0  0  0  0  0  0  0  0  0  0
  138.6134   76.5526  223.7084 H   0  0  0  0  0  0  0  0  0  0  0  0
  137.9853   75.7187  222.2408 H   0  0  0  0  0  0  0  0  0  0  0  0
  138.8170   72.1810  223.3640 H   0  0  0  0  0  0  0  0  0  0  0  0
  139.4393   70.1492  221.6031 H   0  0  0  0  0  0  0  0  0  0  0  0
  141.0432   70.3759  222.3444 H   0  0  0  0  0  0  0  0  0  0  0  0
  138.4486   69.4302  223.5816 H   0  0  0  0  0  0  0  0  0  0  0  0
  140.1303   68.7939  223.7802 H   0  0  0  0  0  0  0  0  0  0  0  0
  139.0105   71.3831  224.9915 H   0  0  0  0  0  0  0  0  0  0  0  0
  138.2441   69.7266  226.3384 H   0  0  0  0  0  0  0  0  0  0  0  0
  139.6918   68.6479  225.9232 H   0  0  0  0  0  0  0  0  0  0  0  0
  139.2151   70.0747  228.2287 H   0  0  0  0  0  0  0  0  0  0  0  0
  140.7302   69.1920  227.6203 H   0  0  0  0  0  0  0  0  0  0  0  0
  140.2061   71.9995  228.0524 H   0  0  0  0  0  0  0  0  0  0  0  0
  141.7453   70.9824  227.9701 H   0  0  0  0  0  0  0  0  0  0  0  0
  140.4509   72.6632  225.9432 H   0  0  0  0  0  0  0  0  0  0  0  0
  142.1850   72.2042  226.2245 H   0  0  0  0  0  0  0  0  0  0  0  0
  141.5870   69.9920  225.3760 H   0  0  0  0  0  0  0  0  0  0  0  0
  144.5746   72.7917  221.9632 H   0  0  0  0  0  0  0  0  0  0  0  0
  144.1207   71.7901  220.5248 H   0  0  0  0  0  0  0  0  0  0  0  0
  146.2021   73.9968  220.6280 H   0  0  0  0  0  0  0  0  0  0  0  0
  146.4850   72.2064  220.5153 H   0  0  0  0  0  0  0  0  0  0  0  0
  146.5230   73.7630  218.5000 H   0  0  0  0  0  0  0  0  0  0  0  0
  144.7386   74.2923  217.4218 H   0  0  0  0  0  0  0  0  0  0  0  0
  143.8018   72.9030  218.1416 H   0  0  0  0  0  0  0  0  0  0  0  0
  144.6182   75.3963  219.6901 H   0  0  0  0  0  0  0  0  0  0  0  0
  143.0347   75.1952  218.9352 H   0  0  0  0  0  0  0  0  0  0  0  0
  141.6151   77.7521  221.8521 H   0  0  0  0  0  0  0  0  0  0  0  0
  140.3198   78.0525  220.6330 H   0  0  0  0  0  0  0  0  0  0  0  0
  1  2  2  0
  2  3  1  0
  3  4  2  0
  4  5  1  0
  5  6  2  0
  5  7  1  0
  7  8  1  0
  8  9  1  0
  9 10  1  0
 10 11  2  0
 11 12  1  0
 12 13  1  0
 13 14  1  0
 14 15  1  0
 15 16  1  0
 16 17  1  0
 17 18  1  0
 18 19  1  0
 19 20  1  0
 20 21  1  0
 12 22  2  0
 22 23  1  0
 23 24  1  0
 24 25  1  0
 25 26  1  0
 26 27  1  0
 27 28  1  0
 28 29  1  0
 23 30  2  0
  9 31  1  0
  6  1  1  0
 30 10  1  0
 31  4  1  0
 21 16  1  0
 29 24  1  0
  1 32  1  0
  2 33  1  0
  3 34  1  0
  6 35  1  0
  7 36  1  0
  7 37  1  0
  8 38  1  0
  8 39  1  0
 13 40  1  0
 14 41  1  0
 14 42  1  0
 15 43  1  0
 15 44  1  0
 16 45  1  6
 17 46  1  0
 17 47  1  0
 18 48  1  0
 18 49  1  0
 19 50  1  0
 19 51  1  0
 20 52  1  0
 20 53  1  0
 21 54  1  0
 25 55  1  0
 25 56  1  0
 26 57  1  0
 26 58  1  0
 27 59  1  0
 28 60  1  0
 28 61  1  0
 29 62  1  0
 29 63  1  0
 31 64  1  0
 31 65  1  0
M  END
>  <smiles>  (61) 
c1ccc2c(c1)CCN(c1nc(NCCC3CCCCN3)nc(N3CCNCC3)n1)C2

>  <score_type>  (61) 
oracle

>  <origin>  (61) 
autodockgpu

>  <m_score__min__energy>  (61) 
-10.109999999999999

>  <m_primary>  (61) 
energy

>  <rmsd>  (61) 
5.3772499368844375

>  <m_score__min__rmsd>  (61) 
5.3772499368844375

>  <meeko>  (61) 
{"free_energy": -9.21, "intermolecular_energy": -11.0, "internal_energy": -0.94, "cluster_size": 26, "cluster_id": 2, "rank_in_cluster": 18}

>  <energy>  (61) 
-9.43

>  <cluster_rmsd>  (61) 
0.79

>  <cluster>  (61) 
1

$$$$

     RDKit          3D

 65 69  0  0  0  0  0  0  0  0999 V2000
  140.2740   67.5790  226.4090 C   0  0  0  0  0  0  0  0  0  0  0  0
  141.1680   68.5050  226.9200 C   0  0  0  0  0  0  0  0  0  0  0  0
  141.2090   69.8050  226.4340 C   0  0  0  0  0  0  0  0  0  0  0  0
  140.3390   70.1780  225.4190 C   0  0  0  0  0  0  0  0  0  0  0  0
  139.4580   69.2360  224.9270 C   0  0  0  0  0  0  0  0  0  0  0  0
  139.4070   67.9460  225.3990 C   0  0  0  0  0  0  0  0  0  0  0  0
  138.5480   69.7190  223.8260 C   0  0  0  0  0  0  0  0  0  0  0  0
  139.4810   70.3530  222.8030 C   0  0  0  0  0  0  0  0  0  0  0  0
  140.1700   71.5030  223.3960 N   0  0  0  0  0  0  0  0  0  0  0  0
  140.6440   72.4960  222.5270 C   0  0  0  0  0  0  0  0  0  0  0  0
  139.9340   73.6400  222.4060 N   0  0  0  0  0  0  0  0  0  0  0  0
  140.3180   74.6570  221.5910 C   0  0  0  0  0  0  0  0  0  0  0  0
  139.4820   75.8030  221.5600 N   0  0  0  0  0  0  0  0  0  0  0  0
  139.7510   76.9390  220.6730 C   0  0  0  0  0  0  0  0  0  0  0  0
  141.1510   77.4270  220.9730 C   0  0  0  0  0  0  0  0  0  0  0  0
  141.1220   78.7090  221.8090 C   0  0  1  0  0  0  0  0  0  0  0  0
  141.4630   78.4060  223.2270 C   0  0  0  0  0  0  0  0  0  0  0  0
  142.0920   79.4980  224.0110 C   0  0  0  0  0  0  0  0  0  0  0  0
  142.1520   80.8380  223.3770 C   0  0  0  0  0  0  0  0  0  0  0  0
  141.9260   80.8750  221.8940 C   0  0  0  0  0  0  0  0  0  0  0  0
  142.1580   79.5730  221.2710 N   0  0  0  0  0  0  0  0  0  0  0  0
  141.4420   74.5280  220.8760 N   0  0  0  0  0  0  0  0  0  0  0  0
  142.1830   73.3840  220.9770 C   0  0  0  0  0  0  0  0  0  0  0  0
  143.3710   73.1960  220.2220 N   0  0  0  0  0  0  0  0  0  0  0  0
  144.6960   73.3170  220.8280 C   0  0  0  0  0  0  0  0  0  0  0  0
  145.7740   73.3670  219.7790 C   0  0  0  0  0  0  0  0  0  0  0  0
  145.7370   72.2120  218.9020 N   0  0  0  0  0  0  0  0  0  0  0  0
  144.3860   71.7610  218.6350 C   0  0  0  0  0  0  0  0  0  0  0  0
  143.3510   72.8570  218.7990 C   0  0  0  0  0  0  0  0  0  0  0  0
  141.7820   72.3820  221.7960 N   0  0  0  0  0  0  0  0  0  0  0  0
  140.3260   71.5550  224.8460 C   0  0  0  0  0  0  0  0  0  0  0  0
  140.2547   66.5536  226.8068 H   0  0  0  0  0  0  0  0  0  0  0  0
  141.8567   68.2058  227.7238 H   0  0  0  0  0  0  0  0  0  0  0  0
  141.9233   70.5314  226.8489 H   0  0  0  0  0  0  0  0  0  0  0  0
  138.6915   67.2223  224.9815 H   0  0  0  0  0  0  0  0  0  0  0  0
  137.9981   68.8771  223.3801 H   0  0  0  0  0  0  0  0  0  0  0  0
  137.7904   70.4270  224.1931 H   0  0  0  0  0  0  0  0  0  0  0  0
  140.2249   69.6102  222.4792 H   0  0  0  0  0  0  0  0  0  0  0  0
  138.8912   70.6924  221.9387 H   0  0  0  0  0  0  0  0  0  0  0  0
  138.6570   75.7890  222.2110 H   0  0  0  0  0  0  0  0  0  0  0  0
  139.6812   76.6203  219.6225 H   0  0  0  0  0  0  0  0  0  0  0  0
  139.0169   77.7416  220.8371 H   0  0  0  0  0  0  0  0  0  0  0  0
  141.6913   76.6474  221.5300 H   0  0  0  0  0  0  0  0  0  0  0  0
  141.6566   77.6433  220.0203 H   0  0  0  0  0  0  0  0  0  0  0  0
  140.1247   79.1717  221.7723 H   0  0  0  0  0  0  0  0  0  0  0  0
  140.5324   78.1213  223.7398 H   0  0  0  0  0  0  0  0  0  0  0  0
  142.2228   77.6121  223.1775 H   0  0  0  0  0  0  0  0  0  0  0  0
  141.5266   79.6004  224.9490 H   0  0  0  0  0  0  0  0  0  0  0  0
  143.1420   79.1932  224.1313 H   0  0  0  0  0  0  0  0  0  0  0  0
  141.3850   81.4688  223.8501 H   0  0  0  0  0  0  0  0  0  0  0  0
  143.1824   81.1919  223.5288 H   0  0  0  0  0  0  0  0  0  0  0  0
  140.8872   81.1809  221.7008 H   0  0  0  0  0  0  0  0  0  0  0  0
  142.6394   81.5909  221.4598 H   0  0  0  0  0  0  0  0  0  0  0  0
  143.0720   79.1900  221.6000 H   0  0  0  0  0  0  0  0  0  0  0  0
  144.7340   74.2399  221.4253 H   0  0  0  0  0  0  0  0  0  0  0  0
  144.8695   72.4355  221.4628 H   0  0  0  0  0  0  0  0  0  0  0  0
  145.6384   74.2758  219.1743 H   0  0  0  0  0  0  0  0  0  0  0  0
  146.7465   73.3706  220.2930 H   0  0  0  0  0  0  0  0  0  0  0  0
  146.1170   72.5430  217.9690 H   0  0  0  0  0  0  0  0  0  0  0  0
  144.3394   71.3869  217.6016 H   0  0  0  0  0  0  0  0  0  0  0  0
  144.1512   70.9750  219.3679 H   0  0  0  0  0  0  0  0  0  0  0  0
  143.6179   73.7334  218.1902 H   0  0  0  0  0  0  0  0  0  0  0  0
  142.3534   72.5322  218.4685 H   0  0  0  0  0  0  0  0  0  0  0  0
  141.2733   72.0579  225.0905 H   0  0  0  0  0  0  0  0  0  0  0  0
  139.4798   72.1114  225.2754 H   0  0  0  0  0  0  0  0  0  0  0  0
  1  2  2  0
  2  3  1  0
  3  4  2  0
  4  5  1  0
  5  6  2  0
  5  7  1  0
  7  8  1  0
  8  9  1  0
  9 10  1  0
 10 11  2  0
 11 12  1  0
 12 13  1  0
 13 14  1  0
 14 15  1  0
 15 16  1  0
 16 17  1  0
 17 18  1  0
 18 19  1  0
 19 20  1  0
 20 21  1  0
 12 22  2  0
 22 23  1  0
 23 24  1  0
 24 25  1  0
 25 26  1  0
 26 27  1  0
 27 28  1  0
 28 29  1  0
 23 30  2  0
  9 31  1  0
  6  1  1  0
 30 10  1  0
 31  4  1  0
 21 16  1  0
 29 24  1  0
  1 32  1  0
  2 33  1  0
  3 34  1  0
  6 35  1  0
  7 36  1  0
  7 37  1  0
  8 38  1  0
  8 39  1  0
 13 40  1  0
 14 41  1  0
 14 42  1  0
 15 43  1  0
 15 44  1  0
 16 45  1  1
 17 46  1  0
 17 47  1  0
 18 48  1  0
 18 49  1  0
 19 50  1  0
 19 51  1  0
 20 52  1  0
 20 53  1  0
 21 54  1  0
 25 55  1  0
 25 56  1  0
 26 57  1  0
 26 58  1  0
 27 59  1  0
 28 60  1  0
 28 61  1  0
 29 62  1  0
 29 63  1  0
 31 64  1  0
 31 65  1  0
M  END
>  <smiles>  (62) 
c1ccc2c(c1)CCN(c1nc(NCCC3CCCCN3)nc(N3CCNCC3)n1)C2

>  <score_type>  (62) 
oracle

>  <origin>  (62) 
autodockgpu

>  <m_score__min__energy>  (62) 
-10.109999999999999

>  <m_primary>  (62) 
energy

>  <rmsd>  (62) 
11.085492569751116

>  <m_score__min__rmsd>  (62) 
11.085492569751116

>  <meeko>  (62) 
{"free_energy": -9.51, "intermolecular_energy": -11.3, "internal_energy": -0.83, "cluster_size": 24, "cluster_id": 1, "rank_in_cluster": 10}

>  <energy>  (62) 
-9.41

>  <cluster_rmsd>  (62) 
0.84

>  <cluster>  (62) 
1

$$$$

     RDKit          3D

 65 69  0  0  0  0  0  0  0  0999 V2000
  139.1500   80.8040  224.1800 C   0  0  0  0  0  0  0  0  0  0  0  0
  140.4810   80.8050  223.7930 C   0  0  0  0  0  0  0  0  0  0  0  0
  140.9790   79.8300  222.9400 C   0  0  0  0  0  0  0  0  0  0  0  0
  140.1270   78.8400  222.4700 C   0  0  0  0  0  0  0  0  0  0  0  0
  138.8070   78.8620  222.8700 C   0  0  0  0  0  0  0  0  0  0  0  0
  138.3010   79.8210  223.7150 C   0  0  0  0  0  0  0  0  0  0  0  0
  137.9480   77.7530  222.3170 C   0  0  0  0  0  0  0  0  0  0  0  0
  138.7160   76.4760  222.6310 C   0  0  0  0  0  0  0  0  0  0  0  0
  140.0040   76.4790  221.9330 N   0  0  0  0  0  0  0  0  0  0  0  0
  140.6040   75.2400  221.6690 C   0  0  0  0  0  0  0  0  0  0  0  0
  139.9350   74.1140  222.0060 N   0  0  0  0  0  0  0  0  0  0  0  0
  140.4370   72.8710  221.7850 C   0  0  0  0  0  0  0  0  0  0  0  0
  139.6300   71.7750  222.1840 N   0  0  0  0  0  0  0  0  0  0  0  0
  140.0070   70.8940  223.2930 C   0  0  0  0  0  0  0  0  0  0  0  0
  140.6580   71.7540  224.3550 C   0  0  0  0  0  0  0  0  0  0  0  0
  141.0160   70.9270  225.5920 C   0  0  1  0  0  0  0  0  0  0  0  0
  141.0710   71.8010  226.7960 C   0  0  0  0  0  0  0  0  0  0  0  0
  140.7710   71.1600  228.1010 C   0  0  0  0  0  0  0  0  0  0  0  0
  140.6310   69.6830  228.1130 C   0  0  0  0  0  0  0  0  0  0  0  0
  140.4280   69.0310  226.7770 C   0  0  0  0  0  0  0  0  0  0  0  0
  139.9350   69.9740  225.7760 N   0  0  0  0  0  0  0  0  0  0  0  0
  141.6410   72.7480  221.2140 N   0  0  0  0  0  0  0  0  0  0  0  0
  142.3420   73.8670  220.8620 C   0  0  0  0  0  0  0  0  0  0  0  0
  143.6320   73.7840  220.2720 N   0  0  0  0  0  0  0  0  0  0  0  0
  144.7120   73.0150  220.8850 C   0  0  0  0  0  0  0  0  0  0  0  0
  146.0370   73.3210  220.2410 C   0  0  0  0  0  0  0  0  0  0  0  0
  146.0160   73.0860  218.8090 N   0  0  0  0  0  0  0  0  0  0  0  0
  144.7400   73.4240  218.2110 C   0  0  0  0  0  0  0  0  0  0  0  0
  143.9620   74.4500  219.0110 C   0  0  0  0  0  0  0  0  0  0  0  0
  141.8230   75.0980  221.0900 N   0  0  0  0  0  0  0  0  0  0  0  0
  140.5910   77.7590  221.5520 C   0  0  0  0  0  0  0  0  0  0  0  0
  138.7717   81.5849  224.8561 H   0  0  0  0  0  0  0  0  0  0  0  0
  141.1532   81.5909  224.1679 H   0  0  0  0  0  0  0  0  0  0  0  0
  142.0372   79.8416  222.6397 H   0  0  0  0  0  0  0  0  0  0  0  0
  137.2425   79.8050  224.0138 H   0  0  0  0  0  0  0  0  0  0  0  0
  136.9633   77.7439  222.8071 H   0  0  0  0  0  0  0  0  0  0  0  0
  137.7589   77.8707  221.2398 H   0  0  0  0  0  0  0  0  0  0  0  0
  138.8899   76.4133  223.7153 H   0  0  0  0  0  0  0  0  0  0  0  0
  138.1268   75.6097  222.2959 H   0  0  0  0  0  0  0  0  0  0  0  0
  138.7440   71.6320  221.6370 H   0  0  0  0  0  0  0  0  0  0  0  0
  139.1124   70.4029  223.7035 H   0  0  0  0  0  0  0  0  0  0  0  0
  140.6998   70.1120  222.9488 H   0  0  0  0  0  0  0  0  0  0  0  0
  141.5755   72.1999  223.9433 H   0  0  0  0  0  0  0  0  0  0  0  0
  139.9466   72.5382  224.6534 H   0  0  0  0  0  0  0  0  0  0  0  0
  141.9924   70.4379  225.4601 H   0  0  0  0  0  0  0  0  0  0  0  0
  142.0859   72.2209  226.8567 H   0  0  0  0  0  0  0  0  0  0  0  0
  140.2735   72.5443  226.6496 H   0  0  0  0  0  0  0  0  0  0  0  0
  141.5850   71.4212  228.7932 H   0  0  0  0  0  0  0  0  0  0  0  0
  139.7789   71.5418  228.3838 H   0  0  0  0  0  0  0  0  0  0  0  0
  141.5447   69.2619  228.5577 H   0  0  0  0  0  0  0  0  0  0  0  0
  139.7151   69.4764  228.6862 H   0  0  0  0  0  0  0  0  0  0  0  0
  141.3883   68.6187  226.4337 H   0  0  0  0  0  0  0  0  0  0  0  0
  139.6744   68.2388  226.8970 H   0  0  0  0  0  0  0  0  0  0  0  0
  139.1270   70.5060  226.1680 H   0  0  0  0  0  0  0  0  0  0  0  0
  144.7675   73.2655  221.9546 H   0  0  0  0  0  0  0  0  0  0  0  0
  144.4979   71.9451  220.7456 H   0  0  0  0  0  0  0  0  0  0  0  0
  146.2844   74.3772  220.4234 H   0  0  0  0  0  0  0  0  0  0  0  0
  146.7904   72.6522  220.6827 H   0  0  0  0  0  0  0  0  0  0  0  0
  146.7150   73.7640  218.3920 H   0  0  0  0  0  0  0  0  0  0  0  0
  144.9213   73.8290  217.2045 H   0  0  0  0  0  0  0  0  0  0  0  0
  144.1371   72.5044  218.1823 H   0  0  0  0  0  0  0  0  0  0  0  0
  144.5777   75.3426  219.1959 H   0  0  0  0  0  0  0  0  0  0  0  0
  143.0619   74.7902  218.4781 H   0  0  0  0  0  0  0  0  0  0  0  0
  141.6872   77.6847  221.6050 H   0  0  0  0  0  0  0  0  0  0  0  0
  140.2769   78.0036  220.5266 H   0  0  0  0  0  0  0  0  0  0  0  0
  1  2  2  0
  2  3  1  0
  3  4  2  0
  4  5  1  0
  5  6  2  0
  5  7  1  0
  7  8  1  0
  8  9  1  0
  9 10  1  0
 10 11  2  0
 11 12  1  0
 12 13  1  0
 13 14  1  0
 14 15  1  0
 15 16  1  0
 16 17  1  0
 17 18  1  0
 18 19  1  0
 19 20  1  0
 20 21  1  0
 12 22  2  0
 22 23  1  0
 23 24  1  0
 24 25  1  0
 25 26  1  0
 26 27  1  0
 27 28  1  0
 28 29  1  0
 23 30  2  0
  9 31  1  0
  6  1  1  0
 30 10  1  0
 31  4  1  0
 21 16  1  0
 29 24  1  0
  1 32  1  0
  2 33  1  0
  3 34  1  0
  6 35  1  0
  7 36  1  0
  7 37  1  0
  8 38  1  0
  8 39  1  0
 13 40  1  0
 14 41  1  0
 14 42  1  0
 15 43  1  0
 15 44  1  0
 16 45  1  6
 17 46  1  0
 17 47  1  0
 18 48  1  0
 18 49  1  0
 19 50  1  0
 19 51  1  0
 20 52  1  0
 20 53  1  0
 21 54  1  0
 25 55  1  0
 25 56  1  0
 26 57  1  0
 26 58  1  0
 27 59  1  0
 28 60  1  0
 28 61  1  0
 29 62  1  0
 29 63  1  0
 31 64  1  0
 31 65  1  0
M  END
>  <smiles>  (63) 
c1ccc2c(c1)CCN(c1nc(NCCC3CCCCN3)nc(N3CCNCC3)n1)C2

>  <score_type>  (63) 
oracle

>  <origin>  (63) 
autodockgpu

>  <m_score__min__energy>  (63) 
-10.109999999999999

>  <m_primary>  (63) 
energy

>  <rmsd>  (63) 
5.355107352754628

>  <m_score__min__rmsd>  (63) 
5.355107352754628

>  <meeko>  (63) 
{"free_energy": -9.75, "intermolecular_energy": -11.54, "internal_energy": -0.88, "cluster_size": 26, "cluster_id": 2, "rank_in_cluster": 2}

>  <energy>  (63) 
-9.37

>  <cluster_rmsd>  (63) 
0.88

>  <cluster>  (63) 
1

$$$$

     RDKit          3D

 65 69  0  0  0  0  0  0  0  0999 V2000
  140.2390   67.4780  226.2470 C   0  0  0  0  0  0  0  0  0  0  0  0
  140.9450   68.4910  226.8770 C   0  0  0  0  0  0  0  0  0  0  0  0
  140.8830   69.7990  226.4180 C   0  0  0  0  0  0  0  0  0  0  0  0
  140.1000   70.0940  225.3110 C   0  0  0  0  0  0  0  0  0  0  0  0
  139.4070   69.0680  224.7020 C   0  0  0  0  0  0  0  0  0  0  0  0
  139.4590   67.7680  225.1460 C   0  0  0  0  0  0  0  0  0  0  0  0
  138.5800   69.4690  223.5060 C   0  0  0  0  0  0  0  0  0  0  0  0
  139.5430   70.2400  222.6130 C   0  0  0  0  0  0  0  0  0  0  0  0
  140.0100   71.4470  223.3000 N   0  0  0  0  0  0  0  0  0  0  0  0
  140.4570   72.5150  222.5100 C   0  0  0  0  0  0  0  0  0  0  0  0
  139.6490   73.5870  222.3570 N   0  0  0  0  0  0  0  0  0  0  0  0
  140.0010   74.6690  221.6120 C   0  0  0  0  0  0  0  0  0  0  0  0
  139.0590   75.7270  221.5370 N   0  0  0  0  0  0  0  0  0  0  0  0
  139.4490   77.0900  221.1630 C   0  0  0  0  0  0  0  0  0  0  0  0
  139.4630   77.9210  222.4280 C   0  0  0  0  0  0  0  0  0  0  0  0
  140.5770   78.9690  222.3870 C   0  0  1  0  0  0  0  0  0  0  0  0
  140.0580   80.2880  222.8460 C   0  0  0  0  0  0  0  0  0  0  0  0
  141.0390   81.2120  223.4680 C   0  0  0  0  0  0  0  0  0  0  0  0
  142.4690   80.8220  223.4070 C   0  0  0  0  0  0  0  0  0  0  0  0
  142.7450   79.3850  223.0730 C   0  0  0  0  0  0  0  0  0  0  0  0
  141.5890   78.5300  223.3320 N   0  0  0  0  0  0  0  0  0  0  0  0
  141.1910   74.6780  221.0020 N   0  0  0  0  0  0  0  0  0  0  0  0
  142.0320   73.6090  221.1370 C   0  0  0  0  0  0  0  0  0  0  0  0
  143.2960   73.5670  220.4920 N   0  0  0  0  0  0  0  0  0  0  0  0
  144.2990   72.5580  220.8270 C   0  0  0  0  0  0  0  0  0  0  0  0
  145.6380   72.8990  220.2320 C   0  0  0  0  0  0  0  0  0  0  0  0
  145.5710   73.0680  218.7930 N   0  0  0  0  0  0  0  0  0  0  0  0
  144.3290   73.6800  218.3650 C   0  0  0  0  0  0  0  0  0  0  0  0
  143.6750   74.5170  219.4460 C   0  0  0  0  0  0  0  0  0  0  0  0
  141.6620   72.5410  221.8860 N   0  0  0  0  0  0  0  0  0  0  0  0
  139.9860   71.4750  224.7590 C   0  0  0  0  0  0  0  0  0  0  0  0
  140.3002   66.4462  226.6234 H   0  0  0  0  0  0  0  0  0  0  0  0
  141.5643   68.2542  227.7548 H   0  0  0  0  0  0  0  0  0  0  0  0
  141.4486   70.5938  226.9264 H   0  0  0  0  0  0  0  0  0  0  0  0
  138.8914   66.9763  224.6350 H   0  0  0  0  0  0  0  0  0  0  0  0
  138.1946   68.5802  222.9850 H   0  0  0  0  0  0  0  0  0  0  0  0
  137.7024   70.0690  223.7884 H   0  0  0  0  0  0  0  0  0  0  0  0
  140.4058   69.6017  222.3719 H   0  0  0  0  0  0  0  0  0  0  0  0
  139.0225   70.5305  221.6885 H   0  0  0  0  0  0  0  0  0  0  0  0
  138.0650   75.4760  221.7650 H   0  0  0  0  0  0  0  0  0  0  0  0
  140.4500   77.0827  220.7070 H   0  0  0  0  0  0  0  0  0  0  0  0
  138.7424   77.5088  220.4314 H   0  0  0  0  0  0  0  0  0  0  0  0
  138.4940   78.4308  222.5335 H   0  0  0  0  0  0  0  0  0  0  0  0
  139.6437   77.2527  223.2828 H   0  0  0  0  0  0  0  0  0  0  0  0
  140.9707   79.0746  221.3653 H   0  0  0  0  0  0  0  0  0  0  0  0
  139.6271   80.7987  221.9722 H   0  0  0  0  0  0  0  0  0  0  0  0
  139.3375   80.0529  223.6433 H   0  0  0  0  0  0  0  0  0  0  0  0
  140.9398   82.1864  222.9672 H   0  0  0  0  0  0  0  0  0  0  0  0
  140.7899   81.2116  224.5394 H   0  0  0  0  0  0  0  0  0  0  0  0
  142.9554   81.4449  222.6419 H   0  0  0  0  0  0  0  0  0  0  0  0
  142.8608   80.9708  224.4240 H   0  0  0  0  0  0  0  0  0  0  0  0
  143.0084   79.3126  222.0075 H   0  0  0  0  0  0  0  0  0  0  0  0
  143.5715   79.0408  223.7121 H   0  0  0  0  0  0  0  0  0  0  0  0
  141.2180   78.7300  224.2880 H   0  0  0  0  0  0  0  0  0  0  0  0
  144.3974   72.5001  221.9211 H   0  0  0  0  0  0  0  0  0  0  0  0
  143.9714   71.5926  220.4139 H   0  0  0  0  0  0  0  0  0  0  0  0
  145.9975   73.8360  220.6824 H   0  0  0  0  0  0  0  0  0  0  0  0
  146.3234   72.0648  220.4425 H   0  0  0  0  0  0  0  0  0  0  0  0
  146.3320   73.7630  218.5450 H   0  0  0  0  0  0  0  0  0  0  0  0
  144.5373   74.3264  217.4997 H   0  0  0  0  0  0  0  0  0  0  0  0
  143.6323   72.8668  218.1135 H   0  0  0  0  0  0  0  0  0  0  0  0
  144.3836   75.2609  219.8392 H   0  0  0  0  0  0  0  0  0  0  0  0
  142.8074   75.0752  219.0644 H   0  0  0  0  0  0  0  0  0  0  0  0
  140.8288   72.0809  225.1231 H   0  0  0  0  0  0  0  0  0  0  0  0
  139.0327   71.9125  225.0903 H   0  0  0  0  0  0  0  0  0  0  0  0
  1  2  2  0
  2  3  1  0
  3  4  2  0
  4  5  1  0
  5  6  2  0
  5  7  1  0
  7  8  1  0
  8  9  1  0
  9 10  1  0
 10 11  2  0
 11 12  1  0
 12 13  1  0
 13 14  1  0
 14 15  1  0
 15 16  1  0
 16 17  1  0
 17 18  1  0
 18 19  1  0
 19 20  1  0
 20 21  1  0
 12 22  2  0
 22 23  1  0
 23 24  1  0
 24 25  1  0
 25 26  1  0
 26 27  1  0
 27 28  1  0
 28 29  1  0
 23 30  2  0
  9 31  1  0
  6  1  1  0
 30 10  1  0
 31  4  1  0
 21 16  1  0
 29 24  1  0
  1 32  1  0
  2 33  1  0
  3 34  1  0
  6 35  1  0
  7 36  1  0
  7 37  1  0
  8 38  1  0
  8 39  1  0
 13 40  1  0
 14 41  1  0
 14 42  1  0
 15 43  1  0
 15 44  1  0
 16 45  1  6
 17 46  1  0
 17 47  1  0
 18 48  1  0
 18 49  1  0
 19 50  1  0
 19 51  1  0
 20 52  1  0
 20 53  1  0
 21 54  1  0
 25 55  1  0
 25 56  1  0
 26 57  1  0
 26 58  1  0
 27 59  1  0
 28 60  1  0
 28 61  1  0
 29 62  1  0
 29 63  1  0
 31 64  1  0
 31 65  1  0
M  END
>  <smiles>  (64) 
c1ccc2c(c1)CCN(c1nc(NCCC3CCCCN3)nc(N3CCNCC3)n1)C2

>  <score_type>  (64) 
oracle

>  <origin>  (64) 
autodockgpu

>  <m_score__min__energy>  (64) 
-10.109999999999999

>  <m_primary>  (64) 
energy

>  <rmsd>  (64) 
11.078032713485882

>  <m_score__min__rmsd>  (64) 
11.078032713485882

>  <meeko>  (64) 
{"free_energy": -9.37, "intermolecular_energy": -11.16, "internal_energy": -0.8, "cluster_size": 24, "cluster_id": 1, "rank_in_cluster": 13}

>  <energy>  (64) 
-9.28

>  <cluster_rmsd>  (64) 
0.9

>  <cluster>  (64) 
1

$$$$

     RDKit          3D

 65 69  0  0  0  0  0  0  0  0999 V2000
  141.1030   81.2800  223.7860 C   0  0  0  0  0  0  0  0  0  0  0  0
  142.3640   80.9610  223.3070 C   0  0  0  0  0  0  0  0  0  0  0  0
  142.5630   79.8520  222.4960 C   0  0  0  0  0  0  0  0  0  0  0  0
  141.4790   79.0510  222.1640 C   0  0  0  0  0  0  0  0  0  0  0  0
  140.2350   79.3900  222.6550 C   0  0  0  0  0  0  0  0  0  0  0  0
  140.0240   80.4850  223.4580 C   0  0  0  0  0  0  0  0  0  0  0  0
  139.1100   78.4700  222.2490 C   0  0  0  0  0  0  0  0  0  0  0  0
  139.6060   77.0740  222.6040 C   0  0  0  0  0  0  0  0  0  0  0  0
  140.8000   76.7490  221.8180 N   0  0  0  0  0  0  0  0  0  0  0  0
  141.0910   75.3950  221.6060 C   0  0  0  0  0  0  0  0  0  0  0  0
  140.3580   74.4670  222.2620 N   0  0  0  0  0  0  0  0  0  0  0  0
  140.5670   73.1320  222.1160 C   0  0  0  0  0  0  0  0  0  0  0  0
  139.7240   72.2680  222.8610 N   0  0  0  0  0  0  0  0  0  0  0  0
  140.1690   70.9450  223.3110 C   0  0  0  0  0  0  0  0  0  0  0  0
  139.1040   70.4000  224.2390 C   0  0  0  0  0  0  0  0  0  0  0  0
  139.4570   70.6710  225.7030 C   0  0  1  0  0  0  0  0  0  0  0  0
  139.6220   69.3850  226.4370 C   0  0  0  0  0  0  0  0  0  0  0  0
  140.5380   69.3960  227.6050 C   0  0  0  0  0  0  0  0  0  0  0  0
  141.0560   70.7140  228.0470 C   0  0  0  0  0  0  0  0  0  0  0  0
  140.9170   71.8380  227.0630 C   0  0  0  0  0  0  0  0  0  0  0  0
  140.7400   71.3530  225.6970 N   0  0  0  0  0  0  0  0  0  0  0  0
  141.5360   72.7120  221.2950 N   0  0  0  0  0  0  0  0  0  0  0  0
  142.2940   73.6250  220.6170 C   0  0  0  0  0  0  0  0  0  0  0  0
  143.3460   73.2250  219.7500 N   0  0  0  0  0  0  0  0  0  0  0  0
  143.9290   74.1420  218.7720 C   0  0  0  0  0  0  0  0  0  0  0  0
  144.8020   73.4100  217.7890 C   0  0  0  0  0  0  0  0  0  0  0  0
  145.8540   72.6580  218.4470 N   0  0  0  0  0  0  0  0  0  0  0  0
  145.4220   72.0890  219.7080 C   0  0  0  0  0  0  0  0  0  0  0  0
  143.9220   71.8810  219.7840 C   0  0  0  0  0  0  0  0  0  0  0  0
  142.0680   74.9520  220.7760 N   0  0  0  0  0  0  0  0  0  0  0  0
  141.6160   77.8430  221.3000 C   0  0  0  0  0  0  0  0  0  0  0  0
  140.9629   82.1640  224.4255 H   0  0  0  0  0  0  0  0  0  0  0  0
  143.2210   81.5969  223.5738 H   0  0  0  0  0  0  0  0  0  0  0  0
  143.5684   79.6107  222.1207 H   0  0  0  0  0  0  0  0  0  0  0  0
  139.0169   80.7226  223.8311 H   0  0  0  0  0  0  0  0  0  0  0  0
  138.1925   78.7093  222.8066 H   0  0  0  0  0  0  0  0  0  0  0  0
  138.8593   78.5642  221.1821 H   0  0  0  0  0  0  0  0  0  0  0  0
  139.8543   77.0375  223.6750 H   0  0  0  0  0  0  0  0  0  0  0  0
  138.8159   76.3427  222.3780 H   0  0  0  0  0  0  0  0  0  0  0  0
  138.7620   72.6320  223.0720 H   0  0  0  0  0  0  0  0  0  0  0  0
  140.2927   70.2759  222.4467 H   0  0  0  0  0  0  0  0  0  0  0  0
  141.1363   71.0165  223.8298 H   0  0  0  0  0  0  0  0  0  0  0  0
  138.1434   70.8826  224.0059 H   0  0  0  0  0  0  0  0  0  0  0  0
  139.0362   69.3120  224.0918 H   0  0  0  0  0  0  0  0  0  0  0  0
  138.6665   71.2624  226.1881 H   0  0  0  0  0  0  0  0  0  0  0  0
  138.6289   69.0761  226.7953 H   0  0  0  0  0  0  0  0  0  0  0  0
  140.0844   68.6971  225.7139 H   0  0  0  0  0  0  0  0  0  0  0  0
  139.9977   68.9511  228.4536 H   0  0  0  0  0  0  0  0  0  0  0  0
  141.4265   68.8382  227.2742 H   0  0  0  0  0  0  0  0  0  0  0  0
  140.5155   70.9986  228.9618 H   0  0  0  0  0  0  0  0  0  0  0  0
  142.1380   70.5755  228.1886 H   0  0  0  0  0  0  0  0  0  0  0  0
  140.0429   72.4457  227.3398 H   0  0  0  0  0  0  0  0  0  0  0  0
  141.8421   72.4323  227.0944 H   0  0  0  0  0  0  0  0  0  0  0  0
  141.4660   70.6320  225.4890 H   0  0  0  0  0  0  0  0  0  0  0  0
  143.1182   74.6458  218.2253 H   0  0  0  0  0  0  0  0  0  0  0  0
  144.5495   74.8742  219.3094 H   0  0  0  0  0  0  0  0  0  0  0  0
  144.1775   72.7138  217.2100 H   0  0  0  0  0  0  0  0  0  0  0  0
  145.2774   74.1572  217.1366 H   0  0  0  0  0  0  0  0  0  0  0  0
  146.0590   71.8310  217.8160 H   0  0  0  0  0  0  0  0  0  0  0  0
  145.9175   71.1160  219.8410 H   0  0  0  0  0  0  0  0  0  0  0  0
  145.6948   72.8019  220.5001 H   0  0  0  0  0  0  0  0  0  0  0  0
  143.5707   71.2890  218.9260 H   0  0  0  0  0  0  0  0  0  0  0  0
  143.6287   71.3309  220.6903 H   0  0  0  0  0  0  0  0  0  0  0  0
  142.6704   77.5301  221.2797 H   0  0  0  0  0  0  0  0  0  0  0  0
  141.2747   78.0915  220.2842 H   0  0  0  0  0  0  0  0  0  0  0  0
  1  2  2  0
  2  3  1  0
  3  4  2  0
  4  5  1  0
  5  6  2  0
  5  7  1  0
  7  8  1  0
  8  9  1  0
  9 10  1  0
 10 11  2  0
 11 12  1  0
 12 13  1  0
 13 14  1  0
 14 15  1  0
 15 16  1  0
 16 17  1  0
 17 18  1  0
 18 19  1  0
 19 20  1  0
 20 21  1  0
 12 22  2  0
 22 23  1  0
 23 24  1  0
 24 25  1  0
 25 26  1  0
 26 27  1  0
 27 28  1  0
 28 29  1  0
 23 30  2  0
  9 31  1  0
  6  1  1  0
 30 10  1  0
 31  4  1  0
 21 16  1  0
 29 24  1  0
  1 32  1  0
  2 33  1  0
  3 34  1  0
  6 35  1  0
  7 36  1  0
  7 37  1  0
  8 38  1  0
  8 39  1  0
 13 40  1  0
 14 41  1  0
 14 42  1  0
 15 43  1  0
 15 44  1  0
 16 45  1  1
 17 46  1  0
 17 47  1  0
 18 48  1  0
 18 49  1  0
 19 50  1  0
 19 51  1  0
 20 52  1  0
 20 53  1  0
 21 54  1  0
 25 55  1  0
 25 56  1  0
 26 57  1  0
 26 58  1  0
 27 59  1  0
 28 60  1  0
 28 61  1  0
 29 62  1  0
 29 63  1  0
 31 64  1  0
 31 65  1  0
M  END
>  <smiles>  (65) 
c1ccc2c(c1)CCN(c1nc(NCCC3CCCCN3)nc(N3CCNCC3)n1)C2

>  <score_type>  (65) 
oracle

>  <origin>  (65) 
autodockgpu

>  <m_score__min__energy>  (65) 
-10.109999999999999

>  <m_primary>  (65) 
energy

>  <rmsd>  (65) 
5.338551890529798

>  <m_score__min__rmsd>  (65) 
5.338551890529798

>  <meeko>  (65) 
{"free_energy": -9.36, "intermolecular_energy": -11.15, "internal_energy": -0.78, "cluster_size": 26, "cluster_id": 2, "rank_in_cluster": 14}

>  <energy>  (65) 
-8.81

>  <cluster_rmsd>  (65) 
1.24

>  <cluster>  (65) 
1

$$$$

     RDKit          3D

 65 69  0  0  0  0  0  0  0  0999 V2000
  141.1480   81.2700  223.8210 C   0  0  0  0  0  0  0  0  0  0  0  0
  142.4230   80.9050  223.4210 C   0  0  0  0  0  0  0  0  0  0  0  0
  142.6320   79.7870  222.6250 C   0  0  0  0  0  0  0  0  0  0  0  0
  141.5430   79.0250  222.2270 C   0  0  0  0  0  0  0  0  0  0  0  0
  140.2830   79.4090  222.6390 C   0  0  0  0  0  0  0  0  0  0  0  0
  140.0630   80.5130  223.4280 C   0  0  0  0  0  0  0  0  0  0  0  0
  139.1540   78.5290  222.1660 C   0  0  0  0  0  0  0  0  0  0  0  0
  139.5760   77.1180  222.5510 C   0  0  0  0  0  0  0  0  0  0  0  0
  140.8030   76.7480  221.8410 N   0  0  0  0  0  0  0  0  0  0  0  0
  141.0580   75.3830  221.6490 C   0  0  0  0  0  0  0  0  0  0  0  0
  140.3230   74.4850  222.3420 N   0  0  0  0  0  0  0  0  0  0  0  0
  140.4980   73.1430  222.2170 C   0  0  0  0  0  0  0  0  0  0  0  0
  139.6570   72.3130  223.0020 N   0  0  0  0  0  0  0  0  0  0  0  0
  140.1580   71.1110  223.6740 C   0  0  0  0  0  0  0  0  0  0  0  0
  140.4920   71.4930  225.0990 C   0  0  0  0  0  0  0  0  0  0  0  0
  140.7790   70.2540  225.9510 C   0  0  1  0  0  0  0  0  0  0  0  0
  140.7210   70.6010  227.3980 C   0  0  0  0  0  0  0  0  0  0  0  0
  140.3420   69.5110  228.3310 C   0  0  0  0  0  0  0  0  0  0  0  0
  140.2390   68.1420  227.7670 C   0  0  0  0  0  0  0  0  0  0  0  0
  140.1530   68.0520  226.2720 C   0  0  0  0  0  0  0  0  0  0  0  0
  139.7130   69.3080  225.6710 N   0  0  0  0  0  0  0  0  0  0  0  0
  141.4330   72.6850  221.3790 N   0  0  0  0  0  0  0  0  0  0  0  0
  142.1930   73.5670  220.6620 C   0  0  0  0  0  0  0  0  0  0  0  0
  143.2120   73.1260  219.7750 N   0  0  0  0  0  0  0  0  0  0  0  0
  143.8700   74.0400  218.8440 C   0  0  0  0  0  0  0  0  0  0  0  0
  144.6840   73.2890  217.8250 C   0  0  0  0  0  0  0  0  0  0  0  0
  145.6690   72.4220  218.4430 N   0  0  0  0  0  0  0  0  0  0  0  0
  145.1890   71.8280  219.6750 C   0  0  0  0  0  0  0  0  0  0  0  0
  143.6760   71.7390  219.7420 C   0  0  0  0  0  0  0  0  0  0  0  0
  142.0020   74.9020  220.8010 N   0  0  0  0  0  0  0  0  0  0  0  0
  141.6890   77.8090  221.3740 C   0  0  0  0  0  0  0  0  0  0  0  0
  141.0008   82.1604  224.4499 H   0  0  0  0  0  0  0  0  0  0  0  0
  143.2841   81.5110  223.7393 H   0  0  0  0  0  0  0  0  0  0  0  0
  143.6495   79.5084  222.3133 H   0  0  0  0  0  0  0  0  0  0  0  0
  139.0442   80.7871  223.7394 H   0  0  0  0  0  0  0  0  0  0  0  0
  138.2133   78.8026  222.6662 H   0  0  0  0  0  0  0  0  0  0  0  0
  138.9732   78.6290  221.0856 H   0  0  0  0  0  0  0  0  0  0  0  0
  139.7561   77.0752  223.6353 H   0  0  0  0  0  0  0  0  0  0  0  0
  138.7754   76.4153  222.2765 H   0  0  0  0  0  0  0  0  0  0  0  0
  138.6520   72.6120  223.0740 H   0  0  0  0  0  0  0  0  0  0  0  0
  139.3864   70.3271  223.6663 H   0  0  0  0  0  0  0  0  0  0  0  0
  141.0481   70.7213  223.1584 H   0  0  0  0  0  0  0  0  0  0  0  0
  141.3805   72.1415  225.0979 H   0  0  0  0  0  0  0  0  0  0  0  0
  139.6281   72.0200  225.5302 H   0  0  0  0  0  0  0  0  0  0  0  0
  141.7751   69.8483  225.7204 H   0  0  0  0  0  0  0  0  0  0  0  0
  141.7170   70.9618  227.6942 H   0  0  0  0  0  0  0  0  0  0  0  0
  139.9172   71.3470  227.4839 H   0  0  0  0  0  0  0  0  0  0  0  0
  141.0958   69.4834  229.1317 H   0  0  0  0  0  0  0  0  0  0  0  0
  139.3223   69.7602  228.6597 H   0  0  0  0  0  0  0  0  0  0  0  0
  141.1273   67.5781  228.0877 H   0  0  0  0  0  0  0  0  0  0  0  0
  139.2885   67.7364  228.1439 H   0  0  0  0  0  0  0  0  0  0  0  0
  141.1464   67.7972  225.8742 H   0  0  0  0  0  0  0  0  0  0  0  0
  139.4124   67.2784  226.0210 H   0  0  0  0  0  0  0  0  0  0  0  0
  138.8630   69.6530  226.1720 H   0  0  0  0  0  0  0  0  0  0  0  0
  143.1044   74.6344  218.3238 H   0  0  0  0  0  0  0  0  0  0  0  0
  144.5459   74.6922  219.4165 H   0  0  0  0  0  0  0  0  0  0  0  0
  144.0067   72.6758  217.2124 H   0  0  0  0  0  0  0  0  0  0  0  0
  145.2209   74.0268  217.2108 H   0  0  0  0  0  0  0  0  0  0  0  0
  145.8080   71.6130  217.7720 H   0  0  0  0  0  0  0  0  0  0  0  0
  145.6036   70.8126  219.7590 H   0  0  0  0  0  0  0  0  0  0  0  0
  145.5166   72.4760  220.5013 H   0  0  0  0  0  0  0  0  0  0  0  0
  143.2803   71.2207  218.8561 H   0  0  0  0  0  0  0  0  0  0  0  0
  143.3358   71.1703  220.6200 H   0  0  0  0  0  0  0  0  0  0  0  0
  142.7303   77.4575  221.4199 H   0  0  0  0  0  0  0  0  0  0  0  0
  141.4210   78.0664  220.3386 H   0  0  0  0  0  0  0  0  0  0  0  0
  1  2  2  0
  2  3  1  0
  3  4  2  0
  4  5  1  0
  5  6  2  0
  5  7  1  0
  7  8  1  0
  8  9  1  0
  9 10  1  0
 10 11  2  0
 11 12  1  0
 12 13  1  0
 13 14  1  0
 14 15  1  0
 15 16  1  0
 16 17  1  0
 17 18  1  0
 18 19  1  0
 19 20  1  0
 20 21  1  0
 12 22  2  0
 22 23  1  0
 23 24  1  0
 24 25  1  0
 25 26  1  0
 26 27  1  0
 27 28  1  0
 28 29  1  0
 23 30  2  0
  9 31  1  0
  6  1  1  0
 30 10  1  0
 31  4  1  0
 21 16  1  0
 29 24  1  0
  1 32  1  0
  2 33  1  0
  3 34  1  0
  6 35  1  0
  7 36  1  0
  7 37  1  0
  8 38  1  0
  8 39  1  0
 13 40  1  0
 14 41  1  0
 14 42  1  0
 15 43  1  0
 15 44  1  0
 16 45  1  6
 17 46  1  0
 17 47  1  0
 18 48  1  0
 18 49  1  0
 19 50  1  0
 19 51  1  0
 20 52  1  0
 20 53  1  0
 21 54  1  0
 25 55  1  0
 25 56  1  0
 26 57  1  0
 26 58  1  0
 27 59  1  0
 28 60  1  0
 28 61  1  0
 29 62  1  0
 29 63  1  0
 31 64  1  0
 31 65  1  0
M  END
>  <smiles>  (66) 
c1ccc2c(c1)CCN(c1nc(NCCC3CCCCN3)nc(N3CCNCC3)n1)C2

>  <score_type>  (66) 
oracle

>  <origin>  (66) 
autodockgpu

>  <m_score__min__energy>  (66) 
-10.109999999999999

>  <m_primary>  (66) 
energy

>  <rmsd>  (66) 
5.366514723218727

>  <m_score__min__rmsd>  (66) 
5.366514723218727

>  <meeko>  (66) 
{"free_energy": -9.61, "intermolecular_energy": -11.4, "internal_energy": -0.75, "cluster_size": 26, "cluster_id": 2, "rank_in_cluster": 8}

>  <energy>  (66) 
-8.8

>  <cluster_rmsd>  (66) 
1.29

>  <cluster>  (66) 
1

$$$$

     RDKit          3D

 65 69  0  0  0  0  0  0  0  0999 V2000
  140.2330   67.4750  226.2240 C   0  0  0  0  0  0  0  0  0  0  0  0
  141.3250   68.2550  226.5720 C   0  0  0  0  0  0  0  0  0  0  0  0
  141.4330   69.5700  226.1410 C   0  0  0  0  0  0  0  0  0  0  0  0
  140.4300   70.1080  225.3470 C   0  0  0  0  0  0  0  0  0  0  0  0
  139.3540   69.3110  225.0150 C   0  0  0  0  0  0  0  0  0  0  0  0
  139.2340   68.0080  225.4350 C   0  0  0  0  0  0  0  0  0  0  0  0
  138.3070   69.9690  224.1500 C   0  0  0  0  0  0  0  0  0  0  0  0
  139.0870   70.5550  222.9800 C   0  0  0  0  0  0  0  0  0  0  0  0
  140.0240   71.5740  223.4590 N   0  0  0  0  0  0  0  0  0  0  0  0
  140.4340   72.5600  222.5510 C   0  0  0  0  0  0  0  0  0  0  0  0
  139.5700   73.5510  222.2390 N   0  0  0  0  0  0  0  0  0  0  0  0
  139.8820   74.5490  221.3720 C   0  0  0  0  0  0  0  0  0  0  0  0
  138.8830   75.5280  221.1360 N   0  0  0  0  0  0  0  0  0  0  0  0
  139.1160   76.9540  221.3840 C   0  0  0  0  0  0  0  0  0  0  0  0
  140.2530   77.0620  222.3760 C   0  0  0  0  0  0  0  0  0  0  0  0
  140.7590   78.5030  222.4810 C   0  0  1  0  0  0  0  0  0  0  0  0
  141.4270   78.7180  223.7950 C   0  0  0  0  0  0  0  0  0  0  0  0
  142.4870   79.7560  223.8420 C   0  0  0  0  0  0  0  0  0  0  0  0
  142.6550   80.6080  222.6390 C   0  0  0  0  0  0  0  0  0  0  0  0
  142.0160   80.1010  221.3800 C   0  0  0  0  0  0  0  0  0  0  0  0
  141.7560   78.6640  221.4370 N   0  0  0  0  0  0  0  0  0  0  0  0
  141.0910   74.5570  220.7980 N   0  0  0  0  0  0  0  0  0  0  0  0
  141.9880   73.5690  221.0920 C   0  0  0  0  0  0  0  0  0  0  0  0
  143.2750   73.5260  220.4920 N   0  0  0  0  0  0  0  0  0  0  0  0
  144.2540   72.4990  220.8420 C   0  0  0  0  0  0  0  0  0  0  0  0
  145.6180   72.8380  220.3040 C   0  0  0  0  0  0  0  0  0  0  0  0
  145.6040   73.0360  218.8670 N   0  0  0  0  0  0  0  0  0  0  0  0
  144.3850   73.6700  218.4060 C   0  0  0  0  0  0  0  0  0  0  0  0
  143.7010   74.4930  219.4810 C   0  0  0  0  0  0  0  0  0  0  0  0
  141.6570   72.5830  221.9610 N   0  0  0  0  0  0  0  0  0  0  0  0
  140.4780   71.5120  224.8450 C   0  0  0  0  0  0  0  0  0  0  0  0
  140.1631   66.4350  226.5755 H   0  0  0  0  0  0  0  0  0  0  0  0
  142.1190   67.8247  227.2001 H   0  0  0  0  0  0  0  0  0  0  0  0
  142.3038   70.1788  226.4256 H   0  0  0  0  0  0  0  0  0  0  0  0
  138.3609   67.4032  225.1486 H   0  0  0  0  0  0  0  0  0  0  0  0
  137.5744   69.2286  223.7962 H   0  0  0  0  0  0  0  0  0  0  0  0
  137.7364   70.7348  224.6959 H   0  0  0  0  0  0  0  0  0  0  0  0
  139.6476   69.7525  222.4782 H   0  0  0  0  0  0  0  0  0  0  0  0
  138.3823   71.0179  222.2735 H   0  0  0  0  0  0  0  0  0  0  0  0
  137.9640   75.1700  220.7720 H   0  0  0  0  0  0  0  0  0  0  0  0
  139.3871   77.4593  220.4453 H   0  0  0  0  0  0  0  0  0  0  0  0
  138.2083   77.4321  221.7808 H   0  0  0  0  0  0  0  0  0  0  0  0
  139.8998   76.7325  223.3643 H   0  0  0  0  0  0  0  0  0  0  0  0
  141.0806   76.4259  222.0289 H   0  0  0  0  0  0  0  0  0  0  0  0
  139.9255   79.2141  222.3828 H   0  0  0  0  0  0  0  0  0  0  0  0
  140.6508   79.0012  224.5211 H   0  0  0  0  0  0  0  0  0  0  0  0
  141.9401   77.7706  224.0169 H   0  0  0  0  0  0  0  0  0  0  0  0
  142.2623   80.4204  224.6894 H   0  0  0  0  0  0  0  0  0  0  0  0
  143.4296   79.1953  223.9264 H   0  0  0  0  0  0  0  0  0  0  0  0
  142.2227   81.5946  222.8622 H   0  0  0  0  0  0  0  0  0  0  0  0
  143.7361   80.6258  222.4367 H   0  0  0  0  0  0  0  0  0  0  0  0
  141.0627   80.6284  221.2286 H   0  0  0  0  0  0  0  0  0  0  0  0
  142.7110   80.2873  220.5480 H   0  0  0  0  0  0  0  0  0  0  0  0
  142.6170   78.1690  221.7610 H   0  0  0  0  0  0  0  0  0  0  0  0
  144.3111   72.4168  221.9374 H   0  0  0  0  0  0  0  0  0  0  0  0
  143.9320   71.5461  220.3966 H   0  0  0  0  0  0  0  0  0  0  0  0
  145.9698   73.7621  220.7860 H   0  0  0  0  0  0  0  0  0  0  0  0
  146.2880   71.9936  220.5231 H   0  0  0  0  0  0  0  0  0  0  0  0
  146.3810   73.7280  218.6600 H   0  0  0  0  0  0  0  0  0  0  0  0
  144.6314   74.3312  217.5622 H   0  0  0  0  0  0  0  0  0  0  0  0
  143.6894   72.8702  218.1119 H   0  0  0  0  0  0  0  0  0  0  0  0
  144.4029   75.2205  219.9147 H   0  0  0  0  0  0  0  0  0  0  0  0
  142.8538   75.0691  219.0807 H   0  0  0  0  0  0  0  0  0  0  0  0
  141.5119   71.8828  224.9044 H   0  0  0  0  0  0  0  0  0  0  0  0
  139.8162   72.1348  225.4648 H   0  0  0  0  0  0  0  0  0  0  0  0
  1  2  2  0
  2  3  1  0
  3  4  2  0
  4  5  1  0
  5  6  2  0
  5  7  1  0
  7  8  1  0
  8  9  1  0
  9 10  1  0
 10 11  2  0
 11 12  1  0
 12 13  1  0
 13 14  1  0
 14 15  1  0
 15 16  1  0
 16 17  1  0
 17 18  1  0
 18 19  1  0
 19 20  1  0
 20 21  1  0
 12 22  2  0
 22 23  1  0
 23 24  1  0
 24 25  1  0
 25 26  1  0
 26 27  1  0
 27 28  1  0
 28 29  1  0
 23 30  2  0
  9 31  1  0
  6  1  1  0
 30 10  1  0
 31  4  1  0
 21 16  1  0
 29 24  1  0
  1 32  1  0
  2 33  1  0
  3 34  1  0
  6 35  1  0
  7 36  1  0
  7 37  1  0
  8 38  1  0
  8 39  1  0
 13 40  1  0
 14 41  1  0
 14 42  1  0
 15 43  1  0
 15 44  1  0
 16 45  1  6
 17 46  1  0
 17 47  1  0
 18 48  1  0
 18 49  1  0
 19 50  1  0
 19 51  1  0
 20 52  1  0
 20 53  1  0
 21 54  1  0
 25 55  1  0
 25 56  1  0
 26 57  1  0
 26 58  1  0
 27 59  1  0
 28 60  1  0
 28 61  1  0
 29 62  1  0
 29 63  1  0
 31 64  1  0
 31 65  1  0
M  END
>  <smiles>  (67) 
c1ccc2c(c1)CCN(c1nc(NCCC3CCCCN3)nc(N3CCNCC3)n1)C2

>  <score_type>  (67) 
oracle

>  <origin>  (67) 
autodockgpu

>  <m_score__min__energy>  (67) 
-10.109999999999999

>  <m_primary>  (67) 
energy

>  <rmsd>  (67) 
11.116151342012465

>  <m_score__min__rmsd>  (67) 
11.116151342012465

>  <meeko>  (67) 
{"free_energy": -9.94, "intermolecular_energy": -11.73, "internal_energy": -0.93, "cluster_size": 24, "cluster_id": 1, "rank_in_cluster": 3}

>  <energy>  (67) 
-8.66

>  <cluster_rmsd>  (67) 
1.1

>  <cluster>  (67) 
1

$$$$

     RDKit          3D

 65 69  0  0  0  0  0  0  0  0999 V2000
  140.3700   67.5550  226.3150 C   0  0  0  0  0  0  0  0  0  0  0  0
  141.1380   68.5500  226.9000 C   0  0  0  0  0  0  0  0  0  0  0  0
  141.0940   69.8560  226.4340 C   0  0  0  0  0  0  0  0  0  0  0  0
  140.2650   70.1680  225.3640 C   0  0  0  0  0  0  0  0  0  0  0  0
  139.5110   69.1600  224.8000 C   0  0  0  0  0  0  0  0  0  0  0  0
  139.5460   67.8620  225.2510 C   0  0  0  0  0  0  0  0  0  0  0  0
  138.6380   69.5780  223.6430 C   0  0  0  0  0  0  0  0  0  0  0  0
  139.5790   70.3130  222.6960 C   0  0  0  0  0  0  0  0  0  0  0  0
  140.1170   71.5090  223.3490 N   0  0  0  0  0  0  0  0  0  0  0  0
  140.5570   72.5570  222.5290 C   0  0  0  0  0  0  0  0  0  0  0  0
  139.7360   73.6130  222.3350 N   0  0  0  0  0  0  0  0  0  0  0  0
  140.0800   74.6750  221.5590 C   0  0  0  0  0  0  0  0  0  0  0  0
  139.1260   75.7180  221.4430 N   0  0  0  0  0  0  0  0  0  0  0  0
  139.3030   77.0110  222.1110 C   0  0  0  0  0  0  0  0  0  0  0  0
  140.7620   77.1300  222.4930 C   0  0  0  0  0  0  0  0  0  0  0  0
  141.0570   78.4890  223.1310 C   0  0  1  0  0  0  0  0  0  0  0  0
  142.3450   79.0310  222.6140 C   0  0  0  0  0  0  0  0  0  0  0  0
  142.4880   80.5080  222.5930 C   0  0  0  0  0  0  0  0  0  0  0  0
  141.4230   81.3000  223.2550 C   0  0  0  0  0  0  0  0  0  0  0  0
  140.1420   80.5720  223.5400 C   0  0  0  0  0  0  0  0  0  0  0  0
  139.9920   79.3810  222.7080 N   0  0  0  0  0  0  0  0  0  0  0  0
  141.2750   74.6800  220.9580 N   0  0  0  0  0  0  0  0  0  0  0  0
  142.1280   73.6260  221.1330 C   0  0  0  0  0  0  0  0  0  0  0  0
  143.3980   73.5800  220.4990 N   0  0  0  0  0  0  0  0  0  0  0  0
  144.4010   72.5780  220.8550 C   0  0  0  0  0  0  0  0  0  0  0  0
  145.7440   72.9160  220.2670 C   0  0  0  0  0  0  0  0  0  0  0  0
  145.6880   73.0660  218.8250 N   0  0  0  0  0  0  0  0  0  0  0  0
  144.4480   73.6680  218.3790 C   0  0  0  0  0  0  0  0  0  0  0  0
  143.7820   74.5180  219.4440 C   0  0  0  0  0  0  0  0  0  0  0  0
  141.7660   72.5780  221.9130 N   0  0  0  0  0  0  0  0  0  0  0  0
  140.1670   71.5480  224.8080 C   0  0  0  0  0  0  0  0  0  0  0  0
  140.4171   66.5247  226.6974 H   0  0  0  0  0  0  0  0  0  0  0  0
  141.7930   68.2998  227.7476 H   0  0  0  0  0  0  0  0  0  0  0  0
  141.7089   70.6360  226.9068 H   0  0  0  0  0  0  0  0  0  0  0  0
  138.9307   67.0847  224.7743 H   0  0  0  0  0  0  0  0  0  0  0  0
  138.2001   68.6979  223.1494 H   0  0  0  0  0  0  0  0  0  0  0  0
  137.7943   70.2069  223.9635 H   0  0  0  0  0  0  0  0  0  0  0  0
  140.4084   69.6464  222.4172 H   0  0  0  0  0  0  0  0  0  0  0  0
  139.0220   70.6136  221.7964 H   0  0  0  0  0  0  0  0  0  0  0  0
  138.2850   75.5090  220.8500 H   0  0  0  0  0  0  0  0  0  0  0  0
  139.0259   77.8275  221.4280 H   0  0  0  0  0  0  0  0  0  0  0  0
  138.6625   77.0770  223.0029 H   0  0  0  0  0  0  0  0  0  0  0  0
  141.0111   76.3347  223.2110 H   0  0  0  0  0  0  0  0  0  0  0  0
  141.3701   77.0334  221.5815 H   0  0  0  0  0  0  0  0  0  0  0  0
  141.1210   78.3959  224.2252 H   0  0  0  0  0  0  0  0  0  0  0  0
  143.1524   78.6272  223.2425 H   0  0  0  0  0  0  0  0  0  0  0  0
  142.3848   78.7225  221.5589 H   0  0  0  0  0  0  0  0  0  0  0  0
  143.4398   80.7557  223.0858 H   0  0  0  0  0  0  0  0  0  0  0  0
  142.4285   80.7843  221.5299 H   0  0  0  0  0  0  0  0  0  0  0  0
  141.8220   81.6663  224.2124 H   0  0  0  0  0  0  0  0  0  0  0  0
  141.1595   82.0959  222.5429 H   0  0  0  0  0  0  0  0  0  0  0  0
  140.1332   80.2697  224.5976 H   0  0  0  0  0  0  0  0  0  0  0  0
  139.3075   81.2518  223.3132 H   0  0  0  0  0  0  0  0  0  0  0  0
  140.1820   79.6280  221.7110 H   0  0  0  0  0  0  0  0  0  0  0  0
  144.4903   72.5339  221.9505 H   0  0  0  0  0  0  0  0  0  0  0  0
  144.0798   71.6065  220.4513 H   0  0  0  0  0  0  0  0  0  0  0  0
  146.0966   73.8600  220.7081 H   0  0  0  0  0  0  0  0  0  0  0  0
  146.4308   72.0873  220.4943 H   0  0  0  0  0  0  0  0  0  0  0  0
  146.4490   73.7600  218.5740 H   0  0  0  0  0  0  0  0  0  0  0  0
  144.6613   74.3034  217.5068 H   0  0  0  0  0  0  0  0  0  0  0  0
  143.7560   72.8491  218.1329 H   0  0  0  0  0  0  0  0  0  0  0  0
  144.4848   75.2694  219.8331 H   0  0  0  0  0  0  0  0  0  0  0  0
  142.9158   75.0686  219.0483 H   0  0  0  0  0  0  0  0  0  0  0  0
  141.0456   72.1292  225.1247 H   0  0  0  0  0  0  0  0  0  0  0  0
  139.2461   72.0182  225.1832 H   0  0  0  0  0  0  0  0  0  0  0  0
  1  2  2  0
  2  3  1  0
  3  4  2  0
  4  5  1  0
  5  6  2  0
  5  7  1  0
  7  8  1  0
  8  9  1  0
  9 10  1  0
 10 11  2  0
 11 12  1  0
 12 13  1  0
 13 14  1  0
 14 15  1  0
 15 16  1  0
 16 17  1  0
 17 18  1  0
 18 19  1  0
 19 20  1  0
 20 21  1  0
 12 22  2  0
 22 23  1  0
 23 24  1  0
 24 25  1  0
 25 26  1  0
 26 27  1  0
 27 28  1  0
 28 29  1  0
 23 30  2  0
  9 31  1  0
  6  1  1  0
 30 10  1  0
 31  4  1  0
 21 16  1  0
 29 24  1  0
  1 32  1  0
  2 33  1  0
  3 34  1  0
  6 35  1  0
  7 36  1  0
  7 37  1  0
  8 38  1  0
  8 39  1  0
 13 40  1  0
 14 41  1  0
 14 42  1  0
 15 43  1  0
 15 44  1  0
 16 45  1  1
 17 46  1  0
 17 47  1  0
 18 48  1  0
 18 49  1  0
 19 50  1  0
 19 51  1  0
 20 52  1  0
 20 53  1  0
 21 54  1  0
 25 55  1  0
 25 56  1  0
 26 57  1  0
 26 58  1  0
 27 59  1  0
 28 60  1  0
 28 61  1  0
 29 62  1  0
 29 63  1  0
 31 64  1  0
 31 65  1  0
M  END
>  <smiles>  (68) 
c1ccc2c(c1)CCN(c1nc(NCCC3CCCCN3)nc(N3CCNCC3)n1)C2

>  <score_type>  (68) 
oracle

>  <origin>  (68) 
autodockgpu

>  <m_score__min__energy>  (68) 
-10.109999999999999

>  <m_primary>  (68) 
energy

>  <rmsd>  (68) 
11.04800401812851

>  <m_score__min__rmsd>  (68) 
11.04800401812851

>  <meeko>  (68) 
{"free_energy": -9.6, "intermolecular_energy": -11.39, "internal_energy": -0.85, "cluster_size": 24, "cluster_id": 1, "rank_in_cluster": 8}

>  <energy>  (68) 
-8.65

>  <cluster_rmsd>  (68) 
0.87

>  <cluster>  (68) 
1

$$$$

     RDKit          3D

 65 69  0  0  0  0  0  0  0  0999 V2000
  138.8350   80.6140  224.0560 C   0  0  0  0  0  0  0  0  0  0  0  0
  140.1950   80.6520  223.7900 C   0  0  0  0  0  0  0  0  0  0  0  0
  140.7930   79.6990  222.9770 C   0  0  0  0  0  0  0  0  0  0  0  0
  140.0130   78.6940  222.4230 C   0  0  0  0  0  0  0  0  0  0  0  0
  138.6620   78.6780  222.7030 C   0  0  0  0  0  0  0  0  0  0  0  0
  138.0570   79.6150  223.5070 C   0  0  0  0  0  0  0  0  0  0  0  0
  137.8840   77.5550  222.0650 C   0  0  0  0  0  0  0  0  0  0  0  0
  138.6540   76.2940  222.4360 C   0  0  0  0  0  0  0  0  0  0  0  0
  139.9990   76.3360  221.8570 N   0  0  0  0  0  0  0  0  0  0  0  0
  140.6520   75.1150  221.6380 C   0  0  0  0  0  0  0  0  0  0  0  0
  140.0460   73.9770  222.0440 N   0  0  0  0  0  0  0  0  0  0  0  0
  140.6020   72.7490  221.8700 C   0  0  0  0  0  0  0  0  0  0  0  0
  139.8580   71.6370  222.3400 N   0  0  0  0  0  0  0  0  0  0  0  0
  139.4720   71.4980  223.7480 C   0  0  0  0  0  0  0  0  0  0  0  0
  139.9650   70.1480  224.2220 C   0  0  0  0  0  0  0  0  0  0  0  0
  140.6820   70.2650  225.5700 C   0  0  1  0  0  0  0  0  0  0  0  0
  140.9930   71.6920  225.8640 C   0  0  0  0  0  0  0  0  0  0  0  0
  141.0810   72.0740  227.2960 C   0  0  0  0  0  0  0  0  0  0  0  0
  141.0390   70.9770  228.2930 C   0  0  0  0  0  0  0  0  0  0  0  0
  140.5370   69.6540  227.7940 C   0  0  0  0  0  0  0  0  0  0  0  0
  139.7450   69.7920  226.5750 N   0  0  0  0  0  0  0  0  0  0  0  0
  141.7970   72.6560  221.2770 N   0  0  0  0  0  0  0  0  0  0  0  0
  142.4360   73.7880  220.8540 C   0  0  0  0  0  0  0  0  0  0  0  0
  143.7150   73.7380  220.2380 N   0  0  0  0  0  0  0  0  0  0  0  0
  144.8370   73.0280  220.8480 C   0  0  0  0  0  0  0  0  0  0  0  0
  146.1350   73.3660  220.1650 C   0  0  0  0  0  0  0  0  0  0  0  0
  146.0920   73.0880  218.7420 N   0  0  0  0  0  0  0  0  0  0  0  0
  144.7910   73.3600  218.1630 C   0  0  0  0  0  0  0  0  0  0  0  0
  143.9910   74.3790  218.9520 C   0  0  0  0  0  0  0  0  0  0  0  0
  141.8630   75.0030  221.0370 N   0  0  0  0  0  0  0  0  0  0  0  0
  140.5850   77.6350  221.5420 C   0  0  0  0  0  0  0  0  0  0  0  0
  138.3775   81.3775  224.7024 H   0  0  0  0  0  0  0  0  0  0  0  0
  140.8103   81.4504  224.2304 H   0  0  0  0  0  0  0  0  0  0  0  0
  141.8734   79.7400  222.7742 H   0  0  0  0  0  0  0  0  0  0  0  0
  136.9765   79.5694  223.7083 H   0  0  0  0  0  0  0  0  0  0  0  0
  136.8599   77.5162  222.4646 H   0  0  0  0  0  0  0  0  0  0  0  0
  137.7884   77.6800  220.9763 H   0  0  0  0  0  0  0  0  0  0  0  0
  138.7315   76.2241  223.5310 H   0  0  0  0  0  0  0  0  0  0  0  0
  138.1197   75.4171  222.0415 H   0  0  0  0  0  0  0  0  0  0  0  0
  139.5980   70.9180  221.6190 H   0  0  0  0  0  0  0  0  0  0  0  0
  139.9343   72.2978  224.3452 H   0  0  0  0  0  0  0  0  0  0  0  0
  138.3804   71.5739  223.8605 H   0  0  0  0  0  0  0  0  0  0  0  0
  139.1060   69.4694  224.3297 H   0  0  0  0  0  0  0  0  0  0  0  0
  140.6768   69.7560  223.4806 H   0  0  0  0  0  0  0  0  0  0  0  0
  141.6190   69.6889  225.5611 H   0  0  0  0  0  0  0  0  0  0  0  0
  141.9611   71.9252  225.3967 H   0  0  0  0  0  0  0  0  0  0  0  0
  140.1409   72.2617  225.4647 H   0  0  0  0  0  0  0  0  0  0  0  0
  142.0292   72.6135  227.4371 H   0  0  0  0  0  0  0  0  0  0  0  0
  140.1746   72.6669  227.4879 H   0  0  0  0  0  0  0  0  0  0  0  0
  142.0606   70.8279  228.6727 H   0  0  0  0  0  0  0  0  0  0  0  0
  140.3171   71.2988  229.0581 H   0  0  0  0  0  0  0  0  0  0  0  0
  141.3990   69.0032  227.5853 H   0  0  0  0  0  0  0  0  0  0  0  0
  139.8900   69.2218  228.5715 H   0  0  0  0  0  0  0  0  0  0  0  0
  139.0350   70.5460  226.7060 H   0  0  0  0  0  0  0  0  0  0  0  0
  144.9060   73.3111  221.9087 H   0  0  0  0  0  0  0  0  0  0  0  0
  144.6614   71.9471  220.7441 H   0  0  0  0  0  0  0  0  0  0  0  0
  146.3444   74.4359  220.3111 H   0  0  0  0  0  0  0  0  0  0  0  0
  146.9237   72.7404  220.6084 H   0  0  0  0  0  0  0  0  0  0  0  0
  146.7560   73.7800  218.2900 H   0  0  0  0  0  0  0  0  0  0  0  0
  144.9351   73.7425  217.1417 H   0  0  0  0  0  0  0  0  0  0  0  0
  144.2235   72.4177  218.1730 H   0  0  0  0  0  0  0  0  0  0  0  0
  144.5755   75.2994  219.0974 H   0  0  0  0  0  0  0  0  0  0  0  0
  143.0669   74.6690  218.4306 H   0  0  0  0  0  0  0  0  0  0  0  0
  141.6735   77.5873  221.6933 H   0  0  0  0  0  0  0  0  0  0  0  0
  140.3581   77.8829  220.4946 H   0  0  0  0  0  0  0  0  0  0  0  0
  1  2  2  0
  2  3  1  0
  3  4  2  0
  4  5  1  0
  5  6  2  0
  5  7  1  0
  7  8  1  0
  8  9  1  0
  9 10  1  0
 10 11  2  0
 11 12  1  0
 12 13  1  0
 13 14  1  0
 14 15  1  0
 15 16  1  0
 16 17  1  0
 17 18  1  0
 18 19  1  0
 19 20  1  0
 20 21  1  0
 12 22  2  0
 22 23  1  0
 23 24  1  0
 24 25  1  0
 25 26  1  0
 26 27  1  0
 27 28  1  0
 28 29  1  0
 23 30  2  0
  9 31  1  0
  6  1  1  0
 30 10  1  0
 31  4  1  0
 21 16  1  0
 29 24  1  0
  1 32  1  0
  2 33  1  0
  3 34  1  0
  6 35  1  0
  7 36  1  0
  7 37  1  0
  8 38  1  0
  8 39  1  0
 13 40  1  0
 14 41  1  0
 14 42  1  0
 15 43  1  0
 15 44  1  0
 16 45  1  6
 17 46  1  0
 17 47  1  0
 18 48  1  0
 18 49  1  0
 19 50  1  0
 19 51  1  0
 20 52  1  0
 20 53  1  0
 21 54  1  0
 25 55  1  0
 25 56  1  0
 26 57  1  0
 26 58  1  0
 27 59  1  0
 28 60  1  0
 28 61  1  0
 29 62  1  0
 29 63  1  0
 31 64  1  0
 31 65  1  0
M  END
>  <smiles>  (69) 
c1ccc2c(c1)CCN(c1nc(NCCC3CCCCN3)nc(N3CCNCC3)n1)C2

>  <score_type>  (69) 
oracle

>  <origin>  (69) 
autodockgpu

>  <m_score__min__energy>  (69) 
-10.109999999999999

>  <m_primary>  (69) 
energy

>  <rmsd>  (69) 
5.264196103632687

>  <m_score__min__rmsd>  (69) 
5.264196103632687

>  <meeko>  (69) 
{"free_energy": -9.64, "intermolecular_energy": -11.43, "internal_energy": -0.88, "cluster_size": 26, "cluster_id": 2, "rank_in_cluster": 5}

>  <energy>  (69) 
-8.64

>  <cluster_rmsd>  (69) 
1.09

>  <cluster>  (69) 
1

$$$$

     RDKit          3D

 65 69  0  0  0  0  0  0  0  0999 V2000
  137.6220   80.7260  222.1080 C   0  0  0  0  0  0  0  0  0  0  0  0
  136.7240   79.7070  221.8350 C   0  0  0  0  0  0  0  0  0  0  0  0
  137.0700   78.3770  222.0260 C   0  0  0  0  0  0  0  0  0  0  0  0
  138.3380   78.0670  222.4990 C   0  0  0  0  0  0  0  0  0  0  0  0
  139.2130   79.1000  222.7630 C   0  0  0  0  0  0  0  0  0  0  0  0
  138.8840   80.4210  222.5770 C   0  0  0  0  0  0  0  0  0  0  0  0
  140.5700   78.6800  223.2720 C   0  0  0  0  0  0  0  0  0  0  0  0
  141.0530   77.6400  222.2700 C   0  0  0  0  0  0  0  0  0  0  0  0
  140.1580   76.4800  222.2770 N   0  0  0  0  0  0  0  0  0  0  0  0
  140.6810   75.2530  221.8480 C   0  0  0  0  0  0  0  0  0  0  0  0
  139.9520   74.1330  222.0550 N   0  0  0  0  0  0  0  0  0  0  0  0
  140.3770   72.9010  221.6690 C   0  0  0  0  0  0  0  0  0  0  0  0
  139.5130   71.8110  221.9460 N   0  0  0  0  0  0  0  0  0  0  0  0
  139.6590   70.9880  223.1500 C   0  0  0  0  0  0  0  0  0  0  0  0
  140.3670   71.8270  224.1900 C   0  0  0  0  0  0  0  0  0  0  0  0
  140.8090   70.9730  225.3810 C   0  0  1  0  0  0  0  0  0  0  0  0
  141.0760   71.8400  226.5640 C   0  0  0  0  0  0  0  0  0  0  0  0
  140.8890   71.2220  227.9000 C   0  0  0  0  0  0  0  0  0  0  0  0
  140.6390   69.7600  227.9400 C   0  0  0  0  0  0  0  0  0  0  0  0
  140.2270   69.1270  226.6440 C   0  0  0  0  0  0  0  0  0  0  0  0
  139.6890   70.1060  225.7020 N   0  0  0  0  0  0  0  0  0  0  0  0
  141.5630   72.7840  221.0620 N   0  0  0  0  0  0  0  0  0  0  0  0
  142.3240   73.8970  220.8370 C   0  0  0  0  0  0  0  0  0  0  0  0
  143.5980   73.8170  220.2130 N   0  0  0  0  0  0  0  0  0  0  0  0
  144.7090   73.0900  220.8230 C   0  0  0  0  0  0  0  0  0  0  0  0
  146.0090   73.3980  220.1300 C   0  0  0  0  0  0  0  0  0  0  0  0
  145.9520   73.1100  218.7090 N   0  0  0  0  0  0  0  0  0  0  0  0
  144.6540   73.4030  218.1360 C   0  0  0  0  0  0  0  0  0  0  0  0
  143.8790   74.4430  218.9210 C   0  0  0  0  0  0  0  0  0  0  0  0
  141.8810   75.1160  221.2290 N   0  0  0  0  0  0  0  0  0  0  0  0
  138.7820   76.6610  222.7270 C   0  0  0  0  0  0  0  0  0  0  0  0
  137.3303   81.7750  221.9515 H   0  0  0  0  0  0  0  0  0  0  0  0
  135.7202   79.9564  221.4607 H   0  0  0  0  0  0  0  0  0  0  0  0
  136.3478   77.5772  221.8052 H   0  0  0  0  0  0  0  0  0  0  0  0
  139.6099   81.2177  222.7969 H   0  0  0  0  0  0  0  0  0  0  0  0
  141.2565   79.5390  223.3010 H   0  0  0  0  0  0  0  0  0  0  0  0
  140.5257   78.2821  224.2966 H   0  0  0  0  0  0  0  0  0  0  0  0
  141.0661   78.0833  221.2634 H   0  0  0  0  0  0  0  0  0  0  0  0
  142.0660   77.3146  222.5491 H   0  0  0  0  0  0  0  0  0  0  0  0
  138.7600   71.6280  221.2360 H   0  0  0  0  0  0  0  0  0  0  0  0
  138.6685   70.6864  223.5213 H   0  0  0  0  0  0  0  0  0  0  0  0
  140.2345   70.0769  222.9294 H   0  0  0  0  0  0  0  0  0  0  0  0
  141.2530   72.2924  223.7335 H   0  0  0  0  0  0  0  0  0  0  0  0
  139.6689   72.5961  224.5521 H   0  0  0  0  0  0  0  0  0  0  0  0
  141.7221   70.4107  225.1358 H   0  0  0  0  0  0  0  0  0  0  0  0
  142.1196   72.1815  226.4980 H   0  0  0  0  0  0  0  0  0  0  0  0
  140.3253   72.6421  226.5093 H   0  0  0  0  0  0  0  0  0  0  0  0
  141.7988   71.4187  228.4862 H   0  0  0  0  0  0  0  0  0  0  0  0
  139.9709   71.6784  228.2984 H   0  0  0  0  0  0  0  0  0  0  0  0
  141.5649   69.2694  228.2747 H   0  0  0  0  0  0  0  0  0  0  0  0
  139.7857   69.6239  228.6207 H   0  0  0  0  0  0  0  0  0  0  0  0
  141.1047   68.6432  226.1905 H   0  0  0  0  0  0  0  0  0  0  0  0
  139.4357   68.3943  226.8608 H   0  0  0  0  0  0  0  0  0  0  0  0
  138.9770   70.6970  226.1860 H   0  0  0  0  0  0  0  0  0  0  0  0
  144.7893   73.3800  221.8811 H   0  0  0  0  0  0  0  0  0  0  0  0
  144.5121   72.0118  220.7293 H   0  0  0  0  0  0  0  0  0  0  0  0
  146.2397   74.4648  220.2667 H   0  0  0  0  0  0  0  0  0  0  0  0
  146.7884   72.7610  220.5736 H   0  0  0  0  0  0  0  0  0  0  0  0
  146.6270   73.7850  218.2480 H   0  0  0  0  0  0  0  0  0  0  0  0
  144.7995   73.7747  217.1110 H   0  0  0  0  0  0  0  0  0  0  0  0
  144.0683   72.4722  218.1570 H   0  0  0  0  0  0  0  0  0  0  0  0
  144.4822   75.3529  219.0562 H   0  0  0  0  0  0  0  0  0  0  0  0
  142.9579   74.7475  218.4025 H   0  0  0  0  0  0  0  0  0  0  0  0
  138.1254   75.9788  222.1671 H   0  0  0  0  0  0  0  0  0  0  0  0
  138.7281   76.4412  223.8035 H   0  0  0  0  0  0  0  0  0  0  0  0
  1  2  2  0
  2  3  1  0
  3  4  2  0
  4  5  1  0
  5  6  2  0
  5  7  1  0
  7  8  1  0
  8  9  1  0
  9 10  1  0
 10 11  2  0
 11 12  1  0
 12 13  1  0
 13 14  1  0
 14 15  1  0
 15 16  1  0
 16 17  1  0
 17 18  1  0
 18 19  1  0
 19 20  1  0
 20 21  1  0
 12 22  2  0
 22 23  1  0
 23 24  1  0
 24 25  1  0
 25 26  1  0
 26 27  1  0
 27 28  1  0
 28 29  1  0
 23 30  2  0
  9 31  1  0
  6  1  1  0
 30 10  1  0
 31  4  1  0
 21 16  1  0
 29 24  1  0
  1 32  1  0
  2 33  1  0
  3 34  1  0
  6 35  1  0
  7 36  1  0
  7 37  1  0
  8 38  1  0
  8 39  1  0
 13 40  1  0
 14 41  1  0
 14 42  1  0
 15 43  1  0
 15 44  1  0
 16 45  1  6
 17 46  1  0
 17 47  1  0
 18 48  1  0
 18 49  1  0
 19 50  1  0
 19 51  1  0
 20 52  1  0
 20 53  1  0
 21 54  1  0
 25 55  1  0
 25 56  1  0
 26 57  1  0
 26 58  1  0
 27 59  1  0
 28 60  1  0
 28 61  1  0
 29 62  1  0
 29 63  1  0
 31 64  1  0
 31 65  1  0
M  END
>  <smiles>  (70) 
c1ccc2c(c1)CCN(c1nc(NCCC3CCCCN3)nc(N3CCNCC3)n1)C2

>  <score_type>  (70) 
oracle

>  <origin>  (70) 
autodockgpu

>  <m_score__min__energy>  (70) 
-10.109999999999999

>  <m_primary>  (70) 
energy

>  <rmsd>  (70) 
5.4745464978947815

>  <m_score__min__rmsd>  (70) 
5.4745464978947815

>  <meeko>  (70) 
{"free_energy": -9.0, "intermolecular_energy": -10.79, "internal_energy": -0.9, "cluster_size": 26, "cluster_id": 2, "rank_in_cluster": 22}

>  <energy>  (70) 
-8.55

>  <cluster_rmsd>  (70) 
0.91

>  <cluster>  (70) 
1

$$$$

     RDKit          3D

 65 69  0  0  0  0  0  0  0  0999 V2000
  140.4030   67.5430  226.5330 C   0  0  0  0  0  0  0  0  0  0  0  0
  141.1380   68.5790  227.0870 C   0  0  0  0  0  0  0  0  0  0  0  0
  141.0560   69.8680  226.5790 C   0  0  0  0  0  0  0  0  0  0  0  0
  140.2240   70.1190  225.4970 C   0  0  0  0  0  0  0  0  0  0  0  0
  139.5030   69.0710  224.9630 C   0  0  0  0  0  0  0  0  0  0  0  0
  139.5750   67.7900  225.4570 C   0  0  0  0  0  0  0  0  0  0  0  0
  138.6230   69.4250  223.7910 C   0  0  0  0  0  0  0  0  0  0  0  0
  139.5450   70.1570  222.8240 C   0  0  0  0  0  0  0  0  0  0  0  0
  140.0440   71.3900  223.4400 N   0  0  0  0  0  0  0  0  0  0  0  0
  140.4550   72.4230  222.5870 C   0  0  0  0  0  0  0  0  0  0  0  0
  139.6040   73.4480  222.3580 N   0  0  0  0  0  0  0  0  0  0  0  0
  139.9190   74.4940  221.5490 C   0  0  0  0  0  0  0  0  0  0  0  0
  138.9350   75.5040  221.3970 N   0  0  0  0  0  0  0  0  0  0  0  0
  139.2750   76.9290  221.4050 C   0  0  0  0  0  0  0  0  0  0  0  0
  140.4010   77.1220  222.3980 C   0  0  0  0  0  0  0  0  0  0  0  0
  140.8170   78.5920  222.4820 C   0  0  1  0  0  0  0  0  0  0  0  0
  141.4480   78.8720  223.8030 C   0  0  0  0  0  0  0  0  0  0  0  0
  142.4420   79.9730  223.8480 C   0  0  0  0  0  0  0  0  0  0  0  0
  142.5790   80.8110  222.6310 C   0  0  0  0  0  0  0  0  0  0  0  0
  141.9940   80.2430  221.3720 C   0  0  0  0  0  0  0  0  0  0  0  0
  141.8210   78.7950  221.4520 N   0  0  0  0  0  0  0  0  0  0  0  0
  141.1160   74.5160  220.9510 N   0  0  0  0  0  0  0  0  0  0  0  0
  141.9990   73.4940  221.1630 C   0  0  0  0  0  0  0  0  0  0  0  0
  143.2720   73.4660  220.5340 N   0  0  0  0  0  0  0  0  0  0  0  0
  144.2470   72.4130  220.8140 C   0  0  0  0  0  0  0  0  0  0  0  0
  145.6030   72.7620  220.2630 C   0  0  0  0  0  0  0  0  0  0  0  0
  145.5620   73.0290  218.8380 N   0  0  0  0  0  0  0  0  0  0  0  0
  144.3410   73.6970  218.4340 C   0  0  0  0  0  0  0  0  0  0  0  0
  143.6890   74.4750  219.5600 C   0  0  0  0  0  0  0  0  0  0  0  0
  141.6660   72.4610  221.9750 N   0  0  0  0  0  0  0  0  0  0  0  0
  140.0860   71.4770  224.8960 C   0  0  0  0  0  0  0  0  0  0  0  0
  140.4793   66.5277  226.9493 H   0  0  0  0  0  0  0  0  0  0  0  0
  141.7975   68.3763  227.9438 H   0  0  0  0  0  0  0  0  0  0  0  0
  141.6439   70.6816  227.0290 H   0  0  0  0  0  0  0  0  0  0  0  0
  138.9852   66.9793  225.0043 H   0  0  0  0  0  0  0  0  0  0  0  0
  138.2137   68.5167  223.3247 H   0  0  0  0  0  0  0  0  0  0  0  0
  137.7596   70.0382  224.0884 H   0  0  0  0  0  0  0  0  0  0  0  0
  140.3954   69.5073  222.5697 H   0  0  0  0  0  0  0  0  0  0  0  0
  138.9830   70.4113  221.9132 H   0  0  0  0  0  0  0  0  0  0  0  0
  137.9460   75.1690  221.2770 H   0  0  0  0  0  0  0  0  0  0  0  0
  139.6004   77.2432  220.4023 H   0  0  0  0  0  0  0  0  0  0  0  0
  138.4011   77.5344  221.6874 H   0  0  0  0  0  0  0  0  0  0  0  0
  140.0659   76.7864  223.3905 H   0  0  0  0  0  0  0  0  0  0  0  0
  141.2671   76.5330  222.0621 H   0  0  0  0  0  0  0  0  0  0  0  0
  139.9435   79.2484  222.3552 H   0  0  0  0  0  0  0  0  0  0  0  0
  140.6433   79.1206  224.5105 H   0  0  0  0  0  0  0  0  0  0  0  0
  142.0139   77.9620  224.0512 H   0  0  0  0  0  0  0  0  0  0  0  0
  142.1623   80.6380  224.6784 H   0  0  0  0  0  0  0  0  0  0  0  0
  143.4153   79.4729  223.9599 H   0  0  0  0  0  0  0  0  0  0  0  0
  142.0840   81.7734  222.8277 H   0  0  0  0  0  0  0  0  0  0  0  0
  143.6604   80.8904  222.4459 H   0  0  0  0  0  0  0  0  0  0  0  0
  141.0131   80.7083  221.1951 H   0  0  0  0  0  0  0  0  0  0  0  0
  142.6909   80.4562  220.5480 H   0  0  0  0  0  0  0  0  0  0  0  0
  142.7040   78.3590  221.8000 H   0  0  0  0  0  0  0  0  0  0  0  0
  144.3265   72.2788  221.9029 H   0  0  0  0  0  0  0  0  0  0  0  0
  143.9045   71.4858  220.3312 H   0  0  0  0  0  0  0  0  0  0  0  0
  145.9762   73.6578  220.7809 H   0  0  0  0  0  0  0  0  0  0  0  0
  146.2666   71.9001  220.4266 H   0  0  0  0  0  0  0  0  0  0  0  0
  146.3420   73.7210  218.6480 H   0  0  0  0  0  0  0  0  0  0  0  0
  144.5774   74.3948  217.6172 H   0  0  0  0  0  0  0  0  0  0  0  0
  143.6303   72.9191  218.1180 H   0  0  0  0  0  0  0  0  0  0  0  0
  144.4080   75.1737  220.0126 H   0  0  0  0  0  0  0  0  0  0  0  0
  142.8404   75.0781  219.2047 H   0  0  0  0  0  0  0  0  0  0  0  0
  140.9448   72.0950  225.1970 H   0  0  0  0  0  0  0  0  0  0  0  0
  139.1491   71.9300  225.2523 H   0  0  0  0  0  0  0  0  0  0  0  0
  1  2  2  0
  2  3  1  0
  3  4  2  0
  4  5  1  0
  5  6  2  0
  5  7  1  0
  7  8  1  0
  8  9  1  0
  9 10  1  0
 10 11  2  0
 11 12  1  0
 12 13  1  0
 13 14  1  0
 14 15  1  0
 15 16  1  0
 16 17  1  0
 17 18  1  0
 18 19  1  0
 19 20  1  0
 20 21  1  0
 12 22  2  0
 22 23  1  0
 23 24  1  0
 24 25  1  0
 25 26  1  0
 26 27  1  0
 27 28  1  0
 28 29  1  0
 23 30  2  0
  9 31  1  0
  6  1  1  0
 30 10  1  0
 31  4  1  0
 21 16  1  0
 29 24  1  0
  1 32  1  0
  2 33  1  0
  3 34  1  0
  6 35  1  0
  7 36  1  0
  7 37  1  0
  8 38  1  0
  8 39  1  0
 13 40  1  0
 14 41  1  0
 14 42  1  0
 15 43  1  0
 15 44  1  0
 16 45  1  6
 17 46  1  0
 17 47  1  0
 18 48  1  0
 18 49  1  0
 19 50  1  0
 19 51  1  0
 20 52  1  0
 20 53  1  0
 21 54  1  0
 25 55  1  0
 25 56  1  0
 26 57  1  0
 26 58  1  0
 27 59  1  0
 28 60  1  0
 28 61  1  0
 29 62  1  0
 29 63  1  0
 31 64  1  0
 31 65  1  0
M  END
>  <smiles>  (71) 
c1ccc2c(c1)CCN(c1nc(NCCC3CCCCN3)nc(N3CCNCC3)n1)C2

>  <score_type>  (71) 
oracle

>  <origin>  (71) 
autodockgpu

>  <m_score__min__energy>  (71) 
-10.109999999999999

>  <m_primary>  (71) 
energy

>  <rmsd>  (71) 
11.169714806089726

>  <m_score__min__rmsd>  (71) 
11.169714806089726

>  <meeko>  (71) 
{"free_energy": -10.1, "intermolecular_energy": -11.89, "internal_energy": -0.88, "cluster_size": 24, "cluster_id": 1, "rank_in_cluster": 2}

>  <energy>  (71) 
-8.53

>  <cluster_rmsd>  (71) 
1.26

>  <cluster>  (71) 
1

$$$$

     RDKit          3D

 65 69  0  0  0  0  0  0  0  0999 V2000
  139.9340   67.4310  225.7450 C   0  0  0  0  0  0  0  0  0  0  0  0
  140.6660   68.3580  226.4700 C   0  0  0  0  0  0  0  0  0  0  0  0
  140.6920   69.6960  226.1020 C   0  0  0  0  0  0  0  0  0  0  0  0
  139.9730   70.1080  224.9890 C   0  0  0  0  0  0  0  0  0  0  0  0
  139.2520   69.1650  224.2840 C   0  0  0  0  0  0  0  0  0  0  0  0
  139.2180   67.8380  224.6370 C   0  0  0  0  0  0  0  0  0  0  0  0
  138.4990   69.6920  223.0890 C   0  0  0  0  0  0  0  0  0  0  0  0
  139.5370   70.4680  222.2890 C   0  0  0  0  0  0  0  0  0  0  0  0
  140.0380   71.5980  223.0760 N   0  0  0  0  0  0  0  0  0  0  0  0
  140.5730   72.6900  222.3800 C   0  0  0  0  0  0  0  0  0  0  0  0
  139.8570   73.8340  222.3250 N   0  0  0  0  0  0  0  0  0  0  0  0
  140.2980   74.9440  221.6760 C   0  0  0  0  0  0  0  0  0  0  0  0
  139.4470   76.0790  221.6980 N   0  0  0  0  0  0  0  0  0  0  0  0
  139.5970   77.1830  220.7460 C   0  0  0  0  0  0  0  0  0  0  0  0
  141.0030   77.7220  220.8940 C   0  0  0  0  0  0  0  0  0  0  0  0
  141.0360   78.9290  221.8350 C   0  0  1  0  0  0  0  0  0  0  0  0
  141.4380   78.5020  223.2040 C   0  0  0  0  0  0  0  0  0  0  0  0
  142.1220   79.5160  224.0450 C   0  0  0  0  0  0  0  0  0  0  0  0
  142.1760   80.9030  223.5230 C   0  0  0  0  0  0  0  0  0  0  0  0
  141.8820   81.0680  222.0620 C   0  0  0  0  0  0  0  0  0  0  0  0
  142.0610   79.8210  221.3220 N   0  0  0  0  0  0  0  0  0  0  0  0
  141.4860   74.9090  221.0630 N   0  0  0  0  0  0  0  0  0  0  0  0
  142.2360   73.7660  221.1000 C   0  0  0  0  0  0  0  0  0  0  0  0
  143.4940   73.6770  220.4470 N   0  0  0  0  0  0  0  0  0  0  0  0
  144.5050   72.7030  220.8520 C   0  0  0  0  0  0  0  0  0  0  0  0
  145.8370   73.0000  220.2180 C   0  0  0  0  0  0  0  0  0  0  0  0
  145.7540   73.0510  218.7710 N   0  0  0  0  0  0  0  0  0  0  0  0
  144.5050   73.6210  218.3070 C   0  0  0  0  0  0  0  0  0  0  0  0
  143.8580   74.5410  219.3240 C   0  0  0  0  0  0  0  0  0  0  0  0
  141.7780   72.6710  221.7540 N   0  0  0  0  0  0  0  0  0  0  0  0
  139.9550   71.5280  224.5320 C   0  0  0  0  0  0  0  0  0  0  0  0
  139.9236   66.3746  226.0513 H   0  0  0  0  0  0  0  0  0  0  0  0
  141.2356   68.0280  227.3513 H   0  0  0  0  0  0  0  0  0  0  0  0
  141.2763   70.4220  226.6864 H   0  0  0  0  0  0  0  0  0  0  0  0
  138.6329   67.1151  224.0495 H   0  0  0  0  0  0  0  0  0  0  0  0
  138.0894   68.8635  222.4924 H   0  0  0  0  0  0  0  0  0  0  0  0
  137.6436   70.3195  223.3798 H   0  0  0  0  0  0  0  0  0  0  0  0
  140.3744   69.8011  222.0361 H   0  0  0  0  0  0  0  0  0  0  0  0
  139.0707   70.8491  221.3685 H   0  0  0  0  0  0  0  0  0  0  0  0
  138.7010   76.0810  222.4390 H   0  0  0  0  0  0  0  0  0  0  0  0
  139.4404   76.8184  219.7201 H   0  0  0  0  0  0  0  0  0  0  0  0
  138.8564   77.9712  220.9464 H   0  0  0  0  0  0  0  0  0  0  0  0
  141.6496   76.9311  221.3019 H   0  0  0  0  0  0  0  0  0  0  0  0
  141.3598   78.0419  219.9039 H   0  0  0  0  0  0  0  0  0  0  0  0
  140.0466   79.4071  221.8855 H   0  0  0  0  0  0  0  0  0  0  0  0
  140.5279   78.1872  223.7356 H   0  0  0  0  0  0  0  0  0  0  0  0
  142.1803   77.7047  223.0516 H   0  0  0  0  0  0  0  0  0  0  0  0
  141.6029   79.5470  225.0143 H   0  0  0  0  0  0  0  0  0  0  0  0
  143.1710   79.1879  224.0887 H   0  0  0  0  0  0  0  0  0  0  0  0
  141.4432   81.5021  224.0834 H   0  0  0  0  0  0  0  0  0  0  0  0
  143.2185   81.2285  223.6540 H   0  0  0  0  0  0  0  0  0  0  0  0
  140.8410   81.4037  221.9452 H   0  0  0  0  0  0  0  0  0  0  0  0
  142.5874   81.8078  221.6556 H   0  0  0  0  0  0  0  0  0  0  0  0
  142.9830   79.3990  221.5730 H   0  0  0  0  0  0  0  0  0  0  0  0
  144.6143   72.7342  221.9461 H   0  0  0  0  0  0  0  0  0  0  0  0
  144.1782   71.7061  220.5212 H   0  0  0  0  0  0  0  0  0  0  0  0
  146.1965   73.9719  220.5870 H   0  0  0  0  0  0  0  0  0  0  0  0
  146.5291   72.1890  220.4889 H   0  0  0  0  0  0  0  0  0  0  0  0
  146.5090   73.7270  218.4590 H   0  0  0  0  0  0  0  0  0  0  0  0
  144.7016   74.1957  217.3899 H   0  0  0  0  0  0  0  0  0  0  0  0
  143.8097   72.7874  218.1290 H   0  0  0  0  0  0  0  0  0  0  0  0
  144.5672   75.3167  219.6484 H   0  0  0  0  0  0  0  0  0  0  0  0
  142.9842   75.0637  218.9078 H   0  0  0  0  0  0  0  0  0  0  0  0
  140.8128   72.0599  224.9694 H   0  0  0  0  0  0  0  0  0  0  0  0
  139.0134   71.9944  224.8574 H   0  0  0  0  0  0  0  0  0  0  0  0
  1  2  2  0
  2  3  1  0
  3  4  2  0
  4  5  1  0
  5  6  2  0
  5  7  1  0
  7  8  1  0
  8  9  1  0
  9 10  1  0
 10 11  2  0
 11 12  1  0
 12 13  1  0
 13 14  1  0
 14 15  1  0
 15 16  1  0
 16 17  1  0
 17 18  1  0
 18 19  1  0
 19 20  1  0
 20 21  1  0
 12 22  2  0
 22 23  1  0
 23 24  1  0
 24 25  1  0
 25 26  1  0
 26 27  1  0
 27 28  1  0
 28 29  1  0
 23 30  2  0
  9 31  1  0
  6  1  1  0
 30 10  1  0
 31  4  1  0
 21 16  1  0
 29 24  1  0
  1 32  1  0
  2 33  1  0
  3 34  1  0
  6 35  1  0
  7 36  1  0
  7 37  1  0
  8 38  1  0
  8 39  1  0
 13 40  1  0
 14 41  1  0
 14 42  1  0
 15 43  1  0
 15 44  1  0
 16 45  1  1
 17 46  1  0
 17 47  1  0
 18 48  1  0
 18 49  1  0
 19 50  1  0
 19 51  1  0
 20 52  1  0
 20 53  1  0
 21 54  1  0
 25 55  1  0
 25 56  1  0
 26 57  1  0
 26 58  1  0
 27 59  1  0
 28 60  1  0
 28 61  1  0
 29 62  1  0
 29 63  1  0
 31 64  1  0
 31 65  1  0
M  END
>  <smiles>  (72) 
c1ccc2c(c1)CCN(c1nc(NCCC3CCCCN3)nc(N3CCNCC3)n1)C2

>  <score_type>  (72) 
oracle

>  <origin>  (72) 
autodockgpu

>  <m_score__min__energy>  (72) 
-10.109999999999999

>  <m_primary>  (72) 
energy

>  <rmsd>  (72) 
10.885034804931443

>  <m_score__min__rmsd>  (72) 
10.885034804931443

>  <meeko>  (72) 
{"free_energy": -9.72, "intermolecular_energy": -11.51, "internal_energy": -0.86, "cluster_size": 24, "cluster_id": 1, "rank_in_cluster": 5}

>  <energy>  (72) 
-8.43

>  <cluster_rmsd>  (72) 
1.31

>  <cluster>  (72) 
1

$$$$

     RDKit          3D

 65 69  0  0  0  0  0  0  0  0999 V2000
  141.0500   80.8780  223.8410 C   0  0  0  0  0  0  0  0  0  0  0  0
  142.2880   80.5490  223.3130 C   0  0  0  0  0  0  0  0  0  0  0  0
  142.4410   79.4540  222.4740 C   0  0  0  0  0  0  0  0  0  0  0  0
  141.3330   78.6780  222.1620 C   0  0  0  0  0  0  0  0  0  0  0  0
  140.1120   79.0270  222.7010 C   0  0  0  0  0  0  0  0  0  0  0  0
  139.9460   80.1080  223.5330 C   0  0  0  0  0  0  0  0  0  0  0  0
  138.9590   78.1340  222.3160 C   0  0  0  0  0  0  0  0  0  0  0  0
  139.4430   76.7230  222.6250 C   0  0  0  0  0  0  0  0  0  0  0  0
  140.6030   76.3950  221.7930 N   0  0  0  0  0  0  0  0  0  0  0  0
  140.8640   75.0410  221.5450 C   0  0  0  0  0  0  0  0  0  0  0  0
  140.0040   74.1180  222.0310 N   0  0  0  0  0  0  0  0  0  0  0  0
  140.1750   72.7840  221.8370 C   0  0  0  0  0  0  0  0  0  0  0  0
  139.1960   71.9250  222.4000 N   0  0  0  0  0  0  0  0  0  0  0  0
  139.2420   71.5080  223.8040 C   0  0  0  0  0  0  0  0  0  0  0  0
  140.6950   71.5030  224.2290 C   0  0  0  0  0  0  0  0  0  0  0  0
  140.8740   70.7970  225.5750 C   0  0  1  0  0  0  0  0  0  0  0  0
  141.0360   71.8010  226.6640 C   0  0  0  0  0  0  0  0  0  0  0  0
  140.5950   71.3920  228.0200 C   0  0  0  0  0  0  0  0  0  0  0  0
  140.2110   69.9710  228.2080 C   0  0  0  0  0  0  0  0  0  0  0  0
  139.9440   69.1910  226.9540 C   0  0  0  0  0  0  0  0  0  0  0  0
  139.6450   70.0620  225.8200 N   0  0  0  0  0  0  0  0  0  0  0  0
  141.2350   72.3590  221.1390 N   0  0  0  0  0  0  0  0  0  0  0  0
  142.1230   73.2670  220.6340 C   0  0  0  0  0  0  0  0  0  0  0  0
  143.2720   72.8610  219.9050 N   0  0  0  0  0  0  0  0  0  0  0  0
  143.6250   73.4680  218.6230 C   0  0  0  0  0  0  0  0  0  0  0  0
  144.6940   72.6760  217.9190 C   0  0  0  0  0  0  0  0  0  0  0  0
  145.8840   72.5190  218.7350 N   0  0  0  0  0  0  0  0  0  0  0  0
  145.5750   72.3670  220.1420 C   0  0  0  0  0  0  0  0  0  0  0  0
  144.1810   71.8220  220.3890 C   0  0  0  0  0  0  0  0  0  0  0  0
  141.9330   74.5940  220.8380 N   0  0  0  0  0  0  0  0  0  0  0  0
  141.4200   77.4860  221.2700 C   0  0  0  0  0  0  0  0  0  0  0  0
  140.9469   81.7500  224.5036 H   0  0  0  0  0  0  0  0  0  0  0  0
  143.1639   81.1657  223.5628 H   0  0  0  0  0  0  0  0  0  0  0  0
  143.4293   79.2038  222.0608 H   0  0  0  0  0  0  0  0  0  0  0  0
  138.9560   80.3543  223.9443 H   0  0  0  0  0  0  0  0  0  0  0  0
  138.0654   78.3764  222.9099 H   0  0  0  0  0  0  0  0  0  0  0  0
  138.6737   78.2544  221.2605 H   0  0  0  0  0  0  0  0  0  0  0  0
  139.7267   76.6599  223.6859 H   0  0  0  0  0  0  0  0  0  0  0  0
  138.6333   76.0098  222.4109 H   0  0  0  0  0  0  0  0  0  0  0  0
  138.4350   71.6060  221.7500 H   0  0  0  0  0  0  0  0  0  0  0  0
  138.6714   72.2146  224.4247 H   0  0  0  0  0  0  0  0  0  0  0  0
  138.7987   70.5087  223.9264 H   0  0  0  0  0  0  0  0  0  0  0  0
  141.2903   70.9790  223.4667 H   0  0  0  0  0  0  0  0  0  0  0  0
  141.0314   72.5450  224.3341 H   0  0  0  0  0  0  0  0  0  0  0  0
  141.7595   70.1447  225.5543 H   0  0  0  0  0  0  0  0  0  0  0  0
  142.1040   72.0575  226.7243 H   0  0  0  0  0  0  0  0  0  0  0  0
  140.3770   72.6368  226.3862 H   0  0  0  0  0  0  0  0  0  0  0  0
  141.4200   71.6067  228.7152 H   0  0  0  0  0  0  0  0  0  0  0  0
  139.6719   71.9618  228.2020 H   0  0  0  0  0  0  0  0  0  0  0  0
  141.0277   69.4702  228.7485 H   0  0  0  0  0  0  0  0  0  0  0  0
  139.2563   69.9912  228.7540 H   0  0  0  0  0  0  0  0  0  0  0  0
  140.8329   68.5889  226.7144 H   0  0  0  0  0  0  0  0  0  0  0  0
  139.0663   68.5522  227.1320 H   0  0  0  0  0  0  0  0  0  0  0  0
  138.9240   70.7640  226.1020 H   0  0  0  0  0  0  0  0  0  0  0  0
  142.7291   73.5062  217.9858 H   0  0  0  0  0  0  0  0  0  0  0  0
  144.0110   74.4804  218.8127 H   0  0  0  0  0  0  0  0  0  0  0  0
  144.2958   71.6795  217.6771 H   0  0  0  0  0  0  0  0  0  0  0  0
  144.9776   73.2244  217.0086 H   0  0  0  0  0  0  0  0  0  0  0  0
  146.3220   71.6010  218.4370 H   0  0  0  0  0  0  0  0  0  0  0  0
  146.3053   71.6760  220.5883 H   0  0  0  0  0  0  0  0  0  0  0  0
  145.6222   73.3668  220.5983 H   0  0  0  0  0  0  0  0  0  0  0  0
  144.0285   70.8858  219.8319 H   0  0  0  0  0  0  0  0  0  0  0  0
  144.0123   71.5901  221.4510 H   0  0  0  0  0  0  0  0  0  0  0  0
  142.4675   77.1561  221.2079 H   0  0  0  0  0  0  0  0  0  0  0  0
  141.0491   77.7611  220.2716 H   0  0  0  0  0  0  0  0  0  0  0  0
  1  2  2  0
  2  3  1  0
  3  4  2  0
  4  5  1  0
  5  6  2  0
  5  7  1  0
  7  8  1  0
  8  9  1  0
  9 10  1  0
 10 11  2  0
 11 12  1  0
 12 13  1  0
 13 14  1  0
 14 15  1  0
 15 16  1  0
 16 17  1  0
 17 18  1  0
 18 19  1  0
 19 20  1  0
 20 21  1  0
 12 22  2  0
 22 23  1  0
 23 24  1  0
 24 25  1  0
 25 26  1  0
 26 27  1  0
 27 28  1  0
 28 29  1  0
 23 30  2  0
  9 31  1  0
  6  1  1  0
 30 10  1  0
 31  4  1  0
 21 16  1  0
 29 24  1  0
  1 32  1  0
  2 33  1  0
  3 34  1  0
  6 35  1  0
  7 36  1  0
  7 37  1  0
  8 38  1  0
  8 39  1  0
 13 40  1  0
 14 41  1  0
 14 42  1  0
 15 43  1  0
 15 44  1  0
 16 45  1  6
 17 46  1  0
 17 47  1  0
 18 48  1  0
 18 49  1  0
 19 50  1  0
 19 51  1  0
 20 52  1  0
 20 53  1  0
 21 54  1  0
 25 55  1  0
 25 56  1  0
 26 57  1  0
 26 58  1  0
 27 59  1  0
 28 60  1  0
 28 61  1  0
 29 62  1  0
 29 63  1  0
 31 64  1  0
 31 65  1  0
M  END
>  <smiles>  (73) 
c1ccc2c(c1)CCN(c1nc(NCCC3CCCCN3)nc(N3CCNCC3)n1)C2

>  <score_type>  (73) 
oracle

>  <origin>  (73) 
autodockgpu

>  <m_score__min__energy>  (73) 
-10.109999999999999

>  <m_primary>  (73) 
energy

>  <rmsd>  (73) 
5.295408132441433

>  <m_score__min__rmsd>  (73) 
5.295408132441433

>  <meeko>  (73) 
{"free_energy": -9.31, "intermolecular_energy": -11.1, "internal_energy": -0.9, "cluster_size": 26, "cluster_id": 2, "rank_in_cluster": 15}

>  <energy>  (73) 
-7.64

>  <cluster_rmsd>  (73) 
1.83

>  <cluster>  (73) 
1

$$$$

     RDKit          3D

 65 69  0  0  0  0  0  0  0  0999 V2000
  141.1840   81.2890  223.8320 C   0  0  0  0  0  0  0  0  0  0  0  0
  142.4230   80.8820  223.3650 C   0  0  0  0  0  0  0  0  0  0  0  0
  142.5540   79.7490  222.5740 C   0  0  0  0  0  0  0  0  0  0  0  0
  141.4220   79.0140  222.2490 C   0  0  0  0  0  0  0  0  0  0  0  0
  140.2000   79.4410  222.7270 C   0  0  0  0  0  0  0  0  0  0  0  0
  140.0560   80.5600  223.5110 C   0  0  0  0  0  0  0  0  0  0  0  0
  139.0200   78.5890  222.3300 C   0  0  0  0  0  0  0  0  0  0  0  0
  139.4230   77.1700  222.7100 C   0  0  0  0  0  0  0  0  0  0  0  0
  140.5960   76.7560  221.9360 N   0  0  0  0  0  0  0  0  0  0  0  0
  140.8000   75.3820  221.7480 C   0  0  0  0  0  0  0  0  0  0  0  0
  139.9080   74.5180  222.2830 N   0  0  0  0  0  0  0  0  0  0  0  0
  140.0240   73.1700  222.1490 C   0  0  0  0  0  0  0  0  0  0  0  0
  139.0160   72.3790  222.7580 N   0  0  0  0  0  0  0  0  0  0  0  0
  138.8570   70.9530  222.4550 C   0  0  0  0  0  0  0  0  0  0  0  0
  139.8390   70.1930  223.3220 C   0  0  0  0  0  0  0  0  0  0  0  0
  139.8060   70.7000  224.7660 C   0  0  1  0  0  0  0  0  0  0  0  0
  139.4220   69.5950  225.6890 C   0  0  0  0  0  0  0  0  0  0  0  0
  139.9310   69.6800  227.0810 C   0  0  0  0  0  0  0  0  0  0  0  0
  140.6120   70.9370  227.4760 C   0  0  0  0  0  0  0  0  0  0  0  0
  141.0520   71.8290  226.3530 C   0  0  0  0  0  0  0  0  0  0  0  0
  141.1640   71.1040  225.0890 N   0  0  0  0  0  0  0  0  0  0  0  0
  141.0590   72.6720  221.4640 N   0  0  0  0  0  0  0  0  0  0  0  0
  141.9780   73.5190  220.9110 C   0  0  0  0  0  0  0  0  0  0  0  0
  143.1030   73.0330  220.1920 N   0  0  0  0  0  0  0  0  0  0  0  0
  143.3470   73.4050  218.8000 C   0  0  0  0  0  0  0  0  0  0  0  0
  144.4150   72.5430  218.1830 C   0  0  0  0  0  0  0  0  0  0  0  0
  145.6570   72.5920  218.9310 N   0  0  0  0  0  0  0  0  0  0  0  0
  145.4390   72.6920  220.3600 C   0  0  0  0  0  0  0  0  0  0  0  0
  144.0950   72.1430  220.7970 C   0  0  0  0  0  0  0  0  0  0  0  0
  141.8430   74.8600  221.0550 N   0  0  0  0  0  0  0  0  0  0  0  0
  141.4840   77.7850  221.4050 C   0  0  0  0  0  0  0  0  0  0  0  0
  141.0989   82.1903  224.4568 H   0  0  0  0  0  0  0  0  0  0  0  0
  143.3178   81.4664  223.6253 H   0  0  0  0  0  0  0  0  0  0  0  0
  143.5436   79.4370  222.2088 H   0  0  0  0  0  0  0  0  0  0  0  0
  139.0647   80.8682  223.8747 H   0  0  0  0  0  0  0  0  0  0  0  0
  138.1175   78.8962  222.8788 H   0  0  0  0  0  0  0  0  0  0  0  0
  138.7807   78.6816  221.2603 H   0  0  0  0  0  0  0  0  0  0  0  0
  139.6640   77.1350  223.7827 H   0  0  0  0  0  0  0  0  0  0  0  0
  138.5882   76.4877  222.4918 H   0  0  0  0  0  0  0  0  0  0  0  0
  138.3900   72.8750  223.4400 H   0  0  0  0  0  0  0  0  0  0  0  0
  137.8293   70.6329  222.6817 H   0  0  0  0  0  0  0  0  0  0  0  0
  139.0489   70.7588  221.3894 H   0  0  0  0  0  0  0  0  0  0  0  0
  139.5768   69.1248  223.3102 H   0  0  0  0  0  0  0  0  0  0  0  0
  140.8515   70.3469  222.9206 H   0  0  0  0  0  0  0  0  0  0  0  0
  139.0832   71.5225  224.8712 H   0  0  0  0  0  0  0  0  0  0  0  0
  138.3234   69.5679  225.7372 H   0  0  0  0  0  0  0  0  0  0  0  0
  139.8865   68.6918  225.2666 H   0  0  0  0  0  0  0  0  0  0  0  0
  139.0738   69.5412  227.7563 H   0  0  0  0  0  0  0  0  0  0  0  0
  140.7067   68.9030  227.1482 H   0  0  0  0  0  0  0  0  0  0  0  0
  139.9189   71.5104  228.1091 H   0  0  0  0  0  0  0  0  0  0  0  0
  141.5356   70.6256  227.9859 H   0  0  0  0  0  0  0  0  0  0  0  0
  140.3170   72.6387  226.2339 H   0  0  0  0  0  0  0  0  0  0  0  0
  142.0459   72.2273  226.6052 H   0  0  0  0  0  0  0  0  0  0  0  0
  141.7130   70.2280  225.2390 H   0  0  0  0  0  0  0  0  0  0  0  0
  142.4149   73.2849  218.2283 H   0  0  0  0  0  0  0  0  0  0  0  0
  143.6871   74.4508  218.7745 H   0  0  0  0  0  0  0  0  0  0  0  0
  144.0587   71.5027  218.1552 H   0  0  0  0  0  0  0  0  0  0  0  0
  144.6145   72.9243  217.1707 H   0  0  0  0  0  0  0  0  0  0  0  0
  146.1260   71.6540  218.7790 H   0  0  0  0  0  0  0  0  0  0  0  0
  146.2313   72.1290  220.8751 H   0  0  0  0  0  0  0  0  0  0  0  0
  145.4569   73.7606  220.6203 H   0  0  0  0  0  0  0  0  0  0  0  0
  143.9621   71.1133  220.4337 H   0  0  0  0  0  0  0  0  0  0  0  0
  144.0017   72.1068  221.8924 H   0  0  0  0  0  0  0  0  0  0  0  0
  142.5157   77.4036  221.3960 H   0  0  0  0  0  0  0  0  0  0  0  0
  141.1648   78.0382  220.3832 H   0  0  0  0  0  0  0  0  0  0  0  0
  1  2  2  0
  2  3  1  0
  3  4  2  0
  4  5  1  0
  5  6  2  0
  5  7  1  0
  7  8  1  0
  8  9  1  0
  9 10  1  0
 10 11  2  0
 11 12  1  0
 12 13  1  0
 13 14  1  0
 14 15  1  0
 15 16  1  0
 16 17  1  0
 17 18  1  0
 18 19  1  0
 19 20  1  0
 20 21  1  0
 12 22  2  0
 22 23  1  0
 23 24  1  0
 24 25  1  0
 25 26  1  0
 26 27  1  0
 27 28  1  0
 28 29  1  0
 23 30  2  0
  9 31  1  0
  6  1  1  0
 30 10  1  0
 31  4  1  0
 21 16  1  0
 29 24  1  0
  1 32  1  0
  2 33  1  0
  3 34  1  0
  6 35  1  0
  7 36  1  0
  7 37  1  0
  8 38  1  0
  8 39  1  0
 13 40  1  0
 14 41  1  0
 14 42  1  0
 15 43  1  0
 15 44  1  0
 16 45  1  6
 17 46  1  0
 17 47  1  0
 18 48  1  0
 18 49  1  0
 19 50  1  0
 19 51  1  0
 20 52  1  0
 20 53  1  0
 21 54  1  0
 25 55  1  0
 25 56  1  0
 26 57  1  0
 26 58  1  0
 27 59  1  0
 28 60  1  0
 28 61  1  0
 29 62  1  0
 29 63  1  0
 31 64  1  0
 31 65  1  0
M  END
>  <smiles>  (74) 
c1ccc2c(c1)CCN(c1nc(NCCC3CCCCN3)nc(N3CCNCC3)n1)C2

>  <score_type>  (74) 
oracle

>  <origin>  (74) 
autodockgpu

>  <m_score__min__energy>  (74) 
-10.109999999999999

>  <m_primary>  (74) 
energy

>  <rmsd>  (74) 
5.414582346165534

>  <m_score__min__rmsd>  (74) 
5.414582346165534

>  <meeko>  (74) 
{"free_energy": -9.27, "intermolecular_energy": -11.06, "internal_energy": -1.0, "cluster_size": 26, "cluster_id": 2, "rank_in_cluster": 17}

>  <energy>  (74) 
-6.58

>  <cluster_rmsd>  (74) 
1.92

>  <cluster>  (74) 
1

$$$$

     RDKit          3D

 65 69  0  0  0  0  0  0  0  0999 V2000
  140.3560   67.4710  226.3560 C   0  0  0  0  0  0  0  0  0  0  0  0
  141.0990   68.4810  226.9460 C   0  0  0  0  0  0  0  0  0  0  0  0
  141.0380   69.7850  226.4730 C   0  0  0  0  0  0  0  0  0  0  0  0
  140.2190   70.0770  225.3910 C   0  0  0  0  0  0  0  0  0  0  0  0
  139.4910   69.0530  224.8210 C   0  0  0  0  0  0  0  0  0  0  0  0
  139.5420   67.7580  225.2790 C   0  0  0  0  0  0  0  0  0  0  0  0
  138.6270   69.4520  223.6500 C   0  0  0  0  0  0  0  0  0  0  0  0
  139.5680   70.1980  222.7130 C   0  0  0  0  0  0  0  0  0  0  0  0
  140.0750   71.4070  223.3680 N   0  0  0  0  0  0  0  0  0  0  0  0
  140.5080   72.4580  222.5490 C   0  0  0  0  0  0  0  0  0  0  0  0
  139.6740   73.5020  222.3440 N   0  0  0  0  0  0  0  0  0  0  0  0
  140.0110   74.5660  221.5680 C   0  0  0  0  0  0  0  0  0  0  0  0
  139.0430   75.5950  221.4400 N   0  0  0  0  0  0  0  0  0  0  0  0
  138.2860   75.8020  220.2010 C   0  0  0  0  0  0  0  0  0  0  0  0
  137.6310   74.4850  219.8440 C   0  0  0  0  0  0  0  0  0  0  0  0
  138.4980   73.6830  218.8700 C   0  0  1  0  0  0  0  0  0  0  0  0
  139.5990   74.5360  218.3410 C   0  0  0  0  0  0  0  0  0  0  0  0
  140.8440   73.8410  217.9300 C   0  0  0  0  0  0  0  0  0  0  0  0
  140.8140   72.3570  217.9060 C   0  0  0  0  0  0  0  0  0  0  0  0
  139.6810   71.7100  218.6470 C   0  0  0  0  0  0  0  0  0  0  0  0
  139.0930   72.6060  219.6400 N   0  0  0  0  0  0  0  0  0  0  0  0
  141.2110   74.5870  220.9790 N   0  0  0  0  0  0  0  0  0  0  0  0
  142.0780   73.5470  221.1660 C   0  0  0  0  0  0  0  0  0  0  0  0
  143.3550   73.5170  220.5450 N   0  0  0  0  0  0  0  0  0  0  0  0
  144.3240   72.4600  220.8260 C   0  0  0  0  0  0  0  0  0  0  0  0
  145.6840   72.8070  220.2850 C   0  0  0  0  0  0  0  0  0  0  0  0
  145.6520   73.0800  218.8600 N   0  0  0  0  0  0  0  0  0  0  0  0
  144.4360   73.7550  218.4520 C   0  0  0  0  0  0  0  0  0  0  0  0
  143.7800   74.5300  219.5790 C   0  0  0  0  0  0  0  0  0  0  0  0
  141.7230   72.4960  221.9450 N   0  0  0  0  0  0  0  0  0  0  0  0
  140.1040   71.4530  224.8270 C   0  0  0  0  0  0  0  0  0  0  0  0
  140.4148   66.4437  226.7448 H   0  0  0  0  0  0  0  0  0  0  0  0
  141.7475   68.2459  227.8028 H   0  0  0  0  0  0  0  0  0  0  0  0
  141.6322   70.5780  226.9505 H   0  0  0  0  0  0  0  0  0  0  0  0
  138.9471   66.9678  224.7977 H   0  0  0  0  0  0  0  0  0  0  0  0
  138.2103   68.5628  223.1544 H   0  0  0  0  0  0  0  0  0  0  0  0
  137.7690   70.0684  223.9563 H   0  0  0  0  0  0  0  0  0  0  0  0
  140.4131   69.5448  222.4499 H   0  0  0  0  0  0  0  0  0  0  0  0
  139.0193   70.4838  221.8034 H   0  0  0  0  0  0  0  0  0  0  0  0
  138.8990   76.2010  222.2860 H   0  0  0  0  0  0  0  0  0  0  0  0
  137.5179   76.5743  220.3545 H   0  0  0  0  0  0  0  0  0  0  0  0
  138.9512   76.1365  219.3913 H   0  0  0  0  0  0  0  0  0  0  0  0
  137.4839   73.8967  220.7618 H   0  0  0  0  0  0  0  0  0  0  0  0
  136.6658   74.6953  219.3600 H   0  0  0  0  0  0  0  0  0  0  0  0
  137.8935   73.3152  218.0278 H   0  0  0  0  0  0  0  0  0  0  0  0
  139.2117   75.0727  217.4624 H   0  0  0  0  0  0  0  0  0  0  0  0
  139.8932   75.1813  219.1819 H   0  0  0  0  0  0  0  0  0  0  0  0
  141.0953   74.1837  216.9154 H   0  0  0  0  0  0  0  0  0  0  0  0
  141.5821   74.0981  218.7040 H   0  0  0  0  0  0  0  0  0  0  0  0
  140.7541   72.0385  216.8548 H   0  0  0  0  0  0  0  0  0  0  0  0
  141.7295   72.0335  218.4228 H   0  0  0  0  0  0  0  0  0  0  0  0
  138.9033   71.4213  217.9246 H   0  0  0  0  0  0  0  0  0  0  0  0
  140.0791   70.8315  219.1760 H   0  0  0  0  0  0  0  0  0  0  0  0
  139.8540   73.0310  220.2170 H   0  0  0  0  0  0  0  0  0  0  0  0
  144.3964   72.3205  221.9147 H   0  0  0  0  0  0  0  0  0  0  0  0
  143.9814   71.5361  220.3371 H   0  0  0  0  0  0  0  0  0  0  0  0
  146.0568   73.6996  220.8087 H   0  0  0  0  0  0  0  0  0  0  0  0
  146.3442   71.9426  220.4493 H   0  0  0  0  0  0  0  0  0  0  0  0
  146.4360   73.7710  218.6780 H   0  0  0  0  0  0  0  0  0  0  0  0
  144.6801   74.4562  217.6404 H   0  0  0  0  0  0  0  0  0  0  0  0
  143.7242   72.9817  218.1273 H   0  0  0  0  0  0  0  0  0  0  0  0
  144.4987   75.2242  220.0391 H   0  0  0  0  0  0  0  0  0  0  0  0
  142.9354   75.1379  219.2225 H   0  0  0  0  0  0  0  0  0  0  0  0
  140.9676   72.0512  225.1532 H   0  0  0  0  0  0  0  0  0  0  0  0
  139.1696   71.9081  225.1872 H   0  0  0  0  0  0  0  0  0  0  0  0
  1  2  2  0
  2  3  1  0
  3  4  2  0
  4  5  1  0
  5  6  2  0
  5  7  1  0
  7  8  1  0
  8  9  1  0
  9 10  1  0
 10 11  2  0
 11 12  1  0
 12 13  1  0
 13 14  1  0
 14 15  1  0
 15 16  1  0
 16 17  1  0
 17 18  1  0
 18 19  1  0
 19 20  1  0
 20 21  1  0
 12 22  2  0
 22 23  1  0
 23 24  1  0
 24 25  1  0
 25 26  1  0
 26 27  1  0
 27 28  1  0
 28 29  1  0
 23 30  2  0
  9 31  1  0
  6  1  1  0
 30 10  1  0
 31  4  1  0
 21 16  1  0
 29 24  1  0
  1 32  1  0
  2 33  1  0
  3 34  1  0
  6 35  1  0
  7 36  1  0
  7 37  1  0
  8 38  1  0
  8 39  1  0
 13 40  1  0
 14 41  1  0
 14 42  1  0
 15 43  1  0
 15 44  1  0
 16 45  1  6
 17 46  1  0
 17 47  1  0
 18 48  1  0
 18 49  1  0
 19 50  1  0
 19 51  1  0
 20 52  1  0
 20 53  1  0
 21 54  1  0
 25 55  1  0
 25 56  1  0
 26 57  1  0
 26 58  1  0
 27 59  1  0
 28 60  1  0
 28 61  1  0
 29 62  1  0
 29 63  1  0
 31 64  1  0
 31 65  1  0
M  END
>  <smiles>  (75) 
c1ccc2c(c1)CCN(c1nc(NCCC3CCCCN3)nc(N3CCNCC3)n1)C2

>  <score_type>  (75) 
oracle

>  <origin>  (75) 
autodockgpu

>  <m_score__min__energy>  (75) 
-10.109999999999999

>  <m_primary>  (75) 
energy

>  <rmsd>  (75) 
11.136496648300124

>  <m_score__min__rmsd>  (75) 
11.136496648300124

>  <meeko>  (75) 
{"free_energy": -6.58, "intermolecular_energy": -8.37, "internal_energy": -3.15, "cluster_size": 24, "cluster_id": 1, "rank_in_cluster": 24}

>  <energy>  (75) 
-9.75

>  <cluster_rmsd>  (75) 
0.0

>  <cluster>  (75) 
2

$$$$

     RDKit          3D

 65 69  0  0  0  0  0  0  0  0999 V2000
  138.7430   80.4530  224.0290 C   0  0  0  0  0  0  0  0  0  0  0  0
  140.1100   80.5270  223.8120 C   0  0  0  0  0  0  0  0  0  0  0  0
  140.7610   79.5930  223.0180 C   0  0  0  0  0  0  0  0  0  0  0  0
  140.0280   78.5690  222.4350 C   0  0  0  0  0  0  0  0  0  0  0  0
  138.6680   78.5180  222.6670 C   0  0  0  0  0  0  0  0  0  0  0  0
  138.0110   79.4360  223.4510 C   0  0  0  0  0  0  0  0  0  0  0  0
  137.9440   77.3760  221.9990 C   0  0  0  0  0  0  0  0  0  0  0  0
  138.7320   76.1340  222.3940 C   0  0  0  0  0  0  0  0  0  0  0  0
  140.0960   76.2130  221.8630 N   0  0  0  0  0  0  0  0  0  0  0  0
  140.7870   75.0110  221.6640 C   0  0  0  0  0  0  0  0  0  0  0  0
  140.2390   73.8660  222.1290 N   0  0  0  0  0  0  0  0  0  0  0  0
  140.8360   72.6540  221.9780 C   0  0  0  0  0  0  0  0  0  0  0  0
  140.1500   71.5330  222.5110 N   0  0  0  0  0  0  0  0  0  0  0  0
  138.7440   71.6040  222.9220 C   0  0  0  0  0  0  0  0  0  0  0  0
  138.4210   70.3200  223.6550 C   0  0  0  0  0  0  0  0  0  0  0  0
  139.1070   70.2770  225.0230 C   0  0  1  0  0  0  0  0  0  0  0  0
  138.8220   68.9810  225.7000 C   0  0  0  0  0  0  0  0  0  0  0  0
  139.8400   68.4930  226.6630 C   0  0  0  0  0  0  0  0  0  0  0  0
  140.9490   69.4180  227.0030 C   0  0  0  0  0  0  0  0  0  0  0  0
  141.1430   70.5810  226.0750 C   0  0  0  0  0  0  0  0  0  0  0  0
  140.5350   70.3470  224.7670 N   0  0  0  0  0  0  0  0  0  0  0  0
  142.0140   72.5840  221.3490 N   0  0  0  0  0  0  0  0  0  0  0  0
  142.5950   73.7240  220.8680 C   0  0  0  0  0  0  0  0  0  0  0  0
  143.8550   73.6990  220.2110 N   0  0  0  0  0  0  0  0  0  0  0  0
  145.0160   73.0340  220.7970 C   0  0  0  0  0  0  0  0  0  0  0  0
  146.2810   73.3970  220.0670 C   0  0  0  0  0  0  0  0  0  0  0  0
  146.2010   73.0920  218.6510 N   0  0  0  0  0  0  0  0  0  0  0  0
  144.8750   73.3160  218.1100 C   0  0  0  0  0  0  0  0  0  0  0  0
  144.0710   74.3240  218.9060 C   0  0  0  0  0  0  0  0  0  0  0  0
  141.9820   74.9220  221.0270 N   0  0  0  0  0  0  0  0  0  0  0  0
  140.6580   77.5280  221.5720 C   0  0  0  0  0  0  0  0  0  0  0  0
  138.2432   81.2027  224.6600 H   0  0  0  0  0  0  0  0  0  0  0  0
  140.6884   81.3392  224.2766 H   0  0  0  0  0  0  0  0  0  0  0  0
  141.8462   79.6637  222.8527 H   0  0  0  0  0  0  0  0  0  0  0  0
  136.9257   79.3617  223.6141 H   0  0  0  0  0  0  0  0  0  0  0  0
  136.9075   77.3091  222.3612 H   0  0  0  0  0  0  0  0  0  0  0  0
  137.8856   77.5020  220.9078 H   0  0  0  0  0  0  0  0  0  0  0  0
  138.7722   76.0622  223.4909 H   0  0  0  0  0  0  0  0  0  0  0  0
  138.2349   75.2450  221.9787 H   0  0  0  0  0  0  0  0  0  0  0  0
  140.7080   70.6470  222.5930 H   0  0  0  0  0  0  0  0  0  0  0  0
  138.5901   72.4659  223.5879 H   0  0  0  0  0  0  0  0  0  0  0  0
  138.0893   71.7265  222.0466 H   0  0  0  0  0  0  0  0  0  0  0  0
  137.3323   70.2518  223.7970 H   0  0  0  0  0  0  0  0  0  0  0  0
  138.7871   69.4741  223.0546 H   0  0  0  0  0  0  0  0  0  0  0  0
  138.7507   71.0995  225.6607 H   0  0  0  0  0  0  0  0  0  0  0  0
  137.8734   69.0918  226.2457 H   0  0  0  0  0  0  0  0  0  0  0  0
  138.8046   68.2323  224.8943 H   0  0  0  0  0  0  0  0  0  0  0  0
  139.3180   68.2439  227.5987 H   0  0  0  0  0  0  0  0  0  0  0  0
  140.3235   67.6433  226.1587 H   0  0  0  0  0  0  0  0  0  0  0  0
  140.7566   69.8187  228.0092 H   0  0  0  0  0  0  0  0  0  0  0  0
  141.8688   68.8197  226.9252 H   0  0  0  0  0  0  0  0  0  0  0  0
  140.6846   71.4741  226.5247 H   0  0  0  0  0  0  0  0  0  0  0  0
  142.2241   70.7196  225.9265 H   0  0  0  0  0  0  0  0  0  0  0  0
  140.8260   69.4080  224.4140 H   0  0  0  0  0  0  0  0  0  0  0  0
  145.1099   73.3388  221.8498 H   0  0  0  0  0  0  0  0  0  0  0  0
  144.8696   71.9467  220.7179 H   0  0  0  0  0  0  0  0  0  0  0  0
  146.4633   74.4751  220.1878 H   0  0  0  0  0  0  0  0  0  0  0  0
  147.1016   72.8028  220.4955 H   0  0  0  0  0  0  0  0  0  0  0  0
  146.8290   73.7940  218.1650 H   0  0  0  0  0  0  0  0  0  0  0  0
  144.9754   73.6844  217.0784 H   0  0  0  0  0  0  0  0  0  0  0  0
  144.3363   72.3580  218.1545 H   0  0  0  0  0  0  0  0  0  0  0  0
  144.6320   75.2637  219.0166 H   0  0  0  0  0  0  0  0  0  0  0  0
  143.1225   74.5770  218.4096 H   0  0  0  0  0  0  0  0  0  0  0  0
  141.7414   77.5084  221.7612 H   0  0  0  0  0  0  0  0  0  0  0  0
  140.4610   77.7733  220.5180 H   0  0  0  0  0  0  0  0  0  0  0  0
  1  2  2  0
  2  3  1  0
  3  4  2  0
  4  5  1  0
  5  6  2  0
  5  7  1  0
  7  8  1  0
  8  9  1  0
  9 10  1  0
 10 11  2  0
 11 12  1  0
 12 13  1  0
 13 14  1  0
 14 15  1  0
 15 16  1  0
 16 17  1  0
 17 18  1  0
 18 19  1  0
 19 20  1  0
 20 21  1  0
 12 22  2  0
 22 23  1  0
 23 24  1  0
 24 25  1  0
 25 26  1  0
 26 27  1  0
 27 28  1  0
 28 29  1  0
 23 30  2  0
  9 31  1  0
  6  1  1  0
 30 10  1  0
 31  4  1  0
 21 16  1  0
 29 24  1  0
  1 32  1  0
  2 33  1  0
  3 34  1  0
  6 35  1  0
  7 36  1  0
  7 37  1  0
  8 38  1  0
  8 39  1  0
 13 40  1  0
 14 41  1  0
 14 42  1  0
 15 43  1  0
 15 44  1  0
 16 45  1  1
 17 46  1  0
 17 47  1  0
 18 48  1  0
 18 49  1  0
 19 50  1  0
 19 51  1  0
 20 52  1  0
 20 53  1  0
 21 54  1  0
 25 55  1  0
 25 56  1  0
 26 57  1  0
 26 58  1  0
 27 59  1  0
 28 60  1  0
 28 61  1  0
 29 62  1  0
 29 63  1  0
 31 64  1  0
 31 65  1  0
M  END
>  <smiles>  (76) 
c1ccc2c(c1)CCN(c1nc(NCCC3CCCCN3)nc(N3CCNCC3)n1)C2

>  <score_type>  (76) 
oracle

>  <origin>  (76) 
autodockgpu

>  <m_score__min__energy>  (76) 
-10.109999999999999

>  <m_primary>  (76) 
energy

>  <rmsd>  (76) 
5.214121168571642

>  <m_score__min__rmsd>  (76) 
5.214121168571642

>  <meeko>  (76) 
{"free_energy": -8.92, "intermolecular_energy": -10.71, "internal_energy": -1.28, "cluster_size": 26, "cluster_id": 2, "rank_in_cluster": 23}

>  <energy>  (76) 
-9.75

>  <cluster_rmsd>  (76) 
1.25

>  <cluster>  (76) 
2

$$$$

     RDKit          3D

 65 69  0  0  0  0  0  0  0  0999 V2000
  140.0300   67.7900  225.6190 C   0  0  0  0  0  0  0  0  0  0  0  0
  140.9520   68.6220  226.2340 C   0  0  0  0  0  0  0  0  0  0  0  0
  141.0670   69.9560  225.8710 C   0  0  0  0  0  0  0  0  0  0  0  0
  140.2440   70.4620  224.8740 C   0  0  0  0  0  0  0  0  0  0  0  0
  139.3340   69.6130  224.2770 C   0  0  0  0  0  0  0  0  0  0  0  0
  139.2100   68.2890  224.6270 C   0  0  0  0  0  0  0  0  0  0  0  0
  138.4780   70.2380  223.2040 C   0  0  0  0  0  0  0  0  0  0  0  0
  139.4690   70.9150  222.2660 C   0  0  0  0  0  0  0  0  0  0  0  0
  140.1940   71.9720  222.9770 N   0  0  0  0  0  0  0  0  0  0  0  0
  140.7370   73.0150  222.2150 C   0  0  0  0  0  0  0  0  0  0  0  0
  140.0260   74.1560  222.0830 N   0  0  0  0  0  0  0  0  0  0  0  0
  140.4750   75.2200  221.3660 C   0  0  0  0  0  0  0  0  0  0  0  0
  139.6290   76.3570  221.3120 N   0  0  0  0  0  0  0  0  0  0  0  0
  138.6990   76.6880  222.3950 C   0  0  0  0  0  0  0  0  0  0  0  0
  138.2390   78.1140  222.1800 C   0  0  0  0  0  0  0  0  0  0  0  0
  139.4090   79.0940  222.2920 C   0  0  1  0  0  0  0  0  0  0  0  0
  140.3080   78.6940  223.4100 C   0  0  0  0  0  0  0  0  0  0  0  0
  141.7360   79.0810  223.2890 C   0  0  0  0  0  0  0  0  0  0  0  0
  142.1000   79.9850  222.1700 C   0  0  0  0  0  0  0  0  0  0  0  0
  141.0880   80.1090  221.0700 C   0  0  0  0  0  0  0  0  0  0  0  0
  140.1560   78.9840  221.0510 N   0  0  0  0  0  0  0  0  0  0  0  0
  141.6660   75.1410  220.7630 N   0  0  0  0  0  0  0  0  0  0  0  0
  142.4100   74.0000  220.8770 C   0  0  0  0  0  0  0  0  0  0  0  0
  143.6710   73.8640  220.2370 N   0  0  0  0  0  0  0  0  0  0  0  0
  144.7370   73.0400  220.8040 C   0  0  0  0  0  0  0  0  0  0  0  0
  146.0490   73.2910  220.1110 C   0  0  0  0  0  0  0  0  0  0  0  0
  145.9630   73.0700  218.6800 N   0  0  0  0  0  0  0  0  0  0  0  0
  144.6820   73.4720  218.1330 C   0  0  0  0  0  0  0  0  0  0  0  0
  143.9830   74.5250  218.9700 C   0  0  0  0  0  0  0  0  0  0  0  0
  141.9440   72.9510  221.5980 N   0  0  0  0  0  0  0  0  0  0  0  0
  140.3120   71.8840  224.4290 C   0  0  0  0  0  0  0  0  0  0  0  0
  139.9518   66.7350  225.9205 H   0  0  0  0  0  0  0  0  0  0  0  0
  141.6034   68.2180  227.0230 H   0  0  0  0  0  0  0  0  0  0  0  0
  141.8024   70.6059  226.3678 H   0  0  0  0  0  0  0  0  0  0  0  0
  138.4738   67.6420  224.1276 H   0  0  0  0  0  0  0  0  0  0  0  0
  137.9017   69.4682  222.6698 H   0  0  0  0  0  0  0  0  0  0  0  0
  137.7440   70.9461  223.6163 H   0  0  0  0  0  0  0  0  0  0  0  0
  140.1863   70.1685  221.8943 H   0  0  0  0  0  0  0  0  0  0  0  0
  138.9204   71.3594  221.4225 H   0  0  0  0  0  0  0  0  0  0  0  0
  139.7090   76.9500  220.4480 H   0  0  0  0  0  0  0  0  0  0  0  0
  137.8355   76.0070  222.3698 H   0  0  0  0  0  0  0  0  0  0  0  0
  139.1906   76.5829  223.3734 H   0  0  0  0  0  0  0  0  0  0  0  0
  137.7930   78.2003  221.1782 H   0  0  0  0  0  0  0  0  0  0  0  0
  137.4997   78.3629  222.9555 H   0  0  0  0  0  0  0  0  0  0  0  0
  139.0427   80.1149  222.4753 H   0  0  0  0  0  0  0  0  0  0  0  0
  139.9164   79.1492  224.3317 H   0  0  0  0  0  0  0  0  0  0  0  0
  140.3053   77.5940  223.4034 H   0  0  0  0  0  0  0  0  0  0  0  0
  142.0241   79.5808  224.2256 H   0  0  0  0  0  0  0  0  0  0  0  0
  142.2682   78.1413  223.0797 H   0  0  0  0  0  0  0  0  0  0  0  0
  142.2670   80.9885  222.5885 H   0  0  0  0  0  0  0  0  0  0  0  0
  142.9908   79.5377  221.7048 H   0  0  0  0  0  0  0  0  0  0  0  0
  140.5186   81.0389  221.2152 H   0  0  0  0  0  0  0  0  0  0  0  0
  141.6285   80.1173  220.1120 H   0  0  0  0  0  0  0  0  0  0  0  0
  140.6930   78.0890  221.0990 H   0  0  0  0  0  0  0  0  0  0  0  0
  144.8446   73.2786  221.8724 H   0  0  0  0  0  0  0  0  0  0  0  0
  144.4685   71.9821  220.6668 H   0  0  0  0  0  0  0  0  0  0  0  0
  146.3512   74.3332  220.2911 H   0  0  0  0  0  0  0  0  0  0  0  0
  146.7871   72.5844  220.5184 H   0  0  0  0  0  0  0  0  0  0  0  0
  146.6770   73.7190  218.2410 H   0  0  0  0  0  0  0  0  0  0  0  0
  144.8440   73.8778  217.1235 H   0  0  0  0  0  0  0  0  0  0  0  0
  144.0366   72.5814  218.1197 H   0  0  0  0  0  0  0  0  0  0  0  0
  144.6457   75.3868  219.1376 H   0  0  0  0  0  0  0  0  0  0  0  0
  143.0798   74.9107  218.4745 H   0  0  0  0  0  0  0  0  0  0  0  0
  141.2748   72.3151  224.7406 H   0  0  0  0  0  0  0  0  0  0  0  0
  139.4811   72.4401  224.8876 H   0  0  0  0  0  0  0  0  0  0  0  0
  1  2  2  0
  2  3  1  0
  3  4  2  0
  4  5  1  0
  5  6  2  0
  5  7  1  0
  7  8  1  0
  8  9  1  0
  9 10  1  0
 10 11  2  0
 11 12  1  0
 12 13  1  0
 13 14  1  0
 14 15  1  0
 15 16  1  0
 16 17  1  0
 17 18  1  0
 18 19  1  0
 19 20  1  0
 20 21  1  0
 12 22  2  0
 22 23  1  0
 23 24  1  0
 24 25  1  0
 25 26  1  0
 26 27  1  0
 27 28  1  0
 28 29  1  0
 23 30  2  0
  9 31  1  0
  6  1  1  0
 30 10  1  0
 31  4  1  0
 21 16  1  0
 29 24  1  0
  1 32  1  0
  2 33  1  0
  3 34  1  0
  6 35  1  0
  7 36  1  0
  7 37  1  0
  8 38  1  0
  8 39  1  0
 13 40  1  0
 14 41  1  0
 14 42  1  0
 15 43  1  0
 15 44  1  0
 16 45  1  1
 17 46  1  0
 17 47  1  0
 18 48  1  0
 18 49  1  0
 19 50  1  0
 19 51  1  0
 20 52  1  0
 20 53  1  0
 21 54  1  0
 25 55  1  0
 25 56  1  0
 26 57  1  0
 26 58  1  0
 27 59  1  0
 28 60  1  0
 28 61  1  0
 29 62  1  0
 29 63  1  0
 31 64  1  0
 31 65  1  0
M  END
>  <smiles>  (77) 
c1ccc2c(c1)CCN(c1nc(NCCC3CCCCN3)nc(N3CCNCC3)n1)C2

>  <score_type>  (77) 
oracle

>  <origin>  (77) 
autodockgpu

>  <m_score__min__energy>  (77) 
-10.109999999999999

>  <m_primary>  (77) 
energy

>  <rmsd>  (77) 
10.5466181277095

>  <m_score__min__rmsd>  (77) 
10.5466181277095

>  <meeko>  (77) 
{"free_energy": -8.55, "intermolecular_energy": -10.34, "internal_energy": -1.57, "cluster_size": 24, "cluster_id": 1, "rank_in_cluster": 20}

>  <energy>  (77) 
-9.68

>  <cluster_rmsd>  (77) 
1.48

>  <cluster>  (77) 
2

$$$$

     RDKit          3D

 65 69  0  0  0  0  0  0  0  0999 V2000
  140.3450   67.6800  226.8790 C   0  0  0  0  0  0  0  0  0  0  0  0
  141.0900   68.7410  227.3660 C   0  0  0  0  0  0  0  0  0  0  0  0
  141.0260   69.9940  226.7730 C   0  0  0  0  0  0  0  0  0  0  0  0
  140.2010   70.1820  225.6720 C   0  0  0  0  0  0  0  0  0  0  0  0
  139.4700   69.1090  225.2060 C   0  0  0  0  0  0  0  0  0  0  0  0
  139.5240   67.8640  225.7840 C   0  0  0  0  0  0  0  0  0  0  0  0
  138.5990   69.3950  224.0080 C   0  0  0  0  0  0  0  0  0  0  0  0
  139.5340   70.0490  222.9990 C   0  0  0  0  0  0  0  0  0  0  0  0
  140.0450   71.3140  223.5340 N   0  0  0  0  0  0  0  0  0  0  0  0
  140.4730   72.2830  222.6160 C   0  0  0  0  0  0  0  0  0  0  0  0
  139.7190   73.3930  222.4500 N   0  0  0  0  0  0  0  0  0  0  0  0
  140.0580   74.3860  221.5860 C   0  0  0  0  0  0  0  0  0  0  0  0
  139.1790   75.4970  221.5120 N   0  0  0  0  0  0  0  0  0  0  0  0
  139.3700   76.6960  222.3340 C   0  0  0  0  0  0  0  0  0  0  0  0
  140.8510   77.0090  222.3410 C   0  0  0  0  0  0  0  0  0  0  0  0
  141.0960   78.5160  222.4560 C   0  0  1  0  0  0  0  0  0  0  0  0
  141.6970   78.8390  223.7800 C   0  0  0  0  0  0  0  0  0  0  0  0
  142.5580   80.0450  223.8460 C   0  0  0  0  0  0  0  0  0  0  0  0
  142.5920   80.9190  222.6470 C   0  0  0  0  0  0  0  0  0  0  0  0
  142.0690   80.3140  221.3780 C   0  0  0  0  0  0  0  0  0  0  0  0
  142.0640   78.8540  221.4280 N   0  0  0  0  0  0  0  0  0  0  0  0
  141.1780   74.2660  220.8650 N   0  0  0  0  0  0  0  0  0  0  0  0
  141.9620   73.1560  221.0090 C   0  0  0  0  0  0  0  0  0  0  0  0
  143.1490   72.9760  220.2500 N   0  0  0  0  0  0  0  0  0  0  0  0
  143.4950   73.8630  219.1400 C   0  0  0  0  0  0  0  0  0  0  0  0
  144.6240   73.2980  218.3210 C   0  0  0  0  0  0  0  0  0  0  0  0
  145.8020   73.0310  219.1250 N   0  0  0  0  0  0  0  0  0  0  0  0
  145.4710   72.5630  220.4550 C   0  0  0  0  0  0  0  0  0  0  0  0
  144.1060   71.9070  220.5320 C   0  0  0  0  0  0  0  0  0  0  0  0
  141.6070   72.1770  221.8780 N   0  0  0  0  0  0  0  0  0  0  0  0
  140.0830   71.4990  224.9810 C   0  0  0  0  0  0  0  0  0  0  0  0
  140.4070   66.6940  227.3628 H   0  0  0  0  0  0  0  0  0  0  0  0
  141.7435   68.5879  228.2375 H   0  0  0  0  0  0  0  0  0  0  0  0
  141.6220   70.8287  227.1706 H   0  0  0  0  0  0  0  0  0  0  0  0
  138.9264   67.0319  225.3834 H   0  0  0  0  0  0  0  0  0  0  0  0
  138.1800   68.4628  223.6014 H   0  0  0  0  0  0  0  0  0  0  0  0
  137.7423   70.0375  224.2596 H   0  0  0  0  0  0  0  0  0  0  0  0
  140.3775   69.3736  222.7933 H   0  0  0  0  0  0  0  0  0  0  0  0
  138.9796   70.2482  222.0701 H   0  0  0  0  0  0  0  0  0  0  0  0
  138.3810   75.4100  220.8330 H   0  0  0  0  0  0  0  0  0  0  0  0
  138.8095   77.5395  221.9045 H   0  0  0  0  0  0  0  0  0  0  0  0
  139.0038   76.5275  223.3575 H   0  0  0  0  0  0  0  0  0  0  0  0
  141.3211   76.5024  223.1968 H   0  0  0  0  0  0  0  0  0  0  0  0
  141.2870   76.6556  221.3949 H   0  0  0  0  0  0  0  0  0  0  0  0
  140.1522   79.0703  222.3463 H   0  0  0  0  0  0  0  0  0  0  0  0
  140.8726   78.9788  224.4947 H   0  0  0  0  0  0  0  0  0  0  0  0
  142.3649   77.9950  224.0071 H   0  0  0  0  0  0  0  0  0  0  0  0
  142.2081   80.6558  224.6913 H   0  0  0  0  0  0  0  0  0  0  0  0
  143.5828   79.6575  223.9442 H   0  0  0  0  0  0  0  0  0  0  0  0
  141.9913   81.8141  222.8658 H   0  0  0  0  0  0  0  0  0  0  0  0
  143.6562   81.1260  222.4606 H   0  0  0  0  0  0  0  0  0  0  0  0
  141.0402   80.6671  221.2142 H   0  0  0  0  0  0  0  0  0  0  0  0
  142.7319   80.6231  220.5564 H   0  0  0  0  0  0  0  0  0  0  0  0
  142.9930   78.5150  221.7640 H   0  0  0  0  0  0  0  0  0  0  0  0
  142.6132   73.9907  218.4949 H   0  0  0  0  0  0  0  0  0  0  0  0
  143.8165   74.8297  219.5549 H   0  0  0  0  0  0  0  0  0  0  0  0
  144.2902   72.3577  217.8580 H   0  0  0  0  0  0  0  0  0  0  0  0
  144.8959   74.0437  217.5595 H   0  0  0  0  0  0  0  0  0  0  0  0
  146.3000   72.2230  218.6530 H   0  0  0  0  0  0  0  0  0  0  0  0
  146.2297   71.8303  220.7673 H   0  0  0  0  0  0  0  0  0  0  0  0
  145.4504   73.4418  221.1163 H   0  0  0  0  0  0  0  0  0  0  0  0
  144.0206   71.1057  219.7832 H   0  0  0  0  0  0  0  0  0  0  0  0
  143.9275   71.4446  221.5140 H   0  0  0  0  0  0  0  0  0  0  0  0
  140.9488   72.1247  225.2436 H   0  0  0  0  0  0  0  0  0  0  0  0
  139.1514   71.9877  225.3023 H   0  0  0  0  0  0  0  0  0  0  0  0
  1  2  2  0
  2  3  1  0
  3  4  2  0
  4  5  1  0
  5  6  2  0
  5  7  1  0
  7  8  1  0
  8  9  1  0
  9 10  1  0
 10 11  2  0
 11 12  1  0
 12 13  1  0
 13 14  1  0
 14 15  1  0
 15 16  1  0
 16 17  1  0
 17 18  1  0
 18 19  1  0
 19 20  1  0
 20 21  1  0
 12 22  2  0
 22 23  1  0
 23 24  1  0
 24 25  1  0
 25 26  1  0
 26 27  1  0
 27 28  1  0
 28 29  1  0
 23 30  2  0
  9 31  1  0
  6  1  1  0
 30 10  1  0
 31  4  1  0
 21 16  1  0
 29 24  1  0
  1 32  1  0
  2 33  1  0
  3 34  1  0
  6 35  1  0
  7 36  1  0
  7 37  1  0
  8 38  1  0
  8 39  1  0
 13 40  1  0
 14 41  1  0
 14 42  1  0
 15 43  1  0
 15 44  1  0
 16 45  1  6
 17 46  1  0
 17 47  1  0
 18 48  1  0
 18 49  1  0
 19 50  1  0
 19 51  1  0
 20 52  1  0
 20 53  1  0
 21 54  1  0
 25 55  1  0
 25 56  1  0
 26 57  1  0
 26 58  1  0
 27 59  1  0
 28 60  1  0
 28 61  1  0
 29 62  1  0
 29 63  1  0
 31 64  1  0
 31 65  1  0
M  END
>  <smiles>  (78) 
c1ccc2c(c1)CCN(c1nc(NCCC3CCCCN3)nc(N3CCNCC3)n1)C2

>  <score_type>  (78) 
oracle

>  <origin>  (78) 
autodockgpu

>  <m_score__min__energy>  (78) 
-10.109999999999999

>  <m_primary>  (78) 
energy

>  <rmsd>  (78) 
11.244312915661522

>  <m_score__min__rmsd>  (78) 
11.244312915661522

>  <meeko>  (78) 
{"free_energy": -9.63, "intermolecular_energy": -11.42, "internal_energy": -0.84, "cluster_size": 24, "cluster_id": 1, "rank_in_cluster": 7}

>  <energy>  (78) 
-9.65

>  <cluster_rmsd>  (78) 
1.04

>  <cluster>  (78) 
2

$$$$

     RDKit          3D

 65 69  0  0  0  0  0  0  0  0999 V2000
  141.0920   81.1220  223.6480 C   0  0  0  0  0  0  0  0  0  0  0  0
  142.3320   80.7520  223.1510 C   0  0  0  0  0  0  0  0  0  0  0  0
  142.4840   79.6020  222.3880 C   0  0  0  0  0  0  0  0  0  0  0  0
  141.3730   78.8130  222.1220 C   0  0  0  0  0  0  0  0  0  0  0  0
  140.1510   79.2040  222.6290 C   0  0  0  0  0  0  0  0  0  0  0  0
  139.9870   80.3390  223.3850 C   0  0  0  0  0  0  0  0  0  0  0  0
  138.9950   78.2930  222.2960 C   0  0  0  0  0  0  0  0  0  0  0  0
  139.4690   76.9040  222.7020 C   0  0  0  0  0  0  0  0  0  0  0  0
  140.6320   76.5150  221.9010 N   0  0  0  0  0  0  0  0  0  0  0  0
  140.8870   75.1450  221.7450 C   0  0  0  0  0  0  0  0  0  0  0  0
  139.9430   74.2640  222.1450 N   0  0  0  0  0  0  0  0  0  0  0  0
  140.1020   72.9190  222.0290 C   0  0  0  0  0  0  0  0  0  0  0  0
  139.0310   72.1080  222.4860 N   0  0  0  0  0  0  0  0  0  0  0  0
  139.0540   71.4550  223.7980 C   0  0  0  0  0  0  0  0  0  0  0  0
  140.3020   70.6000  223.8580 C   0  0  0  0  0  0  0  0  0  0  0  0
  140.7040   70.3110  225.3060 C   0  0  1  0  0  0  0  0  0  0  0  0
  140.9430   71.5870  226.0370 C   0  0  0  0  0  0  0  0  0  0  0  0
  140.7130   71.5700  227.5030 C   0  0  0  0  0  0  0  0  0  0  0  0
  140.4520   70.2510  228.1320 C   0  0  0  0  0  0  0  0  0  0  0  0
  140.0730   69.1410  227.1970 C   0  0  0  0  0  0  0  0  0  0  0  0
  139.5690   69.6450  225.9220 N   0  0  0  0  0  0  0  0  0  0  0  0
  141.2340   72.4410  221.5020 N   0  0  0  0  0  0  0  0  0  0  0  0
  142.2080   73.3060  221.0880 C   0  0  0  0  0  0  0  0  0  0  0  0
  143.4350   72.8430  220.5420 N   0  0  0  0  0  0  0  0  0  0  0  0
  143.4930   72.1510  219.2560 C   0  0  0  0  0  0  0  0  0  0  0  0
  144.8360   71.5090  219.0400 C   0  0  0  0  0  0  0  0  0  0  0  0
  145.9210   72.4670  219.1330 N   0  0  0  0  0  0  0  0  0  0  0  0
  145.6760   73.4870  220.1330 C   0  0  0  0  0  0  0  0  0  0  0  0
  144.7170   73.0370  221.2180 C   0  0  0  0  0  0  0  0  0  0  0  0
  142.0290   74.6440  221.2120 N   0  0  0  0  0  0  0  0  0  0  0  0
  141.4590   77.5630  221.3120 C   0  0  0  0  0  0  0  0  0  0  0  0
  140.9894   82.0369  224.2501 H   0  0  0  0  0  0  0  0  0  0  0  0
  143.2098   81.3796  223.3646 H   0  0  0  0  0  0  0  0  0  0  0  0
  143.4732   79.3193  221.9988 H   0  0  0  0  0  0  0  0  0  0  0  0
  138.9959   80.6176  223.7724 H   0  0  0  0  0  0  0  0  0  0  0  0
  138.0988   78.5792  222.8660 H   0  0  0  0  0  0  0  0  0  0  0  0
  138.7173   78.3441  221.2328 H   0  0  0  0  0  0  0  0  0  0  0  0
  139.7462   76.9109  223.7665 H   0  0  0  0  0  0  0  0  0  0  0  0
  138.6566   76.1822  222.5314 H   0  0  0  0  0  0  0  0  0  0  0  0
  138.2190   72.0020  221.8270 H   0  0  0  0  0  0  0  0  0  0  0  0
  139.0793   72.2131  224.5946 H   0  0  0  0  0  0  0  0  0  0  0  0
  138.1543   70.8383  223.9401 H   0  0  0  0  0  0  0  0  0  0  0  0
  140.1101   69.6478  223.3418 H   0  0  0  0  0  0  0  0  0  0  0  0
  141.1229   71.1462  223.3703 H   0  0  0  0  0  0  0  0  0  0  0  0
  141.6198   69.7025  225.3388 H   0  0  0  0  0  0  0  0  0  0  0  0
  141.9905   71.8767  225.8676 H   0  0  0  0  0  0  0  0  0  0  0  0
  140.1999   72.2923  225.6366 H   0  0  0  0  0  0  0  0  0  0  0  0
  141.6066   71.9950  227.9834 H   0  0  0  0  0  0  0  0  0  0  0  0
  139.7867   72.1443  227.6521 H   0  0  0  0  0  0  0  0  0  0  0  0
  141.3646   69.9456  228.6648 H   0  0  0  0  0  0  0  0  0  0  0  0
  139.5791   70.4007  228.7844 H   0  0  0  0  0  0  0  0  0  0  0  0
  140.9600   68.5189  227.0069 H   0  0  0  0  0  0  0  0  0  0  0  0
  139.2706   68.5572  227.6717 H   0  0  0  0  0  0  0  0  0  0  0  0
  138.8480   70.3790  226.1000 H   0  0  0  0  0  0  0  0  0  0  0  0
  142.7160   71.3727  219.2327 H   0  0  0  0  0  0  0  0  0  0  0  0
  143.3290   72.8892  218.4572 H   0  0  0  0  0  0  0  0  0  0  0  0
  144.9838   70.7308  219.8032 H   0  0  0  0  0  0  0  0  0  0  0  0
  144.8477   71.0819  218.0264 H   0  0  0  0  0  0  0  0  0  0  0  0
  146.7620   71.9230  219.4800 H   0  0  0  0  0  0  0  0  0  0  0  0
  146.6343   73.7552  220.6018 H   0  0  0  0  0  0  0  0  0  0  0  0
  145.2140   74.3442  219.6213 H   0  0  0  0  0  0  0  0  0  0  0  0
  145.0609   72.0950  221.6700 H   0  0  0  0  0  0  0  0  0  0  0  0
  144.6444   73.7725  222.0327 H   0  0  0  0  0  0  0  0  0  0  0  0
  142.5049   77.2237  221.2797 H   0  0  0  0  0  0  0  0  0  0  0  0
  141.0970   77.7725  220.2946 H   0  0  0  0  0  0  0  0  0  0  0  0
  1  2  2  0
  2  3  1  0
  3  4  2  0
  4  5  1  0
  5  6  2  0
  5  7  1  0
  7  8  1  0
  8  9  1  0
  9 10  1  0
 10 11  2  0
 11 12  1  0
 12 13  1  0
 13 14  1  0
 14 15  1  0
 15 16  1  0
 16 17  1  0
 17 18  1  0
 18 19  1  0
 19 20  1  0
 20 21  1  0
 12 22  2  0
 22 23  1  0
 23 24  1  0
 24 25  1  0
 25 26  1  0
 26 27  1  0
 27 28  1  0
 28 29  1  0
 23 30  2  0
  9 31  1  0
  6  1  1  0
 30 10  1  0
 31  4  1  0
 21 16  1  0
 29 24  1  0
  1 32  1  0
  2 33  1  0
  3 34  1  0
  6 35  1  0
  7 36  1  0
  7 37  1  0
  8 38  1  0
  8 39  1  0
 13 40  1  0
 14 41  1  0
 14 42  1  0
 15 43  1  0
 15 44  1  0
 16 45  1  6
 17 46  1  0
 17 47  1  0
 18 48  1  0
 18 49  1  0
 19 50  1  0
 19 51  1  0
 20 52  1  0
 20 53  1  0
 21 54  1  0
 25 55  1  0
 25 56  1  0
 26 57  1  0
 26 58  1  0
 27 59  1  0
 28 60  1  0
 28 61  1  0
 29 62  1  0
 29 63  1  0
 31 64  1  0
 31 65  1  0
M  END
>  <smiles>  (79) 
c1ccc2c(c1)CCN(c1nc(NCCC3CCCCN3)nc(N3CCNCC3)n1)C2

>  <score_type>  (79) 
oracle

>  <origin>  (79) 
autodockgpu

>  <m_score__min__energy>  (79) 
-10.109999999999999

>  <m_primary>  (79) 
energy

>  <rmsd>  (79) 
5.278366776682444

>  <m_score__min__rmsd>  (79) 
5.278366776682444

>  <meeko>  (79) 
{"free_energy": -9.12, "intermolecular_energy": -10.91, "internal_energy": -0.94, "cluster_size": 26, "cluster_id": 2, "rank_in_cluster": 19}

>  <energy>  (79) 
-9.64

>  <cluster_rmsd>  (79) 
1.38

>  <cluster>  (79) 
2

$$$$

     RDKit          3D

 65 69  0  0  0  0  0  0  0  0999 V2000
  140.3430   67.5250  226.2990 C   0  0  0  0  0  0  0  0  0  0  0  0
  141.1150   68.5140  226.8870 C   0  0  0  0  0  0  0  0  0  0  0  0
  141.0730   69.8230  226.4280 C   0  0  0  0  0  0  0  0  0  0  0  0
  140.2450   70.1420  225.3610 C   0  0  0  0  0  0  0  0  0  0  0  0
  139.4870   69.1390  224.7930 C   0  0  0  0  0  0  0  0  0  0  0  0
  139.5190   67.8380  225.2370 C   0  0  0  0  0  0  0  0  0  0  0  0
  138.6140   69.5660  223.6390 C   0  0  0  0  0  0  0  0  0  0  0  0
  139.5550   70.3020  222.6950 C   0  0  0  0  0  0  0  0  0  0  0  0
  140.0970   71.4940  223.3540 N   0  0  0  0  0  0  0  0  0  0  0  0
  140.5390   72.5440  222.5370 C   0  0  0  0  0  0  0  0  0  0  0  0
  139.7160   73.5980  222.3400 N   0  0  0  0  0  0  0  0  0  0  0  0
  140.0620   74.6620  221.5680 C   0  0  0  0  0  0  0  0  0  0  0  0
  139.1040   75.7020  221.4470 N   0  0  0  0  0  0  0  0  0  0  0  0
  139.2330   76.9670  222.1760 C   0  0  0  0  0  0  0  0  0  0  0  0
  140.6840   77.1100  222.5840 C   0  0  0  0  0  0  0  0  0  0  0  0
  141.1350   78.5710  222.5150 C   0  0  1  0  0  0  0  0  0  0  0  0
  140.0130   79.4740  222.8960 C   0  0  0  0  0  0  0  0  0  0  0  0
  140.3820   80.7820  223.4920 C   0  0  0  0  0  0  0  0  0  0  0  0
  141.8190   81.1490  223.4820 C   0  0  0  0  0  0  0  0  0  0  0  0
  142.7830   80.0280  223.2260 C   0  0  0  0  0  0  0  0  0  0  0  0
  142.1900   78.7220  223.5020 N   0  0  0  0  0  0  0  0  0  0  0  0
  141.2610   74.6730  220.9750 N   0  0  0  0  0  0  0  0  0  0  0  0
  142.1160   73.6220  221.1550 C   0  0  0  0  0  0  0  0  0  0  0  0
  143.3910   73.5820  220.5290 N   0  0  0  0  0  0  0  0  0  0  0  0
  144.3660   72.5370  220.8360 C   0  0  0  0  0  0  0  0  0  0  0  0
  145.7230   72.8760  220.2790 C   0  0  0  0  0  0  0  0  0  0  0  0
  145.6840   73.1090  218.8480 N   0  0  0  0  0  0  0  0  0  0  0  0
  144.4630   73.7660  218.4270 C   0  0  0  0  0  0  0  0  0  0  0  0
  143.8070   74.5690  219.5330 C   0  0  0  0  0  0  0  0  0  0  0  0
  141.7520   72.5710  221.9300 N   0  0  0  0  0  0  0  0  0  0  0  0
  140.1490   71.5260  224.8120 C   0  0  0  0  0  0  0  0  0  0  0  0
  140.3868   66.4931  226.6776 H   0  0  0  0  0  0  0  0  0  0  0  0
  141.7718   68.2574  227.7313 H   0  0  0  0  0  0  0  0  0  0  0  0
  141.6894   70.5993  226.9048 H   0  0  0  0  0  0  0  0  0  0  0  0
  138.9019   67.0643  224.7567 H   0  0  0  0  0  0  0  0  0  0  0  0
  138.1724   68.6899  223.1416 H   0  0  0  0  0  0  0  0  0  0  0  0
  137.7731   70.1963  223.9639 H   0  0  0  0  0  0  0  0  0  0  0  0
  140.3823   69.6345  222.4121 H   0  0  0  0  0  0  0  0  0  0  0  0
  138.9981   70.6082  221.7971 H   0  0  0  0  0  0  0  0  0  0  0  0
  138.2960   75.5120  220.8030 H   0  0  0  0  0  0  0  0  0  0  0  0
  138.9406   77.8060  221.5274 H   0  0  0  0  0  0  0  0  0  0  0  0
  138.5790   76.9734  223.0604 H   0  0  0  0  0  0  0  0  0  0  0  0
  140.8049   76.7451  223.6146 H   0  0  0  0  0  0  0  0  0  0  0  0
  141.3015   76.5209  221.8900 H   0  0  0  0  0  0  0  0  0  0  0  0
  141.4685   78.8246  221.4979 H   0  0  0  0  0  0  0  0  0  0  0  0
  139.4247   79.6755  221.9886 H   0  0  0  0  0  0  0  0  0  0  0  0
  139.4683   78.9393  223.6880 H   0  0  0  0  0  0  0  0  0  0  0  0
  139.8370   81.5626  222.9409 H   0  0  0  0  0  0  0  0  0  0  0  0
  140.1189   80.6935  224.5564 H   0  0  0  0  0  0  0  0  0  0  0  0
  141.9674   81.9060  222.6979 H   0  0  0  0  0  0  0  0  0  0  0  0
  142.0411   81.5044  224.4990 H   0  0  0  0  0  0  0  0  0  0  0  0
  143.0940   80.0610  222.1714 H   0  0  0  0  0  0  0  0  0  0  0  0
  143.6431   80.1595  223.8990 H   0  0  0  0  0  0  0  0  0  0  0  0
  141.7280   78.7420  224.4380 H   0  0  0  0  0  0  0  0  0  0  0  0
  144.4435   72.4285  221.9279 H   0  0  0  0  0  0  0  0  0  0  0  0
  144.0258   71.5978  220.3754 H   0  0  0  0  0  0  0  0  0  0  0  0
  146.0933   73.7847  220.7761 H   0  0  0  0  0  0  0  0  0  0  0  0
  146.3882   72.0197  220.4642 H   0  0  0  0  0  0  0  0  0  0  0  0
  146.4630   73.7980  218.6440 H   0  0  0  0  0  0  0  0  0  0  0  0
  144.7001   74.4452  217.5948 H   0  0  0  0  0  0  0  0  0  0  0  0
  143.7541   72.9797  218.1283 H   0  0  0  0  0  0  0  0  0  0  0  0
  144.5234   75.2800  219.9704 H   0  0  0  0  0  0  0  0  0  0  0  0
  142.9578   75.1618  219.1623 H   0  0  0  0  0  0  0  0  0  0  0  0
  141.0292   72.1038  225.1304 H   0  0  0  0  0  0  0  0  0  0  0  0
  139.2298   71.9965  225.1909 H   0  0  0  0  0  0  0  0  0  0  0  0
  1  2  2  0
  2  3  1  0
  3  4  2  0
  4  5  1  0
  5  6  2  0
  5  7  1  0
  7  8  1  0
  8  9  1  0
  9 10  1  0
 10 11  2  0
 11 12  1  0
 12 13  1  0
 13 14  1  0
 14 15  1  0
 15 16  1  0
 16 17  1  0
 17 18  1  0
 18 19  1  0
 19 20  1  0
 20 21  1  0
 12 22  2  0
 22 23  1  0
 23 24  1  0
 24 25  1  0
 25 26  1  0
 26 27  1  0
 27 28  1  0
 28 29  1  0
 23 30  2  0
  9 31  1  0
  6  1  1  0
 30 10  1  0
 31  4  1  0
 21 16  1  0
 29 24  1  0
  1 32  1  0
  2 33  1  0
  3 34  1  0
  6 35  1  0
  7 36  1  0
  7 37  1  0
  8 38  1  0
  8 39  1  0
 13 40  1  0
 14 41  1  0
 14 42  1  0
 15 43  1  0
 15 44  1  0
 16 45  1  6
 17 46  1  0
 17 47  1  0
 18 48  1  0
 18 49  1  0
 19 50  1  0
 19 51  1  0
 20 52  1  0
 20 53  1  0
 21 54  1  0
 25 55  1  0
 25 56  1  0
 26 57  1  0
 26 58  1  0
 27 59  1  0
 28 60  1  0
 28 61  1  0
 29 62  1  0
 29 63  1  0
 31 64  1  0
 31 65  1  0
M  END
>  <smiles>  (80) 
c1ccc2c(c1)CCN(c1nc(NCCC3CCCCN3)nc(N3CCNCC3)n1)C2

>  <score_type>  (80) 
oracle

>  <origin>  (80) 
autodockgpu

>  <m_score__min__energy>  (80) 
-10.109999999999999

>  <m_primary>  (80) 
energy

>  <rmsd>  (80) 
11.06559824632956

>  <m_score__min__rmsd>  (80) 
11.06559824632956

>  <meeko>  (80) 
{"free_energy": -9.67, "intermolecular_energy": -11.46, "internal_energy": -0.86, "cluster_size": 24, "cluster_id": 1, "rank_in_cluster": 6}

>  <energy>  (80) 
-9.63

>  <cluster_rmsd>  (80) 
1.05

>  <cluster>  (80) 
2

$$$$

     RDKit          3D

 65 69  0  0  0  0  0  0  0  0999 V2000
  140.9780   80.8580  223.6350 C   0  0  0  0  0  0  0  0  0  0  0  0
  142.2300   80.5110  223.1510 C   0  0  0  0  0  0  0  0  0  0  0  0
  142.4080   79.3720  222.3770 C   0  0  0  0  0  0  0  0  0  0  0  0
  141.3130   78.5700  222.0880 C   0  0  0  0  0  0  0  0  0  0  0  0
  140.0780   78.9370  222.5830 C   0  0  0  0  0  0  0  0  0  0  0  0
  139.8880   80.0610  223.3500 C   0  0  0  0  0  0  0  0  0  0  0  0
  138.9410   78.0130  222.2250 C   0  0  0  0  0  0  0  0  0  0  0  0
  139.4300   76.6270  222.6230 C   0  0  0  0  0  0  0  0  0  0  0  0
  140.6090   76.2630  221.8330 N   0  0  0  0  0  0  0  0  0  0  0  0
  140.8860   74.9000  221.6660 C   0  0  0  0  0  0  0  0  0  0  0  0
  139.9520   74.0000  222.0470 N   0  0  0  0  0  0  0  0  0  0  0  0
  140.1320   72.6590  221.9200 C   0  0  0  0  0  0  0  0  0  0  0  0
  139.0700   71.8270  222.3580 N   0  0  0  0  0  0  0  0  0  0  0  0
  138.8970   71.4630  223.7670 C   0  0  0  0  0  0  0  0  0  0  0  0
  139.5700   70.1230  223.9760 C   0  0  0  0  0  0  0  0  0  0  0  0
  140.4200   70.1250  225.2490 C   0  0  1  0  0  0  0  0  0  0  0  0
  140.8110   71.5190  225.6030 C   0  0  0  0  0  0  0  0  0  0  0  0
  141.0550   71.7990  227.0400 C   0  0  0  0  0  0  0  0  0  0  0  0
  141.0710   70.6370  227.9630 C   0  0  0  0  0  0  0  0  0  0  0  0
  140.4740   69.3680  227.4320 C   0  0  0  0  0  0  0  0  0  0  0  0
  139.5710   69.6130  226.3100 N   0  0  0  0  0  0  0  0  0  0  0  0
  141.2770   72.2040  221.3990 N   0  0  0  0  0  0  0  0  0  0  0  0
  142.2410   73.0870  221.0030 C   0  0  0  0  0  0  0  0  0  0  0  0
  143.4800   72.6490  220.4630 N   0  0  0  0  0  0  0  0  0  0  0  0
  143.5470   71.8350  219.2510 C   0  0  0  0  0  0  0  0  0  0  0  0
  144.9230   71.2590  219.0540 C   0  0  0  0  0  0  0  0  0  0  0  0
  145.9460   72.2880  219.0140 N   0  0  0  0  0  0  0  0  0  0  0  0
  145.6620   73.3860  219.9160 C   0  0  0  0  0  0  0  0  0  0  0  0
  144.7660   72.9890  221.0730 C   0  0  0  0  0  0  0  0  0  0  0  0
  142.0410   74.4210  221.1380 N   0  0  0  0  0  0  0  0  0  0  0  0
  141.4280   77.3300  221.2660 C   0  0  0  0  0  0  0  0  0  0  0  0
  140.8539   81.7655  224.2441 H   0  0  0  0  0  0  0  0  0  0  0  0
  143.0960   81.1480  223.3838 H   0  0  0  0  0  0  0  0  0  0  0  0
  143.4061   79.1083  221.9971 H   0  0  0  0  0  0  0  0  0  0  0  0
  138.8883   80.3201  223.7289 H   0  0  0  0  0  0  0  0  0  0  0  0
  138.0330   78.2799  222.7856 H   0  0  0  0  0  0  0  0  0  0  0  0
  138.6771   78.0712  221.1587 H   0  0  0  0  0  0  0  0  0  0  0  0
  139.6935   76.6269  223.6910 H   0  0  0  0  0  0  0  0  0  0  0  0
  138.6305   75.8953  222.4347 H   0  0  0  0  0  0  0  0  0  0  0  0
  138.4130   71.4860  221.6110 H   0  0  0  0  0  0  0  0  0  0  0  0
  139.3639   72.2225  224.4113 H   0  0  0  0  0  0  0  0  0  0  0  0
  137.8291   71.4048  224.0241 H   0  0  0  0  0  0  0  0  0  0  0  0
  138.7989   69.3431  224.0603 H   0  0  0  0  0  0  0  0  0  0  0  0
  140.2282   69.9252  223.1171 H   0  0  0  0  0  0  0  0  0  0  0  0
  141.3294   69.5225  225.1075 H   0  0  0  0  0  0  0  0  0  0  0  0
  141.7357   71.7548  225.0559 H   0  0  0  0  0  0  0  0  0  0  0  0
  139.9447   72.1399  225.3308 H   0  0  0  0  0  0  0  0  0  0  0  0
  142.0321   72.2981  227.1189 H   0  0  0  0  0  0  0  0  0  0  0  0
  140.1952   72.4052  227.3613 H   0  0  0  0  0  0  0  0  0  0  0  0
  142.1188   70.4313  228.2272 H   0  0  0  0  0  0  0  0  0  0  0  0
  140.4405   70.9272  228.8164 H   0  0  0  0  0  0  0  0  0  0  0  0
  141.2866   68.7073  227.0956 H   0  0  0  0  0  0  0  0  0  0  0  0
  139.8910   68.9035  228.2409 H   0  0  0  0  0  0  0  0  0  0  0  0
  138.9060   70.3780  226.5620 H   0  0  0  0  0  0  0  0  0  0  0  0
  142.8222   71.0115  219.3320 H   0  0  0  0  0  0  0  0  0  0  0  0
  143.3127   72.4766  218.3888 H   0  0  0  0  0  0  0  0  0  0  0  0
  145.1425   70.5730  219.8854 H   0  0  0  0  0  0  0  0  0  0  0  0
  144.9344   70.7328  218.0881 H   0  0  0  0  0  0  0  0  0  0  0  0
  146.8290   71.8350  219.3850 H   0  0  0  0  0  0  0  0  0  0  0  0
  146.6132   73.7602  220.3223 H   0  0  0  0  0  0  0  0  0  0  0  0
  145.1296   74.1558  219.3381 H   0  0  0  0  0  0  0  0  0  0  0  0
  145.1831   72.1203  221.6034 H   0  0  0  0  0  0  0  0  0  0  0  0
  144.6691   73.7963  221.8138 H   0  0  0  0  0  0  0  0  0  0  0  0
  142.4791   77.0066  221.2438 H   0  0  0  0  0  0  0  0  0  0  0  0
  141.0758   77.5452  220.2464 H   0  0  0  0  0  0  0  0  0  0  0  0
  1  2  2  0
  2  3  1  0
  3  4  2  0
  4  5  1  0
  5  6  2  0
  5  7  1  0
  7  8  1  0
  8  9  1  0
  9 10  1  0
 10 11  2  0
 11 12  1  0
 12 13  1  0
 13 14  1  0
 14 15  1  0
 15 16  1  0
 16 17  1  0
 17 18  1  0
 18 19  1  0
 19 20  1  0
 20 21  1  0
 12 22  2  0
 22 23  1  0
 23 24  1  0
 24 25  1  0
 25 26  1  0
 26 27  1  0
 27 28  1  0
 28 29  1  0
 23 30  2  0
  9 31  1  0
  6  1  1  0
 30 10  1  0
 31  4  1  0
 21 16  1  0
 29 24  1  0
  1 32  1  0
  2 33  1  0
  3 34  1  0
  6 35  1  0
  7 36  1  0
  7 37  1  0
  8 38  1  0
  8 39  1  0
 13 40  1  0
 14 41  1  0
 14 42  1  0
 15 43  1  0
 15 44  1  0
 16 45  1  6
 17 46  1  0
 17 47  1  0
 18 48  1  0
 18 49  1  0
 19 50  1  0
 19 51  1  0
 20 52  1  0
 20 53  1  0
 21 54  1  0
 25 55  1  0
 25 56  1  0
 26 57  1  0
 26 58  1  0
 27 59  1  0
 28 60  1  0
 28 61  1  0
 29 62  1  0
 29 63  1  0
 31 64  1  0
 31 65  1  0
M  END
>  <smiles>  (81) 
c1ccc2c(c1)CCN(c1nc(NCCC3CCCCN3)nc(N3CCNCC3)n1)C2

>  <score_type>  (81) 
oracle

>  <origin>  (81) 
autodockgpu

>  <m_score__min__energy>  (81) 
-10.109999999999999

>  <m_primary>  (81) 
energy

>  <rmsd>  (81) 
5.204423942692552

>  <m_score__min__rmsd>  (81) 
5.204423942692552

>  <meeko>  (81) 
{"free_energy": -9.11, "intermolecular_energy": -10.9, "internal_energy": -0.97, "cluster_size": 26, "cluster_id": 2, "rank_in_cluster": 20}

>  <energy>  (81) 
-9.63

>  <cluster_rmsd>  (81) 
0.32

>  <cluster>  (81) 
2

$$$$

     RDKit          3D

 65 69  0  0  0  0  0  0  0  0999 V2000
  141.1550   81.2760  223.8180 C   0  0  0  0  0  0  0  0  0  0  0  0
  142.3950   80.9480  223.2950 C   0  0  0  0  0  0  0  0  0  0  0  0
  142.5570   79.8390  222.4760 C   0  0  0  0  0  0  0  0  0  0  0  0
  141.4560   79.0480  222.1790 C   0  0  0  0  0  0  0  0  0  0  0  0
  140.2320   79.3950  222.7130 C   0  0  0  0  0  0  0  0  0  0  0  0
  140.0580   80.4900  223.5250 C   0  0  0  0  0  0  0  0  0  0  0  0
  139.0870   78.4860  222.3440 C   0  0  0  0  0  0  0  0  0  0  0  0
  139.5830   77.0850  222.6790 C   0  0  0  0  0  0  0  0  0  0  0  0
  140.7460   76.7520  221.8520 N   0  0  0  0  0  0  0  0  0  0  0  0
  141.0190   75.3960  221.6280 C   0  0  0  0  0  0  0  0  0  0  0  0
  140.2590   74.4720  222.2590 N   0  0  0  0  0  0  0  0  0  0  0  0
  140.4490   73.1360  222.0990 C   0  0  0  0  0  0  0  0  0  0  0  0
  139.5780   72.2770  222.8170 N   0  0  0  0  0  0  0  0  0  0  0  0
  139.9500   70.9000  223.1570 C   0  0  0  0  0  0  0  0  0  0  0  0
  139.2010   70.5250  224.4180 C   0  0  0  0  0  0  0  0  0  0  0  0
  140.1680   70.1870  225.5540 C   0  0  1  0  0  0  0  0  0  0  0  0
  140.6340   71.4350  226.2210 C   0  0  0  0  0  0  0  0  0  0  0  0
  141.0220   71.3240  227.6490 C   0  0  0  0  0  0  0  0  0  0  0  0
  141.0910   69.9600  228.2280 C   0  0  0  0  0  0  0  0  0  0  0  0
  140.4070   68.8780  227.4450 C   0  0  0  0  0  0  0  0  0  0  0  0
  139.4090   69.4150  226.5230 N   0  0  0  0  0  0  0  0  0  0  0  0
  141.4250   72.7100  221.2900 N   0  0  0  0  0  0  0  0  0  0  0  0
  142.2110   73.6180  220.6380 C   0  0  0  0  0  0  0  0  0  0  0  0
  143.2710   73.2120  219.7850 N   0  0  0  0  0  0  0  0  0  0  0  0
  143.9290   74.1470  218.8740 C   0  0  0  0  0  0  0  0  0  0  0  0
  144.8000   73.4240  217.8830 C   0  0  0  0  0  0  0  0  0  0  0  0
  145.7930   72.5900  218.5340 N   0  0  0  0  0  0  0  0  0  0  0  0
  145.2930   71.9800  219.7500 C   0  0  0  0  0  0  0  0  0  0  0  0
  143.7830   71.8420  219.7680 C   0  0  0  0  0  0  0  0  0  0  0  0
  142.0040   74.9470  220.8100 N   0  0  0  0  0  0  0  0  0  0  0  0
  141.5540   77.8400  221.3090 C   0  0  0  0  0  0  0  0  0  0  0  0
  141.0445   82.1592  224.4643 H   0  0  0  0  0  0  0  0  0  0  0  0
  143.2658   81.5767  223.5326 H   0  0  0  0  0  0  0  0  0  0  0  0
  143.5472   79.5898  222.0669 H   0  0  0  0  0  0  0  0  0  0  0  0
  139.0662   80.7351  223.9328 H   0  0  0  0  0  0  0  0  0  0  0  0
  138.1911   78.7317  222.9331 H   0  0  0  0  0  0  0  0  0  0  0  0
  138.8010   78.5848  221.2864 H   0  0  0  0  0  0  0  0  0  0  0  0
  139.8677   77.0439  223.7407 H   0  0  0  0  0  0  0  0  0  0  0  0
  138.7795   76.3609  222.4789 H   0  0  0  0  0  0  0  0  0  0  0  0
  138.6500   72.6860  223.0930 H   0  0  0  0  0  0  0  0  0  0  0  0
  139.6693   70.2218  222.3376 H   0  0  0  0  0  0  0  0  0  0  0  0
  141.0359   70.8190  223.3126 H   0  0  0  0  0  0  0  0  0  0  0  0
  138.5682   71.3709  224.7248 H   0  0  0  0  0  0  0  0  0  0  0  0
  138.5858   69.6377  224.2077 H   0  0  0  0  0  0  0  0  0  0  0  0
  141.0410   69.6401  225.1682 H   0  0  0  0  0  0  0  0  0  0  0  0
  141.5095   71.8025  225.6656 H   0  0  0  0  0  0  0  0  0  0  0  0
  139.7654   72.1098  226.2097 H   0  0  0  0  0  0  0  0  0  0  0  0
  142.0167   71.7807  227.7583 H   0  0  0  0  0  0  0  0  0  0  0  0
  140.2151   71.8267  228.2023 H   0  0  0  0  0  0  0  0  0  0  0  0
  142.1526   69.6876  228.3222 H   0  0  0  0  0  0  0  0  0  0  0  0
  140.5544   70.0171  229.1865 H   0  0  0  0  0  0  0  0  0  0  0  0
  141.1630   68.3259  226.8674 H   0  0  0  0  0  0  0  0  0  0  0  0
  139.8901   68.2187  228.1578 H   0  0  0  0  0  0  0  0  0  0  0  0
  138.7950   70.0890  227.0320 H   0  0  0  0  0  0  0  0  0  0  0  0
  143.1615   74.7156  218.3284 H   0  0  0  0  0  0  0  0  0  0  0  0
  144.5644   74.8207  219.4676 H   0  0  0  0  0  0  0  0  0  0  0  0
  144.1639   72.7886  217.2493 H   0  0  0  0  0  0  0  0  0  0  0  0
  145.3317   74.1794  217.2857 H   0  0  0  0  0  0  0  0  0  0  0  0
  145.9800   71.7870  217.8680 H   0  0  0  0  0  0  0  0  0  0  0  0
  145.7374   70.9785  219.8478 H   0  0  0  0  0  0  0  0  0  0  0  0
  145.5726   72.6377  220.5862 H   0  0  0  0  0  0  0  0  0  0  0  0
  143.4338   71.3112  218.8701 H   0  0  0  0  0  0  0  0  0  0  0  0
  143.4342   71.2628  220.6357 H   0  0  0  0  0  0  0  0  0  0  0  0
  142.6044   77.5180  221.2536 H   0  0  0  0  0  0  0  0  0  0  0  0
  141.1816   78.0931  220.3054 H   0  0  0  0  0  0  0  0  0  0  0  0
  1  2  2  0
  2  3  1  0
  3  4  2  0
  4  5  1  0
  5  6  2  0
  5  7  1  0
  7  8  1  0
  8  9  1  0
  9 10  1  0
 10 11  2  0
 11 12  1  0
 12 13  1  0
 13 14  1  0
 14 15  1  0
 15 16  1  0
 16 17  1  0
 17 18  1  0
 18 19  1  0
 19 20  1  0
 20 21  1  0
 12 22  2  0
 22 23  1  0
 23 24  1  0
 24 25  1  0
 25 26  1  0
 26 27  1  0
 27 28  1  0
 28 29  1  0
 23 30  2  0
  9 31  1  0
  6  1  1  0
 30 10  1  0
 31  4  1  0
 21 16  1  0
 29 24  1  0
  1 32  1  0
  2 33  1  0
  3 34  1  0
  6 35  1  0
  7 36  1  0
  7 37  1  0
  8 38  1  0
  8 39  1  0
 13 40  1  0
 14 41  1  0
 14 42  1  0
 15 43  1  0
 15 44  1  0
 16 45  1  6
 17 46  1  0
 17 47  1  0
 18 48  1  0
 18 49  1  0
 19 50  1  0
 19 51  1  0
 20 52  1  0
 20 53  1  0
 21 54  1  0
 25 55  1  0
 25 56  1  0
 26 57  1  0
 26 58  1  0
 27 59  1  0
 28 60  1  0
 28 61  1  0
 29 62  1  0
 29 63  1  0
 31 64  1  0
 31 65  1  0
M  END
>  <smiles>  (82) 
c1ccc2c(c1)CCN(c1nc(NCCC3CCCCN3)nc(N3CCNCC3)n1)C2

>  <score_type>  (82) 
oracle

>  <origin>  (82) 
autodockgpu

>  <m_score__min__energy>  (82) 
-10.109999999999999

>  <m_primary>  (82) 
energy

>  <rmsd>  (82) 
5.368973572946534

>  <m_score__min__rmsd>  (82) 
5.368973572946534

>  <meeko>  (82) 
{"free_energy": -9.63, "intermolecular_energy": -11.42, "internal_energy": -0.79, "cluster_size": 26, "cluster_id": 2, "rank_in_cluster": 6}

>  <energy>  (82) 
-9.61

>  <cluster_rmsd>  (82) 
1.1

>  <cluster>  (82) 
2

$$$$

     RDKit          3D

 65 69  0  0  0  0  0  0  0  0999 V2000
  141.2180   81.2600  223.8210 C   0  0  0  0  0  0  0  0  0  0  0  0
  142.4510   80.8660  223.3250 C   0  0  0  0  0  0  0  0  0  0  0  0
  142.5730   79.7420  222.5200 C   0  0  0  0  0  0  0  0  0  0  0  0
  141.4400   79.0020  222.2110 C   0  0  0  0  0  0  0  0  0  0  0  0
  140.2250   79.4150  222.7170 C   0  0  0  0  0  0  0  0  0  0  0  0
  140.0900   80.5260  223.5150 C   0  0  0  0  0  0  0  0  0  0  0  0
  139.0430   78.5590  222.3360 C   0  0  0  0  0  0  0  0  0  0  0  0
  139.4640   77.1390  222.6940 C   0  0  0  0  0  0  0  0  0  0  0  0
  140.6240   76.7410  221.8920 N   0  0  0  0  0  0  0  0  0  0  0  0
  140.8340   75.3700  221.6870 C   0  0  0  0  0  0  0  0  0  0  0  0
  139.9770   74.4940  222.2570 N   0  0  0  0  0  0  0  0  0  0  0  0
  140.1000   73.1480  222.1090 C   0  0  0  0  0  0  0  0  0  0  0  0
  139.1300   72.3430  222.7590 N   0  0  0  0  0  0  0  0  0  0  0  0
  138.9800   70.9150  222.4630 C   0  0  0  0  0  0  0  0  0  0  0  0
  139.9190   70.1610  223.3800 C   0  0  0  0  0  0  0  0  0  0  0  0
  139.8560   70.7100  224.8070 C   0  0  1  0  0  0  0  0  0  0  0  0
  139.4150   69.6430  225.7490 C   0  0  0  0  0  0  0  0  0  0  0  0
  139.8830   69.7570  227.1530 C   0  0  0  0  0  0  0  0  0  0  0  0
  140.5840   71.0090  227.5330 C   0  0  0  0  0  0  0  0  0  0  0  0
  141.0800   71.8550  226.3990 C   0  0  0  0  0  0  0  0  0  0  0  0
  141.2120   71.0910  225.1610 N   0  0  0  0  0  0  0  0  0  0  0  0
  141.1080   72.6650  221.3750 N   0  0  0  0  0  0  0  0  0  0  0  0
  141.9920   73.5250  220.7860 C   0  0  0  0  0  0  0  0  0  0  0  0
  143.0890   73.0550  220.0150 N   0  0  0  0  0  0  0  0  0  0  0  0
  143.3250   73.5200  218.6490 C   0  0  0  0  0  0  0  0  0  0  0  0
  144.3520   72.6700  217.9520 C   0  0  0  0  0  0  0  0  0  0  0  0
  145.6060   72.6220  218.6800 N   0  0  0  0  0  0  0  0  0  0  0  0
  145.4140   72.6230  220.1160 C   0  0  0  0  0  0  0  0  0  0  0  0
  144.0570   72.0910  220.5350 C   0  0  0  0  0  0  0  0  0  0  0  0
  141.8500   74.8630  220.9450 N   0  0  0  0  0  0  0  0  0  0  0  0
  141.4940   77.7820  221.3540 C   0  0  0  0  0  0  0  0  0  0  0  0
  141.1389   82.1545  224.4563 H   0  0  0  0  0  0  0  0  0  0  0  0
  143.3471   81.4536  223.5734 H   0  0  0  0  0  0  0  0  0  0  0  0
  143.5569   79.4408  222.1311 H   0  0  0  0  0  0  0  0  0  0  0  0
  139.1041   80.8237  223.9014 H   0  0  0  0  0  0  0  0  0  0  0  0
  138.1499   78.8545  222.9062 H   0  0  0  0  0  0  0  0  0  0  0  0
  138.7807   78.6603  221.2725 H   0  0  0  0  0  0  0  0  0  0  0  0
  139.7272   77.0956  223.7612 H   0  0  0  0  0  0  0  0  0  0  0  0
  138.6298   76.4527  222.4863 H   0  0  0  0  0  0  0  0  0  0  0  0
  138.5240   72.8300  223.4650 H   0  0  0  0  0  0  0  0  0  0  0  0
  137.9421   70.6001  222.6464 H   0  0  0  0  0  0  0  0  0  0  0  0
  139.2189   70.7099  221.4090 H   0  0  0  0  0  0  0  0  0  0  0  0
  139.6339   69.0986  223.3911 H   0  0  0  0  0  0  0  0  0  0  0  0
  140.9457   70.2824  223.0044 H   0  0  0  0  0  0  0  0  0  0  0  0
  139.1517   71.5529  224.8657 H   0  0  0  0  0  0  0  0  0  0  0  0
  138.3151   69.6450  225.7633 H   0  0  0  0  0  0  0  0  0  0  0  0
  139.8684   68.7160  225.3679 H   0  0  0  0  0  0  0  0  0  0  0  0
  139.0022   69.6596  227.8047 H   0  0  0  0  0  0  0  0  0  0  0  0
  140.6363   68.9635  227.2670 H   0  0  0  0  0  0  0  0  0  0  0  0
  139.8868   71.6180  228.1272 H   0  0  0  0  0  0  0  0  0  0  0  0
  141.4833   70.6907  228.0807 H   0  0  0  0  0  0  0  0  0  0  0  0
  140.3698   72.6785  226.2337 H   0  0  0  0  0  0  0  0  0  0  0  0
  142.0758   72.2355  226.6703 H   0  0  0  0  0  0  0  0  0  0  0  0
  141.7340   70.2070  225.3530 H   0  0  0  0  0  0  0  0  0  0  0  0
  142.3807   73.4742  218.0867 H   0  0  0  0  0  0  0  0  0  0  0  0
  143.7015   74.5526  218.6939 H   0  0  0  0  0  0  0  0  0  0  0  0
  143.9590   71.6472  217.8547 H   0  0  0  0  0  0  0  0  0  0  0  0
  144.5494   73.1172  216.9666 H   0  0  0  0  0  0  0  0  0  0  0  0
  146.0400   71.6820  218.4510 H   0  0  0  0  0  0  0  0  0  0  0  0
  146.1927   71.9953  220.5738 H   0  0  0  0  0  0  0  0  0  0  0  0
  145.4755   73.6678  220.4545 H   0  0  0  0  0  0  0  0  0  0  0  0
  143.8819   71.0959  220.1000 H   0  0  0  0  0  0  0  0  0  0  0  0
  143.9791   71.9788  221.6265 H   0  0  0  0  0  0  0  0  0  0  0  0
  142.5280   77.4083  221.3209 H   0  0  0  0  0  0  0  0  0  0  0  0
  141.1527   78.0429  220.3414 H   0  0  0  0  0  0  0  0  0  0  0  0
  1  2  2  0
  2  3  1  0
  3  4  2  0
  4  5  1  0
  5  6  2  0
  5  7  1  0
  7  8  1  0
  8  9  1  0
  9 10  1  0
 10 11  2  0
 11 12  1  0
 12 13  1  0
 13 14  1  0
 14 15  1  0
 15 16  1  0
 16 17  1  0
 17 18  1  0
 18 19  1  0
 19 20  1  0
 20 21  1  0
 12 22  2  0
 22 23  1  0
 23 24  1  0
 24 25  1  0
 25 26  1  0
 26 27  1  0
 27 28  1  0
 28 29  1  0
 23 30  2  0
  9 31  1  0
  6  1  1  0
 30 10  1  0
 31  4  1  0
 21 16  1  0
 29 24  1  0
  1 32  1  0
  2 33  1  0
  3 34  1  0
  6 35  1  0
  7 36  1  0
  7 37  1  0
  8 38  1  0
  8 39  1  0
 13 40  1  0
 14 41  1  0
 14 42  1  0
 15 43  1  0
 15 44  1  0
 16 45  1  6
 17 46  1  0
 17 47  1  0
 18 48  1  0
 18 49  1  0
 19 50  1  0
 19 51  1  0
 20 52  1  0
 20 53  1  0
 21 54  1  0
 25 55  1  0
 25 56  1  0
 26 57  1  0
 26 58  1  0
 27 59  1  0
 28 60  1  0
 28 61  1  0
 29 62  1  0
 29 63  1  0
 31 64  1  0
 31 65  1  0
M  END
>  <smiles>  (83) 
c1ccc2c(c1)CCN(c1nc(NCCC3CCCCN3)nc(N3CCNCC3)n1)C2

>  <score_type>  (83) 
oracle

>  <origin>  (83) 
autodockgpu

>  <m_score__min__energy>  (83) 
-10.109999999999999

>  <m_primary>  (83) 
energy

>  <rmsd>  (83) 
5.400608084286634

>  <m_score__min__rmsd>  (83) 
5.400608084286634

>  <meeko>  (83) 
{"free_energy": -9.3, "intermolecular_energy": -11.09, "internal_energy": -0.97, "cluster_size": 26, "cluster_id": 2, "rank_in_cluster": 16}

>  <energy>  (83) 
-9.61

>  <cluster_rmsd>  (83) 
1.06

>  <cluster>  (83) 
2

$$$$

     RDKit          3D

 65 69  0  0  0  0  0  0  0  0999 V2000
  139.9950   67.7900  225.7200 C   0  0  0  0  0  0  0  0  0  0  0  0
  140.8520   68.6630  226.3700 C   0  0  0  0  0  0  0  0  0  0  0  0
  140.9300   69.9990  225.9990 C   0  0  0  0  0  0  0  0  0  0  0  0
  140.1360   70.4610  224.9590 C   0  0  0  0  0  0  0  0  0  0  0  0
  139.2920   69.5710  224.3280 C   0  0  0  0  0  0  0  0  0  0  0  0
  139.2050   68.2470  224.6850 C   0  0  0  0  0  0  0  0  0  0  0  0
  138.4640   70.1510  223.2080 C   0  0  0  0  0  0  0  0  0  0  0  0
  139.4710   70.8610  222.3120 C   0  0  0  0  0  0  0  0  0  0  0  0
  140.1170   71.9520  223.0460 N   0  0  0  0  0  0  0  0  0  0  0  0
  140.6540   73.0100  222.3000 C   0  0  0  0  0  0  0  0  0  0  0  0
  139.9520   74.1620  222.2150 N   0  0  0  0  0  0  0  0  0  0  0  0
  140.3960   75.2400  221.5170 C   0  0  0  0  0  0  0  0  0  0  0  0
  139.5610   76.3870  221.5130 N   0  0  0  0  0  0  0  0  0  0  0  0
  139.4420   77.2590  220.3400 C   0  0  0  0  0  0  0  0  0  0  0  0
  140.7460   78.0150  220.2030 C   0  0  0  0  0  0  0  0  0  0  0  0
  141.2570   78.4850  221.5670 C   0  0  1  0  0  0  0  0  0  0  0  0
  142.1140   79.6930  221.4050 C   0  0  0  0  0  0  0  0  0  0  0  0
  142.1690   80.6310  222.5540 C   0  0  0  0  0  0  0  0  0  0  0  0
  141.5250   80.1930  223.8170 C   0  0  0  0  0  0  0  0  0  0  0  0
  140.5700   79.0410  223.7030 C   0  0  0  0  0  0  0  0  0  0  0  0
  140.0850   78.8640  222.3360 N   0  0  0  0  0  0  0  0  0  0  0  0
  141.5720   75.1660  220.8850 N   0  0  0  0  0  0  0  0  0  0  0  0
  142.3070   74.0150  220.9520 C   0  0  0  0  0  0  0  0  0  0  0  0
  143.5520   73.8840  220.2800 N   0  0  0  0  0  0  0  0  0  0  0  0
  144.6460   73.0900  220.8340 C   0  0  0  0  0  0  0  0  0  0  0  0
  145.9340   73.3450  220.1000 C   0  0  0  0  0  0  0  0  0  0  0  0
  145.8120   73.0900  218.6770 N   0  0  0  0  0  0  0  0  0  0  0  0
  144.5100   73.4610  218.1570 C   0  0  0  0  0  0  0  0  0  0  0  0
  143.8180   74.5220  218.9910 C   0  0  0  0  0  0  0  0  0  0  0  0
  141.8460   72.9510  221.6540 N   0  0  0  0  0  0  0  0  0  0  0  0
  140.1680   71.8820  224.5030 C   0  0  0  0  0  0  0  0  0  0  0  0
  139.9444   66.7353  226.0281 H   0  0  0  0  0  0  0  0  0  0  0  0
  141.4806   68.2921  227.1930 H   0  0  0  0  0  0  0  0  0  0  0  0
  141.6133   70.6831  226.5235 H   0  0  0  0  0  0  0  0  0  0  0  0
  138.5207   67.5663  224.1574 H   0  0  0  0  0  0  0  0  0  0  0  0
  137.9467   69.3534  222.6546 H   0  0  0  0  0  0  0  0  0  0  0  0
  137.6822   70.8312  223.5769 H   0  0  0  0  0  0  0  0  0  0  0  0
  140.2352   70.1417  221.9824 H   0  0  0  0  0  0  0  0  0  0  0  0
  138.9461   71.2759  221.4389 H   0  0  0  0  0  0  0  0  0  0  0  0
  139.0310   76.5750  222.4000 H   0  0  0  0  0  0  0  0  0  0  0  0
  139.2616   76.6544  219.4389 H   0  0  0  0  0  0  0  0  0  0  0  0
  138.5997   77.9564  220.4587 H   0  0  0  0  0  0  0  0  0  0  0  0
  141.4977   77.3546  219.7459 H   0  0  0  0  0  0  0  0  0  0  0  0
  140.5725   78.8989  219.5717 H   0  0  0  0  0  0  0  0  0  0  0  0
  141.8435   77.6923  222.0546 H   0  0  0  0  0  0  0  0  0  0  0  0
  143.1398   79.3495  221.2059 H   0  0  0  0  0  0  0  0  0  0  0  0
  141.6539   80.2658  220.5864 H   0  0  0  0  0  0  0  0  0  0  0  0
  143.2295   80.8247  222.7729 H   0  0  0  0  0  0  0  0  0  0  0  0
  141.5920   81.5100  222.2309 H   0  0  0  0  0  0  0  0  0  0  0  0
  142.3215   79.9019  224.5177 H   0  0  0  0  0  0  0  0  0  0  0  0
  140.9200   81.0478  224.1535 H   0  0  0  0  0  0  0  0  0  0  0  0
  141.0840   78.1213  224.0192 H   0  0  0  0  0  0  0  0  0  0  0  0
  139.7031   79.2540  224.3457 H   0  0  0  0  0  0  0  0  0  0  0  0
  139.7620   79.7840  221.9610 H   0  0  0  0  0  0  0  0  0  0  0  0
  144.7793   73.3540  221.8935 H   0  0  0  0  0  0  0  0  0  0  0  0
  144.3907   72.0254  220.7267 H   0  0  0  0  0  0  0  0  0  0  0  0
  146.2245   74.3955  220.2483 H   0  0  0  0  0  0  0  0  0  0  0  0
  146.6943   72.6595  220.5026 H   0  0  0  0  0  0  0  0  0  0  0  0
  146.5030   73.7400  218.2040 H   0  0  0  0  0  0  0  0  0  0  0  0
  144.6380   73.8471  217.1350 H   0  0  0  0  0  0  0  0  0  0  0  0
  143.8782   72.5609  218.1804 H   0  0  0  0  0  0  0  0  0  0  0  0
  144.4716   75.3971  219.1214 H   0  0  0  0  0  0  0  0  0  0  0  0
  142.8955   74.8834  218.5132 H   0  0  0  0  0  0  0  0  0  0  0  0
  141.0964   72.3547  224.8560 H   0  0  0  0  0  0  0  0  0  0  0  0
  139.2944   72.4080  224.9155 H   0  0  0  0  0  0  0  0  0  0  0  0
  1  2  2  0
  2  3  1  0
  3  4  2  0
  4  5  1  0
  5  6  2  0
  5  7  1  0
  7  8  1  0
  8  9  1  0
  9 10  1  0
 10 11  2  0
 11 12  1  0
 12 13  1  0
 13 14  1  0
 14 15  1  0
 15 16  1  0
 16 17  1  0
 17 18  1  0
 18 19  1  0
 19 20  1  0
 20 21  1  0
 12 22  2  0
 22 23  1  0
 23 24  1  0
 24 25  1  0
 25 26  1  0
 26 27  1  0
 27 28  1  0
 28 29  1  0
 23 30  2  0
  9 31  1  0
  6  1  1  0
 30 10  1  0
 31  4  1  0
 21 16  1  0
 29 24  1  0
  1 32  1  0
  2 33  1  0
  3 34  1  0
  6 35  1  0
  7 36  1  0
  7 37  1  0
  8 38  1  0
  8 39  1  0
 13 40  1  0
 14 41  1  0
 14 42  1  0
 15 43  1  0
 15 44  1  0
 16 45  1  1
 17 46  1  0
 17 47  1  0
 18 48  1  0
 18 49  1  0
 19 50  1  0
 19 51  1  0
 20 52  1  0
 20 53  1  0
 21 54  1  0
 25 55  1  0
 25 56  1  0
 26 57  1  0
 26 58  1  0
 27 59  1  0
 28 60  1  0
 28 61  1  0
 29 62  1  0
 29 63  1  0
 31 64  1  0
 31 65  1  0
M  END
>  <smiles>  (84) 
c1ccc2c(c1)CCN(c1nc(NCCC3CCCCN3)nc(N3CCNCC3)n1)C2

>  <score_type>  (84) 
oracle

>  <origin>  (84) 
autodockgpu

>  <m_score__min__energy>  (84) 
-10.109999999999999

>  <m_primary>  (84) 
energy

>  <rmsd>  (84) 
10.587232983589601

>  <m_score__min__rmsd>  (84) 
10.587232983589601

>  <meeko>  (84) 
{"free_energy": -8.64, "intermolecular_energy": -10.43, "internal_energy": -1.14, "cluster_size": 24, "cluster_id": 1, "rank_in_cluster": 19}

>  <energy>  (84) 
-9.59

>  <cluster_rmsd>  (84) 
0.89

>  <cluster>  (84) 
2

$$$$

     RDKit          3D

 65 69  0  0  0  0  0  0  0  0999 V2000
  140.9860   81.2000  223.7940 C   0  0  0  0  0  0  0  0  0  0  0  0
  142.2370   80.8710  223.2990 C   0  0  0  0  0  0  0  0  0  0  0  0
  142.4200   79.7490  222.5020 C   0  0  0  0  0  0  0  0  0  0  0  0
  141.3300   78.9450  222.2010 C   0  0  0  0  0  0  0  0  0  0  0  0
  140.0940   79.2940  222.7070 C   0  0  0  0  0  0  0  0  0  0  0  0
  139.8990   80.4020  223.4970 C   0  0  0  0  0  0  0  0  0  0  0  0
  138.9610   78.3710  222.3350 C   0  0  0  0  0  0  0  0  0  0  0  0
  139.4610   76.9800  222.7030 C   0  0  0  0  0  0  0  0  0  0  0  0
  140.6400   76.6400  221.9020 N   0  0  0  0  0  0  0  0  0  0  0  0
  140.9240   75.2810  221.7070 C   0  0  0  0  0  0  0  0  0  0  0  0
  140.1220   74.3640  222.2910 N   0  0  0  0  0  0  0  0  0  0  0  0
  140.3200   73.0260  222.1540 C   0  0  0  0  0  0  0  0  0  0  0  0
  139.4020   72.1720  222.8180 N   0  0  0  0  0  0  0  0  0  0  0  0
  139.5300   70.7130  222.7820 C   0  0  0  0  0  0  0  0  0  0  0  0
  138.7560   70.1600  223.9590 C   0  0  0  0  0  0  0  0  0  0  0  0
  139.6830   69.4280  224.9340 C   0  0  1  0  0  0  0  0  0  0  0  0
  139.9700   70.2900  226.1150 C   0  0  0  0  0  0  0  0  0  0  0  0
  140.2790   69.5950  227.3890 C   0  0  0  0  0  0  0  0  0  0  0  0
  140.4570   68.1230  227.3320 C   0  0  0  0  0  0  0  0  0  0  0  0
  139.9430   67.4470  226.0950 C   0  0  0  0  0  0  0  0  0  0  0  0
  138.9520   68.2610  225.3960 N   0  0  0  0  0  0  0  0  0  0  0  0
  141.3480   72.5930  221.4150 N   0  0  0  0  0  0  0  0  0  0  0  0
  142.1780   73.4960  220.8120 C   0  0  0  0  0  0  0  0  0  0  0  0
  143.2930   73.0820  220.0350 N   0  0  0  0  0  0  0  0  0  0  0  0
  144.5880   73.7530  220.1290 C   0  0  0  0  0  0  0  0  0  0  0  0
  145.5040   73.3320  219.0120 C   0  0  0  0  0  0  0  0  0  0  0  0
  145.6960   71.8940  218.9750 N   0  0  0  0  0  0  0  0  0  0  0  0
  144.4970   71.1660  219.3410 C   0  0  0  0  0  0  0  0  0  0  0  0
  143.2260   71.9570  219.1030 C   0  0  0  0  0  0  0  0  0  0  0  0
  141.9620   74.8260  220.9600 N   0  0  0  0  0  0  0  0  0  0  0  0
  141.4500   77.7230  221.3540 C   0  0  0  0  0  0  0  0  0  0  0  0
  140.8588   82.0942  224.4218 H   0  0  0  0  0  0  0  0  0  0  0  0
  143.0996   81.5091  223.5413 H   0  0  0  0  0  0  0  0  0  0  0  0
  143.4185   79.5001  222.1133 H   0  0  0  0  0  0  0  0  0  0  0  0
  138.8990   80.6475  223.8840 H   0  0  0  0  0  0  0  0  0  0  0  0
  138.0538   78.6207  222.9048 H   0  0  0  0  0  0  0  0  0  0  0  0
  138.6916   78.4493  221.2714 H   0  0  0  0  0  0  0  0  0  0  0  0
  139.7280   76.9599  223.7699 H   0  0  0  0  0  0  0  0  0  0  0  0
  138.6658   76.2470  222.5021 H   0  0  0  0  0  0  0  0  0  0  0  0
  138.6230   72.6490  223.3380 H   0  0  0  0  0  0  0  0  0  0  0  0
  139.1137   70.3224  221.8417 H   0  0  0  0  0  0  0  0  0  0  0  0
  140.5873   70.4150  222.8388 H   0  0  0  0  0  0  0  0  0  0  0  0
  138.2630   70.9898  224.4865 H   0  0  0  0  0  0  0  0  0  0  0  0
  138.0107   69.4444  223.5817 H   0  0  0  0  0  0  0  0  0  0  0  0
  140.6318   69.1659  224.4429 H   0  0  0  0  0  0  0  0  0  0  0  0
  140.8333   70.9234  225.8632 H   0  0  0  0  0  0  0  0  0  0  0  0
  139.0362   70.8395  226.3051 H   0  0  0  0  0  0  0  0  0  0  0  0
  141.2109   70.0261  227.7837 H   0  0  0  0  0  0  0  0  0  0  0  0
  139.3906   69.7492  228.0191 H   0  0  0  0  0  0  0  0  0  0  0  0
  141.5336   67.9107  227.4092 H   0  0  0  0  0  0  0  0  0  0  0  0
  139.8586   67.7190  228.1619 H   0  0  0  0  0  0  0  0  0  0  0  0
  140.7883   67.2573  225.4171 H   0  0  0  0  0  0  0  0  0  0  0  0
  139.4570   66.5082  226.3989 H   0  0  0  0  0  0  0  0  0  0  0  0
  138.2390   68.6010  226.0790 H   0  0  0  0  0  0  0  0  0  0  0  0
  144.4328   74.8406  220.0746 H   0  0  0  0  0  0  0  0  0  0  0  0
  145.0551   73.4740  221.0850 H   0  0  0  0  0  0  0  0  0  0  0  0
  145.0687   73.6563  218.0552 H   0  0  0  0  0  0  0  0  0  0  0  0
  146.4845   73.8000  219.1839 H   0  0  0  0  0  0  0  0  0  0  0  0
  145.8780   71.6500  217.9600 H   0  0  0  0  0  0  0  0  0  0  0  0
  144.4519   70.2429  218.7444 H   0  0  0  0  0  0  0  0  0  0  0  0
  144.5563   70.9566  220.4193 H   0  0  0  0  0  0  0  0  0  0  0  0
  143.1855   72.3183  218.0648 H   0  0  0  0  0  0  0  0  0  0  0  0
  142.3257   71.3452  219.2618 H   0  0  0  0  0  0  0  0  0  0  0  0
  142.5031   77.4068  221.3218 H   0  0  0  0  0  0  0  0  0  0  0  0
  141.0930   77.9564  220.3401 H   0  0  0  0  0  0  0  0  0  0  0  0
  1  2  2  0
  2  3  1  0
  3  4  2  0
  4  5  1  0
  5  6  2  0
  5  7  1  0
  7  8  1  0
  8  9  1  0
  9 10  1  0
 10 11  2  0
 11 12  1  0
 12 13  1  0
 13 14  1  0
 14 15  1  0
 15 16  1  0
 16 17  1  0
 17 18  1  0
 18 19  1  0
 19 20  1  0
 20 21  1  0
 12 22  2  0
 22 23  1  0
 23 24  1  0
 24 25  1  0
 25 26  1  0
 26 27  1  0
 27 28  1  0
 28 29  1  0
 23 30  2  0
  9 31  1  0
  6  1  1  0
 30 10  1  0
 31  4  1  0
 21 16  1  0
 29 24  1  0
  1 32  1  0
  2 33  1  0
  3 34  1  0
  6 35  1  0
  7 36  1  0
  7 37  1  0
  8 38  1  0
  8 39  1  0
 13 40  1  0
 14 41  1  0
 14 42  1  0
 15 43  1  0
 15 44  1  0
 16 45  1  6
 17 46  1  0
 17 47  1  0
 18 48  1  0
 18 49  1  0
 19 50  1  0
 19 51  1  0
 20 52  1  0
 20 53  1  0
 21 54  1  0
 25 55  1  0
 25 56  1  0
 26 57  1  0
 26 58  1  0
 27 59  1  0
 28 60  1  0
 28 61  1  0
 29 62  1  0
 29 63  1  0
 31 64  1  0
 31 65  1  0
M  END
>  <smiles>  (85) 
c1ccc2c(c1)CCN(c1nc(NCCC3CCCCN3)nc(N3CCNCC3)n1)C2

>  <score_type>  (85) 
oracle

>  <origin>  (85) 
autodockgpu

>  <m_score__min__energy>  (85) 
-10.109999999999999

>  <m_primary>  (85) 
energy

>  <rmsd>  (85) 
5.331761169800151

>  <m_score__min__rmsd>  (85) 
5.331761169800151

>  <meeko>  (85) 
{"free_energy": -9.58, "intermolecular_energy": -11.37, "internal_energy": -0.75, "cluster_size": 26, "cluster_id": 2, "rank_in_cluster": 11}

>  <energy>  (85) 
-9.58

>  <cluster_rmsd>  (85) 
1.43

>  <cluster>  (85) 
2

$$$$

     RDKit          3D

 65 69  0  0  0  0  0  0  0  0999 V2000
  141.6340   81.3670  223.9190 C   0  0  0  0  0  0  0  0  0  0  0  0
  142.8630   80.9060  223.4770 C   0  0  0  0  0  0  0  0  0  0  0  0
  142.9570   79.7940  222.6510 C   0  0  0  0  0  0  0  0  0  0  0  0
  141.7980   79.1360  222.2640 C   0  0  0  0  0  0  0  0  0  0  0  0
  140.5860   79.6150  222.7190 C   0  0  0  0  0  0  0  0  0  0  0  0
  140.4790   80.7140  223.5370 C   0  0  0  0  0  0  0  0  0  0  0  0
  139.3750   78.8450  222.2550 C   0  0  0  0  0  0  0  0  0  0  0  0
  139.6860   77.3940  222.5980 C   0  0  0  0  0  0  0  0  0  0  0  0
  140.8590   76.9390  221.8470 N   0  0  0  0  0  0  0  0  0  0  0  0
  140.9930   75.5630  221.6180 C   0  0  0  0  0  0  0  0  0  0  0  0
  140.0110   74.7390  222.0470 N   0  0  0  0  0  0  0  0  0  0  0  0
  140.0540   73.3930  221.8650 C   0  0  0  0  0  0  0  0  0  0  0  0
  138.9550   72.6460  222.3620 N   0  0  0  0  0  0  0  0  0  0  0  0
  137.9190   72.1040  221.4780 C   0  0  0  0  0  0  0  0  0  0  0  0
  137.3440   73.2610  220.6900 C   0  0  0  0  0  0  0  0  0  0  0  0
  136.5010   74.1730  221.5850 C   0  0  1  0  0  0  0  0  0  0  0  0
  135.9500   73.4000  222.7330 C   0  0  0  0  0  0  0  0  0  0  0  0
  135.6780   74.1580  223.9800 C   0  0  0  0  0  0  0  0  0  0  0  0
  135.8000   75.6350  223.9130 C   0  0  0  0  0  0  0  0  0  0  0  0
  136.5410   76.1820  222.7290 C   0  0  0  0  0  0  0  0  0  0  0  0
  137.4070   75.1790  222.1130 N   0  0  0  0  0  0  0  0  0  0  0  0
  141.1070   72.8550  221.2410 N   0  0  0  0  0  0  0  0  0  0  0  0
  142.1160   73.6610  220.7950 C   0  0  0  0  0  0  0  0  0  0  0  0
  143.2630   73.1310  220.1440 N   0  0  0  0  0  0  0  0  0  0  0  0
  143.5650   73.4360  218.7470 C   0  0  0  0  0  0  0  0  0  0  0  0
  144.6460   72.5350  218.2130 C   0  0  0  0  0  0  0  0  0  0  0  0
  145.8580   72.6050  219.0060 N   0  0  0  0  0  0  0  0  0  0  0  0
  145.5870   72.7730  220.4200 C   0  0  0  0  0  0  0  0  0  0  0  0
  144.2190   72.2590  220.8270 C   0  0  0  0  0  0  0  0  0  0  0  0
  142.0540   75.0010  220.9850 N   0  0  0  0  0  0  0  0  0  0  0  0
  141.8200   77.9340  221.3810 C   0  0  0  0  0  0  0  0  0  0  0  0
  141.5783   82.2503  224.5722 H   0  0  0  0  0  0  0  0  0  0  0  0
  143.7799   81.4296  223.7855 H   0  0  0  0  0  0  0  0  0  0  0  0
  143.9395   79.4384  222.3070 H   0  0  0  0  0  0  0  0  0  0  0  0
  139.4948   81.0658  223.8799 H   0  0  0  0  0  0  0  0  0  0  0  0
  138.4728   79.1843  222.7851 H   0  0  0  0  0  0  0  0  0  0  0  0
  139.1773   78.9863  221.1822 H   0  0  0  0  0  0  0  0  0  0  0  0
  139.8893   77.3105  223.6758 H   0  0  0  0  0  0  0  0  0  0  0  0
  138.8222   76.7678  222.3303 H   0  0  0  0  0  0  0  0  0  0  0  0
  138.9280   72.5030  223.4030 H   0  0  0  0  0  0  0  0  0  0  0  0
  138.3590   71.3645  220.7928 H   0  0  0  0  0  0  0  0  0  0  0  0
  137.1327   71.6042  222.0628 H   0  0  0  0  0  0  0  0  0  0  0  0
  138.1689   73.8457  220.2568 H   0  0  0  0  0  0  0  0  0  0  0  0
  136.6982   72.8565  219.8967 H   0  0  0  0  0  0  0  0  0  0  0  0
  135.6677   74.6107  221.0158 H   0  0  0  0  0  0  0  0  0  0  0  0
  135.0027   72.9470  222.4054 H   0  0  0  0  0  0  0  0  0  0  0  0
  136.7371   72.6793  222.9996 H   0  0  0  0  0  0  0  0  0  0  0  0
  134.6495   73.9242  224.2923 H   0  0  0  0  0  0  0  0  0  0  0  0
  136.4613   73.8393  224.6835 H   0  0  0  0  0  0  0  0  0  0  0  0
  134.7839   76.0560  223.8976 H   0  0  0  0  0  0  0  0  0  0  0  0
  136.3941   75.9230  224.7928 H   0  0  0  0  0  0  0  0  0  0  0  0
  135.8111   76.5277  221.9822 H   0  0  0  0  0  0  0  0  0  0  0  0
  137.1756   77.0097  223.0786 H   0  0  0  0  0  0  0  0  0  0  0  0
  137.9780   74.7130  222.8530 H   0  0  0  0  0  0  0  0  0  0  0  0
  142.6544   73.2991  218.1452 H   0  0  0  0  0  0  0  0  0  0  0  0
  143.9180   74.4761  218.6867 H   0  0  0  0  0  0  0  0  0  0  0  0
  144.2782   71.4983  218.2187 H   0  0  0  0  0  0  0  0  0  0  0  0
  144.8898   72.8674  217.1931 H   0  0  0  0  0  0  0  0  0  0  0  0
  146.3220   71.6560  218.9150 H   0  0  0  0  0  0  0  0  0  0  0  0
  146.3513   72.2252  220.9908 H   0  0  0  0  0  0  0  0  0  0  0  0
  145.6097   73.8519  220.6332 H   0  0  0  0  0  0  0  0  0  0  0  0
  144.0875   71.2154  220.5051 H   0  0  0  0  0  0  0  0  0  0  0  0
  144.0821   72.2738  221.9183 H   0  0  0  0  0  0  0  0  0  0  0  0
  142.8288   77.4956  221.3916 H   0  0  0  0  0  0  0  0  0  0  0  0
  141.5493   78.2385  220.3592 H   0  0  0  0  0  0  0  0  0  0  0  0
  1  2  2  0
  2  3  1  0
  3  4  2  0
  4  5  1  0
  5  6  2  0
  5  7  1  0
  7  8  1  0
  8  9  1  0
  9 10  1  0
 10 11  2  0
 11 12  1  0
 12 13  1  0
 13 14  1  0
 14 15  1  0
 15 16  1  0
 16 17  1  0
 17 18  1  0
 18 19  1  0
 19 20  1  0
 20 21  1  0
 12 22  2  0
 22 23  1  0
 23 24  1  0
 24 25  1  0
 25 26  1  0
 26 27  1  0
 27 28  1  0
 28 29  1  0
 23 30  2  0
  9 31  1  0
  6  1  1  0
 30 10  1  0
 31  4  1  0
 21 16  1  0
 29 24  1  0
  1 32  1  0
  2 33  1  0
  3 34  1  0
  6 35  1  0
  7 36  1  0
  7 37  1  0
  8 38  1  0
  8 39  1  0
 13 40  1  0
 14 41  1  0
 14 42  1  0
 15 43  1  0
 15 44  1  0
 16 45  1  6
 17 46  1  0
 17 47  1  0
 18 48  1  0
 18 49  1  0
 19 50  1  0
 19 51  1  0
 20 52  1  0
 20 53  1  0
 21 54  1  0
 25 55  1  0
 25 56  1  0
 26 57  1  0
 26 58  1  0
 27 59  1  0
 28 60  1  0
 28 61  1  0
 29 62  1  0
 29 63  1  0
 31 64  1  0
 31 65  1  0
M  END
>  <smiles>  (86) 
c1ccc2c(c1)CCN(c1nc(NCCC3CCCCN3)nc(N3CCNCC3)n1)C2

>  <score_type>  (86) 
oracle

>  <origin>  (86) 
autodockgpu

>  <m_score__min__energy>  (86) 
-10.109999999999999

>  <m_primary>  (86) 
energy

>  <rmsd>  (86) 
5.5306506454529405

>  <m_score__min__rmsd>  (86) 
5.5306506454529405

>  <meeko>  (86) 
{"free_energy": -7.72, "intermolecular_energy": -9.51, "internal_energy": -1.95, "cluster_size": 26, "cluster_id": 2, "rank_in_cluster": 26}

>  <energy>  (86) 
-9.52

>  <cluster_rmsd>  (86) 
0.82

>  <cluster>  (86) 
2

$$$$

     RDKit          3D

 65 69  0  0  0  0  0  0  0  0999 V2000
  141.1850   81.2510  223.8210 C   0  0  0  0  0  0  0  0  0  0  0  0
  142.4150   80.8830  223.3000 C   0  0  0  0  0  0  0  0  0  0  0  0
  142.5440   79.7670  222.4850 C   0  0  0  0  0  0  0  0  0  0  0  0
  141.4190   79.0080  222.1920 C   0  0  0  0  0  0  0  0  0  0  0  0
  140.2060   79.3950  222.7230 C   0  0  0  0  0  0  0  0  0  0  0  0
  140.0650   80.4980  223.5310 C   0  0  0  0  0  0  0  0  0  0  0  0
  139.0340   78.5180  222.3580 C   0  0  0  0  0  0  0  0  0  0  0  0
  139.4880   77.1050  222.6990 C   0  0  0  0  0  0  0  0  0  0  0  0
  140.6400   76.7340  221.8730 N   0  0  0  0  0  0  0  0  0  0  0  0
  140.8720   75.3690  221.6550 C   0  0  0  0  0  0  0  0  0  0  0  0
  139.9790   74.4770  222.1410 N   0  0  0  0  0  0  0  0  0  0  0  0
  140.1200   73.1350  221.9750 C   0  0  0  0  0  0  0  0  0  0  0  0
  139.1090   72.3120  222.5330 N   0  0  0  0  0  0  0  0  0  0  0  0
  139.4070   71.2830  223.5340 C   0  0  0  0  0  0  0  0  0  0  0  0
  140.6570   71.7160  224.2700 C   0  0  0  0  0  0  0  0  0  0  0  0
  140.8880   70.8560  225.5160 C   0  0  1  0  0  0  0  0  0  0  0  0
  141.0680   71.7250  226.7130 C   0  0  0  0  0  0  0  0  0  0  0  0
  140.6750   71.1470  228.0220 C   0  0  0  0  0  0  0  0  0  0  0  0
  140.3200   69.7060  228.0470 C   0  0  0  0  0  0  0  0  0  0  0  0
  140.0270   69.0790  226.7160 C   0  0  0  0  0  0  0  0  0  0  0  0
  139.6790   70.0740  225.7050 N   0  0  0  0  0  0  0  0  0  0  0  0
  141.1820   72.6710  221.3070 N   0  0  0  0  0  0  0  0  0  0  0  0
  142.1030   73.5470  220.8030 C   0  0  0  0  0  0  0  0  0  0  0  0
  143.2560   73.0990  220.1050 N   0  0  0  0  0  0  0  0  0  0  0  0
  143.6010   73.6090  218.7800 C   0  0  0  0  0  0  0  0  0  0  0  0
  144.6780   72.7780  218.1370 C   0  0  0  0  0  0  0  0  0  0  0  0
  145.8710   72.6970  218.9600 N   0  0  0  0  0  0  0  0  0  0  0  0
  145.5650   72.6500  220.3760 C   0  0  0  0  0  0  0  0  0  0  0  0
  144.1770   72.1110  220.6660 C   0  0  0  0  0  0  0  0  0  0  0  0
  141.9430   74.8820  220.9790 N   0  0  0  0  0  0  0  0  0  0  0  0
  141.4800   77.7940  221.3260 C   0  0  0  0  0  0  0  0  0  0  0  0
  141.1013   82.1400  224.4634 H   0  0  0  0  0  0  0  0  0  0  0  0
  143.3044   81.4856  223.5363 H   0  0  0  0  0  0  0  0  0  0  0  0
  143.5261   79.4872  222.0760 H   0  0  0  0  0  0  0  0  0  0  0  0
  139.0811   80.7746  223.9377 H   0  0  0  0  0  0  0  0  0  0  0  0
  138.1459   78.7927  222.9461 H   0  0  0  0  0  0  0  0  0  0  0  0
  138.7510   78.6204  221.3000 H   0  0  0  0  0  0  0  0  0  0  0  0
  139.7720   77.0602  223.7608 H   0  0  0  0  0  0  0  0  0  0  0  0
  138.6632   76.4042  222.5027 H   0  0  0  0  0  0  0  0  0  0  0  0
  138.1310   72.4840  222.1870 H   0  0  0  0  0  0  0  0  0  0  0  0
  138.5682   71.1907  224.2396 H   0  0  0  0  0  0  0  0  0  0  0  0
  139.5585   70.3055  223.0529 H   0  0  0  0  0  0  0  0  0  0  0  0
  141.5224   71.6156  223.5985 H   0  0  0  0  0  0  0  0  0  0  0  0
  140.5323   72.7624  224.5855 H   0  0  0  0  0  0  0  0  0  0  0  0
  141.7822   70.2275  225.3917 H   0  0  0  0  0  0  0  0  0  0  0  0
  142.1332   71.9927  226.7733 H   0  0  0  0  0  0  0  0  0  0  0  0
  140.3883   72.5757  226.5571 H   0  0  0  0  0  0  0  0  0  0  0  0
  141.5172   71.2926  228.7145 H   0  0  0  0  0  0  0  0  0  0  0  0
  139.7489   71.6725  228.2979 H   0  0  0  0  0  0  0  0  0  0  0  0
  141.1611   69.1597  228.4988 H   0  0  0  0  0  0  0  0  0  0  0  0
  139.3827   69.6408  228.6190 H   0  0  0  0  0  0  0  0  0  0  0  0
  140.9176   68.5280  226.3797 H   0  0  0  0  0  0  0  0  0  0  0  0
  139.1653   68.4067  226.8405 H   0  0  0  0  0  0  0  0  0  0  0  0
  138.9560   70.7220  226.0900 H   0  0  0  0  0  0  0  0  0  0  0  0
  142.7042   73.5879  218.1434 H   0  0  0  0  0  0  0  0  0  0  0  0
  143.9759   74.6372  218.8908 H   0  0  0  0  0  0  0  0  0  0  0  0
  144.2909   71.7615  217.9728 H   0  0  0  0  0  0  0  0  0  0  0  0
  144.9544   73.2587  217.1870 H   0  0  0  0  0  0  0  0  0  0  0  0
  146.3180   71.7630  218.7340 H   0  0  0  0  0  0  0  0  0  0  0  0
  146.3029   72.0028  220.8726 H   0  0  0  0  0  0  0  0  0  0  0  0
  145.6024   73.6821  220.7547 H   0  0  0  0  0  0  0  0  0  0  0  0
  144.0345   71.1331  220.1830 H   0  0  0  0  0  0  0  0  0  0  0  0
  144.0116   71.9604  221.7430 H   0  0  0  0  0  0  0  0  0  0  0  0
  142.5201   77.4400  221.2715 H   0  0  0  0  0  0  0  0  0  0  0  0
  141.1152   78.0546  220.3215 H   0  0  0  0  0  0  0  0  0  0  0  0
  1  2  2  0
  2  3  1  0
  3  4  2  0
  4  5  1  0
  5  6  2  0
  5  7  1  0
  7  8  1  0
  8  9  1  0
  9 10  1  0
 10 11  2  0
 11 12  1  0
 12 13  1  0
 13 14  1  0
 14 15  1  0
 15 16  1  0
 16 17  1  0
 17 18  1  0
 18 19  1  0
 19 20  1  0
 20 21  1  0
 12 22  2  0
 22 23  1  0
 23 24  1  0
 24 25  1  0
 25 26  1  0
 26 27  1  0
 27 28  1  0
 28 29  1  0
 23 30  2  0
  9 31  1  0
  6  1  1  0
 30 10  1  0
 31  4  1  0
 21 16  1  0
 29 24  1  0
  1 32  1  0
  2 33  1  0
  3 34  1  0
  6 35  1  0
  7 36  1  0
  7 37  1  0
  8 38  1  0
  8 39  1  0
 13 40  1  0
 14 41  1  0
 14 42  1  0
 15 43  1  0
 15 44  1  0
 16 45  1  6
 17 46  1  0
 17 47  1  0
 18 48  1  0
 18 49  1  0
 19 50  1  0
 19 51  1  0
 20 52  1  0
 20 53  1  0
 21 54  1  0
 25 55  1  0
 25 56  1  0
 26 57  1  0
 26 58  1  0
 27 59  1  0
 28 60  1  0
 28 61  1  0
 29 62  1  0
 29 63  1  0
 31 64  1  0
 31 65  1  0
M  END
>  <smiles>  (87) 
c1ccc2c(c1)CCN(c1nc(NCCC3CCCCN3)nc(N3CCNCC3)n1)C2

>  <score_type>  (87) 
oracle

>  <origin>  (87) 
autodockgpu

>  <m_score__min__energy>  (87) 
-10.109999999999999

>  <m_primary>  (87) 
energy

>  <rmsd>  (87) 
5.386603111166593

>  <m_score__min__rmsd>  (87) 
5.386603111166593

>  <meeko>  (87) 
{"free_energy": -9.52, "intermolecular_energy": -11.31, "internal_energy": -0.89, "cluster_size": 26, "cluster_id": 2, "rank_in_cluster": 12}

>  <energy>  (87) 
-9.42

>  <cluster_rmsd>  (87) 
0.74

>  <cluster>  (87) 
2

$$$$

     RDKit          3D

 65 69  0  0  0  0  0  0  0  0999 V2000
  139.7620   67.8550  226.4340 C   0  0  0  0  0  0  0  0  0  0  0  0
  140.7460   68.6830  226.9500 C   0  0  0  0  0  0  0  0  0  0  0  0
  141.0040   69.9260  226.3870 C   0  0  0  0  0  0  0  0  0  0  0  0
  140.2620   70.3410  225.2900 C   0  0  0  0  0  0  0  0  0  0  0  0
  139.2880   69.4980  224.7960 C   0  0  0  0  0  0  0  0  0  0  0  0
  139.0230   68.2650  225.3430 C   0  0  0  0  0  0  0  0  0  0  0  0
  138.5270   70.0210  223.6030 C   0  0  0  0  0  0  0  0  0  0  0  0
  139.6040   70.4430  222.6130 C   0  0  0  0  0  0  0  0  0  0  0  0
  140.4120   71.5270  223.1800 N   0  0  0  0  0  0  0  0  0  0  0  0
  141.0770   72.3790  222.2870 C   0  0  0  0  0  0  0  0  0  0  0  0
  140.8180   73.7040  222.3470 N   0  0  0  0  0  0  0  0  0  0  0  0
  141.4180   74.6040  221.5230 C   0  0  0  0  0  0  0  0  0  0  0  0
  141.0580   75.9650  221.6940 N   0  0  0  0  0  0  0  0  0  0  0  0
  139.9710   76.5840  220.9300 C   0  0  0  0  0  0  0  0  0  0  0  0
  139.3060   77.6030  221.8300 C   0  0  0  0  0  0  0  0  0  0  0  0
  140.2020   78.8280  222.0330 C   0  0  1  0  0  0  0  0  0  0  0  0
  140.4590   79.0410  223.4850 C   0  0  0  0  0  0  0  0  0  0  0  0
  141.7320   79.7130  223.8460 C   0  0  0  0  0  0  0  0  0  0  0  0
  142.5390   80.2760  222.7350 C   0  0  0  0  0  0  0  0  0  0  0  0
  142.1940   79.7880  221.3590 C   0  0  0  0  0  0  0  0  0  0  0  0
  141.4690   78.5200  221.3920 N   0  0  0  0  0  0  0  0  0  0  0  0
  142.2990   74.1690  220.6150 N   0  0  0  0  0  0  0  0  0  0  0  0
  142.5820   72.8340  220.5300 C   0  0  0  0  0  0  0  0  0  0  0  0
  143.4940   72.3240  219.5680 N   0  0  0  0  0  0  0  0  0  0  0  0
  144.1570   73.1940  218.5980 C   0  0  0  0  0  0  0  0  0  0  0  0
  144.8310   72.3940  217.5170 C   0  0  0  0  0  0  0  0  0  0  0  0
  145.7840   71.4410  218.0560 N   0  0  0  0  0  0  0  0  0  0  0  0
  145.3460   70.8720  219.3150 C   0  0  0  0  0  0  0  0  0  0  0  0
  143.8410   70.9050  219.4910 C   0  0  0  0  0  0  0  0  0  0  0  0
  141.9730   71.9530  221.3620 N   0  0  0  0  0  0  0  0  0  0  0  0
  140.4830   71.6620  224.6320 C   0  0  0  0  0  0  0  0  0  0  0  0
  139.5704   66.8737  226.8927 H   0  0  0  0  0  0  0  0  0  0  0  0
  141.3321   68.3504  227.8194 H   0  0  0  0  0  0  0  0  0  0  0  0
  141.7877   70.5744  226.8058 H   0  0  0  0  0  0  0  0  0  0  0  0
  138.2391   67.6193  224.9204 H   0  0  0  0  0  0  0  0  0  0  0  0
  137.8914   69.2332  223.1724 H   0  0  0  0  0  0  0  0  0  0  0  0
  137.8566   70.8518  223.8683 H   0  0  0  0  0  0  0  0  0  0  0  0
  140.2528   69.5826  222.3924 H   0  0  0  0  0  0  0  0  0  0  0  0
  139.1247   70.7968  221.6883 H   0  0  0  0  0  0  0  0  0  0  0  0
  141.6170   76.5050  222.4020 H   0  0  0  0  0  0  0  0  0  0  0  0
  140.3757   77.0802  220.0355 H   0  0  0  0  0  0  0  0  0  0  0  0
  139.2459   75.8244  220.6024 H   0  0  0  0  0  0  0  0  0  0  0  0
  138.3586   77.9230  221.3717 H   0  0  0  0  0  0  0  0  0  0  0  0
  139.1240   77.1374  222.8098 H   0  0  0  0  0  0  0  0  0  0  0  0
  139.7260   79.7285  221.6177 H   0  0  0  0  0  0  0  0  0  0  0  0
  139.6353   79.6519  223.8830 H   0  0  0  0  0  0  0  0  0  0  0  0
  140.5331   78.0317  223.9161 H   0  0  0  0  0  0  0  0  0  0  0  0
  141.4880   80.5393  224.5299 H   0  0  0  0  0  0  0  0  0  0  0  0
  142.3591   78.9199  224.2792 H   0  0  0  0  0  0  0  0  0  0  0  0
  142.4116   81.3685  222.7465 H   0  0  0  0  0  0  0  0  0  0  0  0
  143.5707   79.9413  222.9185 H   0  0  0  0  0  0  0  0  0  0  0  0
  141.5667   80.5426  220.8618 H   0  0  0  0  0  0  0  0  0  0  0  0
  143.1340   79.6269  220.8108 H   0  0  0  0  0  0  0  0  0  0  0  0
  141.9700   77.8510  222.0180 H   0  0  0  0  0  0  0  0  0  0  0  0
  143.4076   73.8559  218.1395 H   0  0  0  0  0  0  0  0  0  0  0  0
  144.9239   73.7805  219.1251 H   0  0  0  0  0  0  0  0  0  0  0  0
  144.0636   71.8462  216.9504 H   0  0  0  0  0  0  0  0  0  0  0  0
  145.3809   73.0940  216.8707 H   0  0  0  0  0  0  0  0  0  0  0  0
  145.8070   70.6330  217.3700 H   0  0  0  0  0  0  0  0  0  0  0  0
  145.6810   69.8253  219.3615 H   0  0  0  0  0  0  0  0  0  0  0  0
  145.7837   71.4808  220.1199 H   0  0  0  0  0  0  0  0  0  0  0  0
  143.3419   70.4320  218.6324 H   0  0  0  0  0  0  0  0  0  0  0  0
  143.5201   70.3544  220.3876 H   0  0  0  0  0  0  0  0  0  0  0  0
  141.4756   72.0446  224.9121 H   0  0  0  0  0  0  0  0  0  0  0  0
  139.7006   72.3605  224.9635 H   0  0  0  0  0  0  0  0  0  0  0  0
  1  2  2  0
  2  3  1  0
  3  4  2  0
  4  5  1  0
  5  6  2  0
  5  7  1  0
  7  8  1  0
  8  9  1  0
  9 10  1  0
 10 11  2  0
 11 12  1  0
 12 13  1  0
 13 14  1  0
 14 15  1  0
 15 16  1  0
 16 17  1  0
 17 18  1  0
 18 19  1  0
 19 20  1  0
 20 21  1  0
 12 22  2  0
 22 23  1  0
 23 24  1  0
 24 25  1  0
 25 26  1  0
 26 27  1  0
 27 28  1  0
 28 29  1  0
 23 30  2  0
  9 31  1  0
  6  1  1  0
 30 10  1  0
 31  4  1  0
 21 16  1  0
 29 24  1  0
  1 32  1  0
  2 33  1  0
  3 34  1  0
  6 35  1  0
  7 36  1  0
  7 37  1  0
  8 38  1  0
  8 39  1  0
 13 40  1  0
 14 41  1  0
 14 42  1  0
 15 43  1  0
 15 44  1  0
 16 45  1  6
 17 46  1  0
 17 47  1  0
 18 48  1  0
 18 49  1  0
 19 50  1  0
 19 51  1  0
 20 52  1  0
 20 53  1  0
 21 54  1  0
 25 55  1  0
 25 56  1  0
 26 57  1  0
 26 58  1  0
 27 59  1  0
 28 60  1  0
 28 61  1  0
 29 62  1  0
 29 63  1  0
 31 64  1  0
 31 65  1  0
M  END
>  <smiles>  (88) 
c1ccc2c(c1)CCN(c1nc(NCCC3CCCCN3)nc(N3CCNCC3)n1)C2

>  <score_type>  (88) 
oracle

>  <origin>  (88) 
autodockgpu

>  <m_score__min__energy>  (88) 
-10.109999999999999

>  <m_primary>  (88) 
energy

>  <rmsd>  (88) 
10.912478435613725

>  <m_score__min__rmsd>  (88) 
10.912478435613725

>  <meeko>  (88) 
{"free_energy": -8.53, "intermolecular_energy": -10.32, "internal_energy": -1.18, "cluster_size": 24, "cluster_id": 1, "rank_in_cluster": 21}

>  <energy>  (88) 
-9.36

>  <cluster_rmsd>  (88) 
0.67

>  <cluster>  (88) 
2

$$$$

     RDKit          3D

 65 69  0  0  0  0  0  0  0  0999 V2000
  140.2490   67.4680  226.1800 C   0  0  0  0  0  0  0  0  0  0  0  0
  141.2930   68.2790  226.5940 C   0  0  0  0  0  0  0  0  0  0  0  0
  141.3790   69.6020  226.1820 C   0  0  0  0  0  0  0  0  0  0  0  0
  140.4020   70.1160  225.3410 C   0  0  0  0  0  0  0  0  0  0  0  0
  139.3740   69.2870  224.9420 C   0  0  0  0  0  0  0  0  0  0  0  0
  139.2760   67.9760  225.3420 C   0  0  0  0  0  0  0  0  0  0  0  0
  138.3530   69.9200  224.0290 C   0  0  0  0  0  0  0  0  0  0  0  0
  139.1740   70.5450  222.9080 C   0  0  0  0  0  0  0  0  0  0  0  0
  140.0490   71.5900  223.4470 N   0  0  0  0  0  0  0  0  0  0  0  0
  140.4740   72.5980  222.5720 C   0  0  0  0  0  0  0  0  0  0  0  0
  139.6340   73.6260  222.3150 N   0  0  0  0  0  0  0  0  0  0  0  0
  139.9630   74.6490  221.4830 C   0  0  0  0  0  0  0  0  0  0  0  0
  138.9890   75.6650  221.3040 N   0  0  0  0  0  0  0  0  0  0  0  0
  139.0740   76.9550  221.9950 C   0  0  0  0  0  0  0  0  0  0  0  0
  139.9840   77.8480  221.1780 C   0  0  0  0  0  0  0  0  0  0  0  0
  141.1550   78.3590  222.0200 C   0  0  1  0  0  0  0  0  0  0  0  0
  141.7490   79.5720  221.3900 C   0  0  0  0  0  0  0  0  0  0  0  0
  142.4120   80.5400  222.2990 C   0  0  0  0  0  0  0  0  0  0  0  0
  142.5880   80.1280  223.7140 C   0  0  0  0  0  0  0  0  0  0  0  0
  141.7580   78.9640  224.1680 C   0  0  0  0  0  0  0  0  0  0  0  0
  140.6000   78.7460  223.3050 N   0  0  0  0  0  0  0  0  0  0  0  0
  141.1620   74.6450  220.8900 N   0  0  0  0  0  0  0  0  0  0  0  0
  142.0340   73.6200  221.1290 C   0  0  0  0  0  0  0  0  0  0  0  0
  143.3090   73.5640  220.5060 N   0  0  0  0  0  0  0  0  0  0  0  0
  144.2810   72.5230  220.8320 C   0  0  0  0  0  0  0  0  0  0  0  0
  145.6390   72.8470  220.2720 C   0  0  0  0  0  0  0  0  0  0  0  0
  145.6030   73.0540  218.8360 N   0  0  0  0  0  0  0  0  0  0  0  0
  144.3840   73.7070  218.4010 C   0  0  0  0  0  0  0  0  0  0  0  0
  143.7300   74.5320  219.4920 C   0  0  0  0  0  0  0  0  0  0  0  0
  141.6870   72.6100  221.9630 N   0  0  0  0  0  0  0  0  0  0  0  0
  140.4300   71.5260  224.8550 C   0  0  0  0  0  0  0  0  0  0  0  0
  140.1952   66.4225  226.5178 H   0  0  0  0  0  0  0  0  0  0  0  0
  142.0662   67.8682  227.2598 H   0  0  0  0  0  0  0  0  0  0  0  0
  142.2125   70.2360  226.5185 H   0  0  0  0  0  0  0  0  0  0  0  0
  138.4412   67.3453  225.0023 H   0  0  0  0  0  0  0  0  0  0  0  0
  137.6655   69.1600  223.6294 H   0  0  0  0  0  0  0  0  0  0  0  0
  137.7288   70.6601  224.5512 H   0  0  0  0  0  0  0  0  0  0  0  0
  139.7878   69.7676  222.4296 H   0  0  0  0  0  0  0  0  0  0  0  0
  138.4928   70.9917  222.1688 H   0  0  0  0  0  0  0  0  0  0  0  0
  138.2020   75.4380  220.6450 H   0  0  0  0  0  0  0  0  0  0  0  0
  138.0740   77.4069  222.0718 H   0  0  0  0  0  0  0  0  0  0  0  0
  139.4700   76.8247  223.0129 H   0  0  0  0  0  0  0  0  0  0  0  0
  140.3776   77.2757  220.3250 H   0  0  0  0  0  0  0  0  0  0  0  0
  139.4019   78.7131  220.8275 H   0  0  0  0  0  0  0  0  0  0  0  0
  141.9314   77.5851  222.1114 H   0  0  0  0  0  0  0  0  0  0  0  0
  142.4984   79.2345  220.6590 H   0  0  0  0  0  0  0  0  0  0  0  0
  140.8979   80.1186  220.9576 H   0  0  0  0  0  0  0  0  0  0  0  0
  143.4107   80.7496  221.8883 H   0  0  0  0  0  0  0  0  0  0  0  0
  141.7336   81.4050  222.3370 H   0  0  0  0  0  0  0  0  0  0  0  0
  143.6459   79.8637  223.8585 H   0  0  0  0  0  0  0  0  0  0  0  0
  142.2518   80.9848  224.3164 H   0  0  0  0  0  0  0  0  0  0  0  0
  142.3823   78.0583  224.1596 H   0  0  0  0  0  0  0  0  0  0  0  0
  141.3894   79.1849  225.1806 H   0  0  0  0  0  0  0  0  0  0  0  0
  140.1010   79.6520  223.1590 H   0  0  0  0  0  0  0  0  0  0  0  0
  144.3567   72.4336  221.9257 H   0  0  0  0  0  0  0  0  0  0  0  0
  143.9388   71.5773  220.3864 H   0  0  0  0  0  0  0  0  0  0  0  0
  146.0115   73.7634  220.7531 H   0  0  0  0  0  0  0  0  0  0  0  0
  146.3012   71.9922  220.4742 H   0  0  0  0  0  0  0  0  0  0  0  0
  146.3840   73.7370  218.6200 H   0  0  0  0  0  0  0  0  0  0  0  0
  144.6240   74.3701  217.5568 H   0  0  0  0  0  0  0  0  0  0  0  0
  143.6729   72.9179  218.1153 H   0  0  0  0  0  0  0  0  0  0  0  0
  144.4487   75.2480  219.9173 H   0  0  0  0  0  0  0  0  0  0  0  0
  142.8833   75.1211  219.1099 H   0  0  0  0  0  0  0  0  0  0  0  0
  141.4464   71.9295  224.9735 H   0  0  0  0  0  0  0  0  0  0  0  0
  139.7150   72.1192  225.4440 H   0  0  0  0  0  0  0  0  0  0  0  0
  1  2  2  0
  2  3  1  0
  3  4  2  0
  4  5  1  0
  5  6  2  0
  5  7  1  0
  7  8  1  0
  8  9  1  0
  9 10  1  0
 10 11  2  0
 11 12  1  0
 12 13  1  0
 13 14  1  0
 14 15  1  0
 15 16  1  0
 16 17  1  0
 17 18  1  0
 18 19  1  0
 19 20  1  0
 20 21  1  0
 12 22  2  0
 22 23  1  0
 23 24  1  0
 24 25  1  0
 25 26  1  0
 26 27  1  0
 27 28  1  0
 28 29  1  0
 23 30  2  0
  9 31  1  0
  6  1  1  0
 30 10  1  0
 31  4  1  0
 21 16  1  0
 29 24  1  0
  1 32  1  0
  2 33  1  0
  3 34  1  0
  6 35  1  0
  7 36  1  0
  7 37  1  0
  8 38  1  0
  8 39  1  0
 13 40  1  0
 14 41  1  0
 14 42  1  0
 15 43  1  0
 15 44  1  0
 16 45  1  1
 17 46  1  0
 17 47  1  0
 18 48  1  0
 18 49  1  0
 19 50  1  0
 19 51  1  0
 20 52  1  0
 20 53  1  0
 21 54  1  0
 25 55  1  0
 25 56  1  0
 26 57  1  0
 26 58  1  0
 27 59  1  0
 28 60  1  0
 28 61  1  0
 29 62  1  0
 29 63  1  0
 31 64  1  0
 31 65  1  0
M  END
>  <smiles>  (89) 
c1ccc2c(c1)CCN(c1nc(NCCC3CCCCN3)nc(N3CCNCC3)n1)C2

>  <score_type>  (89) 
oracle

>  <origin>  (89) 
autodockgpu

>  <m_score__min__energy>  (89) 
-10.109999999999999

>  <m_primary>  (89) 
energy

>  <rmsd>  (89) 
11.090365987430996

>  <m_score__min__rmsd>  (89) 
11.090365987430996

>  <meeko>  (89) 
{"free_energy": -9.43, "intermolecular_energy": -11.22, "internal_energy": -0.92, "cluster_size": 24, "cluster_id": 1, "rank_in_cluster": 11}

>  <energy>  (89) 
-9.31

>  <cluster_rmsd>  (89) 
0.96

>  <cluster>  (89) 
2

$$$$

     RDKit          3D

 65 69  0  0  0  0  0  0  0  0999 V2000
  138.7960   80.4740  224.0720 C   0  0  0  0  0  0  0  0  0  0  0  0
  140.1590   80.5290  223.8280 C   0  0  0  0  0  0  0  0  0  0  0  0
  140.7790   79.5940  223.0110 C   0  0  0  0  0  0  0  0  0  0  0  0
  140.0170   78.5880  222.4320 C   0  0  0  0  0  0  0  0  0  0  0  0
  138.6630   78.5550  222.6910 C   0  0  0  0  0  0  0  0  0  0  0  0
  138.0360   79.4740  223.4990 C   0  0  0  0  0  0  0  0  0  0  0  0
  137.9070   77.4320  222.0260 C   0  0  0  0  0  0  0  0  0  0  0  0
  138.6840   76.1740  222.3920 C   0  0  0  0  0  0  0  0  0  0  0  0
  140.0370   76.2380  221.8340 N   0  0  0  0  0  0  0  0  0  0  0  0
  140.7060   75.0270  221.6080 C   0  0  0  0  0  0  0  0  0  0  0  0
  140.1110   73.8790  221.9990 N   0  0  0  0  0  0  0  0  0  0  0  0
  140.6840   72.6590  221.8180 C   0  0  0  0  0  0  0  0  0  0  0  0
  139.9490   71.5340  222.2730 N   0  0  0  0  0  0  0  0  0  0  0  0
  139.4990   71.4100  223.6620 C   0  0  0  0  0  0  0  0  0  0  0  0
  140.6980   71.6520  224.5520 C   0  0  0  0  0  0  0  0  0  0  0  0
  140.8490   70.5370  225.5910 C   0  0  1  0  0  0  0  0  0  0  0  0
  140.7120   71.0940  226.9650 C   0  0  0  0  0  0  0  0  0  0  0  0
  140.2030   70.1730  228.0120 C   0  0  0  0  0  0  0  0  0  0  0  0
  140.0550   68.7440  227.6420 C   0  0  0  0  0  0  0  0  0  0  0  0
  140.0680   68.4410  226.1720 C   0  0  0  0  0  0  0  0  0  0  0  0
  139.7480   69.6160  225.3670 N   0  0  0  0  0  0  0  0  0  0  0  0
  141.8840   72.5850  221.2310 N   0  0  0  0  0  0  0  0  0  0  0  0
  142.5120   73.7290  220.8240 C   0  0  0  0  0  0  0  0  0  0  0  0
  143.7950   73.7000  220.2150 N   0  0  0  0  0  0  0  0  0  0  0  0
  144.9280   73.0210  220.8390 C   0  0  0  0  0  0  0  0  0  0  0  0
  146.2220   73.3800  220.1600 C   0  0  0  0  0  0  0  0  0  0  0  0
  146.1940   73.0860  218.7400 N   0  0  0  0  0  0  0  0  0  0  0  0
  144.8910   73.3250  218.1510 C   0  0  0  0  0  0  0  0  0  0  0  0
  144.0650   74.3340  218.9240 C   0  0  0  0  0  0  0  0  0  0  0  0
  141.9230   74.9350  221.0130 N   0  0  0  0  0  0  0  0  0  0  0  0
  140.6140   77.5470  221.5450 C   0  0  0  0  0  0  0  0  0  0  0  0
  138.3210   81.2250  224.7204 H   0  0  0  0  0  0  0  0  0  0  0  0
  140.7594   81.3269  224.2895 H   0  0  0  0  0  0  0  0  0  0  0  0
  141.8616   79.6493  222.8243 H   0  0  0  0  0  0  0  0  0  0  0  0
  136.9534   79.4138  223.6846 H   0  0  0  0  0  0  0  0  0  0  0  0
  136.8773   77.3773  222.4089 H   0  0  0  0  0  0  0  0  0  0  0  0
  137.8275   77.5706  220.9377 H   0  0  0  0  0  0  0  0  0  0  0  0
  138.7456   76.0901  223.4871 H   0  0  0  0  0  0  0  0  0  0  0  0
  138.1649   75.2969  221.9781 H   0  0  0  0  0  0  0  0  0  0  0  0
  139.7470   70.7940  221.5550 H   0  0  0  0  0  0  0  0  0  0  0  0
  138.7187   72.1564  223.8720 H   0  0  0  0  0  0  0  0  0  0  0  0
  139.0765   70.4109  223.8445 H   0  0  0  0  0  0  0  0  0  0  0  0
  141.6049   71.6888  223.9305 H   0  0  0  0  0  0  0  0  0  0  0  0
  140.5526   72.6050  225.0817 H   0  0  0  0  0  0  0  0  0  0  0  0
  141.8318   70.0519  225.4975 H   0  0  0  0  0  0  0  0  0  0  0  0
  141.7053   71.4434  227.2832 H   0  0  0  0  0  0  0  0  0  0  0  0
  139.9510   71.8839  226.8812 H   0  0  0  0  0  0  0  0  0  0  0  0
  140.8967   70.2244  228.8641 H   0  0  0  0  0  0  0  0  0  0  0  0
  139.1805   70.5195  228.2227 H   0  0  0  0  0  0  0  0  0  0  0  0
  140.8822   68.1882  228.1077 H   0  0  0  0  0  0  0  0  0  0  0  0
  139.0573   68.4470  227.9976 H   0  0  0  0  0  0  0  0  0  0  0  0
  141.0694   68.0815  225.8927 H   0  0  0  0  0  0  0  0  0  0  0  0
  139.3011   67.6770  225.9765 H   0  0  0  0  0  0  0  0  0  0  0  0
  138.8890   70.0730  225.7470 H   0  0  0  0  0  0  0  0  0  0  0  0
  144.9845   73.3166  221.8970 H   0  0  0  0  0  0  0  0  0  0  0  0
  144.7765   71.9355  220.7458 H   0  0  0  0  0  0  0  0  0  0  0  0
  146.4070   74.4558  220.2957 H   0  0  0  0  0  0  0  0  0  0  0  0
  147.0214   72.7766  220.6147 H   0  0  0  0  0  0  0  0  0  0  0  0
  146.8450   73.7880  218.2840 H   0  0  0  0  0  0  0  0  0  0  0  0
  145.0333   73.7002  217.1268 H   0  0  0  0  0  0  0  0  0  0  0  0
  144.3435   72.3711  218.1679 H   0  0  0  0  0  0  0  0  0  0  0  0
  144.6287   75.2682  219.0634 H   0  0  0  0  0  0  0  0  0  0  0  0
  143.1382   74.5990  218.3941 H   0  0  0  0  0  0  0  0  0  0  0  0
  141.7006   77.5087  221.7121 H   0  0  0  0  0  0  0  0  0  0  0  0
  140.4006   77.8067  220.4976 H   0  0  0  0  0  0  0  0  0  0  0  0
  1  2  2  0
  2  3  1  0
  3  4  2  0
  4  5  1  0
  5  6  2  0
  5  7  1  0
  7  8  1  0
  8  9  1  0
  9 10  1  0
 10 11  2  0
 11 12  1  0
 12 13  1  0
 13 14  1  0
 14 15  1  0
 15 16  1  0
 16 17  1  0
 17 18  1  0
 18 19  1  0
 19 20  1  0
 20 21  1  0
 12 22  2  0
 22 23  1  0
 23 24  1  0
 24 25  1  0
 25 26  1  0
 26 27  1  0
 27 28  1  0
 28 29  1  0
 23 30  2  0
  9 31  1  0
  6  1  1  0
 30 10  1  0
 31  4  1  0
 21 16  1  0
 29 24  1  0
  1 32  1  0
  2 33  1  0
  3 34  1  0
  6 35  1  0
  7 36  1  0
  7 37  1  0
  8 38  1  0
  8 39  1  0
 13 40  1  0
 14 41  1  0
 14 42  1  0
 15 43  1  0
 15 44  1  0
 16 45  1  1
 17 46  1  0
 17 47  1  0
 18 48  1  0
 18 49  1  0
 19 50  1  0
 19 51  1  0
 20 52  1  0
 20 53  1  0
 21 54  1  0
 25 55  1  0
 25 56  1  0
 26 57  1  0
 26 58  1  0
 27 59  1  0
 28 60  1  0
 28 61  1  0
 29 62  1  0
 29 63  1  0
 31 64  1  0
 31 65  1  0
M  END
>  <smiles>  (90) 
c1ccc2c(c1)CCN(c1nc(NCCC3CCCCN3)nc(N3CCNCC3)n1)C2

>  <score_type>  (90) 
oracle

>  <origin>  (90) 
autodockgpu

>  <m_score__min__energy>  (90) 
-10.109999999999999

>  <m_primary>  (90) 
energy

>  <rmsd>  (90) 
5.244122356625653

>  <m_score__min__rmsd>  (90) 
5.244122356625653

>  <meeko>  (90) 
{"free_energy": -9.68, "intermolecular_energy": -11.47, "internal_energy": -0.85, "cluster_size": 26, "cluster_id": 2, "rank_in_cluster": 3}

>  <energy>  (90) 
-9.3

>  <cluster_rmsd>  (90) 
0.6

>  <cluster>  (90) 
2

$$$$

     RDKit          3D

 65 69  0  0  0  0  0  0  0  0999 V2000
  140.0180   67.8010  225.6440 C   0  0  0  0  0  0  0  0  0  0  0  0
  140.9270   68.6480  226.2590 C   0  0  0  0  0  0  0  0  0  0  0  0
  141.0280   69.9820  225.8870 C   0  0  0  0  0  0  0  0  0  0  0  0
  140.2050   70.4700  224.8820 C   0  0  0  0  0  0  0  0  0  0  0  0
  139.3090   69.6070  224.2860 C   0  0  0  0  0  0  0  0  0  0  0  0
  139.1990   68.2840  224.6440 C   0  0  0  0  0  0  0  0  0  0  0  0
  138.4520   70.2140  223.2040 C   0  0  0  0  0  0  0  0  0  0  0  0
  139.4390   70.8960  222.2670 C   0  0  0  0  0  0  0  0  0  0  0  0
  140.1470   71.9660  222.9750 N   0  0  0  0  0  0  0  0  0  0  0  0
  140.6830   73.0110  222.2080 C   0  0  0  0  0  0  0  0  0  0  0  0
  139.9590   74.1430  222.0650 N   0  0  0  0  0  0  0  0  0  0  0  0
  140.3990   75.2080  221.3440 C   0  0  0  0  0  0  0  0  0  0  0  0
  139.5410   76.3350  221.2780 N   0  0  0  0  0  0  0  0  0  0  0  0
  138.6930   76.7340  222.4050 C   0  0  0  0  0  0  0  0  0  0  0  0
  138.3000   78.1800  222.1880 C   0  0  0  0  0  0  0  0  0  0  0  0
  139.5230   79.0980  222.2480 C   0  0  1  0  0  0  0  0  0  0  0  0
  140.3660   78.7540  223.4270 C   0  0  0  0  0  0  0  0  0  0  0  0
  141.8170   79.0470  223.3190 C   0  0  0  0  0  0  0  0  0  0  0  0
  142.2650   79.8200  222.1350 C   0  0  0  0  0  0  0  0  0  0  0  0
  141.2930   79.8990  220.9950 C   0  0  0  0  0  0  0  0  0  0  0  0
  140.2970   78.8310  221.0480 N   0  0  0  0  0  0  0  0  0  0  0  0
  141.5940   75.1380  220.7470 N   0  0  0  0  0  0  0  0  0  0  0  0
  142.3510   74.0070  220.8720 C   0  0  0  0  0  0  0  0  0  0  0  0
  143.6170   73.8810  220.2400 N   0  0  0  0  0  0  0  0  0  0  0  0
  144.6730   73.0350  220.7920 C   0  0  0  0  0  0  0  0  0  0  0  0
  145.9920   73.2970  220.1170 C   0  0  0  0  0  0  0  0  0  0  0  0
  145.9170   73.1170  218.6800 N   0  0  0  0  0  0  0  0  0  0  0  0
  144.6440   73.5420  218.1340 C   0  0  0  0  0  0  0  0  0  0  0  0
  143.9430   74.5760  218.9950 C   0  0  0  0  0  0  0  0  0  0  0  0
  141.8930   72.9570  221.5980 N   0  0  0  0  0  0  0  0  0  0  0  0
  140.2580   71.8900  224.4280 C   0  0  0  0  0  0  0  0  0  0  0  0
  139.9499   66.7473  225.9522 H   0  0  0  0  0  0  0  0  0  0  0  0
  141.5786   68.2571  227.0543 H   0  0  0  0  0  0  0  0  0  0  0  0
  141.7523   70.6445  226.3834 H   0  0  0  0  0  0  0  0  0  0  0  0
  138.4739   67.6250  224.1441 H   0  0  0  0  0  0  0  0  0  0  0  0
  137.8880   69.4336  222.6722 H   0  0  0  0  0  0  0  0  0  0  0  0
  137.7075   70.9162  223.6073 H   0  0  0  0  0  0  0  0  0  0  0  0
  140.1672   70.1558  221.9040 H   0  0  0  0  0  0  0  0  0  0  0  0
  138.8899   71.3279  221.4174 H   0  0  0  0  0  0  0  0  0  0  0  0
  139.5480   76.8670  220.3720 H   0  0  0  0  0  0  0  0  0  0  0  0
  137.7937   76.1016  222.4409 H   0  0  0  0  0  0  0  0  0  0  0  0
  139.2324   76.6173  223.3566 H   0  0  0  0  0  0  0  0  0  0  0  0
  137.8246   78.2789  221.2010 H   0  0  0  0  0  0  0  0  0  0  0  0
  137.6016   78.4757  222.9848 H   0  0  0  0  0  0  0  0  0  0  0  0
  139.2123   80.1504  222.3245 H   0  0  0  0  0  0  0  0  0  0  0  0
  139.9764   79.3142  224.2898 H   0  0  0  0  0  0  0  0  0  0  0  0
  140.2988   77.6600  223.5202 H   0  0  0  0  0  0  0  0  0  0  0  0
  142.1077   79.6153  224.2149 H   0  0  0  0  0  0  0  0  0  0  0  0
  142.2984   78.0634  223.2149 H   0  0  0  0  0  0  0  0  0  0  0  0
  142.4805   80.8469  222.4653 H   0  0  0  0  0  0  0  0  0  0  0  0
  143.1396   79.2806  221.7422 H   0  0  0  0  0  0  0  0  0  0  0  0
  140.7758   80.8689  221.0362 H   0  0  0  0  0  0  0  0  0  0  0  0
  141.8591   79.7886  220.0583 H   0  0  0  0  0  0  0  0  0  0  0  0
  140.7780   77.9160  221.1960 H   0  0  0  0  0  0  0  0  0  0  0  0
  144.7733   73.2429  221.8675 H   0  0  0  0  0  0  0  0  0  0  0  0
  144.3993   71.9831  220.6230 H   0  0  0  0  0  0  0  0  0  0  0  0
  146.2991   74.3318  220.3289 H   0  0  0  0  0  0  0  0  0  0  0  0
  146.7222   72.5744  220.5103 H   0  0  0  0  0  0  0  0  0  0  0  0
  146.6380   73.7730  218.2650 H   0  0  0  0  0  0  0  0  0  0  0  0
  144.8173   73.9752  217.1379 H   0  0  0  0  0  0  0  0  0  0  0  0
  143.9935   72.6560  218.0901 H   0  0  0  0  0  0  0  0  0  0  0  0
  144.6088   75.4290  219.1924 H   0  0  0  0  0  0  0  0  0  0  0  0
  143.0462   74.9808  218.5032 H   0  0  0  0  0  0  0  0  0  0  0  0
  141.2137   72.3351  224.7419 H   0  0  0  0  0  0  0  0  0  0  0  0
  139.4181   72.4393  224.8784 H   0  0  0  0  0  0  0  0  0  0  0  0
  1  2  2  0
  2  3  1  0
  3  4  2  0
  4  5  1  0
  5  6  2  0
  5  7  1  0
  7  8  1  0
  8  9  1  0
  9 10  1  0
 10 11  2  0
 11 12  1  0
 12 13  1  0
 13 14  1  0
 14 15  1  0
 15 16  1  0
 16 17  1  0
 17 18  1  0
 18 19  1  0
 19 20  1  0
 20 21  1  0
 12 22  2  0
 22 23  1  0
 23 24  1  0
 24 25  1  0
 25 26  1  0
 26 27  1  0
 27 28  1  0
 28 29  1  0
 23 30  2  0
  9 31  1  0
  6  1  1  0
 30 10  1  0
 31  4  1  0
 21 16  1  0
 29 24  1  0
  1 32  1  0
  2 33  1  0
  3 34  1  0
  6 35  1  0
  7 36  1  0
  7 37  1  0
  8 38  1  0
  8 39  1  0
 13 40  1  0
 14 41  1  0
 14 42  1  0
 15 43  1  0
 15 44  1  0
 16 45  1  1
 17 46  1  0
 17 47  1  0
 18 48  1  0
 18 49  1  0
 19 50  1  0
 19 51  1  0
 20 52  1  0
 20 53  1  0
 21 54  1  0
 25 55  1  0
 25 56  1  0
 26 57  1  0
 26 58  1  0
 27 59  1  0
 28 60  1  0
 28 61  1  0
 29 62  1  0
 29 63  1  0
 31 64  1  0
 31 65  1  0
M  END
>  <smiles>  (91) 
c1ccc2c(c1)CCN(c1nc(NCCC3CCCCN3)nc(N3CCNCC3)n1)C2

>  <score_type>  (91) 
oracle

>  <origin>  (91) 
autodockgpu

>  <m_score__min__energy>  (91) 
-10.109999999999999

>  <m_primary>  (91) 
energy

>  <rmsd>  (91) 
10.548196412941966

>  <m_score__min__rmsd>  (91) 
10.548196412941966

>  <meeko>  (91) 
{"free_energy": -8.65, "intermolecular_energy": -10.44, "internal_energy": -1.55, "cluster_size": 24, "cluster_id": 1, "rank_in_cluster": 18}

>  <energy>  (91) 
-9.27

>  <cluster_rmsd>  (91) 
0.6

>  <cluster>  (91) 
2

$$$$

     RDKit          3D

 65 69  0  0  0  0  0  0  0  0999 V2000
  139.5800   67.8840  226.4470 C   0  0  0  0  0  0  0  0  0  0  0  0
  140.5630   68.7100  226.9690 C   0  0  0  0  0  0  0  0  0  0  0  0
  140.8430   69.9420  226.3930 C   0  0  0  0  0  0  0  0  0  0  0  0
  140.1250   70.3480  225.2770 C   0  0  0  0  0  0  0  0  0  0  0  0
  139.1520   69.5070  224.7770 C   0  0  0  0  0  0  0  0  0  0  0  0
  138.8650   68.2850  225.3360 C   0  0  0  0  0  0  0  0  0  0  0  0
  138.4180   70.0210  223.5630 C   0  0  0  0  0  0  0  0  0  0  0  0
  139.5180   70.4180  222.5870 C   0  0  0  0  0  0  0  0  0  0  0  0
  140.3260   71.5020  223.1540 N   0  0  0  0  0  0  0  0  0  0  0  0
  141.0160   72.3340  222.2610 C   0  0  0  0  0  0  0  0  0  0  0  0
  140.8190   73.6690  222.3410 N   0  0  0  0  0  0  0  0  0  0  0  0
  141.4470   74.5520  221.5200 C   0  0  0  0  0  0  0  0  0  0  0  0
  141.1520   75.9260  221.7130 N   0  0  0  0  0  0  0  0  0  0  0  0
  139.8010   76.4650  221.5280 C   0  0  0  0  0  0  0  0  0  0  0  0
  139.5210   77.3940  222.6900 C   0  0  0  0  0  0  0  0  0  0  0  0
  140.2780   78.7150  222.5350 C   0  0  1  0  0  0  0  0  0  0  0  0
  140.9660   79.0640  223.8090 C   0  0  0  0  0  0  0  0  0  0  0  0
  142.1960   79.8880  223.7000 C   0  0  0  0  0  0  0  0  0  0  0  0
  142.5230   80.4420  222.3630 C   0  0  0  0  0  0  0  0  0  0  0  0
  141.8100   79.8170  221.2000 C   0  0  0  0  0  0  0  0  0  0  0  0
  141.2950   78.4890  221.5220 N   0  0  0  0  0  0  0  0  0  0  0  0
  142.2930   74.0880  220.5930 N   0  0  0  0  0  0  0  0  0  0  0  0
  142.5130   72.7440  220.4870 C   0  0  0  0  0  0  0  0  0  0  0  0
  143.3870   72.2060  219.5050 N   0  0  0  0  0  0  0  0  0  0  0  0
  144.0200   73.0480  218.4920 C   0  0  0  0  0  0  0  0  0  0  0  0
  144.6500   72.2190  217.4060 C   0  0  0  0  0  0  0  0  0  0  0  0
  145.6150   71.2720  217.9310 N   0  0  0  0  0  0  0  0  0  0  0  0
  145.2190   70.7340  219.2170 C   0  0  0  0  0  0  0  0  0  0  0  0
  143.7210   70.7830  219.4470 C   0  0  0  0  0  0  0  0  0  0  0  0
  141.8780   71.8800  221.3160 N   0  0  0  0  0  0  0  0  0  0  0  0
  140.3720   71.6570  224.6040 C   0  0  0  0  0  0  0  0  0  0  0  0
  139.3701   66.9117  226.9166 H   0  0  0  0  0  0  0  0  0  0  0  0
  141.1302   68.3844  227.8534 H   0  0  0  0  0  0  0  0  0  0  0  0
  141.6253   70.5890  226.8166 H   0  0  0  0  0  0  0  0  0  0  0  0
  138.0830   67.6406  224.9079 H   0  0  0  0  0  0  0  0  0  0  0  0
  137.7821   69.2338  223.1318 H   0  0  0  0  0  0  0  0  0  0  0  0
  137.7515   70.8622  223.8042 H   0  0  0  0  0  0  0  0  0  0  0  0
  140.1621   69.5481  222.3910 H   0  0  0  0  0  0  0  0  0  0  0  0
  139.0599   70.7629  221.6483 H   0  0  0  0  0  0  0  0  0  0  0  0
  141.9590   76.5350  221.9970 H   0  0  0  0  0  0  0  0  0  0  0  0
  139.7444   77.0207  220.5803 H   0  0  0  0  0  0  0  0  0  0  0  0
  139.0602   75.6526  221.4931 H   0  0  0  0  0  0  0  0  0  0  0  0
  138.4415   77.6014  222.7319 H   0  0  0  0  0  0  0  0  0  0  0  0
  139.8574   76.9055  223.6164 H   0  0  0  0  0  0  0  0  0  0  0  0
  139.5869   79.5275  222.2662 H   0  0  0  0  0  0  0  0  0  0  0  0
  140.2492   79.6167  224.4340 H   0  0  0  0  0  0  0  0  0  0  0  0
  141.2986   78.1036  224.2297 H   0  0  0  0  0  0  0  0  0  0  0  0
  142.0892   80.7358  224.3927 H   0  0  0  0  0  0  0  0  0  0  0  0
  143.0213   79.1987  223.9316 H   0  0  0  0  0  0  0  0  0  0  0  0
  142.2755   81.5138  222.3730 H   0  0  0  0  0  0  0  0  0  0  0  0
  143.5906   80.2281  222.2062 H   0  0  0  0  0  0  0  0  0  0  0  0
  140.9684   80.4635  220.9107 H   0  0  0  0  0  0  0  0  0  0  0  0
  142.5320   79.7105  220.3770 H   0  0  0  0  0  0  0  0  0  0  0  0
  142.0500   77.9240  221.9720 H   0  0  0  0  0  0  0  0  0  0  0  0
  143.2587   73.7044  218.0453 H   0  0  0  0  0  0  0  0  0  0  0  0
  144.8093   73.6405  218.9777 H   0  0  0  0  0  0  0  0  0  0  0  0
  143.8592   71.6643  216.8797 H   0  0  0  0  0  0  0  0  0  0  0  0
  145.1810   72.9007  216.7253 H   0  0  0  0  0  0  0  0  0  0  0  0
  145.6080   70.4480  217.2640 H   0  0  0  0  0  0  0  0  0  0  0  0
  145.5478   69.6858  219.2741 H   0  0  0  0  0  0  0  0  0  0  0  0
  145.6901   71.3565  219.9919 H   0  0  0  0  0  0  0  0  0  0  0  0
  143.1875   70.2953  218.6179 H   0  0  0  0  0  0  0  0  0  0  0  0
  143.4293   70.2549  220.3668 H   0  0  0  0  0  0  0  0  0  0  0  0
  141.3633   72.0333  224.8967 H   0  0  0  0  0  0  0  0  0  0  0  0
  139.5910   72.3682  224.9110 H   0  0  0  0  0  0  0  0  0  0  0  0
  1  2  2  0
  2  3  1  0
  3  4  2  0
  4  5  1  0
  5  6  2  0
  5  7  1  0
  7  8  1  0
  8  9  1  0
  9 10  1  0
 10 11  2  0
 11 12  1  0
 12 13  1  0
 13 14  1  0
 14 15  1  0
 15 16  1  0
 16 17  1  0
 17 18  1  0
 18 19  1  0
 19 20  1  0
 20 21  1  0
 12 22  2  0
 22 23  1  0
 23 24  1  0
 24 25  1  0
 25 26  1  0
 26 27  1  0
 27 28  1  0
 28 29  1  0
 23 30  2  0
  9 31  1  0
  6  1  1  0
 30 10  1  0
 31  4  1  0
 21 16  1  0
 29 24  1  0
  1 32  1  0
  2 33  1  0
  3 34  1  0
  6 35  1  0
  7 36  1  0
  7 37  1  0
  8 38  1  0
  8 39  1  0
 13 40  1  0
 14 41  1  0
 14 42  1  0
 15 43  1  0
 15 44  1  0
 16 45  1  6
 17 46  1  0
 17 47  1  0
 18 48  1  0
 18 49  1  0
 19 50  1  0
 19 51  1  0
 20 52  1  0
 20 53  1  0
 21 54  1  0
 25 55  1  0
 25 56  1  0
 26 57  1  0
 26 58  1  0
 27 59  1  0
 28 60  1  0
 28 61  1  0
 29 62  1  0
 29 63  1  0
 31 64  1  0
 31 65  1  0
M  END
>  <smiles>  (92) 
c1ccc2c(c1)CCN(c1nc(NCCC3CCCCN3)nc(N3CCNCC3)n1)C2

>  <score_type>  (92) 
oracle

>  <origin>  (92) 
autodockgpu

>  <m_score__min__energy>  (92) 
-10.109999999999999

>  <m_primary>  (92) 
energy

>  <rmsd>  (92) 
10.91067570735689

>  <m_score__min__rmsd>  (92) 
10.91067570735689

>  <meeko>  (92) 
{"free_energy": -8.8, "intermolecular_energy": -10.59, "internal_energy": -1.21, "cluster_size": 24, "cluster_id": 1, "rank_in_cluster": 16}

>  <energy>  (92) 
-9.21

>  <cluster_rmsd>  (92) 
1.17

>  <cluster>  (92) 
2

$$$$

     RDKit          3D

 65 69  0  0  0  0  0  0  0  0999 V2000
  141.5030   81.3780  223.8600 C   0  0  0  0  0  0  0  0  0  0  0  0
  142.7470   80.9340  223.4420 C   0  0  0  0  0  0  0  0  0  0  0  0
  142.8750   79.8060  222.6430 C   0  0  0  0  0  0  0  0  0  0  0  0
  141.7340   79.1130  222.2610 C   0  0  0  0  0  0  0  0  0  0  0  0
  140.5080   79.5750  222.6910 C   0  0  0  0  0  0  0  0  0  0  0  0
  140.3670   80.6910  223.4810 C   0  0  0  0  0  0  0  0  0  0  0  0
  139.3190   78.7670  222.2330 C   0  0  0  0  0  0  0  0  0  0  0  0
  139.6580   77.3320  222.6140 C   0  0  0  0  0  0  0  0  0  0  0  0
  140.8490   76.8870  221.8860 N   0  0  0  0  0  0  0  0  0  0  0  0
  141.0160   75.5090  221.6910 C   0  0  0  0  0  0  0  0  0  0  0  0
  140.0950   74.6680  222.2120 N   0  0  0  0  0  0  0  0  0  0  0  0
  140.1730   73.3180  222.0700 C   0  0  0  0  0  0  0  0  0  0  0  0
  139.1380   72.5520  222.6650 N   0  0  0  0  0  0  0  0  0  0  0  0
  139.3680   71.1980  223.1780 C   0  0  0  0  0  0  0  0  0  0  0  0
  140.6320   71.2380  224.0100 C   0  0  0  0  0  0  0  0  0  0  0  0
  140.3080   71.3460  225.5020 C   0  0  1  0  0  0  0  0  0  0  0  0
  140.0180   69.9980  226.0640 C   0  0  0  0  0  0  0  0  0  0  0  0
  140.3070   69.7990  227.5060 C   0  0  0  0  0  0  0  0  0  0  0  0
  140.6770   71.0010  228.2940 C   0  0  0  0  0  0  0  0  0  0  0  0
  141.0890   72.2060  227.5000 C   0  0  0  0  0  0  0  0  0  0  0  0
  141.5070   71.8540  226.1460 N   0  0  0  0  0  0  0  0  0  0  0  0
  141.2000   72.7940  221.3920 N   0  0  0  0  0  0  0  0  0  0  0  0
  142.1480   73.6180  220.8520 C   0  0  0  0  0  0  0  0  0  0  0  0
  143.2650   73.1050  220.1410 N   0  0  0  0  0  0  0  0  0  0  0  0
  143.4590   73.3680  218.7170 C   0  0  0  0  0  0  0  0  0  0  0  0
  144.5330   72.4870  218.1390 C   0  0  0  0  0  0  0  0  0  0  0  0
  145.7940   72.6300  218.8420 N   0  0  0  0  0  0  0  0  0  0  0  0
  145.6150   72.8390  220.2640 C   0  0  0  0  0  0  0  0  0  0  0  0
  144.2990   72.2940  220.7840 C   0  0  0  0  0  0  0  0  0  0  0  0
  142.0500   74.9620  221.0040 N   0  0  0  0  0  0  0  0  0  0  0  0
  141.7930   77.8910  221.4070 C   0  0  0  0  0  0  0  0  0  0  0  0
  141.4207   82.2748  224.4917 H   0  0  0  0  0  0  0  0  0  0  0  0
  143.6486   81.4846  223.7484 H   0  0  0  0  0  0  0  0  0  0  0  0
  143.8686   79.4652  222.3164 H   0  0  0  0  0  0  0  0  0  0  0  0
  139.3714   81.0292  223.8040 H   0  0  0  0  0  0  0  0  0  0  0  0
  138.4038   79.0987  222.7453 H   0  0  0  0  0  0  0  0  0  0  0  0
  139.1301   78.8782  221.1551 H   0  0  0  0  0  0  0  0  0  0  0  0
  139.8513   77.2785  223.6956 H   0  0  0  0  0  0  0  0  0  0  0  0
  138.8113   76.6801  222.3530 H   0  0  0  0  0  0  0  0  0  0  0  0
  138.1940   73.0120  222.7150 H   0  0  0  0  0  0  0  0  0  0  0  0
  138.5179   70.8823  223.8006 H   0  0  0  0  0  0  0  0  0  0  0  0
  139.4704   70.4811  222.3500 H   0  0  0  0  0  0  0  0  0  0  0  0
  141.2074   70.3173  223.8333 H   0  0  0  0  0  0  0  0  0  0  0  0
  141.2160   72.1223  223.7150 H   0  0  0  0  0  0  0  0  0  0  0  0
  139.4346   71.9953  225.6617 H   0  0  0  0  0  0  0  0  0  0  0  0
  138.9482   69.7952  225.9077 H   0  0  0  0  0  0  0  0  0  0  0  0
  140.6983   69.3133  225.5364 H   0  0  0  0  0  0  0  0  0  0  0  0
  139.4079   69.3644  227.9672 H   0  0  0  0  0  0  0  0  0  0  0  0
  141.1996   69.1567  227.5311 H   0  0  0  0  0  0  0  0  0  0  0  0
  139.8079   71.2825  228.9068 H   0  0  0  0  0  0  0  0  0  0  0  0
  141.5638   70.7123  228.8772 H   0  0  0  0  0  0  0  0  0  0  0  0
  140.2371   72.8993  227.4394 H   0  0  0  0  0  0  0  0  0  0  0  0
  141.9460   72.6709  228.0094 H   0  0  0  0  0  0  0  0  0  0  0  0
  142.1870   71.0620  226.1880 H   0  0  0  0  0  0  0  0  0  0  0  0
  142.5149   73.1774  218.1857 H   0  0  0  0  0  0  0  0  0  0  0  0
  143.7687   74.4167  218.5969 H   0  0  0  0  0  0  0  0  0  0  0  0
  144.2063   71.4388  218.2066 H   0  0  0  0  0  0  0  0  0  0  0  0
  144.6923   72.7891  217.0934 H   0  0  0  0  0  0  0  0  0  0  0  0
  146.2850   71.6950  218.7510 H   0  0  0  0  0  0  0  0  0  0  0  0
  146.4365   72.3386  220.7976 H   0  0  0  0  0  0  0  0  0  0  0  0
  145.6121   73.9251  220.4382 H   0  0  0  0  0  0  0  0  0  0  0  0
  144.1848   71.2351  220.5090 H   0  0  0  0  0  0  0  0  0  0  0  0
  144.2381   72.3459  221.8811 H   0  0  0  0  0  0  0  0  0  0  0  0
  142.8110   77.4754  221.4395 H   0  0  0  0  0  0  0  0  0  0  0  0
  141.5281   78.1649  220.3751 H   0  0  0  0  0  0  0  0  0  0  0  0
  1  2  2  0
  2  3  1  0
  3  4  2  0
  4  5  1  0
  5  6  2  0
  5  7  1  0
  7  8  1  0
  8  9  1  0
  9 10  1  0
 10 11  2  0
 11 12  1  0
 12 13  1  0
 13 14  1  0
 14 15  1  0
 15 16  1  0
 16 17  1  0
 17 18  1  0
 18 19  1  0
 19 20  1  0
 20 21  1  0
 12 22  2  0
 22 23  1  0
 23 24  1  0
 24 25  1  0
 25 26  1  0
 26 27  1  0
 27 28  1  0
 28 29  1  0
 23 30  2  0
  9 31  1  0
  6  1  1  0
 30 10  1  0
 31  4  1  0
 21 16  1  0
 29 24  1  0
  1 32  1  0
  2 33  1  0
  3 34  1  0
  6 35  1  0
  7 36  1  0
  7 37  1  0
  8 38  1  0
  8 39  1  0
 13 40  1  0
 14 41  1  0
 14 42  1  0
 15 43  1  0
 15 44  1  0
 16 45  1  6
 17 46  1  0
 17 47  1  0
 18 48  1  0
 18 49  1  0
 19 50  1  0
 19 51  1  0
 20 52  1  0
 20 53  1  0
 21 54  1  0
 25 55  1  0
 25 56  1  0
 26 57  1  0
 26 58  1  0
 27 59  1  0
 28 60  1  0
 28 61  1  0
 29 62  1  0
 29 63  1  0
 31 64  1  0
 31 65  1  0
M  END
>  <smiles>  (93) 
c1ccc2c(c1)CCN(c1nc(NCCC3CCCCN3)nc(N3CCNCC3)n1)C2

>  <score_type>  (93) 
oracle

>  <origin>  (93) 
autodockgpu

>  <m_score__min__energy>  (93) 
-10.109999999999999

>  <m_primary>  (93) 
energy

>  <rmsd>  (93) 
5.483115010312751

>  <m_score__min__rmsd>  (93) 
5.483115010312751

>  <meeko>  (93) 
{"free_energy": -9.75, "intermolecular_energy": -11.54, "internal_energy": -0.88, "cluster_size": 26, "cluster_id": 2, "rank_in_cluster": 1}

>  <energy>  (93) 
-9.12

>  <cluster_rmsd>  (93) 
1.04

>  <cluster>  (93) 
2

$$$$

     RDKit          3D

 65 69  0  0  0  0  0  0  0  0999 V2000
  139.1450   81.6320  222.6490 C   0  0  0  0  0  0  0  0  0  0  0  0
  138.8160   80.8030  223.7100 C   0  0  0  0  0  0  0  0  0  0  0  0
  139.4290   79.5690  223.8710 C   0  0  0  0  0  0  0  0  0  0  0  0
  140.3860   79.1610  222.9520 C   0  0  0  0  0  0  0  0  0  0  0  0
  140.6960   80.0050  221.9050 C   0  0  0  0  0  0  0  0  0  0  0  0
  140.0960   81.2290  221.7330 C   0  0  0  0  0  0  0  0  0  0  0  0
  141.7440   79.4890  220.9510 C   0  0  0  0  0  0  0  0  0  0  0  0
  141.2610   78.0980  220.5620 C   0  0  0  0  0  0  0  0  0  0  0  0
  141.2200   77.2310  221.7430 N   0  0  0  0  0  0  0  0  0  0  0  0
  141.3120   75.8480  221.5390 C   0  0  0  0  0  0  0  0  0  0  0  0
  140.3740   75.0500  222.0960 N   0  0  0  0  0  0  0  0  0  0  0  0
  140.3810   73.6980  221.9480 C   0  0  0  0  0  0  0  0  0  0  0  0
  139.3360   72.9800  222.5830 N   0  0  0  0  0  0  0  0  0  0  0  0
  139.4840   71.5760  222.9790 C   0  0  0  0  0  0  0  0  0  0  0  0
  140.6990   71.4840  223.8770 C   0  0  0  0  0  0  0  0  0  0  0  0
  140.2910   71.3110  225.3420 C   0  0  1  0  0  0  0  0  0  0  0  0
  140.1060   69.8670  225.6560 C   0  0  0  0  0  0  0  0  0  0  0  0
  140.3400   69.4540  227.0630 C   0  0  0  0  0  0  0  0  0  0  0  0
  140.5490   70.5340  228.0580 C   0  0  0  0  0  0  0  0  0  0  0  0
  140.8800   71.8870  227.5010 C   0  0  0  0  0  0  0  0  0  0  0  0
  141.3990   71.8070  226.1380 N   0  0  0  0  0  0  0  0  0  0  0  0
  141.3530   73.1290  221.2260 N   0  0  0  0  0  0  0  0  0  0  0  0
  142.3160   73.9080  220.6500 C   0  0  0  0  0  0  0  0  0  0  0  0
  143.3780   73.3460  219.8920 N   0  0  0  0  0  0  0  0  0  0  0  0
  143.8430   73.9540  218.6480 C   0  0  0  0  0  0  0  0  0  0  0  0
  144.7560   73.0270  217.8930 C   0  0  0  0  0  0  0  0  0  0  0  0
  145.8920   72.6090  218.6920 N   0  0  0  0  0  0  0  0  0  0  0  0
  145.5520   72.4300  220.0890 C   0  0  0  0  0  0  0  0  0  0  0  0
  144.0810   72.1330  220.3090 C   0  0  0  0  0  0  0  0  0  0  0  0
  142.2900   75.2550  220.8090 N   0  0  0  0  0  0  0  0  0  0  0  0
  141.0860   77.8480  223.0590 C   0  0  0  0  0  0  0  0  0  0  0  0
  138.6499   82.6079  222.5372 H   0  0  0  0  0  0  0  0  0  0  0  0
  138.0566   81.1288  224.4361 H   0  0  0  0  0  0  0  0  0  0  0  0
  139.1596   78.9207  224.7179 H   0  0  0  0  0  0  0  0  0  0  0  0
  140.3674   81.8737  220.8841 H   0  0  0  0  0  0  0  0  0  0  0  0
  141.8148   80.1370  220.0649 H   0  0  0  0  0  0  0  0  0  0  0  0
  142.7462   79.4701  221.4041 H   0  0  0  0  0  0  0  0  0  0  0  0
  140.2525   78.1709  220.1289 H   0  0  0  0  0  0  0  0  0  0  0  0
  141.9549   77.6690  219.8241 H   0  0  0  0  0  0  0  0  0  0  0  0
  138.4470   73.5140  222.7540 H   0  0  0  0  0  0  0  0  0  0  0  0
  138.5882   71.2426  223.5234 H   0  0  0  0  0  0  0  0  0  0  0  0
  139.6058   70.9339  222.0942 H   0  0  0  0  0  0  0  0  0  0  0  0
  141.3081   70.6212  223.5696 H   0  0  0  0  0  0  0  0  0  0  0  0
  141.2739   72.4171  223.7828 H   0  0  0  0  0  0  0  0  0  0  0  0
  139.3516   71.8451  225.5474 H   0  0  0  0  0  0  0  0  0  0  0  0
  139.0704   69.6001  225.3984 H   0  0  0  0  0  0  0  0  0  0  0  0
  140.8755   69.3434  225.0698 H   0  0  0  0  0  0  0  0  0  0  0  0
  139.4660   68.8698  227.3867 H   0  0  0  0  0  0  0  0  0  0  0  0
  141.2890   68.8982  227.0425 H   0  0  0  0  0  0  0  0  0  0  0  0
  139.6263   70.6300  228.6491 H   0  0  0  0  0  0  0  0  0  0  0  0
  141.4296   70.2311  228.6435 H   0  0  0  0  0  0  0  0  0  0  0  0
  139.9682   72.5023  227.4980 H   0  0  0  0  0  0  0  0  0  0  0  0
  141.6600   72.3334  228.1353 H   0  0  0  0  0  0  0  0  0  0  0  0
  142.1510   71.0830  226.0960 H   0  0  0  0  0  0  0  0  0  0  0  0
  142.9729   74.1911  218.0182 H   0  0  0  0  0  0  0  0  0  0  0  0
  144.4043   74.8667  218.8969 H   0  0  0  0  0  0  0  0  0  0  0  0
  144.1864   72.1352  217.5926 H   0  0  0  0  0  0  0  0  0  0  0  0
  145.1399   73.5696  217.0165 H   0  0  0  0  0  0  0  0  0  0  0  0
  146.1590   71.6460  218.3380 H   0  0  0  0  0  0  0  0  0  0  0  0
  146.1421   71.5920  220.4885 H   0  0  0  0  0  0  0  0  0  0  0  0
  145.7771   73.3748  220.6055 H   0  0  0  0  0  0  0  0  0  0  0  0
  143.7652   71.2748  219.6977 H   0  0  0  0  0  0  0  0  0  0  0  0
  143.8663   71.8729  221.3560 H   0  0  0  0  0  0  0  0  0  0  0  0
  140.5062   77.1811  223.7141 H   0  0  0  0  0  0  0  0  0  0  0  0
  142.0895   78.0131  223.4782 H   0  0  0  0  0  0  0  0  0  0  0  0
  1  2  2  0
  2  3  1  0
  3  4  2  0
  4  5  1  0
  5  6  2  0
  5  7  1  0
  7  8  1  0
  8  9  1  0
  9 10  1  0
 10 11  2  0
 11 12  1  0
 12 13  1  0
 13 14  1  0
 14 15  1  0
 15 16  1  0
 16 17  1  0
 17 18  1  0
 18 19  1  0
 19 20  1  0
 20 21  1  0
 12 22  2  0
 22 23  1  0
 23 24  1  0
 24 25  1  0
 25 26  1  0
 26 27  1  0
 27 28  1  0
 28 29  1  0
 23 30  2  0
  9 31  1  0
  6  1  1  0
 30 10  1  0
 31  4  1  0
 21 16  1  0
 29 24  1  0
  1 32  1  0
  2 33  1  0
  3 34  1  0
  6 35  1  0
  7 36  1  0
  7 37  1  0
  8 38  1  0
  8 39  1  0
 13 40  1  0
 14 41  1  0
 14 42  1  0
 15 43  1  0
 15 44  1  0
 16 45  1  6
 17 46  1  0
 17 47  1  0
 18 48  1  0
 18 49  1  0
 19 50  1  0
 19 51  1  0
 20 52  1  0
 20 53  1  0
 21 54  1  0
 25 55  1  0
 25 56  1  0
 26 57  1  0
 26 58  1  0
 27 59  1  0
 28 60  1  0
 28 61  1  0
 29 62  1  0
 29 63  1  0
 31 64  1  0
 31 65  1  0
M  END
>  <smiles>  (94) 
c1ccc2c(c1)CCN(c1nc(NCCC3CCCCN3)nc(N3CCNCC3)n1)C2

>  <score_type>  (94) 
oracle

>  <origin>  (94) 
autodockgpu

>  <m_score__min__energy>  (94) 
-10.109999999999999

>  <m_primary>  (94) 
energy

>  <rmsd>  (94) 
5.099071323428239

>  <m_score__min__rmsd>  (94) 
5.099071323428239

>  <meeko>  (94) 
{"free_energy": -9.01, "intermolecular_energy": -10.8, "internal_energy": -0.85, "cluster_size": 26, "cluster_id": 2, "rank_in_cluster": 21}

>  <energy>  (94) 
-9.11

>  <cluster_rmsd>  (94) 
1.14

>  <cluster>  (94) 
2

$$$$

     RDKit          3D

 65 69  0  0  0  0  0  0  0  0999 V2000
  139.6750   67.7800  226.0320 C   0  0  0  0  0  0  0  0  0  0  0  0
  140.5960   68.6180  226.6410 C   0  0  0  0  0  0  0  0  0  0  0  0
  140.8270   69.8990  226.1580 C   0  0  0  0  0  0  0  0  0  0  0  0
  140.1230   70.3430  225.0470 C   0  0  0  0  0  0  0  0  0  0  0  0
  139.2120   69.4890  224.4600 C   0  0  0  0  0  0  0  0  0  0  0  0
  138.9740   68.2180  224.9270 C   0  0  0  0  0  0  0  0  0  0  0  0
  138.4900   70.0450  223.2580 C   0  0  0  0  0  0  0  0  0  0  0  0
  139.5960   70.5630  222.3490 C   0  0  0  0  0  0  0  0  0  0  0  0
  140.3270   71.6460  223.0120 N   0  0  0  0  0  0  0  0  0  0  0  0
  140.9980   72.5710  222.2010 C   0  0  0  0  0  0  0  0  0  0  0  0
  140.7100   73.8840  222.3450 N   0  0  0  0  0  0  0  0  0  0  0  0
  141.3140   74.8510  221.6040 C   0  0  0  0  0  0  0  0  0  0  0  0
  140.9200   76.1900  221.8590 N   0  0  0  0  0  0  0  0  0  0  0  0
  139.6770   76.7510  221.3220 C   0  0  0  0  0  0  0  0  0  0  0  0
  139.9800   78.1570  220.8510 C   0  0  0  0  0  0  0  0  0  0  0  0
  141.0760   78.8010  221.7040 C   0  0  1  0  0  0  0  0  0  0  0  0
  141.1540   80.2620  221.4220 C   0  0  0  0  0  0  0  0  0  0  0  0
  141.6470   81.1290  222.5210 C   0  0  0  0  0  0  0  0  0  0  0  0
  142.1910   80.4520  223.7240 C   0  0  0  0  0  0  0  0  0  0  0  0
  141.8460   79.0000  223.8740 C   0  0  0  0  0  0  0  0  0  0  0  0
  140.6710   78.6310  223.0880 N   0  0  0  0  0  0  0  0  0  0  0  0
  142.2270   74.4970  220.6940 N   0  0  0  0  0  0  0  0  0  0  0  0
  142.5410   73.1780  220.5240 C   0  0  0  0  0  0  0  0  0  0  0  0
  143.4900   72.7540  219.5560 N   0  0  0  0  0  0  0  0  0  0  0  0
  144.1780   73.7050  218.6840 C   0  0  0  0  0  0  0  0  0  0  0  0
  144.8950   73.0010  217.5650 C   0  0  0  0  0  0  0  0  0  0  0  0
  145.8370   72.0120  218.0560 N   0  0  0  0  0  0  0  0  0  0  0  0
  145.3610   71.3380  219.2470 C   0  0  0  0  0  0  0  0  0  0  0  0
  143.8500   71.3480  219.3730 C   0  0  0  0  0  0  0  0  0  0  0  0
  141.9280   72.2290  221.2740 N   0  0  0  0  0  0  0  0  0  0  0  0
  140.3200   71.7050  224.4710 C   0  0  0  0  0  0  0  0  0  0  0  0
  139.5034   66.7684  226.4285 H   0  0  0  0  0  0  0  0  0  0  0  0
  141.1525   68.2625  227.5207 H   0  0  0  0  0  0  0  0  0  0  0  0
  141.5599   70.5550  226.6504 H   0  0  0  0  0  0  0  0  0  0  0  0
  138.2411   67.5648  224.4309 H   0  0  0  0  0  0  0  0  0  0  0  0
  137.9110   69.2569  222.7543 H   0  0  0  0  0  0  0  0  0  0  0  0
  137.7722   70.8326  223.5309 H   0  0  0  0  0  0  0  0  0  0  0  0
  140.2915   69.7426  222.1184 H   0  0  0  0  0  0  0  0  0  0  0  0
  139.1485   70.9466  221.4203 H   0  0  0  0  0  0  0  0  0  0  0  0
  141.5730   76.7560  222.4570 H   0  0  0  0  0  0  0  0  0  0  0  0
  139.3227   76.1403  220.4785 H   0  0  0  0  0  0  0  0  0  0  0  0
  138.8914   76.7607  222.0919 H   0  0  0  0  0  0  0  0  0  0  0  0
  140.3149   78.1205  219.8038 H   0  0  0  0  0  0  0  0  0  0  0  0
  139.0653   78.7609  220.9442 H   0  0  0  0  0  0  0  0  0  0  0  0
  142.0526   78.3422  221.4898 H   0  0  0  0  0  0  0  0  0  0  0  0
  141.8260   80.3998  220.5621 H   0  0  0  0  0  0  0  0  0  0  0  0
  140.1147   80.5783  221.2492 H   0  0  0  0  0  0  0  0  0  0  0  0
  142.4449   81.7645  222.1092 H   0  0  0  0  0  0  0  0  0  0  0  0
  140.7580   81.6704  222.8768 H   0  0  0  0  0  0  0  0  0  0  0  0
  143.2873   80.5357  223.6904 H   0  0  0  0  0  0  0  0  0  0  0  0
  141.7271   80.9574  224.5839 H   0  0  0  0  0  0  0  0  0  0  0  0
  142.7015   78.3955  223.5384 H   0  0  0  0  0  0  0  0  0  0  0  0
  141.6173   78.8136  224.9337 H   0  0  0  0  0  0  0  0  0  0  0  0
  139.9050   79.3190  223.2660 H   0  0  0  0  0  0  0  0  0  0  0  0
  143.4388   74.3980  218.2559 H   0  0  0  0  0  0  0  0  0  0  0  0
  144.9215   74.2505  219.2836 H   0  0  0  0  0  0  0  0  0  0  0  0
  144.1519   72.4978  216.9290 H   0  0  0  0  0  0  0  0  0  0  0  0
  145.4608   73.7551  216.9983 H   0  0  0  0  0  0  0  0  0  0  0  0
  145.8900   71.2640  217.3070 H   0  0  0  0  0  0  0  0  0  0  0  0
  145.7029   70.2929  219.2179 H   0  0  0  0  0  0  0  0  0  0  0  0
  145.7658   71.8801  220.1143 H   0  0  0  0  0  0  0  0  0  0  0  0
  143.3842   70.9460  218.4612 H   0  0  0  0  0  0  0  0  0  0  0  0
  143.5029   70.7225  220.2086 H   0  0  0  0  0  0  0  0  0  0  0  0
  141.2803   72.1111  224.8217 H   0  0  0  0  0  0  0  0  0  0  0  0
  139.4931   72.3528  224.7973 H   0  0  0  0  0  0  0  0  0  0  0  0
  1  2  2  0
  2  3  1  0
  3  4  2  0
  4  5  1  0
  5  6  2  0
  5  7  1  0
  7  8  1  0
  8  9  1  0
  9 10  1  0
 10 11  2  0
 11 12  1  0
 12 13  1  0
 13 14  1  0
 14 15  1  0
 15 16  1  0
 16 17  1  0
 17 18  1  0
 18 19  1  0
 19 20  1  0
 20 21  1  0
 12 22  2  0
 22 23  1  0
 23 24  1  0
 24 25  1  0
 25 26  1  0
 26 27  1  0
 27 28  1  0
 28 29  1  0
 23 30  2  0
  9 31  1  0
  6  1  1  0
 30 10  1  0
 31  4  1  0
 21 16  1  0
 29 24  1  0
  1 32  1  0
  2 33  1  0
  3 34  1  0
  6 35  1  0
  7 36  1  0
  7 37  1  0
  8 38  1  0
  8 39  1  0
 13 40  1  0
 14 41  1  0
 14 42  1  0
 15 43  1  0
 15 44  1  0
 16 45  1  1
 17 46  1  0
 17 47  1  0
 18 48  1  0
 18 49  1  0
 19 50  1  0
 19 51  1  0
 20 52  1  0
 20 53  1  0
 21 54  1  0
 25 55  1  0
 25 56  1  0
 26 57  1  0
 26 58  1  0
 27 59  1  0
 28 60  1  0
 28 61  1  0
 29 62  1  0
 29 63  1  0
 31 64  1  0
 31 65  1  0
M  END
>  <smiles>  (95) 
c1ccc2c(c1)CCN(c1nc(NCCC3CCCCN3)nc(N3CCNCC3)n1)C2

>  <score_type>  (95) 
oracle

>  <origin>  (95) 
autodockgpu

>  <m_score__min__energy>  (95) 
-10.109999999999999

>  <m_primary>  (95) 
energy

>  <rmsd>  (95) 
10.765850514998473

>  <m_score__min__rmsd>  (95) 
10.765850514998473

>  <meeko>  (95) 
{"free_energy": -8.43, "intermolecular_energy": -10.22, "internal_energy": -1.34, "cluster_size": 24, "cluster_id": 1, "rank_in_cluster": 22}

>  <energy>  (95) 
-9.01

>  <cluster_rmsd>  (95) 
0.83

>  <cluster>  (95) 
2

$$$$

     RDKit          3D

 65 69  0  0  0  0  0  0  0  0999 V2000
  139.6000   67.7940  226.2930 C   0  0  0  0  0  0  0  0  0  0  0  0
  140.5660   68.6200  226.8460 C   0  0  0  0  0  0  0  0  0  0  0  0
  140.8380   69.8680  226.3040 C   0  0  0  0  0  0  0  0  0  0  0  0
  140.1300   70.2920  225.1880 C   0  0  0  0  0  0  0  0  0  0  0  0
  139.1740   69.4510  224.6560 C   0  0  0  0  0  0  0  0  0  0  0  0
  138.8950   68.2130  225.1830 C   0  0  0  0  0  0  0  0  0  0  0  0
  138.4490   69.9840  223.4450 C   0  0  0  0  0  0  0  0  0  0  0  0
  139.5560   70.4170  222.4930 C   0  0  0  0  0  0  0  0  0  0  0  0
  140.3430   71.4970  223.0940 N   0  0  0  0  0  0  0  0  0  0  0  0
  141.0340   72.3580  222.2310 C   0  0  0  0  0  0  0  0  0  0  0  0
  140.8200   73.6880  222.3390 N   0  0  0  0  0  0  0  0  0  0  0  0
  141.4470   74.5980  221.5470 C   0  0  0  0  0  0  0  0  0  0  0  0
  141.1330   75.9630  221.7690 N   0  0  0  0  0  0  0  0  0  0  0  0
  139.7940   76.5040  221.5170 C   0  0  0  0  0  0  0  0  0  0  0  0
  139.4630   77.4440  222.6570 C   0  0  0  0  0  0  0  0  0  0  0  0
  140.2580   78.7470  222.5460 C   0  0  1  0  0  0  0  0  0  0  0  0
  140.9510   79.0370  223.8320 C   0  0  0  0  0  0  0  0  0  0  0  0
  142.2040   79.8290  223.7530 C   0  0  0  0  0  0  0  0  0  0  0  0
  142.5510   80.4150  222.4340 C   0  0  0  0  0  0  0  0  0  0  0  0
  141.8250   79.8470  221.2510 C   0  0  0  0  0  0  0  0  0  0  0  0
  141.2720   78.5250  221.5290 N   0  0  0  0  0  0  0  0  0  0  0  0
  142.3090   74.1670  220.6200 N   0  0  0  0  0  0  0  0  0  0  0  0
  142.5480   72.8270  220.4850 C   0  0  0  0  0  0  0  0  0  0  0  0
  143.4400   72.3230  219.5010 N   0  0  0  0  0  0  0  0  0  0  0  0
  144.0710   73.1960  218.5140 C   0  0  0  0  0  0  0  0  0  0  0  0
  144.7250   72.3990  217.4180 C   0  0  0  0  0  0  0  0  0  0  0  0
  145.6970   71.4550  217.9340 N   0  0  0  0  0  0  0  0  0  0  0  0
  145.2960   70.8840  219.2040 C   0  0  0  0  0  0  0  0  0  0  0  0
  143.7950   70.9070  219.4170 C   0  0  0  0  0  0  0  0  0  0  0  0
  141.9120   71.9370  221.2860 N   0  0  0  0  0  0  0  0  0  0  0  0
  140.3680   71.6190  224.5480 C   0  0  0  0  0  0  0  0  0  0  0  0
  139.3961   66.8085  226.7371 H   0  0  0  0  0  0  0  0  0  0  0  0
  141.1265   68.2804  227.7295 H   0  0  0  0  0  0  0  0  0  0  0  0
  141.6062   70.5142  226.7538 H   0  0  0  0  0  0  0  0  0  0  0  0
  138.1263   67.5698  224.7299 H   0  0  0  0  0  0  0  0  0  0  0  0
  137.8285   69.1993  222.9875 H   0  0  0  0  0  0  0  0  0  0  0  0
  137.7689   70.8110  223.6970 H   0  0  0  0  0  0  0  0  0  0  0  0
  140.2134   69.5598  222.2855 H   0  0  0  0  0  0  0  0  0  0  0  0
  139.1051   70.7780  221.5569 H   0  0  0  0  0  0  0  0  0  0  0  0
  141.9180   76.5650  222.1250 H   0  0  0  0  0  0  0  0  0  0  0  0
  139.7832   77.0516  220.5631 H   0  0  0  0  0  0  0  0  0  0  0  0
  139.0532   75.6933  221.4547 H   0  0  0  0  0  0  0  0  0  0  0  0
  138.3880   77.6758  222.6308 H   0  0  0  0  0  0  0  0  0  0  0  0
  139.7297   76.9519  223.6039 H   0  0  0  0  0  0  0  0  0  0  0  0
  139.5906   79.5864  222.3011 H   0  0  0  0  0  0  0  0  0  0  0  0
  140.2475   79.5899  224.4719 H   0  0  0  0  0  0  0  0  0  0  0  0
  141.2553   78.0549  224.2230 H   0  0  0  0  0  0  0  0  0  0  0  0
  142.1183   80.6575  224.4716 H   0  0  0  0  0  0  0  0  0  0  0  0
  143.0091   79.1103  223.9660 H   0  0  0  0  0  0  0  0  0  0  0  0
  142.3337   81.4925  222.4767 H   0  0  0  0  0  0  0  0  0  0  0  0
  143.6126   80.1761  222.2733 H   0  0  0  0  0  0  0  0  0  0  0  0
  141.0028   80.5256  220.9801 H   0  0  0  0  0  0  0  0  0  0  0  0
  142.5468   79.7458  220.4272 H   0  0  0  0  0  0  0  0  0  0  0  0
  142.0090   77.9250  221.9630 H   0  0  0  0  0  0  0  0  0  0  0  0
  143.3049   73.8506  218.0728 H   0  0  0  0  0  0  0  0  0  0  0  0
  144.8456   73.7902  219.0208 H   0  0  0  0  0  0  0  0  0  0  0  0
  143.9482   71.8446  216.8710 H   0  0  0  0  0  0  0  0  0  0  0  0
  145.2540   73.1023  216.7580 H   0  0  0  0  0  0  0  0  0  0  0  0
  145.7100   70.6460  217.2490 H   0  0  0  0  0  0  0  0  0  0  0  0
  145.6395   69.8397  219.2427 H   0  0  0  0  0  0  0  0  0  0  0  0
  145.7501   71.4957  219.9975 H   0  0  0  0  0  0  0  0  0  0  0  0
  143.2783   70.4295  218.5714 H   0  0  0  0  0  0  0  0  0  0  0  0
  143.5002   70.3554  220.3219 H   0  0  0  0  0  0  0  0  0  0  0  0
  141.3503   72.0015  224.8623 H   0  0  0  0  0  0  0  0  0  0  0  0
  139.5733   72.3124  224.8606 H   0  0  0  0  0  0  0  0  0  0  0  0
  1  2  2  0
  2  3  1  0
  3  4  2  0
  4  5  1  0
  5  6  2  0
  5  7  1  0
  7  8  1  0
  8  9  1  0
  9 10  1  0
 10 11  2  0
 11 12  1  0
 12 13  1  0
 13 14  1  0
 14 15  1  0
 15 16  1  0
 16 17  1  0
 17 18  1  0
 18 19  1  0
 19 20  1  0
 20 21  1  0
 12 22  2  0
 22 23  1  0
 23 24  1  0
 24 25  1  0
 25 26  1  0
 26 27  1  0
 27 28  1  0
 28 29  1  0
 23 30  2  0
  9 31  1  0
  6  1  1  0
 30 10  1  0
 31  4  1  0
 21 16  1  0
 29 24  1  0
  1 32  1  0
  2 33  1  0
  3 34  1  0
  6 35  1  0
  7 36  1  0
  7 37  1  0
  8 38  1  0
  8 39  1  0
 13 40  1  0
 14 41  1  0
 14 42  1  0
 15 43  1  0
 15 44  1  0
 16 45  1  6
 17 46  1  0
 17 47  1  0
 18 48  1  0
 18 49  1  0
 19 50  1  0
 19 51  1  0
 20 52  1  0
 20 53  1  0
 21 54  1  0
 25 55  1  0
 25 56  1  0
 26 57  1  0
 26 58  1  0
 27 59  1  0
 28 60  1  0
 28 61  1  0
 29 62  1  0
 29 63  1  0
 31 64  1  0
 31 65  1  0
M  END
>  <smiles>  (96) 
c1ccc2c(c1)CCN(c1nc(NCCC3CCCCN3)nc(N3CCNCC3)n1)C2

>  <score_type>  (96) 
oracle

>  <origin>  (96) 
autodockgpu

>  <m_score__min__energy>  (96) 
-10.109999999999999

>  <m_primary>  (96) 
energy

>  <rmsd>  (96) 
10.89842384065994

>  <m_score__min__rmsd>  (96) 
10.89842384065994

>  <meeko>  (96) 
{"free_energy": -8.81, "intermolecular_energy": -10.6, "internal_energy": -1.22, "cluster_size": 24, "cluster_id": 1, "rank_in_cluster": 15}

>  <energy>  (96) 
-9.0

>  <cluster_rmsd>  (96) 
1.65

>  <cluster>  (96) 
2

$$$$

     RDKit          3D

 65 69  0  0  0  0  0  0  0  0999 V2000
  140.2970   67.5060  226.3790 C   0  0  0  0  0  0  0  0  0  0  0  0
  141.0550   68.5090  226.9600 C   0  0  0  0  0  0  0  0  0  0  0  0
  141.0050   69.8120  226.4840 C   0  0  0  0  0  0  0  0  0  0  0  0
  140.1800   70.1090  225.4070 C   0  0  0  0  0  0  0  0  0  0  0  0
  139.4360   69.0920  224.8470 C   0  0  0  0  0  0  0  0  0  0  0  0
  139.4760   67.7980  225.3090 C   0  0  0  0  0  0  0  0  0  0  0  0
  138.5670   69.4960  223.6820 C   0  0  0  0  0  0  0  0  0  0  0  0
  139.5080   70.2290  222.7350 C   0  0  0  0  0  0  0  0  0  0  0  0
  140.0340   71.4340  223.3810 N   0  0  0  0  0  0  0  0  0  0  0  0
  140.4710   72.4780  222.5550 C   0  0  0  0  0  0  0  0  0  0  0  0
  139.6440   73.5260  222.3460 N   0  0  0  0  0  0  0  0  0  0  0  0
  139.9850   74.5840  221.5630 C   0  0  0  0  0  0  0  0  0  0  0  0
  139.0230   75.6180  221.4310 N   0  0  0  0  0  0  0  0  0  0  0  0
  139.2290   76.9500  222.0060 C   0  0  0  0  0  0  0  0  0  0  0  0
  140.2590   77.6590  221.1530 C   0  0  0  0  0  0  0  0  0  0  0  0
  141.3430   78.3050  222.0200 C   0  0  1  0  0  0  0  0  0  0  0  0
  141.8250   79.5640  221.3860 C   0  0  0  0  0  0  0  0  0  0  0  0
  142.3520   80.6110  222.2960 C   0  0  0  0  0  0  0  0  0  0  0  0
  142.5260   80.2410  223.7230 C   0  0  0  0  0  0  0  0  0  0  0  0
  141.8110   79.0020  224.1730 C   0  0  0  0  0  0  0  0  0  0  0  0
  140.7100   78.6490  223.2810 N   0  0  0  0  0  0  0  0  0  0  0  0
  141.1840   74.5940  220.9710 N   0  0  0  0  0  0  0  0  0  0  0  0
  142.0440   73.5490  221.1620 C   0  0  0  0  0  0  0  0  0  0  0  0
  143.3190   73.5070  220.5370 N   0  0  0  0  0  0  0  0  0  0  0  0
  144.2890   72.4550  220.8340 C   0  0  0  0  0  0  0  0  0  0  0  0
  145.6480   72.7910  220.2830 C   0  0  0  0  0  0  0  0  0  0  0  0
  145.6120   73.0390  218.8540 N   0  0  0  0  0  0  0  0  0  0  0  0
  144.3950   73.7070  218.4380 C   0  0  0  0  0  0  0  0  0  0  0  0
  143.7430   74.5020  219.5520 C   0  0  0  0  0  0  0  0  0  0  0  0
  141.6850   72.5040  221.9480 N   0  0  0  0  0  0  0  0  0  0  0  0
  140.0760   71.4850  224.8390 C   0  0  0  0  0  0  0  0  0  0  0  0
  140.3493   66.4790  226.7696 H   0  0  0  0  0  0  0  0  0  0  0  0
  141.7073   68.2692  227.8126 H   0  0  0  0  0  0  0  0  0  0  0  0
  141.6116   70.5999  226.9542 H   0  0  0  0  0  0  0  0  0  0  0  0
  138.8673   67.0130  224.8365 H   0  0  0  0  0  0  0  0  0  0  0  0
  138.1371   68.6095  223.1928 H   0  0  0  0  0  0  0  0  0  0  0  0
  137.7179   70.1223  223.9931 H   0  0  0  0  0  0  0  0  0  0  0  0
  140.3435   69.5658  222.4667 H   0  0  0  0  0  0  0  0  0  0  0  0
  138.9543   70.5183  221.8296 H   0  0  0  0  0  0  0  0  0  0  0  0
  138.1530   75.3730  220.8950 H   0  0  0  0  0  0  0  0  0  0  0  0
  138.2838   77.5126  221.9988 H   0  0  0  0  0  0  0  0  0  0  0  0
  139.5746   76.8734  223.0475 H   0  0  0  0  0  0  0  0  0  0  0  0
  140.7279   76.9299  220.4758 H   0  0  0  0  0  0  0  0  0  0  0  0
  139.7531   78.4498  220.5797 H   0  0  0  0  0  0  0  0  0  0  0  0
  142.1942   77.6201  222.1482 H   0  0  0  0  0  0  0  0  0  0  0  0
  142.6292   79.2969  220.6846 H   0  0  0  0  0  0  0  0  0  0  0  0
  140.9351   80.0101  220.9179 H   0  0  0  0  0  0  0  0  0  0  0  0
  143.3352   80.9201  221.9115 H   0  0  0  0  0  0  0  0  0  0  0  0
  141.5848   81.3993  222.2977 H   0  0  0  0  0  0  0  0  0  0  0  0
  143.6010   80.0936  223.9037 H   0  0  0  0  0  0  0  0  0  0  0  0
  142.0814   81.0657  224.2994 H   0  0  0  0  0  0  0  0  0  0  0  0
  142.5280   78.1682  224.1988 H   0  0  0  0  0  0  0  0  0  0  0  0
  141.3900   79.1970  225.1704 H   0  0  0  0  0  0  0  0  0  0  0  0
  140.1230   79.4940  223.1030 H   0  0  0  0  0  0  0  0  0  0  0  0
  144.3645   72.3352  221.9248 H   0  0  0  0  0  0  0  0  0  0  0  0
  143.9446   71.5229  220.3623 H   0  0  0  0  0  0  0  0  0  0  0  0
  146.0233   73.6922  220.7900 H   0  0  0  0  0  0  0  0  0  0  0  0
  146.3078   71.9289  220.4605 H   0  0  0  0  0  0  0  0  0  0  0  0
  146.3950   73.7260  218.6580 H   0  0  0  0  0  0  0  0  0  0  0  0
  144.6367   74.3934  217.6131 H   0  0  0  0  0  0  0  0  0  0  0  0
  143.6820   72.9281  218.1299 H   0  0  0  0  0  0  0  0  0  0  0  0
  144.4636   75.2033  219.9980 H   0  0  0  0  0  0  0  0  0  0  0  0
  142.8981   75.1043  219.1867 H   0  0  0  0  0  0  0  0  0  0  0  0
  140.9492   72.0743  225.1557 H   0  0  0  0  0  0  0  0  0  0  0  0
  139.1501   71.9523  225.2056 H   0  0  0  0  0  0  0  0  0  0  0  0
  1  2  2  0
  2  3  1  0
  3  4  2  0
  4  5  1  0
  5  6  2  0
  5  7  1  0
  7  8  1  0
  8  9  1  0
  9 10  1  0
 10 11  2  0
 11 12  1  0
 12 13  1  0
 13 14  1  0
 14 15  1  0
 15 16  1  0
 16 17  1  0
 17 18  1  0
 18 19  1  0
 19 20  1  0
 20 21  1  0
 12 22  2  0
 22 23  1  0
 23 24  1  0
 24 25  1  0
 25 26  1  0
 26 27  1  0
 27 28  1  0
 28 29  1  0
 23 30  2  0
  9 31  1  0
  6  1  1  0
 30 10  1  0
 31  4  1  0
 21 16  1  0
 29 24  1  0
  1 32  1  0
  2 33  1  0
  3 34  1  0
  6 35  1  0
  7 36  1  0
  7 37  1  0
  8 38  1  0
  8 39  1  0
 13 40  1  0
 14 41  1  0
 14 42  1  0
 15 43  1  0
 15 44  1  0
 16 45  1  1
 17 46  1  0
 17 47  1  0
 18 48  1  0
 18 49  1  0
 19 50  1  0
 19 51  1  0
 20 52  1  0
 20 53  1  0
 21 54  1  0
 25 55  1  0
 25 56  1  0
 26 57  1  0
 26 58  1  0
 27 59  1  0
 28 60  1  0
 28 61  1  0
 29 62  1  0
 29 63  1  0
 31 64  1  0
 31 65  1  0
M  END
>  <smiles>  (97) 
c1ccc2c(c1)CCN(c1nc(NCCC3CCCCN3)nc(N3CCNCC3)n1)C2

>  <score_type>  (97) 
oracle

>  <origin>  (97) 
autodockgpu

>  <m_score__min__energy>  (97) 
-10.109999999999999

>  <m_primary>  (97) 
energy

>  <rmsd>  (97) 
11.123229912016278

>  <m_score__min__rmsd>  (97) 
11.123229912016278

>  <meeko>  (97) 
{"free_energy": -9.54, "intermolecular_energy": -11.33, "internal_energy": -0.92, "cluster_size": 24, "cluster_id": 1, "rank_in_cluster": 9}

>  <energy>  (97) 
-8.92

>  <cluster_rmsd>  (97) 
1.49

>  <cluster>  (97) 
2

$$$$

     RDKit          3D

 65 69  0  0  0  0  0  0  0  0999 V2000
  141.0770   81.2570  223.6370 C   0  0  0  0  0  0  0  0  0  0  0  0
  142.3280   80.8760  223.1800 C   0  0  0  0  0  0  0  0  0  0  0  0
  142.4930   79.7290  222.4160 C   0  0  0  0  0  0  0  0  0  0  0  0
  141.3830   78.9540  222.1080 C   0  0  0  0  0  0  0  0  0  0  0  0
  140.1490   79.3560  222.5740 C   0  0  0  0  0  0  0  0  0  0  0  0
  139.9720   80.4890  223.3320 C   0  0  0  0  0  0  0  0  0  0  0  0
  138.9950   78.4600  222.1970 C   0  0  0  0  0  0  0  0  0  0  0  0
  139.4390   77.0640  222.6110 C   0  0  0  0  0  0  0  0  0  0  0  0
  140.6250   76.6650  221.8480 N   0  0  0  0  0  0  0  0  0  0  0  0
  140.8690   75.2940  221.6930 C   0  0  0  0  0  0  0  0  0  0  0  0
  140.0710   74.4190  222.3450 N   0  0  0  0  0  0  0  0  0  0  0  0
  140.2310   73.0720  222.2510 C   0  0  0  0  0  0  0  0  0  0  0  0
  139.3220   72.2680  222.9850 N   0  0  0  0  0  0  0  0  0  0  0  0
  139.7100   70.9700  223.5470 C   0  0  0  0  0  0  0  0  0  0  0  0
  140.9880   71.1780  224.3300 C   0  0  0  0  0  0  0  0  0  0  0  0
  140.9020   70.5240  225.7110 C   0  0  1  0  0  0  0  0  0  0  0  0
  141.0430   71.5550  226.7770 C   0  0  0  0  0  0  0  0  0  0  0  0
  140.3820   71.2680  228.0750 C   0  0  0  0  0  0  0  0  0  0  0  0
  139.8060   69.9130  228.2560 C   0  0  0  0  0  0  0  0  0  0  0  0
  139.6110   69.1090  227.0040 C   0  0  0  0  0  0  0  0  0  0  0  0
  139.5710   69.9510  225.8110 N   0  0  0  0  0  0  0  0  0  0  0  0
  141.2160   72.5870  221.4870 N   0  0  0  0  0  0  0  0  0  0  0  0
  142.0400   73.4450  220.8150 C   0  0  0  0  0  0  0  0  0  0  0  0
  143.1110   72.9750  220.0090 N   0  0  0  0  0  0  0  0  0  0  0  0
  143.3260   73.4690  218.6500 C   0  0  0  0  0  0  0  0  0  0  0  0
  144.3220   72.6180  217.9100 C   0  0  0  0  0  0  0  0  0  0  0  0
  145.5910   72.5280  218.6090 N   0  0  0  0  0  0  0  0  0  0  0  0
  145.4290   72.4970  220.0490 C   0  0  0  0  0  0  0  0  0  0  0  0
  144.0710   71.9800  220.4840 C   0  0  0  0  0  0  0  0  0  0  0  0
  141.8620   74.7850  220.9210 N   0  0  0  0  0  0  0  0  0  0  0  0
  141.4830   77.7070  221.2940 C   0  0  0  0  0  0  0  0  0  0  0  0
  140.9649   82.1693  224.2413 H   0  0  0  0  0  0  0  0  0  0  0  0
  143.2050   81.4926  223.4266 H   0  0  0  0  0  0  0  0  0  0  0  0
  143.4916   79.4374  222.0587 H   0  0  0  0  0  0  0  0  0  0  0  0
  138.9717   80.7770  223.6875 H   0  0  0  0  0  0  0  0  0  0  0  0
  138.0832   78.7535  222.7378 H   0  0  0  0  0  0  0  0  0  0  0  0
  138.7544   78.5197  221.1253 H   0  0  0  0  0  0  0  0  0  0  0  0
  139.6795   77.0622  223.6844 H   0  0  0  0  0  0  0  0  0  0  0  0
  138.6248   76.3527  222.4083 H   0  0  0  0  0  0  0  0  0  0  0  0
  138.3530   72.6570  223.1030 H   0  0  0  0  0  0  0  0  0  0  0  0
  138.9179   70.5970  224.2129 H   0  0  0  0  0  0  0  0  0  0  0  0
  139.8615   70.2307  222.7467 H   0  0  0  0  0  0  0  0  0  0  0  0
  141.8263   70.7333  223.7737 H   0  0  0  0  0  0  0  0  0  0  0  0
  141.1427   72.2587  224.4648 H   0  0  0  0  0  0  0  0  0  0  0  0
  141.6957   69.7723  225.8333 H   0  0  0  0  0  0  0  0  0  0  0  0
  142.1174   71.6874  226.9724 H   0  0  0  0  0  0  0  0  0  0  0  0
  140.5334   72.4474  226.3847 H   0  0  0  0  0  0  0  0  0  0  0  0
  141.1295   71.4187  228.8678 H   0  0  0  0  0  0  0  0  0  0  0  0
  139.5201   71.9504  228.1119 H   0  0  0  0  0  0  0  0  0  0  0  0
  140.4779   69.3473  228.9181 H   0  0  0  0  0  0  0  0  0  0  0  0
  138.7980   70.0715  228.6669 H   0  0  0  0  0  0  0  0  0  0  0  0
  140.4430   68.3959  226.9072 H   0  0  0  0  0  0  0  0  0  0  0  0
  138.6457   68.5876  227.0831 H   0  0  0  0  0  0  0  0  0  0  0  0
  138.9110   70.7450  225.9700 H   0  0  0  0  0  0  0  0  0  0  0  0
  142.3691   73.4540  218.1077 H   0  0  0  0  0  0  0  0  0  0  0  0
  143.7225   74.4932  218.7116 H   0  0  0  0  0  0  0  0  0  0  0  0
  143.9076   71.6055  217.7959 H   0  0  0  0  0  0  0  0  0  0  0  0
  144.5070   73.0867  216.9322 H   0  0  0  0  0  0  0  0  0  0  0  0
  146.0010   71.5860  218.3480 H   0  0  0  0  0  0  0  0  0  0  0  0
  146.2050   71.8438  220.4746 H   0  0  0  0  0  0  0  0  0  0  0  0
  145.5175   73.5318  220.4114 H   0  0  0  0  0  0  0  0  0  0  0  0
  143.8676   70.9997  220.0284 H   0  0  0  0  0  0  0  0  0  0  0  0
  144.0139   71.8416  221.5738 H   0  0  0  0  0  0  0  0  0  0  0  0
  142.5256   77.3563  221.2956 H   0  0  0  0  0  0  0  0  0  0  0  0
  141.1582   77.9261  220.2661 H   0  0  0  0  0  0  0  0  0  0  0  0
  1  2  2  0
  2  3  1  0
  3  4  2  0
  4  5  1  0
  5  6  2  0
  5  7  1  0
  7  8  1  0
  8  9  1  0
  9 10  1  0
 10 11  2  0
 11 12  1  0
 12 13  1  0
 13 14  1  0
 14 15  1  0
 15 16  1  0
 16 17  1  0
 17 18  1  0
 18 19  1  0
 19 20  1  0
 20 21  1  0
 12 22  2  0
 22 23  1  0
 23 24  1  0
 24 25  1  0
 25 26  1  0
 26 27  1  0
 27 28  1  0
 28 29  1  0
 23 30  2  0
  9 31  1  0
  6  1  1  0
 30 10  1  0
 31  4  1  0
 21 16  1  0
 29 24  1  0
  1 32  1  0
  2 33  1  0
  3 34  1  0
  6 35  1  0
  7 36  1  0
  7 37  1  0
  8 38  1  0
  8 39  1  0
 13 40  1  0
 14 41  1  0
 14 42  1  0
 15 43  1  0
 15 44  1  0
 16 45  1  6
 17 46  1  0
 17 47  1  0
 18 48  1  0
 18 49  1  0
 19 50  1  0
 19 51  1  0
 20 52  1  0
 20 53  1  0
 21 54  1  0
 25 55  1  0
 25 56  1  0
 26 57  1  0
 26 58  1  0
 27 59  1  0
 28 60  1  0
 28 61  1  0
 29 62  1  0
 29 63  1  0
 31 64  1  0
 31 65  1  0
M  END
>  <smiles>  (98) 
c1ccc2c(c1)CCN(c1nc(NCCC3CCCCN3)nc(N3CCNCC3)n1)C2

>  <score_type>  (98) 
oracle

>  <origin>  (98) 
autodockgpu

>  <m_score__min__energy>  (98) 
-10.109999999999999

>  <m_primary>  (98) 
energy

>  <rmsd>  (98) 
5.2931247857267

>  <m_score__min__rmsd>  (98) 
5.2931247857267

>  <meeko>  (98) 
{"free_energy": -9.59, "intermolecular_energy": -11.38, "internal_energy": -0.87, "cluster_size": 26, "cluster_id": 2, "rank_in_cluster": 10}

>  <energy>  (98) 
-8.87

>  <cluster_rmsd>  (98) 
1.55

>  <cluster>  (98) 
2

$$$$

     RDKit          3D

 65 69  0  0  0  0  0  0  0  0999 V2000
  140.2550   67.6560  226.8350 C   0  0  0  0  0  0  0  0  0  0  0  0
  141.0850   68.6560  227.3160 C   0  0  0  0  0  0  0  0  0  0  0  0
  141.0980   69.9170  226.7360 C   0  0  0  0  0  0  0  0  0  0  0  0
  140.2650   70.1750  225.6560 C   0  0  0  0  0  0  0  0  0  0  0  0
  139.4490   69.1630  225.1960 C   0  0  0  0  0  0  0  0  0  0  0  0
  139.4260   67.9100  225.7610 C   0  0  0  0  0  0  0  0  0  0  0  0
  138.5750   69.5240  224.0210 C   0  0  0  0  0  0  0  0  0  0  0  0
  139.5320   70.1200  222.9970 C   0  0  0  0  0  0  0  0  0  0  0  0
  140.1440   71.3400  223.5320 N   0  0  0  0  0  0  0  0  0  0  0  0
  140.6200   72.2860  222.6140 C   0  0  0  0  0  0  0  0  0  0  0  0
  139.8830   73.3950  222.3900 N   0  0  0  0  0  0  0  0  0  0  0  0
  140.2670   74.3670  221.5200 C   0  0  0  0  0  0  0  0  0  0  0  0
  139.4000   75.4810  221.3820 N   0  0  0  0  0  0  0  0  0  0  0  0
  139.4320   76.6120  222.3130 C   0  0  0  0  0  0  0  0  0  0  0  0
  140.8850   76.9600  222.5560 C   0  0  0  0  0  0  0  0  0  0  0  0
  141.0930   78.4760  222.5760 C   0  0  1  0  0  0  0  0  0  0  0  0
  141.7650   78.8850  223.8410 C   0  0  0  0  0  0  0  0  0  0  0  0
  142.5950   80.1150  223.7890 C   0  0  0  0  0  0  0  0  0  0  0  0
  142.5300   80.9230  222.5460 C   0  0  0  0  0  0  0  0  0  0  0  0
  141.9480   80.2370  221.3460 C   0  0  0  0  0  0  0  0  0  0  0  0
  141.9870   78.7820  221.4720 N   0  0  0  0  0  0  0  0  0  0  0  0
  141.4190   74.2250  220.8550 N   0  0  0  0  0  0  0  0  0  0  0  0
  142.1880   73.1140  221.0600 C   0  0  0  0  0  0  0  0  0  0  0  0
  143.4080   72.9110  220.3610 N   0  0  0  0  0  0  0  0  0  0  0  0
  144.6670   73.4930  220.8230 C   0  0  0  0  0  0  0  0  0  0  0  0
  145.7380   73.3860  219.7720 C   0  0  0  0  0  0  0  0  0  0  0  0
  145.9550   72.0150  219.3510 N   0  0  0  0  0  0  0  0  0  0  0  0
  144.7280   71.2440  219.3210 C   0  0  0  0  0  0  0  0  0  0  0  0
  143.4910   72.1020  219.1450 C   0  0  0  0  0  0  0  0  0  0  0  0
  141.7870   72.1570  221.9320 N   0  0  0  0  0  0  0  0  0  0  0  0
  140.2270   71.5050  224.9800 C   0  0  0  0  0  0  0  0  0  0  0  0
  140.2568   66.6627  227.3077 H   0  0  0  0  0  0  0  0  0  0  0  0
  141.7443   68.4471  228.1714 H   0  0  0  0  0  0  0  0  0  0  0  0
  141.7607   70.7027  227.1276 H   0  0  0  0  0  0  0  0  0  0  0  0
  138.7617   67.1272  225.3660 H   0  0  0  0  0  0  0  0  0  0  0  0
  138.0809   68.6288  223.6154 H   0  0  0  0  0  0  0  0  0  0  0  0
  137.7728   70.2238  224.2981 H   0  0  0  0  0  0  0  0  0  0  0  0
  140.3202   69.3883  222.7662 H   0  0  0  0  0  0  0  0  0  0  0  0
  138.9732   70.3679  222.0825 H   0  0  0  0  0  0  0  0  0  0  0  0
  138.7330   75.4480  220.5710 H   0  0  0  0  0  0  0  0  0  0  0  0
  138.9075   77.4740  221.8750 H   0  0  0  0  0  0  0  0  0  0  0  0
  138.9329   76.3505  223.2577 H   0  0  0  0  0  0  0  0  0  0  0  0
  141.1974   76.5418  223.5242 H   0  0  0  0  0  0  0  0  0  0  0  0
  141.4870   76.5357  221.7390 H   0  0  0  0  0  0  0  0  0  0  0  0
  140.1290   78.9998  222.4968 H   0  0  0  0  0  0  0  0  0  0  0  0
  140.9825   79.0429  224.5978 H   0  0  0  0  0  0  0  0  0  0  0  0
  142.4690   78.0713  224.0699 H   0  0  0  0  0  0  0  0  0  0  0  0
  142.2810   80.7619  224.6214 H   0  0  0  0  0  0  0  0  0  0  0  0
  143.6344   79.7590  223.8427 H   0  0  0  0  0  0  0  0  0  0  0  0
  141.9181   81.8130  222.7547 H   0  0  0  0  0  0  0  0  0  0  0  0
  143.5743   81.1466  222.2825 H   0  0  0  0  0  0  0  0  0  0  0  0
  140.9015   80.5549  221.2285 H   0  0  0  0  0  0  0  0  0  0  0  0
  142.5511   80.5174  220.4698 H   0  0  0  0  0  0  0  0  0  0  0  0
  142.9440   78.4860  221.7670 H   0  0  0  0  0  0  0  0  0  0  0  0
  144.5045   74.5544  221.0620 H   0  0  0  0  0  0  0  0  0  0  0  0
  144.9987   72.9393  221.7137 H   0  0  0  0  0  0  0  0  0  0  0  0
  145.4376   73.9821  218.8977 H   0  0  0  0  0  0  0  0  0  0  0  0
  146.6771   73.7594  220.2064 H   0  0  0  0  0  0  0  0  0  0  0  0
  146.2830   72.0680  218.3440 H   0  0  0  0  0  0  0  0  0  0  0  0
  144.7822   70.5321  218.4842 H   0  0  0  0  0  0  0  0  0  0  0  0
  144.6377   70.7332  220.2910 H   0  0  0  0  0  0  0  0  0  0  0  0
  143.5916   72.7465  218.2593 H   0  0  0  0  0  0  0  0  0  0  0  0
  142.5872   71.4935  218.9940 H   0  0  0  0  0  0  0  0  0  0  0  0
  141.1412   72.0639  225.2289 H   0  0  0  0  0  0  0  0  0  0  0  0
  139.3400   72.0553  225.3269 H   0  0  0  0  0  0  0  0  0  0  0  0
  1  2  2  0
  2  3  1  0
  3  4  2  0
  4  5  1  0
  5  6  2  0
  5  7  1  0
  7  8  1  0
  8  9  1  0
  9 10  1  0
 10 11  2  0
 11 12  1  0
 12 13  1  0
 13 14  1  0
 14 15  1  0
 15 16  1  0
 16 17  1  0
 17 18  1  0
 18 19  1  0
 19 20  1  0
 20 21  1  0
 12 22  2  0
 22 23  1  0
 23 24  1  0
 24 25  1  0
 25 26  1  0
 26 27  1  0
 27 28  1  0
 28 29  1  0
 23 30  2  0
  9 31  1  0
  6  1  1  0
 30 10  1  0
 31  4  1  0
 21 16  1  0
 29 24  1  0
  1 32  1  0
  2 33  1  0
  3 34  1  0
  6 35  1  0
  7 36  1  0
  7 37  1  0
  8 38  1  0
  8 39  1  0
 13 40  1  0
 14 41  1  0
 14 42  1  0
 15 43  1  0
 15 44  1  0
 16 45  1  6
 17 46  1  0
 17 47  1  0
 18 48  1  0
 18 49  1  0
 19 50  1  0
 19 51  1  0
 20 52  1  0
 20 53  1  0
 21 54  1  0
 25 55  1  0
 25 56  1  0
 26 57  1  0
 26 58  1  0
 27 59  1  0
 28 60  1  0
 28 61  1  0
 29 62  1  0
 29 63  1  0
 31 64  1  0
 31 65  1  0
M  END
>  <smiles>  (99) 
c1ccc2c(c1)CCN(c1nc(NCCC3CCCCN3)nc(N3CCNCC3)n1)C2

>  <score_type>  (99) 
oracle

>  <origin>  (99) 
autodockgpu

>  <m_score__min__energy>  (99) 
-10.109999999999999

>  <m_primary>  (99) 
energy

>  <rmsd>  (99) 
11.239440425167375

>  <m_score__min__rmsd>  (99) 
11.239440425167375

>  <meeko>  (99) 
{"free_energy": -9.77, "intermolecular_energy": -11.56, "internal_energy": -0.85, "cluster_size": 24, "cluster_id": 1, "rank_in_cluster": 4}

>  <energy>  (99) 
-8.47

>  <cluster_rmsd>  (99) 
1.44

>  <cluster>  (99) 
2

$$$$

     RDKit          3D

 65 69  0  0  0  0  0  0  0  0999 V2000
  141.5110   81.3900  223.8420 C   0  0  0  0  0  0  0  0  0  0  0  0
  142.7550   80.9640  223.4050 C   0  0  0  0  0  0  0  0  0  0  0  0
  142.8840   79.8480  222.5900 C   0  0  0  0  0  0  0  0  0  0  0  0
  141.7460   79.1500  222.2090 C   0  0  0  0  0  0  0  0  0  0  0  0
  140.5200   79.5950  222.6580 C   0  0  0  0  0  0  0  0  0  0  0  0
  140.3770   80.6980  223.4660 C   0  0  0  0  0  0  0  0  0  0  0  0
  139.3330   78.7830  222.2010 C   0  0  0  0  0  0  0  0  0  0  0  0
  139.6890   77.3460  222.5570 C   0  0  0  0  0  0  0  0  0  0  0  0
  140.8770   76.9220  221.8110 N   0  0  0  0  0  0  0  0  0  0  0  0
  141.0540   75.5480  221.5950 C   0  0  0  0  0  0  0  0  0  0  0  0
  140.1960   74.6860  222.1850 N   0  0  0  0  0  0  0  0  0  0  0  0
  140.2880   73.3390  222.0280 C   0  0  0  0  0  0  0  0  0  0  0  0
  139.3210   72.5500  222.7010 N   0  0  0  0  0  0  0  0  0  0  0  0
  139.5140   71.1160  222.9370 C   0  0  0  0  0  0  0  0  0  0  0  0
  140.7000   70.9640  223.8640 C   0  0  0  0  0  0  0  0  0  0  0  0
  140.3110   71.2690  225.3130 C   0  0  1  0  0  0  0  0  0  0  0  0
  139.8340   70.0300  225.9880 C   0  0  0  0  0  0  0  0  0  0  0  0
  140.0190   69.9580  227.4590 C   0  0  0  0  0  0  0  0  0  0  0  0
  140.4840   71.1890  228.1440 C   0  0  0  0  0  0  0  0  0  0  0  0
  141.0770   72.2480  227.2620 C   0  0  0  0  0  0  0  0  0  0  0  0
  141.5240   71.7070  225.9800 N   0  0  0  0  0  0  0  0  0  0  0  0
  141.2660   72.8390  221.2640 N   0  0  0  0  0  0  0  0  0  0  0  0
  142.1500   73.6840  220.6540 C   0  0  0  0  0  0  0  0  0  0  0  0
  143.2150   73.1970  219.8510 N   0  0  0  0  0  0  0  0  0  0  0  0
  143.6710   73.9120  218.6610 C   0  0  0  0  0  0  0  0  0  0  0  0
  144.5910   73.0600  217.8290 C   0  0  0  0  0  0  0  0  0  0  0  0
  145.7340   72.5880  218.5890 N   0  0  0  0  0  0  0  0  0  0  0  0
  145.3980   72.2900  219.9670 C   0  0  0  0  0  0  0  0  0  0  0  0
  143.9310   71.9610  220.1630 C   0  0  0  0  0  0  0  0  0  0  0  0
  142.0390   75.0250  220.8220 N   0  0  0  0  0  0  0  0  0  0  0  0
  141.8070   77.9420  221.3370 C   0  0  0  0  0  0  0  0  0  0  0  0
  141.4271   82.2772  224.4868 H   0  0  0  0  0  0  0  0  0  0  0  0
  143.6547   81.5192  223.7089 H   0  0  0  0  0  0  0  0  0  0  0  0
  143.8773   79.5201  222.2496 H   0  0  0  0  0  0  0  0  0  0  0  0
  139.3819   81.0218  223.8052 H   0  0  0  0  0  0  0  0  0  0  0  0
  138.4206   79.0988  222.7281 H   0  0  0  0  0  0  0  0  0  0  0  0
  139.1311   78.9084  221.1270 H   0  0  0  0  0  0  0  0  0  0  0  0
  139.8934   77.2784  223.6357 H   0  0  0  0  0  0  0  0  0  0  0  0
  138.8457   76.6904  222.2941 H   0  0  0  0  0  0  0  0  0  0  0  0
  138.4560   73.0540  223.0220 H   0  0  0  0  0  0  0  0  0  0  0  0
  138.6148   70.6877  223.4040 H   0  0  0  0  0  0  0  0  0  0  0  0
  139.6927   70.5876  221.9889 H   0  0  0  0  0  0  0  0  0  0  0  0
  141.0739   69.9313  223.8024 H   0  0  0  0  0  0  0  0  0  0  0  0
  141.4785   71.6767  223.5543 H   0  0  0  0  0  0  0  0  0  0  0  0
  139.5132   72.0255  225.3481 H   0  0  0  0  0  0  0  0  0  0  0  0
  138.7579   69.9318  225.7823 H   0  0  0  0  0  0  0  0  0  0  0  0
  140.4562   69.2204  225.5788 H   0  0  0  0  0  0  0  0  0  0  0  0
  139.0513   69.6785  227.9011 H   0  0  0  0  0  0  0  0  0  0  0  0
  140.8277   69.2274  227.6081 H   0  0  0  0  0  0  0  0  0  0  0  0
  139.6220   71.6297  228.6662 H   0  0  0  0  0  0  0  0  0  0  0  0
  141.2980   70.8681  228.8107 H   0  0  0  0  0  0  0  0  0  0  0  0
  140.3170   73.0211  227.0754 H   0  0  0  0  0  0  0  0  0  0  0  0
  141.9536   72.6673  227.7775 H   0  0  0  0  0  0  0  0  0  0  0  0
  142.1030   70.8540  226.1470 H   0  0  0  0  0  0  0  0  0  0  0  0
  142.7970   74.1926  218.0549 H   0  0  0  0  0  0  0  0  0  0  0  0
  144.2243   74.8061  218.9844 H   0  0  0  0  0  0  0  0  0  0  0  0
  144.0293   72.1907  217.4564 H   0  0  0  0  0  0  0  0  0  0  0  0
  144.9670   73.6773  216.9998 H   0  0  0  0  0  0  0  0  0  0  0  0
  146.0090   71.6600  218.1550 H   0  0  0  0  0  0  0  0  0  0  0  0
  145.9971   71.4278  220.2950 H   0  0  0  0  0  0  0  0  0  0  0  0
  145.6145   73.1909  220.5599 H   0  0  0  0  0  0  0  0  0  0  0  0
  143.6224   71.1542  219.4819 H   0  0  0  0  0  0  0  0  0  0  0  0
  143.7214   71.6116  221.1847 H   0  0  0  0  0  0  0  0  0  0  0  0
  142.8290   77.5354  221.3527 H   0  0  0  0  0  0  0  0  0  0  0  0
  141.5286   78.2286  220.3121 H   0  0  0  0  0  0  0  0  0  0  0  0
  1  2  2  0
  2  3  1  0
  3  4  2  0
  4  5  1  0
  5  6  2  0
  5  7  1  0
  7  8  1  0
  8  9  1  0
  9 10  1  0
 10 11  2  0
 11 12  1  0
 12 13  1  0
 13 14  1  0
 14 15  1  0
 15 16  1  0
 16 17  1  0
 17 18  1  0
 18 19  1  0
 19 20  1  0
 20 21  1  0
 12 22  2  0
 22 23  1  0
 23 24  1  0
 24 25  1  0
 25 26  1  0
 26 27  1  0
 27 28  1  0
 28 29  1  0
 23 30  2  0
  9 31  1  0
  6  1  1  0
 30 10  1  0
 31  4  1  0
 21 16  1  0
 29 24  1  0
  1 32  1  0
  2 33  1  0
  3 34  1  0
  6 35  1  0
  7 36  1  0
  7 37  1  0
  8 38  1  0
  8 39  1  0
 13 40  1  0
 14 41  1  0
 14 42  1  0
 15 43  1  0
 15 44  1  0
 16 45  1  6
 17 46  1  0
 17 47  1  0
 18 48  1  0
 18 49  1  0
 19 50  1  0
 19 51  1  0
 20 52  1  0
 20 53  1  0
 21 54  1  0
 25 55  1  0
 25 56  1  0
 26 57  1  0
 26 58  1  0
 27 59  1  0
 28 60  1  0
 28 61  1  0
 29 62  1  0
 29 63  1  0
 31 64  1  0
 31 65  1  0
M  END
>  <smiles>  (100) 
c1ccc2c(c1)CCN(c1nc(NCCC3CCCCN3)nc(N3CCNCC3)n1)C2

>  <score_type>  (100) 
oracle

>  <origin>  (100) 
autodockgpu

>  <m_score__min__energy>  (100) 
-10.109999999999999

>  <m_primary>  (100) 
energy

>  <rmsd>  (100) 
5.468959218250311

>  <m_score__min__rmsd>  (100) 
5.468959218250311

>  <meeko>  (100) 
{"free_energy": -9.63, "intermolecular_energy": -11.42, "internal_energy": -0.9, "cluster_size": 26, "cluster_id": 2, "rank_in_cluster": 7}

>  <energy>  (100) 
-7.72

>  <cluster_rmsd>  (100) 
1.9

>  <cluster>  (100) 
2

$$$$
