
     RDKit          3D

 57 60  0  0  0  0  0  0  0  0999 V2000
  141.0060   72.9120  222.2210 O   0  0  0  0  0  0  0  0  0  0  0  0
  139.9370   72.5040  222.7790 C   0  0  0  0  0  0  0  0  0  0  0  0
  138.6590   72.9820  222.3320 N   0  0  0  0  0  0  0  0  0  0  0  0
  138.6200   73.9450  221.2240 C   0  0  0  0  0  0  0  0  0  0  0  0
  139.4140   75.1230  221.6400 C   0  0  0  0  0  0  0  0  0  0  0  0
  139.2940   75.6950  222.7520 O   0  0  0  0  0  0  0  0  0  0  0  0
  140.3780   75.6470  220.7350 N   0  0  0  0  0  0  0  0  0  0  0  0
  140.5230   75.3500  219.3010 C   0  0  0  0  0  0  0  0  0  0  0  0
  142.0270   75.1220  219.2540 C   0  0  2  0  0  0  0  0  0  0  0  0
  142.3700   73.9040  219.8060 O   0  0  0  0  0  0  0  0  0  0  0  0
  142.5520   76.3120  220.0180 C   0  0  0  0  0  0  0  0  0  0  0  0
  141.4450   76.5970  221.0020 C   0  0  1  0  0  0  0  0  0  0  0  0
  140.8510   77.9770  220.7690 C   0  0  0  0  0  0  0  0  0  0  0  0
  141.5350   79.0070  221.4920 N   0  0  0  0  0  0  0  0  0  0  0  0
  141.7960   78.6860  222.8590 C   0  0  0  0  0  0  0  0  0  0  0  0
  141.4000   79.7800  223.8170 C   0  0  0  0  0  0  0  0  0  0  0  0
  141.8880   81.1400  223.3890 C   0  0  0  0  0  0  0  0  0  0  0  0
  141.8700   81.3160  221.8860 C   0  0  0  0  0  0  0  0  0  0  0  0
  140.8800   80.2770  221.3450 C   0  0  0  0  0  0  0  0  0  0  0  0
  139.9880   71.5470  223.8790 C   0  0  0  0  0  0  0  0  0  0  0  0
  139.5070   70.2620  223.6580 C   0  0  0  0  0  0  0  0  0  0  0  0
  139.5280   69.3260  224.6480 C   0  0  0  0  0  0  0  0  0  0  0  0
  140.0380   69.6880  225.8730 C   0  0  0  0  0  0  0  0  0  0  0  0
  140.0570   68.7370  226.8690 C   0  0  0  0  0  0  0  0  0  0  0  0
  140.5530   69.0390  228.1100 C   0  0  0  0  0  0  0  0  0  0  0  0
  140.5750   68.1130  229.0920 F   0  0  0  0  0  0  0  0  0  0  0  0
  141.0270   70.3090  228.3250 C   0  0  0  0  0  0  0  0  0  0  0  0
  141.0070   71.2590  227.3260 C   0  0  0  0  0  0  0  0  0  0  0  0
  140.5080   70.9820  226.0550 C   0  0  0  0  0  0  0  0  0  0  0  0
  140.4860   71.9030  225.0770 N   0  0  0  0  0  0  0  0  0  0  0  0
  137.7850   72.6510  222.7850 H   0  0  0  0  0  0  0  0  0  0  0  0
  139.0565   73.4966  220.3194 H   0  0  0  0  0  0  0  0  0  0  0  0
  137.5838   74.2339  220.9939 H   0  0  0  0  0  0  0  0  0  0  0  0
  139.9605   74.4515  219.0073 H   0  0  0  0  0  0  0  0  0  0  0  0
  140.1408   76.1226  218.6176 H   0  0  0  0  0  0  0  0  0  0  0  0
  142.4505   75.0610  218.2406 H   0  0  0  0  0  0  0  0  0  0  0  0
  141.7550   73.7420  220.5630 H   0  0  0  0  0  0  0  0  0  0  0  0
  143.4897   76.0660  220.5378 H   0  0  0  0  0  0  0  0  0  0  0  0
  142.7913   77.1705  219.3733 H   0  0  0  0  0  0  0  0  0  0  0  0
  141.8485   76.5299  222.0231 H   0  0  0  0  0  0  0  0  0  0  0  0
  140.9063   78.2062  219.6946 H   0  0  0  0  0  0  0  0  0  0  0  0
  139.8120   77.9546  221.1295 H   0  0  0  0  0  0  0  0  0  0  0  0
  141.2339   77.7763  223.1170 H   0  0  0  0  0  0  0  0  0  0  0  0
  142.8825   78.5455  222.9578 H   0  0  0  0  0  0  0  0  0  0  0  0
  140.3024   79.8065  223.8851 H   0  0  0  0  0  0  0  0  0  0  0  0
  141.8653   79.5530  224.7876 H   0  0  0  0  0  0  0  0  0  0  0  0
  141.2406   81.9055  223.8415 H   0  0  0  0  0  0  0  0  0  0  0  0
  142.9305   81.2418  223.7248 H   0  0  0  0  0  0  0  0  0  0  0  0
  141.5375   82.3315  221.6250 H   0  0  0  0  0  0  0  0  0  0  0  0
  142.8722   81.1774  221.4543 H   0  0  0  0  0  0  0  0  0  0  0  0
  139.9463   80.2971  221.9261 H   0  0  0  0  0  0  0  0  0  0  0  0
  140.6109   80.4776  220.2975 H   0  0  0  0  0  0  0  0  0  0  0  0
  139.1035   69.9967  222.6697 H   0  0  0  0  0  0  0  0  0  0  0  0
  139.1476   68.3089  224.4723 H   0  0  0  0  0  0  0  0  0  0  0  0
  139.6710   67.7270  226.6666 H   0  0  0  0  0  0  0  0  0  0  0  0
  141.4306   70.5740  229.3134 H   0  0  0  0  0  0  0  0  0  0  0  0
  141.3966   72.2655  227.5387 H   0  0  0  0  0  0  0  0  0  0  0  0
  1  2  2  0
  2  3  1  0
  3  4  1  0
  4  5  1  0
  5  6  2  0
  5  7  1  0
  7  8  1  0
  8  9  1  0
  9 10  1  0
  9 11  1  0
 11 12  1  0
 12 13  1  0
 13 14  1  0
 14 15  1  0
 15 16  1  0
 16 17  1  0
 17 18  1  0
 18 19  1  0
  2 20  1  0
 20 21  2  0
 21 22  1  0
 22 23  2  0
 23 24  1  0
 24 25  2  0
 25 26  1  0
 25 27  1  0
 27 28  2  0
 28 29  1  0
 29 30  2  0
 12  7  1  0
 19 14  1  0
 30 20  1  0
 29 23  1  0
  3 31  1  0
  4 32  1  0
  4 33  1  0
  8 34  1  0
  8 35  1  0
  9 36  1  6
 10 37  1  0
 11 38  1  0
 11 39  1  0
 12 40  1  1
 13 41  1  0
 13 42  1  0
 15 43  1  0
 15 44  1  0
 16 45  1  0
 16 46  1  0
 17 47  1  0
 17 48  1  0
 18 49  1  0
 18 50  1  0
 19 51  1  0
 19 52  1  0
 21 53  1  0
 22 54  1  0
 24 55  1  0
 27 56  1  0
 28 57  1  0
M  END
>  <smiles>  (1) 
O=C(NCC(=O)N1C[C@H](O)C[C@H]1CN1CCCCC1)c1ccc2cc(F)ccc2n1

>  <score_type>  (1) 
oracle

>  <origin>  (1) 
autodockgpu

>  <m_score__min__energy>  (1) 
-8.3800000000000008

>  <m_primary>  (1) 
energy

>  <rmsd>  (1) 
1.8111301589648143

>  <m_score__min__rmsd>  (1) 
1.8111301589648143

>  <meeko>  (1) 
{"free_energy": -7.93, "intermolecular_energy": -10.02, "internal_energy": -2.14, "cluster_size": 33, "cluster_id": 1, "rank_in_cluster": 14}

>  <energy>  (1) 
-8.38

>  <cluster_rmsd>  (1) 
0.0

>  <cluster>  (1) 
1

$$$$

     RDKit          3D

 57 60  0  0  0  0  0  0  0  0999 V2000
  136.7940   71.5400  221.0770 O   0  0  0  0  0  0  0  0  0  0  0  0
  137.4610   72.1320  221.9840 C   0  0  0  0  0  0  0  0  0  0  0  0
  137.6320   73.5570  221.9440 N   0  0  0  0  0  0  0  0  0  0  0  0
  137.0220   74.3050  220.8360 C   0  0  0  0  0  0  0  0  0  0  0  0
  137.4100   75.7250  221.0020 C   0  0  0  0  0  0  0  0  0  0  0  0
  136.6040   76.6860  220.9400 O   0  0  0  0  0  0  0  0  0  0  0  0
  138.7760   76.0310  221.2500 N   0  0  0  0  0  0  0  0  0  0  0  0
  139.9580   75.5240  220.5330 C   0  0  0  0  0  0  0  0  0  0  0  0
  140.8260   75.1610  221.7290 C   0  0  2  0  0  0  0  0  0  0  0  0
  140.3830   74.0070  222.3430 O   0  0  0  0  0  0  0  0  0  0  0  0
  140.7160   76.3950  222.5880 C   0  0  0  0  0  0  0  0  0  0  0  0
  139.3360   76.9110  222.2620 C   0  0  1  0  0  0  0  0  0  0  0  0
  139.4060   78.2920  221.6280 C   0  0  0  0  0  0  0  0  0  0  0  0
  140.2230   79.2040  222.3710 N   0  0  0  0  0  0  0  0  0  0  0  0
  139.5850   80.4430  222.6770 C   0  0  0  0  0  0  0  0  0  0  0  0
  140.4290   81.6490  222.3540 C   0  0  0  0  0  0  0  0  0  0  0  0
  141.8420   81.5290  222.8640 C   0  0  0  0  0  0  0  0  0  0  0  0
  142.3680   80.1130  222.7890 C   0  0  0  0  0  0  0  0  0  0  0  0
  141.5050   79.3890  221.7490 C   0  0  0  0  0  0  0  0  0  0  0  0
  138.0630   71.3800  223.0810 C   0  0  0  0  0  0  0  0  0  0  0  0
  137.4950   70.1620  223.4350 C   0  0  0  0  0  0  0  0  0  0  0  0
  138.0140   69.4160  224.4500 C   0  0  0  0  0  0  0  0  0  0  0  0
  139.1150   69.9020  225.1150 C   0  0  0  0  0  0  0  0  0  0  0  0
  139.6350   69.1430  226.1400 C   0  0  0  0  0  0  0  0  0  0  0  0
  140.7320   69.5750  226.8390 C   0  0  0  0  0  0  0  0  0  0  0  0
  141.2470   68.8370  227.8460 F   0  0  0  0  0  0  0  0  0  0  0  0
  141.2910   70.7780  226.4860 C   0  0  0  0  0  0  0  0  0  0  0  0
  140.7680   71.5360  225.4590 C   0  0  0  0  0  0  0  0  0  0  0  0
  139.6540   71.1230  224.7310 C   0  0  0  0  0  0  0  0  0  0  0  0
  139.1400   71.8560  223.7300 N   0  0  0  0  0  0  0  0  0  0  0  0
  138.1750   74.0440  222.6840 H   0  0  0  0  0  0  0  0  0  0  0  0
  137.3929   73.9227  219.8736 H   0  0  0  0  0  0  0  0  0  0  0  0
  135.9276   74.1949  220.8456 H   0  0  0  0  0  0  0  0  0  0  0  0
  139.7199   74.6459  219.9148 H   0  0  0  0  0  0  0  0  0  0  0  0
  140.4112   76.2234  219.8151 H   0  0  0  0  0  0  0  0  0  0  0  0
  141.8707   74.9216  221.4813 H   0  0  0  0  0  0  0  0  0  0  0  0
  139.6440   74.2630  222.9480 H   0  0  0  0  0  0  0  0  0  0  0  0
  140.8024   76.1432  223.6553 H   0  0  0  0  0  0  0  0  0  0  0  0
  141.5112   77.1303  222.3958 H   0  0  0  0  0  0  0  0  0  0  0  0
  138.7426   76.9519  223.1873 H   0  0  0  0  0  0  0  0  0  0  0  0
  139.8225   78.1927  220.6148 H   0  0  0  0  0  0  0  0  0  0  0  0
  138.3848   78.7006  221.6117 H   0  0  0  0  0  0  0  0  0  0  0  0
  138.6515   80.5062  222.0986 H   0  0  0  0  0  0  0  0  0  0  0  0
  139.4048   80.4551  223.7621 H   0  0  0  0  0  0  0  0  0  0  0  0
  140.4595   81.7738  221.2615 H   0  0  0  0  0  0  0  0  0  0  0  0
  139.9706   82.5160  222.8522 H   0  0  0  0  0  0  0  0  0  0  0  0
  142.4915   82.1788  222.2591 H   0  0  0  0  0  0  0  0  0  0  0  0
  141.8413   81.8290  223.9223 H   0  0  0  0  0  0  0  0  0  0  0  0
  143.4222   80.1143  222.4751 H   0  0  0  0  0  0  0  0  0  0  0  0
  142.3169   79.6147  223.7683 H   0  0  0  0  0  0  0  0  0  0  0  0
  141.4059   80.0002  220.8398 H   0  0  0  0  0  0  0  0  0  0  0  0
  141.9519   78.4308  221.4456 H   0  0  0  0  0  0  0  0  0  0  0  0
  136.6140   69.7951  222.8880 H   0  0  0  0  0  0  0  0  0  0  0  0
  137.5647   68.4517  224.7297 H   0  0  0  0  0  0  0  0  0  0  0  0
  139.1661   68.1824  226.3997 H   0  0  0  0  0  0  0  0  0  0  0  0
  142.1726   71.1444  227.0324 H   0  0  0  0  0  0  0  0  0  0  0  0
  141.2445   72.4949  225.2073 H   0  0  0  0  0  0  0  0  0  0  0  0
  1  2  2  0
  2  3  1  0
  3  4  1  0
  4  5  1  0
  5  6  2  0
  5  7  1  0
  7  8  1  0
  8  9  1  0
  9 10  1  0
  9 11  1  0
 11 12  1  0
 12 13  1  0
 13 14  1  0
 14 15  1  0
 15 16  1  0
 16 17  1  0
 17 18  1  0
 18 19  1  0
  2 20  1  0
 20 21  2  0
 21 22  1  0
 22 23  2  0
 23 24  1  0
 24 25  2  0
 25 26  1  0
 25 27  1  0
 27 28  2  0
 28 29  1  0
 29 30  2  0
 12  7  1  0
 19 14  1  0
 30 20  1  0
 29 23  1  0
  3 31  1  0
  4 32  1  0
  4 33  1  0
  8 34  1  0
  8 35  1  0
  9 36  1  6
 10 37  1  0
 11 38  1  0
 11 39  1  0
 12 40  1  1
 13 41  1  0
 13 42  1  0
 15 43  1  0
 15 44  1  0
 16 45  1  0
 16 46  1  0
 17 47  1  0
 17 48  1  0
 18 49  1  0
 18 50  1  0
 19 51  1  0
 19 52  1  0
 21 53  1  0
 22 54  1  0
 24 55  1  0
 27 56  1  0
 28 57  1  0
M  END
>  <smiles>  (2) 
O=C(NCC(=O)N1C[C@H](O)C[C@H]1CN1CCCCC1)c1ccc2cc(F)ccc2n1

>  <score_type>  (2) 
oracle

>  <origin>  (2) 
autodockgpu

>  <m_score__min__energy>  (2) 
-8.3800000000000008

>  <m_primary>  (2) 
energy

>  <rmsd>  (2) 
2.664822258767797

>  <m_score__min__rmsd>  (2) 
2.664822258767797

>  <meeko>  (2) 
{"free_energy": -7.01, "intermolecular_energy": -9.1, "internal_energy": -2.53, "cluster_size": 7, "cluster_id": 2, "rank_in_cluster": 5}

>  <energy>  (2) 
-8.37

>  <cluster_rmsd>  (2) 
1.26

>  <cluster>  (2) 
1

$$$$

     RDKit          3D

 57 60  0  0  0  0  0  0  0  0999 V2000
  135.9910   71.5180  221.7150 O   0  0  0  0  0  0  0  0  0  0  0  0
  136.9330   71.9810  222.4350 C   0  0  0  0  0  0  0  0  0  0  0  0
  137.3000   73.3660  222.3440 N   0  0  0  0  0  0  0  0  0  0  0  0
  136.5650   74.2260  221.4070 C   0  0  0  0  0  0  0  0  0  0  0  0
  137.2540   75.5370  221.3850 C   0  0  0  0  0  0  0  0  0  0  0  0
  136.6660   76.6420  221.4910 O   0  0  0  0  0  0  0  0  0  0  0  0
  138.6670   75.5590  221.2380 N   0  0  0  0  0  0  0  0  0  0  0  0
  139.5000   74.6810  220.3990 C   0  0  0  0  0  0  0  0  0  0  0  0
  140.5810   74.3360  221.4120 C   0  0  2  0  0  0  0  0  0  0  0  0
  140.1230   73.4340  222.3520 O   0  0  0  0  0  0  0  0  0  0  0  0
  140.9300   75.6890  221.9790 C   0  0  0  0  0  0  0  0  0  0  0  0
  139.6280   76.4450  221.8730 C   0  0  1  0  0  0  0  0  0  0  0  0
  139.7690   77.6450  220.9510 C   0  0  0  0  0  0  0  0  0  0  0  0
  140.2610   78.8100  221.6240 N   0  0  0  0  0  0  0  0  0  0  0  0
  141.6790   78.9640  221.5650 C   0  0  0  0  0  0  0  0  0  0  0  0
  142.3070   79.2550  222.9040 C   0  0  0  0  0  0  0  0  0  0  0  0
  141.5900   80.3410  223.6650 C   0  0  0  0  0  0  0  0  0  0  0  0
  140.0930   80.3100  223.4480 C   0  0  0  0  0  0  0  0  0  0  0  0
  139.7580   78.8920  222.9680 C   0  0  0  0  0  0  0  0  0  0  0  0
  137.6570   71.1180  223.3630 C   0  0  0  0  0  0  0  0  0  0  0  0
  137.1190   69.8710  223.6610 C   0  0  0  0  0  0  0  0  0  0  0  0
  137.7510   69.0230  224.5200 C   0  0  0  0  0  0  0  0  0  0  0  0
  138.9340   69.4360  225.0860 C   0  0  0  0  0  0  0  0  0  0  0  0
  139.5680   68.5750  225.9540 C   0  0  0  0  0  0  0  0  0  0  0  0
  140.7510   68.9290  226.5490 C   0  0  0  0  0  0  0  0  0  0  0  0
  141.3770   68.0910  227.4010 F   0  0  0  0  0  0  0  0  0  0  0  0
  141.2780   70.1610  226.2520 C   0  0  0  0  0  0  0  0  0  0  0  0
  140.6420   71.0220  225.3830 C   0  0  0  0  0  0  0  0  0  0  0  0
  139.4390   70.6890  224.7640 C   0  0  0  0  0  0  0  0  0  0  0  0
  138.8150   71.5230  223.9160 N   0  0  0  0  0  0  0  0  0  0  0  0
  138.0680   73.7470  222.9300 H   0  0  0  0  0  0  0  0  0  0  0  0
  136.5711   73.7799  220.4015 H   0  0  0  0  0  0  0  0  0  0  0  0
  135.5170   74.3403  221.7211 H   0  0  0  0  0  0  0  0  0  0  0  0
  138.9504   73.7894  220.0630 H   0  0  0  0  0  0  0  0  0  0  0  0
  139.8582   75.1267  219.4593 H   0  0  0  0  0  0  0  0  0  0  0  0
  141.4591   73.8261  220.9889 H   0  0  0  0  0  0  0  0  0  0  0  0
  139.5460   73.9350  222.9800 H   0  0  0  0  0  0  0  0  0  0  0  0
  141.2559   75.6071  223.0264 H   0  0  0  0  0  0  0  0  0  0  0  0
  141.7614   76.1797  221.4517 H   0  0  0  0  0  0  0  0  0  0  0  0
  139.3246   76.7762  222.8771 H   0  0  0  0  0  0  0  0  0  0  0  0
  140.4676   77.3858  220.1418 H   0  0  0  0  0  0  0  0  0  0  0  0
  138.7670   77.8848  220.5655 H   0  0  0  0  0  0  0  0  0  0  0  0
  142.1144   78.0340  221.1707 H   0  0  0  0  0  0  0  0  0  0  0  0
  141.8845   79.8280  220.9159 H   0  0  0  0  0  0  0  0  0  0  0  0
  142.2908   78.3349  223.5066 H   0  0  0  0  0  0  0  0  0  0  0  0
  143.3332   79.6048  222.7181 H   0  0  0  0  0  0  0  0  0  0  0  0
  141.7934   80.2127  224.7384 H   0  0  0  0  0  0  0  0  0  0  0  0
  141.9610   81.3084  223.2955 H   0  0  0  0  0  0  0  0  0  0  0  0
  139.5669   80.5280  224.3891 H   0  0  0  0  0  0  0  0  0  0  0  0
  139.7793   81.0659  222.7130 H   0  0  0  0  0  0  0  0  0  0  0  0
  140.2488   78.1440  223.6080 H   0  0  0  0  0  0  0  0  0  0  0  0
  138.6771   78.6925  223.0110 H   0  0  0  0  0  0  0  0  0  0  0  0
  136.1699   69.5648  223.1968 H   0  0  0  0  0  0  0  0  0  0  0  0
  137.3266   68.0355  224.7542 H   0  0  0  0  0  0  0  0  0  0  0  0
  139.1208   67.5939  226.1719 H   0  0  0  0  0  0  0  0  0  0  0  0
  142.2268   70.4676  226.7166 H   0  0  0  0  0  0  0  0  0  0  0  0
  141.0978   72.0007  225.1722 H   0  0  0  0  0  0  0  0  0  0  0  0
  1  2  2  0
  2  3  1  0
  3  4  1  0
  4  5  1  0
  5  6  2  0
  5  7  1  0
  7  8  1  0
  8  9  1  0
  9 10  1  0
  9 11  1  0
 11 12  1  0
 12 13  1  0
 13 14  1  0
 14 15  1  0
 15 16  1  0
 16 17  1  0
 17 18  1  0
 18 19  1  0
  2 20  1  0
 20 21  2  0
 21 22  1  0
 22 23  2  0
 23 24  1  0
 24 25  2  0
 25 26  1  0
 25 27  1  0
 27 28  2  0
 28 29  1  0
 29 30  2  0
 12  7  1  0
 19 14  1  0
 30 20  1  0
 29 23  1  0
  3 31  1  0
  4 32  1  0
  4 33  1  0
  8 34  1  0
  8 35  1  0
  9 36  1  6
 10 37  1  0
 11 38  1  0
 11 39  1  0
 12 40  1  1
 13 41  1  0
 13 42  1  0
 15 43  1  0
 15 44  1  0
 16 45  1  0
 16 46  1  0
 17 47  1  0
 17 48  1  0
 18 49  1  0
 18 50  1  0
 19 51  1  0
 19 52  1  0
 21 53  1  0
 22 54  1  0
 24 55  1  0
 27 56  1  0
 28 57  1  0
M  END
>  <smiles>  (3) 
O=C(NCC(=O)N1C[C@H](O)C[C@H]1CN1CCCCC1)c1ccc2cc(F)ccc2n1

>  <score_type>  (3) 
oracle

>  <origin>  (3) 
autodockgpu

>  <m_score__min__energy>  (3) 
-8.3800000000000008

>  <m_primary>  (3) 
energy

>  <rmsd>  (3) 
2.739681672505181

>  <m_score__min__rmsd>  (3) 
2.739681672505181

>  <meeko>  (3) 
{"free_energy": -7.39, "intermolecular_energy": -9.48, "internal_energy": -2.68, "cluster_size": 7, "cluster_id": 2, "rank_in_cluster": 4}

>  <energy>  (3) 
-8.3

>  <cluster_rmsd>  (3) 
0.99

>  <cluster>  (3) 
1

$$$$

     RDKit          3D

 57 60  0  0  0  0  0  0  0  0999 V2000
  140.7040   72.2340  219.3770 O   0  0  0  0  0  0  0  0  0  0  0  0
  140.8680   72.6780  220.5580 C   0  0  0  0  0  0  0  0  0  0  0  0
  141.4320   73.9810  220.7700 N   0  0  0  0  0  0  0  0  0  0  0  0
  141.8110   74.7810  219.5970 C   0  0  0  0  0  0  0  0  0  0  0  0
  141.8680   76.1950  220.0320 C   0  0  0  0  0  0  0  0  0  0  0  0
  142.6960   77.0320  219.5960 O   0  0  0  0  0  0  0  0  0  0  0  0
  140.9310   76.6450  221.0020 N   0  0  0  0  0  0  0  0  0  0  0  0
  140.9990   76.4850  222.4640 C   0  0  0  0  0  0  0  0  0  0  0  0
  139.5760   76.0150  222.7210 C   0  0  2  0  0  0  0  0  0  0  0  0
  139.3990   74.7040  222.3270 O   0  0  0  0  0  0  0  0  0  0  0  0
  138.7650   77.0090  221.9290 C   0  0  0  0  0  0  0  0  0  0  0  0
  139.6870   77.3670  220.7900 C   0  0  1  0  0  0  0  0  0  0  0  0
  140.0450   78.8440  220.8240 C   0  0  0  0  0  0  0  0  0  0  0  0
  140.8350   79.1990  221.9640 N   0  0  0  0  0  0  0  0  0  0  0  0
  140.1340   79.9630  222.9460 C   0  0  0  0  0  0  0  0  0  0  0  0
  140.8850   81.1870  223.4030 C   0  0  0  0  0  0  0  0  0  0  0  0
  142.3240   80.8980  223.7450 C   0  0  0  0  0  0  0  0  0  0  0  0
  142.9350   79.8470  222.8450 C   0  0  0  0  0  0  0  0  0  0  0  0
  142.0730   79.8160  221.5760 C   0  0  0  0  0  0  0  0  0  0  0  0
  140.4880   71.8760  221.7170 C   0  0  0  0  0  0  0  0  0  0  0  0
  139.8160   70.6790  221.4990 C   0  0  0  0  0  0  0  0  0  0  0  0
  139.4370   69.8890  222.5420 C   0  0  0  0  0  0  0  0  0  0  0  0
  139.7350   70.3100  223.8160 C   0  0  0  0  0  0  0  0  0  0  0  0
  139.3490   69.5070  224.8670 C   0  0  0  0  0  0  0  0  0  0  0  0
  139.6180   69.8730  226.1600 C   0  0  0  0  0  0  0  0  0  0  0  0
  139.2420   69.0920  227.1940 F   0  0  0  0  0  0  0  0  0  0  0  0
  140.2820   71.0560  226.3710 C   0  0  0  0  0  0  0  0  0  0  0  0
  140.6680   71.8590  225.3180 C   0  0  0  0  0  0  0  0  0  0  0  0
  140.4070   71.5120  223.9930 C   0  0  0  0  0  0  0  0  0  0  0  0
  140.7800   72.2890  222.9630 N   0  0  0  0  0  0  0  0  0  0  0  0
  141.5660   74.3470  221.7330 H   0  0  0  0  0  0  0  0  0  0  0  0
  142.7954   74.4612  219.2247 H   0  0  0  0  0  0  0  0  0  0  0  0
  141.0819   74.6515  218.7836 H   0  0  0  0  0  0  0  0  0  0  0  0
  141.7422   75.7307  222.7618 H   0  0  0  0  0  0  0  0  0  0  0  0
  141.3086   77.3804  223.0230 H   0  0  0  0  0  0  0  0  0  0  0  0
  139.2841   75.9948  223.7814 H   0  0  0  0  0  0  0  0  0  0  0  0
  139.5690   74.1350  223.1180 H   0  0  0  0  0  0  0  0  0  0  0  0
  137.8352   76.5539  221.5571 H   0  0  0  0  0  0  0  0  0  0  0  0
  138.4482   77.8803  222.5210 H   0  0  0  0  0  0  0  0  0  0  0  0
  139.1924   77.1220  219.8385 H   0  0  0  0  0  0  0  0  0  0  0  0
  140.6121   79.0889  219.9138 H   0  0  0  0  0  0  0  0  0  0  0  0
  139.1042   79.4107  220.8846 H   0  0  0  0  0  0  0  0  0  0  0  0
  139.1732   80.2838  222.5171 H   0  0  0  0  0  0  0  0  0  0  0  0
  140.0024   79.3164  223.8261 H   0  0  0  0  0  0  0  0  0  0  0  0
  140.8591   81.9358  222.5976 H   0  0  0  0  0  0  0  0  0  0  0  0
  140.3952   81.5527  224.3175 H   0  0  0  0  0  0  0  0  0  0  0  0
  142.9036   81.8276  223.6453 H   0  0  0  0  0  0  0  0  0  0  0  0
  142.3511   80.5121  224.7747 H   0  0  0  0  0  0  0  0  0  0  0  0
  143.9721   80.1153  222.5950 H   0  0  0  0  0  0  0  0  0  0  0  0
  142.9596   78.8634  223.3369 H   0  0  0  0  0  0  0  0  0  0  0  0
  141.8942   80.8372  221.2084 H   0  0  0  0  0  0  0  0  0  0  0  0
  142.5659   79.2628  220.7630 H   0  0  0  0  0  0  0  0  0  0  0  0
  139.5870   70.3652  220.4699 H   0  0  0  0  0  0  0  0  0  0  0  0
  138.9072   68.9406  222.3695 H   0  0  0  0  0  0  0  0  0  0  0  0
  138.8201   68.5636  224.6664 H   0  0  0  0  0  0  0  0  0  0  0  0
  140.5107   71.3697  227.4002 H   0  0  0  0  0  0  0  0  0  0  0  0
  141.1969   72.8000  225.5296 H   0  0  0  0  0  0  0  0  0  0  0  0
  1  2  2  0
  2  3  1  0
  3  4  1  0
  4  5  1  0
  5  6  2  0
  5  7  1  0
  7  8  1  0
  8  9  1  0
  9 10  1  0
  9 11  1  0
 11 12  1  0
 12 13  1  0
 13 14  1  0
 14 15  1  0
 15 16  1  0
 16 17  1  0
 17 18  1  0
 18 19  1  0
  2 20  1  0
 20 21  2  0
 21 22  1  0
 22 23  2  0
 23 24  1  0
 24 25  2  0
 25 26  1  0
 25 27  1  0
 27 28  2  0
 28 29  1  0
 29 30  2  0
 12  7  1  0
 19 14  1  0
 30 20  1  0
 29 23  1  0
  3 31  1  0
  4 32  1  0
  4 33  1  0
  8 34  1  0
  8 35  1  0
  9 36  1  1
 10 37  1  0
 11 38  1  0
 11 39  1  0
 12 40  1  6
 13 41  1  0
 13 42  1  0
 15 43  1  0
 15 44  1  0
 16 45  1  0
 16 46  1  0
 17 47  1  0
 17 48  1  0
 18 49  1  0
 18 50  1  0
 19 51  1  0
 19 52  1  0
 21 53  1  0
 22 54  1  0
 24 55  1  0
 27 56  1  0
 28 57  1  0
M  END
>  <smiles>  (4) 
O=C(NCC(=O)N1C[C@H](O)C[C@H]1CN1CCCCC1)c1ccc2cc(F)ccc2n1

>  <score_type>  (4) 
oracle

>  <origin>  (4) 
autodockgpu

>  <m_score__min__energy>  (4) 
-8.3800000000000008

>  <m_primary>  (4) 
energy

>  <rmsd>  (4) 
3.4149825836438823

>  <m_score__min__rmsd>  (4) 
3.4149825836438823

>  <meeko>  (4) 
{"free_energy": -6.52, "intermolecular_energy": -8.61, "internal_energy": -3.11, "cluster_size": 33, "cluster_id": 1, "rank_in_cluster": 33}

>  <energy>  (4) 
-8.28

>  <cluster_rmsd>  (4) 
0.15

>  <cluster>  (4) 
1

$$$$

     RDKit          3D

 57 60  0  0  0  0  0  0  0  0999 V2000
  140.2500   71.6670  221.0130 O   0  0  0  0  0  0  0  0  0  0  0  0
  140.0140   72.2040  222.1420 C   0  0  0  0  0  0  0  0  0  0  0  0
  139.7610   73.6140  222.2350 N   0  0  0  0  0  0  0  0  0  0  0  0
  139.7820   74.4130  221.0020 C   0  0  0  0  0  0  0  0  0  0  0  0
  141.1940   74.7770  220.7420 C   0  0  0  0  0  0  0  0  0  0  0  0
  142.1770   74.2150  221.2860 O   0  0  0  0  0  0  0  0  0  0  0  0
  141.4660   75.8240  219.8190 N   0  0  0  0  0  0  0  0  0  0  0  0
  141.2750   75.8130  218.3600 C   0  0  0  0  0  0  0  0  0  0  0  0
  142.6120   76.4030  217.9380 C   0  0  2  0  0  0  0  0  0  0  0  0
  143.6330   75.4830  218.0700 O   0  0  0  0  0  0  0  0  0  0  0  0
  142.7370   77.5950  218.8520 C   0  0  0  0  0  0  0  0  0  0  0  0
  141.9960   77.1500  220.0890 C   0  0  1  0  0  0  0  0  0  0  0  0
  140.7920   78.0400  220.3520 C   0  0  0  0  0  0  0  0  0  0  0  0
  140.9510   78.8640  221.5130 N   0  0  0  0  0  0  0  0  0  0  0  0
  141.8290   79.9740  221.3260 C   0  0  0  0  0  0  0  0  0  0  0  0
  142.8580   80.1160  222.4180 C   0  0  0  0  0  0  0  0  0  0  0  0
  142.2640   80.0130  223.8000 C   0  0  0  0  0  0  0  0  0  0  0  0
  141.1220   79.0230  223.8680 C   0  0  0  0  0  0  0  0  0  0  0  0
  141.2970   78.0840  222.6690 C   0  0  0  0  0  0  0  0  0  0  0  0
  139.9950   71.4010  223.3610 C   0  0  0  0  0  0  0  0  0  0  0  0
  139.4780   70.1130  223.2950 C   0  0  0  0  0  0  0  0  0  0  0  0
  139.4350   69.3180  224.4000 C   0  0  0  0  0  0  0  0  0  0  0  0
  139.9160   69.8270  225.5840 C   0  0  0  0  0  0  0  0  0  0  0  0
  139.8690   69.0180  226.6990 C   0  0  0  0  0  0  0  0  0  0  0  0
  140.3340   69.4680  227.9060 C   0  0  0  0  0  0  0  0  0  0  0  0
  140.2910   68.6830  229.0030 F   0  0  0  0  0  0  0  0  0  0  0  0
  140.8430   70.7410  227.9680 C   0  0  0  0  0  0  0  0  0  0  0  0
  140.8890   71.5490  226.8510 C   0  0  0  0  0  0  0  0  0  0  0  0
  140.4240   71.1180  225.6100 C   0  0  0  0  0  0  0  0  0  0  0  0
  140.4650   71.9000  224.5190 N   0  0  0  0  0  0  0  0  0  0  0  0
  139.5680   74.0550  223.1550 H   0  0  0  0  0  0  0  0  0  0  0  0
  139.3840   73.8229  220.1633 H   0  0  0  0  0  0  0  0  0  0  0  0
  139.1592   75.3134  221.1087 H   0  0  0  0  0  0  0  0  0  0  0  0
  141.1330   74.7940  217.9707 H   0  0  0  0  0  0  0  0  0  0  0  0
  140.3863   76.3494  217.9961 H   0  0  0  0  0  0  0  0  0  0  0  0
  142.6732   76.6882  216.8774 H   0  0  0  0  0  0  0  0  0  0  0  0
  144.4820   75.9910  218.1010 H   0  0  0  0  0  0  0  0  0  0  0  0
  143.7915   77.8112  219.0786 H   0  0  0  0  0  0  0  0  0  0  0  0
  142.3362   78.5215  218.4151 H   0  0  0  0  0  0  0  0  0  0  0  0
  142.6827   77.1831  220.9477 H   0  0  0  0  0  0  0  0  0  0  0  0
  140.6388   78.6904  219.4782 H   0  0  0  0  0  0  0  0  0  0  0  0
  139.9280   77.3827  220.5295 H   0  0  0  0  0  0  0  0  0  0  0  0
  142.3535   79.8457  220.3677 H   0  0  0  0  0  0  0  0  0  0  0  0
  141.2101   80.8832  221.3438 H   0  0  0  0  0  0  0  0  0  0  0  0
  143.6089   79.3211  222.2984 H   0  0  0  0  0  0  0  0  0  0  0  0
  143.3038   81.1172  222.3238 H   0  0  0  0  0  0  0  0  0  0  0  0
  143.0506   79.6926  224.4990 H   0  0  0  0  0  0  0  0  0  0  0  0
  141.8645   81.0026  224.0664 H   0  0  0  0  0  0  0  0  0  0  0  0
  141.1668   78.4534  224.8080 H   0  0  0  0  0  0  0  0  0  0  0  0
  140.1477   79.5328  223.8386 H   0  0  0  0  0  0  0  0  0  0  0  0
  142.3391   77.7383  222.6010 H   0  0  0  0  0  0  0  0  0  0  0  0
  140.6658   77.1876  222.7588 H   0  0  0  0  0  0  0  0  0  0  0  0
  139.0980   69.7299  222.3365 H   0  0  0  0  0  0  0  0  0  0  0  0
  139.0272   68.2978  224.3472 H   0  0  0  0  0  0  0  0  0  0  0  0
  139.4545   68.0023  226.6187 H   0  0  0  0  0  0  0  0  0  0  0  0
  141.2216   71.1244  228.9270 H   0  0  0  0  0  0  0  0  0  0  0  0
  141.3049   72.5632  226.9425 H   0  0  0  0  0  0  0  0  0  0  0  0
  1  2  2  0
  2  3  1  0
  3  4  1  0
  4  5  1  0
  5  6  2  0
  5  7  1  0
  7  8  1  0
  8  9  1  0
  9 10  1  0
  9 11  1  0
 11 12  1  0
 12 13  1  0
 13 14  1  0
 14 15  1  0
 15 16  1  0
 16 17  1  0
 17 18  1  0
 18 19  1  0
  2 20  1  0
 20 21  2  0
 21 22  1  0
 22 23  2  0
 23 24  1  0
 24 25  2  0
 25 26  1  0
 25 27  1  0
 27 28  2  0
 28 29  1  0
 29 30  2  0
 12  7  1  0
 19 14  1  0
 30 20  1  0
 29 23  1  0
  3 31  1  0
  4 32  1  0
  4 33  1  0
  8 34  1  0
  8 35  1  0
  9 36  1  6
 10 37  1  0
 11 38  1  0
 11 39  1  0
 12 40  1  1
 13 41  1  0
 13 42  1  0
 15 43  1  0
 15 44  1  0
 16 45  1  0
 16 46  1  0
 17 47  1  0
 17 48  1  0
 18 49  1  0
 18 50  1  0
 19 51  1  0
 19 52  1  0
 21 53  1  0
 22 54  1  0
 24 55  1  0
 27 56  1  0
 28 57  1  0
M  END
>  <smiles>  (5) 
O=C(NCC(=O)N1C[C@H](O)C[C@H]1CN1CCCCC1)c1ccc2cc(F)ccc2n1

>  <score_type>  (5) 
oracle

>  <origin>  (5) 
autodockgpu

>  <m_score__min__energy>  (5) 
-8.3800000000000008

>  <m_primary>  (5) 
energy

>  <rmsd>  (5) 
2.3667309013622444

>  <m_score__min__rmsd>  (5) 
2.3667309013622444

>  <meeko>  (5) 
{"free_energy": -8.28, "intermolecular_energy": -10.37, "internal_energy": -1.56, "cluster_size": 33, "cluster_id": 1, "rank_in_cluster": 4}

>  <energy>  (5) 
-8.27

>  <cluster_rmsd>  (5) 
1.19

>  <cluster>  (5) 
1

$$$$

     RDKit          3D

 57 60  0  0  0  0  0  0  0  0999 V2000
  140.1930   71.7080  221.0680 O   0  0  0  0  0  0  0  0  0  0  0  0
  139.9800   72.2310  222.2070 C   0  0  0  0  0  0  0  0  0  0  0  0
  139.7370   73.6420  222.3220 N   0  0  0  0  0  0  0  0  0  0  0  0
  139.7410   74.4560  221.0990 C   0  0  0  0  0  0  0  0  0  0  0  0
  141.1570   74.7260  220.7590 C   0  0  0  0  0  0  0  0  0  0  0  0
  142.1270   74.0710  221.2150 O   0  0  0  0  0  0  0  0  0  0  0  0
  141.4490   75.7900  219.8630 N   0  0  0  0  0  0  0  0  0  0  0  0
  141.3200   75.7950  218.3970 C   0  0  0  0  0  0  0  0  0  0  0  0
  142.6620   76.4140  218.0390 C   0  0  2  0  0  0  0  0  0  0  0  0
  143.6940   75.5110  218.2030 O   0  0  0  0  0  0  0  0  0  0  0  0
  142.7270   77.5960  218.9730 C   0  0  0  0  0  0  0  0  0  0  0  0
  141.9420   77.1220  220.1720 C   0  0  1  0  0  0  0  0  0  0  0  0
  140.7120   77.9870  220.3940 C   0  0  0  0  0  0  0  0  0  0  0  0
  140.8340   78.8440  221.5350 N   0  0  0  0  0  0  0  0  0  0  0  0
  141.4890   80.0840  221.2670 C   0  0  0  0  0  0  0  0  0  0  0  0
  142.5730   80.4170  222.2600 C   0  0  0  0  0  0  0  0  0  0  0  0
  142.1330   80.2370  223.6900 C   0  0  0  0  0  0  0  0  0  0  0  0
  141.1890   79.0680  223.8640 C   0  0  0  0  0  0  0  0  0  0  0  0
  141.4110   78.1530  222.6540 C   0  0  0  0  0  0  0  0  0  0  0  0
  139.9780   71.4140  223.4170 C   0  0  0  0  0  0  0  0  0  0  0  0
  139.4390   70.1350  223.3470 C   0  0  0  0  0  0  0  0  0  0  0  0
  139.4090   69.3270  224.4440 C   0  0  0  0  0  0  0  0  0  0  0  0
  139.9270   69.8130  225.6220 C   0  0  0  0  0  0  0  0  0  0  0  0
  139.8950   68.9910  226.7270 C   0  0  0  0  0  0  0  0  0  0  0  0
  140.3960   69.4190  227.9280 C   0  0  0  0  0  0  0  0  0  0  0  0
  140.3670   68.6200  229.0160 F   0  0  0  0  0  0  0  0  0  0  0  0
  140.9280   70.6820  227.9930 C   0  0  0  0  0  0  0  0  0  0  0  0
  140.9590   71.5040  226.8850 C   0  0  0  0  0  0  0  0  0  0  0  0
  140.4570   71.0960  225.6510 C   0  0  0  0  0  0  0  0  0  0  0  0
  140.4850   71.8910  224.5680 N   0  0  0  0  0  0  0  0  0  0  0  0
  139.5620   74.0730  223.2510 H   0  0  0  0  0  0  0  0  0  0  0  0
  139.2543   73.9073  220.2792 H   0  0  0  0  0  0  0  0  0  0  0  0
  139.1897   75.3954  221.2526 H   0  0  0  0  0  0  0  0  0  0  0  0
  141.2132   74.7789  217.9894 H   0  0  0  0  0  0  0  0  0  0  0  0
  140.4377   76.3205  218.0027 H   0  0  0  0  0  0  0  0  0  0  0  0
  142.7618   76.7138  216.9854 H   0  0  0  0  0  0  0  0  0  0  0  0
  144.5160   75.9410  217.8610 H   0  0  0  0  0  0  0  0  0  0  0  0
  143.7670   77.8271  219.2470 H   0  0  0  0  0  0  0  0  0  0  0  0
  142.3286   78.5212  218.5311 H   0  0  0  0  0  0  0  0  0  0  0  0
  142.5902   77.1563  221.0601 H   0  0  0  0  0  0  0  0  0  0  0  0
  140.5552   78.6105  219.5014 H   0  0  0  0  0  0  0  0  0  0  0  0
  139.8619   77.3130  220.5758 H   0  0  0  0  0  0  0  0  0  0  0  0
  141.9391   80.0308  220.2647 H   0  0  0  0  0  0  0  0  0  0  0  0
  140.7281   80.8749  221.3405 H   0  0  0  0  0  0  0  0  0  0  0  0
  143.4349   79.7597  222.0725 H   0  0  0  0  0  0  0  0  0  0  0  0
  142.8305   81.4778  222.1246 H   0  0  0  0  0  0  0  0  0  0  0  0
  143.0229   80.0674  224.3140 H   0  0  0  0  0  0  0  0  0  0  0  0
  141.5950   81.1481  223.9908 H   0  0  0  0  0  0  0  0  0  0  0  0
  141.4169   78.5296  224.7958 H   0  0  0  0  0  0  0  0  0  0  0  0
  140.1433   79.4038  223.9253 H   0  0  0  0  0  0  0  0  0  0  0  0
  142.4861   77.9875  222.4901 H   0  0  0  0  0  0  0  0  0  0  0  0
  140.9519   77.1644  222.8021 H   0  0  0  0  0  0  0  0  0  0  0  0
  139.0310   69.7698  222.3930 H   0  0  0  0  0  0  0  0  0  0  0  0
  138.9825   68.3145  224.3890 H   0  0  0  0  0  0  0  0  0  0  0  0
  139.4636   67.9825  226.6443 H   0  0  0  0  0  0  0  0  0  0  0  0
  141.3377   71.0464  228.9466 H   0  0  0  0  0  0  0  0  0  0  0  0
  141.3926   72.5106  226.9788 H   0  0  0  0  0  0  0  0  0  0  0  0
  1  2  2  0
  2  3  1  0
  3  4  1  0
  4  5  1  0
  5  6  2  0
  5  7  1  0
  7  8  1  0
  8  9  1  0
  9 10  1  0
  9 11  1  0
 11 12  1  0
 12 13  1  0
 13 14  1  0
 14 15  1  0
 15 16  1  0
 16 17  1  0
 17 18  1  0
 18 19  1  0
  2 20  1  0
 20 21  2  0
 21 22  1  0
 22 23  2  0
 23 24  1  0
 24 25  2  0
 25 26  1  0
 25 27  1  0
 27 28  2  0
 28 29  1  0
 29 30  2  0
 12  7  1  0
 19 14  1  0
 30 20  1  0
 29 23  1  0
  3 31  1  0
  4 32  1  0
  4 33  1  0
  8 34  1  0
  8 35  1  0
  9 36  1  6
 10 37  1  0
 11 38  1  0
 11 39  1  0
 12 40  1  1
 13 41  1  0
 13 42  1  0
 15 43  1  0
 15 44  1  0
 16 45  1  0
 16 46  1  0
 17 47  1  0
 17 48  1  0
 18 49  1  0
 18 50  1  0
 19 51  1  0
 19 52  1  0
 21 53  1  0
 22 54  1  0
 24 55  1  0
 27 56  1  0
 28 57  1  0
M  END
>  <smiles>  (6) 
O=C(NCC(=O)N1C[C@H](O)C[C@H]1CN1CCCCC1)c1ccc2cc(F)ccc2n1

>  <score_type>  (6) 
oracle

>  <origin>  (6) 
autodockgpu

>  <m_score__min__energy>  (6) 
-8.3800000000000008

>  <m_primary>  (6) 
energy

>  <rmsd>  (6) 
2.341807359999179

>  <m_score__min__rmsd>  (6) 
2.341807359999179

>  <meeko>  (6) 
{"free_energy": -8.38, "intermolecular_energy": -10.47, "internal_energy": -1.52, "cluster_size": 33, "cluster_id": 1, "rank_in_cluster": 1}

>  <energy>  (6) 
-8.25

>  <cluster_rmsd>  (6) 
1.17

>  <cluster>  (6) 
1

$$$$

     RDKit          3D

 57 60  0  0  0  0  0  0  0  0999 V2000
  138.9250   71.5520  221.5190 O   0  0  0  0  0  0  0  0  0  0  0  0
  138.4170   71.6820  222.6780 C   0  0  0  0  0  0  0  0  0  0  0  0
  137.3760   72.6440  222.9090 N   0  0  0  0  0  0  0  0  0  0  0  0
  136.9190   73.4660  221.7800 C   0  0  0  0  0  0  0  0  0  0  0  0
  137.4420   74.8350  221.9960 C   0  0  0  0  0  0  0  0  0  0  0  0
  136.7800   75.7650  222.5200 O   0  0  0  0  0  0  0  0  0  0  0  0
  138.7730   75.1250  221.5920 N   0  0  0  0  0  0  0  0  0  0  0  0
  139.5860   74.4180  220.5890 C   0  0  0  0  0  0  0  0  0  0  0  0
  140.8820   74.2910  221.3760 C   0  0  2  0  0  0  0  0  0  0  0  0
  140.7850   73.3250  222.3570 O   0  0  0  0  0  0  0  0  0  0  0  0
  141.0680   75.6890  221.9090 C   0  0  0  0  0  0  0  0  0  0  0  0
  139.6510   76.1820  222.0660 C   0  0  1  0  0  0  0  0  0  0  0  0
  139.3890   77.3820  221.1700 C   0  0  0  0  0  0  0  0  0  0  0  0
  139.9360   78.5980  221.6940 N   0  0  0  0  0  0  0  0  0  0  0  0
  141.3070   78.8140  221.3600 C   0  0  0  0  0  0  0  0  0  0  0  0
  142.1590   79.1950  222.5430 C   0  0  0  0  0  0  0  0  0  0  0  0
  141.5410   80.2810  223.3850 C   0  0  0  0  0  0  0  0  0  0  0  0
  140.0340   80.1730  223.4580 C   0  0  0  0  0  0  0  0  0  0  0  0
  139.6920   78.7200  223.1040 C   0  0  0  0  0  0  0  0  0  0  0  0
  138.8780   70.8600  223.7930 C   0  0  0  0  0  0  0  0  0  0  0  0
  138.5920   69.5000  223.7720 C   0  0  0  0  0  0  0  0  0  0  0  0
  138.9960   68.6840  224.7850 C   0  0  0  0  0  0  0  0  0  0  0  0
  139.6950   69.2440  225.8300 C   0  0  0  0  0  0  0  0  0  0  0  0
  140.1020   68.4140  226.8510 C   0  0  0  0  0  0  0  0  0  0  0  0
  140.8020   68.9130  227.9180 C   0  0  0  0  0  0  0  0  0  0  0  0
  141.2030   68.1060  228.9230 F   0  0  0  0  0  0  0  0  0  0  0  0
  141.0830   70.2560  227.9340 C   0  0  0  0  0  0  0  0  0  0  0  0
  140.6740   71.0860  226.9110 C   0  0  0  0  0  0  0  0  0  0  0  0
  139.9610   70.6060  225.8140 C   0  0  0  0  0  0  0  0  0  0  0  0
  139.5610   71.4090  224.8140 N   0  0  0  0  0  0  0  0  0  0  0  0
  136.9590   72.7530  223.8530 H   0  0  0  0  0  0  0  0  0  0  0  0
  137.3080   73.0585  220.8352 H   0  0  0  0  0  0  0  0  0  0  0  0
  135.8206   73.4721  221.7204 H   0  0  0  0  0  0  0  0  0  0  0  0
  139.1617   73.4360  220.3326 H   0  0  0  0  0  0  0  0  0  0  0  0
  139.6731   74.9190  219.6136 H   0  0  0  0  0  0  0  0  0  0  0  0
  141.7461   73.9547  220.7842 H   0  0  0  0  0  0  0  0  0  0  0  0
  139.8290   73.2520  222.6030 H   0  0  0  0  0  0  0  0  0  0  0  0
  141.5922   75.6772  222.8760 H   0  0  0  0  0  0  0  0  0  0  0  0
  141.6790   76.3261  221.2526 H   0  0  0  0  0  0  0  0  0  0  0  0
  139.4828   76.4552  223.1182 H   0  0  0  0  0  0  0  0  0  0  0  0
  139.8398   77.1899  220.1851 H   0  0  0  0  0  0  0  0  0  0  0  0
  138.2988   77.5122  221.1024 H   0  0  0  0  0  0  0  0  0  0  0  0
  141.7097   77.8877  220.9243 H   0  0  0  0  0  0  0  0  0  0  0  0
  141.3398   79.6554  220.6522 H   0  0  0  0  0  0  0  0  0  0  0  0
  142.3056   78.3042  223.1714 H   0  0  0  0  0  0  0  0  0  0  0  0
  143.1119   79.5818  222.1527 H   0  0  0  0  0  0  0  0  0  0  0  0
  141.9491   80.2120  224.4042 H   0  0  0  0  0  0  0  0  0  0  0  0
  141.7838   81.2457  222.9156 H   0  0  0  0  0  0  0  0  0  0  0  0
  139.6833   80.4110  224.4731 H   0  0  0  0  0  0  0  0  0  0  0  0
  139.5474   80.8789  222.7688 H   0  0  0  0  0  0  0  0  0  0  0  0
  140.3345   78.0264  223.6662 H   0  0  0  0  0  0  0  0  0  0  0  0
  138.6510   78.4731  223.3597 H   0  0  0  0  0  0  0  0  0  0  0  0
  138.0315   69.0767  222.9254 H   0  0  0  0  0  0  0  0  0  0  0  0
  138.7699   67.6076  224.7684 H   0  0  0  0  0  0  0  0  0  0  0  0
  139.8630   67.3411  226.8095 H   0  0  0  0  0  0  0  0  0  0  0  0
  141.6455   70.6791  228.7793 H   0  0  0  0  0  0  0  0  0  0  0  0
  140.9176   72.1574  226.9625 H   0  0  0  0  0  0  0  0  0  0  0  0
  1  2  2  0
  2  3  1  0
  3  4  1  0
  4  5  1  0
  5  6  2  0
  5  7  1  0
  7  8  1  0
  8  9  1  0
  9 10  1  0
  9 11  1  0
 11 12  1  0
 12 13  1  0
 13 14  1  0
 14 15  1  0
 15 16  1  0
 16 17  1  0
 17 18  1  0
 18 19  1  0
  2 20  1  0
 20 21  2  0
 21 22  1  0
 22 23  2  0
 23 24  1  0
 24 25  2  0
 25 26  1  0
 25 27  1  0
 27 28  2  0
 28 29  1  0
 29 30  2  0
 12  7  1  0
 19 14  1  0
 30 20  1  0
 29 23  1  0
  3 31  1  0
  4 32  1  0
  4 33  1  0
  8 34  1  0
  8 35  1  0
  9 36  1  6
 10 37  1  0
 11 38  1  0
 11 39  1  0
 12 40  1  1
 13 41  1  0
 13 42  1  0
 15 43  1  0
 15 44  1  0
 16 45  1  0
 16 46  1  0
 17 47  1  0
 17 48  1  0
 18 49  1  0
 18 50  1  0
 19 51  1  0
 19 52  1  0
 21 53  1  0
 22 54  1  0
 24 55  1  0
 27 56  1  0
 28 57  1  0
M  END
>  <smiles>  (7) 
O=C(NCC(=O)N1C[C@H](O)C[C@H]1CN1CCCCC1)c1ccc2cc(F)ccc2n1

>  <score_type>  (7) 
oracle

>  <origin>  (7) 
autodockgpu

>  <m_score__min__energy>  (7) 
-8.3800000000000008

>  <m_primary>  (7) 
energy

>  <rmsd>  (7) 
2.5258490638417257

>  <m_score__min__rmsd>  (7) 
2.5258490638417257

>  <meeko>  (7) 
{"free_energy": -7.86, "intermolecular_energy": -9.95, "internal_energy": -2.29, "cluster_size": 33, "cluster_id": 1, "rank_in_cluster": 17}

>  <energy>  (7) 
-8.23

>  <cluster_rmsd>  (7) 
0.75

>  <cluster>  (7) 
1

$$$$

     RDKit          3D

 57 60  0  0  0  0  0  0  0  0999 V2000
  139.9660   71.9260  221.6470 O   0  0  0  0  0  0  0  0  0  0  0  0
  139.1830   71.8790  222.6480 C   0  0  0  0  0  0  0  0  0  0  0  0
  137.9850   72.6710  222.6680 N   0  0  0  0  0  0  0  0  0  0  0  0
  137.6930   73.5280  221.5120 C   0  0  0  0  0  0  0  0  0  0  0  0
  137.9420   74.9260  221.9310 C   0  0  0  0  0  0  0  0  0  0  0  0
  137.1900   75.5750  222.6990 O   0  0  0  0  0  0  0  0  0  0  0  0
  139.1020   75.5860  221.4400 N   0  0  0  0  0  0  0  0  0  0  0  0
  139.3920   75.9900  220.0550 C   0  0  0  0  0  0  0  0  0  0  0  0
  140.8200   75.4780  219.9480 C   0  0  2  0  0  0  0  0  0  0  0  0
  140.8550   74.1030  219.8270 O   0  0  0  0  0  0  0  0  0  0  0  0
  141.4400   75.9980  221.2200 C   0  0  0  0  0  0  0  0  0  0  0  0
  140.2760   76.0180  222.1800 C   0  0  1  0  0  0  0  0  0  0  0  0
  139.9820   77.4340  222.6490 C   0  0  0  0  0  0  0  0  0  0  0  0
  141.0830   78.3270  222.4460 N   0  0  0  0  0  0  0  0  0  0  0  0
  141.8150   78.6330  223.6330 C   0  0  0  0  0  0  0  0  0  0  0  0
  142.0600   80.1080  223.8230 C   0  0  0  0  0  0  0  0  0  0  0  0
  142.5770   80.7820  222.5780 C   0  0  0  0  0  0  0  0  0  0  0  0
  141.9780   80.2030  221.3140 C   0  0  0  0  0  0  0  0  0  0  0  0
  140.6780   79.5080  221.7350 C   0  0  0  0  0  0  0  0  0  0  0  0
  139.4820   71.0230  223.7920 C   0  0  0  0  0  0  0  0  0  0  0  0
  139.2000   69.6660  223.6930 C   0  0  0  0  0  0  0  0  0  0  0  0
  139.4590   68.8190  224.7280 C   0  0  0  0  0  0  0  0  0  0  0  0
  140.0050   69.3450  225.8750 C   0  0  0  0  0  0  0  0  0  0  0  0
  140.2640   68.4840  226.9190 C   0  0  0  0  0  0  0  0  0  0  0  0
  140.8090   68.9490  228.0870 C   0  0  0  0  0  0  0  0  0  0  0  0
  141.0650   68.1110  229.1140 F   0  0  0  0  0  0  0  0  0  0  0  0
  141.0870   70.2900  228.1820 C   0  0  0  0  0  0  0  0  0  0  0  0
  140.8260   71.1500  227.1360 C   0  0  0  0  0  0  0  0  0  0  0  0
  140.2730   70.7060  225.9360 C   0  0  0  0  0  0  0  0  0  0  0  0
  140.0170   71.5390  224.9140 N   0  0  0  0  0  0  0  0  0  0  0  0
  137.3430   72.6340  223.4840 H   0  0  0  0  0  0  0  0  0  0  0  0
  138.3507   73.2636  220.6709 H   0  0  0  0  0  0  0  0  0  0  0  0
  136.6517   73.3982  221.1822 H   0  0  0  0  0  0  0  0  0  0  0  0
  138.7229   75.4979  219.3338 H   0  0  0  0  0  0  0  0  0  0  0  0
  139.2569   77.0598  219.8376 H   0  0  0  0  0  0  0  0  0  0  0  0
  141.3634   75.8179  219.0540 H   0  0  0  0  0  0  0  0  0  0  0  0
  140.2810   73.7310  220.5420 H   0  0  0  0  0  0  0  0  0  0  0  0
  142.2349   75.3261  221.5760 H   0  0  0  0  0  0  0  0  0  0  0  0
  141.9196   76.9805  221.0989 H   0  0  0  0  0  0  0  0  0  0  0  0
  140.5128   75.3779  223.0427 H   0  0  0  0  0  0  0  0  0  0  0  0
  139.1133   77.8152  222.0921 H   0  0  0  0  0  0  0  0  0  0  0  0
  139.7869   77.3902  223.7307 H   0  0  0  0  0  0  0  0  0  0  0  0
  141.2476   78.2597  224.4983 H   0  0  0  0  0  0  0  0  0  0  0  0
  142.7990   78.1501  223.5406 H   0  0  0  0  0  0  0  0  0  0  0  0
  141.1131   80.5865  224.1137 H   0  0  0  0  0  0  0  0  0  0  0  0
  142.8297   80.2171  224.6012 H   0  0  0  0  0  0  0  0  0  0  0  0
  142.3291   81.8526  222.6276 H   0  0  0  0  0  0  0  0  0  0  0  0
  143.6642   80.6201  222.5372 H   0  0  0  0  0  0  0  0  0  0  0  0
  141.7650   81.0045  220.5913 H   0  0  0  0  0  0  0  0  0  0  0  0
  142.6699   79.4985  220.8292 H   0  0  0  0  0  0  0  0  0  0  0  0
  140.0856   80.1653  222.3885 H   0  0  0  0  0  0  0  0  0  0  0  0
  140.0478   79.2641  220.8671 H   0  0  0  0  0  0  0  0  0  0  0  0
  138.7612   69.2699  222.7653 H   0  0  0  0  0  0  0  0  0  0  0  0
  139.2375   67.7445  224.6483 H   0  0  0  0  0  0  0  0  0  0  0  0
  140.0313   67.4141  226.8139 H   0  0  0  0  0  0  0  0  0  0  0  0
  141.5261   70.6859  229.1096 H   0  0  0  0  0  0  0  0  0  0  0  0
  141.0613   72.2183  227.2521 H   0  0  0  0  0  0  0  0  0  0  0  0
  1  2  2  0
  2  3  1  0
  3  4  1  0
  4  5  1  0
  5  6  2  0
  5  7  1  0
  7  8  1  0
  8  9  1  0
  9 10  1  0
  9 11  1  0
 11 12  1  0
 12 13  1  0
 13 14  1  0
 14 15  1  0
 15 16  1  0
 16 17  1  0
 17 18  1  0
 18 19  1  0
  2 20  1  0
 20 21  2  0
 21 22  1  0
 22 23  2  0
 23 24  1  0
 24 25  2  0
 25 26  1  0
 25 27  1  0
 27 28  2  0
 28 29  1  0
 29 30  2  0
 12  7  1  0
 19 14  1  0
 30 20  1  0
 29 23  1  0
  3 31  1  0
  4 32  1  0
  4 33  1  0
  8 34  1  0
  8 35  1  0
  9 36  1  6
 10 37  1  0
 11 38  1  0
 11 39  1  0
 12 40  1  1
 13 41  1  0
 13 42  1  0
 15 43  1  0
 15 44  1  0
 16 45  1  0
 16 46  1  0
 17 47  1  0
 17 48  1  0
 18 49  1  0
 18 50  1  0
 19 51  1  0
 19 52  1  0
 21 53  1  0
 22 54  1  0
 24 55  1  0
 27 56  1  0
 28 57  1  0
M  END
>  <smiles>  (8) 
O=C(NCC(=O)N1C[C@H](O)C[C@H]1CN1CCCCC1)c1ccc2cc(F)ccc2n1

>  <score_type>  (8) 
oracle

>  <origin>  (8) 
autodockgpu

>  <m_score__min__energy>  (8) 
-8.3800000000000008

>  <m_primary>  (8) 
energy

>  <rmsd>  (8) 
1.9796003519444698

>  <m_score__min__rmsd>  (8) 
1.9796003519444698

>  <meeko>  (8) 
{"free_energy": -7.51, "intermolecular_energy": -9.6, "internal_energy": -2.27, "cluster_size": 33, "cluster_id": 1, "rank_in_cluster": 24}

>  <energy>  (8) 
-8.2

>  <cluster_rmsd>  (8) 
1.12

>  <cluster>  (8) 
1

$$$$

     RDKit          3D

 57 60  0  0  0  0  0  0  0  0999 V2000
  141.2420   72.2270  221.7680 O   0  0  0  0  0  0  0  0  0  0  0  0
  140.2510   72.2540  222.5650 C   0  0  0  0  0  0  0  0  0  0  0  0
  139.1730   73.1780  222.3480 N   0  0  0  0  0  0  0  0  0  0  0  0
  139.2470   74.0820  221.1920 C   0  0  0  0  0  0  0  0  0  0  0  0
  138.7850   75.4130  221.6490 C   0  0  0  0  0  0  0  0  0  0  0  0
  137.7870   75.5950  222.3900 O   0  0  0  0  0  0  0  0  0  0  0  0
  139.5080   76.5640  221.2310 N   0  0  0  0  0  0  0  0  0  0  0  0
  138.9830   77.7640  220.5600 C   0  0  0  0  0  0  0  0  0  0  0  0
  140.0270   77.9010  219.4620 C   0  0  2  0  0  0  0  0  0  0  0  0
  139.8460   76.9540  218.4730 O   0  0  0  0  0  0  0  0  0  0  0  0
  141.3160   77.7500  220.2280 C   0  0  0  0  0  0  0  0  0  0  0  0
  140.9300   76.8330  221.3620 C   0  0  1  0  0  0  0  0  0  0  0  0
  141.1060   77.5250  222.7050 C   0  0  0  0  0  0  0  0  0  0  0  0
  141.3320   78.9340  222.5800 N   0  0  0  0  0  0  0  0  0  0  0  0
  142.6810   79.3330  222.8240 C   0  0  0  0  0  0  0  0  0  0  0  0
  142.7990   80.4980  223.7730 C   0  0  0  0  0  0  0  0  0  0  0  0
  141.8630   81.6290  223.4310 C   0  0  0  0  0  0  0  0  0  0  0  0
  140.5380   81.1420  222.8880 C   0  0  0  0  0  0  0  0  0  0  0  0
  140.3900   79.6890  223.3570 C   0  0  0  0  0  0  0  0  0  0  0  0
  140.1870   71.3520  223.7100 C   0  0  0  0  0  0  0  0  0  0  0  0
  139.5990   70.1050  223.5350 C   0  0  0  0  0  0  0  0  0  0  0  0
  139.5120   69.2200  224.5680 C   0  0  0  0  0  0  0  0  0  0  0  0
  140.0200   69.5970  225.7890 C   0  0  0  0  0  0  0  0  0  0  0  0
  139.9290   68.6990  226.8290 C   0  0  0  0  0  0  0  0  0  0  0  0
  140.4190   69.0160  228.0690 C   0  0  0  0  0  0  0  0  0  0  0  0
  140.3320   68.1420  229.0940 F   0  0  0  0  0  0  0  0  0  0  0  0
  140.9990   70.2480  228.2380 C   0  0  0  0  0  0  0  0  0  0  0  0
  141.0890   71.1460  227.1950 C   0  0  0  0  0  0  0  0  0  0  0  0
  140.6000   70.8510  225.9240 C   0  0  0  0  0  0  0  0  0  0  0  0
  140.6850   71.7210  224.9040 N   0  0  0  0  0  0  0  0  0  0  0  0
  138.3620   73.2030  222.9960 H   0  0  0  0  0  0  0  0  0  0  0  0
  140.2835   74.1465  220.8293 H   0  0  0  0  0  0  0  0  0  0  0  0
  138.6212   73.7130  220.3660 H   0  0  0  0  0  0  0  0  0  0  0  0
  137.9747   77.6001  220.1519 H   0  0  0  0  0  0  0  0  0  0  0  0
  138.8553   78.6471  221.2033 H   0  0  0  0  0  0  0  0  0  0  0  0
  139.9858   78.8490  218.9057 H   0  0  0  0  0  0  0  0  0  0  0  0
  139.6050   77.4380  217.6450 H   0  0  0  0  0  0  0  0  0  0  0  0
  142.0978   77.2964  219.6011 H   0  0  0  0  0  0  0  0  0  0  0  0
  141.7335   78.7091  220.5684 H   0  0  0  0  0  0  0  0  0  0  0  0
  141.5552   75.9289  221.3196 H   0  0  0  0  0  0  0  0  0  0  0  0
  140.1965   77.3670  223.3033 H   0  0  0  0  0  0  0  0  0  0  0  0
  141.9936   77.0895  223.1872 H   0  0  0  0  0  0  0  0  0  0  0  0
  143.2253   78.4783  223.2520 H   0  0  0  0  0  0  0  0  0  0  0  0
  143.1033   79.6551  221.8607 H   0  0  0  0  0  0  0  0  0  0  0  0
  142.5691   80.1472  224.7899 H   0  0  0  0  0  0  0  0  0  0  0  0
  143.8261   80.8842  223.6961 H   0  0  0  0  0  0  0  0  0  0  0  0
  141.6759   82.2189  224.3404 H   0  0  0  0  0  0  0  0  0  0  0  0
  142.3428   82.2337  222.6473 H   0  0  0  0  0  0  0  0  0  0  0  0
  139.7153   81.7558  223.2835 H   0  0  0  0  0  0  0  0  0  0  0  0
  140.5041   81.2140  221.7909 H   0  0  0  0  0  0  0  0  0  0  0  0
  140.6226   79.6060  224.4289 H   0  0  0  0  0  0  0  0  0  0  0  0
  139.3626   79.3204  223.2211 H   0  0  0  0  0  0  0  0  0  0  0  0
  139.1981   69.8283  222.5488 H   0  0  0  0  0  0  0  0  0  0  0  0
  139.0485   68.2322  224.4289 H   0  0  0  0  0  0  0  0  0  0  0  0
  139.4588   67.7185  226.6630 H   0  0  0  0  0  0  0  0  0  0  0  0
  141.3999   70.5248  229.2243 H   0  0  0  0  0  0  0  0  0  0  0  0
  141.5607   72.1239  227.3718 H   0  0  0  0  0  0  0  0  0  0  0  0
  1  2  2  0
  2  3  1  0
  3  4  1  0
  4  5  1  0
  5  6  2  0
  5  7  1  0
  7  8  1  0
  8  9  1  0
  9 10  1  0
  9 11  1  0
 11 12  1  0
 12 13  1  0
 13 14  1  0
 14 15  1  0
 15 16  1  0
 16 17  1  0
 17 18  1  0
 18 19  1  0
  2 20  1  0
 20 21  2  0
 21 22  1  0
 22 23  2  0
 23 24  1  0
 24 25  2  0
 25 26  1  0
 25 27  1  0
 27 28  2  0
 28 29  1  0
 29 30  2  0
 12  7  1  0
 19 14  1  0
 30 20  1  0
 29 23  1  0
  3 31  1  0
  4 32  1  0
  4 33  1  0
  8 34  1  0
  8 35  1  0
  9 36  1  6
 10 37  1  0
 11 38  1  0
 11 39  1  0
 12 40  1  1
 13 41  1  0
 13 42  1  0
 15 43  1  0
 15 44  1  0
 16 45  1  0
 16 46  1  0
 17 47  1  0
 17 48  1  0
 18 49  1  0
 18 50  1  0
 19 51  1  0
 19 52  1  0
 21 53  1  0
 22 54  1  0
 24 55  1  0
 27 56  1  0
 28 57  1  0
M  END
>  <smiles>  (9) 
O=C(NCC(=O)N1C[C@H](O)C[C@H]1CN1CCCCC1)c1ccc2cc(F)ccc2n1

>  <score_type>  (9) 
oracle

>  <origin>  (9) 
autodockgpu

>  <m_score__min__energy>  (9) 
-8.3800000000000008

>  <m_primary>  (9) 
energy

>  <rmsd>  (9) 
2.283416482629899

>  <m_score__min__rmsd>  (9) 
2.283416482629899

>  <meeko>  (9) 
{"free_energy": -8.02, "intermolecular_energy": -10.1, "internal_energy": -1.63, "cluster_size": 33, "cluster_id": 1, "rank_in_cluster": 12}

>  <energy>  (9) 
-8.09

>  <cluster_rmsd>  (9) 
1.23

>  <cluster>  (9) 
1

$$$$

     RDKit          3D

 57 60  0  0  0  0  0  0  0  0999 V2000
  135.3280   72.0730  222.9530 O   0  0  0  0  0  0  0  0  0  0  0  0
  136.5780   72.2360  223.1280 C   0  0  0  0  0  0  0  0  0  0  0  0
  137.2330   73.4100  222.6240 N   0  0  0  0  0  0  0  0  0  0  0  0
  136.4270   74.4080  221.9070 C   0  0  0  0  0  0  0  0  0  0  0  0
  137.1120   75.7130  222.0590 C   0  0  0  0  0  0  0  0  0  0  0  0
  136.5660   76.7430  222.5260 O   0  0  0  0  0  0  0  0  0  0  0  0
  138.4710   75.8170  221.6550 N   0  0  0  0  0  0  0  0  0  0  0  0
  139.1680   75.0340  220.6220 C   0  0  0  0  0  0  0  0  0  0  0  0
  140.4320   74.6890  221.3930 C   0  0  2  0  0  0  0  0  0  0  0  0
  140.1950   73.7130  222.3400 O   0  0  0  0  0  0  0  0  0  0  0  0
  140.8250   76.0240  221.9740 C   0  0  0  0  0  0  0  0  0  0  0  0
  139.4960   76.7150  222.1590 C   0  0  1  0  0  0  0  0  0  0  0  0
  139.4130   77.9720  221.3070 C   0  0  0  0  0  0  0  0  0  0  0  0
  140.1030   79.0840  221.8880 N   0  0  0  0  0  0  0  0  0  0  0  0
  141.4730   79.1890  221.5000 C   0  0  0  0  0  0  0  0  0  0  0  0
  142.4120   79.3930  222.6610 C   0  0  0  0  0  0  0  0  0  0  0  0
  141.9450   80.4680  223.6100 C   0  0  0  0  0  0  0  0  0  0  0  0
  140.4400   80.5020  223.7530 C   0  0  0  0  0  0  0  0  0  0  0  0
  139.9360   79.1220  223.3140 C   0  0  0  0  0  0  0  0  0  0  0  0
  137.3690   71.2390  223.8420 C   0  0  0  0  0  0  0  0  0  0  0  0
  136.7800   70.0140  224.1330 C   0  0  0  0  0  0  0  0  0  0  0  0
  137.4690   69.0450  224.7970 C   0  0  0  0  0  0  0  0  0  0  0  0
  138.7650   69.3130  225.1740 C   0  0  0  0  0  0  0  0  0  0  0  0
  139.4570   68.3290  225.8450 C   0  0  0  0  0  0  0  0  0  0  0  0
  140.7510   68.5370  226.2450 C   0  0  0  0  0  0  0  0  0  0  0  0
  141.4360   67.5790  226.9040 F   0  0  0  0  0  0  0  0  0  0  0  0
  141.3300   69.7480  225.9560 C   0  0  0  0  0  0  0  0  0  0  0  0
  140.6350   70.7320  225.2840 C   0  0  0  0  0  0  0  0  0  0  0  0
  139.3180   70.5480  224.8650 C   0  0  0  0  0  0  0  0  0  0  0  0
  138.6360   71.5020  224.2100 N   0  0  0  0  0  0  0  0  0  0  0  0
  138.2520   73.5470  222.7660 H   0  0  0  0  0  0  0  0  0  0  0  0
  136.3559   74.1411  220.8422 H   0  0  0  0  0  0  0  0  0  0  0  0
  135.4061   74.4522  222.3143 H   0  0  0  0  0  0  0  0  0  0  0  0
  138.6025   74.1353  220.3347 H   0  0  0  0  0  0  0  0  0  0  0  0
  139.3259   75.5513  219.6641 H   0  0  0  0  0  0  0  0  0  0  0  0
  141.2354   74.2507  220.7827 H   0  0  0  0  0  0  0  0  0  0  0  0
  139.5710   74.0950  223.0050 H   0  0  0  0  0  0  0  0  0  0  0  0
  141.3438   75.8998  222.9360 H   0  0  0  0  0  0  0  0  0  0  0  0
  141.5226   76.5870  221.3365 H   0  0  0  0  0  0  0  0  0  0  0  0
  139.3717   76.9722  223.2212 H   0  0  0  0  0  0  0  0  0  0  0  0
  139.8559   77.7591  220.3229 H   0  0  0  0  0  0  0  0  0  0  0  0
  138.3511   78.2473  221.2264 H   0  0  0  0  0  0  0  0  0  0  0  0
  141.7593   78.2635  220.9789 H   0  0  0  0  0  0  0  0  0  0  0  0
  141.5596   80.0750  220.8539 H   0  0  0  0  0  0  0  0  0  0  0  0
  142.4954   78.4468  223.2157 H   0  0  0  0  0  0  0  0  0  0  0  0
  143.3811   79.7127  222.2503 H   0  0  0  0  0  0  0  0  0  0  0  0
  142.3890   80.2823  224.5991 H   0  0  0  0  0  0  0  0  0  0  0  0
  142.2631   81.4374  223.1988 H   0  0  0  0  0  0  0  0  0  0  0  0
  140.1609   80.6945  224.7994 H   0  0  0  0  0  0  0  0  0  0  0  0
  139.9978   81.3027  223.1420 H   0  0  0  0  0  0  0  0  0  0  0  0
  140.5286   78.3275  223.7910 H   0  0  0  0  0  0  0  0  0  0  0  0
  138.8875   78.9608  223.6049 H   0  0  0  0  0  0  0  0  0  0  0  0
  135.7419   69.8245  223.8223 H   0  0  0  0  0  0  0  0  0  0  0  0
  137.0026   68.0753  225.0255 H   0  0  0  0  0  0  0  0  0  0  0  0
  138.9668   67.3683  226.0615 H   0  0  0  0  0  0  0  0  0  0  0  0
  142.3682   69.9372  226.2664 H   0  0  0  0  0  0  0  0  0  0  0  0
  141.1341   71.6892  225.0727 H   0  0  0  0  0  0  0  0  0  0  0  0
  1  2  2  0
  2  3  1  0
  3  4  1  0
  4  5  1  0
  5  6  2  0
  5  7  1  0
  7  8  1  0
  8  9  1  0
  9 10  1  0
  9 11  1  0
 11 12  1  0
 12 13  1  0
 13 14  1  0
 14 15  1  0
 15 16  1  0
 16 17  1  0
 17 18  1  0
 18 19  1  0
  2 20  1  0
 20 21  2  0
 21 22  1  0
 22 23  2  0
 23 24  1  0
 24 25  2  0
 25 26  1  0
 25 27  1  0
 27 28  2  0
 28 29  1  0
 29 30  2  0
 12  7  1  0
 19 14  1  0
 30 20  1  0
 29 23  1  0
  3 31  1  0
  4 32  1  0
  4 33  1  0
  8 34  1  0
  8 35  1  0
  9 36  1  6
 10 37  1  0
 11 38  1  0
 11 39  1  0
 12 40  1  1
 13 41  1  0
 13 42  1  0
 15 43  1  0
 15 44  1  0
 16 45  1  0
 16 46  1  0
 17 47  1  0
 17 48  1  0
 18 49  1  0
 18 50  1  0
 19 51  1  0
 19 52  1  0
 21 53  1  0
 22 54  1  0
 24 55  1  0
 27 56  1  0
 28 57  1  0
M  END
>  <smiles>  (10) 
O=C(NCC(=O)N1C[C@H](O)C[C@H]1CN1CCCCC1)c1ccc2cc(F)ccc2n1

>  <score_type>  (10) 
oracle

>  <origin>  (10) 
autodockgpu

>  <m_score__min__energy>  (10) 
-8.3800000000000008

>  <m_primary>  (10) 
energy

>  <rmsd>  (10) 
2.90267001995792

>  <m_score__min__rmsd>  (10) 
2.90267001995792

>  <meeko>  (10) 
{"free_energy": -7.56, "intermolecular_energy": -9.65, "internal_energy": -2.5, "cluster_size": 7, "cluster_id": 2, "rank_in_cluster": 2}

>  <energy>  (10) 
-8.09

>  <cluster_rmsd>  (10) 
0.99

>  <cluster>  (10) 
1

$$$$

     RDKit          3D

 57 60  0  0  0  0  0  0  0  0999 V2000
  138.2970   72.3800  222.4490 O   0  0  0  0  0  0  0  0  0  0  0  0
  139.2930   71.5930  222.5310 C   0  0  0  0  0  0  0  0  0  0  0  0
  140.0030   71.1970  221.3480 N   0  0  0  0  0  0  0  0  0  0  0  0
  139.5510   71.7210  220.0510 C   0  0  0  0  0  0  0  0  0  0  0  0
  140.6770   72.4920  219.4760 C   0  0  0  0  0  0  0  0  0  0  0  0
  141.2660   72.1860  218.4100 O   0  0  0  0  0  0  0  0  0  0  0  0
  141.1260   73.6520  220.1620 N   0  0  0  0  0  0  0  0  0  0  0  0
  141.4700   73.7800  221.5880 C   0  0  0  0  0  0  0  0  0  0  0  0
  140.7210   75.0660  221.9020 C   0  0  2  0  0  0  0  0  0  0  0  0
  139.3600   74.8490  221.9840 O   0  0  0  0  0  0  0  0  0  0  0  0
  141.1310   75.9610  220.7600 C   0  0  0  0  0  0  0  0  0  0  0  0
  141.3530   74.9860  219.6300 C   0  0  1  0  0  0  0  0  0  0  0  0
  142.8000   75.0130  219.1640 C   0  0  0  0  0  0  0  0  0  0  0  0
  143.5700   73.9170  219.6730 N   0  0  0  0  0  0  0  0  0  0  0  0
  144.4920   74.2790  220.7010 C   0  0  0  0  0  0  0  0  0  0  0  0
  145.8810   73.7370  220.4790 C   0  0  0  0  0  0  0  0  0  0  0  0
  145.8880   72.2740  220.1180 C   0  0  0  0  0  0  0  0  0  0  0  0
  144.7050   71.8820  219.2600 C   0  0  0  0  0  0  0  0  0  0  0  0
  144.1970   73.1770  218.6140 C   0  0  0  0  0  0  0  0  0  0  0  0
  139.7340   71.0790  223.8240 C   0  0  0  0  0  0  0  0  0  0  0  0
  140.5820   71.8670  224.5930 C   0  0  0  0  0  0  0  0  0  0  0  0
  141.0260   71.4390  225.8080 C   0  0  0  0  0  0  0  0  0  0  0  0
  140.6130   70.2050  226.2520 C   0  0  0  0  0  0  0  0  0  0  0  0
  141.0650   69.7780  227.4810 C   0  0  0  0  0  0  0  0  0  0  0  0
  140.6870   68.5580  227.9770 C   0  0  0  0  0  0  0  0  0  0  0  0
  141.1260   68.1320  229.1800 F   0  0  0  0  0  0  0  0  0  0  0  0
  139.8490   67.7830  227.2150 C   0  0  0  0  0  0  0  0  0  0  0  0
  139.3970   68.2120  225.9850 C   0  0  0  0  0  0  0  0  0  0  0  0
  139.7650   69.4480  225.4550 C   0  0  0  0  0  0  0  0  0  0  0  0
  139.3290   69.8720  224.2570 N   0  0  0  0  0  0  0  0  0  0  0  0
  140.8170   70.5550  221.4110 H   0  0  0  0  0  0  0  0  0  0  0  0
  139.2817   70.8906  219.3818 H   0  0  0  0  0  0  0  0  0  0  0  0
  138.6630   72.3583  220.1744 H   0  0  0  0  0  0  0  0  0  0  0  0
  141.0969   72.9310  222.1796 H   0  0  0  0  0  0  0  0  0  0  0  0
  142.5463   73.7934  221.8145 H   0  0  0  0  0  0  0  0  0  0  0  0
  140.9604   75.5084  222.8802 H   0  0  0  0  0  0  0  0  0  0  0  0
  139.2020   74.2790  222.7760 H   0  0  0  0  0  0  0  0  0  0  0  0
  140.3340   76.6778  220.5132 H   0  0  0  0  0  0  0  0  0  0  0  0
  142.0163   76.5739  220.9849 H   0  0  0  0  0  0  0  0  0  0  0  0
  140.6844   75.2474  218.7966 H   0  0  0  0  0  0  0  0  0  0  0  0
  142.8156   74.9725  218.0649 H   0  0  0  0  0  0  0  0  0  0  0  0
  143.2526   75.9400  219.5458 H   0  0  0  0  0  0  0  0  0  0  0  0
  144.5494   75.3765  220.7469 H   0  0  0  0  0  0  0  0  0  0  0  0
  144.1195   73.8419  221.6392 H   0  0  0  0  0  0  0  0  0  0  0  0
  146.3521   74.3026  219.6616 H   0  0  0  0  0  0  0  0  0  0  0  0
  146.4335   73.8468  221.4238 H   0  0  0  0  0  0  0  0  0  0  0  0
  146.8130   72.0516  219.5659 H   0  0  0  0  0  0  0  0  0  0  0  0
  145.8266   71.6991  221.0538 H   0  0  0  0  0  0  0  0  0  0  0  0
  145.0165   71.1661  218.4851 H   0  0  0  0  0  0  0  0  0  0  0  0
  143.9192   71.3974  219.8581 H   0  0  0  0  0  0  0  0  0  0  0  0
  145.0354   73.7491  218.1900 H   0  0  0  0  0  0  0  0  0  0  0  0
  143.4972   72.9734  217.7901 H   0  0  0  0  0  0  0  0  0  0  0  0
  140.8993   72.8502  224.2154 H   0  0  0  0  0  0  0  0  0  0  0  0
  141.6963   72.0635  226.4168 H   0  0  0  0  0  0  0  0  0  0  0  0
  141.7352   70.4220  228.0694 H   0  0  0  0  0  0  0  0  0  0  0  0
  139.5316   66.8000  227.5930 H   0  0  0  0  0  0  0  0  0  0  0  0
  138.7268   67.5604  225.4052 H   0  0  0  0  0  0  0  0  0  0  0  0
  1  2  2  0
  2  3  1  0
  3  4  1  0
  4  5  1  0
  5  6  2  0
  5  7  1  0
  7  8  1  0
  8  9  1  0
  9 10  1  0
  9 11  1  0
 11 12  1  0
 12 13  1  0
 13 14  1  0
 14 15  1  0
 15 16  1  0
 16 17  1  0
 17 18  1  0
 18 19  1  0
  2 20  1  0
 20 21  2  0
 21 22  1  0
 22 23  2  0
 23 24  1  0
 24 25  2  0
 25 26  1  0
 25 27  1  0
 27 28  2  0
 28 29  1  0
 29 30  2  0
 12  7  1  0
 19 14  1  0
 30 20  1  0
 29 23  1  0
  3 31  1  0
  4 32  1  0
  4 33  1  0
  8 34  1  0
  8 35  1  0
  9 36  1  1
 10 37  1  0
 11 38  1  0
 11 39  1  0
 12 40  1  6
 13 41  1  0
 13 42  1  0
 15 43  1  0
 15 44  1  0
 16 45  1  0
 16 46  1  0
 17 47  1  0
 17 48  1  0
 18 49  1  0
 18 50  1  0
 19 51  1  0
 19 52  1  0
 21 53  1  0
 22 54  1  0
 24 55  1  0
 27 56  1  0
 28 57  1  0
M  END
>  <smiles>  (11) 
O=C(NCC(=O)N1C[C@H](O)C[C@H]1CN1CCCCC1)c1ccc2cc(F)ccc2n1

>  <score_type>  (11) 
oracle

>  <origin>  (11) 
autodockgpu

>  <m_score__min__energy>  (11) 
-8.3800000000000008

>  <m_primary>  (11) 
energy

>  <rmsd>  (11) 
5.1542942562177805

>  <m_score__min__rmsd>  (11) 
5.1542942562177805

>  <meeko>  (11) 
{"free_energy": -6.82, "intermolecular_energy": -8.91, "internal_energy": -2.46, "cluster_size": 3, "cluster_id": 3, "rank_in_cluster": 3}

>  <energy>  (11) 
-8.04

>  <cluster_rmsd>  (11) 
1.16

>  <cluster>  (11) 
1

$$$$

     RDKit          3D

 57 60  0  0  0  0  0  0  0  0999 V2000
  138.1870   75.2000  222.1610 O   0  0  0  0  0  0  0  0  0  0  0  0
  139.3740   75.6190  221.9730 C   0  0  0  0  0  0  0  0  0  0  0  0
  140.3320   74.7970  221.2870 N   0  0  0  0  0  0  0  0  0  0  0  0
  139.9080   73.4720  220.8140 C   0  0  0  0  0  0  0  0  0  0  0  0
  140.3200   72.4890  221.8420 C   0  0  0  0  0  0  0  0  0  0  0  0
  141.5140   72.2640  222.1600 O   0  0  0  0  0  0  0  0  0  0  0  0
  139.3110   71.7500  222.5180 N   0  0  0  0  0  0  0  0  0  0  0  0
  138.1630   71.0430  221.9270 C   0  0  0  0  0  0  0  0  0  0  0  0
  137.0700   71.5350  222.8640 C   0  0  2  0  0  0  0  0  0  0  0  0
  136.7300   72.8460  222.5970 O   0  0  0  0  0  0  0  0  0  0  0  0
  137.6960   71.3270  224.2200 C   0  0  0  0  0  0  0  0  0  0  0  0
  139.1680   71.5130  223.9440 C   0  0  1  0  0  0  0  0  0  0  0  0
  139.9420   70.2380  224.2400 C   0  0  0  0  0  0  0  0  0  0  0  0
  139.7480   69.7670  225.5790 N   0  0  0  0  0  0  0  0  0  0  0  0
  140.1790   70.6810  226.5880 C   0  0  0  0  0  0  0  0  0  0  0  0
  141.0430   70.0430  227.6460 C   0  0  0  0  0  0  0  0  0  0  0  0
  140.4670   68.7540  228.1730 C   0  0  0  0  0  0  0  0  0  0  0  0
  139.7520   67.9570  227.1040 C   0  0  0  0  0  0  0  0  0  0  0  0
  140.3000   68.4540  225.7610 C   0  0  0  0  0  0  0  0  0  0  0  0
  139.7850   76.9370  222.4460 C   0  0  0  0  0  0  0  0  0  0  0  0
  138.8140   77.7810  222.9730 C   0  0  0  0  0  0  0  0  0  0  0  0
  139.1390   79.0220  223.4300 C   0  0  0  0  0  0  0  0  0  0  0  0
  140.4540   79.4170  223.3550 C   0  0  0  0  0  0  0  0  0  0  0  0
  140.7770   80.6740  223.8200 C   0  0  0  0  0  0  0  0  0  0  0  0
  142.0700   81.1230  223.7730 C   0  0  0  0  0  0  0  0  0  0  0  0
  142.3930   82.3530  224.2250 F   0  0  0  0  0  0  0  0  0  0  0  0
  143.0260   80.2870  223.2520 C   0  0  0  0  0  0  0  0  0  0  0  0
  142.7010   79.0300  222.7880 C   0  0  0  0  0  0  0  0  0  0  0  0
  141.3940   78.5460  222.8230 C   0  0  0  0  0  0  0  0  0  0  0  0
  141.0720   77.3220  222.3720 N   0  0  0  0  0  0  0  0  0  0  0  0
  141.3010   75.1370  221.1310 H   0  0  0  0  0  0  0  0  0  0  0  0
  138.8157   73.4489  220.6865 H   0  0  0  0  0  0  0  0  0  0  0  0
  140.3680   73.2380  219.8426 H   0  0  0  0  0  0  0  0  0  0  0  0
  137.9820   71.3489  220.8860 H   0  0  0  0  0  0  0  0  0  0  0  0
  138.2671   69.9503  221.8553 H   0  0  0  0  0  0  0  0  0  0  0  0
  136.1101   71.0066  222.7667 H   0  0  0  0  0  0  0  0  0  0  0  0
  137.3660   73.4200  223.0910 H   0  0  0  0  0  0  0  0  0  0  0  0
  137.3316   72.0721  224.9426 H   0  0  0  0  0  0  0  0  0  0  0  0
  137.4574   70.3489  224.6632 H   0  0  0  0  0  0  0  0  0  0  0  0
  139.5474   72.3364  224.5669 H   0  0  0  0  0  0  0  0  0  0  0  0
  139.6106   69.4558  223.5412 H   0  0  0  0  0  0  0  0  0  0  0  0
  141.0116   70.4658  224.1216 H   0  0  0  0  0  0  0  0  0  0  0  0
  140.7545   71.4854  226.1066 H   0  0  0  0  0  0  0  0  0  0  0  0
  139.2762   71.0582  227.0907 H   0  0  0  0  0  0  0  0  0  0  0  0
  142.0323   69.8344  227.2127 H   0  0  0  0  0  0  0  0  0  0  0  0
  141.1062   70.7462  228.4895 H   0  0  0  0  0  0  0  0  0  0  0  0
  141.2858   68.1425  228.5801 H   0  0  0  0  0  0  0  0  0  0  0  0
  139.7290   69.0105  228.9473 H   0  0  0  0  0  0  0  0  0  0  0  0
  139.9588   66.8836  227.2264 H   0  0  0  0  0  0  0  0  0  0  0  0
  138.6619   68.0908  227.1662 H   0  0  0  0  0  0  0  0  0  0  0  0
  141.3987   68.5001  225.7883 H   0  0  0  0  0  0  0  0  0  0  0  0
  140.0261   67.7801  224.9359 H   0  0  0  0  0  0  0  0  0  0  0  0
  137.7688   77.4417  223.0215 H   0  0  0  0  0  0  0  0  0  0  0  0
  138.3710   79.6898  223.8475 H   0  0  0  0  0  0  0  0  0  0  0  0
  139.9894   81.3219  224.2323 H   0  0  0  0  0  0  0  0  0  0  0  0
  144.0712   80.6264  223.2038 H   0  0  0  0  0  0  0  0  0  0  0  0
  143.4964   78.3902  222.3781 H   0  0  0  0  0  0  0  0  0  0  0  0
  1  2  2  0
  2  3  1  0
  3  4  1  0
  4  5  1  0
  5  6  2  0
  5  7  1  0
  7  8  1  0
  8  9  1  0
  9 10  1  0
  9 11  1  0
 11 12  1  0
 12 13  1  0
 13 14  1  0
 14 15  1  0
 15 16  1  0
 16 17  1  0
 17 18  1  0
 18 19  1  0
  2 20  1  0
 20 21  2  0
 21 22  1  0
 22 23  2  0
 23 24  1  0
 24 25  2  0
 25 26  1  0
 25 27  1  0
 27 28  2  0
 28 29  1  0
 29 30  2  0
 12  7  1  0
 19 14  1  0
 30 20  1  0
 29 23  1  0
  3 31  1  0
  4 32  1  0
  4 33  1  0
  8 34  1  0
  8 35  1  0
  9 36  1  1
 10 37  1  0
 11 38  1  0
 11 39  1  0
 12 40  1  1
 13 41  1  0
 13 42  1  0
 15 43  1  0
 15 44  1  0
 16 45  1  0
 16 46  1  0
 17 47  1  0
 17 48  1  0
 18 49  1  0
 18 50  1  0
 19 51  1  0
 19 52  1  0
 21 53  1  0
 22 54  1  0
 24 55  1  0
 27 56  1  0
 28 57  1  0
M  END
>  <smiles>  (12) 
O=C(NCC(=O)N1C[C@H](O)C[C@H]1CN1CCCCC1)c1ccc2cc(F)ccc2n1

>  <score_type>  (12) 
oracle

>  <origin>  (12) 
autodockgpu

>  <m_score__min__energy>  (12) 
-8.3800000000000008

>  <m_primary>  (12) 
energy

>  <rmsd>  (12) 
9.571319941929483

>  <m_score__min__rmsd>  (12) 
9.571319941929483

>  <meeko>  (12) 
{"free_energy": -7.45, "intermolecular_energy": -9.54, "internal_energy": -2.42, "cluster_size": 3, "cluster_id": 4, "rank_in_cluster": 1}

>  <energy>  (12) 
-8.02

>  <cluster_rmsd>  (12) 
1.76

>  <cluster>  (12) 
1

$$$$

     RDKit          3D

 57 60  0  0  0  0  0  0  0  0999 V2000
  140.1950   71.6610  220.9900 O   0  0  0  0  0  0  0  0  0  0  0  0
  139.9930   72.2070  222.1210 C   0  0  0  0  0  0  0  0  0  0  0  0
  139.7880   73.6250  222.2140 N   0  0  0  0  0  0  0  0  0  0  0  0
  139.8190   74.4200  220.9790 C   0  0  0  0  0  0  0  0  0  0  0  0
  140.6480   75.6170  221.2510 C   0  0  0  0  0  0  0  0  0  0  0  0
  140.9990   75.9830  222.4000 O   0  0  0  0  0  0  0  0  0  0  0  0
  141.0800   76.4080  220.1510 N   0  0  0  0  0  0  0  0  0  0  0  0
  140.9660   77.8670  219.9890 C   0  0  0  0  0  0  0  0  0  0  0  0
  140.4350   77.9100  218.5640 C   0  0  2  0  0  0  0  0  0  0  0  0
  139.1060   77.5400  218.5100 O   0  0  0  0  0  0  0  0  0  0  0  0
  141.3650   76.9620  217.8500 C   0  0  0  0  0  0  0  0  0  0  0  0
  141.7340   75.9740  218.9280 C   0  0  1  0  0  0  0  0  0  0  0  0
  143.2270   76.0100  219.2120 C   0  0  0  0  0  0  0  0  0  0  0  0
  143.8030   74.7040  219.3330 N   0  0  0  0  0  0  0  0  0  0  0  0
  142.8460   73.6460  219.3760 C   0  0  0  0  0  0  0  0  0  0  0  0
  143.0830   72.6680  220.4980 C   0  0  0  0  0  0  0  0  0  0  0  0
  144.5190   72.2180  220.5900 C   0  0  0  0  0  0  0  0  0  0  0  0
  145.4950   73.3190  220.2380 C   0  0  0  0  0  0  0  0  0  0  0  0
  144.7370   74.6390  220.4220 C   0  0  0  0  0  0  0  0  0  0  0  0
  139.9640   71.4080  223.3420 C   0  0  0  0  0  0  0  0  0  0  0  0
  139.4270   70.1280  223.2800 C   0  0  0  0  0  0  0  0  0  0  0  0
  139.3730   69.3360  224.3880 C   0  0  0  0  0  0  0  0  0  0  0  0
  139.8640   69.8400  225.5690 C   0  0  0  0  0  0  0  0  0  0  0  0
  139.8080   69.0350  226.6860 C   0  0  0  0  0  0  0  0  0  0  0  0
  140.2820   69.4810  227.8910 C   0  0  0  0  0  0  0  0  0  0  0  0
  140.2290   68.6990  228.9900 F   0  0  0  0  0  0  0  0  0  0  0  0
  140.8110   70.7460  227.9490 C   0  0  0  0  0  0  0  0  0  0  0  0
  140.8670   71.5510  226.8300 C   0  0  0  0  0  0  0  0  0  0  0  0
  140.3920   71.1240  225.5910 C   0  0  0  0  0  0  0  0  0  0  0  0
  140.4440   71.9020  224.4970 N   0  0  0  0  0  0  0  0  0  0  0  0
  139.6220   74.0740  223.1360 H   0  0  0  0  0  0  0  0  0  0  0  0
  140.2629   73.8314  220.1626 H   0  0  0  0  0  0  0  0  0  0  0  0
  138.8023   74.7093  220.6745 H   0  0  0  0  0  0  0  0  0  0  0  0
  140.2575   78.3071  220.7062 H   0  0  0  0  0  0  0  0  0  0  0  0
  141.8911   78.4353  220.1655 H   0  0  0  0  0  0  0  0  0  0  0  0
  140.4315   78.9099  218.1056 H   0  0  0  0  0  0  0  0  0  0  0  0
  138.9010   77.0590  219.3500 H   0  0  0  0  0  0  0  0  0  0  0  0
  140.8546   76.4623  217.0134 H   0  0  0  0  0  0  0  0  0  0  0  0
  142.2367   77.4631  217.4040 H   0  0  0  0  0  0  0  0  0  0  0  0
  141.4374   74.9654  218.6044 H   0  0  0  0  0  0  0  0  0  0  0  0
  143.7283   76.5398  218.3886 H   0  0  0  0  0  0  0  0  0  0  0  0
  143.3677   76.5233  220.1747 H   0  0  0  0  0  0  0  0  0  0  0  0
  141.8458   74.0859  219.5027 H   0  0  0  0  0  0  0  0  0  0  0  0
  142.9387   73.0866  218.4334 H   0  0  0  0  0  0  0  0  0  0  0  0
  142.8042   73.1486  221.4474 H   0  0  0  0  0  0  0  0  0  0  0  0
  142.4702   71.7774  220.2948 H   0  0  0  0  0  0  0  0  0  0  0  0
  144.7190   71.8850  221.6191 H   0  0  0  0  0  0  0  0  0  0  0  0
  144.6605   71.4020  219.8661 H   0  0  0  0  0  0  0  0  0  0  0  0
  146.3670   73.2837  220.9076 H   0  0  0  0  0  0  0  0  0  0  0  0
  145.8664   73.2107  219.2083 H   0  0  0  0  0  0  0  0  0  0  0  0
  144.2050   74.6451  221.3848 H   0  0  0  0  0  0  0  0  0  0  0  0
  145.4186   75.5023  220.4252 H   0  0  0  0  0  0  0  0  0  0  0  0
  139.0399   69.7483  222.3229 H   0  0  0  0  0  0  0  0  0  0  0  0
  138.9486   68.3224  224.3386 H   0  0  0  0  0  0  0  0  0  0  0  0
  139.3787   68.0251  226.6091 H   0  0  0  0  0  0  0  0  0  0  0  0
  141.1979   71.1254  228.9063 H   0  0  0  0  0  0  0  0  0  0  0  0
  141.2989   72.5588  226.9181 H   0  0  0  0  0  0  0  0  0  0  0  0
  1  2  2  0
  2  3  1  0
  3  4  1  0
  4  5  1  0
  5  6  2  0
  5  7  1  0
  7  8  1  0
  8  9  1  0
  9 10  1  0
  9 11  1  0
 11 12  1  0
 12 13  1  0
 13 14  1  0
 14 15  1  0
 15 16  1  0
 16 17  1  0
 17 18  1  0
 18 19  1  0
  2 20  1  0
 20 21  2  0
 21 22  1  0
 22 23  2  0
 23 24  1  0
 24 25  2  0
 25 26  1  0
 25 27  1  0
 27 28  2  0
 28 29  1  0
 29 30  2  0
 12  7  1  0
 19 14  1  0
 30 20  1  0
 29 23  1  0
  3 31  1  0
  4 32  1  0
  4 33  1  0
  8 34  1  0
  8 35  1  0
  9 36  1  6
 10 37  1  0
 11 38  1  0
 11 39  1  0
 12 40  1  6
 13 41  1  0
 13 42  1  0
 15 43  1  0
 15 44  1  0
 16 45  1  0
 16 46  1  0
 17 47  1  0
 17 48  1  0
 18 49  1  0
 18 50  1  0
 19 51  1  0
 19 52  1  0
 21 53  1  0
 22 54  1  0
 24 55  1  0
 27 56  1  0
 28 57  1  0
M  END
>  <smiles>  (13) 
O=C(NCC(=O)N1C[C@H](O)C[C@H]1CN1CCCCC1)c1ccc2cc(F)ccc2n1

>  <score_type>  (13) 
oracle

>  <origin>  (13) 
autodockgpu

>  <m_score__min__energy>  (13) 
-8.3800000000000008

>  <m_primary>  (13) 
energy

>  <rmsd>  (13) 
4.26934824845499

>  <m_score__min__rmsd>  (13) 
4.26934824845499

>  <meeko>  (13) 
{"free_energy": -6.94, "intermolecular_energy": -9.03, "internal_energy": -2.3, "cluster_size": 3, "cluster_id": 3, "rank_in_cluster": 2}

>  <energy>  (13) 
-7.98

>  <cluster_rmsd>  (13) 
0.79

>  <cluster>  (13) 
1

$$$$

     RDKit          3D

 57 60  0  0  0  0  0  0  0  0999 V2000
  139.4860   70.9170  221.3920 O   0  0  0  0  0  0  0  0  0  0  0  0
  139.6020   71.5000  222.5170 C   0  0  0  0  0  0  0  0  0  0  0  0
  139.6330   72.9340  222.5910 N   0  0  0  0  0  0  0  0  0  0  0  0
  139.5290   73.7020  221.3420 C   0  0  0  0  0  0  0  0  0  0  0  0
  139.9550   75.0870  221.6460 C   0  0  0  0  0  0  0  0  0  0  0  0
  139.6860   75.6870  222.7160 O   0  0  0  0  0  0  0  0  0  0  0  0
  140.7150   75.7930  220.6740 N   0  0  0  0  0  0  0  0  0  0  0  0
  140.9060   75.4490  219.2550 C   0  0  0  0  0  0  0  0  0  0  0  0
  142.4120   75.6410  219.1620 C   0  0  2  0  0  0  0  0  0  0  0  0
  143.0910   74.6050  219.7710 O   0  0  0  0  0  0  0  0  0  0  0  0
  142.6040   76.9780  219.8310 C   0  0  0  0  0  0  0  0  0  0  0  0
  141.4840   77.0150  220.8410 C   0  0  1  0  0  0  0  0  0  0  0  0
  140.5260   78.1590  220.5490 C   0  0  0  0  0  0  0  0  0  0  0  0
  140.6300   79.2270  221.4970 N   0  0  0  0  0  0  0  0  0  0  0  0
  141.7060   80.1300  221.2440 C   0  0  0  0  0  0  0  0  0  0  0  0
  142.5470   80.4180  222.4610 C   0  0  0  0  0  0  0  0  0  0  0  0
  141.7220   80.7520  223.6780 C   0  0  0  0  0  0  0  0  0  0  0  0
  140.4310   79.9660  223.7370 C   0  0  0  0  0  0  0  0  0  0  0  0
  140.6370   78.7350  222.8470 C   0  0  0  0  0  0  0  0  0  0  0  0
  139.7040   70.7280  223.7510 C   0  0  0  0  0  0  0  0  0  0  0  0
  139.2070   69.4300  223.7600 C   0  0  0  0  0  0  0  0  0  0  0  0
  139.2740   68.6610  224.8840 C   0  0  0  0  0  0  0  0  0  0  0  0
  139.8470   69.2070  226.0090 C   0  0  0  0  0  0  0  0  0  0  0  0
  139.9130   68.4250  227.1410 C   0  0  0  0  0  0  0  0  0  0  0  0
  140.4730   68.9130  228.2930 C   0  0  0  0  0  0  0  0  0  0  0  0
  140.5410   68.1530  229.4070 F   0  0  0  0  0  0  0  0  0  0  0  0
  140.9630   70.1950  228.2800 C   0  0  0  0  0  0  0  0  0  0  0  0
  140.8960   70.9760  227.1450 C   0  0  0  0  0  0  0  0  0  0  0  0
  140.3320   70.5070  225.9600 C   0  0  0  0  0  0  0  0  0  0  0  0
  140.2640   71.2620  224.8510 N   0  0  0  0  0  0  0  0  0  0  0  0
  139.7270   73.4120  223.5070 H   0  0  0  0  0  0  0  0  0  0  0  0
  140.1851   73.2652  220.5747 H   0  0  0  0  0  0  0  0  0  0  0  0
  138.4990   73.6849  220.9564 H   0  0  0  0  0  0  0  0  0  0  0  0
  140.6086   74.4123  219.0386 H   0  0  0  0  0  0  0  0  0  0  0  0
  140.3100   76.0375  218.5420 H   0  0  0  0  0  0  0  0  0  0  0  0
  142.8133   75.6299  218.1379 H   0  0  0  0  0  0  0  0  0  0  0  0
  143.2810   74.8860  220.7010 H   0  0  0  0  0  0  0  0  0  0  0  0
  143.5848   77.0355  220.3257 H   0  0  0  0  0  0  0  0  0  0  0  0
  142.5812   77.8227  219.1268 H   0  0  0  0  0  0  0  0  0  0  0  0
  141.9134   77.1313  221.8470 H   0  0  0  0  0  0  0  0  0  0  0  0
  140.7477   78.5557  219.5473 H   0  0  0  0  0  0  0  0  0  0  0  0
  139.5035   77.7585  220.6129 H   0  0  0  0  0  0  0  0  0  0  0  0
  142.3528   79.6927  220.4692 H   0  0  0  0  0  0  0  0  0  0  0  0
  141.2602   81.0838  220.9253 H   0  0  0  0  0  0  0  0  0  0  0  0
  143.1578   79.5307  222.6836 H   0  0  0  0  0  0  0  0  0  0  0  0
  143.1690   81.2960  222.2325 H   0  0  0  0  0  0  0  0  0  0  0  0
  142.3135   80.5267  224.5777 H   0  0  0  0  0  0  0  0  0  0  0  0
  141.4610   81.8191  223.6219 H   0  0  0  0  0  0  0  0  0  0  0  0
  140.2198   79.6573  224.7714 H   0  0  0  0  0  0  0  0  0  0  0  0
  139.5785   80.5702  223.3933 H   0  0  0  0  0  0  0  0  0  0  0  0
  141.5993   78.2534  223.0749 H   0  0  0  0  0  0  0  0  0  0  0  0
  139.8529   77.9807  223.0088 H   0  0  0  0  0  0  0  0  0  0  0  0
  138.7530   69.0171  222.8471 H   0  0  0  0  0  0  0  0  0  0  0  0
  138.8811   67.6336  224.8909 H   0  0  0  0  0  0  0  0  0  0  0  0
  139.5130   67.4005  227.1204 H   0  0  0  0  0  0  0  0  0  0  0  0
  141.4180   70.6077  229.1925 H   0  0  0  0  0  0  0  0  0  0  0  0
  141.2995   71.9988  227.1761 H   0  0  0  0  0  0  0  0  0  0  0  0
  1  2  2  0
  2  3  1  0
  3  4  1  0
  4  5  1  0
  5  6  2  0
  5  7  1  0
  7  8  1  0
  8  9  1  0
  9 10  1  0
  9 11  1  0
 11 12  1  0
 12 13  1  0
 13 14  1  0
 14 15  1  0
 15 16  1  0
 16 17  1  0
 17 18  1  0
 18 19  1  0
  2 20  1  0
 20 21  2  0
 21 22  1  0
 22 23  2  0
 23 24  1  0
 24 25  2  0
 25 26  1  0
 25 27  1  0
 27 28  2  0
 28 29  1  0
 29 30  2  0
 12  7  1  0
 19 14  1  0
 30 20  1  0
 29 23  1  0
  3 31  1  0
  4 32  1  0
  4 33  1  0
  8 34  1  0
  8 35  1  0
  9 36  1  6
 10 37  1  0
 11 38  1  0
 11 39  1  0
 12 40  1  1
 13 41  1  0
 13 42  1  0
 15 43  1  0
 15 44  1  0
 16 45  1  0
 16 46  1  0
 17 47  1  0
 17 48  1  0
 18 49  1  0
 18 50  1  0
 19 51  1  0
 19 52  1  0
 21 53  1  0
 22 54  1  0
 24 55  1  0
 27 56  1  0
 28 57  1  0
M  END
>  <smiles>  (14) 
O=C(NCC(=O)N1C[C@H](O)C[C@H]1CN1CCCCC1)c1ccc2cc(F)ccc2n1

>  <score_type>  (14) 
oracle

>  <origin>  (14) 
autodockgpu

>  <m_score__min__energy>  (14) 
-8.3800000000000008

>  <m_primary>  (14) 
energy

>  <rmsd>  (14) 
2.1702639607204928

>  <m_score__min__rmsd>  (14) 
2.1702639607204928

>  <meeko>  (14) 
{"free_energy": -8.04, "intermolecular_energy": -10.13, "internal_energy": -1.91, "cluster_size": 33, "cluster_id": 1, "rank_in_cluster": 11}

>  <energy>  (14) 
-7.93

>  <cluster_rmsd>  (14) 
1.31

>  <cluster>  (14) 
1

$$$$

     RDKit          3D

 57 60  0  0  0  0  0  0  0  0999 V2000
  140.1750   70.9150  221.3660 O   0  0  0  0  0  0  0  0  0  0  0  0
  139.9640   71.4930  222.4800 C   0  0  0  0  0  0  0  0  0  0  0  0
  139.7410   72.9100  222.5300 N   0  0  0  0  0  0  0  0  0  0  0  0
  139.7630   73.6680  221.2710 C   0  0  0  0  0  0  0  0  0  0  0  0
  139.9070   75.0990  221.6260 C   0  0  0  0  0  0  0  0  0  0  0  0
  139.5430   75.5920  222.7220 O   0  0  0  0  0  0  0  0  0  0  0  0
  140.4940   75.9780  220.6750 N   0  0  0  0  0  0  0  0  0  0  0  0
  140.2930   75.9940  219.2170 C   0  0  0  0  0  0  0  0  0  0  0  0
  141.7440   76.1080  218.7760 C   0  0  2  0  0  0  0  0  0  0  0  0
  142.4150   74.9110  218.9300 O   0  0  0  0  0  0  0  0  0  0  0  0
  142.2580   77.2180  219.6580 C   0  0  0  0  0  0  0  0  0  0  0  0
  141.4270   77.0680  220.9080 C   0  0  1  0  0  0  0  0  0  0  0  0
  140.5790   78.3060  221.1490 C   0  0  0  0  0  0  0  0  0  0  0  0
  141.3330   79.4020  221.6810 N   0  0  0  0  0  0  0  0  0  0  0  0
  142.2730   79.0300  222.6880 C   0  0  0  0  0  0  0  0  0  0  0  0
  142.2040   79.8930  223.9220 C   0  0  0  0  0  0  0  0  0  0  0  0
  142.1750   81.3660  223.6060 C   0  0  0  0  0  0  0  0  0  0  0  0
  141.4020   81.6740  222.3420 C   0  0  0  0  0  0  0  0  0  0  0  0
  140.4760   80.4740  222.1040 C   0  0  0  0  0  0  0  0  0  0  0  0
  139.9440   70.7310  223.7250 C   0  0  0  0  0  0  0  0  0  0  0  0
  139.3270   69.4850  223.7250 C   0  0  0  0  0  0  0  0  0  0  0  0
  139.2780   68.7290  224.8580 C   0  0  0  0  0  0  0  0  0  0  0  0
  139.8530   69.2340  226.0000 C   0  0  0  0  0  0  0  0  0  0  0  0
  139.8000   68.4640  227.1420 C   0  0  0  0  0  0  0  0  0  0  0  0
  140.3560   68.9130  228.3110 C   0  0  0  0  0  0  0  0  0  0  0  0
  140.3070   68.1660  229.4340 F   0  0  0  0  0  0  0  0  0  0  0  0
  140.9630   70.1440  228.3070 C   0  0  0  0  0  0  0  0  0  0  0  0
  141.0160   70.9120  227.1630 C   0  0  0  0  0  0  0  0  0  0  0  0
  140.4590   70.4820  225.9600 C   0  0  0  0  0  0  0  0  0  0  0  0
  140.5070   71.2260  224.8420 N   0  0  0  0  0  0  0  0  0  0  0  0
  139.5670   73.3850  223.4370 H   0  0  0  0  0  0  0  0  0  0  0  0
  140.6128   73.3457  220.6514 H   0  0  0  0  0  0  0  0  0  0  0  0
  138.8408   73.4984  220.6959 H   0  0  0  0  0  0  0  0  0  0  0  0
  139.8240   75.0670  218.8554 H   0  0  0  0  0  0  0  0  0  0  0  0
  139.6220   76.7805  218.8413 H   0  0  0  0  0  0  0  0  0  0  0  0
  141.8819   76.3309  217.7077 H   0  0  0  0  0  0  0  0  0  0  0  0
  142.0910   74.3010  218.2230 H   0  0  0  0  0  0  0  0  0  0  0  0
  143.3281   77.0867  219.8762 H   0  0  0  0  0  0  0  0  0  0  0  0
  142.1734   78.2132  219.1972 H   0  0  0  0  0  0  0  0  0  0  0  0
  142.0963   76.8987  221.7644 H   0  0  0  0  0  0  0  0  0  0  0  0
  140.1330   78.6177  220.1930 H   0  0  0  0  0  0  0  0  0  0  0  0
  139.8114   78.0416  221.8912 H   0  0  0  0  0  0  0  0  0  0  0  0
  142.0763   77.9879  222.9803 H   0  0  0  0  0  0  0  0  0  0  0  0
  143.2770   79.1597  222.2577 H   0  0  0  0  0  0  0  0  0  0  0  0
  141.2916   79.6356  224.4798 H   0  0  0  0  0  0  0  0  0  0  0  0
  143.1123   79.6995  224.5116 H   0  0  0  0  0  0  0  0  0  0  0  0
  141.7035   81.8974  224.4458 H   0  0  0  0  0  0  0  0  0  0  0  0
  143.2133   81.6943  223.4504 H   0  0  0  0  0  0  0  0  0  0  0  0
  140.8106   82.5925  222.4709 H   0  0  0  0  0  0  0  0  0  0  0  0
  142.0769   81.8353  221.4884 H   0  0  0  0  0  0  0  0  0  0  0  0
  139.9523   80.2032  223.0326 H   0  0  0  0  0  0  0  0  0  0  0  0
  139.7043   80.6984  221.3529 H   0  0  0  0  0  0  0  0  0  0  0  0
  138.8724   69.1044  222.7984 H   0  0  0  0  0  0  0  0  0  0  0  0
  138.7919   67.7422  224.8586 H   0  0  0  0  0  0  0  0  0  0  0  0
  139.3073   67.4809  227.1146 H   0  0  0  0  0  0  0  0  0  0  0  0
  141.4158   70.5252  229.2342 H   0  0  0  0  0  0  0  0  0  0  0  0
  141.5125   71.8928  227.2010 H   0  0  0  0  0  0  0  0  0  0  0  0
  1  2  2  0
  2  3  1  0
  3  4  1  0
  4  5  1  0
  5  6  2  0
  5  7  1  0
  7  8  1  0
  8  9  1  0
  9 10  1  0
  9 11  1  0
 11 12  1  0
 12 13  1  0
 13 14  1  0
 14 15  1  0
 15 16  1  0
 16 17  1  0
 17 18  1  0
 18 19  1  0
  2 20  1  0
 20 21  2  0
 21 22  1  0
 22 23  2  0
 23 24  1  0
 24 25  2  0
 25 26  1  0
 25 27  1  0
 27 28  2  0
 28 29  1  0
 29 30  2  0
 12  7  1  0
 19 14  1  0
 30 20  1  0
 29 23  1  0
  3 31  1  0
  4 32  1  0
  4 33  1  0
  8 34  1  0
  8 35  1  0
  9 36  1  6
 10 37  1  0
 11 38  1  0
 11 39  1  0
 12 40  1  1
 13 41  1  0
 13 42  1  0
 15 43  1  0
 15 44  1  0
 16 45  1  0
 16 46  1  0
 17 47  1  0
 17 48  1  0
 18 49  1  0
 18 50  1  0
 19 51  1  0
 19 52  1  0
 21 53  1  0
 22 54  1  0
 24 55  1  0
 27 56  1  0
 28 57  1  0
M  END
>  <smiles>  (15) 
O=C(NCC(=O)N1C[C@H](O)C[C@H]1CN1CCCCC1)c1ccc2cc(F)ccc2n1

>  <score_type>  (15) 
oracle

>  <origin>  (15) 
autodockgpu

>  <m_score__min__energy>  (15) 
-8.3800000000000008

>  <m_primary>  (15) 
energy

>  <rmsd>  (15) 
1.7752593251397355

>  <m_score__min__rmsd>  (15) 
1.7752593251397355

>  <meeko>  (15) 
{"free_energy": -7.92, "intermolecular_energy": -10.01, "internal_energy": -1.79, "cluster_size": 33, "cluster_id": 1, "rank_in_cluster": 15}

>  <energy>  (15) 
-7.92

>  <cluster_rmsd>  (15) 
1.19

>  <cluster>  (15) 
1

$$$$

     RDKit          3D

 57 60  0  0  0  0  0  0  0  0999 V2000
  140.0350   70.9180  221.3080 O   0  0  0  0  0  0  0  0  0  0  0  0
  139.9200   71.5000  222.4330 C   0  0  0  0  0  0  0  0  0  0  0  0
  139.7870   72.9280  222.4990 N   0  0  0  0  0  0  0  0  0  0  0  0
  139.7880   73.6910  221.2430 C   0  0  0  0  0  0  0  0  0  0  0  0
  140.1410   75.0890  221.5820 C   0  0  0  0  0  0  0  0  0  0  0  0
  139.8880   75.6300  222.6870 O   0  0  0  0  0  0  0  0  0  0  0  0
  140.8090   75.8760  220.6050 N   0  0  0  0  0  0  0  0  0  0  0  0
  140.8850   75.6390  219.1540 C   0  0  0  0  0  0  0  0  0  0  0  0
  142.3750   75.8650  218.9510 C   0  0  2  0  0  0  0  0  0  0  0  0
  143.1160   74.8000  219.4250 O   0  0  0  0  0  0  0  0  0  0  0  0
  142.6070   77.1540  219.6980 C   0  0  0  0  0  0  0  0  0  0  0  0
  141.5740   77.0970  220.7970 C   0  0  1  0  0  0  0  0  0  0  0  0
  140.5810   78.2420  220.6700 C   0  0  0  0  0  0  0  0  0  0  0  0
  140.8260   79.2970  221.6070 N   0  0  0  0  0  0  0  0  0  0  0  0
  142.0670   79.9750  221.4110 C   0  0  0  0  0  0  0  0  0  0  0  0
  142.8700   80.1330  222.6770 C   0  0  0  0  0  0  0  0  0  0  0  0
  142.0490   80.6490  223.8310 C   0  0  0  0  0  0  0  0  0  0  0  0
  140.6320   80.1210  223.8170 C   0  0  0  0  0  0  0  0  0  0  0  0
  140.6560   78.8490  222.9610 C   0  0  0  0  0  0  0  0  0  0  0  0
  139.9200   70.7330  223.6750 C   0  0  0  0  0  0  0  0  0  0  0  0
  139.3270   69.4760  223.6740 C   0  0  0  0  0  0  0  0  0  0  0  0
  139.2970   68.7150  224.8040 C   0  0  0  0  0  0  0  0  0  0  0  0
  139.8690   69.2260  225.9450 C   0  0  0  0  0  0  0  0  0  0  0  0
  139.8360   68.4510  227.0840 C   0  0  0  0  0  0  0  0  0  0  0  0
  140.3900   68.9060  228.2520 C   0  0  0  0  0  0  0  0  0  0  0  0
  140.3610   68.1530  229.3720 F   0  0  0  0  0  0  0  0  0  0  0  0
  140.9750   70.1470  228.2490 C   0  0  0  0  0  0  0  0  0  0  0  0
  141.0070   70.9210  227.1080 C   0  0  0  0  0  0  0  0  0  0  0  0
  140.4520   70.4850  225.9060 C   0  0  0  0  0  0  0  0  0  0  0  0
  140.4800   71.2340  224.7910 N   0  0  0  0  0  0  0  0  0  0  0  0
  139.6920   73.4070  223.4160 H   0  0  0  0  0  0  0  0  0  0  0  0
  140.5307   73.2724  220.5480 H   0  0  0  0  0  0  0  0  0  0  0  0
  138.8030   73.6435  220.7556 H   0  0  0  0  0  0  0  0  0  0  0  0
  140.5834   74.6153  218.8874 H   0  0  0  0  0  0  0  0  0  0  0  0
  140.2241   76.2665  218.5380 H   0  0  0  0  0  0  0  0  0  0  0  0
  142.6884   75.9350  217.8989 H   0  0  0  0  0  0  0  0  0  0  0  0
  144.0450   74.9280  219.1130 H   0  0  0  0  0  0  0  0  0  0  0  0
  143.6249   77.1932  220.1132 H   0  0  0  0  0  0  0  0  0  0  0  0
  142.5162   78.0471  219.0622 H   0  0  0  0  0  0  0  0  0  0  0  0
  142.0842   77.1479  221.7702 H   0  0  0  0  0  0  0  0  0  0  0  0
  140.6479   78.6537  219.6521 H   0  0  0  0  0  0  0  0  0  0  0  0
  139.5805   77.8371  220.8821 H   0  0  0  0  0  0  0  0  0  0  0  0
  142.6662   79.4030  220.6873 H   0  0  0  0  0  0  0  0  0  0  0  0
  141.8305   80.9862  221.0484 H   0  0  0  0  0  0  0  0  0  0  0  0
  143.2868   79.1532  222.9530 H   0  0  0  0  0  0  0  0  0  0  0  0
  143.6600   80.8719  222.4771 H   0  0  0  0  0  0  0  0  0  0  0  0
  142.5304   80.3419  224.7712 H   0  0  0  0  0  0  0  0  0  0  0  0
  141.9979   81.7441  223.7409 H   0  0  0  0  0  0  0  0  0  0  0  0
  140.3029   79.8857  224.8399 H   0  0  0  0  0  0  0  0  0  0  0  0
  139.9319   80.8648  223.4089 H   0  0  0  0  0  0  0  0  0  0  0  0
  141.4937   78.2015  223.2591 H   0  0  0  0  0  0  0  0  0  0  0  0
  139.7349   78.2599  223.0819 H   0  0  0  0  0  0  0  0  0  0  0  0
  138.8756   69.0901  222.7481 H   0  0  0  0  0  0  0  0  0  0  0  0
  138.8283   67.7198  224.8033 H   0  0  0  0  0  0  0  0  0  0  0  0
  139.3612   67.4592  227.0555 H   0  0  0  0  0  0  0  0  0  0  0  0
  141.4274   70.5322  229.1747 H   0  0  0  0  0  0  0  0  0  0  0  0
  141.4844   71.9112  227.1477 H   0  0  0  0  0  0  0  0  0  0  0  0
  1  2  2  0
  2  3  1  0
  3  4  1  0
  4  5  1  0
  5  6  2  0
  5  7  1  0
  7  8  1  0
  8  9  1  0
  9 10  1  0
  9 11  1  0
 11 12  1  0
 12 13  1  0
 13 14  1  0
 14 15  1  0
 15 16  1  0
 16 17  1  0
 17 18  1  0
 18 19  1  0
  2 20  1  0
 20 21  2  0
 21 22  1  0
 22 23  2  0
 23 24  1  0
 24 25  2  0
 25 26  1  0
 25 27  1  0
 27 28  2  0
 28 29  1  0
 29 30  2  0
 12  7  1  0
 19 14  1  0
 30 20  1  0
 29 23  1  0
  3 31  1  0
  4 32  1  0
  4 33  1  0
  8 34  1  0
  8 35  1  0
  9 36  1  6
 10 37  1  0
 11 38  1  0
 11 39  1  0
 12 40  1  1
 13 41  1  0
 13 42  1  0
 15 43  1  0
 15 44  1  0
 16 45  1  0
 16 46  1  0
 17 47  1  0
 17 48  1  0
 18 49  1  0
 18 50  1  0
 19 51  1  0
 19 52  1  0
 21 53  1  0
 22 54  1  0
 24 55  1  0
 27 56  1  0
 28 57  1  0
M  END
>  <smiles>  (16) 
O=C(NCC(=O)N1C[C@H](O)C[C@H]1CN1CCCCC1)c1ccc2cc(F)ccc2n1

>  <score_type>  (16) 
oracle

>  <origin>  (16) 
autodockgpu

>  <m_score__min__energy>  (16) 
-8.3800000000000008

>  <m_primary>  (16) 
energy

>  <rmsd>  (16) 
2.2007221551879663

>  <m_score__min__rmsd>  (16) 
2.2007221551879663

>  <meeko>  (16) 
{"free_energy": -8.09, "intermolecular_energy": -10.17, "internal_energy": -1.87, "cluster_size": 33, "cluster_id": 1, "rank_in_cluster": 10}

>  <energy>  (16) 
-7.87

>  <cluster_rmsd>  (16) 
1.21

>  <cluster>  (16) 
1

$$$$

     RDKit          3D

 57 60  0  0  0  0  0  0  0  0999 V2000
  141.0060   72.3560  221.8310 O   0  0  0  0  0  0  0  0  0  0  0  0
  140.0010   72.2700  222.6070 C   0  0  0  0  0  0  0  0  0  0  0  0
  138.8250   73.0560  222.3590 N   0  0  0  0  0  0  0  0  0  0  0  0
  138.8150   73.9540  221.1960 C   0  0  0  0  0  0  0  0  0  0  0  0
  139.6580   75.1220  221.5400 C   0  0  0  0  0  0  0  0  0  0  0  0
  139.5900   75.7430  222.6290 O   0  0  0  0  0  0  0  0  0  0  0  0
  140.6090   75.5770  220.5850 N   0  0  0  0  0  0  0  0  0  0  0  0
  140.6040   75.3530  219.1310 C   0  0  0  0  0  0  0  0  0  0  0  0
  142.0580   74.9440  218.9460 C   0  0  2  0  0  0  0  0  0  0  0  0
  142.2820   73.6610  219.4030 O   0  0  0  0  0  0  0  0  0  0  0  0
  142.7890   76.0090  219.7230 C   0  0  0  0  0  0  0  0  0  0  0  0
  141.8070   76.3680  220.8100 C   0  0  1  0  0  0  0  0  0  0  0  0
  141.3800   77.8230  220.7000 C   0  0  0  0  0  0  0  0  0  0  0  0
  141.8960   78.6370  221.7590 N   0  0  0  0  0  0  0  0  0  0  0  0
  141.4240   78.2750  223.0570 C   0  0  0  0  0  0  0  0  0  0  0  0
  140.9250   79.4470  223.8620 C   0  0  0  0  0  0  0  0  0  0  0  0
  141.8750   80.6170  223.8450 C   0  0  0  0  0  0  0  0  0  0  0  0
  142.5800   80.7730  222.5150 C   0  0  0  0  0  0  0  0  0  0  0  0
  141.7180   80.0350  221.4840 C   0  0  0  0  0  0  0  0  0  0  0  0
  140.0220   71.3740  223.7590 C   0  0  0  0  0  0  0  0  0  0  0  0
  139.5350   70.0820  223.5980 C   0  0  0  0  0  0  0  0  0  0  0  0
  139.5290   69.2010  224.6380 C   0  0  0  0  0  0  0  0  0  0  0  0
  140.0170   69.6270  225.8510 C   0  0  0  0  0  0  0  0  0  0  0  0
  140.0080   68.7330  226.8990 C   0  0  0  0  0  0  0  0  0  0  0  0
  140.4820   69.0990  228.1310 C   0  0  0  0  0  0  0  0  0  0  0  0
  140.4760   68.2280  229.1630 F   0  0  0  0  0  0  0  0  0  0  0  0
  140.9620   70.3750  228.2860 C   0  0  0  0  0  0  0  0  0  0  0  0
  140.9690   71.2690  227.2360 C   0  0  0  0  0  0  0  0  0  0  0  0
  140.4940   70.9250  225.9720 C   0  0  0  0  0  0  0  0  0  0  0  0
  140.4990   71.7920  224.9450 N   0  0  0  0  0  0  0  0  0  0  0  0
  138.0030   72.9870  222.9900 H   0  0  0  0  0  0  0  0  0  0  0  0
  139.2271   73.4372  220.3168 H   0  0  0  0  0  0  0  0  0  0  0  0
  137.7894   74.2693  220.9538 H   0  0  0  0  0  0  0  0  0  0  0  0
  139.9100   74.5507  218.8400 H   0  0  0  0  0  0  0  0  0  0  0  0
  140.2727   76.2075  218.5226 H   0  0  0  0  0  0  0  0  0  0  0  0
  142.3914   74.8945  217.8989 H   0  0  0  0  0  0  0  0  0  0  0  0
  141.8210   73.5750  220.2740 H   0  0  0  0  0  0  0  0  0  0  0  0
  143.7243   75.6165  220.1487 H   0  0  0  0  0  0  0  0  0  0  0  0
  143.0869   76.8693  219.1057 H   0  0  0  0  0  0  0  0  0  0  0  0
  142.2759   76.1877  221.7886 H   0  0  0  0  0  0  0  0  0  0  0  0
  141.7418   78.2234  219.7415 H   0  0  0  0  0  0  0  0  0  0  0  0
  140.2824   77.8508  220.7673 H   0  0  0  0  0  0  0  0  0  0  0  0
  140.5995   77.5563  222.9401 H   0  0  0  0  0  0  0  0  0  0  0  0
  142.2764   77.8455  223.6038 H   0  0  0  0  0  0  0  0  0  0  0  0
  139.9598   79.7725  223.4468 H   0  0  0  0  0  0  0  0  0  0  0  0
  140.8300   79.1140  224.9061 H   0  0  0  0  0  0  0  0  0  0  0  0
  141.3067   81.5356  224.0527 H   0  0  0  0  0  0  0  0  0  0  0  0
  142.6433   80.4343  224.6107 H   0  0  0  0  0  0  0  0  0  0  0  0
  142.6633   81.8374  222.2503 H   0  0  0  0  0  0  0  0  0  0  0  0
  143.5999   80.3626  222.5517 H   0  0  0  0  0  0  0  0  0  0  0  0
  140.6605   80.3165  221.5961 H   0  0  0  0  0  0  0  0  0  0  0  0
  142.0113   80.2870  220.4542 H   0  0  0  0  0  0  0  0  0  0  0  0
  139.1491   69.7662  222.6175 H   0  0  0  0  0  0  0  0  0  0  0  0
  139.1447   68.1782  224.5106 H   0  0  0  0  0  0  0  0  0  0  0  0
  139.6168   67.7165  226.7452 H   0  0  0  0  0  0  0  0  0  0  0  0
  141.3485   70.6908  229.2662 H   0  0  0  0  0  0  0  0  0  0  0  0
  141.3610   72.2834  227.4011 H   0  0  0  0  0  0  0  0  0  0  0  0
  1  2  2  0
  2  3  1  0
  3  4  1  0
  4  5  1  0
  5  6  2  0
  5  7  1  0
  7  8  1  0
  8  9  1  0
  9 10  1  0
  9 11  1  0
 11 12  1  0
 12 13  1  0
 13 14  1  0
 14 15  1  0
 15 16  1  0
 16 17  1  0
 17 18  1  0
 18 19  1  0
  2 20  1  0
 20 21  2  0
 21 22  1  0
 22 23  2  0
 23 24  1  0
 24 25  2  0
 25 26  1  0
 25 27  1  0
 27 28  2  0
 28 29  1  0
 29 30  2  0
 12  7  1  0
 19 14  1  0
 30 20  1  0
 29 23  1  0
  3 31  1  0
  4 32  1  0
  4 33  1  0
  8 34  1  0
  8 35  1  0
  9 36  1  6
 10 37  1  0
 11 38  1  0
 11 39  1  0
 12 40  1  1
 13 41  1  0
 13 42  1  0
 15 43  1  0
 15 44  1  0
 16 45  1  0
 16 46  1  0
 17 47  1  0
 17 48  1  0
 18 49  1  0
 18 50  1  0
 19 51  1  0
 19 52  1  0
 21 53  1  0
 22 54  1  0
 24 55  1  0
 27 56  1  0
 28 57  1  0
M  END
>  <smiles>  (17) 
O=C(NCC(=O)N1C[C@H](O)C[C@H]1CN1CCCCC1)c1ccc2cc(F)ccc2n1

>  <score_type>  (17) 
oracle

>  <origin>  (17) 
autodockgpu

>  <m_score__min__energy>  (17) 
-8.3800000000000008

>  <m_primary>  (17) 
energy

>  <rmsd>  (17) 
1.9283797265350222

>  <m_score__min__rmsd>  (17) 
1.9283797265350222

>  <meeko>  (17) 
{"free_energy": -8.09, "intermolecular_energy": -10.17, "internal_energy": -2.23, "cluster_size": 33, "cluster_id": 1, "rank_in_cluster": 9}

>  <energy>  (17) 
-7.86

>  <cluster_rmsd>  (17) 
1.79

>  <cluster>  (17) 
1

$$$$

     RDKit          3D

 57 60  0  0  0  0  0  0  0  0999 V2000
  138.7530   71.2140  221.3560 O   0  0  0  0  0  0  0  0  0  0  0  0
  138.4340   71.5720  222.5340 C   0  0  0  0  0  0  0  0  0  0  0  0
  137.5630   72.6940  222.7400 N   0  0  0  0  0  0  0  0  0  0  0  0
  137.0540   73.4110  221.5630 C   0  0  0  0  0  0  0  0  0  0  0  0
  137.5050   74.8170  221.6800 C   0  0  0  0  0  0  0  0  0  0  0  0
  136.7560   75.7720  222.0010 O   0  0  0  0  0  0  0  0  0  0  0  0
  138.8700   75.1160  221.4160 N   0  0  0  0  0  0  0  0  0  0  0  0
  139.7830   74.4240  220.4920 C   0  0  0  0  0  0  0  0  0  0  0  0
  140.9930   74.2910  221.4050 C   0  0  2  0  0  0  0  0  0  0  0  0
  140.8010   73.3120  222.3590 O   0  0  0  0  0  0  0  0  0  0  0  0
  141.1190   75.6830  221.9710 C   0  0  0  0  0  0  0  0  0  0  0  0
  139.6910   76.1700  221.9900 C   0  0  1  0  0  0  0  0  0  0  0  0
  139.5160   77.3800  221.0860 C   0  0  0  0  0  0  0  0  0  0  0  0
  140.0260   78.5860  221.6660 N   0  0  0  0  0  0  0  0  0  0  0  0
  141.4090   78.8210  221.4030 C   0  0  0  0  0  0  0  0  0  0  0  0
  142.2020   79.1780  222.6350 C   0  0  0  0  0  0  0  0  0  0  0  0
  141.5350   80.2370  223.4750 C   0  0  0  0  0  0  0  0  0  0  0  0
  140.0280   80.1140  223.4740 C   0  0  0  0  0  0  0  0  0  0  0  0
  139.7150   78.6690  223.0660 C   0  0  0  0  0  0  0  0  0  0  0  0
  138.9440   70.8520  223.6970 C   0  0  0  0  0  0  0  0  0  0  0  0
  138.8010   69.4700  223.7330 C   0  0  0  0  0  0  0  0  0  0  0  0
  139.2580   68.7450  224.7920 C   0  0  0  0  0  0  0  0  0  0  0  0
  139.8640   69.4200  225.8260 C   0  0  0  0  0  0  0  0  0  0  0  0
  140.3240   68.6820  226.8950 C   0  0  0  0  0  0  0  0  0  0  0  0
  140.9370   69.2970  227.9540 C   0  0  0  0  0  0  0  0  0  0  0  0
  141.3890   68.5810  229.0050 F   0  0  0  0  0  0  0  0  0  0  0  0
  141.0770   70.6620  227.9160 C   0  0  0  0  0  0  0  0  0  0  0  0
  140.6150   71.3990  226.8450 C   0  0  0  0  0  0  0  0  0  0  0  0
  139.9880   70.8010  225.7540 C   0  0  0  0  0  0  0  0  0  0  0  0
  139.5370   71.5130  224.7080 N   0  0  0  0  0  0  0  0  0  0  0  0
  137.2990   72.9880  223.7010 H   0  0  0  0  0  0  0  0  0  0  0  0
  137.4569   72.9609  220.6437 H   0  0  0  0  0  0  0  0  0  0  0  0
  135.9565   73.3549  221.5151 H   0  0  0  0  0  0  0  0  0  0  0  0
  139.3909   73.4441  220.1820 H   0  0  0  0  0  0  0  0  0  0  0  0
  139.9664   74.9372  219.5365 H   0  0  0  0  0  0  0  0  0  0  0  0
  141.9141   73.9648  220.8999 H   0  0  0  0  0  0  0  0  0  0  0  0
  140.3570   72.5500  221.9110 H   0  0  0  0  0  0  0  0  0  0  0  0
  141.5430   75.6607  222.9857 H   0  0  0  0  0  0  0  0  0  0  0  0
  141.7907   76.3299  221.3876 H   0  0  0  0  0  0  0  0  0  0  0  0
  139.4160   76.4296  223.0230 H   0  0  0  0  0  0  0  0  0  0  0  0
  140.0475   77.1925  220.1414 H   0  0  0  0  0  0  0  0  0  0  0  0
  138.4367   77.5204  220.9268 H   0  0  0  0  0  0  0  0  0  0  0  0
  141.8399   77.9094  220.9633 H   0  0  0  0  0  0  0  0  0  0  0  0
  141.4674   79.6808  220.7194 H   0  0  0  0  0  0  0  0  0  0  0  0
  142.3273   78.2723  223.2465 H   0  0  0  0  0  0  0  0  0  0  0  0
  143.1685   79.5825  222.2999 H   0  0  0  0  0  0  0  0  0  0  0  0
  141.8956   80.1449  224.5101 H   0  0  0  0  0  0  0  0  0  0  0  0
  141.7904   81.2158  223.0429 H   0  0  0  0  0  0  0  0  0  0  0  0
  139.6281   80.3217  224.4775 H   0  0  0  0  0  0  0  0  0  0  0  0
  139.5683   80.8339  222.7809 H   0  0  0  0  0  0  0  0  0  0  0  0
  140.3360   77.9651  223.6395 H   0  0  0  0  0  0  0  0  0  0  0  0
  138.6651   78.4085  223.2655 H   0  0  0  0  0  0  0  0  0  0  0  0
  138.3115   68.9539  222.8939 H   0  0  0  0  0  0  0  0  0  0  0  0
  139.1456   67.6511  224.8194 H   0  0  0  0  0  0  0  0  0  0  0  0
  140.1977   67.5893  226.8977 H   0  0  0  0  0  0  0  0  0  0  0  0
  141.5667   71.1779  228.7551 H   0  0  0  0  0  0  0  0  0  0  0  0
  140.7456   72.4912  226.8528 H   0  0  0  0  0  0  0  0  0  0  0  0
  1  2  2  0
  2  3  1  0
  3  4  1  0
  4  5  1  0
  5  6  2  0
  5  7  1  0
  7  8  1  0
  8  9  1  0
  9 10  1  0
  9 11  1  0
 11 12  1  0
 12 13  1  0
 13 14  1  0
 14 15  1  0
 15 16  1  0
 16 17  1  0
 17 18  1  0
 18 19  1  0
  2 20  1  0
 20 21  2  0
 21 22  1  0
 22 23  2  0
 23 24  1  0
 24 25  2  0
 25 26  1  0
 25 27  1  0
 27 28  2  0
 28 29  1  0
 29 30  2  0
 12  7  1  0
 19 14  1  0
 30 20  1  0
 29 23  1  0
  3 31  1  0
  4 32  1  0
  4 33  1  0
  8 34  1  0
  8 35  1  0
  9 36  1  6
 10 37  1  0
 11 38  1  0
 11 39  1  0
 12 40  1  1
 13 41  1  0
 13 42  1  0
 15 43  1  0
 15 44  1  0
 16 45  1  0
 16 46  1  0
 17 47  1  0
 17 48  1  0
 18 49  1  0
 18 50  1  0
 19 51  1  0
 19 52  1  0
 21 53  1  0
 22 54  1  0
 24 55  1  0
 27 56  1  0
 28 57  1  0
M  END
>  <smiles>  (18) 
O=C(NCC(=O)N1C[C@H](O)C[C@H]1CN1CCCCC1)c1ccc2cc(F)ccc2n1

>  <score_type>  (18) 
oracle

>  <origin>  (18) 
autodockgpu

>  <m_score__min__energy>  (18) 
-8.3800000000000008

>  <m_primary>  (18) 
energy

>  <rmsd>  (18) 
2.5264117843161613

>  <m_score__min__rmsd>  (18) 
2.5264117843161613

>  <meeko>  (18) 
{"free_energy": -7.66, "intermolecular_energy": -9.75, "internal_energy": -2.43, "cluster_size": 33, "cluster_id": 1, "rank_in_cluster": 21}

>  <energy>  (18) 
-7.74

>  <cluster_rmsd>  (18) 
1.22

>  <cluster>  (18) 
1

$$$$

     RDKit          3D

 57 60  0  0  0  0  0  0  0  0999 V2000
  140.3280   70.9610  221.3950 O   0  0  0  0  0  0  0  0  0  0  0  0
  140.0470   71.5200  222.5030 C   0  0  0  0  0  0  0  0  0  0  0  0
  139.7550   72.9250  222.5520 N   0  0  0  0  0  0  0  0  0  0  0  0
  139.7910   73.6920  221.3000 C   0  0  0  0  0  0  0  0  0  0  0  0
  140.0070   75.1110  221.6630 C   0  0  0  0  0  0  0  0  0  0  0  0
  139.5790   75.6400  222.7190 O   0  0  0  0  0  0  0  0  0  0  0  0
  140.7430   75.9370  220.7700 N   0  0  0  0  0  0  0  0  0  0  0  0
  140.9960   75.7140  219.3370 C   0  0  0  0  0  0  0  0  0  0  0  0
  142.4880   76.0120  219.3070 C   0  0  2  0  0  0  0  0  0  0  0  0
  143.2190   74.9810  219.8610 O   0  0  0  0  0  0  0  0  0  0  0  0
  142.5690   77.3050  220.0780 C   0  0  0  0  0  0  0  0  0  0  0  0
  141.4210   77.1910  221.0510 C   0  0  1  0  0  0  0  0  0  0  0  0
  140.3950   78.2880  220.8130 C   0  0  0  0  0  0  0  0  0  0  0  0
  140.5940   79.4280  221.6570 N   0  0  0  0  0  0  0  0  0  0  0  0
  141.8000   80.1460  221.3950 C   0  0  0  0  0  0  0  0  0  0  0  0
  142.6010   80.4470  222.6360 C   0  0  0  0  0  0  0  0  0  0  0  0
  141.7620   81.0170  223.7510 C   0  0  0  0  0  0  0  0  0  0  0  0
  140.3710   80.4230  223.7930 C   0  0  0  0  0  0  0  0  0  0  0  0
  140.4520   79.0870  223.0450 C   0  0  0  0  0  0  0  0  0  0  0  0
  140.0140   70.7480  223.7420 C   0  0  0  0  0  0  0  0  0  0  0  0
  139.3810   69.5110  223.7320 C   0  0  0  0  0  0  0  0  0  0  0  0
  139.3190   68.7470  224.8580 C   0  0  0  0  0  0  0  0  0  0  0  0
  139.8990   69.2350  226.0060 C   0  0  0  0  0  0  0  0  0  0  0  0
  139.8330   68.4580  227.1410 C   0  0  0  0  0  0  0  0  0  0  0  0
  140.3930   68.8900  228.3150 C   0  0  0  0  0  0  0  0  0  0  0  0
  140.3310   68.1340  229.4320 F   0  0  0  0  0  0  0  0  0  0  0  0
  141.0170   70.1120  228.3210 C   0  0  0  0  0  0  0  0  0  0  0  0
  141.0810   70.8890  227.1830 C   0  0  0  0  0  0  0  0  0  0  0  0
  140.5210   70.4750  225.9760 C   0  0  0  0  0  0  0  0  0  0  0  0
  140.5810   71.2270  224.8640 N   0  0  0  0  0  0  0  0  0  0  0  0
  139.5250   73.3840  223.4550 H   0  0  0  0  0  0  0  0  0  0  0  0
  140.6144   73.3361  220.6634 H   0  0  0  0  0  0  0  0  0  0  0  0
  138.8521   73.5704  220.7400 H   0  0  0  0  0  0  0  0  0  0  0  0
  140.7764   74.6790  219.0360 H   0  0  0  0  0  0  0  0  0  0  0  0
  140.3808   76.3137  218.6500 H   0  0  0  0  0  0  0  0  0  0  0  0
  142.9173   76.1043  218.2985 H   0  0  0  0  0  0  0  0  0  0  0  0
  143.3380   75.1880  220.8200 H   0  0  0  0  0  0  0  0  0  0  0  0
  143.5294   77.3903  220.6075 H   0  0  0  0  0  0  0  0  0  0  0  0
  142.5078   78.1970  219.4372 H   0  0  0  0  0  0  0  0  0  0  0  0
  141.8134   77.2592  222.0764 H   0  0  0  0  0  0  0  0  0  0  0  0
  140.4635   78.6114  219.7639 H   0  0  0  0  0  0  0  0  0  0  0  0
  139.4046   77.8712  221.0482 H   0  0  0  0  0  0  0  0  0  0  0  0
  142.4226   79.5452  220.7157 H   0  0  0  0  0  0  0  0  0  0  0  0
  141.5128   81.1113  220.9526 H   0  0  0  0  0  0  0  0  0  0  0  0
  143.0664   79.5146  222.9882 H   0  0  0  0  0  0  0  0  0  0  0  0
  143.3530   81.2038  222.3683 H   0  0  0  0  0  0  0  0  0  0  0  0
  142.2621   80.8115  224.7089 H   0  0  0  0  0  0  0  0  0  0  0  0
  141.6582   82.0973  223.5717 H   0  0  0  0  0  0  0  0  0  0  0  0
  140.0583   80.2582  224.8347 H   0  0  0  0  0  0  0  0  0  0  0  0
  139.6341   81.0964  223.3309 H   0  0  0  0  0  0  0  0  0  0  0  0
  141.3212   78.5070  223.3885 H   0  0  0  0  0  0  0  0  0  0  0  0
  139.5606   78.4672  223.2222 H   0  0  0  0  0  0  0  0  0  0  0  0
  138.9235   69.1436  222.8016 H   0  0  0  0  0  0  0  0  0  0  0  0
  138.8191   67.7672  224.8496 H   0  0  0  0  0  0  0  0  0  0  0  0
  139.3265   67.4822  227.1051 H   0  0  0  0  0  0  0  0  0  0  0  0
  141.4751   70.4792  229.2513 H   0  0  0  0  0  0  0  0  0  0  0  0
  141.5888   71.8637  227.2297 H   0  0  0  0  0  0  0  0  0  0  0  0
  1  2  2  0
  2  3  1  0
  3  4  1  0
  4  5  1  0
  5  6  2  0
  5  7  1  0
  7  8  1  0
  8  9  1  0
  9 10  1  0
  9 11  1  0
 11 12  1  0
 12 13  1  0
 13 14  1  0
 14 15  1  0
 15 16  1  0
 16 17  1  0
 17 18  1  0
 18 19  1  0
  2 20  1  0
 20 21  2  0
 21 22  1  0
 22 23  2  0
 23 24  1  0
 24 25  2  0
 25 26  1  0
 25 27  1  0
 27 28  2  0
 28 29  1  0
 29 30  2  0
 12  7  1  0
 19 14  1  0
 30 20  1  0
 29 23  1  0
  3 31  1  0
  4 32  1  0
  4 33  1  0
  8 34  1  0
  8 35  1  0
  9 36  1  6
 10 37  1  0
 11 38  1  0
 11 39  1  0
 12 40  1  1
 13 41  1  0
 13 42  1  0
 15 43  1  0
 15 44  1  0
 16 45  1  0
 16 46  1  0
 17 47  1  0
 17 48  1  0
 18 49  1  0
 18 50  1  0
 19 51  1  0
 19 52  1  0
 21 53  1  0
 22 54  1  0
 24 55  1  0
 27 56  1  0
 28 57  1  0
M  END
>  <smiles>  (19) 
O=C(NCC(=O)N1C[C@H](O)C[C@H]1CN1CCCCC1)c1ccc2cc(F)ccc2n1

>  <score_type>  (19) 
oracle

>  <origin>  (19) 
autodockgpu

>  <m_score__min__energy>  (19) 
-8.3800000000000008

>  <m_primary>  (19) 
energy

>  <rmsd>  (19) 
2.22533719341427

>  <m_score__min__rmsd>  (19) 
2.22533719341427

>  <meeko>  (19) 
{"free_energy": -8.27, "intermolecular_energy": -10.36, "internal_energy": -1.79, "cluster_size": 33, "cluster_id": 1, "rank_in_cluster": 5}

>  <energy>  (19) 
-7.73

>  <cluster_rmsd>  (19) 
1.48

>  <cluster>  (19) 
1

$$$$

     RDKit          3D

 57 60  0  0  0  0  0  0  0  0999 V2000
  138.6320   72.2380  222.0200 O   0  0  0  0  0  0  0  0  0  0  0  0
  139.7460   71.8630  222.5060 C   0  0  0  0  0  0  0  0  0  0  0  0
  140.9770   72.2420  221.8720 N   0  0  0  0  0  0  0  0  0  0  0  0
  140.9160   73.0670  220.6580 C   0  0  0  0  0  0  0  0  0  0  0  0
  140.8790   74.4820  221.0940 C   0  0  0  0  0  0  0  0  0  0  0  0
  140.4980   74.8580  222.2310 O   0  0  0  0  0  0  0  0  0  0  0  0
  141.3000   75.4860  220.1800 N   0  0  0  0  0  0  0  0  0  0  0  0
  141.2950   75.4250  218.7090 C   0  0  0  0  0  0  0  0  0  0  0  0
  142.6930   75.9610  218.4420 C   0  0  2  0  0  0  0  0  0  0  0  0
  143.6600   75.0200  218.7360 O   0  0  0  0  0  0  0  0  0  0  0  0
  142.7390   77.1830  219.3240 C   0  0  0  0  0  0  0  0  0  0  0  0
  141.8330   76.8060  220.4700 C   0  0  1  0  0  0  0  0  0  0  0  0
  140.6340   77.7390  220.5460 C   0  0  0  0  0  0  0  0  0  0  0  0
  140.7710   78.7390  221.5620 N   0  0  0  0  0  0  0  0  0  0  0  0
  141.4340   79.9260  221.1280 C   0  0  0  0  0  0  0  0  0  0  0  0
  142.5280   80.3770  222.0620 C   0  0  0  0  0  0  0  0  0  0  0  0
  142.0960   80.3930  223.5060 C   0  0  0  0  0  0  0  0  0  0  0  0
  141.1430   79.2670  223.8390 C   0  0  0  0  0  0  0  0  0  0  0  0
  141.3490   78.1970  222.7600 C   0  0  0  0  0  0  0  0  0  0  0  0
  139.7960   71.0430  223.7130 C   0  0  0  0  0  0  0  0  0  0  0  0
  139.1860   69.7950  223.6880 C   0  0  0  0  0  0  0  0  0  0  0  0
  139.2010   68.9860  224.7840 C   0  0  0  0  0  0  0  0  0  0  0  0
  139.8350   69.4400  225.9160 C   0  0  0  0  0  0  0  0  0  0  0  0
  139.8480   68.6180  227.0220 C   0  0  0  0  0  0  0  0  0  0  0  0
  140.4650   69.0140  228.1790 C   0  0  0  0  0  0  0  0  0  0  0  0
  140.4800   68.2150  229.2660 F   0  0  0  0  0  0  0  0  0  0  0  0
  141.0660   70.2480  228.1990 C   0  0  0  0  0  0  0  0  0  0  0  0
  141.0530   71.0700  227.0920 C   0  0  0  0  0  0  0  0  0  0  0  0
  140.4330   70.6930  225.9020 C   0  0  0  0  0  0  0  0  0  0  0  0
  140.4170   71.4880  224.8200 N   0  0  0  0  0  0  0  0  0  0  0  0
  141.8890   71.9370  222.2670 H   0  0  0  0  0  0  0  0  0  0  0  0
  141.8044   72.8874  220.0348 H   0  0  0  0  0  0  0  0  0  0  0  0
  140.0268   72.8183  220.0601 H   0  0  0  0  0  0  0  0  0  0  0  0
  141.1704   74.3964  218.3396 H   0  0  0  0  0  0  0  0  0  0  0  0
  140.4774   75.9717  218.2163 H   0  0  0  0  0  0  0  0  0  0  0  0
  142.8970   76.2028  217.3885 H   0  0  0  0  0  0  0  0  0  0  0  0
  144.4710   75.2640  218.2250 H   0  0  0  0  0  0  0  0  0  0  0  0
  143.7625   77.3783  219.6765 H   0  0  0  0  0  0  0  0  0  0  0  0
  142.4269   78.1030  218.8081 H   0  0  0  0  0  0  0  0  0  0  0  0
  142.4053   76.8528  221.4082 H   0  0  0  0  0  0  0  0  0  0  0  0
  140.5166   78.2399  219.5737 H   0  0  0  0  0  0  0  0  0  0  0  0
  139.7552   77.1280  220.7998 H   0  0  0  0  0  0  0  0  0  0  0  0
  141.8763   79.7364  220.1389 H   0  0  0  0  0  0  0  0  0  0  0  0
  140.6805   80.7269  221.1002 H   0  0  0  0  0  0  0  0  0  0  0  0
  143.3824   79.6919  221.9587 H   0  0  0  0  0  0  0  0  0  0  0  0
  142.7944   81.4078  221.7854 H   0  0  0  0  0  0  0  0  0  0  0  0
  142.9885   80.2992  224.1421 H   0  0  0  0  0  0  0  0  0  0  0  0
  141.5682   81.3412  223.6860 H   0  0  0  0  0  0  0  0  0  0  0  0
  141.3723   78.8551  224.8329 H   0  0  0  0  0  0  0  0  0  0  0  0
  140.1007   79.6180  223.8608 H   0  0  0  0  0  0  0  0  0  0  0  0
  142.4214   78.0007  222.6139 H   0  0  0  0  0  0  0  0  0  0  0  0
  140.8820   77.2414  223.0405 H   0  0  0  0  0  0  0  0  0  0  0  0
  138.6838   69.4553  222.7702 H   0  0  0  0  0  0  0  0  0  0  0  0
  138.7193   67.9973  224.7637 H   0  0  0  0  0  0  0  0  0  0  0  0
  139.3581   67.6342  226.9752 H   0  0  0  0  0  0  0  0  0  0  0  0
  141.5681   70.5880  229.1168 H   0  0  0  0  0  0  0  0  0  0  0  0
  141.5461   72.0516  227.1497 H   0  0  0  0  0  0  0  0  0  0  0  0
  1  2  2  0
  2  3  1  0
  3  4  1  0
  4  5  1  0
  5  6  2  0
  5  7  1  0
  7  8  1  0
  8  9  1  0
  9 10  1  0
  9 11  1  0
 11 12  1  0
 12 13  1  0
 13 14  1  0
 14 15  1  0
 15 16  1  0
 16 17  1  0
 17 18  1  0
 18 19  1  0
  2 20  1  0
 20 21  2  0
 21 22  1  0
 22 23  2  0
 23 24  1  0
 24 25  2  0
 25 26  1  0
 25 27  1  0
 27 28  2  0
 28 29  1  0
 29 30  2  0
 12  7  1  0
 19 14  1  0
 30 20  1  0
 29 23  1  0
  3 31  1  0
  4 32  1  0
  4 33  1  0
  8 34  1  0
  8 35  1  0
  9 36  1  6
 10 37  1  0
 11 38  1  0
 11 39  1  0
 12 40  1  1
 13 41  1  0
 13 42  1  0
 15 43  1  0
 15 44  1  0
 16 45  1  0
 16 46  1  0
 17 47  1  0
 17 48  1  0
 18 49  1  0
 18 50  1  0
 19 51  1  0
 19 52  1  0
 21 53  1  0
 22 54  1  0
 24 55  1  0
 27 56  1  0
 28 57  1  0
M  END
>  <smiles>  (20) 
O=C(NCC(=O)N1C[C@H](O)C[C@H]1CN1CCCCC1)c1ccc2cc(F)ccc2n1

>  <score_type>  (20) 
oracle

>  <origin>  (20) 
autodockgpu

>  <m_score__min__energy>  (20) 
-8.3800000000000008

>  <m_primary>  (20) 
energy

>  <rmsd>  (20) 
2.4309509371759224

>  <m_score__min__rmsd>  (20) 
2.4309509371759224

>  <meeko>  (20) 
{"free_energy": -8.3, "intermolecular_energy": -10.39, "internal_energy": -1.43, "cluster_size": 33, "cluster_id": 1, "rank_in_cluster": 3}

>  <energy>  (20) 
-7.7

>  <cluster_rmsd>  (20) 
1.77

>  <cluster>  (20) 
1

$$$$

     RDKit          3D

 57 60  0  0  0  0  0  0  0  0999 V2000
  137.0440   71.0720  221.8630 O   0  0  0  0  0  0  0  0  0  0  0  0
  137.8480   71.7690  222.5600 C   0  0  0  0  0  0  0  0  0  0  0  0
  137.9530   73.1850  222.3450 N   0  0  0  0  0  0  0  0  0  0  0  0
  137.1140   73.8000  221.3070 C   0  0  0  0  0  0  0  0  0  0  0  0
  137.4280   75.2470  221.2930 C   0  0  0  0  0  0  0  0  0  0  0  0
  136.5600   76.1550  221.2550 O   0  0  0  0  0  0  0  0  0  0  0  0
  138.7920   75.6460  221.3270 N   0  0  0  0  0  0  0  0  0  0  0  0
  139.8860   75.1930  220.4520 C   0  0  0  0  0  0  0  0  0  0  0  0
  140.9440   74.9240  221.5110 C   0  0  2  0  0  0  0  0  0  0  0  0
  140.6750   73.7640  222.2100 O   0  0  0  0  0  0  0  0  0  0  0  0
  140.8790   76.1740  222.3510 C   0  0  0  0  0  0  0  0  0  0  0  0
  139.4350   76.5920  222.2240 C   0  0  1  0  0  0  0  0  0  0  0  0
  139.3180   77.9530  221.5570 C   0  0  0  0  0  0  0  0  0  0  0  0
  140.4110   78.8230  221.8730 N   0  0  0  0  0  0  0  0  0  0  0  0
  140.4790   79.2010  223.2480 C   0  0  0  0  0  0  0  0  0  0  0  0
  140.6570   80.6830  223.4550 C   0  0  0  0  0  0  0  0  0  0  0  0
  141.7430   81.2690  222.5900 C   0  0  0  0  0  0  0  0  0  0  0  0
  141.8180   80.6140  221.2290 C   0  0  0  0  0  0  0  0  0  0  0  0
  140.4520   79.9580  220.9930 C   0  0  0  0  0  0  0  0  0  0  0  0
  138.6780   71.1480  223.5880 C   0  0  0  0  0  0  0  0  0  0  0  0
  139.8570   71.7840  223.9570 C   0  0  0  0  0  0  0  0  0  0  0  0
  140.6710   71.2520  224.9120 C   0  0  0  0  0  0  0  0  0  0  0  0
  140.2940   70.0660  225.4980 C   0  0  0  0  0  0  0  0  0  0  0  0
  141.1200   69.5330  226.4620 C   0  0  0  0  0  0  0  0  0  0  0  0
  140.7980   68.3550  227.0820 C   0  0  0  0  0  0  0  0  0  0  0  0
  141.6030   67.8250  228.0270 F   0  0  0  0  0  0  0  0  0  0  0  0
  139.6320   67.7290  226.7150 C   0  0  0  0  0  0  0  0  0  0  0  0
  138.8060   68.2650  225.7490 C   0  0  0  0  0  0  0  0  0  0  0  0
  139.1090   69.4610  225.1010 C   0  0  0  0  0  0  0  0  0  0  0  0
  138.3080   69.9880  224.1610 N   0  0  0  0  0  0  0  0  0  0  0  0
  138.6080   73.7570  222.9120 H   0  0  0  0  0  0  0  0  0  0  0  0
  137.3404   73.3554  220.3266 H   0  0  0  0  0  0  0  0  0  0  0  0
  136.0471   73.6332  221.5167 H   0  0  0  0  0  0  0  0  0  0  0  0
  139.6188   74.2824  219.8957 H   0  0  0  0  0  0  0  0  0  0  0  0
  140.1793   75.8969  219.6593 H   0  0  0  0  0  0  0  0  0  0  0  0
  141.9539   74.7444  221.1138 H   0  0  0  0  0  0  0  0  0  0  0  0
  139.9560   73.9710  222.8560 H   0  0  0  0  0  0  0  0  0  0  0  0
  141.1384   75.9606  223.3985 H   0  0  0  0  0  0  0  0  0  0  0  0
  141.5861   76.9519  222.0270 H   0  0  0  0  0  0  0  0  0  0  0  0
  138.9833   76.6256  223.2264 H   0  0  0  0  0  0  0  0  0  0  0  0
  139.2879   77.8085  220.4670 H   0  0  0  0  0  0  0  0  0  0  0  0
  138.3989   78.4271  221.9320 H   0  0  0  0  0  0  0  0  0  0  0  0
  139.5463   78.8899  223.7413 H   0  0  0  0  0  0  0  0  0  0  0  0
  141.3626   78.7056  223.6768 H   0  0  0  0  0  0  0  0  0  0  0  0
  139.7086   81.1871  223.2175 H   0  0  0  0  0  0  0  0  0  0  0  0
  140.9507   80.8372  224.5038 H   0  0  0  0  0  0  0  0  0  0  0  0
  141.5447   82.3424  222.4541 H   0  0  0  0  0  0  0  0  0  0  0  0
  142.7035   81.0954  223.0972 H   0  0  0  0  0  0  0  0  0  0  0  0
  142.0177   81.3682  220.4535 H   0  0  0  0  0  0  0  0  0  0  0  0
  142.6306   79.8739  221.1850 H   0  0  0  0  0  0  0  0  0  0  0  0
  139.6414   80.6611  221.2352 H   0  0  0  0  0  0  0  0  0  0  0  0
  140.3185   79.6629  219.9418 H   0  0  0  0  0  0  0  0  0  0  0  0
  140.1374   72.7304  223.4714 H   0  0  0  0  0  0  0  0  0  0  0  0
  141.6031   71.7568  225.2058 H   0  0  0  0  0  0  0  0  0  0  0  0
  142.0468   70.0580  226.7367 H   0  0  0  0  0  0  0  0  0  0  0  0
  139.3516   66.7826  227.2004 H   0  0  0  0  0  0  0  0  0  0  0  0
  137.8810   67.7328  225.4823 H   0  0  0  0  0  0  0  0  0  0  0  0
  1  2  2  0
  2  3  1  0
  3  4  1  0
  4  5  1  0
  5  6  2  0
  5  7  1  0
  7  8  1  0
  8  9  1  0
  9 10  1  0
  9 11  1  0
 11 12  1  0
 12 13  1  0
 13 14  1  0
 14 15  1  0
 15 16  1  0
 16 17  1  0
 17 18  1  0
 18 19  1  0
  2 20  1  0
 20 21  2  0
 21 22  1  0
 22 23  2  0
 23 24  1  0
 24 25  2  0
 25 26  1  0
 25 27  1  0
 27 28  2  0
 28 29  1  0
 29 30  2  0
 12  7  1  0
 19 14  1  0
 30 20  1  0
 29 23  1  0
  3 31  1  0
  4 32  1  0
  4 33  1  0
  8 34  1  0
  8 35  1  0
  9 36  1  6
 10 37  1  0
 11 38  1  0
 11 39  1  0
 12 40  1  1
 13 41  1  0
 13 42  1  0
 15 43  1  0
 15 44  1  0
 16 45  1  0
 16 46  1  0
 17 47  1  0
 17 48  1  0
 18 49  1  0
 18 50  1  0
 19 51  1  0
 19 52  1  0
 21 53  1  0
 22 54  1  0
 24 55  1  0
 27 56  1  0
 28 57  1  0
M  END
>  <smiles>  (21) 
O=C(NCC(=O)N1C[C@H](O)C[C@H]1CN1CCCCC1)c1ccc2cc(F)ccc2n1

>  <score_type>  (21) 
oracle

>  <origin>  (21) 
autodockgpu

>  <m_score__min__energy>  (21) 
-8.3800000000000008

>  <m_primary>  (21) 
energy

>  <rmsd>  (21) 
2.917836102872366

>  <m_score__min__rmsd>  (21) 
2.917836102872366

>  <meeko>  (21) 
{"free_energy": -7.33, "intermolecular_energy": -9.42, "internal_energy": -1.98, "cluster_size": 33, "cluster_id": 1, "rank_in_cluster": 28}

>  <energy>  (21) 
-7.66

>  <cluster_rmsd>  (21) 
1.75

>  <cluster>  (21) 
1

$$$$

     RDKit          3D

 57 60  0  0  0  0  0  0  0  0999 V2000
  141.4950   75.2270  221.3170 O   0  0  0  0  0  0  0  0  0  0  0  0
  140.3790   75.1890  221.9270 C   0  0  0  0  0  0  0  0  0  0  0  0
  139.7580   73.9290  222.2220 N   0  0  0  0  0  0  0  0  0  0  0  0
  140.4400   72.6960  221.8040 C   0  0  0  0  0  0  0  0  0  0  0  0
  140.1550   71.6690  222.8320 C   0  0  0  0  0  0  0  0  0  0  0  0
  141.0280   71.1540  223.5730 O   0  0  0  0  0  0  0  0  0  0  0  0
  138.8120   71.2330  223.0020 N   0  0  0  0  0  0  0  0  0  0  0  0
  137.7710   71.0950  221.9700 C   0  0  0  0  0  0  0  0  0  0  0  0
  136.6210   71.7750  222.6970 C   0  0  2  0  0  0  0  0  0  0  0  0
  136.7790   73.1460  222.7200 O   0  0  0  0  0  0  0  0  0  0  0  0
  136.6770   71.1270  224.0570 C   0  0  0  0  0  0  0  0  0  0  0  0
  138.1440   70.8210  224.2250 C   0  0  1  0  0  0  0  0  0  0  0  0
  138.3770   69.3230  224.3490 C   0  0  0  0  0  0  0  0  0  0  0  0
  139.5260   69.0020  225.1410 N   0  0  0  0  0  0  0  0  0  0  0  0
  139.4610   67.7240  225.7740 C   0  0  0  0  0  0  0  0  0  0  0  0
  139.8100   67.7630  227.2400 C   0  0  0  0  0  0  0  0  0  0  0  0
  141.0710   68.5380  227.5220 C   0  0  0  0  0  0  0  0  0  0  0  0
  141.2370   69.7300  226.6060 C   0  0  0  0  0  0  0  0  0  0  0  0
  139.8380   70.0550  226.0670 C   0  0  0  0  0  0  0  0  0  0  0  0
  139.7100   76.4190  222.3380 C   0  0  0  0  0  0  0  0  0  0  0  0
  138.3210   76.4440  222.3430 C   0  0  0  0  0  0  0  0  0  0  0  0
  137.6420   77.5650  222.7180 C   0  0  0  0  0  0  0  0  0  0  0  0
  138.3700   78.6710  223.0890 C   0  0  0  0  0  0  0  0  0  0  0  0
  137.6780   79.8000  223.4670 C   0  0  0  0  0  0  0  0  0  0  0  0
  138.3480   80.9330  223.8490 C   0  0  0  0  0  0  0  0  0  0  0  0
  137.6770   82.0440  224.2190 F   0  0  0  0  0  0  0  0  0  0  0  0
  139.7200   80.9040  223.8430 C   0  0  0  0  0  0  0  0  0  0  0  0
  140.4110   79.7720  223.4640 C   0  0  0  0  0  0  0  0  0  0  0  0
  139.7570   78.6060  223.0710 C   0  0  0  0  0  0  0  0  0  0  0  0
  140.4240   77.5000  222.7020 N   0  0  0  0  0  0  0  0  0  0  0  0
  138.8470   73.8940  222.7200 H   0  0  0  0  0  0  0  0  0  0  0  0
  140.0583   72.3669  220.8263 H   0  0  0  0  0  0  0  0  0  0  0  0
  141.5231   72.8620  221.7071 H   0  0  0  0  0  0  0  0  0  0  0  0
  138.0393   71.6198  221.0412 H   0  0  0  0  0  0  0  0  0  0  0  0
  137.5742   70.0669  221.6321 H   0  0  0  0  0  0  0  0  0  0  0  0
  135.6380   71.6490  222.2196 H   0  0  0  0  0  0  0  0  0  0  0  0
  136.9670   73.4030  223.6570 H   0  0  0  0  0  0  0  0  0  0  0  0
  136.3246   71.8163  224.8385 H   0  0  0  0  0  0  0  0  0  0  0  0
  136.0356   70.2373  224.1407 H   0  0  0  0  0  0  0  0  0  0  0  0
  138.5153   71.3350  225.1239 H   0  0  0  0  0  0  0  0  0  0  0  0
  137.4909   68.8672  224.8150 H   0  0  0  0  0  0  0  0  0  0  0  0
  138.5538   68.9313  223.3364 H   0  0  0  0  0  0  0  0  0  0  0  0
  138.4374   67.3349  225.6696 H   0  0  0  0  0  0  0  0  0  0  0  0
  140.2034   67.0794  225.2807 H   0  0  0  0  0  0  0  0  0  0  0  0
  138.9792   68.2336  227.7862 H   0  0  0  0  0  0  0  0  0  0  0  0
  139.9795   66.7264  227.5667 H   0  0  0  0  0  0  0  0  0  0  0  0
  141.0405   68.8944  228.5622 H   0  0  0  0  0  0  0  0  0  0  0  0
  141.9227   67.8636  227.3495 H   0  0  0  0  0  0  0  0  0  0  0  0
  141.6386   70.5877  227.1656 H   0  0  0  0  0  0  0  0  0  0  0  0
  141.9403   69.5121  225.7888 H   0  0  0  0  0  0  0  0  0  0  0  0
  139.1055   70.0743  226.8874 H   0  0  0  0  0  0  0  0  0  0  0  0
  139.8073   71.0432  225.5847 H   0  0  0  0  0  0  0  0  0  0  0  0
  137.7613   75.5468  222.0402 H   0  0  0  0  0  0  0  0  0  0  0  0
  136.5422   77.5843  222.7237 H   0  0  0  0  0  0  0  0  0  0  0  0
  136.5780   79.7925  223.4623 H   0  0  0  0  0  0  0  0  0  0  0  0
  140.2796   81.8011  224.1464 H   0  0  0  0  0  0  0  0  0  0  0  0
  141.5108   79.7902  223.4722 H   0  0  0  0  0  0  0  0  0  0  0  0
  1  2  2  0
  2  3  1  0
  3  4  1  0
  4  5  1  0
  5  6  2  0
  5  7  1  0
  7  8  1  0
  8  9  1  0
  9 10  1  0
  9 11  1  0
 11 12  1  0
 12 13  1  0
 13 14  1  0
 14 15  1  0
 15 16  1  0
 16 17  1  0
 17 18  1  0
 18 19  1  0
  2 20  1  0
 20 21  2  0
 21 22  1  0
 22 23  2  0
 23 24  1  0
 24 25  2  0
 25 26  1  0
 25 27  1  0
 27 28  2  0
 28 29  1  0
 29 30  2  0
 12  7  1  0
 19 14  1  0
 30 20  1  0
 29 23  1  0
  3 31  1  0
  4 32  1  0
  4 33  1  0
  8 34  1  0
  8 35  1  0
  9 36  1  6
 10 37  1  0
 11 38  1  0
 11 39  1  0
 12 40  1  1
 13 41  1  0
 13 42  1  0
 15 43  1  0
 15 44  1  0
 16 45  1  0
 16 46  1  0
 17 47  1  0
 17 48  1  0
 18 49  1  0
 18 50  1  0
 19 51  1  0
 19 52  1  0
 21 53  1  0
 22 54  1  0
 24 55  1  0
 27 56  1  0
 28 57  1  0
M  END
>  <smiles>  (22) 
O=C(NCC(=O)N1C[C@H](O)C[C@H]1CN1CCCCC1)c1ccc2cc(F)ccc2n1

>  <score_type>  (22) 
oracle

>  <origin>  (22) 
autodockgpu

>  <m_score__min__energy>  (22) 
-8.3800000000000008

>  <m_primary>  (22) 
energy

>  <rmsd>  (22) 
9.46258273393677

>  <m_score__min__rmsd>  (22) 
9.46258273393677

>  <meeko>  (22) 
{"free_energy": -7.16, "intermolecular_energy": -9.25, "internal_energy": -2.17, "cluster_size": 3, "cluster_id": 4, "rank_in_cluster": 2}

>  <energy>  (22) 
-7.63

>  <cluster_rmsd>  (22) 
1.8

>  <cluster>  (22) 
1

$$$$

     RDKit          3D

 57 60  0  0  0  0  0  0  0  0999 V2000
  137.7430   73.7290  222.3470 O   0  0  0  0  0  0  0  0  0  0  0  0
  136.6920   73.1030  222.6960 C   0  0  0  0  0  0  0  0  0  0  0  0
  136.3570   71.8500  222.0800 N   0  0  0  0  0  0  0  0  0  0  0  0
  137.2520   71.3160  221.0440 C   0  0  0  0  0  0  0  0  0  0  0  0
  138.3270   70.5710  221.7390 C   0  0  0  0  0  0  0  0  0  0  0  0
  139.5180   70.5240  221.3440 O   0  0  0  0  0  0  0  0  0  0  0  0
  138.0030   69.8620  222.9270 N   0  0  0  0  0  0  0  0  0  0  0  0
  137.1870   68.6440  223.0570 C   0  0  0  0  0  0  0  0  0  0  0  0
  136.3060   69.0670  224.2220 C   0  0  2  0  0  0  0  0  0  0  0  0
  135.3470   69.9780  223.8260 O   0  0  0  0  0  0  0  0  0  0  0  0
  137.3140   69.6220  225.1970 C   0  0  0  0  0  0  0  0  0  0  0  0
  138.3940   70.1630  224.2940 C   0  0  1  0  0  0  0  0  0  0  0  0
  139.7110   69.4390  224.5260 C   0  0  0  0  0  0  0  0  0  0  0  0
  140.4790   70.0090  225.5910 N   0  0  0  0  0  0  0  0  0  0  0  0
  140.2570   69.4000  226.8630 C   0  0  0  0  0  0  0  0  0  0  0  0
  140.0030   70.3930  227.9680 C   0  0  0  0  0  0  0  0  0  0  0  0
  141.0020   71.5230  227.9810 C   0  0  0  0  0  0  0  0  0  0  0  0
  141.4330   71.9320  226.5900 C   0  0  0  0  0  0  0  0  0  0  0  0
  140.3360   71.4380  225.6380 C   0  0  0  0  0  0  0  0  0  0  0  0
  135.8090   73.6410  223.7260 C   0  0  0  0  0  0  0  0  0  0  0  0
  135.8120   75.0130  223.9460 C   0  0  0  0  0  0  0  0  0  0  0  0
  135.0090   75.5730  224.8940 C   0  0  0  0  0  0  0  0  0  0  0  0
  134.1970   74.7410  225.6290 C   0  0  0  0  0  0  0  0  0  0  0  0
  133.3870   75.3120  226.5860 C   0  0  0  0  0  0  0  0  0  0  0  0
  132.5550   74.5350  227.3490 C   0  0  0  0  0  0  0  0  0  0  0  0
  131.7600   75.0870  228.2890 F   0  0  0  0  0  0  0  0  0  0  0  0
  132.5560   73.1800  227.1290 C   0  0  0  0  0  0  0  0  0  0  0  0
  133.3670   72.6100  226.1710 C   0  0  0  0  0  0  0  0  0  0  0  0
  134.2230   73.3750  225.3800 C   0  0  0  0  0  0  0  0  0  0  0  0
  135.0150   72.8260  224.4450 N   0  0  0  0  0  0  0  0  0  0  0  0
  135.5000   71.3360  222.3630 H   0  0  0  0  0  0  0  0  0  0  0  0
  136.6961   70.6412  220.3764 H   0  0  0  0  0  0  0  0  0  0  0  0
  137.6711   72.1283  220.4321 H   0  0  0  0  0  0  0  0  0  0  0  0
  136.6001   68.4425  222.1487 H   0  0  0  0  0  0  0  0  0  0  0  0
  137.7514   67.7117  223.2065 H   0  0  0  0  0  0  0  0  0  0  0  0
  135.7074   68.2558  224.6619 H   0  0  0  0  0  0  0  0  0  0  0  0
  135.5690   70.8420  224.2540 H   0  0  0  0  0  0  0  0  0  0  0  0
  136.8729   70.4220  225.8097 H   0  0  0  0  0  0  0  0  0  0  0  0
  137.6821   68.8736  225.9143 H   0  0  0  0  0  0  0  0  0  0  0  0
  138.5169   71.2385  224.4894 H   0  0  0  0  0  0  0  0  0  0  0  0
  139.4958   68.3886  224.7715 H   0  0  0  0  0  0  0  0  0  0  0  0
  140.3050   69.5302  223.6047 H   0  0  0  0  0  0  0  0  0  0  0  0
  139.3835   68.7362  226.7837 H   0  0  0  0  0  0  0  0  0  0  0  0
  141.1744   68.8522  227.1244 H   0  0  0  0  0  0  0  0  0  0  0  0
  138.9962   70.8158  227.8357 H   0  0  0  0  0  0  0  0  0  0  0  0
  140.0985   69.8562  228.9234 H   0  0  0  0  0  0  0  0  0  0  0  0
  140.5456   72.3915  228.4784 H   0  0  0  0  0  0  0  0  0  0  0  0
  141.8957   71.1725  228.5180 H   0  0  0  0  0  0  0  0  0  0  0  0
  141.5282   73.0260  226.5268 H   0  0  0  0  0  0  0  0  0  0  0  0
  142.4115   71.5012  226.3312 H   0  0  0  0  0  0  0  0  0  0  0  0
  139.3424   71.7119  226.0222 H   0  0  0  0  0  0  0  0  0  0  0  0
  140.4306   71.8893  224.6393 H   0  0  0  0  0  0  0  0  0  0  0  0
  136.4723   75.6566  223.3461 H   0  0  0  0  0  0  0  0  0  0  0  0
  135.0102   76.6594  225.0665 H   0  0  0  0  0  0  0  0  0  0  0  0
  133.4082   76.4011  226.7390 H   0  0  0  0  0  0  0  0  0  0  0  0
  131.8964   72.5361  227.7292 H   0  0  0  0  0  0  0  0  0  0  0  0
  133.3379   71.5199  226.0265 H   0  0  0  0  0  0  0  0  0  0  0  0
  1  2  2  0
  2  3  1  0
  3  4  1  0
  4  5  1  0
  5  6  2  0
  5  7  1  0
  7  8  1  0
  8  9  1  0
  9 10  1  0
  9 11  1  0
 11 12  1  0
 12 13  1  0
 13 14  1  0
 14 15  1  0
 15 16  1  0
 16 17  1  0
 17 18  1  0
 18 19  1  0
  2 20  1  0
 20 21  2  0
 21 22  1  0
 22 23  2  0
 23 24  1  0
 24 25  2  0
 25 26  1  0
 25 27  1  0
 27 28  2  0
 28 29  1  0
 29 30  2  0
 12  7  1  0
 19 14  1  0
 30 20  1  0
 29 23  1  0
  3 31  1  0
  4 32  1  0
  4 33  1  0
  8 34  1  0
  8 35  1  0
  9 36  1  1
 10 37  1  0
 11 38  1  0
 11 39  1  0
 12 40  1  6
 13 41  1  0
 13 42  1  0
 15 43  1  0
 15 44  1  0
 16 45  1  0
 16 46  1  0
 17 47  1  0
 17 48  1  0
 18 49  1  0
 18 50  1  0
 19 51  1  0
 19 52  1  0
 21 53  1  0
 22 54  1  0
 24 55  1  0
 27 56  1  0
 28 57  1  0
M  END
>  <smiles>  (23) 
O=C(NCC(=O)N1C[C@H](O)C[C@H]1CN1CCCCC1)c1ccc2cc(F)ccc2n1

>  <score_type>  (23) 
oracle

>  <origin>  (23) 
autodockgpu

>  <m_score__min__energy>  (23) 
-8.3800000000000008

>  <m_primary>  (23) 
energy

>  <rmsd>  (23) 
8.753985006067122

>  <m_score__min__rmsd>  (23) 
8.753985006067122

>  <meeko>  (23) 
{"free_energy": -5.57, "intermolecular_energy": -7.65, "internal_energy": -3.6, "cluster_size": 1, "cluster_id": 7, "rank_in_cluster": 1}

>  <energy>  (23) 
-7.56

>  <cluster_rmsd>  (23) 
1.85

>  <cluster>  (23) 
1

$$$$

     RDKit          3D

 57 60  0  0  0  0  0  0  0  0999 V2000
  140.7670   71.9550  222.1040 O   0  0  0  0  0  0  0  0  0  0  0  0
  139.8670   71.8030  222.9900 C   0  0  0  0  0  0  0  0  0  0  0  0
  138.5300   72.2710  222.7520 N   0  0  0  0  0  0  0  0  0  0  0  0
  138.2350   72.9240  221.4700 C   0  0  0  0  0  0  0  0  0  0  0  0
  138.3890   74.3830  221.6770 C   0  0  0  0  0  0  0  0  0  0  0  0
  137.5950   75.0850  222.3500 O   0  0  0  0  0  0  0  0  0  0  0  0
  139.5010   75.0390  221.0830 N   0  0  0  0  0  0  0  0  0  0  0  0
  139.8420   75.1220  219.6530 C   0  0  0  0  0  0  0  0  0  0  0  0
  141.3220   74.7800  219.7390 C   0  0  2  0  0  0  0  0  0  0  0  0
  141.5160   73.4330  219.9720 O   0  0  0  0  0  0  0  0  0  0  0  0
  141.7900   75.6700  220.8610 C   0  0  0  0  0  0  0  0  0  0  0  0
  140.5660   75.7820  221.7360 C   0  0  1  0  0  0  0  0  0  0  0  0
  140.0850   77.2230  221.8190 C   0  0  0  0  0  0  0  0  0  0  0  0
  141.1530   78.1540  222.0270 N   0  0  0  0  0  0  0  0  0  0  0  0
  141.5590   78.2820  223.3900 C   0  0  0  0  0  0  0  0  0  0  0  0
  141.6720   79.7130  223.8500 C   0  0  0  0  0  0  0  0  0  0  0  0
  142.4380   80.5810  222.8840 C   0  0  0  0  0  0  0  0  0  0  0  0
  142.1940   80.1980  221.4410 C   0  0  0  0  0  0  0  0  0  0  0  0
  140.8690   79.4250  221.4210 C   0  0  0  0  0  0  0  0  0  0  0  0
  140.1710   71.1520  224.2610 C   0  0  0  0  0  0  0  0  0  0  0  0
  140.7820   71.9040  225.2570 C   0  0  0  0  0  0  0  0  0  0  0  0
  141.0890   71.3500  226.4640 C   0  0  0  0  0  0  0  0  0  0  0  0
  140.7800   70.0260  226.6670 C   0  0  0  0  0  0  0  0  0  0  0  0
  141.0930   69.4710  227.8880 C   0  0  0  0  0  0  0  0  0  0  0  0
  140.8080   68.1570  228.1510 C   0  0  0  0  0  0  0  0  0  0  0  0
  141.1130   67.6070  229.3450 F   0  0  0  0  0  0  0  0  0  0  0  0
  140.2050   67.4180  227.1640 C   0  0  0  0  0  0  0  0  0  0  0  0
  139.8930   67.9750  225.9420 C   0  0  0  0  0  0  0  0  0  0  0  0
  140.1700   69.3080  225.6470 C   0  0  0  0  0  0  0  0  0  0  0  0
  139.8680   69.8560  224.4580 N   0  0  0  0  0  0  0  0  0  0  0  0
  137.7930   72.1480  223.4730 H   0  0  0  0  0  0  0  0  0  0  0  0
  138.9383   72.5762  220.6991 H   0  0  0  0  0  0  0  0  0  0  0  0
  137.2160   72.6823  221.1335 H   0  0  0  0  0  0  0  0  0  0  0  0
  139.2837   74.3884  219.0529 H   0  0  0  0  0  0  0  0  0  0  0  0
  139.6060   76.0797  219.1660 H   0  0  0  0  0  0  0  0  0  0  0  0
  141.8868   74.9533  218.8111 H   0  0  0  0  0  0  0  0  0  0  0  0
  141.0950   73.2230  220.8420 H   0  0  0  0  0  0  0  0  0  0  0  0
  142.6266   75.2105  221.4078 H   0  0  0  0  0  0  0  0  0  0  0  0
  142.1666   76.6437  220.5146 H   0  0  0  0  0  0  0  0  0  0  0  0
  140.8111   75.4089  222.7413 H   0  0  0  0  0  0  0  0  0  0  0  0
  139.5749   77.4779  220.8783 H   0  0  0  0  0  0  0  0  0  0  0  0
  139.4086   77.2968  222.6833 H   0  0  0  0  0  0  0  0  0  0  0  0
  140.8199   77.7696  224.0234 H   0  0  0  0  0  0  0  0  0  0  0  0
  142.5604   77.8344  223.4736 H   0  0  0  0  0  0  0  0  0  0  0  0
  140.6589   80.1257  223.9653 H   0  0  0  0  0  0  0  0  0  0  0  0
  142.2240   79.7113  224.8015 H   0  0  0  0  0  0  0  0  0  0  0  0
  142.1290   81.6268  223.0283 H   0  0  0  0  0  0  0  0  0  0  0  0
  143.5099   80.4435  223.0893 H   0  0  0  0  0  0  0  0  0  0  0  0
  142.1191   81.0992  220.8148 H   0  0  0  0  0  0  0  0  0  0  0  0
  143.0191   79.5891  221.0431 H   0  0  0  0  0  0  0  0  0  0  0  0
  140.1023   79.9626  221.9982 H   0  0  0  0  0  0  0  0  0  0  0  0
  140.4807   79.3101  220.3983 H   0  0  0  0  0  0  0  0  0  0  0  0
  141.0212   72.9610  225.0688 H   0  0  0  0  0  0  0  0  0  0  0  0
  141.5705   71.9457  227.2535 H   0  0  0  0  0  0  0  0  0  0  0  0
  141.5764   70.0886  228.6593 H   0  0  0  0  0  0  0  0  0  0  0  0
  139.9660   66.3608  227.3516 H   0  0  0  0  0  0  0  0  0  0  0  0
  139.4110   67.3482  225.1773 H   0  0  0  0  0  0  0  0  0  0  0  0
  1  2  2  0
  2  3  1  0
  3  4  1  0
  4  5  1  0
  5  6  2  0
  5  7  1  0
  7  8  1  0
  8  9  1  0
  9 10  1  0
  9 11  1  0
 11 12  1  0
 12 13  1  0
 13 14  1  0
 14 15  1  0
 15 16  1  0
 16 17  1  0
 17 18  1  0
 18 19  1  0
  2 20  1  0
 20 21  2  0
 21 22  1  0
 22 23  2  0
 23 24  1  0
 24 25  2  0
 25 26  1  0
 25 27  1  0
 27 28  2  0
 28 29  1  0
 29 30  2  0
 12  7  1  0
 19 14  1  0
 30 20  1  0
 29 23  1  0
  3 31  1  0
  4 32  1  0
  4 33  1  0
  8 34  1  0
  8 35  1  0
  9 36  1  6
 10 37  1  0
 11 38  1  0
 11 39  1  0
 12 40  1  1
 13 41  1  0
 13 42  1  0
 15 43  1  0
 15 44  1  0
 16 45  1  0
 16 46  1  0
 17 47  1  0
 17 48  1  0
 18 49  1  0
 18 50  1  0
 19 51  1  0
 19 52  1  0
 21 53  1  0
 22 54  1  0
 24 55  1  0
 27 56  1  0
 28 57  1  0
M  END
>  <smiles>  (24) 
O=C(NCC(=O)N1C[C@H](O)C[C@H]1CN1CCCCC1)c1ccc2cc(F)ccc2n1

>  <score_type>  (24) 
oracle

>  <origin>  (24) 
autodockgpu

>  <m_score__min__energy>  (24) 
-8.3800000000000008

>  <m_primary>  (24) 
energy

>  <rmsd>  (24) 
2.814018476896445

>  <m_score__min__rmsd>  (24) 
2.814018476896445

>  <meeko>  (24) 
{"free_energy": -7.43, "intermolecular_energy": -9.52, "internal_energy": -2.27, "cluster_size": 33, "cluster_id": 1, "rank_in_cluster": 26}

>  <energy>  (24) 
-7.51

>  <cluster_rmsd>  (24) 
1.64

>  <cluster>  (24) 
1

$$$$

     RDKit          3D

 57 60  0  0  0  0  0  0  0  0999 V2000
  141.1580   72.4830  221.8150 O   0  0  0  0  0  0  0  0  0  0  0  0
  140.1490   72.4160  222.5880 C   0  0  0  0  0  0  0  0  0  0  0  0
  138.9960   73.2380  222.3470 N   0  0  0  0  0  0  0  0  0  0  0  0
  139.0140   74.1490  221.1950 C   0  0  0  0  0  0  0  0  0  0  0  0
  139.8910   75.2880  221.5530 C   0  0  0  0  0  0  0  0  0  0  0  0
  139.8740   75.8650  222.6680 O   0  0  0  0  0  0  0  0  0  0  0  0
  140.8140   75.7660  220.5830 N   0  0  0  0  0  0  0  0  0  0  0  0
  140.9530   75.3360  219.1820 C   0  0  0  0  0  0  0  0  0  0  0  0
  142.4650   75.1780  219.1280 C   0  0  2  0  0  0  0  0  0  0  0  0
  142.8760   74.0370  219.7890 O   0  0  0  0  0  0  0  0  0  0  0  0
  142.9420   76.4600  219.7610 C   0  0  0  0  0  0  0  0  0  0  0  0
  141.8370   76.7870  220.7350 C   0  0  1  0  0  0  0  0  0  0  0  0
  141.1710   78.1080  220.3800 C   0  0  0  0  0  0  0  0  0  0  0  0
  141.1140   79.0170  221.4850 N   0  0  0  0  0  0  0  0  0  0  0  0
  141.8680   80.2140  221.2970 C   0  0  0  0  0  0  0  0  0  0  0  0
  142.7580   80.5530  222.4650 C   0  0  0  0  0  0  0  0  0  0  0  0
  142.0450   80.4650  223.7900 C   0  0  0  0  0  0  0  0  0  0  0  0
  141.0280   79.3450  223.8280 C   0  0  0  0  0  0  0  0  0  0  0  0
  141.4330   78.3610  222.7230 C   0  0  0  0  0  0  0  0  0  0  0  0
  140.1410   71.5070  223.7290 C   0  0  0  0  0  0  0  0  0  0  0  0
  139.6160   70.2320  223.5540 C   0  0  0  0  0  0  0  0  0  0  0  0
  139.5830   69.3400  224.5830 C   0  0  0  0  0  0  0  0  0  0  0  0
  140.0820   69.7370  225.8020 C   0  0  0  0  0  0  0  0  0  0  0  0
  140.0450   68.8310  226.8390 C   0  0  0  0  0  0  0  0  0  0  0  0
  140.5280   69.1680  228.0760 C   0  0  0  0  0  0  0  0  0  0  0  0
  140.4950   68.2860  229.0970 F   0  0  0  0  0  0  0  0  0  0  0  0
  141.0460   70.4280  228.2460 C   0  0  0  0  0  0  0  0  0  0  0  0
  141.0810   71.3330  227.2060 C   0  0  0  0  0  0  0  0  0  0  0  0
  140.5970   71.0190  225.9380 C   0  0  0  0  0  0  0  0  0  0  0  0
  140.6300   71.8960  224.9210 N   0  0  0  0  0  0  0  0  0  0  0  0
  138.1710   73.1850  222.9750 H   0  0  0  0  0  0  0  0  0  0  0  0
  139.4117   73.6304  220.3102 H   0  0  0  0  0  0  0  0  0  0  0  0
  137.9984   74.4974  220.9559 H   0  0  0  0  0  0  0  0  0  0  0  0
  140.4323   74.3865  218.9888 H   0  0  0  0  0  0  0  0  0  0  0  0
  140.5225   76.0178  218.4339 H   0  0  0  0  0  0  0  0  0  0  0  0
  142.8761   75.0391  218.1172 H   0  0  0  0  0  0  0  0  0  0  0  0
  142.1340   73.7580  220.3800 H   0  0  0  0  0  0  0  0  0  0  0  0
  143.8986   76.3114  220.2833 H   0  0  0  0  0  0  0  0  0  0  0  0
  143.1287   77.2615  219.0311 H   0  0  0  0  0  0  0  0  0  0  0  0
  142.2592   76.8396  221.7494 H   0  0  0  0  0  0  0  0  0  0  0  0
  141.7399   78.5804  219.5657 H   0  0  0  0  0  0  0  0  0  0  0  0
  140.1360   77.8864  220.0806 H   0  0  0  0  0  0  0  0  0  0  0  0
  142.4976   80.0923  220.4032 H   0  0  0  0  0  0  0  0  0  0  0  0
  141.1467   81.0375  221.1899 H   0  0  0  0  0  0  0  0  0  0  0  0
  143.6058   79.8523  222.4753 H   0  0  0  0  0  0  0  0  0  0  0  0
  143.0892   81.5941  222.3366 H   0  0  0  0  0  0  0  0  0  0  0  0
  142.7900   80.2919  224.5806 H   0  0  0  0  0  0  0  0  0  0  0  0
  141.5055   81.4114  223.9426 H   0  0  0  0  0  0  0  0  0  0  0  0
  141.0466   78.8462  224.8083 H   0  0  0  0  0  0  0  0  0  0  0  0
  140.0075   79.7249  223.6720 H   0  0  0  0  0  0  0  0  0  0  0  0
  142.5103   78.1455  222.7768 H   0  0  0  0  0  0  0  0  0  0  0  0
  140.9073   77.3998  222.8214 H   0  0  0  0  0  0  0  0  0  0  0  0
  139.2213   69.9389  222.5700 H   0  0  0  0  0  0  0  0  0  0  0  0
  139.1689   68.3305  224.4431 H   0  0  0  0  0  0  0  0  0  0  0  0
  139.6241   67.8285  226.6725 H   0  0  0  0  0  0  0  0  0  0  0  0
  141.4405   70.7212  229.2301 H   0  0  0  0  0  0  0  0  0  0  0  0
  141.5038   72.3329  227.3830 H   0  0  0  0  0  0  0  0  0  0  0  0
  1  2  2  0
  2  3  1  0
  3  4  1  0
  4  5  1  0
  5  6  2  0
  5  7  1  0
  7  8  1  0
  8  9  1  0
  9 10  1  0
  9 11  1  0
 11 12  1  0
 12 13  1  0
 13 14  1  0
 14 15  1  0
 15 16  1  0
 16 17  1  0
 17 18  1  0
 18 19  1  0
  2 20  1  0
 20 21  2  0
 21 22  1  0
 22 23  2  0
 23 24  1  0
 24 25  2  0
 25 26  1  0
 25 27  1  0
 27 28  2  0
 28 29  1  0
 29 30  2  0
 12  7  1  0
 19 14  1  0
 30 20  1  0
 29 23  1  0
  3 31  1  0
  4 32  1  0
  4 33  1  0
  8 34  1  0
  8 35  1  0
  9 36  1  6
 10 37  1  0
 11 38  1  0
 11 39  1  0
 12 40  1  1
 13 41  1  0
 13 42  1  0
 15 43  1  0
 15 44  1  0
 16 45  1  0
 16 46  1  0
 17 47  1  0
 17 48  1  0
 18 49  1  0
 18 50  1  0
 19 51  1  0
 19 52  1  0
 21 53  1  0
 22 54  1  0
 24 55  1  0
 27 56  1  0
 28 57  1  0
M  END
>  <smiles>  (25) 
O=C(NCC(=O)N1C[C@H](O)C[C@H]1CN1CCCCC1)c1ccc2cc(F)ccc2n1

>  <score_type>  (25) 
oracle

>  <origin>  (25) 
autodockgpu

>  <m_score__min__energy>  (25) 
-8.3800000000000008

>  <m_primary>  (25) 
energy

>  <rmsd>  (25) 
2.36339777062865

>  <m_score__min__rmsd>  (25) 
2.36339777062865

>  <meeko>  (25) 
{"free_energy": -8.25, "intermolecular_energy": -10.34, "internal_energy": -2.27, "cluster_size": 33, "cluster_id": 1, "rank_in_cluster": 6}

>  <energy>  (25) 
-7.49

>  <cluster_rmsd>  (25) 
1.57

>  <cluster>  (25) 
1

$$$$

     RDKit          3D

 57 60  0  0  0  0  0  0  0  0999 V2000
  136.0880   71.6570  221.5750 O   0  0  0  0  0  0  0  0  0  0  0  0
  137.0150   72.0790  222.3370 C   0  0  0  0  0  0  0  0  0  0  0  0
  137.3680   73.4700  222.3470 N   0  0  0  0  0  0  0  0  0  0  0  0
  136.6370   74.3850  221.4600 C   0  0  0  0  0  0  0  0  0  0  0  0
  137.3910   75.6600  221.4300 C   0  0  0  0  0  0  0  0  0  0  0  0
  136.8610   76.7930  221.5420 O   0  0  0  0  0  0  0  0  0  0  0  0
  138.8020   75.6100  221.2680 N   0  0  0  0  0  0  0  0  0  0  0  0
  139.5840   74.6630  220.4560 C   0  0  0  0  0  0  0  0  0  0  0  0
  140.6600   74.3080  221.4710 C   0  0  2  0  0  0  0  0  0  0  0  0
  140.1720   73.4670  222.4510 O   0  0  0  0  0  0  0  0  0  0  0  0
  141.0770   75.6650  221.9800 C   0  0  0  0  0  0  0  0  0  0  0  0
  139.8100   76.4760  221.8570 C   0  0  1  0  0  0  0  0  0  0  0  0
  139.9950   77.6310  220.8860 C   0  0  0  0  0  0  0  0  0  0  0  0
  140.4290   78.8350  221.5290 N   0  0  0  0  0  0  0  0  0  0  0  0
  141.8250   79.0990  221.3940 C   0  0  0  0  0  0  0  0  0  0  0  0
  142.4990   79.4470  222.6970 C   0  0  0  0  0  0  0  0  0  0  0  0
  141.7400   80.4780  223.4920 C   0  0  0  0  0  0  0  0  0  0  0  0
  140.2410   80.3300  223.3550 C   0  0  0  0  0  0  0  0  0  0  0  0
  139.9930   78.8870  222.8970 C   0  0  0  0  0  0  0  0  0  0  0  0
  137.7350   71.1610  223.2150 C   0  0  0  0  0  0  0  0  0  0  0  0
  137.1490   69.9370  223.5130 C   0  0  0  0  0  0  0  0  0  0  0  0
  137.7750   69.0400  224.3260 C   0  0  0  0  0  0  0  0  0  0  0  0
  139.0010   69.3820  224.8450 C   0  0  0  0  0  0  0  0  0  0  0  0
  139.6290   68.4720  225.6670 C   0  0  0  0  0  0  0  0  0  0  0  0
  140.8530   68.7540  226.2140 C   0  0  0  0  0  0  0  0  0  0  0  0
  141.4740   67.8680  227.0200 F   0  0  0  0  0  0  0  0  0  0  0  0
  141.4290   69.9650  225.9170 C   0  0  0  0  0  0  0  0  0  0  0  0
  140.7990   70.8750  225.0940 C   0  0  0  0  0  0  0  0  0  0  0  0
  139.5540   70.6150  224.5250 C   0  0  0  0  0  0  0  0  0  0  0  0
  138.9350   71.4970  223.7220 N   0  0  0  0  0  0  0  0  0  0  0  0
  138.1240   73.8180  222.9690 H   0  0  0  0  0  0  0  0  0  0  0  0
  136.5752   73.9595  220.4475 H   0  0  0  0  0  0  0  0  0  0  0  0
  135.6114   74.5458  221.8237 H   0  0  0  0  0  0  0  0  0  0  0  0
  138.9904   73.7853  220.1607 H   0  0  0  0  0  0  0  0  0  0  0  0
  139.9512   75.0550  219.4960 H   0  0  0  0  0  0  0  0  0  0  0  0
  141.5084   73.7412  221.0598 H   0  0  0  0  0  0  0  0  0  0  0  0
  139.5470   72.8380  222.0130 H   0  0  0  0  0  0  0  0  0  0  0  0
  141.4111   75.6095  223.0265 H   0  0  0  0  0  0  0  0  0  0  0  0
  141.9236   76.0955  221.4250 H   0  0  0  0  0  0  0  0  0  0  0  0
  139.5339   76.8611  222.8497 H   0  0  0  0  0  0  0  0  0  0  0  0
  140.7468   77.3426  220.1365 H   0  0  0  0  0  0  0  0  0  0  0  0
  139.0169   77.8361  220.4264 H   0  0  0  0  0  0  0  0  0  0  0  0
  142.3104   78.2033  220.9790 H   0  0  0  0  0  0  0  0  0  0  0  0
  141.9272   79.9723  220.7330 H   0  0  0  0  0  0  0  0  0  0  0  0
  142.5874   78.5325  223.3018 H   0  0  0  0  0  0  0  0  0  0  0  0
  143.4834   79.8746  222.4559 H   0  0  0  0  0  0  0  0  0  0  0  0
  142.0089   80.3725  224.5534 H   0  0  0  0  0  0  0  0  0  0  0  0
  142.0142   81.4688  223.1006 H   0  0  0  0  0  0  0  0  0  0  0  0
  139.7499   80.5128  224.3222 H   0  0  0  0  0  0  0  0  0  0  0  0
  139.8309   81.0546  222.6361 H   0  0  0  0  0  0  0  0  0  0  0  0
  140.5738   78.1839  223.5120 H   0  0  0  0  0  0  0  0  0  0  0  0
  138.9347   78.6044  222.9977 H   0  0  0  0  0  0  0  0  0  0  0  0
  136.1659   69.6884  223.0867 H   0  0  0  0  0  0  0  0  0  0  0  0
  137.3123   68.0699  224.5602 H   0  0  0  0  0  0  0  0  0  0  0  0
  139.1430   67.5098  225.8862 H   0  0  0  0  0  0  0  0  0  0  0  0
  142.4118   70.2139  226.3438 H   0  0  0  0  0  0  0  0  0  0  0  0
  141.2939   71.8339  224.8806 H   0  0  0  0  0  0  0  0  0  0  0  0
  1  2  2  0
  2  3  1  0
  3  4  1  0
  4  5  1  0
  5  6  2  0
  5  7  1  0
  7  8  1  0
  8  9  1  0
  9 10  1  0
  9 11  1  0
 11 12  1  0
 12 13  1  0
 13 14  1  0
 14 15  1  0
 15 16  1  0
 16 17  1  0
 17 18  1  0
 18 19  1  0
  2 20  1  0
 20 21  2  0
 21 22  1  0
 22 23  2  0
 23 24  1  0
 24 25  2  0
 25 26  1  0
 25 27  1  0
 27 28  2  0
 28 29  1  0
 29 30  2  0
 12  7  1  0
 19 14  1  0
 30 20  1  0
 29 23  1  0
  3 31  1  0
  4 32  1  0
  4 33  1  0
  8 34  1  0
  8 35  1  0
  9 36  1  6
 10 37  1  0
 11 38  1  0
 11 39  1  0
 12 40  1  1
 13 41  1  0
 13 42  1  0
 15 43  1  0
 15 44  1  0
 16 45  1  0
 16 46  1  0
 17 47  1  0
 17 48  1  0
 18 49  1  0
 18 50  1  0
 19 51  1  0
 19 52  1  0
 21 53  1  0
 22 54  1  0
 24 55  1  0
 27 56  1  0
 28 57  1  0
M  END
>  <smiles>  (26) 
O=C(NCC(=O)N1C[C@H](O)C[C@H]1CN1CCCCC1)c1ccc2cc(F)ccc2n1

>  <score_type>  (26) 
oracle

>  <origin>  (26) 
autodockgpu

>  <m_score__min__energy>  (26) 
-8.3800000000000008

>  <m_primary>  (26) 
energy

>  <rmsd>  (26) 
2.758784691013914

>  <m_score__min__rmsd>  (26) 
2.758784691013914

>  <meeko>  (26) 
{"free_energy": -6.87, "intermolecular_energy": -8.96, "internal_energy": -3.1, "cluster_size": 7, "cluster_id": 2, "rank_in_cluster": 6}

>  <energy>  (26) 
-7.43

>  <cluster_rmsd>  (26) 
1.63

>  <cluster>  (26) 
1

$$$$

     RDKit          3D

 57 60  0  0  0  0  0  0  0  0999 V2000
  136.4120   71.1300  221.8600 O   0  0  0  0  0  0  0  0  0  0  0  0
  137.3480   71.6630  222.5370 C   0  0  0  0  0  0  0  0  0  0  0  0
  137.7410   73.0210  222.2850 N   0  0  0  0  0  0  0  0  0  0  0  0
  137.0390   73.7700  221.2340 C   0  0  0  0  0  0  0  0  0  0  0  0
  137.5140   75.1710  221.3040 C   0  0  0  0  0  0  0  0  0  0  0  0
  136.7590   76.1640  221.4460 O   0  0  0  0  0  0  0  0  0  0  0  0
  138.9110   75.4200  221.2070 N   0  0  0  0  0  0  0  0  0  0  0  0
  139.9000   74.7010  220.3860 C   0  0  0  0  0  0  0  0  0  0  0  0
  140.9880   74.5130  221.4320 C   0  0  2  0  0  0  0  0  0  0  0  0
  140.6480   73.5320  222.3430 O   0  0  0  0  0  0  0  0  0  0  0  0
  141.0980   75.8930  222.0290 C   0  0  0  0  0  0  0  0  0  0  0  0
  139.6970   76.4350  221.8880 C   0  0  1  0  0  0  0  0  0  0  0  0
  139.6760   77.6600  220.9870 C   0  0  0  0  0  0  0  0  0  0  0  0
  140.1890   78.8320  221.6300 N   0  0  0  0  0  0  0  0  0  0  0  0
  141.5760   79.0710  221.3880 C   0  0  0  0  0  0  0  0  0  0  0  0
  142.3620   79.3600  222.6410 C   0  0  0  0  0  0  0  0  0  0  0  0
  141.6960   80.3810  223.5280 C   0  0  0  0  0  0  0  0  0  0  0  0
  140.1880   80.2690  223.5110 C   0  0  0  0  0  0  0  0  0  0  0  0
  139.8690   78.8470  223.0310 C   0  0  0  0  0  0  0  0  0  0  0  0
  138.0380   70.9110  223.5800 C   0  0  0  0  0  0  0  0  0  0  0  0
  137.7080   69.5730  223.7560 C   0  0  0  0  0  0  0  0  0  0  0  0
  138.3190   68.8200  224.7130 C   0  0  0  0  0  0  0  0  0  0  0  0
  139.2720   69.4230  225.5010 C   0  0  0  0  0  0  0  0  0  0  0  0
  139.8870   68.6570  226.4670 C   0  0  0  0  0  0  0  0  0  0  0  0
  140.8450   69.2010  227.2820 C   0  0  0  0  0  0  0  0  0  0  0  0
  141.4510   68.4570  228.2320 F   0  0  0  0  0  0  0  0  0  0  0  0
  141.1680   70.5230  227.1050 C   0  0  0  0  0  0  0  0  0  0  0  0
  140.5520   71.2880  226.1370 C   0  0  0  0  0  0  0  0  0  0  0  0
  139.5740   70.7620  225.2940 C   0  0  0  0  0  0  0  0  0  0  0  0
  138.9700   71.5010  224.3500 N   0  0  0  0  0  0  0  0  0  0  0  0
  138.5040   73.4600  222.8360 H   0  0  0  0  0  0  0  0  0  0  0  0
  137.2707   73.3422  220.2474 H   0  0  0  0  0  0  0  0  0  0  0  0
  135.9498   73.7190  221.3789 H   0  0  0  0  0  0  0  0  0  0  0  0
  139.5105   73.7400  220.0190 H   0  0  0  0  0  0  0  0  0  0  0  0
  140.2133   75.2152  219.4654 H   0  0  0  0  0  0  0  0  0  0  0  0
  141.9497   74.1572  221.0339 H   0  0  0  0  0  0  0  0  0  0  0  0
  139.8830   73.0330  221.9640 H   0  0  0  0  0  0  0  0  0  0  0  0
  141.3987   75.8439  223.0860 H   0  0  0  0  0  0  0  0  0  0  0  0
  141.8571   76.5192  221.5375 H   0  0  0  0  0  0  0  0  0  0  0  0
  139.3118   76.6949  222.8850 H   0  0  0  0  0  0  0  0  0  0  0  0
  140.2875   77.4517  220.0967 H   0  0  0  0  0  0  0  0  0  0  0  0
  138.6266   77.8594  220.7245 H   0  0  0  0  0  0  0  0  0  0  0  0
  142.0042   78.1799  220.9057 H   0  0  0  0  0  0  0  0  0  0  0  0
  141.6446   79.9637  220.7490 H   0  0  0  0  0  0  0  0  0  0  0  0
  142.4764   78.4240  223.2075 H   0  0  0  0  0  0  0  0  0  0  0  0
  143.3339   79.7733  222.3335 H   0  0  0  0  0  0  0  0  0  0  0  0
  142.0487   80.2353  224.5597 H   0  0  0  0  0  0  0  0  0  0  0  0
  141.9609   81.3781  223.1463 H   0  0  0  0  0  0  0  0  0  0  0  0
  139.7824   80.4305  224.5206 H   0  0  0  0  0  0  0  0  0  0  0  0
  139.7376   81.0250  222.8510 H   0  0  0  0  0  0  0  0  0  0  0  0
  140.4822   78.1120  223.5730 H   0  0  0  0  0  0  0  0  0  0  0  0
  138.8166   78.5827  223.2113 H   0  0  0  0  0  0  0  0  0  0  0  0
  136.9420   69.1148  223.1131 H   0  0  0  0  0  0  0  0  0  0  0  0
  138.0579   67.7605  224.8516 H   0  0  0  0  0  0  0  0  0  0  0  0
  139.6067   67.5999  226.5851 H   0  0  0  0  0  0  0  0  0  0  0  0
  141.9336   70.9816  227.7481 H   0  0  0  0  0  0  0  0  0  0  0  0
  140.8406   72.3437  226.0268 H   0  0  0  0  0  0  0  0  0  0  0  0
  1  2  2  0
  2  3  1  0
  3  4  1  0
  4  5  1  0
  5  6  2  0
  5  7  1  0
  7  8  1  0
  8  9  1  0
  9 10  1  0
  9 11  1  0
 11 12  1  0
 12 13  1  0
 13 14  1  0
 14 15  1  0
 15 16  1  0
 16 17  1  0
 17 18  1  0
 18 19  1  0
  2 20  1  0
 20 21  2  0
 21 22  1  0
 22 23  2  0
 23 24  1  0
 24 25  2  0
 25 26  1  0
 25 27  1  0
 27 28  2  0
 28 29  1  0
 29 30  2  0
 12  7  1  0
 19 14  1  0
 30 20  1  0
 29 23  1  0
  3 31  1  0
  4 32  1  0
  4 33  1  0
  8 34  1  0
  8 35  1  0
  9 36  1  6
 10 37  1  0
 11 38  1  0
 11 39  1  0
 12 40  1  1
 13 41  1  0
 13 42  1  0
 15 43  1  0
 15 44  1  0
 16 45  1  0
 16 46  1  0
 17 47  1  0
 17 48  1  0
 18 49  1  0
 18 50  1  0
 19 51  1  0
 19 52  1  0
 21 53  1  0
 22 54  1  0
 24 55  1  0
 27 56  1  0
 28 57  1  0
M  END
>  <smiles>  (27) 
O=C(NCC(=O)N1C[C@H](O)C[C@H]1CN1CCCCC1)c1ccc2cc(F)ccc2n1

>  <score_type>  (27) 
oracle

>  <origin>  (27) 
autodockgpu

>  <m_score__min__energy>  (27) 
-8.3800000000000008

>  <m_primary>  (27) 
energy

>  <rmsd>  (27) 
2.584789532246729

>  <m_score__min__rmsd>  (27) 
2.584789532246729

>  <meeko>  (27) 
{"free_energy": -7.13, "intermolecular_energy": -9.22, "internal_energy": -2.53, "cluster_size": 33, "cluster_id": 1, "rank_in_cluster": 30}

>  <energy>  (27) 
-7.37

>  <cluster_rmsd>  (27) 
1.42

>  <cluster>  (27) 
1

$$$$

     RDKit          3D

 57 60  0  0  0  0  0  0  0  0999 V2000
  138.7380   71.6130  221.2890 O   0  0  0  0  0  0  0  0  0  0  0  0
  138.3060   71.8280  222.4660 C   0  0  0  0  0  0  0  0  0  0  0  0
  137.3690   72.8870  222.7110 N   0  0  0  0  0  0  0  0  0  0  0  0
  136.9270   73.7090  221.5760 C   0  0  0  0  0  0  0  0  0  0  0  0
  137.4800   75.0680  221.7780 C   0  0  0  0  0  0  0  0  0  0  0  0
  136.8190   76.0360  222.2290 O   0  0  0  0  0  0  0  0  0  0  0  0
  138.8430   75.3020  221.4480 N   0  0  0  0  0  0  0  0  0  0  0  0
  139.6800   74.5580  220.4930 C   0  0  0  0  0  0  0  0  0  0  0  0
  140.9250   74.3830  221.3500 C   0  0  2  0  0  0  0  0  0  0  0  0
  140.7340   73.4260  222.3260 O   0  0  0  0  0  0  0  0  0  0  0  0
  141.1380   75.7750  221.8890 C   0  0  0  0  0  0  0  0  0  0  0  0
  139.7350   76.3250  221.9670 C   0  0  1  0  0  0  0  0  0  0  0  0
  139.5710   77.5310  221.0540 C   0  0  0  0  0  0  0  0  0  0  0  0
  140.0560   78.7430  221.6420 N   0  0  0  0  0  0  0  0  0  0  0  0
  141.4310   79.0160  221.3700 C   0  0  0  0  0  0  0  0  0  0  0  0
  142.2250   79.3800  222.5980 C   0  0  0  0  0  0  0  0  0  0  0  0
  141.5390   80.4140  223.4540 C   0  0  0  0  0  0  0  0  0  0  0  0
  140.0350   80.2540  223.4650 C   0  0  0  0  0  0  0  0  0  0  0  0
  139.7550   78.8050  223.0460 C   0  0  0  0  0  0  0  0  0  0  0  0
  138.7510   71.0060  223.5870 C   0  0  0  0  0  0  0  0  0  0  0  0
  138.3550   69.6740  223.6260 C   0  0  0  0  0  0  0  0  0  0  0  0
  138.7400   68.8580  224.6470 C   0  0  0  0  0  0  0  0  0  0  0  0
  139.5290   69.3910  225.6400 C   0  0  0  0  0  0  0  0  0  0  0  0
  139.9160   68.5620  226.6700 C   0  0  0  0  0  0  0  0  0  0  0  0
  140.7020   69.0340  227.6870 C   0  0  0  0  0  0  0  0  0  0  0  0
  141.0840   68.2280  228.7010 F   0  0  0  0  0  0  0  0  0  0  0  0
  141.0910   70.3500  227.6450 C   0  0  0  0  0  0  0  0  0  0  0  0
  140.7030   71.1780  226.6130 C   0  0  0  0  0  0  0  0  0  0  0  0
  139.9030   70.7260  225.5660 C   0  0  0  0  0  0  0  0  0  0  0  0
  139.5230   71.5270  224.5570 N   0  0  0  0  0  0  0  0  0  0  0  0
  137.0130   73.0650  223.6710 H   0  0  0  0  0  0  0  0  0  0  0  0
  137.3043   73.2848  220.6339 H   0  0  0  0  0  0  0  0  0  0  0  0
  135.8289   73.7387  221.5196 H   0  0  0  0  0  0  0  0  0  0  0  0
  139.2310   73.5926  220.2165 H   0  0  0  0  0  0  0  0  0  0  0  0
  139.8402   75.0501  219.5224 H   0  0  0  0  0  0  0  0  0  0  0  0
  141.8066   74.0102  220.8079 H   0  0  0  0  0  0  0  0  0  0  0  0
  140.3930   72.6130  221.8770 H   0  0  0  0  0  0  0  0  0  0  0  0
  141.6078   75.7468  222.8833 H   0  0  0  0  0  0  0  0  0  0  0  0
  141.8092   76.3841  221.2657 H   0  0  0  0  0  0  0  0  0  0  0  0
  139.5203   76.6095  223.0077 H   0  0  0  0  0  0  0  0  0  0  0  0
  140.1269   77.3451  220.1232 H   0  0  0  0  0  0  0  0  0  0  0  0
  138.4947   77.6612  220.8679 H   0  0  0  0  0  0  0  0  0  0  0  0
  141.8810   78.1203  220.9171 H   0  0  0  0  0  0  0  0  0  0  0  0
  141.4616   79.8843  220.6953 H   0  0  0  0  0  0  0  0  0  0  0  0
  142.3778   78.4717  223.1993 H   0  0  0  0  0  0  0  0  0  0  0  0
  143.1785   79.8113  222.2592 H   0  0  0  0  0  0  0  0  0  0  0  0
  141.9109   80.3210  224.4850 H   0  0  0  0  0  0  0  0  0  0  0  0
  141.7661   81.4028  223.0288 H   0  0  0  0  0  0  0  0  0  0  0  0
  139.6390   80.4424  224.4738 H   0  0  0  0  0  0  0  0  0  0  0  0
  139.5511   80.9688  222.7831 H   0  0  0  0  0  0  0  0  0  0  0  0
  140.3986   78.1118  223.6075 H   0  0  0  0  0  0  0  0  0  0  0  0
  138.7138   78.5160  223.2520 H   0  0  0  0  0  0  0  0  0  0  0  0
  137.7217   69.2730  222.8210 H   0  0  0  0  0  0  0  0  0  0  0  0
  138.4289   67.8033  224.6765 H   0  0  0  0  0  0  0  0  0  0  0  0
  139.5906   67.5112  226.6755 H   0  0  0  0  0  0  0  0  0  0  0  0
  141.7242   70.7514  228.4499 H   0  0  0  0  0  0  0  0  0  0  0  0
  141.0351   72.2267  226.6166 H   0  0  0  0  0  0  0  0  0  0  0  0
  1  2  2  0
  2  3  1  0
  3  4  1  0
  4  5  1  0
  5  6  2  0
  5  7  1  0
  7  8  1  0
  8  9  1  0
  9 10  1  0
  9 11  1  0
 11 12  1  0
 12 13  1  0
 13 14  1  0
 14 15  1  0
 15 16  1  0
 16 17  1  0
 17 18  1  0
 18 19  1  0
  2 20  1  0
 20 21  2  0
 21 22  1  0
 22 23  2  0
 23 24  1  0
 24 25  2  0
 25 26  1  0
 25 27  1  0
 27 28  2  0
 28 29  1  0
 29 30  2  0
 12  7  1  0
 19 14  1  0
 30 20  1  0
 29 23  1  0
  3 31  1  0
  4 32  1  0
  4 33  1  0
  8 34  1  0
  8 35  1  0
  9 36  1  6
 10 37  1  0
 11 38  1  0
 11 39  1  0
 12 40  1  1
 13 41  1  0
 13 42  1  0
 15 43  1  0
 15 44  1  0
 16 45  1  0
 16 46  1  0
 17 47  1  0
 17 48  1  0
 18 49  1  0
 18 50  1  0
 19 51  1  0
 19 52  1  0
 21 53  1  0
 22 54  1  0
 24 55  1  0
 27 56  1  0
 28 57  1  0
M  END
>  <smiles>  (28) 
O=C(NCC(=O)N1C[C@H](O)C[C@H]1CN1CCCCC1)c1ccc2cc(F)ccc2n1

>  <score_type>  (28) 
oracle

>  <origin>  (28) 
autodockgpu

>  <m_score__min__energy>  (28) 
-8.3800000000000008

>  <m_primary>  (28) 
energy

>  <rmsd>  (28) 
2.493650291692019

>  <m_score__min__rmsd>  (28) 
2.493650291692019

>  <meeko>  (28) 
{"free_energy": -7.63, "intermolecular_energy": -9.72, "internal_energy": -2.43, "cluster_size": 33, "cluster_id": 1, "rank_in_cluster": 22}

>  <energy>  (28) 
-7.33

>  <cluster_rmsd>  (28) 
1.94

>  <cluster>  (28) 
1

$$$$

     RDKit          3D

 57 60  0  0  0  0  0  0  0  0999 V2000
  141.0860   72.4430  221.6540 O   0  0  0  0  0  0  0  0  0  0  0  0
  140.1220   72.4400  222.4840 C   0  0  0  0  0  0  0  0  0  0  0  0
  139.0180   73.3430  222.3150 N   0  0  0  0  0  0  0  0  0  0  0  0
  139.0340   74.2620  221.1690 C   0  0  0  0  0  0  0  0  0  0  0  0
  140.0240   75.3210  221.4710 C   0  0  0  0  0  0  0  0  0  0  0  0
  140.1380   75.8780  222.5910 O   0  0  0  0  0  0  0  0  0  0  0  0
  140.9060   75.7400  220.4390 N   0  0  0  0  0  0  0  0  0  0  0  0
  140.9090   75.3200  219.0280 C   0  0  0  0  0  0  0  0  0  0  0  0
  142.3960   75.0470  218.8600 C   0  0  2  0  0  0  0  0  0  0  0  0
  142.7660   73.8710  219.4800 O   0  0  0  0  0  0  0  0  0  0  0  0
  143.0150   76.2810  219.4660 C   0  0  0  0  0  0  0  0  0  0  0  0
  142.0130   76.6790  220.5220 C   0  0  1  0  0  0  0  0  0  0  0  0
  141.4270   78.0500  220.2270 C   0  0  0  0  0  0  0  0  0  0  0  0
  141.8250   79.0420  221.1810 N   0  0  0  0  0  0  0  0  0  0  0  0
  141.8150   78.5880  222.5350 C   0  0  0  0  0  0  0  0  0  0  0  0
  141.1070   79.5260  223.4780 C   0  0  0  0  0  0  0  0  0  0  0  0
  141.5300   80.9620  223.3020 C   0  0  0  0  0  0  0  0  0  0  0  0
  141.8200   81.3100  221.8580 C   0  0  0  0  0  0  0  0  0  0  0  0
  141.0870   80.2630  221.0100 C   0  0  0  0  0  0  0  0  0  0  0  0
  140.1160   71.5230  223.6200 C   0  0  0  0  0  0  0  0  0  0  0  0
  139.5770   70.2550  223.4400 C   0  0  0  0  0  0  0  0  0  0  0  0
  139.5440   69.3560  224.4640 C   0  0  0  0  0  0  0  0  0  0  0  0
  140.0580   69.7410  225.6800 C   0  0  0  0  0  0  0  0  0  0  0  0
  140.0230   68.8280  226.7120 C   0  0  0  0  0  0  0  0  0  0  0  0
  140.5210   69.1520  227.9460 C   0  0  0  0  0  0  0  0  0  0  0  0
  140.4890   68.2630  228.9620 F   0  0  0  0  0  0  0  0  0  0  0  0
  141.0520   70.4050  228.1200 C   0  0  0  0  0  0  0  0  0  0  0  0
  141.0870   71.3180  227.0860 C   0  0  0  0  0  0  0  0  0  0  0  0
  140.5880   71.0160  225.8200 C   0  0  0  0  0  0  0  0  0  0  0  0
  140.6190   71.9000  224.8090 N   0  0  0  0  0  0  0  0  0  0  0  0
  138.2290   73.3430  222.9910 H   0  0  0  0  0  0  0  0  0  0  0  0
  139.3265   73.7217  220.2566 H   0  0  0  0  0  0  0  0  0  0  0  0
  138.0369   74.6956  221.0021 H   0  0  0  0  0  0  0  0  0  0  0  0
  140.3035   74.4160  218.8661 H   0  0  0  0  0  0  0  0  0  0  0  0
  140.4794   76.0437  218.3196 H   0  0  0  0  0  0  0  0  0  0  0  0
  142.7191   74.8894  217.8204 H   0  0  0  0  0  0  0  0  0  0  0  0
  142.0540   73.6450  220.1290 H   0  0  0  0  0  0  0  0  0  0  0  0
  143.9931   76.0531  219.9148 H   0  0  0  0  0  0  0  0  0  0  0  0
  143.2082   77.0754  218.7301 H   0  0  0  0  0  0  0  0  0  0  0  0
  142.5111   76.6867  221.5027 H   0  0  0  0  0  0  0  0  0  0  0  0
  141.7625   78.3680  219.2289 H   0  0  0  0  0  0  0  0  0  0  0  0
  140.3320   77.9601  220.2806 H   0  0  0  0  0  0  0  0  0  0  0  0
  141.3102   77.6113  222.5711 H   0  0  0  0  0  0  0  0  0  0  0  0
  142.8629   78.5283  222.8641 H   0  0  0  0  0  0  0  0  0  0  0  0
  140.0242   79.4541  223.2978 H   0  0  0  0  0  0  0  0  0  0  0  0
  141.3714   79.2265  224.5029 H   0  0  0  0  0  0  0  0  0  0  0  0
  140.7227   81.6143  223.6664 H   0  0  0  0  0  0  0  0  0  0  0  0
  142.4586   81.1084  223.8732 H   0  0  0  0  0  0  0  0  0  0  0  0
  141.4460   82.3182  221.6262 H   0  0  0  0  0  0  0  0  0  0  0  0
  142.9009   81.3057  221.6540 H   0  0  0  0  0  0  0  0  0  0  0  0
  140.0525   80.1390  221.3627 H   0  0  0  0  0  0  0  0  0  0  0  0
  141.0327   80.5611  219.9526 H   0  0  0  0  0  0  0  0  0  0  0  0
  139.1712   69.9727  222.4573 H   0  0  0  0  0  0  0  0  0  0  0  0
  139.1186   68.3516  224.3218 H   0  0  0  0  0  0  0  0  0  0  0  0
  139.5913   67.8305  226.5430 H   0  0  0  0  0  0  0  0  0  0  0  0
  141.4577   70.6872  229.1027 H   0  0  0  0  0  0  0  0  0  0  0  0
  141.5211   72.3126  227.2659 H   0  0  0  0  0  0  0  0  0  0  0  0
  1  2  2  0
  2  3  1  0
  3  4  1  0
  4  5  1  0
  5  6  2  0
  5  7  1  0
  7  8  1  0
  8  9  1  0
  9 10  1  0
  9 11  1  0
 11 12  1  0
 12 13  1  0
 13 14  1  0
 14 15  1  0
 15 16  1  0
 16 17  1  0
 17 18  1  0
 18 19  1  0
  2 20  1  0
 20 21  2  0
 21 22  1  0
 22 23  2  0
 23 24  1  0
 24 25  2  0
 25 26  1  0
 25 27  1  0
 27 28  2  0
 28 29  1  0
 29 30  2  0
 12  7  1  0
 19 14  1  0
 30 20  1  0
 29 23  1  0
  3 31  1  0
  4 32  1  0
  4 33  1  0
  8 34  1  0
  8 35  1  0
  9 36  1  6
 10 37  1  0
 11 38  1  0
 11 39  1  0
 12 40  1  1
 13 41  1  0
 13 42  1  0
 15 43  1  0
 15 44  1  0
 16 45  1  0
 16 46  1  0
 17 47  1  0
 17 48  1  0
 18 49  1  0
 18 50  1  0
 19 51  1  0
 19 52  1  0
 21 53  1  0
 22 54  1  0
 24 55  1  0
 27 56  1  0
 28 57  1  0
M  END
>  <smiles>  (29) 
O=C(NCC(=O)N1C[C@H](O)C[C@H]1CN1CCCCC1)c1ccc2cc(F)ccc2n1

>  <score_type>  (29) 
oracle

>  <origin>  (29) 
autodockgpu

>  <m_score__min__energy>  (29) 
-8.3800000000000008

>  <m_primary>  (29) 
energy

>  <rmsd>  (29) 
1.811976982677097

>  <m_score__min__rmsd>  (29) 
1.811976982677097

>  <meeko>  (29) 
{"free_energy": -7.87, "intermolecular_energy": -9.95, "internal_energy": -2.24, "cluster_size": 33, "cluster_id": 1, "rank_in_cluster": 16}

>  <energy>  (29) 
-7.19

>  <cluster_rmsd>  (29) 
1.66

>  <cluster>  (29) 
1

$$$$

     RDKit          3D

 57 60  0  0  0  0  0  0  0  0999 V2000
  135.6200   71.9230  222.2950 O   0  0  0  0  0  0  0  0  0  0  0  0
  136.7580   72.2180  222.7800 C   0  0  0  0  0  0  0  0  0  0  0  0
  137.3180   73.5240  222.5710 N   0  0  0  0  0  0  0  0  0  0  0  0
  136.5470   74.5000  221.7890 C   0  0  0  0  0  0  0  0  0  0  0  0
  137.3780   75.7200  221.6710 C   0  0  0  0  0  0  0  0  0  0  0  0
  136.9330   76.8880  221.7850 O   0  0  0  0  0  0  0  0  0  0  0  0
  138.7690   75.5720  221.4160 N   0  0  0  0  0  0  0  0  0  0  0  0
  139.4290   74.5580  220.5760 C   0  0  0  0  0  0  0  0  0  0  0  0
  140.5450   74.1500  221.5250 C   0  0  2  0  0  0  0  0  0  0  0  0
  140.0700   73.3610  222.5530 O   0  0  0  0  0  0  0  0  0  0  0  0
  141.0860   75.4840  221.9730 C   0  0  0  0  0  0  0  0  0  0  0  0
  139.8700   76.3770  221.9170 C   0  0  1  0  0  0  0  0  0  0  0  0
  140.0650   77.4990  220.9100 C   0  0  0  0  0  0  0  0  0  0  0  0
  140.3000   78.7680  221.5310 N   0  0  0  0  0  0  0  0  0  0  0  0
  141.5220   79.3940  221.1380 C   0  0  0  0  0  0  0  0  0  0  0  0
  142.3390   79.8950  222.3010 C   0  0  0  0  0  0  0  0  0  0  0  0
  141.5240   80.6820  223.2950 C   0  0  0  0  0  0  0  0  0  0  0  0
  140.1180   80.1430  223.4490 C   0  0  0  0  0  0  0  0  0  0  0  0
  140.1600   78.6910  222.9580 C   0  0  0  0  0  0  0  0  0  0  0  0
  137.5160   71.2410  223.5560 C   0  0  0  0  0  0  0  0  0  0  0  0
  136.9030   70.0370  223.8790 C   0  0  0  0  0  0  0  0  0  0  0  0
  137.5610   69.0870  224.6010 C   0  0  0  0  0  0  0  0  0  0  0  0
  138.8490   69.3550  225.0020 C   0  0  0  0  0  0  0  0  0  0  0  0
  139.5100   68.3910  225.7320 C   0  0  0  0  0  0  0  0  0  0  0  0
  140.7950   68.5990  226.1590 C   0  0  0  0  0  0  0  0  0  0  0  0
  141.4490   67.6600  226.8750 F   0  0  0  0  0  0  0  0  0  0  0  0
  141.3970   69.7900  225.8370 C   0  0  0  0  0  0  0  0  0  0  0  0
  140.7340   70.7540  225.1070 C   0  0  0  0  0  0  0  0  0  0  0  0
  139.4270   70.5700  224.6600 C   0  0  0  0  0  0  0  0  0  0  0  0
  138.7760   71.5040  223.9480 N   0  0  0  0  0  0  0  0  0  0  0  0
  138.2470   73.7690  222.9660 H   0  0  0  0  0  0  0  0  0  0  0  0
  136.3286   74.0946  220.7900 H   0  0  0  0  0  0  0  0  0  0  0  0
  135.5892   74.7256  222.2807 H   0  0  0  0  0  0  0  0  0  0  0  0
  138.7593   73.7174  220.3418 H   0  0  0  0  0  0  0  0  0  0  0  0
  139.7554   74.9055  219.5847 H   0  0  0  0  0  0  0  0  0  0  0  0
  141.3245   73.5198  221.0720 H   0  0  0  0  0  0  0  0  0  0  0  0
  139.4050   72.7420  222.1640 H   0  0  0  0  0  0  0  0  0  0  0  0
  141.4871   75.4252  222.9956 H   0  0  0  0  0  0  0  0  0  0  0  0
  141.9193   75.8454  221.3526 H   0  0  0  0  0  0  0  0  0  0  0  0
  139.6885   76.7971  222.9173 H   0  0  0  0  0  0  0  0  0  0  0  0
  140.9282   77.2540  220.2737 H   0  0  0  0  0  0  0  0  0  0  0  0
  139.1374   77.5835  220.3249 H   0  0  0  0  0  0  0  0  0  0  0  0
  142.1239   78.6630  220.5783 H   0  0  0  0  0  0  0  0  0  0  0  0
  141.2565   80.2692  220.5268 H   0  0  0  0  0  0  0  0  0  0  0  0
  142.7822   79.0304  222.8168 H   0  0  0  0  0  0  0  0  0  0  0  0
  143.1084   80.5697  221.8974 H   0  0  0  0  0  0  0  0  0  0  0  0
  142.0260   80.6420  224.2729 H   0  0  0  0  0  0  0  0  0  0  0  0
  141.4470   81.7137  222.9213 H   0  0  0  0  0  0  0  0  0  0  0  0
  139.8090   80.1799  224.5041 H   0  0  0  0  0  0  0  0  0  0  0  0
  139.3948   80.7398  222.8738 H   0  0  0  0  0  0  0  0  0  0  0  0
  141.0170   78.1613  223.3995 H   0  0  0  0  0  0  0  0  0  0  0  0
  139.2547   78.1377  223.2481 H   0  0  0  0  0  0  0  0  0  0  0  0
  135.8715   69.8478  223.5471 H   0  0  0  0  0  0  0  0  0  0  0  0
  137.0760   68.1331  224.8558 H   0  0  0  0  0  0  0  0  0  0  0  0
  139.0013   67.4462  225.9740 H   0  0  0  0  0  0  0  0  0  0  0  0
  142.4289   69.9792  226.1679 H   0  0  0  0  0  0  0  0  0  0  0  0
  141.2518   71.6953  224.8707 H   0  0  0  0  0  0  0  0  0  0  0  0
  1  2  2  0
  2  3  1  0
  3  4  1  0
  4  5  1  0
  5  6  2  0
  5  7  1  0
  7  8  1  0
  8  9  1  0
  9 10  1  0
  9 11  1  0
 11 12  1  0
 12 13  1  0
 13 14  1  0
 14 15  1  0
 15 16  1  0
 16 17  1  0
 17 18  1  0
 18 19  1  0
  2 20  1  0
 20 21  2  0
 21 22  1  0
 22 23  2  0
 23 24  1  0
 24 25  2  0
 25 26  1  0
 25 27  1  0
 27 28  2  0
 28 29  1  0
 29 30  2  0
 12  7  1  0
 19 14  1  0
 30 20  1  0
 29 23  1  0
  3 31  1  0
  4 32  1  0
  4 33  1  0
  8 34  1  0
  8 35  1  0
  9 36  1  6
 10 37  1  0
 11 38  1  0
 11 39  1  0
 12 40  1  1
 13 41  1  0
 13 42  1  0
 15 43  1  0
 15 44  1  0
 16 45  1  0
 16 46  1  0
 17 47  1  0
 17 48  1  0
 18 49  1  0
 18 50  1  0
 19 51  1  0
 19 52  1  0
 21 53  1  0
 22 54  1  0
 24 55  1  0
 27 56  1  0
 28 57  1  0
M  END
>  <smiles>  (30) 
O=C(NCC(=O)N1C[C@H](O)C[C@H]1CN1CCCCC1)c1ccc2cc(F)ccc2n1

>  <score_type>  (30) 
oracle

>  <origin>  (30) 
autodockgpu

>  <m_score__min__energy>  (30) 
-8.3800000000000008

>  <m_primary>  (30) 
energy

>  <rmsd>  (30) 
2.8614313307682355

>  <m_score__min__rmsd>  (30) 
2.8614313307682355

>  <meeko>  (30) 
{"free_energy": -6.68, "intermolecular_energy": -8.77, "internal_energy": -3.12, "cluster_size": 7, "cluster_id": 2, "rank_in_cluster": 7}

>  <energy>  (30) 
-7.13

>  <cluster_rmsd>  (30) 
1.93

>  <cluster>  (30) 
1

$$$$

     RDKit          3D

 57 60  0  0  0  0  0  0  0  0999 V2000
  141.1980   72.5010  221.8850 O   0  0  0  0  0  0  0  0  0  0  0  0
  140.1630   72.4110  222.6210 C   0  0  0  0  0  0  0  0  0  0  0  0
  139.0040   73.2100  222.3410 N   0  0  0  0  0  0  0  0  0  0  0  0
  139.0440   74.1270  221.1940 C   0  0  0  0  0  0  0  0  0  0  0  0
  139.7300   75.3600  221.6440 C   0  0  0  0  0  0  0  0  0  0  0  0
  139.5700   75.8800  222.7750 O   0  0  0  0  0  0  0  0  0  0  0  0
  140.6290   76.0020  220.7490 N   0  0  0  0  0  0  0  0  0  0  0  0
  140.9750   75.6000  219.3750 C   0  0  0  0  0  0  0  0  0  0  0  0
  142.4880   75.7350  219.4590 C   0  0  2  0  0  0  0  0  0  0  0  0
  143.0480   74.6990  220.1790 O   0  0  0  0  0  0  0  0  0  0  0  0
  142.6510   77.0880  220.1040 C   0  0  0  0  0  0  0  0  0  0  0  0
  141.4200   77.2010  220.9690 C   0  0  1  0  0  0  0  0  0  0  0  0
  140.5500   78.3670  220.5270 C   0  0  0  0  0  0  0  0  0  0  0  0
  140.6270   79.4870  221.4160 N   0  0  0  0  0  0  0  0  0  0  0  0
  141.8420   80.2290  221.3180 C   0  0  0  0  0  0  0  0  0  0  0  0
  142.4850   80.5080  222.6520 C   0  0  0  0  0  0  0  0  0  0  0  0
  141.5100   81.0360  223.6730 C   0  0  0  0  0  0  0  0  0  0  0  0
  140.1340   80.4220  223.5350 C   0  0  0  0  0  0  0  0  0  0  0  0
  140.3280   79.1070  222.7690 C   0  0  0  0  0  0  0  0  0  0  0  0
  140.1330   71.4970  223.7580 C   0  0  0  0  0  0  0  0  0  0  0  0
  139.5800   70.2350  223.5760 C   0  0  0  0  0  0  0  0  0  0  0  0
  139.5250   69.3400  224.6020 C   0  0  0  0  0  0  0  0  0  0  0  0
  140.0300   69.7200  225.8230 C   0  0  0  0  0  0  0  0  0  0  0  0
  139.9720   68.8110  226.8560 C   0  0  0  0  0  0  0  0  0  0  0  0
  140.4610   69.1310  228.0950 C   0  0  0  0  0  0  0  0  0  0  0  0
  140.4060   68.2460  229.1120 F   0  0  0  0  0  0  0  0  0  0  0  0
  141.0060   70.3780  228.2710 C   0  0  0  0  0  0  0  0  0  0  0  0
  141.0640   71.2870  227.2360 C   0  0  0  0  0  0  0  0  0  0  0  0
  140.5750   70.9890  225.9650 C   0  0  0  0  0  0  0  0  0  0  0  0
  140.6290   71.8700  224.9520 N   0  0  0  0  0  0  0  0  0  0  0  0
  138.1580   73.1380  222.9390 H   0  0  0  0  0  0  0  0  0  0  0  0
  139.6001   73.6678  220.3634 H   0  0  0  0  0  0  0  0  0  0  0  0
  138.0278   74.3527  220.8383 H   0  0  0  0  0  0  0  0  0  0  0  0
  140.6649   74.5673  219.1573 H   0  0  0  0  0  0  0  0  0  0  0  0
  140.4925   76.1830  218.5767 H   0  0  0  0  0  0  0  0  0  0  0  0
  143.0080   75.6722  218.4917 H   0  0  0  0  0  0  0  0  0  0  0  0
  143.1280   75.0030  221.1170 H   0  0  0  0  0  0  0  0  0  0  0  0
  143.5668   77.1286  220.7121 H   0  0  0  0  0  0  0  0  0  0  0  0
  142.7464   77.9071  219.3760 H   0  0  0  0  0  0  0  0  0  0  0  0
  141.7298   77.3382  222.0155 H   0  0  0  0  0  0  0  0  0  0  0  0
  140.8762   78.6893  219.5271 H   0  0  0  0  0  0  0  0  0  0  0  0
  139.5067   78.0184  220.5241 H   0  0  0  0  0  0  0  0  0  0  0  0
  142.5512   79.6560  220.7026 H   0  0  0  0  0  0  0  0  0  0  0  0
  141.5918   81.2018  220.8695 H   0  0  0  0  0  0  0  0  0  0  0  0
  142.9215   79.5733  223.0338 H   0  0  0  0  0  0  0  0  0  0  0  0
  143.2504   81.2822  222.4945 H   0  0  0  0  0  0  0  0  0  0  0  0
  141.8966   80.8120  224.6782 H   0  0  0  0  0  0  0  0  0  0  0  0
  141.4096   82.1191  223.5091 H   0  0  0  0  0  0  0  0  0  0  0  0
  139.7028   80.2252  224.5276 H   0  0  0  0  0  0  0  0  0  0  0  0
  139.4448   81.0966  223.0059 H   0  0  0  0  0  0  0  0  0  0  0  0
  141.1611   78.5317  223.1990 H   0  0  0  0  0  0  0  0  0  0  0  0
  139.4337   78.4689  222.8238 H   0  0  0  0  0  0  0  0  0  0  0  0
  139.1811   69.9547  222.5899 H   0  0  0  0  0  0  0  0  0  0  0  0
  139.0885   68.3407  224.4573 H   0  0  0  0  0  0  0  0  0  0  0  0
  139.5289   67.8189  226.6846 H   0  0  0  0  0  0  0  0  0  0  0  0
  141.4045   70.6579  229.2573 H   0  0  0  0  0  0  0  0  0  0  0  0
  141.5091   72.2762  227.4185 H   0  0  0  0  0  0  0  0  0  0  0  0
  1  2  2  0
  2  3  1  0
  3  4  1  0
  4  5  1  0
  5  6  2  0
  5  7  1  0
  7  8  1  0
  8  9  1  0
  9 10  1  0
  9 11  1  0
 11 12  1  0
 12 13  1  0
 13 14  1  0
 14 15  1  0
 15 16  1  0
 16 17  1  0
 17 18  1  0
 18 19  1  0
  2 20  1  0
 20 21  2  0
 21 22  1  0
 22 23  2  0
 23 24  1  0
 24 25  2  0
 25 26  1  0
 25 27  1  0
 27 28  2  0
 28 29  1  0
 29 30  2  0
 12  7  1  0
 19 14  1  0
 30 20  1  0
 29 23  1  0
  3 31  1  0
  4 32  1  0
  4 33  1  0
  8 34  1  0
  8 35  1  0
  9 36  1  6
 10 37  1  0
 11 38  1  0
 11 39  1  0
 12 40  1  1
 13 41  1  0
 13 42  1  0
 15 43  1  0
 15 44  1  0
 16 45  1  0
 16 46  1  0
 17 47  1  0
 17 48  1  0
 18 49  1  0
 18 50  1  0
 19 51  1  0
 19 52  1  0
 21 53  1  0
 22 54  1  0
 24 55  1  0
 27 56  1  0
 28 57  1  0
M  END
>  <smiles>  (31) 
O=C(NCC(=O)N1C[C@H](O)C[C@H]1CN1CCCCC1)c1ccc2cc(F)ccc2n1

>  <score_type>  (31) 
oracle

>  <origin>  (31) 
autodockgpu

>  <m_score__min__energy>  (31) 
-8.3800000000000008

>  <m_primary>  (31) 
energy

>  <rmsd>  (31) 
2.221454901832392

>  <m_score__min__rmsd>  (31) 
2.221454901832392

>  <meeko>  (31) 
{"free_energy": -8.37, "intermolecular_energy": -10.46, "internal_energy": -1.58, "cluster_size": 33, "cluster_id": 1, "rank_in_cluster": 2}

>  <energy>  (31) 
-6.81

>  <cluster_rmsd>  (31) 
1.81

>  <cluster>  (31) 
1

$$$$

     RDKit          3D

 57 60  0  0  0  0  0  0  0  0999 V2000
  138.6250   72.6930  221.7650 O   0  0  0  0  0  0  0  0  0  0  0  0
  139.7200   72.3410  222.3090 C   0  0  0  0  0  0  0  0  0  0  0  0
  140.9750   72.7500  221.7430 N   0  0  0  0  0  0  0  0  0  0  0  0
  140.9590   73.5780  220.5290 C   0  0  0  0  0  0  0  0  0  0  0  0
  141.5950   74.8700  220.8750 C   0  0  0  0  0  0  0  0  0  0  0  0
  142.8320   75.0800  220.8280 O   0  0  0  0  0  0  0  0  0  0  0  0
  140.7630   75.9480  221.2850 N   0  0  0  0  0  0  0  0  0  0  0  0
  140.3300   76.2840  222.6510 C   0  0  0  0  0  0  0  0  0  0  0  0
  138.8510   76.5160  222.3850 C   0  0  2  0  0  0  0  0  0  0  0  0
  138.1810   75.3250  222.1890 O   0  0  0  0  0  0  0  0  0  0  0  0
  138.8820   77.4090  221.1710 C   0  0  0  0  0  0  0  0  0  0  0  0
  140.1410   76.9720  220.4630 C   0  0  1  0  0  0  0  0  0  0  0  0
  141.1430   78.1130  220.3800 C   0  0  0  0  0  0  0  0  0  0  0  0
  141.0450   79.0210  221.4840 N   0  0  0  0  0  0  0  0  0  0  0  0
  140.7070   80.3570  221.1120 C   0  0  0  0  0  0  0  0  0  0  0  0
  141.5990   81.3980  221.7400 C   0  0  0  0  0  0  0  0  0  0  0  0
  141.7920   81.1890  223.2200 C   0  0  0  0  0  0  0  0  0  0  0  0
  141.8440   79.7250  223.5970 C   0  0  0  0  0  0  0  0  0  0  0  0
  142.2130   78.9650  222.3170 C   0  0  0  0  0  0  0  0  0  0  0  0
  139.7240   71.5180  223.5150 C   0  0  0  0  0  0  0  0  0  0  0  0
  138.9790   70.3450  223.5160 C   0  0  0  0  0  0  0  0  0  0  0  0
  138.9460   69.5380  224.6130 C   0  0  0  0  0  0  0  0  0  0  0  0
  139.6680   69.9170  225.7190 C   0  0  0  0  0  0  0  0  0  0  0  0
  139.6310   69.0960  226.8250 C   0  0  0  0  0  0  0  0  0  0  0  0
  140.3310   69.4200  227.9580 C   0  0  0  0  0  0  0  0  0  0  0  0
  140.2980   68.6220  229.0460 F   0  0  0  0  0  0  0  0  0  0  0  0
  141.0660   70.5790  227.9530 C   0  0  0  0  0  0  0  0  0  0  0  0
  141.1020   71.4000  226.8450 C   0  0  0  0  0  0  0  0  0  0  0  0
  140.4000   71.0960  225.6800 C   0  0  0  0  0  0  0  0  0  0  0  0
  140.4320   71.8900  224.5970 N   0  0  0  0  0  0  0  0  0  0  0  0
  141.8700   72.4650  222.1850 H   0  0  0  0  0  0  0  0  0  0  0  0
  141.5245   73.0820  219.7264 H   0  0  0  0  0  0  0  0  0  0  0  0
  139.9295   73.7312  220.1730 H   0  0  0  0  0  0  0  0  0  0  0  0
  140.4970   75.4531  223.3522 H   0  0  0  0  0  0  0  0  0  0  0  0
  140.8622   77.1239  223.1215 H   0  0  0  0  0  0  0  0  0  0  0  0
  138.3014   76.9736  223.2208 H   0  0  0  0  0  0  0  0  0  0  0  0
  138.6440   74.6360  222.7270 H   0  0  0  0  0  0  0  0  0  0  0  0
  137.9963   77.2482  220.5388 H   0  0  0  0  0  0  0  0  0  0  0  0
  138.8731   78.4805  221.4196 H   0  0  0  0  0  0  0  0  0  0  0  0
  139.8804   76.6263  219.4518 H   0  0  0  0  0  0  0  0  0  0  0  0
  142.1578   77.6888  220.3632 H   0  0  0  0  0  0  0  0  0  0  0  0
  140.9222   78.6809  219.4642 H   0  0  0  0  0  0  0  0  0  0  0  0
  140.7854   80.4447  220.0183 H   0  0  0  0  0  0  0  0  0  0  0  0
  139.6849   80.5454  221.4724 H   0  0  0  0  0  0  0  0  0  0  0  0
  142.5826   81.3599  221.2489 H   0  0  0  0  0  0  0  0  0  0  0  0
  141.1118   82.3750  221.6053 H   0  0  0  0  0  0  0  0  0  0  0  0
  142.7362   81.6650  223.5232 H   0  0  0  0  0  0  0  0  0  0  0  0
  140.9294   81.6362  223.7357 H   0  0  0  0  0  0  0  0  0  0  0  0
  142.6061   79.5580  224.3725 H   0  0  0  0  0  0  0  0  0  0  0  0
  140.8810   79.3817  224.0028 H   0  0  0  0  0  0  0  0  0  0  0  0
  143.0652   79.4476  221.8162 H   0  0  0  0  0  0  0  0  0  0  0  0
  142.5107   77.9279  222.5311 H   0  0  0  0  0  0  0  0  0  0  0  0
  138.4081   70.0642  222.6187 H   0  0  0  0  0  0  0  0  0  0  0  0
  138.3576   68.6086  224.6134 H   0  0  0  0  0  0  0  0  0  0  0  0
  139.0343   68.1723  226.7984 H   0  0  0  0  0  0  0  0  0  0  0  0
  141.6376   70.8588  228.8502 H   0  0  0  0  0  0  0  0  0  0  0  0
  141.7021   72.3212  226.8820 H   0  0  0  0  0  0  0  0  0  0  0  0
  1  2  2  0
  2  3  1  0
  3  4  1  0
  4  5  1  0
  5  6  2  0
  5  7  1  0
  7  8  1  0
  8  9  1  0
  9 10  1  0
  9 11  1  0
 11 12  1  0
 12 13  1  0
 13 14  1  0
 14 15  1  0
 15 16  1  0
 16 17  1  0
 17 18  1  0
 18 19  1  0
  2 20  1  0
 20 21  2  0
 21 22  1  0
 22 23  2  0
 23 24  1  0
 24 25  2  0
 25 26  1  0
 25 27  1  0
 27 28  2  0
 28 29  1  0
 29 30  2  0
 12  7  1  0
 19 14  1  0
 30 20  1  0
 29 23  1  0
  3 31  1  0
  4 32  1  0
  4 33  1  0
  8 34  1  0
  8 35  1  0
  9 36  1  1
 10 37  1  0
 11 38  1  0
 11 39  1  0
 12 40  1  6
 13 41  1  0
 13 42  1  0
 15 43  1  0
 15 44  1  0
 16 45  1  0
 16 46  1  0
 17 47  1  0
 17 48  1  0
 18 49  1  0
 18 50  1  0
 19 51  1  0
 19 52  1  0
 21 53  1  0
 22 54  1  0
 24 55  1  0
 27 56  1  0
 28 57  1  0
M  END
>  <smiles>  (32) 
O=C(NCC(=O)N1C[C@H](O)C[C@H]1CN1CCCCC1)c1ccc2cc(F)ccc2n1

>  <score_type>  (32) 
oracle

>  <origin>  (32) 
autodockgpu

>  <m_score__min__energy>  (32) 
-8.3800000000000008

>  <m_primary>  (32) 
energy

>  <rmsd>  (32) 
2.960245979524296

>  <m_score__min__rmsd>  (32) 
2.960245979524296

>  <meeko>  (32) 
{"free_energy": -7.37, "intermolecular_energy": -9.46, "internal_energy": -2.41, "cluster_size": 33, "cluster_id": 1, "rank_in_cluster": 27}

>  <energy>  (32) 
-6.55

>  <cluster_rmsd>  (32) 
1.58

>  <cluster>  (32) 
1

$$$$

     RDKit          3D

 57 60  0  0  0  0  0  0  0  0999 V2000
  138.5680   81.1820  223.3980 O   0  0  0  0  0  0  0  0  0  0  0  0
  137.6600   80.4850  223.9550 C   0  0  0  0  0  0  0  0  0  0  0  0
  137.3350   79.1820  223.4480 N   0  0  0  0  0  0  0  0  0  0  0  0
  138.0710   78.6800  222.2800 C   0  0  0  0  0  0  0  0  0  0  0  0
  138.1630   77.2090  222.4210 C   0  0  0  0  0  0  0  0  0  0  0  0
  137.3650   76.5160  223.1000 O   0  0  0  0  0  0  0  0  0  0  0  0
  139.2150   76.5270  221.7510 N   0  0  0  0  0  0  0  0  0  0  0  0
  139.1000   75.4980  220.7040 C   0  0  0  0  0  0  0  0  0  0  0  0
  140.0960   74.4860  221.2500 C   0  0  2  0  0  0  0  0  0  0  0  0
  139.5800   73.8070  222.3350 O   0  0  0  0  0  0  0  0  0  0  0  0
  141.2840   75.3540  221.5770 C   0  0  0  0  0  0  0  0  0  0  0  0
  140.6490   76.6760  221.9330 C   0  0  1  0  0  0  0  0  0  0  0  0
  141.0860   77.7670  220.9690 C   0  0  0  0  0  0  0  0  0  0  0  0
  141.6490   78.9050  221.6340 N   0  0  0  0  0  0  0  0  0  0  0  0
  141.8290   78.7300  223.0390 C   0  0  0  0  0  0  0  0  0  0  0  0
  141.2960   79.8760  223.8600 C   0  0  0  0  0  0  0  0  0  0  0  0
  141.7270   81.2220  223.3360 C   0  0  0  0  0  0  0  0  0  0  0  0
  141.8070   81.2580  221.8250 C   0  0  0  0  0  0  0  0  0  0  0  0
  140.9270   80.1070  221.3220 C   0  0  0  0  0  0  0  0  0  0  0  0
  136.9350   80.9930  225.1160 C   0  0  0  0  0  0  0  0  0  0  0  0
  137.5210   82.0030  225.8690 C   0  0  0  0  0  0  0  0  0  0  0  0
  136.8910   82.5160  226.9630 C   0  0  0  0  0  0  0  0  0  0  0  0
  135.6590   82.0050  227.3010 C   0  0  0  0  0  0  0  0  0  0  0  0
  135.0270   82.5270  228.4080 C   0  0  0  0  0  0  0  0  0  0  0  0
  133.7990   82.0600  228.7940 C   0  0  0  0  0  0  0  0  0  0  0  0
  133.1730   82.5660  229.8780 F   0  0  0  0  0  0  0  0  0  0  0  0
  133.2240   81.0620  228.0480 C   0  0  0  0  0  0  0  0  0  0  0  0
  133.8580   80.5400  226.9400 C   0  0  0  0  0  0  0  0  0  0  0  0
  135.1080   80.9960  226.5240 C   0  0  0  0  0  0  0  0  0  0  0  0
  135.7310   80.4920  225.4460 N   0  0  0  0  0  0  0  0  0  0  0  0
  136.5950   78.6100  223.9010 H   0  0  0  0  0  0  0  0  0  0  0  0
  137.5326   78.9373  221.3559 H   0  0  0  0  0  0  0  0  0  0  0  0
  139.0728   79.1310  222.2258 H   0  0  0  0  0  0  0  0  0  0  0  0
  138.0828   75.0836  220.6436 H   0  0  0  0  0  0  0  0  0  0  0  0
  139.2939   75.8448  219.6783 H   0  0  0  0  0  0  0  0  0  0  0  0
  140.3560   73.6756  220.5531 H   0  0  0  0  0  0  0  0  0  0  0  0
  138.8790   74.3800  222.7330 H   0  0  0  0  0  0  0  0  0  0  0  0
  141.8504   74.9456  222.4269 H   0  0  0  0  0  0  0  0  0  0  0  0
  142.0075   75.4283  220.7518 H   0  0  0  0  0  0  0  0  0  0  0  0
  140.9365   76.9451  222.9601 H   0  0  0  0  0  0  0  0  0  0  0  0
  141.8409   77.3504  220.2860 H   0  0  0  0  0  0  0  0  0  0  0  0
  140.1907   78.1091  220.4292 H   0  0  0  0  0  0  0  0  0  0  0  0
  141.3084   77.8106  223.3450 H   0  0  0  0  0  0  0  0  0  0  0  0
  142.9122   78.6764  223.2225 H   0  0  0  0  0  0  0  0  0  0  0  0
  140.1969   79.8319  223.8527 H   0  0  0  0  0  0  0  0  0  0  0  0
  141.7027   79.7714  224.8767 H   0  0  0  0  0  0  0  0  0  0  0  0
  141.0014   81.9788  223.6688 H   0  0  0  0  0  0  0  0  0  0  0  0
  142.7340   81.4264  223.7287 H   0  0  0  0  0  0  0  0  0  0  0  0
  141.4304   82.2196  221.4461 H   0  0  0  0  0  0  0  0  0  0  0  0
  142.8447   81.1511  221.4760 H   0  0  0  0  0  0  0  0  0  0  0  0
  139.9540   80.1148  221.8351 H   0  0  0  0  0  0  0  0  0  0  0  0
  140.7226   80.1914  220.2445 H   0  0  0  0  0  0  0  0  0  0  0  0
  138.5072   82.3939  225.5780 H   0  0  0  0  0  0  0  0  0  0  0  0
  137.3543   83.3160  227.5591 H   0  0  0  0  0  0  0  0  0  0  0  0
  135.5130   83.3260  228.9871 H   0  0  0  0  0  0  0  0  0  0  0  0
  132.2381   80.6707  228.3394 H   0  0  0  0  0  0  0  0  0  0  0  0
  133.3633   79.7411  226.3682 H   0  0  0  0  0  0  0  0  0  0  0  0
  1  2  2  0
  2  3  1  0
  3  4  1  0
  4  5  1  0
  5  6  2  0
  5  7  1  0
  7  8  1  0
  8  9  1  0
  9 10  1  0
  9 11  1  0
 11 12  1  0
 12 13  1  0
 13 14  1  0
 14 15  1  0
 15 16  1  0
 16 17  1  0
 17 18  1  0
 18 19  1  0
  2 20  1  0
 20 21  2  0
 21 22  1  0
 22 23  2  0
 23 24  1  0
 24 25  2  0
 25 26  1  0
 25 27  1  0
 27 28  2  0
 28 29  1  0
 29 30  2  0
 12  7  1  0
 19 14  1  0
 30 20  1  0
 29 23  1  0
  3 31  1  0
  4 32  1  0
  4 33  1  0
  8 34  1  0
  8 35  1  0
  9 36  1  6
 10 37  1  0
 11 38  1  0
 11 39  1  0
 12 40  1  1
 13 41  1  0
 13 42  1  0
 15 43  1  0
 15 44  1  0
 16 45  1  0
 16 46  1  0
 17 47  1  0
 17 48  1  0
 18 49  1  0
 18 50  1  0
 19 51  1  0
 19 52  1  0
 21 53  1  0
 22 54  1  0
 24 55  1  0
 27 56  1  0
 28 57  1  0
M  END
>  <smiles>  (33) 
O=C(NCC(=O)N1C[C@H](O)C[C@H]1CN1CCCCC1)c1ccc2cc(F)ccc2n1

>  <score_type>  (33) 
oracle

>  <origin>  (33) 
autodockgpu

>  <m_score__min__energy>  (33) 
-8.3800000000000008

>  <m_primary>  (33) 
energy

>  <rmsd>  (33) 
8.747555744605565

>  <m_score__min__rmsd>  (33) 
8.747555744605565

>  <meeko>  (33) 
{"free_energy": -6.78, "intermolecular_energy": -8.87, "internal_energy": -2.74, "cluster_size": 2, "cluster_id": 5, "rank_in_cluster": 2}

>  <energy>  (33) 
-6.52

>  <cluster_rmsd>  (33) 
1.59

>  <cluster>  (33) 
1

$$$$

     RDKit          3D

 57 60  0  0  0  0  0  0  0  0999 V2000
  135.9020   71.6840  221.9350 O   0  0  0  0  0  0  0  0  0  0  0  0
  136.9220   72.0740  222.5880 C   0  0  0  0  0  0  0  0  0  0  0  0
  137.3640   73.4370  222.4940 N   0  0  0  0  0  0  0  0  0  0  0  0
  136.6140   74.3590  221.6310 C   0  0  0  0  0  0  0  0  0  0  0  0
  137.3460   75.6470  221.6280 C   0  0  0  0  0  0  0  0  0  0  0  0
  136.8070   76.7630  221.8320 O   0  0  0  0  0  0  0  0  0  0  0  0
  138.7460   75.6320  221.3820 N   0  0  0  0  0  0  0  0  0  0  0  0
  139.4940   74.7350  220.4860 C   0  0  0  0  0  0  0  0  0  0  0  0
  140.6340   74.3580  221.4200 C   0  0  2  0  0  0  0  0  0  0  0  0
  140.2180   73.4660  222.3890 O   0  0  0  0  0  0  0  0  0  0  0  0
  141.0570   75.6990  221.9620 C   0  0  0  0  0  0  0  0  0  0  0  0
  139.7720   76.4900  221.9490 C   0  0  1  0  0  0  0  0  0  0  0  0
  139.8810   77.6890  221.0200 C   0  0  0  0  0  0  0  0  0  0  0  0
  140.3760   78.8600  221.6800 N   0  0  0  0  0  0  0  0  0  0  0  0
  141.7660   79.1070  221.4660 C   0  0  0  0  0  0  0  0  0  0  0  0
  142.5270   79.3930  222.7350 C   0  0  0  0  0  0  0  0  0  0  0  0
  141.8400   80.4060  223.6140 C   0  0  0  0  0  0  0  0  0  0  0  0
  140.3320   80.2870  223.5680 C   0  0  0  0  0  0  0  0  0  0  0  0
  140.0290   78.8670  223.0730 C   0  0  0  0  0  0  0  0  0  0  0  0
  137.6600   71.1500  223.4430 C   0  0  0  0  0  0  0  0  0  0  0  0
  137.1160   69.8930  223.6800 C   0  0  0  0  0  0  0  0  0  0  0  0
  137.7600   68.9880  224.4700 C   0  0  0  0  0  0  0  0  0  0  0  0
  138.9630   69.3550  225.0270 C   0  0  0  0  0  0  0  0  0  0  0  0
  139.6090   68.4360  225.8250 C   0  0  0  0  0  0  0  0  0  0  0  0
  140.8110   68.7430  226.4070 C   0  0  0  0  0  0  0  0  0  0  0  0
  141.4500   67.8480  227.1910 F   0  0  0  0  0  0  0  0  0  0  0  0
  141.3450   69.9850  226.1710 C   0  0  0  0  0  0  0  0  0  0  0  0
  140.6960   70.9030  225.3730 C   0  0  0  0  0  0  0  0  0  0  0  0
  139.4730   70.6190  224.7670 C   0  0  0  0  0  0  0  0  0  0  0  0
  138.8360   71.5090  223.9880 N   0  0  0  0  0  0  0  0  0  0  0  0
  138.1960   73.7590  223.0260 H   0  0  0  0  0  0  0  0  0  0  0  0
  136.5557   73.9560  220.6092 H   0  0  0  0  0  0  0  0  0  0  0  0
  135.5871   74.4936  222.0015 H   0  0  0  0  0  0  0  0  0  0  0  0
  138.8984   73.8594  220.1884 H   0  0  0  0  0  0  0  0  0  0  0  0
  139.7973   75.1740  219.5241 H   0  0  0  0  0  0  0  0  0  0  0  0
  141.4666   73.8261  220.9363 H   0  0  0  0  0  0  0  0  0  0  0  0
  139.6000   73.9520  222.9880 H   0  0  0  0  0  0  0  0  0  0  0  0
  141.4535   75.6054  222.9838 H   0  0  0  0  0  0  0  0  0  0  0  0
  141.8617   76.1690  221.3775 H   0  0  0  0  0  0  0  0  0  0  0  0
  139.5484   76.8264  222.9721 H   0  0  0  0  0  0  0  0  0  0  0  0
  140.5644   77.4344  220.1965 H   0  0  0  0  0  0  0  0  0  0  0  0
  138.8689   77.9178  220.6548 H   0  0  0  0  0  0  0  0  0  0  0  0
  142.2077   78.2206  220.9872 H   0  0  0  0  0  0  0  0  0  0  0  0
  141.8421   80.0037  220.8334 H   0  0  0  0  0  0  0  0  0  0  0  0
  142.6350   78.4546  223.2988 H   0  0  0  0  0  0  0  0  0  0  0  0
  143.5027   79.8121  222.4480 H   0  0  0  0  0  0  0  0  0  0  0  0
  142.1739   80.2567  224.6514 H   0  0  0  0  0  0  0  0  0  0  0  0
  142.1073   81.4062  223.2424 H   0  0  0  0  0  0  0  0  0  0  0  0
  139.9068   80.4400  224.5709 H   0  0  0  0  0  0  0  0  0  0  0  0
  139.8904   81.0452  222.9046 H   0  0  0  0  0  0  0  0  0  0  0  0
  140.6345   78.1315  223.6230 H   0  0  0  0  0  0  0  0  0  0  0  0
  138.9740   78.5982  223.2304 H   0  0  0  0  0  0  0  0  0  0  0  0
  136.1519   69.6247  223.2234 H   0  0  0  0  0  0  0  0  0  0  0  0
  137.3301   67.9929  224.6568 H   0  0  0  0  0  0  0  0  0  0  0  0
  139.1563   67.4482  225.9962 H   0  0  0  0  0  0  0  0  0  0  0  0
  142.3093   70.2532  226.6273 H   0  0  0  0  0  0  0  0  0  0  0  0
  141.1567   71.8884  225.2097 H   0  0  0  0  0  0  0  0  0  0  0  0
  1  2  2  0
  2  3  1  0
  3  4  1  0
  4  5  1  0
  5  6  2  0
  5  7  1  0
  7  8  1  0
  8  9  1  0
  9 10  1  0
  9 11  1  0
 11 12  1  0
 12 13  1  0
 13 14  1  0
 14 15  1  0
 15 16  1  0
 16 17  1  0
 17 18  1  0
 18 19  1  0
  2 20  1  0
 20 21  2  0
 21 22  1  0
 22 23  2  0
 23 24  1  0
 24 25  2  0
 25 26  1  0
 25 27  1  0
 27 28  2  0
 28 29  1  0
 29 30  2  0
 12  7  1  0
 19 14  1  0
 30 20  1  0
 29 23  1  0
  3 31  1  0
  4 32  1  0
  4 33  1  0
  8 34  1  0
  8 35  1  0
  9 36  1  6
 10 37  1  0
 11 38  1  0
 11 39  1  0
 12 40  1  1
 13 41  1  0
 13 42  1  0
 15 43  1  0
 15 44  1  0
 16 45  1  0
 16 46  1  0
 17 47  1  0
 17 48  1  0
 18 49  1  0
 18 50  1  0
 19 51  1  0
 19 52  1  0
 21 53  1  0
 22 54  1  0
 24 55  1  0
 27 56  1  0
 28 57  1  0
M  END
>  <smiles>  (34) 
O=C(NCC(=O)N1C[C@H](O)C[C@H]1CN1CCCCC1)c1ccc2cc(F)ccc2n1

>  <score_type>  (34) 
oracle

>  <origin>  (34) 
autodockgpu

>  <m_score__min__energy>  (34) 
-8.3800000000000008

>  <m_primary>  (34) 
energy

>  <rmsd>  (34) 
2.772346103734419

>  <m_score__min__rmsd>  (34) 
2.772346103734419

>  <meeko>  (34) 
{"free_energy": -7.47, "intermolecular_energy": -9.56, "internal_energy": -2.65, "cluster_size": 7, "cluster_id": 2, "rank_in_cluster": 3}

>  <energy>  (34) 
-7.86

>  <cluster_rmsd>  (34) 
0.0

>  <cluster>  (34) 
2

$$$$

     RDKit          3D

 57 60  0  0  0  0  0  0  0  0999 V2000
  138.3360   72.4810  221.8390 O   0  0  0  0  0  0  0  0  0  0  0  0
  139.4060   72.4100  222.5240 C   0  0  0  0  0  0  0  0  0  0  0  0
  140.5320   73.2380  222.1960 N   0  0  0  0  0  0  0  0  0  0  0  0
  140.4150   74.1610  221.0580 C   0  0  0  0  0  0  0  0  0  0  0  0
  140.4170   75.5350  221.6100 C   0  0  0  0  0  0  0  0  0  0  0  0
  141.4590   76.1950  221.8510 O   0  0  0  0  0  0  0  0  0  0  0  0
  139.1700   76.1580  221.8860 N   0  0  0  0  0  0  0  0  0  0  0  0
  138.0670   75.6410  222.7140 C   0  0  0  0  0  0  0  0  0  0  0  0
  136.9060   75.9310  221.7760 C   0  0  2  0  0  0  0  0  0  0  0  0
  136.8740   75.0410  220.7210 O   0  0  0  0  0  0  0  0  0  0  0  0
  137.1750   77.3570  221.3680 C   0  0  0  0  0  0  0  0  0  0  0  0
  138.6800   77.4460  221.4230 C   0  0  1  0  0  0  0  0  0  0  0  0
  139.1280   78.4650  222.4590 C   0  0  0  0  0  0  0  0  0  0  0  0
  140.4980   78.8520  222.3030 N   0  0  0  0  0  0  0  0  0  0  0  0
  141.3000   78.6480  223.4670 C   0  0  0  0  0  0  0  0  0  0  0  0
  142.1340   79.8470  223.8380 C   0  0  0  0  0  0  0  0  0  0  0  0
  142.8740   80.4330  222.6630 C   0  0  0  0  0  0  0  0  0  0  0  0
  142.0810   80.3480  221.3770 C   0  0  0  0  0  0  0  0  0  0  0  0
  140.6130   80.1880  221.7880 C   0  0  0  0  0  0  0  0  0  0  0  0
  139.5110   71.4900  223.6520 C   0  0  0  0  0  0  0  0  0  0  0  0
  138.8410   70.2750  223.5780 C   0  0  0  0  0  0  0  0  0  0  0  0
  138.9030   69.3760  224.6000 C   0  0  0  0  0  0  0  0  0  0  0  0
  139.6460   69.7070  225.7090 C   0  0  0  0  0  0  0  0  0  0  0  0
  139.7060   68.7940  226.7400 C   0  0  0  0  0  0  0  0  0  0  0  0
  140.4310   69.0660  227.8700 C   0  0  0  0  0  0  0  0  0  0  0  0
  140.4920   68.1780  228.8850 F   0  0  0  0  0  0  0  0  0  0  0  0
  141.0910   70.2670  227.9400 C   0  0  0  0  0  0  0  0  0  0  0  0
  141.0300   71.1790  226.9080 C   0  0  0  0  0  0  0  0  0  0  0  0
  140.3010   70.9300  225.7460 C   0  0  0  0  0  0  0  0  0  0  0  0
  140.2380   71.8140  224.7370 N   0  0  0  0  0  0  0  0  0  0  0  0
  141.4070   73.1830  222.7530 H   0  0  0  0  0  0  0  0  0  0  0  0
  141.2667   74.0276  220.3748 H   0  0  0  0  0  0  0  0  0  0  0  0
  139.4925   73.9683  220.4907 H   0  0  0  0  0  0  0  0  0  0  0  0
  138.1736   74.5652  222.9174 H   0  0  0  0  0  0  0  0  0  0  0  0
  137.9839   76.0817  223.7184 H   0  0  0  0  0  0  0  0  0  0  0  0
  135.9107   75.8112  222.2287 H   0  0  0  0  0  0  0  0  0  0  0  0
  137.3290   74.2160  221.0210 H   0  0  0  0  0  0  0  0  0  0  0  0
  136.8039   77.5543  220.3515 H   0  0  0  0  0  0  0  0  0  0  0  0
  136.6728   78.0946  222.0112 H   0  0  0  0  0  0  0  0  0  0  0  0
  139.0574   77.7295  220.4294 H   0  0  0  0  0  0  0  0  0  0  0  0
  138.4972   79.3613  222.3656 H   0  0  0  0  0  0  0  0  0  0  0  0
  139.0279   77.9957  223.4488 H   0  0  0  0  0  0  0  0  0  0  0  0
  140.6354   78.4111  224.3109 H   0  0  0  0  0  0  0  0  0  0  0  0
  141.9957   77.8263  223.2415 H   0  0  0  0  0  0  0  0  0  0  0  0
  141.4718   80.6193  224.2563 H   0  0  0  0  0  0  0  0  0  0  0  0
  142.8858   79.5130  224.5683 H   0  0  0  0  0  0  0  0  0  0  0  0
  143.0906   81.4905  222.8745 H   0  0  0  0  0  0  0  0  0  0  0  0
  143.7969   79.8505  222.5253 H   0  0  0  0  0  0  0  0  0  0  0  0
  142.2134   81.2664  220.7862 H   0  0  0  0  0  0  0  0  0  0  0  0
  142.4166   79.5053  220.7547 H   0  0  0  0  0  0  0  0  0  0  0  0
  140.3495   80.9222  222.5635 H   0  0  0  0  0  0  0  0  0  0  0  0
  139.9329   80.3567  220.9401 H   0  0  0  0  0  0  0  0  0  0  0  0
  138.2516   70.0353  222.6807 H   0  0  0  0  0  0  0  0  0  0  0  0
  138.3741   68.4134  224.5398 H   0  0  0  0  0  0  0  0  0  0  0  0
  139.1671   67.8389  226.6546 H   0  0  0  0  0  0  0  0  0  0  0  0
  141.6804   70.5068  228.8373 H   0  0  0  0  0  0  0  0  0  0  0  0
  141.5724   72.1311  227.0042 H   0  0  0  0  0  0  0  0  0  0  0  0
  1  2  2  0
  2  3  1  0
  3  4  1  0
  4  5  1  0
  5  6  2  0
  5  7  1  0
  7  8  1  0
  8  9  1  0
  9 10  1  0
  9 11  1  0
 11 12  1  0
 12 13  1  0
 13 14  1  0
 14 15  1  0
 15 16  1  0
 16 17  1  0
 17 18  1  0
 18 19  1  0
  2 20  1  0
 20 21  2  0
 21 22  1  0
 22 23  2  0
 23 24  1  0
 24 25  2  0
 25 26  1  0
 25 27  1  0
 27 28  2  0
 28 29  1  0
 29 30  2  0
 12  7  1  0
 19 14  1  0
 30 20  1  0
 29 23  1  0
  3 31  1  0
  4 32  1  0
  4 33  1  0
  8 34  1  0
  8 35  1  0
  9 36  1  1
 10 37  1  0
 11 38  1  0
 11 39  1  0
 12 40  1  6
 13 41  1  0
 13 42  1  0
 15 43  1  0
 15 44  1  0
 16 45  1  0
 16 46  1  0
 17 47  1  0
 17 48  1  0
 18 49  1  0
 18 50  1  0
 19 51  1  0
 19 52  1  0
 21 53  1  0
 22 54  1  0
 24 55  1  0
 27 56  1  0
 28 57  1  0
M  END
>  <smiles>  (35) 
O=C(NCC(=O)N1C[C@H](O)C[C@H]1CN1CCCCC1)c1ccc2cc(F)ccc2n1

>  <score_type>  (35) 
oracle

>  <origin>  (35) 
autodockgpu

>  <m_score__min__energy>  (35) 
-8.3800000000000008

>  <m_primary>  (35) 
energy

>  <rmsd>  (35) 
2.804454433513105

>  <m_score__min__rmsd>  (35) 
2.804454433513105

>  <meeko>  (35) 
{"free_energy": -6.81, "intermolecular_energy": -8.89, "internal_energy": -2.44, "cluster_size": 33, "cluster_id": 1, "rank_in_cluster": 31}

>  <energy>  (35) 
-7.56

>  <cluster_rmsd>  (35) 
0.97

>  <cluster>  (35) 
2

$$$$

     RDKit          3D

 57 60  0  0  0  0  0  0  0  0999 V2000
  141.0630   71.1390  221.3650 O   0  0  0  0  0  0  0  0  0  0  0  0
  140.5950   71.7940  222.3510 C   0  0  0  0  0  0  0  0  0  0  0  0
  140.3310   73.2000  222.2250 N   0  0  0  0  0  0  0  0  0  0  0  0
  140.6130   73.8540  220.9400 C   0  0  0  0  0  0  0  0  0  0  0  0
  140.5200   75.3150  221.1640 C   0  0  0  0  0  0  0  0  0  0  0  0
  140.0250   75.8390  222.1930 O   0  0  0  0  0  0  0  0  0  0  0  0
  141.0200   76.1890  220.1600 N   0  0  0  0  0  0  0  0  0  0  0  0
  140.9010   76.0470  218.7000 C   0  0  0  0  0  0  0  0  0  0  0  0
  142.3410   76.3460  218.3110 C   0  0  2  0  0  0  0  0  0  0  0  0
  143.1740   75.2860  218.6060 O   0  0  0  0  0  0  0  0  0  0  0  0
  142.6310   77.5950  219.1060 C   0  0  0  0  0  0  0  0  0  0  0  0
  141.7630   77.4260  220.3280 C   0  0  1  0  0  0  0  0  0  0  0  0
  140.7260   78.5340  220.4160 C   0  0  0  0  0  0  0  0  0  0  0  0
  140.8520   79.3220  221.6060 N   0  0  0  0  0  0  0  0  0  0  0  0
  141.4960   80.5810  221.4070 C   0  0  0  0  0  0  0  0  0  0  0  0
  142.5870   80.8610  222.4080 C   0  0  0  0  0  0  0  0  0  0  0  0
  142.1620   80.5910  223.8290 C   0  0  0  0  0  0  0  0  0  0  0  0
  141.2270   79.4080  223.9410 C   0  0  0  0  0  0  0  0  0  0  0  0
  141.4440   78.5690  222.6760 C   0  0  0  0  0  0  0  0  0  0  0  0
  140.3190   71.1350  223.6230 C   0  0  0  0  0  0  0  0  0  0  0  0
  139.6090   69.9400  223.6060 C   0  0  0  0  0  0  0  0  0  0  0  0
  139.3220   69.2800  224.7630 C   0  0  0  0  0  0  0  0  0  0  0  0
  139.7520   69.8300  225.9480 C   0  0  0  0  0  0  0  0  0  0  0  0
  139.4590   69.1580  227.1140 C   0  0  0  0  0  0  0  0  0  0  0  0
  139.8610   69.6550  228.3250 C   0  0  0  0  0  0  0  0  0  0  0  0
  139.5760   69.0030  229.4720 F   0  0  0  0  0  0  0  0  0  0  0  0
  140.5610   70.8360  228.3380 C   0  0  0  0  0  0  0  0  0  0  0  0
  140.8540   71.5070  227.1690 C   0  0  0  0  0  0  0  0  0  0  0  0
  140.4580   71.0250  225.9230 C   0  0  0  0  0  0  0  0  0  0  0  0
  140.7400   71.6740  224.7820 N   0  0  0  0  0  0  0  0  0  0  0  0
  139.9490   73.7380  223.0270 H   0  0  0  0  0  0  0  0  0  0  0  0
  141.6235   73.5888  220.5957 H   0  0  0  0  0  0  0  0  0  0  0  0
  139.8966   73.5299  220.1708 H   0  0  0  0  0  0  0  0  0  0  0  0
  140.5979   75.0306  218.4082 H   0  0  0  0  0  0  0  0  0  0  0  0
  140.1413   76.6845  218.2240 H   0  0  0  0  0  0  0  0  0  0  0  0
  142.5041   76.4939  217.2333 H   0  0  0  0  0  0  0  0  0  0  0  0
  144.1030   75.6220  218.5610 H   0  0  0  0  0  0  0  0  0  0  0  0
  143.6946   77.6511  219.3808 H   0  0  0  0  0  0  0  0  0  0  0  0
  142.4233   78.5214  218.5505 H   0  0  0  0  0  0  0  0  0  0  0  0
  142.4011   77.4369  221.2239 H   0  0  0  0  0  0  0  0  0  0  0  0
  140.8427   79.1941  219.5439 H   0  0  0  0  0  0  0  0  0  0  0  0
  139.7348   78.0575  220.4389 H   0  0  0  0  0  0  0  0  0  0  0  0
  141.9366   80.5916  220.3992 H   0  0  0  0  0  0  0  0  0  0  0  0
  140.7306   81.3606  221.5349 H   0  0  0  0  0  0  0  0  0  0  0  0
  143.4515   80.2228  222.1728 H   0  0  0  0  0  0  0  0  0  0  0  0
  142.8359   81.9300  222.3351 H   0  0  0  0  0  0  0  0  0  0  0  0
  143.0591   80.3896  224.4329 H   0  0  0  0  0  0  0  0  0  0  0  0
  141.6214   81.4785  224.1896 H   0  0  0  0  0  0  0  0  0  0  0  0
  141.4667   78.8162  224.8367 H   0  0  0  0  0  0  0  0  0  0  0  0
  140.1798   79.7323  224.0318 H   0  0  0  0  0  0  0  0  0  0  0  0
  142.5186   78.4215  222.4929 H   0  0  0  0  0  0  0  0  0  0  0  0
  140.9930   77.5699  222.7683 H   0  0  0  0  0  0  0  0  0  0  0  0
  139.2743   69.5215  222.6454 H   0  0  0  0  0  0  0  0  0  0  0  0
  138.7619   68.3334  224.7497 H   0  0  0  0  0  0  0  0  0  0  0  0
  138.8969   68.2134  227.0721 H   0  0  0  0  0  0  0  0  0  0  0  0
  140.8945   71.2550  229.2988 H   0  0  0  0  0  0  0  0  0  0  0  0
  141.4170   72.4506  227.2219 H   0  0  0  0  0  0  0  0  0  0  0  0
  1  2  2  0
  2  3  1  0
  3  4  1  0
  4  5  1  0
  5  6  2  0
  5  7  1  0
  7  8  1  0
  8  9  1  0
  9 10  1  0
  9 11  1  0
 11 12  1  0
 12 13  1  0
 13 14  1  0
 14 15  1  0
 15 16  1  0
 16 17  1  0
 17 18  1  0
 18 19  1  0
  2 20  1  0
 20 21  2  0
 21 22  1  0
 22 23  2  0
 23 24  1  0
 24 25  2  0
 25 26  1  0
 25 27  1  0
 27 28  2  0
 28 29  1  0
 29 30  2  0
 12  7  1  0
 19 14  1  0
 30 20  1  0
 29 23  1  0
  3 31  1  0
  4 32  1  0
  4 33  1  0
  8 34  1  0
  8 35  1  0
  9 36  1  6
 10 37  1  0
 11 38  1  0
 11 39  1  0
 12 40  1  1
 13 41  1  0
 13 42  1  0
 15 43  1  0
 15 44  1  0
 16 45  1  0
 16 46  1  0
 17 47  1  0
 17 48  1  0
 18 49  1  0
 18 50  1  0
 19 51  1  0
 19 52  1  0
 21 53  1  0
 22 54  1  0
 24 55  1  0
 27 56  1  0
 28 57  1  0
M  END
>  <smiles>  (36) 
O=C(NCC(=O)N1C[C@H](O)C[C@H]1CN1CCCCC1)c1ccc2cc(F)ccc2n1

>  <score_type>  (36) 
oracle

>  <origin>  (36) 
autodockgpu

>  <m_score__min__energy>  (36) 
-8.3800000000000008

>  <m_primary>  (36) 
energy

>  <rmsd>  (36) 
2.406108526955231

>  <m_score__min__rmsd>  (36) 
2.406108526955231

>  <meeko>  (36) 
{"free_energy": -7.98, "intermolecular_energy": -10.07, "internal_energy": -1.95, "cluster_size": 33, "cluster_id": 1, "rank_in_cluster": 13}

>  <energy>  (36) 
-7.47

>  <cluster_rmsd>  (36) 
0.84

>  <cluster>  (36) 
2

$$$$

     RDKit          3D

 57 60  0  0  0  0  0  0  0  0999 V2000
  140.8260   72.1550  219.5140 O   0  0  0  0  0  0  0  0  0  0  0  0
  140.9110   72.6570  220.6800 C   0  0  0  0  0  0  0  0  0  0  0  0
  141.4180   73.9880  220.8610 N   0  0  0  0  0  0  0  0  0  0  0  0
  141.8310   74.7480  219.6730 C   0  0  0  0  0  0  0  0  0  0  0  0
  141.8070   76.1820  220.0410 C   0  0  0  0  0  0  0  0  0  0  0  0
  142.5770   77.0460  219.5540 O   0  0  0  0  0  0  0  0  0  0  0  0
  140.8560   76.6200  221.0030 N   0  0  0  0  0  0  0  0  0  0  0  0
  140.9190   76.4690  222.4660 C   0  0  0  0  0  0  0  0  0  0  0  0
  139.5030   75.9740  222.7180 C   0  0  2  0  0  0  0  0  0  0  0  0
  139.3520   74.6570  222.3300 O   0  0  0  0  0  0  0  0  0  0  0  0
  138.6780   76.9480  221.9160 C   0  0  0  0  0  0  0  0  0  0  0  0
  139.6000   77.3170  220.7800 C   0  0  1  0  0  0  0  0  0  0  0  0
  139.9310   78.8010  220.8080 C   0  0  0  0  0  0  0  0  0  0  0  0
  140.7450   79.1690  221.9270 N   0  0  0  0  0  0  0  0  0  0  0  0
  140.0500   79.8930  222.9420 C   0  0  0  0  0  0  0  0  0  0  0  0
  140.7710   81.1380  223.3920 C   0  0  0  0  0  0  0  0  0  0  0  0
  142.2300   80.8970  223.6830 C   0  0  0  0  0  0  0  0  0  0  0  0
  142.8480   79.8800  222.7480 C   0  0  0  0  0  0  0  0  0  0  0  0
  141.9470   79.8350  221.5080 C   0  0  0  0  0  0  0  0  0  0  0  0
  140.4970   71.8940  221.8540 C   0  0  0  0  0  0  0  0  0  0  0  0
  139.7330   70.7500  221.6610 C   0  0  0  0  0  0  0  0  0  0  0  0
  139.3180   69.9980  222.7190 C   0  0  0  0  0  0  0  0  0  0  0  0
  139.6750   70.4050  223.9840 C   0  0  0  0  0  0  0  0  0  0  0  0
  139.2530   69.6410  225.0490 C   0  0  0  0  0  0  0  0  0  0  0  0
  139.5780   69.9940  226.3320 C   0  0  0  0  0  0  0  0  0  0  0  0
  139.1670   69.2510  227.3820 F   0  0  0  0  0  0  0  0  0  0  0  0
  140.3330   71.1250  226.5190 C   0  0  0  0  0  0  0  0  0  0  0  0
  140.7550   71.8890  225.4510 C   0  0  0  0  0  0  0  0  0  0  0  0
  140.4390   71.5540  224.1350 C   0  0  0  0  0  0  0  0  0  0  0  0
  140.8480   72.2930  223.0910 N   0  0  0  0  0  0  0  0  0  0  0  0
  141.4870   74.4020  221.8110 H   0  0  0  0  0  0  0  0  0  0  0  0
  142.8469   74.4532  219.3713 H   0  0  0  0  0  0  0  0  0  0  0  0
  141.1549   74.5501  218.8281 H   0  0  0  0  0  0  0  0  0  0  0  0
  141.6743   75.7301  222.7718 H   0  0  0  0  0  0  0  0  0  0  0  0
  141.2091   77.3728  223.0218 H   0  0  0  0  0  0  0  0  0  0  0  0
  139.2061   75.9545  223.7770 H   0  0  0  0  0  0  0  0  0  0  0  0
  139.5770   74.0940  223.1110 H   0  0  0  0  0  0  0  0  0  0  0  0
  137.7591   76.4734  221.5414 H   0  0  0  0  0  0  0  0  0  0  0  0
  138.3413   77.8164  222.5013 H   0  0  0  0  0  0  0  0  0  0  0  0
  139.1151   77.0576  219.8273 H   0  0  0  0  0  0  0  0  0  0  0  0
  140.4683   79.0583  219.8833 H   0  0  0  0  0  0  0  0  0  0  0  0
  138.9816   79.3495  220.8957 H   0  0  0  0  0  0  0  0  0  0  0  0
  139.0644   80.1838  222.5496 H   0  0  0  0  0  0  0  0  0  0  0  0
  139.9714   79.2303  223.8164 H   0  0  0  0  0  0  0  0  0  0  0  0
  140.6917   81.8958  222.5987 H   0  0  0  0  0  0  0  0  0  0  0  0
  140.2986   81.4738  224.3269 H   0  0  0  0  0  0  0  0  0  0  0  0
  142.7724   81.8482  223.5776 H   0  0  0  0  0  0  0  0  0  0  0  0
  142.3052   80.4992  224.7058 H   0  0  0  0  0  0  0  0  0  0  0  0
  143.8662   80.1885  222.4684 H   0  0  0  0  0  0  0  0  0  0  0  0
  142.9233   78.8915  223.2246 H   0  0  0  0  0  0  0  0  0  0  0  0
  141.7203   80.8539  221.1611 H   0  0  0  0  0  0  0  0  0  0  0  0
  142.4321   79.3106  220.6715 H   0  0  0  0  0  0  0  0  0  0  0  0
  139.4591   70.4468  220.6397 H   0  0  0  0  0  0  0  0  0  0  0  0
  138.7146   69.0911  222.5660 H   0  0  0  0  0  0  0  0  0  0  0  0
  138.6496   68.7393  224.8679 H   0  0  0  0  0  0  0  0  0  0  0  0
  140.6068   71.4279  227.5404 H   0  0  0  0  0  0  0  0  0  0  0  0
  141.3583   72.7885  225.6431 H   0  0  0  0  0  0  0  0  0  0  0  0
  1  2  2  0
  2  3  1  0
  3  4  1  0
  4  5  1  0
  5  6  2  0
  5  7  1  0
  7  8  1  0
  8  9  1  0
  9 10  1  0
  9 11  1  0
 11 12  1  0
 12 13  1  0
 13 14  1  0
 14 15  1  0
 15 16  1  0
 16 17  1  0
 17 18  1  0
 18 19  1  0
  2 20  1  0
 20 21  2  0
 21 22  1  0
 22 23  2  0
 23 24  1  0
 24 25  2  0
 25 26  1  0
 25 27  1  0
 27 28  2  0
 28 29  1  0
 29 30  2  0
 12  7  1  0
 19 14  1  0
 30 20  1  0
 29 23  1  0
  3 31  1  0
  4 32  1  0
  4 33  1  0
  8 34  1  0
  8 35  1  0
  9 36  1  1
 10 37  1  0
 11 38  1  0
 11 39  1  0
 12 40  1  6
 13 41  1  0
 13 42  1  0
 15 43  1  0
 15 44  1  0
 16 45  1  0
 16 46  1  0
 17 47  1  0
 17 48  1  0
 18 49  1  0
 18 50  1  0
 19 51  1  0
 19 52  1  0
 21 53  1  0
 22 54  1  0
 24 55  1  0
 27 56  1  0
 28 57  1  0
M  END
>  <smiles>  (37) 
O=C(NCC(=O)N1C[C@H](O)C[C@H]1CN1CCCCC1)c1ccc2cc(F)ccc2n1

>  <score_type>  (37) 
oracle

>  <origin>  (37) 
autodockgpu

>  <m_score__min__energy>  (37) 
-8.3800000000000008

>  <m_primary>  (37) 
energy

>  <rmsd>  (37) 
3.3789931564143654

>  <m_score__min__rmsd>  (37) 
3.3789931564143654

>  <meeko>  (37) 
{"free_energy": -6.55, "intermolecular_energy": -8.64, "internal_energy": -3.13, "cluster_size": 33, "cluster_id": 1, "rank_in_cluster": 32}

>  <energy>  (37) 
-7.39

>  <cluster_rmsd>  (37) 
0.83

>  <cluster>  (37) 
2

$$$$

     RDKit          3D

 57 60  0  0  0  0  0  0  0  0999 V2000
  140.2380   73.3000  222.3440 O   0  0  0  0  0  0  0  0  0  0  0  0
  140.4130   74.2890  221.5630 C   0  0  0  0  0  0  0  0  0  0  0  0
  140.9830   74.0900  220.2600 N   0  0  0  0  0  0  0  0  0  0  0  0
  141.3540   72.7260  219.8580 C   0  0  0  0  0  0  0  0  0  0  0  0
  142.5480   72.3480  220.6480 C   0  0  0  0  0  0  0  0  0  0  0  0
  142.5330   71.5230  221.5950 O   0  0  0  0  0  0  0  0  0  0  0  0
  143.7950   72.9490  220.3220 N   0  0  0  0  0  0  0  0  0  0  0  0
  145.0690   72.2750  220.0210 C   0  0  0  0  0  0  0  0  0  0  0  0
  145.9950   73.1100  220.8930 C   0  0  2  0  0  0  0  0  0  0  0  0
  145.8470   72.7970  222.2300 O   0  0  0  0  0  0  0  0  0  0  0  0
  145.5780   74.5160  220.5430 C   0  0  0  0  0  0  0  0  0  0  0  0
  144.1150   74.3620  220.2080 C   0  0  1  0  0  0  0  0  0  0  0  0
  143.8450   74.7400  218.7600 C   0  0  0  0  0  0  0  0  0  0  0  0
  142.8700   75.7800  218.6290 N   0  0  0  0  0  0  0  0  0  0  0  0
  142.8360   76.3900  217.3390 C   0  0  0  0  0  0  0  0  0  0  0  0
  142.8490   77.8970  217.3870 C   0  0  0  0  0  0  0  0  0  0  0  0
  141.8570   78.4600  218.3720 C   0  0  0  0  0  0  0  0  0  0  0  0
  141.7130   77.5980  219.6070 C   0  0  0  0  0  0  0  0  0  0  0  0
  142.9850   76.7460  219.6860 C   0  0  0  0  0  0  0  0  0  0  0  0
  140.0410   75.6400  221.9710 C   0  0  0  0  0  0  0  0  0  0  0  0
  138.6930   75.9780  221.9820 C   0  0  0  0  0  0  0  0  0  0  0  0
  138.2860   77.2240  222.3540 C   0  0  0  0  0  0  0  0  0  0  0  0
  139.2470   78.1380  222.7180 C   0  0  0  0  0  0  0  0  0  0  0  0
  138.8290   79.3960  223.0930 C   0  0  0  0  0  0  0  0  0  0  0  0
  139.7390   80.3500  223.4670 C   0  0  0  0  0  0  0  0  0  0  0  0
  139.3380   81.5850  223.8350 F   0  0  0  0  0  0  0  0  0  0  0  0
  141.0700   80.0120  223.4550 C   0  0  0  0  0  0  0  0  0  0  0  0
  141.4860   78.7520  223.0790 C   0  0  0  0  0  0  0  0  0  0  0  0
  140.5830   77.7620  222.6940 C   0  0  0  0  0  0  0  0  0  0  0  0
  140.9820   76.5340  222.3270 N   0  0  0  0  0  0  0  0  0  0  0  0
  141.1270   74.8940  219.6190 H   0  0  0  0  0  0  0  0  0  0  0  0
  140.5268   72.0324  220.0693 H   0  0  0  0  0  0  0  0  0  0  0  0
  141.5677   72.6804  218.7799 H   0  0  0  0  0  0  0  0  0  0  0  0
  145.0580   71.2181  220.3257 H   0  0  0  0  0  0  0  0  0  0  0  0
  145.3384   72.2288  218.9555 H   0  0  0  0  0  0  0  0  0  0  0  0
  147.0675   72.9402  220.7170 H   0  0  0  0  0  0  0  0  0  0  0  0
  145.3440   71.9470  222.2780 H   0  0  0  0  0  0  0  0  0  0  0  0
  145.7188   75.1945  221.3973 H   0  0  0  0  0  0  0  0  0  0  0  0
  146.1673   74.9516  219.7227 H   0  0  0  0  0  0  0  0  0  0  0  0
  143.5253   75.0029  220.8799 H   0  0  0  0  0  0  0  0  0  0  0  0
  144.7863   75.0818  218.3050 H   0  0  0  0  0  0  0  0  0  0  0  0
  143.4466   73.8480  218.2544 H   0  0  0  0  0  0  0  0  0  0  0  0
  143.7149   76.0519  216.7705 H   0  0  0  0  0  0  0  0  0  0  0  0
  141.8910   76.0891  216.8631 H   0  0  0  0  0  0  0  0  0  0  0  0
  143.8571   78.2305  217.6743 H   0  0  0  0  0  0  0  0  0  0  0  0
  142.5667   78.2619  216.3884 H   0  0  0  0  0  0  0  0  0  0  0  0
  142.1936   79.4614  218.6782 H   0  0  0  0  0  0  0  0  0  0  0  0
  140.8766   78.4971  217.8745 H   0  0  0  0  0  0  0  0  0  0  0  0
  141.6205   78.2288  220.5034 H   0  0  0  0  0  0  0  0  0  0  0  0
  140.8123   76.9688  219.5533 H   0  0  0  0  0  0  0  0  0  0  0  0
  143.8767   77.3728  219.5378 H   0  0  0  0  0  0  0  0  0  0  0  0
  143.0907   76.2631  220.6687 H   0  0  0  0  0  0  0  0  0  0  0  0
  137.9438   75.2288  221.6861 H   0  0  0  0  0  0  0  0  0  0  0  0
  137.2190   77.4913  222.3629 H   0  0  0  0  0  0  0  0  0  0  0  0
  137.7557   79.6368  223.0922 H   0  0  0  0  0  0  0  0  0  0  0  0
  141.8191   80.7611  223.7512 H   0  0  0  0  0  0  0  0  0  0  0  0
  142.5615   78.5214  223.0830 H   0  0  0  0  0  0  0  0  0  0  0  0
  1  2  2  0
  2  3  1  0
  3  4  1  0
  4  5  1  0
  5  6  2  0
  5  7  1  0
  7  8  1  0
  8  9  1  0
  9 10  1  0
  9 11  1  0
 11 12  1  0
 12 13  1  0
 13 14  1  0
 14 15  1  0
 15 16  1  0
 16 17  1  0
 17 18  1  0
 18 19  1  0
  2 20  1  0
 20 21  2  0
 21 22  1  0
 22 23  2  0
 23 24  1  0
 24 25  2  0
 25 26  1  0
 25 27  1  0
 27 28  2  0
 28 29  1  0
 29 30  2  0
 12  7  1  0
 19 14  1  0
 30 20  1  0
 29 23  1  0
  3 31  1  0
  4 32  1  0
  4 33  1  0
  8 34  1  0
  8 35  1  0
  9 36  1  6
 10 37  1  0
 11 38  1  0
 11 39  1  0
 12 40  1  1
 13 41  1  0
 13 42  1  0
 15 43  1  0
 15 44  1  0
 16 45  1  0
 16 46  1  0
 17 47  1  0
 17 48  1  0
 18 49  1  0
 18 50  1  0
 19 51  1  0
 19 52  1  0
 21 53  1  0
 22 54  1  0
 24 55  1  0
 27 56  1  0
 28 57  1  0
M  END
>  <smiles>  (38) 
O=C(NCC(=O)N1C[C@H](O)C[C@H]1CN1CCCCC1)c1ccc2cc(F)ccc2n1

>  <score_type>  (38) 
oracle

>  <origin>  (38) 
autodockgpu

>  <m_score__min__energy>  (38) 
-8.3800000000000008

>  <m_primary>  (38) 
energy

>  <rmsd>  (38) 
7.103580272650221

>  <m_score__min__rmsd>  (38) 
7.103580272650221

>  <meeko>  (38) 
{"free_energy": -6.47, "intermolecular_energy": -8.56, "internal_energy": -3.1, "cluster_size": 1, "cluster_id": 6, "rank_in_cluster": 1}

>  <energy>  (38) 
-7.01

>  <cluster_rmsd>  (38) 
1.07

>  <cluster>  (38) 
2

$$$$

     RDKit          3D

 57 60  0  0  0  0  0  0  0  0999 V2000
  140.7550   72.7580  222.6020 O   0  0  0  0  0  0  0  0  0  0  0  0
  139.8530   72.0750  223.1820 C   0  0  0  0  0  0  0  0  0  0  0  0
  138.5350   71.9880  222.6190 N   0  0  0  0  0  0  0  0  0  0  0  0
  138.2610   72.7030  221.3650 C   0  0  0  0  0  0  0  0  0  0  0  0
  138.3340   74.1520  221.6640 C   0  0  0  0  0  0  0  0  0  0  0  0
  137.4850   74.7720  222.3510 O   0  0  0  0  0  0  0  0  0  0  0  0
  139.4290   74.8970  221.1480 N   0  0  0  0  0  0  0  0  0  0  0  0
  139.7890   75.1120  219.7370 C   0  0  0  0  0  0  0  0  0  0  0  0
  141.2800   74.8200  219.8220 C   0  0  2  0  0  0  0  0  0  0  0  0
  141.5230   73.4670  219.9460 O   0  0  0  0  0  0  0  0  0  0  0  0
  141.6950   75.6310  221.0240 C   0  0  0  0  0  0  0  0  0  0  0  0
  140.4530   75.6230  221.8810 C   0  0  1  0  0  0  0  0  0  0  0  0
  139.9160   77.0320  222.0740 C   0  0  0  0  0  0  0  0  0  0  0  0
  140.9520   78.0170  222.1530 N   0  0  0  0  0  0  0  0  0  0  0  0
  141.4520   78.2340  223.4730 C   0  0  0  0  0  0  0  0  0  0  0  0
  141.5330   79.6910  223.8510 C   0  0  0  0  0  0  0  0  0  0  0  0
  142.1850   80.5370  222.7870 C   0  0  0  0  0  0  0  0  0  0  0  0
  141.8520   80.0680  221.3880 C   0  0  0  0  0  0  0  0  0  0  0  0
  140.5660   79.2400  221.5070 C   0  0  0  0  0  0  0  0  0  0  0  0
  140.1360   71.3670  224.4270 C   0  0  0  0  0  0  0  0  0  0  0  0
  141.0440   71.9320  225.3150 C   0  0  0  0  0  0  0  0  0  0  0  0
  141.3480   71.3170  226.4920 C   0  0  0  0  0  0  0  0  0  0  0  0
  140.7310   70.1210  226.7770 C   0  0  0  0  0  0  0  0  0  0  0  0
  141.0410   69.5040  227.9690 C   0  0  0  0  0  0  0  0  0  0  0  0
  140.4580   68.3120  228.3090 C   0  0  0  0  0  0  0  0  0  0  0  0
  140.7580   67.7010  229.4750 F   0  0  0  0  0  0  0  0  0  0  0  0
  139.5620   67.7580  227.4300 C   0  0  0  0  0  0  0  0  0  0  0  0
  139.2520   68.3770  226.2380 C   0  0  0  0  0  0  0  0  0  0  0  0
  139.8290   69.5900  225.8650 C   0  0  0  0  0  0  0  0  0  0  0  0
  139.5320   70.1980  224.7050 N   0  0  0  0  0  0  0  0  0  0  0  0
  137.7960   71.4300  223.0890 H   0  0  0  0  0  0  0  0  0  0  0  0
  139.0119   72.4360  220.6068 H   0  0  0  0  0  0  0  0  0  0  0  0
  137.2701   72.4345  220.9701 H   0  0  0  0  0  0  0  0  0  0  0  0
  139.2693   74.4107  219.0677 H   0  0  0  0  0  0  0  0  0  0  0  0
  139.5235   76.0976  219.3269 H   0  0  0  0  0  0  0  0  0  0  0  0
  141.8522   75.0913  218.9226 H   0  0  0  0  0  0  0  0  0  0  0  0
  141.0490   73.1570  220.7570 H   0  0  0  0  0  0  0  0  0  0  0  0
  142.5399   75.1593  221.5472 H   0  0  0  0  0  0  0  0  0  0  0  0
  142.0391   76.6437  220.7671 H   0  0  0  0  0  0  0  0  0  0  0  0
  140.6952   75.1764  222.8566 H   0  0  0  0  0  0  0  0  0  0  0  0
  139.2620   77.2778  221.2244 H   0  0  0  0  0  0  0  0  0  0  0  0
  139.3704   77.0494  223.0290 H   0  0  0  0  0  0  0  0  0  0  0  0
  140.7863   77.7254  224.1859 H   0  0  0  0  0  0  0  0  0  0  0  0
  142.4762   77.8338  223.5019 H   0  0  0  0  0  0  0  0  0  0  0  0
  140.5134   80.0665  224.0223 H   0  0  0  0  0  0  0  0  0  0  0  0
  142.1530   79.7634  224.7567 H   0  0  0  0  0  0  0  0  0  0  0  0
  141.8407   81.5754  222.9021 H   0  0  0  0  0  0  0  0  0  0  0  0
  143.2743   80.4549  222.9162 H   0  0  0  0  0  0  0  0  0  0  0  0
  141.6896   80.9309  220.7254 H   0  0  0  0  0  0  0  0  0  0  0  0
  142.6724   79.4736  220.9594 H   0  0  0  0  0  0  0  0  0  0  0  0
  139.8196   79.7750  222.1125 H   0  0  0  0  0  0  0  0  0  0  0  0
  140.1093   79.0541  220.5237 H   0  0  0  0  0  0  0  0  0  0  0  0
  141.5239   72.8894  225.0638 H   0  0  0  0  0  0  0  0  0  0  0  0
  142.0666   71.7642  227.1946 H   0  0  0  0  0  0  0  0  0  0  0  0
  141.7631   69.9727  228.6538 H   0  0  0  0  0  0  0  0  0  0  0  0
  139.0815   66.8010  227.6814 H   0  0  0  0  0  0  0  0  0  0  0  0
  138.5280   67.8998  225.5612 H   0  0  0  0  0  0  0  0  0  0  0  0
  1  2  2  0
  2  3  1  0
  3  4  1  0
  4  5  1  0
  5  6  2  0
  5  7  1  0
  7  8  1  0
  8  9  1  0
  9 10  1  0
  9 11  1  0
 11 12  1  0
 12 13  1  0
 13 14  1  0
 14 15  1  0
 15 16  1  0
 16 17  1  0
 17 18  1  0
 18 19  1  0
  2 20  1  0
 20 21  2  0
 21 22  1  0
 22 23  2  0
 23 24  1  0
 24 25  2  0
 25 26  1  0
 25 27  1  0
 27 28  2  0
 28 29  1  0
 29 30  2  0
 12  7  1  0
 19 14  1  0
 30 20  1  0
 29 23  1  0
  3 31  1  0
  4 32  1  0
  4 33  1  0
  8 34  1  0
  8 35  1  0
  9 36  1  6
 10 37  1  0
 11 38  1  0
 11 39  1  0
 12 40  1  1
 13 41  1  0
 13 42  1  0
 15 43  1  0
 15 44  1  0
 16 45  1  0
 16 46  1  0
 17 47  1  0
 17 48  1  0
 18 49  1  0
 18 50  1  0
 19 51  1  0
 19 52  1  0
 21 53  1  0
 22 54  1  0
 24 55  1  0
 27 56  1  0
 28 57  1  0
M  END
>  <smiles>  (39) 
O=C(NCC(=O)N1C[C@H](O)C[C@H]1CN1CCCCC1)c1ccc2cc(F)ccc2n1

>  <score_type>  (39) 
oracle

>  <origin>  (39) 
autodockgpu

>  <m_score__min__energy>  (39) 
-8.3800000000000008

>  <m_primary>  (39) 
energy

>  <rmsd>  (39) 
2.8584962742771154

>  <m_score__min__rmsd>  (39) 
2.8584962742771154

>  <meeko>  (39) 
{"free_energy": -7.19, "intermolecular_energy": -9.28, "internal_energy": -2.46, "cluster_size": 33, "cluster_id": 1, "rank_in_cluster": 29}

>  <energy>  (39) 
-6.87

>  <cluster_rmsd>  (39) 
0.93

>  <cluster>  (39) 
2

$$$$

     RDKit          3D

 57 60  0  0  0  0  0  0  0  0999 V2000
  139.8600   73.7870  222.3660 O   0  0  0  0  0  0  0  0  0  0  0  0
  140.3100   72.5990  222.3000 C   0  0  0  0  0  0  0  0  0  0  0  0
  140.9340   72.1260  221.0960 N   0  0  0  0  0  0  0  0  0  0  0  0
  141.0370   73.0440  219.9540 C   0  0  0  0  0  0  0  0  0  0  0  0
  142.0410   74.0730  220.3090 C   0  0  0  0  0  0  0  0  0  0  0  0
  142.9210   73.9210  221.1920 O   0  0  0  0  0  0  0  0  0  0  0  0
  142.0190   75.3130  219.6140 N   0  0  0  0  0  0  0  0  0  0  0  0
  141.4780   75.5840  218.2720 C   0  0  0  0  0  0  0  0  0  0  0  0
  142.6350   76.3940  217.7050 C   0  0  2  0  0  0  0  0  0  0  0  0
  143.7100   75.5860  217.3910 O   0  0  0  0  0  0  0  0  0  0  0  0
  142.9100   77.3750  218.8160 C   0  0  0  0  0  0  0  0  0  0  0  0
  142.5210   76.6040  220.0530 C   0  0  1  0  0  0  0  0  0  0  0  0
  141.3680   77.2810  220.7760 C   0  0  0  0  0  0  0  0  0  0  0  0
  141.8060   78.2080  221.7770 N   0  0  0  0  0  0  0  0  0  0  0  0
  141.1240   78.0860  223.0250 C   0  0  0  0  0  0  0  0  0  0  0  0
  140.6310   79.4010  223.5710 C   0  0  0  0  0  0  0  0  0  0  0  0
  141.6810   80.4810  223.5340 C   0  0  0  0  0  0  0  0  0  0  0  0
  142.5770   80.3790  222.3190 C   0  0  0  0  0  0  0  0  0  0  0  0
  141.8010   79.5570  221.2830 C   0  0  0  0  0  0  0  0  0  0  0  0
  140.2040   71.6950  223.4410 C   0  0  0  0  0  0  0  0  0  0  0  0
  139.5780   70.4680  223.2550 C   0  0  0  0  0  0  0  0  0  0  0  0
  139.4490   69.5840  224.2830 C   0  0  0  0  0  0  0  0  0  0  0  0
  139.9550   69.9400  225.5120 C   0  0  0  0  0  0  0  0  0  0  0  0
  139.8220   69.0410  226.5480 C   0  0  0  0  0  0  0  0  0  0  0  0
  140.3070   69.3390  227.7940 C   0  0  0  0  0  0  0  0  0  0  0  0
  140.1800   68.4640  228.8150 F   0  0  0  0  0  0  0  0  0  0  0  0
  140.9240   70.5510  227.9750 C   0  0  0  0  0  0  0  0  0  0  0  0
  141.0560   71.4490  226.9360 C   0  0  0  0  0  0  0  0  0  0  0  0
  140.5730   71.1740  225.6580 C   0  0  0  0  0  0  0  0  0  0  0  0
  140.6990   72.0440  224.6430 N   0  0  0  0  0  0  0  0  0  0  0  0
  141.3030   71.1570  221.0390 H   0  0  0  0  0  0  0  0  0  0  0  0
  141.3605   72.4952  219.0572 H   0  0  0  0  0  0  0  0  0  0  0  0
  140.0633   73.5071  219.7360 H   0  0  0  0  0  0  0  0  0  0  0  0
  141.3050   74.6587  217.7029 H   0  0  0  0  0  0  0  0  0  0  0  0
  140.4975   76.0822  218.2500 H   0  0  0  0  0  0  0  0  0  0  0  0
  142.4182   76.8981  216.7517 H   0  0  0  0  0  0  0  0  0  0  0  0
  144.5070   75.9750  217.8290 H   0  0  0  0  0  0  0  0  0  0  0  0
  143.9736   77.6545  218.8424 H   0  0  0  0  0  0  0  0  0  0  0  0
  142.3609   78.3216  218.7045 H   0  0  0  0  0  0  0  0  0  0  0  0
  143.3933   76.5339  220.7194 H   0  0  0  0  0  0  0  0  0  0  0  0
  140.7601   77.8235  220.0369 H   0  0  0  0  0  0  0  0  0  0  0  0
  140.7894   76.4953  221.2838 H   0  0  0  0  0  0  0  0  0  0  0  0
  140.2592   77.4206  222.8857 H   0  0  0  0  0  0  0  0  0  0  0  0
  141.8464   77.6845  223.7509 H   0  0  0  0  0  0  0  0  0  0  0  0
  139.7688   79.7289  222.9718 H   0  0  0  0  0  0  0  0  0  0  0  0
  140.3593   79.2402  224.6247 H   0  0  0  0  0  0  0  0  0  0  0  0
  141.1794   81.4599  223.5208 H   0  0  0  0  0  0  0  0  0  0  0  0
  142.3137   80.3617  224.4259 H   0  0  0  0  0  0  0  0  0  0  0  0
  142.7978   81.3811  221.9228 H   0  0  0  0  0  0  0  0  0  0  0  0
  143.5380   79.9053  222.5683 H   0  0  0  0  0  0  0  0  0  0  0  0
  140.7697   79.9288  221.1923 H   0  0  0  0  0  0  0  0  0  0  0  0
  142.2571   79.6262  220.2844 H   0  0  0  0  0  0  0  0  0  0  0  0
  139.1809   70.2071  222.2629 H   0  0  0  0  0  0  0  0  0  0  0  0
  138.9542   68.6128  224.1349 H   0  0  0  0  0  0  0  0  0  0  0  0
  139.3225   68.0767  226.3731 H   0  0  0  0  0  0  0  0  0  0  0  0
  141.3209   70.8116  228.9672 H   0  0  0  0  0  0  0  0  0  0  0  0
  141.5573   72.4104  227.1218 H   0  0  0  0  0  0  0  0  0  0  0  0
  1  2  2  0
  2  3  1  0
  3  4  1  0
  4  5  1  0
  5  6  2  0
  5  7  1  0
  7  8  1  0
  8  9  1  0
  9 10  1  0
  9 11  1  0
 11 12  1  0
 12 13  1  0
 13 14  1  0
 14 15  1  0
 15 16  1  0
 16 17  1  0
 17 18  1  0
 18 19  1  0
  2 20  1  0
 20 21  2  0
 21 22  1  0
 22 23  2  0
 23 24  1  0
 24 25  2  0
 25 26  1  0
 25 27  1  0
 27 28  2  0
 28 29  1  0
 29 30  2  0
 12  7  1  0
 19 14  1  0
 30 20  1  0
 29 23  1  0
  3 31  1  0
  4 32  1  0
  4 33  1  0
  8 34  1  0
  8 35  1  0
  9 36  1  6
 10 37  1  0
 11 38  1  0
 11 39  1  0
 12 40  1  1
 13 41  1  0
 13 42  1  0
 15 43  1  0
 15 44  1  0
 16 45  1  0
 16 46  1  0
 17 47  1  0
 17 48  1  0
 18 49  1  0
 18 50  1  0
 19 51  1  0
 19 52  1  0
 21 53  1  0
 22 54  1  0
 24 55  1  0
 27 56  1  0
 28 57  1  0
M  END
>  <smiles>  (40) 
O=C(NCC(=O)N1C[C@H](O)C[C@H]1CN1CCCCC1)c1ccc2cc(F)ccc2n1

>  <score_type>  (40) 
oracle

>  <origin>  (40) 
autodockgpu

>  <m_score__min__energy>  (40) 
-8.3800000000000008

>  <m_primary>  (40) 
energy

>  <rmsd>  (40) 
2.281724788558371

>  <m_score__min__rmsd>  (40) 
2.281724788558371

>  <meeko>  (40) 
{"free_energy": -8.2, "intermolecular_energy": -10.29, "internal_energy": -1.36, "cluster_size": 33, "cluster_id": 1, "rank_in_cluster": 8}

>  <energy>  (40) 
-6.68

>  <cluster_rmsd>  (40) 
0.97

>  <cluster>  (40) 
2

$$$$

     RDKit          3D

 57 60  0  0  0  0  0  0  0  0999 V2000
  140.2200   71.9520  221.7840 O   0  0  0  0  0  0  0  0  0  0  0  0
  139.3780   71.9040  222.7370 C   0  0  0  0  0  0  0  0  0  0  0  0
  138.1810   72.6960  222.6860 N   0  0  0  0  0  0  0  0  0  0  0  0
  137.9590   73.5550  221.5150 C   0  0  0  0  0  0  0  0  0  0  0  0
  138.1770   74.9530  221.9530 C   0  0  0  0  0  0  0  0  0  0  0  0
  137.4840   75.5330  222.8260 O   0  0  0  0  0  0  0  0  0  0  0  0
  139.2320   75.6950  221.3560 N   0  0  0  0  0  0  0  0  0  0  0  0
  139.6460   75.6980  219.9430 C   0  0  0  0  0  0  0  0  0  0  0  0
  141.1490   75.5600  220.1320 C   0  0  2  0  0  0  0  0  0  0  0  0
  141.4950   74.2750  220.4990 O   0  0  0  0  0  0  0  0  0  0  0  0
  141.4330   76.5970  221.1890 C   0  0  0  0  0  0  0  0  0  0  0  0
  140.1540   76.6240  221.9880 C   0  0  1  0  0  0  0  0  0  0  0  0
  139.4930   77.9910  221.9130 C   0  0  0  0  0  0  0  0  0  0  0  0
  140.2850   79.0260  222.5070 N   0  0  0  0  0  0  0  0  0  0  0  0
  140.8480   79.9430  221.5680 C   0  0  0  0  0  0  0  0  0  0  0  0
  142.3190   80.1910  221.7800 C   0  0  0  0  0  0  0  0  0  0  0  0
  142.6640   80.4780  223.2190 C   0  0  0  0  0  0  0  0  0  0  0  0
  141.8150   79.6850  224.1880 C   0  0  0  0  0  0  0  0  0  0  0  0
  141.2720   78.4860  223.4000 C   0  0  0  0  0  0  0  0  0  0  0  0
  139.6080   71.0460  223.8950 C   0  0  0  0  0  0  0  0  0  0  0  0
  139.2430   69.7080  223.8080 C   0  0  0  0  0  0  0  0  0  0  0  0
  139.4340   68.8600  224.8570 C   0  0  0  0  0  0  0  0  0  0  0  0
  139.9970   69.3660  226.0050 C   0  0  0  0  0  0  0  0  0  0  0  0
  140.1880   68.5030  227.0630 C   0  0  0  0  0  0  0  0  0  0  0  0
  140.7450   68.9480  228.2330 C   0  0  0  0  0  0  0  0  0  0  0  0
  140.9340   68.1100  229.2740 F   0  0  0  0  0  0  0  0  0  0  0  0
  141.1050   70.2700  228.3150 C   0  0  0  0  0  0  0  0  0  0  0  0
  140.9130   71.1320  227.2550 C   0  0  0  0  0  0  0  0  0  0  0  0
  140.3480   70.7080  226.0540 C   0  0  0  0  0  0  0  0  0  0  0  0
  140.1590   71.5420  225.0180 N   0  0  0  0  0  0  0  0  0  0  0  0
  137.4910   72.6580  223.4610 H   0  0  0  0  0  0  0  0  0  0  0  0
  138.6690   73.2948  220.7161 H   0  0  0  0  0  0  0  0  0  0  0  0
  136.9411   73.4227  221.1197 H   0  0  0  0  0  0  0  0  0  0  0  0
  139.2210   74.8491  219.3874 H   0  0  0  0  0  0  0  0  0  0  0  0
  139.3221   76.5715  219.3581 H   0  0  0  0  0  0  0  0  0  0  0  0
  141.7428   75.7247  219.2208 H   0  0  0  0  0  0  0  0  0  0  0  0
  140.6970   73.8630  220.9140 H   0  0  0  0  0  0  0  0  0  0  0  0
  142.2855   76.2987  221.8169 H   0  0  0  0  0  0  0  0  0  0  0  0
  141.7054   77.5780  220.7725 H   0  0  0  0  0  0  0  0  0  0  0  0
  140.3823   76.3741  223.0346 H   0  0  0  0  0  0  0  0  0  0  0  0
  139.3239   78.2416  220.8554 H   0  0  0  0  0  0  0  0  0  0  0  0
  138.5496   77.9330  222.4756 H   0  0  0  0  0  0  0  0  0  0  0  0
  140.7055   79.5366  220.5558 H   0  0  0  0  0  0  0  0  0  0  0  0
  140.3338   80.9055  221.7066 H   0  0  0  0  0  0  0  0  0  0  0  0
  142.8755   79.2989  221.4568 H   0  0  0  0  0  0  0  0  0  0  0  0
  142.5922   81.0793  221.1915 H   0  0  0  0  0  0  0  0  0  0  0  0
  143.7210   80.2231  223.3859 H   0  0  0  0  0  0  0  0  0  0  0  0
  142.4714   81.5454  223.4022 H   0  0  0  0  0  0  0  0  0  0  0  0
  142.4255   79.3394  225.0353 H   0  0  0  0  0  0  0  0  0  0  0  0
  140.9987   80.2971  224.5992 H   0  0  0  0  0  0  0  0  0  0  0  0
  142.0801   78.0021  222.8319 H   0  0  0  0  0  0  0  0  0  0  0  0
  140.8443   77.7215  224.0653 H   0  0  0  0  0  0  0  0  0  0  0  0
  138.7934   69.3281  222.8788 H   0  0  0  0  0  0  0  0  0  0  0  0
  139.1461   67.8006  224.7876 H   0  0  0  0  0  0  0  0  0  0  0  0
  139.8907   67.4483  226.9670 H   0  0  0  0  0  0  0  0  0  0  0  0
  141.5554   70.6496  229.2440 H   0  0  0  0  0  0  0  0  0  0  0  0
  141.2147   72.1845  227.3611 H   0  0  0  0  0  0  0  0  0  0  0  0
  1  2  2  0
  2  3  1  0
  3  4  1  0
  4  5  1  0
  5  6  2  0
  5  7  1  0
  7  8  1  0
  8  9  1  0
  9 10  1  0
  9 11  1  0
 11 12  1  0
 12 13  1  0
 13 14  1  0
 14 15  1  0
 15 16  1  0
 16 17  1  0
 17 18  1  0
 18 19  1  0
  2 20  1  0
 20 21  2  0
 21 22  1  0
 22 23  2  0
 23 24  1  0
 24 25  2  0
 25 26  1  0
 25 27  1  0
 27 28  2  0
 28 29  1  0
 29 30  2  0
 12  7  1  0
 19 14  1  0
 30 20  1  0
 29 23  1  0
  3 31  1  0
  4 32  1  0
  4 33  1  0
  8 34  1  0
  8 35  1  0
  9 36  1  6
 10 37  1  0
 11 38  1  0
 11 39  1  0
 12 40  1  1
 13 41  1  0
 13 42  1  0
 15 43  1  0
 15 44  1  0
 16 45  1  0
 16 46  1  0
 17 47  1  0
 17 48  1  0
 18 49  1  0
 18 50  1  0
 19 51  1  0
 19 52  1  0
 21 53  1  0
 22 54  1  0
 24 55  1  0
 27 56  1  0
 28 57  1  0
M  END
>  <smiles>  (41) 
O=C(NCC(=O)N1C[C@H](O)C[C@H]1CN1CCCCC1)c1ccc2cc(F)ccc2n1

>  <score_type>  (41) 
oracle

>  <origin>  (41) 
autodockgpu

>  <m_score__min__energy>  (41) 
-8.3800000000000008

>  <m_primary>  (41) 
energy

>  <rmsd>  (41) 
2.3786711487017453

>  <m_score__min__rmsd>  (41) 
2.3786711487017453

>  <meeko>  (41) 
{"free_energy": -7.49, "intermolecular_energy": -9.58, "internal_energy": -2.02, "cluster_size": 33, "cluster_id": 1, "rank_in_cluster": 25}

>  <energy>  (41) 
-7.48

>  <cluster_rmsd>  (41) 
0.0

>  <cluster>  (41) 
3

$$$$

     RDKit          3D

 57 60  0  0  0  0  0  0  0  0999 V2000
  140.5940   71.4000  221.0940 O   0  0  0  0  0  0  0  0  0  0  0  0
  140.2460   72.0000  222.1610 C   0  0  0  0  0  0  0  0  0  0  0  0
  139.9810   73.4110  222.1450 N   0  0  0  0  0  0  0  0  0  0  0  0
  140.1220   74.1360  220.8750 C   0  0  0  0  0  0  0  0  0  0  0  0
  140.6680   75.4750  221.1950 C   0  0  0  0  0  0  0  0  0  0  0  0
  140.6700   75.9770  222.3460 O   0  0  0  0  0  0  0  0  0  0  0  0
  141.2290   76.2490  220.1420 N   0  0  0  0  0  0  0  0  0  0  0  0
  141.1340   76.0040  218.6940 C   0  0  0  0  0  0  0  0  0  0  0  0
  142.5940   76.2080  218.3190 C   0  0  2  0  0  0  0  0  0  0  0  0
  143.3700   75.1350  218.7100 O   0  0  0  0  0  0  0  0  0  0  0  0
  142.9270   77.4970  219.0270 C   0  0  0  0  0  0  0  0  0  0  0  0
  142.0280   77.4590  220.2380 C   0  0  1  0  0  0  0  0  0  0  0  0
  141.0420   78.6170  220.2190 C   0  0  0  0  0  0  0  0  0  0  0  0
  140.9960   79.3280  221.4620 N   0  0  0  0  0  0  0  0  0  0  0  0
  140.8080   80.7360  221.3230 C   0  0  0  0  0  0  0  0  0  0  0  0
  141.7770   81.5540  222.1380 C   0  0  0  0  0  0  0  0  0  0  0  0
  141.8940   81.0750  223.5630 C   0  0  0  0  0  0  0  0  0  0  0  0
  141.7850   79.5710  223.6800 C   0  0  0  0  0  0  0  0  0  0  0  0
  142.1220   79.0070  222.2940 C   0  0  0  0  0  0  0  0  0  0  0  0
  140.1090   71.2700  223.4180 C   0  0  0  0  0  0  0  0  0  0  0  0
  139.5120   70.0160  223.3900 C   0  0  0  0  0  0  0  0  0  0  0  0
  139.3570   69.2890  224.5320 C   0  0  0  0  0  0  0  0  0  0  0  0
  139.8070   69.8310  225.7130 C   0  0  0  0  0  0  0  0  0  0  0  0
  139.6480   69.0910  226.8640 C   0  0  0  0  0  0  0  0  0  0  0  0
  140.0770   69.5780  228.0700 C   0  0  0  0  0  0  0  0  0  0  0  0
  139.9240   68.8600  229.2020 F   0  0  0  0  0  0  0  0  0  0  0  0
  140.6670   70.8180  228.0930 C   0  0  0  0  0  0  0  0  0  0  0  0
  140.8250   71.5570  226.9400 C   0  0  0  0  0  0  0  0  0  0  0  0
  140.3980   71.0870  225.6990 C   0  0  0  0  0  0  0  0  0  0  0  0
  140.5500   71.8020  224.5720 N   0  0  0  0  0  0  0  0  0  0  0  0
  139.6960   73.9040  223.0140 H   0  0  0  0  0  0  0  0  0  0  0  0
  140.8110   73.5974  220.2078 H   0  0  0  0  0  0  0  0  0  0  0  0
  139.1518   74.2213  220.3636 H   0  0  0  0  0  0  0  0  0  0  0  0
  140.7900   74.9834  218.4705 H   0  0  0  0  0  0  0  0  0  0  0  0
  140.4150   76.6378  218.1542 H   0  0  0  0  0  0  0  0  0  0  0  0
  142.7855   76.2690  217.2375 H   0  0  0  0  0  0  0  0  0  0  0  0
  144.3090   75.3610  218.5000 H   0  0  0  0  0  0  0  0  0  0  0  0
  143.9865   77.5244  219.3215 H   0  0  0  0  0  0  0  0  0  0  0  0
  142.7743   78.3883  218.4007 H   0  0  0  0  0  0  0  0  0  0  0  0
  142.6480   77.5065  221.1454 H   0  0  0  0  0  0  0  0  0  0  0  0
  141.3380   79.3175  219.4242 H   0  0  0  0  0  0  0  0  0  0  0  0
  140.0412   78.1967  220.0408 H   0  0  0  0  0  0  0  0  0  0  0  0
  140.9336   81.0013  220.2629 H   0  0  0  0  0  0  0  0  0  0  0  0
  139.7980   80.9663  221.6931 H   0  0  0  0  0  0  0  0  0  0  0  0
  142.7688   81.4968  221.6657 H   0  0  0  0  0  0  0  0  0  0  0  0
  141.3965   82.5857  222.1662 H   0  0  0  0  0  0  0  0  0  0  0  0
  142.8695   81.3900  223.9619 H   0  0  0  0  0  0  0  0  0  0  0  0
  141.0624   81.5154  224.1327 H   0  0  0  0  0  0  0  0  0  0  0  0
  142.4978   79.1943  224.4283 H   0  0  0  0  0  0  0  0  0  0  0  0
  140.7783   79.2665  224.0021 H   0  0  0  0  0  0  0  0  0  0  0  0
  143.0361   79.4757  221.9006 H   0  0  0  0  0  0  0  0  0  0  0  0
  142.3059   77.9231  222.3294 H   0  0  0  0  0  0  0  0  0  0  0  0
  139.1595   69.6042  222.4328 H   0  0  0  0  0  0  0  0  0  0  0  0
  138.8848   68.2957  224.5098 H   0  0  0  0  0  0  0  0  0  0  0  0
  139.1724   68.1004  226.8140 H   0  0  0  0  0  0  0  0  0  0  0  0
  141.0204   71.2295  229.0500 H   0  0  0  0  0  0  0  0  0  0  0  0
  141.3019   72.5464  227.0010 H   0  0  0  0  0  0  0  0  0  0  0  0
  1  2  2  0
  2  3  1  0
  3  4  1  0
  4  5  1  0
  5  6  2  0
  5  7  1  0
  7  8  1  0
  8  9  1  0
  9 10  1  0
  9 11  1  0
 11 12  1  0
 12 13  1  0
 13 14  1  0
 14 15  1  0
 15 16  1  0
 16 17  1  0
 17 18  1  0
 18 19  1  0
  2 20  1  0
 20 21  2  0
 21 22  1  0
 22 23  2  0
 23 24  1  0
 24 25  2  0
 25 26  1  0
 25 27  1  0
 27 28  2  0
 28 29  1  0
 29 30  2  0
 12  7  1  0
 19 14  1  0
 30 20  1  0
 29 23  1  0
  3 31  1  0
  4 32  1  0
  4 33  1  0
  8 34  1  0
  8 35  1  0
  9 36  1  6
 10 37  1  0
 11 38  1  0
 11 39  1  0
 12 40  1  1
 13 41  1  0
 13 42  1  0
 15 43  1  0
 15 44  1  0
 16 45  1  0
 16 46  1  0
 17 47  1  0
 17 48  1  0
 18 49  1  0
 18 50  1  0
 19 51  1  0
 19 52  1  0
 21 53  1  0
 22 54  1  0
 24 55  1  0
 27 56  1  0
 28 57  1  0
M  END
>  <smiles>  (42) 
O=C(NCC(=O)N1C[C@H](O)C[C@H]1CN1CCCCC1)c1ccc2cc(F)ccc2n1

>  <score_type>  (42) 
oracle

>  <origin>  (42) 
autodockgpu

>  <m_score__min__energy>  (42) 
-8.3800000000000008

>  <m_primary>  (42) 
energy

>  <rmsd>  (42) 
2.292520218718696

>  <m_score__min__rmsd>  (42) 
2.292520218718696

>  <meeko>  (42) 
{"free_energy": -8.23, "intermolecular_energy": -10.32, "internal_energy": -1.81, "cluster_size": 33, "cluster_id": 1, "rank_in_cluster": 7}

>  <energy>  (42) 
-6.94

>  <cluster_rmsd>  (42) 
0.64

>  <cluster>  (42) 
3

$$$$

     RDKit          3D

 57 60  0  0  0  0  0  0  0  0999 V2000
  140.8570   71.7440  221.1520 O   0  0  0  0  0  0  0  0  0  0  0  0
  140.3720   72.2560  222.2100 C   0  0  0  0  0  0  0  0  0  0  0  0
  139.9790   73.6370  222.2320 N   0  0  0  0  0  0  0  0  0  0  0  0
  140.1510   74.4340  221.0100 C   0  0  0  0  0  0  0  0  0  0  0  0
  140.7150   75.7420  221.4180 C   0  0  0  0  0  0  0  0  0  0  0  0
  140.6120   76.2220  222.5740 O   0  0  0  0  0  0  0  0  0  0  0  0
  141.4190   76.5090  220.4510 N   0  0  0  0  0  0  0  0  0  0  0  0
  141.5510   77.9740  220.3830 C   0  0  0  0  0  0  0  0  0  0  0  0
  141.2500   78.1740  218.9060 C   0  0  2  0  0  0  0  0  0  0  0  0
  139.9040   78.0240  218.6400 O   0  0  0  0  0  0  0  0  0  0  0  0
  142.1230   77.1290  218.2590 C   0  0  0  0  0  0  0  0  0  0  0  0
  142.1760   76.0400  219.3020 C   0  0  1  0  0  0  0  0  0  0  0  0
  143.5980   75.8240  219.7930 C   0  0  0  0  0  0  0  0  0  0  0  0
  143.8460   74.4750  220.2050 N   0  0  0  0  0  0  0  0  0  0  0  0
  145.1700   74.2440  220.6870 C   0  0  0  0  0  0  0  0  0  0  0  0
  145.8260   73.0310  220.0800 C   0  0  0  0  0  0  0  0  0  0  0  0
  144.9350   71.8150  220.0920 C   0  0  0  0  0  0  0  0  0  0  0  0
  143.4790   72.1600  219.8700 C   0  0  0  0  0  0  0  0  0  0  0  0
  143.4640   73.5350  219.1880 C   0  0  0  0  0  0  0  0  0  0  0  0
  140.2040   71.4550  223.4190 C   0  0  0  0  0  0  0  0  0  0  0  0
  139.5400   70.2380  223.3170 C   0  0  0  0  0  0  0  0  0  0  0  0
  139.3530   69.4480  224.4110 C   0  0  0  0  0  0  0  0  0  0  0  0
  139.8400   69.8890  225.6200 C   0  0  0  0  0  0  0  0  0  0  0  0
  139.6490   69.0860  226.7220 C   0  0  0  0  0  0  0  0  0  0  0  0
  140.1110   69.4700  227.9530 C   0  0  0  0  0  0  0  0  0  0  0  0
  139.9270   68.6890  229.0390 F   0  0  0  0  0  0  0  0  0  0  0  0
  140.7660   70.6720  228.0500 C   0  0  0  0  0  0  0  0  0  0  0  0
  140.9570   71.4750  226.9450 C   0  0  0  0  0  0  0  0  0  0  0  0
  140.4970   71.1100  225.6810 C   0  0  0  0  0  0  0  0  0  0  0  0
  140.6800   71.8870  224.6010 N   0  0  0  0  0  0  0  0  0  0  0  0
  139.5810   74.0580  223.0950 H   0  0  0  0  0  0  0  0  0  0  0  0
  140.8406   73.9242  220.3211 H   0  0  0  0  0  0  0  0  0  0  0  0
  139.1902   74.5669  220.4911 H   0  0  0  0  0  0  0  0  0  0  0  0
  140.8183   78.4840  221.0256 H   0  0  0  0  0  0  0  0  0  0  0  0
  142.5145   78.3778  220.7274 H   0  0  0  0  0  0  0  0  0  0  0  0
  141.4645   79.1844  218.5277 H   0  0  0  0  0  0  0  0  0  0  0  0
  139.4930   78.9220  218.6910 H   0  0  0  0  0  0  0  0  0  0  0  0
  141.6733   76.7608  217.3251 H   0  0  0  0  0  0  0  0  0  0  0  0
  143.1162   77.5077  217.9760 H   0  0  0  0  0  0  0  0  0  0  0  0
  141.7841   75.1091  218.8664 H   0  0  0  0  0  0  0  0  0  0  0  0
  144.2928   76.0756  218.9782 H   0  0  0  0  0  0  0  0  0  0  0  0
  143.7460   76.4700  220.6709 H   0  0  0  0  0  0  0  0  0  0  0  0
  145.7846   75.1260  220.4536 H   0  0  0  0  0  0  0  0  0  0  0  0
  145.0941   74.0639  221.7695 H   0  0  0  0  0  0  0  0  0  0  0  0
  146.0926   73.2606  219.0378 H   0  0  0  0  0  0  0  0  0  0  0  0
  146.7129   72.7966  220.6870 H   0  0  0  0  0  0  0  0  0  0  0  0
  145.2609   71.1313  219.2943 H   0  0  0  0  0  0  0  0  0  0  0  0
  145.0199   71.3489  221.0847 H   0  0  0  0  0  0  0  0  0  0  0  0
  143.0033   71.4082  219.2230 H   0  0  0  0  0  0  0  0  0  0  0  0
  142.9219   72.1768  220.8183 H   0  0  0  0  0  0  0  0  0  0  0  0
  144.1817   73.5581  218.3547 H   0  0  0  0  0  0  0  0  0  0  0  0
  142.4751   73.7699  218.7674 H   0  0  0  0  0  0  0  0  0  0  0  0
  139.1601   69.9081  222.3388 H   0  0  0  0  0  0  0  0  0  0  0  0
  138.8276   68.4850  224.3301 H   0  0  0  0  0  0  0  0  0  0  0  0
  139.1206   68.1274  226.6129 H   0  0  0  0  0  0  0  0  0  0  0  0
  141.1462   71.0015  229.0282 H   0  0  0  0  0  0  0  0  0  0  0  0
  141.4877   72.4311  227.0648 H   0  0  0  0  0  0  0  0  0  0  0  0
  1  2  2  0
  2  3  1  0
  3  4  1  0
  4  5  1  0
  5  6  2  0
  5  7  1  0
  7  8  1  0
  8  9  1  0
  9 10  1  0
  9 11  1  0
 11 12  1  0
 12 13  1  0
 13 14  1  0
 14 15  1  0
 15 16  1  0
 16 17  1  0
 17 18  1  0
 18 19  1  0
  2 20  1  0
 20 21  2  0
 21 22  1  0
 22 23  2  0
 23 24  1  0
 24 25  2  0
 25 26  1  0
 25 27  1  0
 27 28  2  0
 28 29  1  0
 29 30  2  0
 12  7  1  0
 19 14  1  0
 30 20  1  0
 29 23  1  0
  3 31  1  0
  4 32  1  0
  4 33  1  0
  8 34  1  0
  8 35  1  0
  9 36  1  6
 10 37  1  0
 11 38  1  0
 11 39  1  0
 12 40  1  6
 13 41  1  0
 13 42  1  0
 15 43  1  0
 15 44  1  0
 16 45  1  0
 16 46  1  0
 17 47  1  0
 17 48  1  0
 18 49  1  0
 18 50  1  0
 19 51  1  0
 19 52  1  0
 21 53  1  0
 22 54  1  0
 24 55  1  0
 27 56  1  0
 28 57  1  0
M  END
>  <smiles>  (43) 
O=C(NCC(=O)N1C[C@H](O)C[C@H]1CN1CCCCC1)c1ccc2cc(F)ccc2n1

>  <score_type>  (43) 
oracle

>  <origin>  (43) 
autodockgpu

>  <m_score__min__energy>  (43) 
-8.3800000000000008

>  <m_primary>  (43) 
energy

>  <rmsd>  (43) 
4.559836764350602

>  <m_score__min__rmsd>  (43) 
4.559836764350602

>  <meeko>  (43) 
{"free_energy": -7.48, "intermolecular_energy": -9.57, "internal_energy": -2.07, "cluster_size": 3, "cluster_id": 3, "rank_in_cluster": 1}

>  <energy>  (43) 
-6.82

>  <cluster_rmsd>  (43) 
1.7

>  <cluster>  (43) 
3

$$$$

     RDKit          3D

 57 60  0  0  0  0  0  0  0  0999 V2000
  138.7970   71.3320  221.3690 O   0  0  0  0  0  0  0  0  0  0  0  0
  138.4000   71.6370  222.5380 C   0  0  0  0  0  0  0  0  0  0  0  0
  137.4830   72.7250  222.7320 N   0  0  0  0  0  0  0  0  0  0  0  0
  137.0210   73.4700  221.5520 C   0  0  0  0  0  0  0  0  0  0  0  0
  137.4810   74.8690  221.7120 C   0  0  0  0  0  0  0  0  0  0  0  0
  136.7410   75.8140  222.0830 O   0  0  0  0  0  0  0  0  0  0  0  0
  138.8410   75.1730  221.4330 N   0  0  0  0  0  0  0  0  0  0  0  0
  139.7430   74.4890  220.4920 C   0  0  0  0  0  0  0  0  0  0  0  0
  140.9650   74.3530  221.3870 C   0  0  2  0  0  0  0  0  0  0  0  0
  140.7880   73.3660  222.3360 O   0  0  0  0  0  0  0  0  0  0  0  0
  141.0950   75.7410  221.9610 C   0  0  0  0  0  0  0  0  0  0  0  0
  139.6670   76.2240  222.0020 C   0  0  1  0  0  0  0  0  0  0  0  0
  139.4770   77.4400  221.1100 C   0  0  0  0  0  0  0  0  0  0  0  0
  140.0040   78.6410  221.6870 N   0  0  0  0  0  0  0  0  0  0  0  0
  141.3770   78.8830  221.3820 C   0  0  0  0  0  0  0  0  0  0  0  0
  142.2080   79.2280  222.5900 C   0  0  0  0  0  0  0  0  0  0  0  0
  141.5670   80.2760  223.4630 C   0  0  0  0  0  0  0  0  0  0  0  0
  140.0600   80.1500  223.5090 C   0  0  0  0  0  0  0  0  0  0  0  0
  139.7380   78.7080  223.0970 C   0  0  0  0  0  0  0  0  0  0  0  0
  138.8640   70.8900  223.7030 C   0  0  0  0  0  0  0  0  0  0  0  0
  138.5940   69.5280  223.7650 C   0  0  0  0  0  0  0  0  0  0  0  0
  139.0030   68.7800  224.8270 C   0  0  0  0  0  0  0  0  0  0  0  0
  139.6900   69.4110  225.8380 C   0  0  0  0  0  0  0  0  0  0  0  0
  140.1010   68.6490  226.9100 C   0  0  0  0  0  0  0  0  0  0  0  0
  140.7900   69.2200  227.9470 C   0  0  0  0  0  0  0  0  0  0  0  0
  141.1950   68.4810  229.0020 F   0  0  0  0  0  0  0  0  0  0  0  0
  141.0560   70.5650  227.8830 C   0  0  0  0  0  0  0  0  0  0  0  0
  140.6430   71.3260  226.8090 C   0  0  0  0  0  0  0  0  0  0  0  0
  139.9410   70.7720  225.7400 C   0  0  0  0  0  0  0  0  0  0  0  0
  139.5360   71.5080  224.6920 N   0  0  0  0  0  0  0  0  0  0  0  0
  137.1560   72.9760  223.6850 H   0  0  0  0  0  0  0  0  0  0  0  0
  137.4509   73.0337  220.6383 H   0  0  0  0  0  0  0  0  0  0  0  0
  135.9253   73.4258  221.4656 H   0  0  0  0  0  0  0  0  0  0  0  0
  139.3489   73.5102  220.1810 H   0  0  0  0  0  0  0  0  0  0  0  0
  139.9121   75.0088  219.5374 H   0  0  0  0  0  0  0  0  0  0  0  0
  141.8805   74.0334  220.8677 H   0  0  0  0  0  0  0  0  0  0  0  0
  140.4780   72.5560  221.8620 H   0  0  0  0  0  0  0  0  0  0  0  0
  141.5322   75.7126  222.9700 H   0  0  0  0  0  0  0  0  0  0  0  0
  141.7575   76.3936  221.3735 H   0  0  0  0  0  0  0  0  0  0  0  0
  139.4054   76.4756  223.0404 H   0  0  0  0  0  0  0  0  0  0  0  0
  139.9874   77.2568  220.1530 H   0  0  0  0  0  0  0  0  0  0  0  0
  138.3950   77.5852  220.9749 H   0  0  0  0  0  0  0  0  0  0  0  0
  141.7956   77.9777  220.9182 H   0  0  0  0  0  0  0  0  0  0  0  0
  141.4109   79.7508  220.7069 H   0  0  0  0  0  0  0  0  0  0  0  0
  142.3550   78.3159  223.1870 H   0  0  0  0  0  0  0  0  0  0  0  0
  143.1621   79.6385  222.2279 H   0  0  0  0  0  0  0  0  0  0  0  0
  141.9609   80.1728  224.4849 H   0  0  0  0  0  0  0  0  0  0  0  0
  141.8069   81.2602  223.0342 H   0  0  0  0  0  0  0  0  0  0  0  0
  139.6918   80.3470  224.5267 H   0  0  0  0  0  0  0  0  0  0  0  0
  139.5766   80.8758  222.8385 H   0  0  0  0  0  0  0  0  0  0  0  0
  140.3793   78.0003  223.6429 H   0  0  0  0  0  0  0  0  0  0  0  0
  138.6960   78.4415  223.3279 H   0  0  0  0  0  0  0  0  0  0  0  0
  138.0418   69.0471  222.9441 H   0  0  0  0  0  0  0  0  0  0  0  0
  138.7901   67.7019  224.8750 H   0  0  0  0  0  0  0  0  0  0  0  0
  139.8738   67.5730  226.9332 H   0  0  0  0  0  0  0  0  0  0  0  0
  141.6090   71.0453  228.7037 H   0  0  0  0  0  0  0  0  0  0  0  0
  140.8745   72.4013  226.7960 H   0  0  0  0  0  0  0  0  0  0  0  0
  1  2  2  0
  2  3  1  0
  3  4  1  0
  4  5  1  0
  5  6  2  0
  5  7  1  0
  7  8  1  0
  8  9  1  0
  9 10  1  0
  9 11  1  0
 11 12  1  0
 12 13  1  0
 13 14  1  0
 14 15  1  0
 15 16  1  0
 16 17  1  0
 17 18  1  0
 18 19  1  0
  2 20  1  0
 20 21  2  0
 21 22  1  0
 22 23  2  0
 23 24  1  0
 24 25  2  0
 25 26  1  0
 25 27  1  0
 27 28  2  0
 28 29  1  0
 29 30  2  0
 12  7  1  0
 19 14  1  0
 30 20  1  0
 29 23  1  0
  3 31  1  0
  4 32  1  0
  4 33  1  0
  8 34  1  0
  8 35  1  0
  9 36  1  6
 10 37  1  0
 11 38  1  0
 11 39  1  0
 12 40  1  1
 13 41  1  0
 13 42  1  0
 15 43  1  0
 15 44  1  0
 16 45  1  0
 16 46  1  0
 17 47  1  0
 17 48  1  0
 18 49  1  0
 18 50  1  0
 19 51  1  0
 19 52  1  0
 21 53  1  0
 22 54  1  0
 24 55  1  0
 27 56  1  0
 28 57  1  0
M  END
>  <smiles>  (44) 
O=C(NCC(=O)N1C[C@H](O)C[C@H]1CN1CCCCC1)c1ccc2cc(F)ccc2n1

>  <score_type>  (44) 
oracle

>  <origin>  (44) 
autodockgpu

>  <m_score__min__energy>  (44) 
-8.3800000000000008

>  <m_primary>  (44) 
energy

>  <rmsd>  (44) 
2.5198379096364536

>  <m_score__min__rmsd>  (44) 
2.5198379096364536

>  <meeko>  (44) 
{"free_energy": -7.7, "intermolecular_energy": -9.79, "internal_energy": -2.41, "cluster_size": 33, "cluster_id": 1, "rank_in_cluster": 20}

>  <energy>  (44) 
-7.45

>  <cluster_rmsd>  (44) 
0.0

>  <cluster>  (44) 
4

$$$$

     RDKit          3D

 57 60  0  0  0  0  0  0  0  0999 V2000
  141.2750   71.8070  222.1120 O   0  0  0  0  0  0  0  0  0  0  0  0
  140.3320   71.8980  222.9610 C   0  0  0  0  0  0  0  0  0  0  0  0
  139.1440   72.6410  222.6480 N   0  0  0  0  0  0  0  0  0  0  0  0
  139.0490   73.2890  221.3320 C   0  0  0  0  0  0  0  0  0  0  0  0
  139.6390   74.6400  221.4670 C   0  0  0  0  0  0  0  0  0  0  0  0
  139.2930   75.4750  222.3400 O   0  0  0  0  0  0  0  0  0  0  0  0
  140.6620   75.0290  220.5600 N   0  0  0  0  0  0  0  0  0  0  0  0
  140.7730   74.6960  219.1300 C   0  0  0  0  0  0  0  0  0  0  0  0
  142.2370   74.2840  219.0920 C   0  0  2  0  0  0  0  0  0  0  0  0
  142.4250   73.0400  219.6610 O   0  0  0  0  0  0  0  0  0  0  0  0
  142.9040   75.4090  219.8420 C   0  0  0  0  0  0  0  0  0  0  0  0
  141.8380   75.8420  220.8190 C   0  0  1  0  0  0  0  0  0  0  0  0
  141.4200   77.2820  220.5650 C   0  0  0  0  0  0  0  0  0  0  0  0
  141.8200   78.1710  221.6150 N   0  0  0  0  0  0  0  0  0  0  0  0
  141.1210   77.9740  222.8440 C   0  0  0  0  0  0  0  0  0  0  0  0
  140.5880   79.2510  223.4420 C   0  0  0  0  0  0  0  0  0  0  0  0
  141.6130   80.3560  223.4730 C   0  0  0  0  0  0  0  0  0  0  0  0
  142.5310   80.3310  222.2710 C   0  0  0  0  0  0  0  0  0  0  0  0
  141.7920   79.5410  221.1840 C   0  0  0  0  0  0  0  0  0  0  0  0
  140.4360   71.2500  224.2650 C   0  0  0  0  0  0  0  0  0  0  0  0
  141.0530   71.9450  225.2990 C   0  0  0  0  0  0  0  0  0  0  0  0
  141.1780   71.3920  226.5370 C   0  0  0  0  0  0  0  0  0  0  0  0
  140.6790   70.1250  226.7360 C   0  0  0  0  0  0  0  0  0  0  0  0
  140.8090   69.5710  227.9900 C   0  0  0  0  0  0  0  0  0  0  0  0
  140.3310   68.3130  228.2490 C   0  0  0  0  0  0  0  0  0  0  0  0
  140.4550   67.7630  229.4750 F   0  0  0  0  0  0  0  0  0  0  0  0
  139.7230   67.6310  227.2260 C   0  0  0  0  0  0  0  0  0  0  0  0
  139.5940   68.1870  225.9700 C   0  0  0  0  0  0  0  0  0  0  0  0
  140.0700   69.4640  225.6780 C   0  0  0  0  0  0  0  0  0  0  0  0
  139.9470   70.0120  224.4580 N   0  0  0  0  0  0  0  0  0  0  0  0
  138.3720   72.7170  223.3380 H   0  0  0  0  0  0  0  0  0  0  0  0
  139.6070   72.7069  220.5839 H   0  0  0  0  0  0  0  0  0  0  0  0
  138.0017   73.3510  221.0014 H   0  0  0  0  0  0  0  0  0  0  0  0
  140.1048   73.8695  218.8463 H   0  0  0  0  0  0  0  0  0  0  0  0
  140.4906   75.5002  218.4346 H   0  0  0  0  0  0  0  0  0  0  0  0
  142.6521   74.1584  218.0811 H   0  0  0  0  0  0  0  0  0  0  0  0
  141.6870   72.8970  220.3030 H   0  0  0  0  0  0  0  0  0  0  0  0
  143.8030   75.0555  220.3682 H   0  0  0  0  0  0  0  0  0  0  0  0
  143.2494   76.2227  219.1873 H   0  0  0  0  0  0  0  0  0  0  0  0
  142.2278   75.7384  221.8424 H   0  0  0  0  0  0  0  0  0  0  0  0
  141.8792   77.6203  219.6244 H   0  0  0  0  0  0  0  0  0  0  0  0
  140.3214   77.3033  220.5144 H   0  0  0  0  0  0  0  0  0  0  0  0
  140.2747   77.2961  222.6588 H   0  0  0  0  0  0  0  0  0  0  0  0
  141.8405   77.5549  223.5628 H   0  0  0  0  0  0  0  0  0  0  0  0
  139.7279   79.5866  222.8439 H   0  0  0  0  0  0  0  0  0  0  0  0
  140.3034   79.0350  224.4824 H   0  0  0  0  0  0  0  0  0  0  0  0
  141.0885   81.3227  223.4958 H   0  0  0  0  0  0  0  0  0  0  0  0
  142.2335   80.2101  224.3695 H   0  0  0  0  0  0  0  0  0  0  0  0
  142.7350   81.3553  221.9257 H   0  0  0  0  0  0  0  0  0  0  0  0
  143.4984   79.8678  222.5152 H   0  0  0  0  0  0  0  0  0  0  0  0
  140.7540   79.8934  221.0920 H   0  0  0  0  0  0  0  0  0  0  0  0
  142.2633   79.6670  220.1981 H   0  0  0  0  0  0  0  0  0  0  0  0
  141.4457   72.9558  225.1144 H   0  0  0  0  0  0  0  0  0  0  0  0
  141.6644   71.9428  227.3555 H   0  0  0  0  0  0  0  0  0  0  0  0
  141.3007   70.1431  228.7906 H   0  0  0  0  0  0  0  0  0  0  0  0
  139.3303   66.6202  227.4108 H   0  0  0  0  0  0  0  0  0  0  0  0
  139.1014   67.6059  225.1764 H   0  0  0  0  0  0  0  0  0  0  0  0
  1  2  2  0
  2  3  1  0
  3  4  1  0
  4  5  1  0
  5  6  2  0
  5  7  1  0
  7  8  1  0
  8  9  1  0
  9 10  1  0
  9 11  1  0
 11 12  1  0
 12 13  1  0
 13 14  1  0
 14 15  1  0
 15 16  1  0
 16 17  1  0
 17 18  1  0
 18 19  1  0
  2 20  1  0
 20 21  2  0
 21 22  1  0
 22 23  2  0
 23 24  1  0
 24 25  2  0
 25 26  1  0
 25 27  1  0
 27 28  2  0
 28 29  1  0
 29 30  2  0
 12  7  1  0
 19 14  1  0
 30 20  1  0
 29 23  1  0
  3 31  1  0
  4 32  1  0
  4 33  1  0
  8 34  1  0
  8 35  1  0
  9 36  1  6
 10 37  1  0
 11 38  1  0
 11 39  1  0
 12 40  1  1
 13 41  1  0
 13 42  1  0
 15 43  1  0
 15 44  1  0
 16 45  1  0
 16 46  1  0
 17 47  1  0
 17 48  1  0
 18 49  1  0
 18 50  1  0
 19 51  1  0
 19 52  1  0
 21 53  1  0
 22 54  1  0
 24 55  1  0
 27 56  1  0
 28 57  1  0
M  END
>  <smiles>  (45) 
O=C(NCC(=O)N1C[C@H](O)C[C@H]1CN1CCCCC1)c1ccc2cc(F)ccc2n1

>  <score_type>  (45) 
oracle

>  <origin>  (45) 
autodockgpu

>  <m_score__min__energy>  (45) 
-8.3800000000000008

>  <m_primary>  (45) 
energy

>  <rmsd>  (45) 
2.8682667080746227

>  <m_score__min__rmsd>  (45) 
2.8682667080746227

>  <meeko>  (45) 
{"free_energy": -7.73, "intermolecular_energy": -9.82, "internal_energy": -2.24, "cluster_size": 33, "cluster_id": 1, "rank_in_cluster": 19}

>  <energy>  (45) 
-7.16

>  <cluster_rmsd>  (45) 
1.47

>  <cluster>  (45) 
4

$$$$

     RDKit          3D

 57 60  0  0  0  0  0  0  0  0999 V2000
  138.5210   81.0930  223.2720 O   0  0  0  0  0  0  0  0  0  0  0  0
  137.6050   80.4400  223.8650 C   0  0  0  0  0  0  0  0  0  0  0  0
  137.2220   79.1380  223.3940 N   0  0  0  0  0  0  0  0  0  0  0  0
  137.9110   78.5880  222.2190 C   0  0  0  0  0  0  0  0  0  0  0  0
  138.1330   77.1470  222.4790 C   0  0  0  0  0  0  0  0  0  0  0  0
  137.4580   76.4660  223.2900 O   0  0  0  0  0  0  0  0  0  0  0  0
  139.1710   76.4810  221.7710 N   0  0  0  0  0  0  0  0  0  0  0  0
  139.0330   75.4610  220.7180 C   0  0  0  0  0  0  0  0  0  0  0  0
  140.0540   74.4540  221.2240 C   0  0  2  0  0  0  0  0  0  0  0  0
  139.5770   73.7590  222.3180 O   0  0  0  0  0  0  0  0  0  0  0  0
  141.2440   75.3300  221.5250 C   0  0  0  0  0  0  0  0  0  0  0  0
  140.6080   76.6420  221.9120 C   0  0  1  0  0  0  0  0  0  0  0  0
  141.0060   77.7460  220.9460 C   0  0  0  0  0  0  0  0  0  0  0  0
  141.6010   78.8720  221.6020 N   0  0  0  0  0  0  0  0  0  0  0  0
  141.7970   78.6940  223.0050 C   0  0  0  0  0  0  0  0  0  0  0  0
  141.2990   79.8520  223.8310 C   0  0  0  0  0  0  0  0  0  0  0  0
  141.7510   81.1880  223.3000 C   0  0  0  0  0  0  0  0  0  0  0  0
  141.8110   81.2220  221.7890 C   0  0  0  0  0  0  0  0  0  0  0  0
  140.9010   80.0890  221.2980 C   0  0  0  0  0  0  0  0  0  0  0  0
  136.9260   80.9960  225.0320 C   0  0  0  0  0  0  0  0  0  0  0  0
  137.5560   82.0140  225.7380 C   0  0  0  0  0  0  0  0  0  0  0  0
  136.9710   82.5710  226.8350 C   0  0  0  0  0  0  0  0  0  0  0  0
  135.7400   82.0970  227.2250 C   0  0  0  0  0  0  0  0  0  0  0  0
  135.1530   82.6640  228.3350 C   0  0  0  0  0  0  0  0  0  0  0  0
  133.9280   82.2350  228.7710 C   0  0  0  0  0  0  0  0  0  0  0  0
  133.3470   82.7850  229.8580 F   0  0  0  0  0  0  0  0  0  0  0  0
  133.3090   81.2290  228.0710 C   0  0  0  0  0  0  0  0  0  0  0  0
  133.8980   80.6620  226.9610 C   0  0  0  0  0  0  0  0  0  0  0  0
  135.1440   81.0790  226.4940 C   0  0  0  0  0  0  0  0  0  0  0  0
  135.7220   80.5310  225.4120 N   0  0  0  0  0  0  0  0  0  0  0  0
  136.4750   78.6020  223.8770 H   0  0  0  0  0  0  0  0  0  0  0  0
  137.2884   78.7179  221.3215 H   0  0  0  0  0  0  0  0  0  0  0  0
  138.8658   79.1063  222.0469 H   0  0  0  0  0  0  0  0  0  0  0  0
  138.0182   75.0377  220.6847 H   0  0  0  0  0  0  0  0  0  0  0  0
  139.1920   75.8189  219.6901 H   0  0  0  0  0  0  0  0  0  0  0  0
  140.3003   73.6534  220.5110 H   0  0  0  0  0  0  0  0  0  0  0  0
  138.8910   74.3260  222.7490 H   0  0  0  0  0  0  0  0  0  0  0  0
  141.8385   74.9187  222.3541 H   0  0  0  0  0  0  0  0  0  0  0  0
  141.9427   75.4187  220.6800 H   0  0  0  0  0  0  0  0  0  0  0  0
  140.9234   76.9043  222.9327 H   0  0  0  0  0  0  0  0  0  0  0  0
  141.7290   77.3375  220.2246 H   0  0  0  0  0  0  0  0  0  0  0  0
  140.0890   78.0985  220.4511 H   0  0  0  0  0  0  0  0  0  0  0  0
  141.2617   77.7859  223.3193 H   0  0  0  0  0  0  0  0  0  0  0  0
  142.8812   78.6173  223.1741 H   0  0  0  0  0  0  0  0  0  0  0  0
  140.1992   79.8309  223.8380 H   0  0  0  0  0  0  0  0  0  0  0  0
  141.7169   79.7401  224.8424 H   0  0  0  0  0  0  0  0  0  0  0  0
  141.0463   81.9601  223.6423 H   0  0  0  0  0  0  0  0  0  0  0  0
  142.7675   81.3709  223.6785 H   0  0  0  0  0  0  0  0  0  0  0  0
  141.4489   82.1910  221.4149 H   0  0  0  0  0  0  0  0  0  0  0  0
  142.8415   81.0937  221.4262 H   0  0  0  0  0  0  0  0  0  0  0  0
  139.9348   80.1176  221.8231 H   0  0  0  0  0  0  0  0  0  0  0  0
  140.6855   80.1769  220.2229 H   0  0  0  0  0  0  0  0  0  0  0  0
  138.5407   82.3750  225.4064 H   0  0  0  0  0  0  0  0  0  0  0  0
  137.4691   83.3773  227.3933 H   0  0  0  0  0  0  0  0  0  0  0  0
  135.6731   83.4684  228.8757 H   0  0  0  0  0  0  0  0  0  0  0  0
  132.3240   80.8684  228.4023 H   0  0  0  0  0  0  0  0  0  0  0  0
  133.3698   79.8574  226.4283 H   0  0  0  0  0  0  0  0  0  0  0  0
  1  2  2  0
  2  3  1  0
  3  4  1  0
  4  5  1  0
  5  6  2  0
  5  7  1  0
  7  8  1  0
  8  9  1  0
  9 10  1  0
  9 11  1  0
 11 12  1  0
 12 13  1  0
 13 14  1  0
 14 15  1  0
 15 16  1  0
 16 17  1  0
 17 18  1  0
 18 19  1  0
  2 20  1  0
 20 21  2  0
 21 22  1  0
 22 23  2  0
 23 24  1  0
 24 25  2  0
 25 26  1  0
 25 27  1  0
 27 28  2  0
 28 29  1  0
 29 30  2  0
 12  7  1  0
 19 14  1  0
 30 20  1  0
 29 23  1  0
  3 31  1  0
  4 32  1  0
  4 33  1  0
  8 34  1  0
  8 35  1  0
  9 36  1  6
 10 37  1  0
 11 38  1  0
 11 39  1  0
 12 40  1  1
 13 41  1  0
 13 42  1  0
 15 43  1  0
 15 44  1  0
 16 45  1  0
 16 46  1  0
 17 47  1  0
 17 48  1  0
 18 49  1  0
 18 50  1  0
 19 51  1  0
 19 52  1  0
 21 53  1  0
 22 54  1  0
 24 55  1  0
 27 56  1  0
 28 57  1  0
M  END
>  <smiles>  (46) 
O=C(NCC(=O)N1C[C@H](O)C[C@H]1CN1CCCCC1)c1ccc2cc(F)ccc2n1

>  <score_type>  (46) 
oracle

>  <origin>  (46) 
autodockgpu

>  <m_score__min__energy>  (46) 
-8.3800000000000008

>  <m_primary>  (46) 
energy

>  <rmsd>  (46) 
8.761614799884583

>  <m_score__min__rmsd>  (46) 
8.761614799884583

>  <meeko>  (46) 
{"free_energy": -6.78, "intermolecular_energy": -8.87, "internal_energy": -2.72, "cluster_size": 2, "cluster_id": 5, "rank_in_cluster": 1}

>  <energy>  (46) 
-7.14

>  <cluster_rmsd>  (46) 
1.47

>  <cluster>  (46) 
4

$$$$

     RDKit          3D

 57 60  0  0  0  0  0  0  0  0999 V2000
  138.2570   71.9270  221.5020 O   0  0  0  0  0  0  0  0  0  0  0  0
  137.8740   72.0260  222.7110 C   0  0  0  0  0  0  0  0  0  0  0  0
  136.9440   73.0500  223.0940 N   0  0  0  0  0  0  0  0  0  0  0  0
  136.4520   73.9720  222.0610 C   0  0  0  0  0  0  0  0  0  0  0  0
  137.1520   75.2620  222.2580 C   0  0  0  0  0  0  0  0  0  0  0  0
  136.6410   76.2600  222.8240 O   0  0  0  0  0  0  0  0  0  0  0  0
  138.4860   75.3900  221.7820 N   0  0  0  0  0  0  0  0  0  0  0  0
  139.1640   74.5690  220.7660 C   0  0  0  0  0  0  0  0  0  0  0  0
  140.4760   74.3200  221.4950 C   0  0  2  0  0  0  0  0  0  0  0  0
  140.3220   73.3980  222.5100 O   0  0  0  0  0  0  0  0  0  0  0  0
  140.8420   75.7030  221.9720 C   0  0  0  0  0  0  0  0  0  0  0  0
  139.4970   76.3550  222.1790 C   0  0  1  0  0  0  0  0  0  0  0  0
  139.3250   77.5520  221.2570 C   0  0  0  0  0  0  0  0  0  0  0  0
  139.9160   78.7470  221.7790 N   0  0  0  0  0  0  0  0  0  0  0  0
  141.3090   78.8820  221.4950 C   0  0  0  0  0  0  0  0  0  0  0  0
  142.1350   79.2410  222.7030 C   0  0  0  0  0  0  0  0  0  0  0  0
  141.5460   80.3760  223.5010 C   0  0  0  0  0  0  0  0  0  0  0  0
  140.0330   80.3500  223.5170 C   0  0  0  0  0  0  0  0  0  0  0  0
  139.6260   78.9110  223.1760 C   0  0  0  0  0  0  0  0  0  0  0  0
  138.3690   71.1050  223.7290 C   0  0  0  0  0  0  0  0  0  0  0  0
  137.8670   69.8090  223.7460 C   0  0  0  0  0  0  0  0  0  0  0  0
  138.2920   68.9050  224.6730 C   0  0  0  0  0  0  0  0  0  0  0  0
  139.2290   69.3120  225.5930 C   0  0  0  0  0  0  0  0  0  0  0  0
  139.6550   68.3940  226.5280 C   0  0  0  0  0  0  0  0  0  0  0  0
  140.5880   68.7400  227.4700 C   0  0  0  0  0  0  0  0  0  0  0  0
  141.0090   67.8470  228.3900 F   0  0  0  0  0  0  0  0  0  0  0  0
  141.0800   70.0210  227.4510 C   0  0  0  0  0  0  0  0  0  0  0  0
  140.6530   70.9390  226.5140 C   0  0  0  0  0  0  0  0  0  0  0  0
  139.7060   70.6150  225.5450 C   0  0  0  0  0  0  0  0  0  0  0  0
  139.2860   71.5040  224.6290 N   0  0  0  0  0  0  0  0  0  0  0  0
  136.6280   73.1340  224.0800 H   0  0  0  0  0  0  0  0  0  0  0  0
  136.6742   73.5712  221.0610 H   0  0  0  0  0  0  0  0  0  0  0  0
  135.3626   74.1022  222.1399 H   0  0  0  0  0  0  0  0  0  0  0  0
  138.6216   73.6339  220.5627 H   0  0  0  0  0  0  0  0  0  0  0  0
  139.2564   75.0296  219.7713 H   0  0  0  0  0  0  0  0  0  0  0  0
  141.2674   73.8735  220.8751 H   0  0  0  0  0  0  0  0  0  0  0  0
  139.3700   73.4140  222.7780 H   0  0  0  0  0  0  0  0  0  0  0  0
  141.4098   75.6597  222.9131 H   0  0  0  0  0  0  0  0  0  0  0  0
  141.4858   76.2495  221.2671 H   0  0  0  0  0  0  0  0  0  0  0  0
  139.4120   76.6740  223.2283 H   0  0  0  0  0  0  0  0  0  0  0  0
  139.7961   77.3209  220.2902 H   0  0  0  0  0  0  0  0  0  0  0  0
  138.2455   77.7360  221.1529 H   0  0  0  0  0  0  0  0  0  0  0  0
  141.6768   77.9266  221.0927 H   0  0  0  0  0  0  0  0  0  0  0  0
  141.4145   79.7057  220.7736 H   0  0  0  0  0  0  0  0  0  0  0  0
  142.2090   78.3566  223.3529 H   0  0  0  0  0  0  0  0  0  0  0  0
  143.1214   79.5683  222.3426 H   0  0  0  0  0  0  0  0  0  0  0  0
  141.9109   80.3057  224.5363 H   0  0  0  0  0  0  0  0  0  0  0  0
  141.8588   81.3168  223.0246 H   0  0  0  0  0  0  0  0  0  0  0  0
  139.6574   80.6266  224.5132 H   0  0  0  0  0  0  0  0  0  0  0  0
  139.6122   81.0669  222.7966 H   0  0  0  0  0  0  0  0  0  0  0  0
  140.2080   78.1954  223.7753 H   0  0  0  0  0  0  0  0  0  0  0  0
  138.5640   78.7262  223.3951 H   0  0  0  0  0  0  0  0  0  0  0  0
  137.1159   69.5087  223.0005 H   0  0  0  0  0  0  0  0  0  0  0  0
  137.8965   67.8786  224.6848 H   0  0  0  0  0  0  0  0  0  0  0  0
  139.2425   67.3743  226.5182 H   0  0  0  0  0  0  0  0  0  0  0  0
  141.8297   70.3217  228.1977 H   0  0  0  0  0  0  0  0  0  0  0  0
  141.0722   71.9558  226.5325 H   0  0  0  0  0  0  0  0  0  0  0  0
  1  2  2  0
  2  3  1  0
  3  4  1  0
  4  5  1  0
  5  6  2  0
  5  7  1  0
  7  8  1  0
  8  9  1  0
  9 10  1  0
  9 11  1  0
 11 12  1  0
 12 13  1  0
 13 14  1  0
 14 15  1  0
 15 16  1  0
 16 17  1  0
 17 18  1  0
 18 19  1  0
  2 20  1  0
 20 21  2  0
 21 22  1  0
 22 23  2  0
 23 24  1  0
 24 25  2  0
 25 26  1  0
 25 27  1  0
 27 28  2  0
 28 29  1  0
 29 30  2  0
 12  7  1  0
 19 14  1  0
 30 20  1  0
 29 23  1  0
  3 31  1  0
  4 32  1  0
  4 33  1  0
  8 34  1  0
  8 35  1  0
  9 36  1  6
 10 37  1  0
 11 38  1  0
 11 39  1  0
 12 40  1  1
 13 41  1  0
 13 42  1  0
 15 43  1  0
 15 44  1  0
 16 45  1  0
 16 46  1  0
 17 47  1  0
 17 48  1  0
 18 49  1  0
 18 50  1  0
 19 51  1  0
 19 52  1  0
 21 53  1  0
 22 54  1  0
 24 55  1  0
 27 56  1  0
 28 57  1  0
M  END
>  <smiles>  (47) 
O=C(NCC(=O)N1C[C@H](O)C[C@H]1CN1CCCCC1)c1ccc2cc(F)ccc2n1

>  <score_type>  (47) 
oracle

>  <origin>  (47) 
autodockgpu

>  <m_score__min__energy>  (47) 
-8.3800000000000008

>  <m_primary>  (47) 
energy

>  <rmsd>  (47) 
2.6451462521838307

>  <m_score__min__rmsd>  (47) 
2.6451462521838307

>  <meeko>  (47) 
{"free_energy": -7.86, "intermolecular_energy": -9.94, "internal_energy": -2.27, "cluster_size": 7, "cluster_id": 2, "rank_in_cluster": 1}

>  <energy>  (47) 
-6.78

>  <cluster_rmsd>  (47) 
0.0

>  <cluster>  (47) 
5

$$$$

     RDKit          3D

 57 60  0  0  0  0  0  0  0  0999 V2000
  141.1230   72.4780  221.5420 O   0  0  0  0  0  0  0  0  0  0  0  0
  140.1580   72.4840  222.3710 C   0  0  0  0  0  0  0  0  0  0  0  0
  139.0630   73.3980  222.2010 N   0  0  0  0  0  0  0  0  0  0  0  0
  139.0880   74.3160  221.0540 C   0  0  0  0  0  0  0  0  0  0  0  0
  140.0630   75.3850  221.3720 C   0  0  0  0  0  0  0  0  0  0  0  0
  140.1490   75.9490  222.4910 O   0  0  0  0  0  0  0  0  0  0  0  0
  140.9640   75.8060  220.3560 N   0  0  0  0  0  0  0  0  0  0  0  0
  140.9910   75.3880  218.9450 C   0  0  0  0  0  0  0  0  0  0  0  0
  142.4810   75.1160  218.8030 C   0  0  2  0  0  0  0  0  0  0  0  0
  142.8410   73.9390  219.4280 O   0  0  0  0  0  0  0  0  0  0  0  0
  143.0890   76.3490  219.4220 C   0  0  0  0  0  0  0  0  0  0  0  0
  142.0690   76.7450  220.4600 C   0  0  1  0  0  0  0  0  0  0  0  0
  141.4870   78.1170  220.1580 C   0  0  0  0  0  0  0  0  0  0  0  0
  141.1220   78.8390  221.3390 N   0  0  0  0  0  0  0  0  0  0  0  0
  140.4560   80.0760  221.0850 C   0  0  0  0  0  0  0  0  0  0  0  0
  141.0250   81.2340  221.8640 C   0  0  0  0  0  0  0  0  0  0  0  0
  141.2230   80.9180  223.3240 C   0  0  0  0  0  0  0  0  0  0  0  0
  141.6460   79.4840  223.5550 C   0  0  0  0  0  0  0  0  0  0  0  0
  142.2390   78.9930  222.2280 C   0  0  0  0  0  0  0  0  0  0  0  0
  140.1430   71.5680  223.5070 C   0  0  0  0  0  0  0  0  0  0  0  0
  139.5940   70.3040  223.3270 C   0  0  0  0  0  0  0  0  0  0  0  0
  139.5520   69.4060  224.3510 C   0  0  0  0  0  0  0  0  0  0  0  0
  140.0670   69.7870  225.5680 C   0  0  0  0  0  0  0  0  0  0  0  0
  140.0220   68.8750  226.6000 C   0  0  0  0  0  0  0  0  0  0  0  0
  140.5200   69.1950  227.8360 C   0  0  0  0  0  0  0  0  0  0  0  0
  140.4790   68.3080  228.8520 F   0  0  0  0  0  0  0  0  0  0  0  0
  141.0610   70.4450  228.0090 C   0  0  0  0  0  0  0  0  0  0  0  0
  141.1050   71.3560  226.9750 C   0  0  0  0  0  0  0  0  0  0  0  0
  140.6060   71.0580  225.7090 C   0  0  0  0  0  0  0  0  0  0  0  0
  140.6460   71.9410  224.6970 N   0  0  0  0  0  0  0  0  0  0  0  0
  138.2740   73.4060  222.8760 H   0  0  0  0  0  0  0  0  0  0  0  0
  139.4007   73.7779  220.1470 H   0  0  0  0  0  0  0  0  0  0  0  0
  138.0895   74.7393  220.8698 H   0  0  0  0  0  0  0  0  0  0  0  0
  140.3888   74.4840  218.7715 H   0  0  0  0  0  0  0  0  0  0  0  0
  140.5731   76.1121  218.2301 H   0  0  0  0  0  0  0  0  0  0  0  0
  142.8219   74.9604  217.7688 H   0  0  0  0  0  0  0  0  0  0  0  0
  142.1410   73.7360  220.0960 H   0  0  0  0  0  0  0  0  0  0  0  0
  144.0590   76.1204  219.8878 H   0  0  0  0  0  0  0  0  0  0  0  0
  143.2952   77.1446  218.6910 H   0  0  0  0  0  0  0  0  0  0  0  0
  142.5504   76.7514  221.4490 H   0  0  0  0  0  0  0  0  0  0  0  0
  142.2369   78.7027  219.6061 H   0  0  0  0  0  0  0  0  0  0  0  0
  140.5714   77.9648  219.5677 H   0  0  0  0  0  0  0  0  0  0  0  0
  140.5398   80.3030  220.0120 H   0  0  0  0  0  0  0  0  0  0  0  0
  139.4105   79.9530  221.4040 H   0  0  0  0  0  0  0  0  0  0  0  0
  141.9980   81.5056  221.4286 H   0  0  0  0  0  0  0  0  0  0  0  0
  140.3027   82.0612  221.8004 H   0  0  0  0  0  0  0  0  0  0  0  0
  142.0003   81.5841  223.7267 H   0  0  0  0  0  0  0  0  0  0  0  0
  140.2588   81.0676  223.8318 H   0  0  0  0  0  0  0  0  0  0  0  0
  142.4021   79.4333  224.3524 H   0  0  0  0  0  0  0  0  0  0  0  0
  140.7954   78.8610  223.8685 H   0  0  0  0  0  0  0  0  0  0  0  0
  142.9490   79.7319  221.8280 H   0  0  0  0  0  0  0  0  0  0  0  0
  142.7921   78.0505  222.3535 H   0  0  0  0  0  0  0  0  0  0  0  0
  139.1875   70.0245  222.3438 H   0  0  0  0  0  0  0  0  0  0  0  0
  139.1186   68.4051  224.2084 H   0  0  0  0  0  0  0  0  0  0  0  0
  139.5824   67.8811  226.4302 H   0  0  0  0  0  0  0  0  0  0  0  0
  141.4674   70.7252  228.9920 H   0  0  0  0  0  0  0  0  0  0  0  0
  141.5470   72.3471  227.1550 H   0  0  0  0  0  0  0  0  0  0  0  0
  1  2  2  0
  2  3  1  0
  3  4  1  0
  4  5  1  0
  5  6  2  0
  5  7  1  0
  7  8  1  0
  8  9  1  0
  9 10  1  0
  9 11  1  0
 11 12  1  0
 12 13  1  0
 13 14  1  0
 14 15  1  0
 15 16  1  0
 16 17  1  0
 17 18  1  0
 18 19  1  0
  2 20  1  0
 20 21  2  0
 21 22  1  0
 22 23  2  0
 23 24  1  0
 24 25  2  0
 25 26  1  0
 25 27  1  0
 27 28  2  0
 28 29  1  0
 29 30  2  0
 12  7  1  0
 19 14  1  0
 30 20  1  0
 29 23  1  0
  3 31  1  0
  4 32  1  0
  4 33  1  0
  8 34  1  0
  8 35  1  0
  9 36  1  6
 10 37  1  0
 11 38  1  0
 11 39  1  0
 12 40  1  1
 13 41  1  0
 13 42  1  0
 15 43  1  0
 15 44  1  0
 16 45  1  0
 16 46  1  0
 17 47  1  0
 17 48  1  0
 18 49  1  0
 18 50  1  0
 19 51  1  0
 19 52  1  0
 21 53  1  0
 22 54  1  0
 24 55  1  0
 27 56  1  0
 28 57  1  0
M  END
>  <smiles>  (48) 
O=C(NCC(=O)N1C[C@H](O)C[C@H]1CN1CCCCC1)c1ccc2cc(F)ccc2n1

>  <score_type>  (48) 
oracle

>  <origin>  (48) 
autodockgpu

>  <m_score__min__energy>  (48) 
-8.3800000000000008

>  <m_primary>  (48) 
energy

>  <rmsd>  (48) 
2.2191994853571946

>  <m_score__min__rmsd>  (48) 
2.2191994853571946

>  <meeko>  (48) 
{"free_energy": -7.74, "intermolecular_energy": -9.83, "internal_energy": -2.26, "cluster_size": 33, "cluster_id": 1, "rank_in_cluster": 18}

>  <energy>  (48) 
-6.78

>  <cluster_rmsd>  (48) 
0.13

>  <cluster>  (48) 
5

$$$$

     RDKit          3D

 57 60  0  0  0  0  0  0  0  0999 V2000
  141.5250   75.2080  221.2900 O   0  0  0  0  0  0  0  0  0  0  0  0
  140.4120   75.1810  221.9060 C   0  0  0  0  0  0  0  0  0  0  0  0
  139.8000   73.9260  222.2410 N   0  0  0  0  0  0  0  0  0  0  0  0
  140.4880   72.6860  221.8580 C   0  0  0  0  0  0  0  0  0  0  0  0
  140.1580   71.6690  222.8820 C   0  0  0  0  0  0  0  0  0  0  0  0
  141.0030   71.1420  223.6480 O   0  0  0  0  0  0  0  0  0  0  0  0
  138.8040   71.2570  223.0180 N   0  0  0  0  0  0  0  0  0  0  0  0
  137.7980   71.0990  221.9550 C   0  0  0  0  0  0  0  0  0  0  0  0
  136.6330   71.8180  222.6180 C   0  0  2  0  0  0  0  0  0  0  0  0
  136.8110   73.1870  222.6030 O   0  0  0  0  0  0  0  0  0  0  0  0
  136.6320   71.2140  224.0000 C   0  0  0  0  0  0  0  0  0  0  0  0
  138.0880   70.8940  224.2300 C   0  0  1  0  0  0  0  0  0  0  0  0
  138.2940   69.3980  224.4100 C   0  0  0  0  0  0  0  0  0  0  0  0
  139.4580   69.0860  225.1840 N   0  0  0  0  0  0  0  0  0  0  0  0
  139.4380   67.7850  225.7710 C   0  0  0  0  0  0  0  0  0  0  0  0
  139.7940   67.7820  227.2360 C   0  0  0  0  0  0  0  0  0  0  0  0
  141.0320   68.5870  227.5390 C   0  0  0  0  0  0  0  0  0  0  0  0
  141.1540   69.8160  226.6650 C   0  0  0  0  0  0  0  0  0  0  0  0
  139.7420   70.1140  226.1460 C   0  0  0  0  0  0  0  0  0  0  0  0
  139.7370   76.4190  222.2820 C   0  0  0  0  0  0  0  0  0  0  0  0
  138.3500   76.4670  222.1950 C   0  0  0  0  0  0  0  0  0  0  0  0
  137.6660   77.5950  222.5340 C   0  0  0  0  0  0  0  0  0  0  0  0
  138.3850   78.6860  222.9620 C   0  0  0  0  0  0  0  0  0  0  0  0
  137.6880   79.8240  223.3040 C   0  0  0  0  0  0  0  0  0  0  0  0
  138.3490   80.9420  223.7380 C   0  0  0  0  0  0  0  0  0  0  0  0
  137.6720   82.0610  224.0730 F   0  0  0  0  0  0  0  0  0  0  0  0
  139.7180   80.8910  223.8230 C   0  0  0  0  0  0  0  0  0  0  0  0
  140.4140   79.7510  223.4810 C   0  0  0  0  0  0  0  0  0  0  0  0
  139.7690   78.5990  223.0360 C   0  0  0  0  0  0  0  0  0  0  0  0
  140.4410   77.4850  222.7010 N   0  0  0  0  0  0  0  0  0  0  0  0
  138.8920   73.9010  222.7440 H   0  0  0  0  0  0  0  0  0  0  0  0
  140.1405   72.3520  220.8692 H   0  0  0  0  0  0  0  0  0  0  0  0
  141.5751   72.8440  221.8002 H   0  0  0  0  0  0  0  0  0  0  0  0
  138.1063   71.5891  221.0197 H   0  0  0  0  0  0  0  0  0  0  0  0
  137.5982   70.0629  221.6441 H   0  0  0  0  0  0  0  0  0  0  0  0
  135.6657   71.6899  222.1100 H   0  0  0  0  0  0  0  0  0  0  0  0
  137.2980   73.4280  223.4290 H   0  0  0  0  0  0  0  0  0  0  0  0
  136.2624   71.9332  224.7458 H   0  0  0  0  0  0  0  0  0  0  0  0
  135.9753   70.3361  224.0895 H   0  0  0  0  0  0  0  0  0  0  0  0
  138.4356   71.4318  225.1244 H   0  0  0  0  0  0  0  0  0  0  0  0
  137.4121   68.9807  224.9181 H   0  0  0  0  0  0  0  0  0  0  0  0
  138.4347   68.9610  223.4104 H   0  0  0  0  0  0  0  0  0  0  0  0
  138.4269   67.3670  225.6573 H   0  0  0  0  0  0  0  0  0  0  0  0
  140.1983   67.1834  225.2515 H   0  0  0  0  0  0  0  0  0  0  0  0
  138.9520   68.2057  227.8030 H   0  0  0  0  0  0  0  0  0  0  0  0
  139.9980   66.7403  227.5247 H   0  0  0  0  0  0  0  0  0  0  0  0
  140.9969   68.9050  228.5915 H   0  0  0  0  0  0  0  0  0  0  0  0
  141.9037   67.9468  227.3380 H   0  0  0  0  0  0  0  0  0  0  0  0
  141.5315   70.6658  227.2526 H   0  0  0  0  0  0  0  0  0  0  0  0
  141.8588   69.6505  225.8368 H   0  0  0  0  0  0  0  0  0  0  0  0
  139.0148   70.0795  226.9706 H   0  0  0  0  0  0  0  0  0  0  0  0
  139.6761   71.1174  225.7002 H   0  0  0  0  0  0  0  0  0  0  0  0
  137.7975   75.5816  221.8475 H   0  0  0  0  0  0  0  0  0  0  0  0
  136.5687   77.6321  222.4672 H   0  0  0  0  0  0  0  0  0  0  0  0
  136.5907   79.8347  223.2278 H   0  0  0  0  0  0  0  0  0  0  0  0
  140.2704   81.7765  224.1706 H   0  0  0  0  0  0  0  0  0  0  0  0
  141.5110   79.7510  223.5619 H   0  0  0  0  0  0  0  0  0  0  0  0
  1  2  2  0
  2  3  1  0
  3  4  1  0
  4  5  1  0
  5  6  2  0
  5  7  1  0
  7  8  1  0
  8  9  1  0
  9 10  1  0
  9 11  1  0
 11 12  1  0
 12 13  1  0
 13 14  1  0
 14 15  1  0
 15 16  1  0
 16 17  1  0
 17 18  1  0
 18 19  1  0
  2 20  1  0
 20 21  2  0
 21 22  1  0
 22 23  2  0
 23 24  1  0
 24 25  2  0
 25 26  1  0
 25 27  1  0
 27 28  2  0
 28 29  1  0
 29 30  2  0
 12  7  1  0
 19 14  1  0
 30 20  1  0
 29 23  1  0
  3 31  1  0
  4 32  1  0
  4 33  1  0
  8 34  1  0
  8 35  1  0
  9 36  1  6
 10 37  1  0
 11 38  1  0
 11 39  1  0
 12 40  1  1
 13 41  1  0
 13 42  1  0
 15 43  1  0
 15 44  1  0
 16 45  1  0
 16 46  1  0
 17 47  1  0
 17 48  1  0
 18 49  1  0
 18 50  1  0
 19 51  1  0
 19 52  1  0
 21 53  1  0
 22 54  1  0
 24 55  1  0
 27 56  1  0
 28 57  1  0
M  END
>  <smiles>  (49) 
O=C(NCC(=O)N1C[C@H](O)C[C@H]1CN1CCCCC1)c1ccc2cc(F)ccc2n1

>  <score_type>  (49) 
oracle

>  <origin>  (49) 
autodockgpu

>  <m_score__min__energy>  (49) 
-8.3800000000000008

>  <m_primary>  (49) 
energy

>  <rmsd>  (49) 
9.456453813058143

>  <m_score__min__rmsd>  (49) 
9.456453813058143

>  <meeko>  (49) 
{"free_energy": -7.14, "intermolecular_energy": -9.23, "internal_energy": -2.18, "cluster_size": 3, "cluster_id": 4, "rank_in_cluster": 3}

>  <energy>  (49) 
-6.47

>  <cluster_rmsd>  (49) 
0.0

>  <cluster>  (49) 
6

$$$$

     RDKit          3D

 57 60  0  0  0  0  0  0  0  0999 V2000
  141.2700   72.2030  221.5170 O   0  0  0  0  0  0  0  0  0  0  0  0
  140.4140   72.4470  222.4260 C   0  0  0  0  0  0  0  0  0  0  0  0
  139.5880   73.6200  222.3480 N   0  0  0  0  0  0  0  0  0  0  0  0
  139.7590   74.5220  221.2010 C   0  0  0  0  0  0  0  0  0  0  0  0
  139.2160   75.8410  221.5980 C   0  0  0  0  0  0  0  0  0  0  0  0
  138.4730   76.0240  222.5940 O   0  0  0  0  0  0  0  0  0  0  0  0
  139.5510   76.9780  220.8130 N   0  0  0  0  0  0  0  0  0  0  0  0
  138.8310   78.2590  220.7270 C   0  0  0  0  0  0  0  0  0  0  0  0
  138.8150   78.4250  219.2150 C   0  0  2  0  0  0  0  0  0  0  0  0
  137.9010   77.5760  218.6240 O   0  0  0  0  0  0  0  0  0  0  0  0
  140.2480   78.1350  218.8480 C   0  0  0  0  0  0  0  0  0  0  0  0
  140.6760   77.1520  219.9100 C   0  0  1  0  0  0  0  0  0  0  0  0
  141.8090   77.7180  220.7510 C   0  0  0  0  0  0  0  0  0  0  0  0
  141.3750   78.7450  221.6500 N   0  0  0  0  0  0  0  0  0  0  0  0
  142.0260   80.0010  221.4600 C   0  0  0  0  0  0  0  0  0  0  0  0
  142.5430   80.6080  222.7400 C   0  0  0  0  0  0  0  0  0  0  0  0
  141.5230   80.5930  223.8490 C   0  0  0  0  0  0  0  0  0  0  0  0
  140.6500   79.3580  223.8180 C   0  0  0  0  0  0  0  0  0  0  0  0
  141.4250   78.3050  223.0160 C   0  0  0  0  0  0  0  0  0  0  0  0
  140.2510   71.5440  223.5610 C   0  0  0  0  0  0  0  0  0  0  0  0
  139.6060   70.3310  223.3520 C   0  0  0  0  0  0  0  0  0  0  0  0
  139.4260   69.4490  224.3750 C   0  0  0  0  0  0  0  0  0  0  0  0
  139.8990   69.7920  225.6190 C   0  0  0  0  0  0  0  0  0  0  0  0
  139.7150   68.8960  226.6490 C   0  0  0  0  0  0  0  0  0  0  0  0
  140.1650   69.1810  227.9110 C   0  0  0  0  0  0  0  0  0  0  0  0
  139.9870   68.3090  228.9250 F   0  0  0  0  0  0  0  0  0  0  0  0
  140.8020   70.3800  228.1130 C   0  0  0  0  0  0  0  0  0  0  0  0
  140.9860   71.2760  227.0810 C   0  0  0  0  0  0  0  0  0  0  0  0
  140.5390   71.0130  225.7880 C   0  0  0  0  0  0  0  0  0  0  0  0
  140.7150   71.8810  224.7780 N   0  0  0  0  0  0  0  0  0  0  0  0
  138.8880   73.8210  223.0870 H   0  0  0  0  0  0  0  0  0  0  0  0
  140.8259   74.6137  220.9492 H   0  0  0  0  0  0  0  0  0  0  0  0
  139.2337   74.1332  220.3162 H   0  0  0  0  0  0  0  0  0  0  0  0
  137.8157   78.1899  221.1447 H   0  0  0  0  0  0  0  0  0  0  0  0
  139.2799   79.0915  221.2886 H   0  0  0  0  0  0  0  0  0  0  0  0
  138.4914   79.4168  218.8662 H   0  0  0  0  0  0  0  0  0  0  0  0
  138.0160   76.6860  219.0400 H   0  0  0  0  0  0  0  0  0  0  0  0
  140.3171   77.6888  217.8449 H   0  0  0  0  0  0  0  0  0  0  0  0
  140.8778   79.0361  218.8112 H   0  0  0  0  0  0  0  0  0  0  0  0
  140.9985   76.2193  219.4241 H   0  0  0  0  0  0  0  0  0  0  0  0
  142.2521   76.9007  221.3390 H   0  0  0  0  0  0  0  0  0  0  0  0
  142.5390   78.1683  220.0622 H   0  0  0  0  0  0  0  0  0  0  0  0
  142.8750   79.8536  220.7763 H   0  0  0  0  0  0  0  0  0  0  0  0
  141.2777   80.6956  221.0506 H   0  0  0  0  0  0  0  0  0  0  0  0
  143.4257   80.0389  223.0671 H   0  0  0  0  0  0  0  0  0  0  0  0
  142.7888   81.6597  222.5313 H   0  0  0  0  0  0  0  0  0  0  0  0
  142.0505   80.6277  224.8136 H   0  0  0  0  0  0  0  0  0  0  0  0
  140.8694   81.4672  223.7131 H   0  0  0  0  0  0  0  0  0  0  0  0
  140.4635   78.9973  224.8403 H   0  0  0  0  0  0  0  0  0  0  0  0
  139.6723   79.5701  223.3606 H   0  0  0  0  0  0  0  0  0  0  0  0
  142.4673   78.2486  223.3632 H   0  0  0  0  0  0  0  0  0  0  0  0
  140.9908   77.3015  223.1362 H   0  0  0  0  0  0  0  0  0  0  0  0
  139.2357   70.0794  222.3472 H   0  0  0  0  0  0  0  0  0  0  0  0
  138.9159   68.4885  224.2096 H   0  0  0  0  0  0  0  0  0  0  0  0
  139.2017   67.9424  226.4562 H   0  0  0  0  0  0  0  0  0  0  0  0
  141.1730   70.6310  229.1177 H   0  0  0  0  0  0  0  0  0  0  0  0
  141.5009   72.2264  227.2848 H   0  0  0  0  0  0  0  0  0  0  0  0
  1  2  2  0
  2  3  1  0
  3  4  1  0
  4  5  1  0
  5  6  2  0
  5  7  1  0
  7  8  1  0
  8  9  1  0
  9 10  1  0
  9 11  1  0
 11 12  1  0
 12 13  1  0
 13 14  1  0
 14 15  1  0
 15 16  1  0
 16 17  1  0
 17 18  1  0
 18 19  1  0
  2 20  1  0
 20 21  2  0
 21 22  1  0
 22 23  2  0
 23 24  1  0
 24 25  2  0
 25 26  1  0
 25 27  1  0
 27 28  2  0
 28 29  1  0
 29 30  2  0
 12  7  1  0
 19 14  1  0
 30 20  1  0
 29 23  1  0
  3 31  1  0
  4 32  1  0
  4 33  1  0
  8 34  1  0
  8 35  1  0
  9 36  1  1
 10 37  1  0
 11 38  1  0
 11 39  1  0
 12 40  1  6
 13 41  1  0
 13 42  1  0
 15 43  1  0
 15 44  1  0
 16 45  1  0
 16 46  1  0
 17 47  1  0
 17 48  1  0
 18 49  1  0
 18 50  1  0
 19 51  1  0
 19 52  1  0
 21 53  1  0
 22 54  1  0
 24 55  1  0
 27 56  1  0
 28 57  1  0
M  END
>  <smiles>  (50) 
O=C(NCC(=O)N1C[C@H](O)C[C@H]1CN1CCCCC1)c1ccc2cc(F)ccc2n1

>  <score_type>  (50) 
oracle

>  <origin>  (50) 
autodockgpu

>  <m_score__min__energy>  (50) 
-8.3800000000000008

>  <m_primary>  (50) 
energy

>  <rmsd>  (50) 
2.6217747699629994

>  <m_score__min__rmsd>  (50) 
2.6217747699629994

>  <meeko>  (50) 
{"free_energy": -7.56, "intermolecular_energy": -9.65, "internal_energy": -1.9, "cluster_size": 33, "cluster_id": 1, "rank_in_cluster": 23}

>  <energy>  (50) 
-5.57

>  <cluster_rmsd>  (50) 
0.0

>  <cluster>  (50) 
7

$$$$
